drugbank_target|P0DTC1 Replicase polyprotein 1a (DB15796; DB15797)
 OpenBabel12092121253D

  0  0  0     0  0            999 V3000
M  V30 BEGIN CTAB
M  V30 COUNTS 68686 69419 0 0 0
M  V30 BEGIN ATOM
M  V30 1 H -0.908 1.98254 -0.117106 0
M  V30 2 N 0 1.576 0 0
M  V30 3 C 0.933 2.03868 1.02534 0
M  V30 4 C 1.911 0.928543 1.3348 0
M  V30 5 O 3.095 1.19667 1.45644 0
M  V30 6 C 0.222 2.43627 2.35294 0
M  V30 7 C -0.732 3.65373 2.2001 0
M  V30 8 S 0.101 5.13292 1.52614 0
M  V30 9 C 1.257 5.56322 2.86805 0
M  V30 10 H 1.49 2.90518 0.631377 0
M  V30 11 H -0.977 1.52953 0.210867 0
M  V30 12 H 0.981 2.67203 3.11629 0
M  V30 13 H -0.358 1.57376 2.7183 0
M  V30 14 H -1.165 3.90944 3.18086 0
M  V30 15 H -1.563 3.418 1.51819 0
M  V30 16 H 0.729 5.58782 3.83104 0
M  V30 17 H 1.672 6.56266 2.65933 0
M  V30 18 H 2.08 4.83886 2.90714 0
M  V30 19 N 1.4781 -0.272755 1.55222 0
M  V30 20 C 2.3881 -1.35918 1.91216 0
M  V30 21 C 3.4041 -1.54026 0.809436 0
M  V30 22 O 4.5801 -1.68148 1.10852 0
M  V30 23 C 1.6451 -2.69834 2.17693 0
M  V30 24 C 0.7061 -2.6047 3.41253 0
M  V30 25 C -0.0609 -3.88 3.66458 0
M  V30 26 O 0.1621 -4.88693 2.94169 0
M  V30 27 O -0.9039 -3.88189 4.59992 0
M  V30 28 H 2.9221 -1.0839 2.83699 0
M  V30 29 H 0.5071 -0.471301 1.41771 0
M  V30 30 H 2.3891 -3.49017 2.36147 0
M  V30 31 H 1.0641 -2.97148 1.28392 0
M  V30 32 H -0.0289 -1.79663 3.28134 0
M  V30 33 H 1.3041 -2.38106 4.30774 0
M  V30 34 N 2.9562 -1.48159 -0.537278 0
M  V30 35 C 4.1812 -1.59707 -1.32319 0
M  V30 36 C 4.6062 -0.254859 -1.86365 0
M  V30 37 O 3.9642 0.772378 -1.64024 0
M  V30 38 C 4.0122 -2.6412 -2.45505 0
M  V30 39 O 3.1162 -2.20774 -3.48328 0
M  V30 40 H 2.4572 -0.535791 -0.392204 0
M  V30 41 H 4.9872 -1.94092 -0.647268 0
M  V30 42 H 4.9972 -2.85166 -2.91795 0
M  V30 43 H 3.6722 -3.61567 -2.05528 0
M  V30 44 H 2.2492 -2.09911 -3.08207 0
M  V30 45 N 4.4343 0.785586 -1.36625 0
M  V30 46 C 5.3643 1.91259 -1.33949 0
M  V30 47 C 6.3453 1.68795 -0.210325 0
M  V30 48 O 7.5303 1.89854 -0.408561 0
M  V30 49 C 4.6603 3.28339 -1.13186 0
M  V30 50 C 3.6143 3.65335 -2.22967 0
M  V30 51 C 2.9403 5.00806 -1.87342 0
M  V30 52 C 4.2403 3.7352 -3.65075 0
M  V30 53 H 5.9343 1.93755 -2.28253 0
M  V30 54 H 3.4803 0.930788 -1.09874 0
M  V30 55 H 5.4333 4.06804 -1.09948 0
M  V30 56 H 4.1573 3.2624 -0.153332 0
M  V30 57 H 2.8163 2.89169 -2.25337 0
M  V30 58 H 2.4643 4.95233 -0.880545 0
M  V30 59 H 2.1643 5.26529 -2.60846 0
M  V30 60 H 3.6883 5.81687 -1.85667 0
M  V30 61 H 5.1023 4.42168 -3.64911 0
M  V30 62 H 3.4993 4.10731 -4.37516 0
M  V30 63 H 4.5693 2.74527 -3.99703 0
M  V30 64 N 5.9124 1.20967 1.01018 0
M  V30 65 C 7.1584 1.02526 1.74975 0
M  V30 66 C 7.4914 -0.4408 1.89131 0
M  V30 67 O 6.7664 -1.32718 1.42184 0
M  V30 68 C 7.0494 1.71699 3.1653 0
M  V30 69 C 6.9024 3.25791 3.10129 0
M  V30 70 C 8.2214 1.45531 4.15342 0
M  V30 71 H 5.3404 0.373863 0.635134 0
M  V30 72 H 7.9824 1.49071 1.17805 0
M  V30 73 H 6.1324 1.32128 3.65341 0
M  V30 74 H 7.8044 3.74697 2.69072 0
M  V30 75 H 6.0474 3.56363 2.47362 0
M  V30 76 H 6.7184 3.69353 4.10222 0
M  V30 77 H 9.1944 1.79872 3.75213 0
M  V30 78 H 8.0704 1.96453 5.1254 0
M  V30 79 H 8.3314 0.384237 4.40427 0
M  V30 80 N 7.3905 -1.2043 1.01659 0
M  V30 81 C 8.8015 -1.71517 0.737482 0
M  V30 82 C 9.1525 -1.81547 -0.743973 0
M  V30 83 O 8.2775 -1.47803 -1.58061 0
M  V30 84 C 8.8725 -3.11515 1.33206 0
M  V30 85 C 7.4315 -3.59912 1.10183 0
M  V30 86 C 6.5785 -2.37116 1.43776 0
M  V30 87 H 9.5295 -1.05444 1.18606 0
M  V30 88 H 9.5505 -3.73575 0.722636 0
M  V30 89 H 9.0625 -3.04182 2.41028 0
M  V30 90 H 7.1635 -3.72577 0.0412756 0
M  V30 91 H 7.2765 -4.44731 1.78188 0
M  V30 92 H 5.6405 -2.39857 0.856778 0
M  V30 93 H 6.4235 -2.32424 2.52654 0
M  V30 94 N 8.8686 -0.792821 -1.36206 0
M  V30 95 C 10.1166 -0.366062 -1.98757 0
M  V30 96 C 10.4376 1.0668 -1.63231 0
M  V30 97 O 9.7076 1.73587 -0.907978 0
M  V30 98 H 8.2876 -0.132364 -0.735179 0
M  V30 99 H 10.9496 -1.01562 -1.66347 0
M  V30 100 H 10.0456 -0.460638 -3.08682 0
M  V30 101 N 10.3467 1.47872 -0.545128 0
M  V30 102 C 11.5937 2.02493 -0.0165858 0
M  V30 103 C 11.9217 1.42073 1.32836 0
M  V30 104 O 11.1767 0.561459 1.87473 0
M  V30 105 C 11.4757 3.57131 0.13867 0
M  V30 106 C 11.1417 4.36411 -1.13384 0
M  V30 107 C 9.8037 4.57792 -1.48256 0
M  V30 108 C 12.1557 4.82223 -1.97764 0
M  V30 109 C 9.4837 5.22233 -2.67376 0
M  V30 110 C 11.8357 5.47977 -3.16076 0
M  V30 111 C 10.4997 5.67593 -3.51275 0
M  V30 112 H 9.7697 0.740975 -0.00606918 0
M  V30 113 H 12.4167 1.77683 -0.714207 0
M  V30 114 H 10.7217 3.80865 0.919172 0
M  V30 115 H 12.4187 3.97031 0.562782 0
M  V30 116 H 9.0087 4.2004 -0.852297 0
M  V30 117 H 13.1927 4.65493 -1.72132 0
M  V30 118 H 8.4487 5.35616 -2.94831 0
M  V30 119 H 12.6227 5.8244 -3.81755 0
M  V30 120 H 10.2497 6.17298 -4.43675 0
M  V30 121 N 11.8248 0.280983 1.55075 0
M  V30 122 C 12.7728 -0.619864 2.24188 0
M  V30 123 C 13.7668 -1.15315 1.24092 0
M  V30 124 O 14.9728 -1.1061 1.42005 0
M  V30 125 H 11.3478 -0.218459 0.719569 0
M  V30 126 H 13.3188 -0.0141831 2.98397 0
M  V30 127 C 12.0678 -1.7899 2.98091 0
M  V30 128 H 11.3908 -1.38874 3.74905 0
M  V30 129 H 12.8308 -2.39672 3.49762 0
M  V30 130 C 11.2898 -2.68192 2.03899 0
M  V30 131 O 11.8198 -3.6872 1.594 0
M  V30 132 N 10.0258 -2.35488 1.70275 0
M  V30 133 H 9.5728 -1.53787 2.06658 0
M  V30 134 H 9.5308 -2.95442 1.07524 0
M  V30 135 N 13.3029 -1.57598 0.00835791 0
M  V30 136 C 14.2129 -2.12385 -0.996487 0
M  V30 137 C 15.2289 -1.07108 -1.37127 0
M  V30 138 O 16.4049 -1.39055 -1.4569 0
M  V30 139 C 13.4699 -2.62314 -2.26699 0
M  V30 140 C 12.5309 -3.82225 -1.95456 0
M  V30 141 C 11.7639 -4.29763 -3.16449 0
M  V30 142 O 11.9869 -3.76584 -4.28416 0
M  V30 143 O 10.9209 -5.21832 -2.99958 0
M  V30 144 H 14.7469 -2.98479 -0.560725 0
M  V30 145 H 12.3319 -1.47903 -0.210987 0
M  V30 146 H 14.2139 -2.94589 -3.01322 0
M  V30 147 H 12.8889 -1.79313 -2.69497 0
M  V30 148 H 11.7959 -3.54909 -1.18282 0
M  V30 149 H 13.1289 -4.66324 -1.57489 0
M  V30 150 N 14.781 0.264519 -1.55364 0
M  V30 151 C 15.728 1.32717 -1.88825 0
M  V30 152 C 16.698 1.48675 -0.740605 0
M  V30 153 O 17.883 1.62945 -0.992657 0
M  V30 154 C 15.023 2.68089 -2.17307 0
M  V30 155 C 14.136 2.60284 -3.44785 0
M  V30 156 C 13.271 3.87892 -3.62924 0
M  V30 157 C 12.31 3.74631 -4.84064 0
M  V30 158 N 11.447 4.94092 -4.98816 0
M  V30 159 H 16.287 1.03481 -2.79456 0
M  V30 160 H 13.824 0.499757 -1.3835 0
M  V30 161 H 15.782 3.46864 -2.31821 0
M  V30 162 H 14.412 2.95509 -1.299 0
M  V30 163 H 13.464 1.73173 -3.38697 0
M  V30 164 H 14.776 2.46388 -4.33698 0
M  V30 165 H 13.93 4.75109 -3.77302 0
M  V30 166 H 12.669 4.04664 -2.7221 0
M  V30 167 H 11.674 2.85797 -4.69681 0
M  V30 168 H 12.899 3.5937 -5.76221 0
M  V30 169 H 10.845 5.11259 -4.11036 0
M  V30 170 H 10.762 4.8276 -5.81789 0
M  V30 171 H 12.03 5.82857 -5.17588 0
M  V30 172 N 16.2591 1.48442 0.529413 0
M  V30 173 C 17.4871 1.60151 1.30994 0
M  V30 174 C 17.9021 0.261985 1.86973 0
M  V30 175 O 17.2591 -0.748805 1.66431 0
M  V30 176 C 17.3101 2.64854 2.46038 0
M  V30 177 O 17.0311 3.93608 1.92365 0
M  V30 178 C 18.5321 2.87007 3.37849 0
M  V30 179 H 15.7521 0.539971 0.398338 0
M  V30 180 H 18.2961 1.94273 0.638597 0
M  V30 181 H 16.4511 2.33589 3.09055 0
M  V30 182 H 16.8651 4.51055 2.67675 0
M  V30 183 H 18.3391 3.64068 4.14919 0
M  V30 184 H 18.8161 1.95852 3.93114 0
M  V30 185 H 19.4221 3.19579 2.80623 0
M  V30 186 N 17.7372 -0.778329 1.37039 0
M  V30 187 C 18.6872 -1.88142 1.28789 0
M  V30 188 C 19.6712 -1.59923 0.177063 0
M  V30 189 O 20.8632 -1.72165 0.410873 0
M  V30 190 C 17.9922 -3.25518 1.09055 0
M  V30 191 C 17.0782 -3.5971 2.24654 0
M  V30 192 N 17.4692 -3.65131 3.50018 0
M  V30 193 C 15.7672 -3.89837 2.16663 0
M  V30 194 C 16.4682 -3.95882 4.26207 0
M  V30 195 N 15.4442 -4.11441 3.55271 0
M  V30 196 H 19.2462 -1.90575 2.23737 0
M  V30 197 H 16.7602 -0.974435 1.29917 0
M  V30 198 H 18.7572 -4.04423 1.0123 0
M  V30 199 H 17.4172 -3.24353 0.15018 0
M  V30 200 H 18.4282 -3.475 3.84011 0
M  V30 201 H 15.1052 -3.96533 1.30645 0
M  V30 202 H 16.4952 -4.06907 5.34674 0
M  V30 203 N 19.2153 -1.21501 -1.00376 0
M  V30 204 C 20.4613 -1.03452 -1.74429 0
M  V30 205 C 20.7943 0.430764 -1.89362 0
M  V30 206 O 20.0693 1.31962 -1.42886 0
M  V30 207 C 20.3523 -1.73375 -3.15615 0
M  V30 208 C 20.2053 -3.27431 -3.08397 0
M  V30 209 C 21.5243 -1.47732 -4.14564 0
M  V30 210 H 18.6433 -0.377226 -0.633143 0
M  V30 211 H 21.2853 -1.49693 -1.17013 0
M  V30 212 H 19.4353 -1.34064 -3.64636 0
M  V30 213 H 21.1073 -3.76119 -2.67081 0
M  V30 214 H 19.3503 -3.5767 -2.45468 0
M  V30 215 H 20.0213 -3.71524 -4.08258 0
M  V30 216 H 22.4973 -1.8186 -3.74254 0
M  V30 217 H 21.3733 -1.99169 -5.11491 0
M  V30 218 H 21.6343 -0.407589 -4.40217 0
M  V30 219 N 20.6934 1.19889 -1.02296 0
M  V30 220 C 21.6254 2.22334 -0.556787 0
M  V30 221 C 22.6384 1.58674 0.364199 0
M  V30 222 O 23.8274 1.77768 0.161533 0
M  V30 223 C 20.9274 3.38257 0.208694 0
M  V30 224 C 20.1004 4.31504 -0.71577 0
M  V30 225 C 19.1594 5.262 0.00325597 0
M  V30 226 O 18.1854 5.65798 -0.621357 0
M  V30 227 N 19.3874 5.66303 1.27599 0
M  V30 228 H 22.1524 2.62957 -1.43784 0
M  V30 229 H 19.7134 1.34495 -0.901261 0
M  V30 230 H 21.7054 3.98616 0.699111 0
M  V30 231 H 20.2754 2.96472 0.991102 0
M  V30 232 H 19.4954 3.69016 -1.38638 0
M  V30 233 H 20.7834 4.9072 -1.34428 0
M  V30 234 H 20.1814 5.36155 1.80429 0
M  V30 235 H 18.7384 6.28942 1.71102 0
M  V30 236 N 22.1715 0.800033 1.35784 0
M  V30 237 C 23.1015 0.220184 2.3246 0
M  V30 238 C 24.0825 -0.65073 1.57161 0
M  V30 239 O 25.2675 -0.582359 1.85263 0
M  V30 240 C 22.3975 -0.637353 3.41402 0
M  V30 241 C 21.3515 0.134531 4.27789 0
M  V30 242 C 20.6775 -0.844285 5.27992 0
M  V30 243 C 21.9775 1.32979 5.05088 0
M  V30 244 H 23.6715 1.02787 2.81203 0
M  V30 245 H 21.2175 0.495717 1.35199 0
M  V30 246 H 23.1705 -1.05302 4.08031 0
M  V30 247 H 21.8945 -1.47785 2.91251 0
M  V30 248 H 20.5535 0.531296 3.6273 0
M  V30 249 H 20.2015 -1.68011 4.74111 0
M  V30 250 H 19.9015 -0.332184 5.8666 0
M  V30 251 H 21.4255 -1.2583 5.97494 0
M  V30 252 H 22.8395 0.98934 5.64699 0
M  V30 253 H 21.2365 1.77593 5.7322 0
M  V30 254 H 22.3065 2.11978 4.36111 0
M  V30 255 N 23.6496 -1.47581 0.552962 0
M  V30 256 C 24.8746 -2.07378 0.0300593 0
M  V30 257 C 25.2996 -1.40355 -1.25229 0
M  V30 258 O 24.6576 -0.477099 -1.7491 0
M  V30 259 C 24.7056 -3.60274 -0.153231 0
M  V30 260 O 23.8096 -3.94041 -1.21678 0
M  V30 261 H 23.1506 -0.662158 0.0494182 0
M  V30 262 H 25.6806 -1.89662 0.767434 0
M  V30 263 H 25.6906 -4.0633 -0.368761 0
M  V30 264 H 24.3656 -4.08455 0.783397 0
M  V30 265 H 22.9426 -3.59735 -0.982079 0
M  V30 266 N 25.1277 -0.289203 -1.54924 0
M  V30 267 C 26.0577 0.58549 -2.2604 0
M  V30 268 C 27.0387 1.14753 -1.25562 0
M  V30 269 O 28.2237 1.17906 -1.54311 0
M  V30 270 C 25.3537 1.76305 -2.99222 0
M  V30 271 C 24.3077 1.33191 -4.06748 0
M  V30 272 C 23.6337 2.5937 -4.6758 0
M  V30 273 C 24.9337 0.471775 -5.20165 0
M  V30 274 H 26.6277 -0.00763532 -2.99399 0
M  V30 275 H 24.1737 -0.00511229 -1.43999 0
M  V30 276 H 26.1267 2.38097 -3.47689 0
M  V30 277 H 24.8507 2.38223 -2.23422 0
M  V30 278 H 23.5097 0.737121 -3.59113 0
M  V30 279 H 23.1577 3.19576 -3.88433 0
M  V30 280 H 22.8577 2.31228 -5.40192 0
M  V30 281 H 24.3817 3.21985 -5.18804 0
M  V30 282 H 25.7957 0.995056 -5.64599 0
M  V30 283 H 24.1927 0.284639 -5.99425 0
M  V30 284 H 25.2627 -0.506041 -4.82252 0
M  V30 285 N 26.6058 1.57591 -0.0167156 0
M  V30 286 C 28.0168 1.79201 0.523834 0
M  V30 287 C 28.3678 0.925796 1.72984 0
M  V30 288 O 27.4928 0.132792 2.15992 0
M  V30 289 C 28.0878 3.25 0.957091 0
M  V30 290 C 26.6468 3.47648 1.44283 0
M  V30 291 C 25.7938 2.74374 0.401757 0
M  V30 292 H 28.7448 1.56831 -0.242816 0
M  V30 293 H 28.7658 3.34031 1.82219 0
M  V30 294 H 28.2778 3.88019 0.0791415 0
M  V30 295 H 26.3788 2.89866 2.34113 0
M  V30 296 H 26.4918 4.56352 1.45877 0
M  V30 297 H 24.8558 2.39485 0.867121 0
M  V30 298 H 25.6388 3.40102 -0.467513 0
M  V30 299 N 28.0839 -0.256276 1.55502 0
M  V30 300 C 29.3299 -0.987079 1.77157 0
M  V30 301 C 29.6629 -1.85327 0.580315 0
M  V30 302 O 28.9379 -1.89874 -0.421686 0
M  V30 303 C 29.2209 -1.85553 3.08613 0
M  V30 304 C 29.0739 -1.01816 4.38125 0
M  V30 305 C 30.3929 -2.8397 3.36228 0
M  V30 306 H 27.5119 -0.357428 0.644526 0
M  V30 307 H 30.1539 -0.258239 1.88237 0
M  V30 308 H 28.3039 -2.47695 2.99298 0
M  V30 309 H 29.9759 -0.416159 4.59419 0
M  V30 310 H 28.2189 -0.322178 4.32602 0
M  V30 311 H 28.8899 -1.65939 5.26468 0
M  V30 312 H 31.3659 -2.31964 3.45445 0
M  V30 313 H 30.2419 -3.41864 4.29442 0
M  V30 314 H 30.5029 -3.59955 2.56681 0
M  V30 315 N 29.562 -1.4872 -0.521534 0
M  V30 316 C 30.492 -1.66771 -1.63431 0
M  V30 317 C 31.473 -0.516499 -1.62069 0
M  V30 318 O 32.658 -0.750013 -1.79132 0
M  V30 319 C 29.788 -1.71515 -3.01993 0
M  V30 320 C 28.742 -2.86222 -3.18216 0
M  V30 321 C 28.068 -2.76061 -4.57924 0
M  V30 322 C 29.368 -4.27419 -3.00184 0
M  V30 323 H 31.062 -2.59932 -1.48579 0
M  V30 324 H 28.608 -1.25089 -0.713358 0
M  V30 325 H 30.561 -1.82731 -3.7972 0
M  V30 326 H 29.285 -0.749393 -3.17886 0
M  V30 327 H 27.944 -2.74575 -2.42908 0
M  V30 328 H 27.592 -1.77437 -4.70665 0
M  V30 329 H 27.292 -3.53037 -4.69722 0
M  V30 330 H 28.816 -2.89256 -5.37739 0
M  V30 331 H 30.23 -4.39855 -3.67697 0
M  V30 332 H 28.627 -5.05458 -3.2347 0
M  V30 333 H 29.697 -4.43293 -1.96518 0
M  V30 334 N 31.0401 0.771051 -1.3745 0
M  V30 335 C 31.9721 1.89352 -1.29146 0
M  V30 336 C 32.9851 1.61477 -0.207124 0
M  V30 337 O 34.1741 1.72382 -0.463324 0
M  V30 338 C 31.2741 3.24596 -0.974195 0
M  V30 339 C 30.4471 3.80111 -2.16413 0
M  V30 340 C 29.5061 4.93832 -1.81703 0
M  V30 341 O 28.5321 5.09382 -2.54006 0
M  V30 342 N 29.7341 5.75483 -0.761573 0
M  V30 343 H 32.4991 1.96991 -2.25864 0
M  V30 344 H 30.0601 0.950191 -1.31084 0
M  V30 345 H 32.0521 3.98193 -0.722828 0
M  V30 346 H 30.6221 3.12454 -0.0955527 0
M  V30 347 H 29.8421 2.98284 -2.57721 0
M  V30 348 H 31.1301 4.13932 -2.95867 0
M  V30 349 H 30.5281 5.65469 -0.161609 0
M  V30 350 H 29.0851 6.49302 -0.570064 0
M  V30 351 N 32.5182 1.22032 0.997298 0
M  V30 352 C 33.7642 1.04376 1.73878 0
M  V30 353 C 34.0972 -0.420716 1.89588 0
M  V30 354 O 33.3722 -1.31202 1.43583 0
M  V30 355 C 33.6552 1.75047 3.14691 0
M  V30 356 C 33.5082 3.29062 3.06656 0
M  V30 357 C 34.8272 1.49928 4.13775 0
M  V30 358 H 31.9462 0.380578 0.631133 0
M  V30 359 H 34.5882 1.50312 1.16217 0
M  V30 360 H 32.7382 1.35996 3.63919 0
M  V30 361 H 34.4102 3.7753 2.65083 0
M  V30 362 H 32.6532 3.58967 2.43568 0
M  V30 363 H 33.3242 3.73683 4.06282 0
M  V30 364 H 35.8002 1.83842 3.73285 0
M  V30 365 H 34.6762 2.01878 5.10428 0
M  V30 366 H 34.9372 0.430929 4.39995 0
M  V30 367 N 33.9963 -1.19345 1.0293 0
M  V30 368 C 35.4123 -1.41069 0.746446 0
M  V30 369 C 35.6123 -1.90078 -0.668776 0
M  V30 370 O 34.6683 -2.0778 -1.4347 0
M  V30 371 C 35.9813 -2.42141 1.78292 0
M  V30 372 C 37.5293 -2.55887 1.80252 0
M  V30 373 C 38.0043 -3.60214 2.8286 0
M  V30 374 N 39.4953 -3.67711 2.81679 0
M  V30 375 C 40.2303 -4.48128 3.57727 0
M  V30 376 N 39.7263 -5.32248 4.43491 0
M  V30 377 N 41.5193 -4.42782 3.46267 0
M  V30 378 H 33.6703 -0.858536 1.94275 0
M  V30 379 H 35.9333 -0.439541 0.839945 0
M  V30 380 H 35.6393 -2.13155 2.79746 0
M  V30 381 H 35.5133 -3.41323 1.60557 0
M  V30 382 H 37.9003 -2.84196 0.794757 0
M  V30 383 H 37.9813 -1.56858 2.02062 0
M  V30 384 H 37.6253 -3.32647 3.83807 0
M  V30 385 H 37.5553 -4.58895 2.58307 0
M  V30 386 H 40.0463 -3.07634 2.19476 0
M  V30 387 H 40.3593 -5.90729 4.98256 0
M  V30 388 H 38.7043 -5.31707 4.47564 0
M  V30 389 H 41.8953 -3.76107 2.78677 0
M  V30 390 H 42.0683 -5.05215 4.05785 0
M  V30 391 N 35.4744 -0.807222 -1.35358 0
M  V30 392 C 36.7514 -0.311126 -1.9311 0
M  V30 393 C 37.1314 1.19937 -1.73719 0
M  V30 394 O 36.4794 1.99918 -1.10657 0
M  V30 395 C 36.6894 -0.723226 -3.41424 0
M  V30 396 C 38.0374 -0.713078 -4.18569 0
M  V30 397 O 39.0614 -0.664811 -3.49941 0
M  V30 398 O 37.9204 -0.772022 -5.41019 0
M  V30 399 H 35.0144 -0.081526 -0.822972 0
M  V30 400 H 37.5604 -0.890962 -1.4443 0
M  V30 401 H 36.3324 -1.76426 -3.4927 0
M  V30 402 H 35.9554 -0.118232 -3.97424 0
M  V30 403 N 36.9525 1.47285 -0.560781 0
M  V30 404 C 38.1985 2.02764 -0.0381184 0
M  V30 405 C 38.5315 1.43384 1.30976 0
M  V30 406 O 37.8065 0.590733 1.85312 0
M  V30 407 C 38.0895 3.60064 0.0511427 0
M  V30 408 C 37.9425 4.2987 -1.32408 0
M  V30 409 C 39.2615 4.33439 0.762795 0
M  V30 410 H 36.3805 0.736841 -0.0153264 0
M  V30 411 H 39.0225 1.75675 -0.723759 0
M  V30 412 H 37.1725 3.83274 0.635065 0
M  V30 413 H 38.8445 4.17989 -1.95148 0
M  V30 414 H 37.0875 3.90085 -1.8978 0
M  V30 415 H 37.7585 5.38478 -1.21431 0
M  V30 416 H 40.2345 4.15243 0.266965 0
M  V30 417 H 39.1105 5.43124 0.794221 0
M  V30 418 H 39.3715 4.02915 1.81966 0
M  V30 419 N 38.4306 0.297415 1.54768 0
M  V30 420 C 39.3606 -0.573494 2.26348 0
M  V30 421 C 40.3416 -1.14085 1.26169 0
M  V30 422 O 41.5266 -1.17086 1.54934 0
M  V30 423 C 38.6566 -1.74716 3.00153 0
M  V30 424 C 37.6106 -1.31032 4.07449 0
M  V30 425 C 36.9366 -2.56887 4.68949 0
M  V30 426 C 38.2366 -0.444183 5.20408 0
M  V30 427 H 39.9306 0.0235131 2.99391 0
M  V30 428 H 37.4766 0.0127488 1.43994 0
M  V30 429 H 39.4296 -2.3625 3.48947 0
M  V30 430 H 38.1536 -2.37035 2.24682 0
M  V30 431 H 36.8126 -0.718066 3.59499 0
M  V30 432 H 36.4606 -3.17512 3.90122 0
M  V30 433 H 36.1606 -2.2836 5.41411 0
M  V30 434 H 37.6846 -3.19229 5.20505 0
M  V30 435 H 39.0986 -0.9651 5.65118 0
M  V30 436 H 37.4956 -0.252846 5.99567 0
M  V30 437 H 38.5656 0.531609 4.81977 0
M  V30 438 N 39.9087 -1.5758 0.0250728 0
M  V30 439 C 41.1547 -1.91917 -0.655413 0
M  V30 440 C 41.4877 -0.901433 -1.72011 0
M  V30 441 O 40.7627 0.0764069 -1.9435 0
M  V30 442 C 41.0457 -3.36751 -1.27558 0
M  V30 443 C 40.8987 -4.49258 -0.220719 0
M  V30 444 C 42.2177 -3.81469 -2.19475 0
M  V30 445 H 39.3367 -0.697925 -0.23679 0
M  V30 446 H 41.9787 -1.89825 0.0815036 0
M  V30 447 H 40.1287 -3.38664 -1.90365 0
M  V30 448 H 41.8007 -4.59478 0.409601 0
M  V30 449 H 40.0437 -4.31415 0.454264 0
M  V30 450 H 40.7147 -5.47618 -0.694175 0
M  V30 451 H 43.1907 -3.81266 -1.66659 0
M  V30 452 H 42.0667 -4.83512 -2.59822 0
M  V30 453 H 42.3277 -3.16744 -3.08424 0
M  V30 454 N 41.3868 0.248026 -1.55636 0
M  V30 455 C 42.8028 0.596483 -1.48035 0
M  V30 456 C 43.0028 1.88386 -0.715039 0
M  V30 457 O 42.0588 2.51319 -0.243944 0
M  V30 458 C 43.3718 0.700258 -2.92433 0
M  V30 459 C 44.9198 0.792659 -3.02797 0
M  V30 460 C 45.3948 0.928005 -4.485 0
M  V30 461 N 46.8858 0.992903 -4.52433 0
M  V30 462 C 47.6208 1.11687 -5.62418 0
M  V30 463 N 47.1168 1.20645 -6.82214 0
M  V30 464 N 48.9098 1.14994 -5.50212 0
M  V30 465 H 41.0608 -0.597109 -2.03834 0
M  V30 466 H 43.3238 -0.205925 -0.925364 0
M  V30 467 H 43.0298 -0.175658 -3.51261 0
M  V30 468 H 42.9038 1.57255 -3.42857 0
M  V30 469 H 45.2908 1.65903 -2.4405 0
M  V30 470 H 45.3718 -0.104762 -2.55585 0
M  V30 471 H 45.0158 0.0661971 -5.07857 0
M  V30 472 H 44.9458 1.84045 -4.93391 0
M  V30 473 H 47.4368 0.935064 -3.66149 0
M  V30 474 H 47.7498 1.30008 -7.61786 0
M  V30 475 H 46.0948 1.17605 -6.84977 0
M  V30 476 H 49.2858 1.07643 -4.55555 0
M  V30 477 H 49.4588 1.24311 -6.35965 0
M  V30 478 N 42.8649 1.48995 0.513639 0
M  V30 479 C 44.1129 1.57531 1.26604 0
M  V30 480 C 44.4339 0.258236 1.93283 0
M  V30 481 O 43.7039 -0.721502 1.8213 0
M  V30 482 H 42.2839 0.580387 0.470276 0
M  V30 483 H 44.9459 1.85552 0.596373 0
M  V30 484 H 44.0419 2.36486 2.03669 0
M  V30 485 N 44.343 -0.763751 1.37857 0
M  V30 486 C 45.59 -1.52257 1.33506 0
M  V30 487 C 45.918 -1.94343 -0.078022 0
M  V30 488 O 45.173 -1.64958 -1.05297 0
M  V30 489 C 45.472 -2.79499 2.22745 0
M  V30 490 C 45.138 -2.56426 3.70886 0
M  V30 491 C 43.8 -2.49842 4.11257 0
M  V30 492 C 46.152 -2.36008 4.64704 0
M  V30 493 C 43.48 -2.20841 5.43549 0
M  V30 494 C 45.832 -2.0853 5.97242 0
M  V30 495 C 44.496 -2.00396 6.36709 0
M  V30 496 H 43.766 -0.557149 0.488534 0
M  V30 497 H 46.413 -0.879073 1.70131 0
M  V30 498 H 44.718 -3.48447 1.79142 0
M  V30 499 H 46.415 -3.37413 2.16688 0
M  V30 500 H 43.005 -2.62416 3.38874 0
M  V30 501 H 47.189 -2.40079 4.34368 0
M  V30 502 H 42.445 -2.13045 5.73081 0
M  V30 503 H 46.619 -1.91732 6.69486 0
M  V30 504 H 44.246 -1.77688 7.39142 0
M  V30 505 N 45.8211 -1.22559 -0.990812 0
M  V30 506 C 47.0691 -1.04933 -1.72724 0
M  V30 507 C 47.3901 0.416158 -1.90508 0
M  V30 508 O 46.6601 1.29918 -1.46622 0
M  V30 509 H 45.2401 -0.385296 -0.639965 0
M  V30 510 H 47.9021 -1.54105 -1.19322 0
M  V30 511 H 46.9981 -1.52886 -2.72089 0
M  V30 512 N 47.2992 1.18797 -1.03562 0
M  V30 513 C 48.5762 1.84469 -0.650434 0
M  V30 514 C 48.9562 1.92319 0.870433 0
M  V30 515 O 48.3042 1.44528 1.76986 0
M  V30 516 C 48.5142 3.2306 -1.32036 0
M  V30 517 C 49.8622 3.9915 -1.44792 0
M  V30 518 O 50.8862 3.32481 -1.27806 0
M  V30 519 O 49.7452 5.18587 -1.72423 0
M  V30 520 H 46.8392 0.795251 -0.226946 0
M  V30 521 H 49.3852 1.26231 -1.13419 0
M  V30 522 H 48.1572 3.1222 -2.3587 0
M  V30 523 H 47.7802 3.88949 -0.8249 0
M  V30 524 N 48.7773 0.814389 1.34928 0
M  V30 525 C 50.0023 0.410097 2.03305 0
M  V30 526 C 50.4273 -0.973464 1.60951 0
M  V30 527 O 49.7853 -1.63185 0.789964 0
M  V30 528 C 49.8333 0.51049 3.56968 0
M  V30 529 O 48.9373 -0.473035 4.09678 0
M  V30 530 H 48.2783 0.170088 0.641846 0
M  V30 531 H 50.8083 1.10244 1.72358 0
M  V30 532 H 50.8183 0.383135 4.06197 0
M  V30 533 H 49.4933 1.51963 3.87144 0
M  V30 534 H 48.0703 -0.305272 3.71648 0
M  V30 535 N 50.2554 -1.46986 0.568584 0
M  V30 536 C 51.5014 -2.02741 0.0488709 0
M  V30 537 C 51.8344 -1.44077 -1.30214 0
M  V30 538 O 51.1094 -0.600552 -1.84996 0
M  V30 539 C 51.3924 -3.60086 -0.032047 0
M  V30 540 C 51.2454 -4.29162 1.34686 0
M  V30 541 C 52.5644 -4.33838 -0.739798 0
M  V30 542 H 49.6834 -0.736749 0.0192338 0
M  V30 543 H 52.3254 -1.75289 0.733065 0
M  V30 544 H 50.4754 -3.83606 -0.61473 0
M  V30 545 H 52.1474 -4.16948 1.97362 0
M  V30 546 H 50.3904 -3.89073 1.91846 0
M  V30 547 H 51.0614 -5.37826 1.24285 0
M  V30 548 H 53.5374 -4.15378 -0.244939 0
M  V30 549 H 52.4134 -5.43537 -0.765406 0
M  V30 550 H 52.6744 -4.03875 -1.79827 0
M  V30 551 N 51.7335 -0.305618 -1.54608 0
M  V30 552 C 52.6435 0.57778 -2.27374 0
M  V30 553 C 53.6595 1.14451 -1.31061 0
M  V30 554 O 54.8355 1.16831 -1.6405 0
M  V30 555 C 51.9005 1.73123 -3.00382 0
M  V30 556 C 50.9615 1.19812 -4.12242 0
M  V30 557 C 50.1945 2.2966 -4.81759 0
M  V30 558 O 50.4175 3.49651 -4.50666 0
M  V30 559 O 49.3515 1.96091 -5.69062 0
M  V30 560 H 53.1775 -0.012624 -3.03697 0
M  V30 561 H 50.7625 -0.0719184 -1.49227 0
M  V30 562 H 52.6445 2.40315 -3.4616 0
M  V30 563 H 51.3195 2.30815 -2.26949 0
M  V30 564 H 50.2265 0.491798 -3.70853 0
M  V30 565 H 51.5595 0.666566 -4.87666 0
M  V30 566 N 53.2116 1.57565 -0.0334293 0
M  V30 567 C 54.1216 2.13943 0.962572 0
M  V30 568 C 55.1376 1.09276 1.35406 0
M  V30 569 O 56.3136 1.41355 1.4346 0
M  V30 570 C 53.3786 2.65887 2.22497 0
M  V30 571 C 52.4396 3.85286 1.8935 0
M  V30 572 C 51.6726 4.34743 3.09571 0
M  V30 573 O 51.8956 3.83352 4.22371 0
M  V30 574 O 50.8296 5.26538 2.91618 0
M  V30 575 H 54.6556 2.99333 0.513169 0
M  V30 576 H 52.2406 1.4822 0.18743 0
M  V30 577 H 54.1226 2.99346 2.96598 0
M  V30 578 H 52.7976 1.83578 2.6661 0
M  V30 579 H 51.7046 3.56746 1.1262 0
M  V30 580 H 53.0376 4.68771 1.5005 0
M  V30 581 N 54.6897 -0.239769 1.55765 0
M  V30 582 C 55.9357 -0.968234 1.78194 0
M  V30 583 C 56.2687 -1.84701 0.599938 0
M  V30 584 O 55.5437 -1.9031 -0.401524 0
M  V30 585 C 55.8267 -1.8227 3.10564 0
M  V30 586 C 55.6797 -0.971633 4.3918 0
M  V30 587 C 56.9987 -2.80388 3.39221 0
M  V30 588 H 54.1177 -0.350572 0.648281 0
M  V30 589 H 56.7597 -0.238259 1.885 0
M  V30 590 H 54.9097 -2.44507 3.01908 0
M  V30 591 H 56.5817 -0.367408 4.59835 0
M  V30 592 H 54.8247 -0.276276 4.32919 0
M  V30 593 H 55.4957 -1.60346 5.28198 0
M  V30 594 H 57.9717 -2.28287 3.47885 0
M  V30 595 H 56.8477 -3.3729 4.33044 0
M  V30 596 H 57.1087 -3.57212 2.60484 0
M  V30 597 N 56.1678 -1.49265 -0.50573 0
M  V30 598 C 57.0978 -1.68495 -1.61653 0
M  V30 599 C 58.0788 -0.53366 -1.61512 0
M  V30 600 O 59.2638 -0.76897 -1.78327 0
M  V30 601 C 56.3938 -1.74709 -3.00157 0
M  V30 602 C 55.3478 -2.89581 -3.15162 0
M  V30 603 C 54.6738 -2.80903 -4.5497 0
M  V30 604 C 55.9738 -4.30578 -2.95634 0
M  V30 605 H 57.6678 -2.61493 -1.45814 0
M  V30 606 H 55.2138 -1.25838 -0.70005 0
M  V30 607 H 57.1668 -1.86748 -3.77761 0
M  V30 608 H 55.8908 -0.783067 -3.17074 0
M  V30 609 H 54.5498 -2.77136 -2.39982 0
M  V30 610 H 54.1978 -1.82419 -4.68756 0
M  V30 611 H 53.8978 -3.57999 -4.65951 0
M  V30 612 H 55.4218 -2.94944 -5.34641 0
M  V30 613 H 56.8358 -4.4373 -3.63011 0
M  V30 614 H 55.2328 -5.0886 -3.18091 0
M  V30 615 H 56.3028 -4.45352 -1.91806 0
M  V30 616 N 57.6459 0.756429 -1.3826 0
M  V30 617 C 58.8709 1.55077 -1.37717 0
M  V30 618 C 59.2959 1.88073 0.03164 0
M  V30 619 O 58.6539 1.50364 1.01293 0
M  V30 620 C 58.7019 2.8283 -2.23695 0
M  V30 621 O 57.8059 3.77862 -1.6521 0
M  V30 622 H 57.1469 0.469152 -0.469885 0
M  V30 623 H 59.6769 0.935019 -1.81985 0
M  V30 624 H 59.6869 3.31783 -2.37453 0
M  V30 625 H 58.3619 2.58144 -3.2609 0
M  V30 626 H 56.9389 3.36555 -1.60578 0
M  V30 627 N 59.124 1.23083 0.984299 0
M  V30 628 C 60.034 1.02515 2.11016 0
M  V30 629 C 61.05 -0.0291702 1.73976 0
M  V30 630 O 62.226 0.165434 2.00719 0
M  V30 631 C 59.291 0.614673 3.41208 0
M  V30 632 C 58.352 1.74359 3.92297 0
M  V30 633 C 57.585 1.35261 5.16275 0
M  V30 634 O 57.808 0.235136 5.69915 0
M  V30 635 O 56.742 2.17227 5.61334 0
M  V30 636 H 60.568 1.96862 2.31255 0
M  V30 637 H 58.153 1.01753 1.09392 0
M  V30 638 H 60.035 0.396518 4.1953 0
M  V30 639 H 58.71 -0.299851 3.22308 0
M  V30 640 H 57.617 2.01635 3.1511 0
M  V30 641 H 58.95 2.63629 4.15645 0
M  V30 642 N 60.6021 -1.18246 1.0419 0
M  V30 643 C 61.5651 -2.20128 0.638452 0
M  V30 644 C 62.5651 -1.57885 -0.304805 0
M  V30 645 O 63.7551 -1.73967 -0.0900369 0
M  V30 646 C 60.8871 -3.4084 -0.0637751 0
M  V30 647 H 62.0801 -2.57336 1.54007 0
M  V30 648 H 59.6331 -1.32152 0.834598 0
M  V30 649 H 60.3681 -3.09166 -0.979136 0
M  V30 650 H 60.1531 -3.8726 0.614198 0
M  V30 651 H 61.6431 -4.16274 -0.332512 0
M  V30 652 N 62.0802 -0.821533 -1.34494 0
M  V30 653 C 63.4962 -0.507117 -1.51329 0
M  V30 654 C 63.6962 0.968964 -1.76673 0
M  V30 655 O 62.7522 1.75348 -1.81685 0
M  V30 656 C 64.0652 -1.36544 -2.67911 0
M  V30 657 C 65.6132 -1.36242 -2.81793 0
M  V30 658 C 66.0882 -2.2052 -4.01416 0
M  V30 659 N 67.5792 -2.18136 -4.08621 0
M  V30 660 C 68.3142 -2.80095 -5.00334 0
M  V30 661 N 67.8102 -3.51039 -5.9728 0
M  V30 662 N 69.6032 -2.69656 -4.93196 0
M  V30 663 H 61.7542 -1.77729 -1.16302 0
M  V30 664 H 64.0172 -0.757291 -0.570276 0
M  V30 665 H 63.7232 -2.41361 -2.55808 0
M  V30 666 H 63.5972 -1.02917 -3.62888 0
M  V30 667 H 65.9842 -0.322041 -2.93338 0
M  V30 668 H 66.0652 -1.73866 -1.87628 0
M  V30 669 H 65.7092 -3.24607 -3.90631 0
M  V30 670 H 65.6392 -1.80247 -4.94791 0
M  V30 671 H 68.1302 -1.6653 -3.39229 0
M  V30 672 H 68.4432 -3.95565 -6.63889 0
M  V30 673 H 66.7882 -3.55145 -5.97409 0
M  V30 674 H 69.9792 -2.13808 -4.16418 0
M  V30 675 H 70.1522 -3.1823 -5.64476 0
M  V30 676 N 63.5583 1.46682 -0.576371 0
M  V30 677 C 64.4903 2.28341 0.198231 0
M  V30 678 C 65.5033 1.38141 0.861453 0
M  V30 679 O 66.6923 1.62797 0.732082 0
M  V30 680 C 63.7923 3.12986 1.29972 0
M  V30 681 C 62.9653 4.31271 0.729639 0
M  V30 682 C 62.0243 4.97363 1.71803 0
M  V30 683 O 61.0503 5.55156 1.25658 0
M  V30 684 N 62.2523 4.93796 3.05198 0
M  V30 685 H 65.0173 2.9546 -0.502324 0
M  V30 686 H 62.5783 1.56525 -0.413715 0
M  V30 687 H 64.5703 3.54066 1.96008 0
M  V30 688 H 63.1403 2.47984 1.90323 0
M  V30 689 H 62.3603 3.94052 -0.108012 0
M  V30 690 H 63.6483 5.07739 0.328438 0
M  V30 691 H 63.0463 4.48077 3.45317 0
M  V30 692 H 61.6033 5.38837 3.6674 0
M  V30 693 N 65.0364 0.313813 1.54444 0
M  V30 694 C 65.9864 -0.571898 2.20711 0
M  V30 695 C 66.9704 -1.08913 1.18435 0
M  V30 696 O 68.1624 -1.02777 1.44104 0
M  V30 697 C 65.2914 -1.7371 2.96108 0
M  V30 698 C 64.3774 -1.23522 4.05713 0
M  V30 699 N 64.7684 -0.452288 5.03774 0
M  V30 700 C 63.0664 -1.51482 4.19487 0
M  V30 701 C 63.7674 -0.183438 5.81411 0
M  V30 702 N 62.7434 -0.766845 5.38164 0
M  V30 703 H 66.5454 0.0336802 2.93881 0
M  V30 704 H 64.0594 0.119192 1.61962 0
M  V30 705 H 66.0564 -2.38329 3.4206 0
M  V30 706 H 64.7164 -2.34625 2.24458 0
M  V30 707 H 65.7274 -0.0960131 5.17811 0
M  V30 708 H 62.4044 -2.13053 3.59047 0
M  V30 709 H 63.7944 0.446216 6.70417 0
M  V30 710 N 66.5145 -1.57545 0.0417849 0
M  V30 711 C 67.4445 -2.14009 -0.933929 0
M  V30 712 C 68.4255 -1.05938 -1.33083 0
M  V30 713 O 69.6105 -1.33833 -1.40721 0
M  V30 714 C 66.7405 -2.67747 -2.21199 0
M  V30 715 C 65.6945 -3.80718 -1.95544 0
M  V30 716 C 65.0205 -4.20935 -3.29724 0
M  V30 717 C 66.3205 -5.06258 -1.28452 0
M  V30 718 H 68.0145 -2.95788 -0.463645 0
M  V30 719 H 65.5605 -1.42285 -0.221573 0
M  V30 720 H 67.5135 -3.05886 -2.89848 0
M  V30 721 H 66.2375 -1.83147 -2.70416 0
M  V30 722 H 64.8965 -3.43037 -1.2931 0
M  V30 723 H 64.5445 -3.33298 -3.76724 0
M  V30 724 H 64.2445 -4.9707 -3.13361 0
M  V30 725 H 65.7685 -4.61666 -3.9962 0
M  V30 726 H 67.1825 -5.41903 -1.8712 0
M  V30 727 H 65.5795 -5.87475 -1.22445 0
M  V30 728 H 66.6495 -4.84207 -0.259219 0
M  V30 729 N 67.9926 0.231505 -1.5589 0
M  V30 730 C 68.9396 1.28682 -1.91598 0
M  V30 731 C 69.9096 1.47071 -0.771974 0
M  V30 732 O 71.0946 1.60802 -1.027 0
M  V30 733 C 68.2346 2.6342 -2.22944 0
M  V30 734 C 67.3476 2.52912 -3.50228 0
M  V30 735 C 66.4826 3.80106 -3.7107 0
M  V30 736 C 65.5216 3.64279 -4.91902 0
M  V30 737 N 64.6586 4.834 -5.09184 0
M  V30 738 H 69.4986 0.975305 -2.81588 0
M  V30 739 H 67.0356 0.470299 -1.39379 0
M  V30 740 H 68.9936 3.41869 -2.39126 0
M  V30 741 H 67.6236 2.92687 -1.36139 0
M  V30 742 H 66.6756 1.6595 -3.42294 0
M  V30 743 H 67.9876 2.37133 -4.38827 0
M  V30 744 H 67.1416 4.66999 -3.87295 0
M  V30 745 H 65.8806 3.98799 -2.80733 0
M  V30 746 H 64.8856 2.7577 -4.75637 0
M  V30 747 H 66.1106 3.47067 -5.83714 0
M  V30 748 H 64.0566 5.02425 -4.21788 0
M  V30 749 H 63.9736 4.70311 -5.91898 0
M  V30 750 H 65.2416 5.71747 -5.29835 0
M  V30 751 N 69.4707 1.49531 0.497807 0
M  V30 752 C 70.7477 1.49682 1.25915 0
M  V30 753 C 71.1277 0.226339 2.09883 0
M  V30 754 O 70.4757 -0.791189 2.14365 0
M  V30 755 C 70.6857 2.77755 2.11313 0
M  V30 756 C 72.0337 3.27371 2.70395 0
M  V30 757 O 73.0577 2.78894 2.21578 0
M  V30 758 O 71.9167 4.11808 3.59272 0
M  V30 759 H 69.0107 0.599228 0.56996 0
M  V30 760 H 71.5567 1.61798 0.511816 0
M  V30 761 H 70.3287 3.61713 1.49264 0
M  V30 762 H 69.9517 2.68515 2.93233 0
M  V30 763 N 70.9488 -0.749086 1.3866 0
M  V30 764 C 72.1968 -1.50535 1.34847 0
M  V30 765 C 72.5178 -1.94909 -0.0595016 0
M  V30 766 O 71.7878 -1.67973 -1.00806 0
M  V30 767 H 70.3678 -0.558395 0.49619 0
M  V30 768 H 73.0298 -0.890165 1.73384 0
M  V30 769 H 72.1258 -2.39413 2.00219 0
M  V30 770 N 72.4269 -1.23603 -0.977757 0
M  V30 771 C 73.6549 -1.09646 -1.75458 0
M  V30 772 C 74.0699 0.351859 -1.85492 0
M  V30 773 O 73.4269 1.24327 -1.336 0
M  V30 774 C 73.4779 -1.71895 -3.18016 0
M  V30 775 O 73.1989 -3.11063 -3.08498 0
M  V30 776 C 74.6999 -1.63415 -4.12081 0
M  V30 777 H 71.9199 -0.38359 -0.550545 0
M  V30 778 H 74.4639 -1.63507 -1.22824 0
M  V30 779 H 72.6189 -1.22061 -3.67668 0
M  V30 780 H 73.0329 -3.41305 -3.9826 0
M  V30 781 H 74.5069 -2.11669 -5.09804 0
M  V30 782 H 74.9839 -0.593462 -4.35172 0
M  V30 783 H 75.5899 -2.12628 -3.68334 0
M  V30 784 N 73.905 1.17692 -1.04816 0
M  V30 785 C 75.145 1.89545 -0.764979 0
M  V30 786 C 75.509 1.78979 0.695028 0
M  V30 787 O 76.71 2.45613 1.09215 0
M  V30 788 C 74.981 3.35659 -1.22751 0
M  V30 789 S 76.54 4.25526 -1.07112 0
M  V30 790 H 73.358 0.654432 -0.27792 0
M  V30 791 H 75.96 1.42163 -1.34201 0
M  V30 792 H 74.664 3.40882 -2.28533 0
M  V30 793 H 74.195 3.88083 -0.644594 0
M  V30 794 H 76.21 4.962 0.00697508 0
M  V30 795 N 75.3831 0.828654 1.34056 0
M  V30 796 C 76.6311 0.41863 1.97717 0
M  V30 797 C 76.9521 -1.02314 1.66002 0
M  V30 798 O 76.2221 -1.71119 0.953683 0
M  V30 799 H 74.8021 0.151809 0.731412 0
M  V30 800 H 77.4641 1.05936 1.63596 0
M  V30 801 H 76.5601 0.542318 3.07352 0
M  V30 802 N 76.8612 -1.46375 0.584142 0
M  V30 803 C 77.7912 -2.33103 -0.136037 0
M  V30 804 C 78.7722 -1.45431 -0.882255 0
M  V30 805 O 79.9572 -1.74246 -0.857434 0
M  V30 806 C 77.0872 -3.27731 -1.14933 0
M  V30 807 C 76.0412 -4.24855 -0.517862 0
M  V30 808 C 75.3672 -5.09001 -1.63773 0
M  V30 809 C 76.6672 -5.19439 0.545886 0
M  V30 810 H 78.3612 -2.93568 0.588086 0
M  V30 811 H 75.9072 -1.41166 0.284259 0
M  V30 812 H 77.8602 -3.87261 -1.66153 0
M  V30 813 H 76.5842 -2.65377 -1.90375 0
M  V30 814 H 75.2432 -3.6659 -0.0267361 0
M  V30 815 H 74.8912 -4.43031 -2.38185 0
M  V30 816 H 74.5912 -5.74777 -1.22085 0
M  V30 817 H 76.1152 -5.71396 -2.15266 0
M  V30 818 H 77.5292 -5.73177 0.118704 0
M  V30 819 H 75.9262 -5.93566 0.88317 0
M  V30 820 H 76.9962 -4.63285 1.43162 0
M  V30 821 N 78.3393 -0.321999 -1.54275 0
M  V30 822 C 79.5853 0.281461 -2.00837 0
M  V30 823 C 79.9183 1.51909 -1.20985 0
M  V30 824 O 79.1933 1.923 -0.291733 0
M  V30 825 C 79.4763 0.617162 -3.54772 0
M  V30 826 C 79.3293 -0.631064 -4.45351 0
M  V30 827 C 80.6483 1.43542 -4.16033 0
M  V30 828 H 77.7673 0.100826 -0.730071 0
M  V30 829 H 80.4093 -0.438268 -1.84876 0
M  V30 830 H 78.5593 1.23034 -3.68504 0
M  V30 831 H 80.2313 -1.26934 -4.43492 0
M  V30 832 H 78.4743 -1.26025 -4.15091 0
M  V30 833 H 79.1453 -0.351735 -5.50878 0
M  V30 834 H 81.6213 0.917134 -4.05867 0
M  V30 835 H 80.4973 1.63907 -5.23856 0
M  V30 836 H 80.7583 2.43108 -3.69257 0
M  V30 837 N 79.8174 1.5752 -0.0501392 0
M  V30 838 C 80.7274 2.14952 0.939827 0
M  V30 839 C 81.7434 1.10706 1.34239 0
M  V30 840 O 82.9194 1.42869 1.41952 0
M  V30 841 C 79.9844 2.68232 2.19665 0
M  V30 842 C 79.0454 3.87272 1.85253 0
M  V30 843 C 78.2784 4.38002 3.04943 0
M  V30 844 O 78.5014 3.87811 4.18281 0
M  V30 845 O 77.4354 5.29602 2.86017 0
M  V30 846 H 81.2614 2.9986 0.481392 0
M  V30 847 H 78.8464 1.4841 0.171699 0
M  V30 848 H 80.7284 3.02475 2.93406 0
M  V30 849 H 79.4034 1.86395 2.64648 0
M  V30 850 H 78.3104 3.5792 1.0883 0
M  V30 851 H 79.6434 4.70336 1.4507 0
M  V30 852 N 81.2955 -0.223234 1.56011 0
M  V30 853 C 82.5415 -0.949279 1.79211 0
M  V30 854 C 82.8745 -1.84054 0.619494 0
M  V30 855 O 82.1495 -1.90726 -0.381317 0
M  V30 856 C 82.4325 -1.78965 3.12479 0
M  V30 857 C 82.2855 -0.924997 4.40186 0
M  V30 858 C 83.6045 -2.76774 3.42175 0
M  V30 859 H 80.7235 -0.343676 0.651963 0
M  V30 860 H 83.3655 -0.218253 1.88742 0
M  V30 861 H 81.5155 -2.41291 3.04485 0
M  V30 862 H 83.1875 -0.318615 4.60198 0
M  V30 863 H 81.4305 -0.230344 4.33188 0
M  V30 864 H 82.1015 -1.54735 5.29869 0
M  V30 865 H 84.5775 -2.24584 3.50287 0
M  V30 866 H 83.4535 -3.32678 4.36597 0
M  V30 867 H 83.7145 -3.54429 2.64258 0
M  V30 868 N 82.7736 -1.49793 -0.48987 0
M  V30 869 C 83.6836 -1.70036 -1.61632 0
M  V30 870 C 84.6996 -0.583102 -1.63939 0
M  V30 871 O 85.8756 -0.859169 -1.82154 0
M  V30 872 C 82.9406 -1.77277 -2.97949 0
M  V30 873 C 82.0016 -3.00918 -3.06181 0
M  V30 874 C 81.2346 -3.07804 -4.35996 0
M  V30 875 O 81.4576 -2.21982 -5.25433 0
M  V30 876 O 80.3916 -4.00369 -4.49431 0
M  V30 877 H 84.2176 -2.65486 -1.47482 0
M  V30 878 H 81.8026 -1.33666 -0.667362 0
M  V30 879 H 83.6846 -1.84329 -3.78947 0
M  V30 880 H 82.3596 -0.850076 -3.12339 0
M  V30 881 H 81.2666 -2.99377 -2.2433 0
M  V30 882 H 82.5996 -3.92704 -2.96723 0
M  V30 883 N 84.2517 0.741722 -1.39055 0
M  V30 884 C 85.1987 1.85566 -1.37237 0
M  V30 885 C 86.1687 1.64457 -0.233072 0
M  V30 886 O 87.3537 1.85957 -0.427147 0
M  V30 887 C 84.4937 3.23004 -1.215 0
M  V30 888 C 83.6067 3.55864 -2.44918 0
M  V30 889 C 82.7417 4.82669 -2.21821 0
M  V30 890 C 81.7807 5.08351 -3.40948 0
M  V30 891 N 80.9177 6.26356 -3.17211 0
M  V30 892 H 85.7577 1.86455 -2.32462 0
M  V30 893 H 83.2947 0.911176 -1.15482 0
M  V30 894 H 85.2527 4.02331 -1.10389 0
M  V30 895 H 83.8827 3.21411 -0.29908 0
M  V30 896 H 82.9347 2.7129 -2.66657 0
M  V30 897 H 84.2467 3.70765 -3.33668 0
M  V30 898 H 83.4007 5.69962 -2.07914 0
M  V30 899 H 82.1397 4.69929 -1.30454 0
M  V30 900 H 81.1447 4.19522 -3.55361 0
M  V30 901 H 82.3697 5.22981 -4.33207 0
M  V30 902 H 80.3157 6.14917 -2.28502 0
M  V30 903 H 80.2327 6.41813 -3.99515 0
M  V30 904 H 81.5007 7.16506 -3.06984 0
M  V30 905 N 85.7298 1.2412 0.971189 0
M  V30 906 C 86.9778 1.07668 1.71032 0
M  V30 907 C 87.2988 -0.385797 1.91146 0
M  V30 908 O 86.5688 -1.27569 1.4867 0
M  V30 909 H 85.1488 0.395429 0.633755 0
M  V30 910 H 87.8108 1.55984 1.16855 0
M  V30 911 H 86.9068 1.57195 2.69622 0
M  V30 912 N 87.2079 -1.17134 1.05439 0
M  V30 913 C 88.4539 -1.87733 0.767077 0
M  V30 914 C 88.7869 -1.8098 -0.704253 0
M  V30 915 O 88.0619 -1.21951 -1.5152 0
M  V30 916 C 88.3449 -3.37659 1.25133 0
M  V30 917 C 88.1979 -3.53149 2.78578 0
M  V30 918 C 89.5169 -4.31768 0.852324 0
M  V30 919 H 86.6359 -0.681687 0.280129 0
M  V30 920 H 89.2779 -1.37732 1.30881 0
M  V30 921 H 87.4279 -3.80373 0.790469 0
M  V30 922 H 89.0999 -3.19434 3.32806 0
M  V30 923 H 87.3429 -2.95345 3.17732 0
M  V30 924 H 88.0139 -4.58403 3.07523 0
M  V30 925 H 90.4899 -3.96909 1.24911 0
M  V30 926 H 89.3659 -5.35199 1.21873 0
M  V30 927 H 89.6269 -4.41429 -0.243485 0
M  V30 928 N 88.686 -0.835752 -1.33615 0
M  V30 929 C 89.616 -0.281739 -2.31794 0
M  V30 930 C 90.597 0.608833 -1.58831 0
M  V30 931 O 91.782 0.533035 -1.86741 0
M  V30 932 C 88.912 0.546612 -3.42971 0
M  V30 933 C 87.866 -0.247904 -4.27281 0
M  V30 934 C 87.192 0.704001 -5.30045 0
M  V30 935 C 88.492 -1.46324 -5.01385 0
M  V30 936 H 90.186 -1.10206 -2.78379 0
M  V30 937 H 87.732 -0.531388 -1.33837 0
M  V30 938 H 89.685 0.944467 -4.1068 0
M  V30 939 H 88.409 1.40011 -2.95067 0
M  V30 940 H 87.068 -0.627281 -3.61194 0
M  V30 941 H 86.716 1.55381 -4.78399 0
M  V30 942 H 86.416 0.176524 -5.87335 0
M  V30 943 H 87.94 1.09944 -6.0062 0
M  V30 944 H 89.354 -1.13871 -5.61877 0
M  V30 945 H 87.751 -1.92728 -5.6831 0
M  V30 946 H 88.821 -2.23467 -4.30338 0
M  V30 947 N 90.1641 1.46063 -0.591896 0
M  V30 948 C 91.5751 1.85944 -0.167822 0
M  V30 949 C 91.9261 1.49429 1.27143 0
M  V30 950 O 91.0511 0.913515 1.96173 0
M  V30 951 C 91.6461 3.37489 -0.297794 0
M  V30 952 C 90.2051 3.76332 0.0714732 0
M  V30 953 C 89.3521 2.7006 -0.629509 0
M  V30 954 H 92.3031 1.37087 -0.799555 0
M  V30 955 H 92.3241 3.77532 0.474349 0
M  V30 956 H 91.8361 3.64034 -1.3454 0
M  V30 957 H 89.9371 3.55405 1.11886 0
M  V30 958 H 90.0501 4.78088 -0.311245 0
M  V30 959 H 88.4141 2.54607 -0.0687867 0
M  V30 960 H 89.1971 2.99444 -1.67894 0
M  V30 961 N 91.6422 0.330177 1.54103 0
M  V30 962 C 92.5742 -0.566902 2.22079 0
M  V30 963 C 93.5872 -1.07462 1.22294 0
M  V30 964 O 94.7762 -0.987065 1.48726 0
M  V30 965 C 91.8762 -1.79138 2.87685 0
M  V30 966 C 91.0492 -1.42123 4.13666 0
M  V30 967 C 90.1082 -2.50394 4.62806 0
M  V30 968 O 89.1342 -2.14261 5.27334 0
M  V30 969 N 90.3362 -3.81433 4.37595 0
M  V30 970 H 93.1012 0.0151844 2.99696 0
M  V30 971 H 90.6622 0.153681 1.61169 0
M  V30 972 H 92.6542 -2.50975 3.1748 0
M  V30 973 H 91.2242 -2.28115 2.13734 0
M  V30 974 H 90.4442 -0.534201 3.90564 0
M  V30 975 H 91.7322 -1.14971 4.9564 0
M  V30 976 H 91.1302 -4.13584 3.8596 0
M  V30 977 H 89.6872 -4.4948 4.72029 0
M  V30 978 N 93.1203 -1.57491 0.0584922 0
M  V30 979 C 94.0503 -2.14988 -0.911178 0
M  V30 980 C 95.0313 -1.07343 -1.31952 0
M  V30 981 O 96.2163 -1.35318 -1.39294 0
M  V30 982 C 93.3463 -2.70078 -2.18347 0
M  V30 983 C 92.3003 -3.82771 -1.91495 0
M  V30 984 C 91.6263 -4.24408 -3.25241 0
M  V30 985 C 92.9263 -5.07592 -1.23075 0
M  V30 986 H 94.6203 -2.96263 -0.432246 0
M  V30 987 H 92.1663 -1.42512 -0.206469 0
M  V30 988 H 94.1193 -3.08943 -2.86587 0
M  V30 989 H 92.8433 -1.86005 -2.68458 0
M  V30 990 H 91.5023 -3.44389 -1.25664 0
M  V30 991 H 91.1503 -3.37275 -3.73168 0
M  V30 992 H 90.8503 -5.00366 -3.08071 0
M  V30 993 H 92.3743 -4.65879 -3.94701 0
M  V30 994 H 93.7883 -5.43857 -1.81362 0
M  V30 995 H 92.1853 -5.88741 -1.16207 0
M  V30 996 H 93.2553 -4.84454 -0.207847 0
M  V30 997 N 94.5984 0.214957 -1.56127 0
M  V30 998 C 95.5084 1.28727 -1.96129 0
M  V30 999 C 96.5244 1.50916 -0.866044 0
M  V30 1000 O 97.7004 1.63918 -1.17016 0
M  V30 1001 C 94.7654 2.61569 -2.27558 0
M  V30 1002 C 93.8264 2.47625 -3.50685 0
M  V30 1003 C 93.0594 3.74132 -3.80606 0
M  V30 1004 O 93.2824 4.77438 -3.12104 0
M  V30 1005 O 92.2164 3.70849 -4.74083 0
M  V30 1006 H 96.0424 0.977855 -2.87527 0
M  V30 1007 H 93.6274 0.418358 -1.43423 0
M  V30 1008 H 95.5094 3.40012 -2.48938 0
M  V30 1009 H 94.1844 2.92178 -1.39332 0
M  V30 1010 H 93.0914 1.67361 -3.34576 0
M  V30 1011 H 94.4244 2.21954 -4.39315 0
M  V30 1012 N 96.0765 1.50051 0.48192 0
M  V30 1013 C 97.0085 1.64263 1.59844 0
M  V30 1014 C 98.0215 0.52451 1.54119 0
M  V30 1015 O 99.2105 0.797293 1.59704 0
M  V30 1016 C 96.3105 1.60102 2.98698 0
M  V30 1017 C 95.4835 2.87767 3.29407 0
M  V30 1018 C 94.5425 2.76397 4.47762 0
M  V30 1019 O 93.5685 3.50348 4.48603 0
M  V30 1020 N 94.7705 1.89222 5.48794 0
M  V30 1021 H 97.5355 2.60566 1.48073 0
M  V30 1022 H 95.0965 1.47379 0.670149 0
M  V30 1023 H 97.0885 1.50123 3.75826 0
M  V30 1024 H 95.6585 0.715798 3.04294 0
M  V30 1025 H 94.8785 3.11954 2.40994 0
M  V30 1026 H 96.1665 3.72365 3.4673 0
M  V30 1027 H 95.5645 1.28434 5.50928 0
M  V30 1028 H 94.1215 1.85154 6.24949 0
M  V30 1029 N 97.5546 -0.734337 1.39446 0
M  V30 1030 C 98.9656 -1.31264 1.32766 0
M  V30 1031 C 99.3166 -1.96198 -0.00767497 0
M  V30 1032 O 98.4416 -1.96346 -0.909796 0
M  V30 1033 C 99.0366 -2.38682 2.4045 0
M  V30 1034 C 97.5956 -2.92184 2.37288 0
M  V30 1035 C 96.7426 -1.6576 2.22304 0
M  V30 1036 H 99.6936 -0.531799 1.49525 0
M  V30 1037 H 99.7146 -3.19087 2.07276 0
M  V30 1038 H 99.2266 -1.91392 3.37625 0
M  V30 1039 H 97.3276 -3.43752 1.43754 0
M  V30 1040 H 97.4406 -3.45253 3.3217 0
M  V30 1041 H 95.8046 -1.9012 1.69489 0
M  V30 1042 H 96.5876 -1.20521 3.21449 0
M  V30 1043 N 99.0327 -1.24633 -0.964593 0
M  V30 1044 C 100.263 -1.11339 -1.74032 0
M  V30 1045 C 100.671 0.336593 -1.86182 0
M  V30 1046 O 100.014 1.24389 -1.35178 0
M  V30 1047 C 100.076 -1.68284 -3.1768 0
M  V30 1048 C 99.7397 -3.17196 -3.28992 0
M  V30 1049 C 100.737 -4.14308 -3.14078 0
M  V30 1050 C 98.4217 -3.57215 -3.53133 0
M  V30 1051 C 100.416 -5.4942 -3.23135 0
M  V30 1052 C 98.1027 -4.92468 -3.61827 0
M  V30 1053 C 99.1007 -5.8838 -3.46841 0
M  V30 1054 O 98.7887 -7.21173 -3.55197 0
M  V30 1055 H 98.5207 -0.389551 -0.552472 0
M  V30 1056 H 101.075 -1.65282 -1.21946 0
M  V30 1057 H 99.3047 -1.08777 -3.71085 0
M  V30 1058 H 100.994 -1.50234 -3.77074 0
M  V30 1059 H 101.76 -3.84731 -2.95308 0
M  V30 1060 H 97.6387 -2.83063 -3.63863 0
M  V30 1061 H 101.183 -6.24263 -3.11355 0
M  V30 1062 H 97.0797 -5.21714 -3.80111 0
M  V30 1063 H 97.8477 -7.29135 -3.71892 0
M  V30 1064 N 100.511 1.16574 -1.06058 0
M  V30 1065 C 101.757 1.87324 -0.777022 0
M  V30 1066 C 102.09 1.81351 0.694645 0
M  V30 1067 O 101.365 1.22753 1.50871 0
M  V30 1068 C 101.648 3.36991 -1.26922 0
M  V30 1069 C 101.501 3.51667 -2.80447 0
M  V30 1070 C 102.82 4.3131 -0.87521 0
M  V30 1071 H 99.9388 0.680191 -0.28374 0
M  V30 1072 H 102.581 1.37036 -1.3161 0
M  V30 1073 H 100.731 3.79949 -0.81063 0
M  V30 1074 H 102.403 3.17664 -3.34495 0
M  V30 1075 H 100.646 2.93656 -3.19294 0
M  V30 1076 H 101.317 4.56766 -3.0995 0
M  V30 1077 H 103.793 3.9624 -1.27014 0
M  V30 1078 H 102.669 5.34545 -1.2471 0
M  V30 1079 H 102.93 4.41552 0.220071 0
M  V30 1080 N 101.989 0.842826 1.3317 0
M  V30 1081 C 103.236 0.440447 1.97652 0
M  V30 1082 C 103.564 -1.00123 1.6675 0
M  V30 1083 O 102.819 -1.7155 0.941761 0
M  V30 1084 C 103.118 0.612607 3.52111 0
M  V30 1085 C 102.784 2.02297 4.02972 0
M  V30 1086 C 101.446 2.40874 4.16573 0
M  V30 1087 C 103.798 2.94402 4.30089 0
M  V30 1088 C 101.126 3.70852 4.54627 0
M  V30 1089 C 103.478 4.23865 4.69597 0
M  V30 1090 C 102.142 4.62392 4.81404 0
M  V30 1091 H 101.412 0.161171 0.72326 0
M  V30 1092 H 104.059 1.07061 1.58777 0
M  V30 1093 H 102.364 -0.100849 3.9167 0
M  V30 1094 H 104.061 0.2815 4.00011 0
M  V30 1095 H 100.651 1.71338 3.92863 0
M  V30 1096 H 104.835 2.65835 4.19101 0
M  V30 1097 H 100.091 4.00501 4.61962 0
M  V30 1098 H 104.265 4.95306 4.89536 0
M  V30 1099 H 101.892 5.63154 5.10648 0
M  V30 1100 N 103.467 -1.45747 0.599634 0
M  V30 1101 C 104.716 -2.01502 0.0893511 0
M  V30 1102 C 105.029 -1.4748 -1.28488 0
M  V30 1103 O 106.235 -1.95161 -1.88745 0
M  V30 1104 C 104.691 -3.59735 0.109082 0
M  V30 1105 C 104.299 -4.22754 1.48267 0
M  V30 1106 C 106.043 -4.23085 -0.346374 0
M  V30 1107 C 103.95 -5.73115 1.45921 0
M  V30 1108 H 102.88 -0.753417 0.0296347 0
M  V30 1109 H 105.531 -1.67303 0.753788 0
M  V30 1110 H 103.913 -3.91087 -0.621854 0
M  V30 1111 H 105.087 -4.02987 2.23468 0
M  V30 1112 H 103.402 -3.71567 1.87955 0
M  V30 1113 H 105.999 -5.33327 -0.38298 0
M  V30 1114 H 106.342 -3.93201 -1.36743 0
M  V30 1115 H 106.875 -3.9642 0.331038 0
M  V30 1116 H 103.614 -6.07685 2.45762 0
M  V30 1117 H 103.134 -5.95097 0.749665 0
M  V30 1118 H 104.813 -6.3616 1.17941 0
M  V30 1119 N 104.945 -0.338344 -1.53925 0
M  V30 1120 C 105.892 0.520845 -2.24846 0
M  V30 1121 C 106.862 1.09976 -1.24477 0
M  V30 1122 O 108.047 1.13735 -1.53196 0
M  V30 1123 C 105.187 1.6685 -3.02084 0
M  V30 1124 C 104.3 1.11739 -4.17299 0
M  V30 1125 C 103.435 2.23193 -4.82036 0
M  V30 1126 C 102.474 1.65407 -5.89328 0
M  V30 1127 N 101.611 2.70582 -6.47866 0
M  V30 1128 H 106.451 -0.0904881 -2.97863 0
M  V30 1129 H 103.988 -0.0564282 -1.46992 0
M  V30 1130 H 105.946 2.34407 -3.45122 0
M  V30 1131 H 104.576 2.2509 -2.31375 0
M  V30 1132 H 103.628 0.332919 -3.7894 0
M  V30 1133 H 104.94 0.654677 -4.94485 0
M  V30 1134 H 104.094 2.98626 -5.28117 0
M  V30 1135 H 102.833 2.72807 -4.04262 0
M  V30 1136 H 101.838 0.884779 -5.42634 0
M  V30 1137 H 103.063 1.16652 -6.69006 0
M  V30 1138 H 101.009 3.1946 -5.72959 0
M  V30 1139 H 100.926 2.28917 -7.20509 0
M  V30 1140 H 102.194 3.45799 -6.98601 0
M  V30 1141 N 106.423 1.57458 -0.0668435 0
M  V30 1142 C 107.839 1.56947 0.289772 0
M  V30 1143 C 108.039 1.07584 1.70376 0
M  V30 1144 O 107.095 0.739486 2.41429 0
M  V30 1145 C 108.408 3.0052 0.103943 0
M  V30 1146 C 109.956 3.12517 0.173857 0
M  V30 1147 C 110.431 4.57997 0.0163682 0
M  V30 1148 N 111.922 4.63144 0.0721352 0
M  V30 1149 C 112.657 5.73394 -0.0253794 0
M  V30 1150 N 112.153 6.92576 -0.176133 0
M  V30 1151 N 113.946 5.62091 0.0313305 0
M  V30 1152 H 106.097 1.87863 -0.991027 0
M  V30 1153 H 108.36 0.86583 -0.38606 0
M  V30 1154 H 108.066 3.40729 -0.871572 0
M  V30 1155 H 107.94 3.67304 0.858366 0
M  V30 1156 H 110.327 2.72197 1.13985 0
M  V30 1157 H 110.408 2.48381 -0.611586 0
M  V30 1158 H 110.052 4.99005 -0.946374 0
M  V30 1159 H 109.982 5.20158 0.821153 0
M  V30 1160 H 112.473 3.77436 0.187263 0
M  V30 1161 H 112.786 7.72418 -0.242821 0
M  V30 1162 H 111.131 6.94678 -0.211429 0
M  V30 1163 H 114.322 4.67867 0.147773 0
M  V30 1164 H 114.495 6.47982 -0.048121 0
M  V30 1165 N 107.901 -0.206675 1.56239 0
M  V30 1166 C 109.126 -0.949474 1.8439 0
M  V30 1167 C 109.551 -1.76549 0.649016 0
M  V30 1168 O 108.909 -1.76782 -0.402231 0
M  V30 1169 C 108.957 -1.83078 3.10668 0
M  V30 1170 O 108.061 -2.9281 2.90407 0
M  V30 1171 H 107.402 -0.268033 0.607499 0
M  V30 1172 H 109.932 -0.215488 2.03462 0
M  V30 1173 H 109.942 -2.2377 3.41161 0
M  V30 1174 H 108.617 -1.23112 3.97261 0
M  V30 1175 H 107.194 -2.55956 2.71184 0
M  V30 1176 N 109.379 -1.50304 -0.473955 0
M  V30 1177 C 110.656 -1.51667 -1.23518 0
M  V30 1178 C 111.036 -0.259701 -2.09496 0
M  V30 1179 O 110.384 0.756986 -2.15597 0
M  V30 1180 C 110.594 -2.81082 -2.06868 0
M  V30 1181 C 111.942 -3.31631 -2.65153 0
M  V30 1182 O 112.966 -2.82384 -2.17113 0
M  V30 1183 O 111.825 -4.17471 -3.52675 0
M  V30 1184 H 108.919 -0.60822 -0.560355 0
M  V30 1185 H 111.465 -1.62592 -0.486011 0
M  V30 1186 H 110.237 -3.64041 -1.4349 0
M  V30 1187 H 109.86 -2.73146 -2.88924 0
M  V30 1188 N 110.857 0.726932 -1.39834 0
M  V30 1189 C 111.82 1.82269 -1.38962 0
M  V30 1190 C 112.82 1.58248 -0.285334 0
M  V30 1191 O 114.01 1.65499 -0.54366 0
M  V30 1192 C 111.142 3.20186 -1.17019 0
M  V30 1193 H 112.335 1.84443 -2.36476 0
M  V30 1194 H 109.888 0.931416 -1.25516 0
M  V30 1195 H 110.623 3.23669 -0.202204 0
M  V30 1196 H 110.408 3.3902 -1.96998 0
M  V30 1197 H 111.898 4.00235 -1.1917 0
M  V30 1198 N 112.336 1.25143 0.95797 0
M  V30 1199 C 113.752 1.01892 1.22842 0
M  V30 1200 C 113.952 -0.266311 1.99732 0
M  V30 1201 O 113.008 -0.979913 2.3271 0
M  V30 1202 C 114.321 2.24004 2.00606 0
M  V30 1203 C 115.869 2.28731 2.13662 0
M  V30 1204 C 116.344 3.5049 2.94823 0
M  V30 1205 N 117.835 3.50866 3.02403 0
M  V30 1206 C 118.57 4.4174 3.65586 0
M  V30 1207 N 118.066 5.42882 4.30408 0
M  V30 1208 N 119.859 4.29429 3.62694 0
M  V30 1209 H 112.01 2.07718 0.443493 0
M  V30 1210 H 114.273 0.912031 0.258657 0
M  V30 1211 H 113.979 3.17395 1.51503 0
M  V30 1212 H 113.853 2.26907 3.01319 0
M  V30 1213 H 116.24 1.35865 2.61963 0
M  V30 1214 H 116.321 2.29848 1.12265 0
M  V30 1215 H 115.965 4.43676 2.47213 0
M  V30 1216 H 115.895 3.46617 3.96439 0
M  V30 1217 H 118.386 2.777 2.56302 0
M  V30 1218 H 118.699 6.0844 4.76467 0
M  V30 1219 H 117.044 5.46758 4.29047 0
M  V30 1220 H 120.235 3.49643 3.11236 0
M  V30 1221 H 120.408 5.00448 4.1165 0
M  V30 1222 N 113.814 -1.1601 1.06675 0
M  V30 1223 C 115.042 -1.90527 0.806667 0
M  V30 1224 C 115.457 -1.77643 -0.639396 0
M  V30 1225 O 114.814 -1.12369 -1.43803 0
M  V30 1226 C 114.865 -3.41106 1.19705 0
M  V30 1227 O 114.586 -3.53608 2.58636 0
M  V30 1228 C 116.087 -4.32663 0.965266 0
M  V30 1229 H 113.307 -0.604053 0.292166 0
M  V30 1230 H 115.851 -1.47026 1.4214 0
M  V30 1231 H 114.006 -3.82296 0.626774 0
M  V30 1232 H 114.42 -4.47011 2.74375 0
M  V30 1233 H 115.894 -5.36763 1.288 0
M  V30 1234 H 116.371 -4.39089 -0.0987936 0
M  V30 1235 H 116.977 -3.97206 1.52011 0
M  V30 1236 N 115.292 -0.849877 -1.32721 0
M  V30 1237 C 116.255 -0.296122 -2.27279 0
M  V30 1238 C 117.255 0.541458 -1.5141 0
M  V30 1239 O 118.445 0.353658 -1.70572 0
M  V30 1240 C 115.577 0.581579 -3.35902 0
M  V30 1241 H 116.77 -1.13064 -2.77771 0
M  V30 1242 H 114.323 -0.62383 -1.43311 0
M  V30 1243 H 115.058 1.43809 -2.9067 0
M  V30 1244 H 114.843 -0.0178814 -3.92096 0
M  V30 1245 H 116.333 0.961951 -4.0637 0
M  V30 1246 N 116.77 1.45427 -0.607355 0
M  V30 1247 C 118.181 1.85756 -0.187535 0
M  V30 1248 C 118.532 1.5077 1.25551 0
M  V30 1249 O 117.657 0.93427 1.95193 0
M  V30 1250 C 118.252 3.37154 -0.333572 0
M  V30 1251 C 116.811 3.76387 0.0315542 0
M  V30 1252 C 115.958 2.69377 -0.658117 0
M  V30 1253 H 118.909 1.36231 -0.81405 0
M  V30 1254 H 118.93 3.78014 0.43428 0
M  V30 1255 H 118.442 3.62586 -1.38393 0
M  V30 1256 H 116.543 3.56571 1.0811 0
M  V30 1257 H 116.656 4.77731 -0.361935 0
M  V30 1258 H 115.02 2.5452 -0.0957873 0
M  V30 1259 H 115.803 2.97646 -1.7106 0
M  V30 1260 N 118.248 0.346503 1.53744 0
M  V30 1261 C 119.198 -0.524953 2.21874 0
M  V30 1262 C 120.182 -1.06376 1.20718 0
M  V30 1263 O 121.374 -0.996972 1.46251 0
M  V30 1264 C 118.503 -1.6739 2.99726 0
M  V30 1265 C 117.589 -1.14888 4.08242 0
M  V30 1266 N 117.98 -0.345329 5.0462 0
M  V30 1267 C 116.278 -1.4255 4.22606 0
M  V30 1268 C 116.979 -0.0600706 5.81669 0
M  V30 1269 N 115.955 -0.65252 5.39669 0
M  V30 1270 H 119.757 0.0960091 2.93743 0
M  V30 1271 H 117.271 0.15352 1.61673 0
M  V30 1272 H 119.268 -2.3102 3.47038 0
M  V30 1273 H 117.928 -2.29811 2.29384 0
M  V30 1274 H 118.939 0.0138439 5.17898 0
M  V30 1275 H 115.616 -2.05389 3.63486 0
M  V30 1276 H 117.006 0.588321 6.69319 0
M  V30 1277 N 119.726 -1.57421 0.075193 0
M  V30 1278 C 120.974 -1.93236 -0.591974 0
M  V30 1279 C 121.295 -0.956241 -1.69944 0
M  V30 1280 O 120.565 -0.00494792 -1.95899 0
M  V30 1281 H 119.145 -0.713355 -0.22166 0
M  V30 1282 H 121.807 -1.9444 0.133848 0
M  V30 1283 H 120.903 -2.95131 -1.01509 0
M  V30 1284 N 121.204 0.198386 -1.56346 0
M  V30 1285 C 122.154 1.2499 -1.90687 0
M  V30 1286 C 123.138 1.41158 -0.772217 0
M  V30 1287 O 124.33 1.43584 -1.03502 0
M  V30 1288 C 121.459 2.59542 -2.24706 0
M  V30 1289 C 120.545 2.47181 -3.44619 0
M  V30 1290 N 120.936 2.04495 -4.62618 0
M  V30 1291 C 119.234 2.78082 -3.48692 0
M  V30 1292 C 119.935 2.03945 -5.44776 0
M  V30 1293 N 118.911 2.45323 -4.85095 0
M  V30 1294 H 122.713 0.911149 -2.7942 0
M  V30 1295 H 120.227 0.40684 -1.57221 0
M  V30 1296 H 122.224 3.3549 -2.47491 0
M  V30 1297 H 120.884 2.94244 -1.37298 0
M  V30 1298 H 121.895 1.75256 -4.87345 0
M  V30 1299 H 118.572 3.17002 -2.71691 0
M  V30 1300 H 119.962 1.72872 -6.4928 0
M  V30 1301 N 122.682 1.50554 0.465978 0
M  V30 1302 C 123.928 1.62038 1.21949 0
M  V30 1303 C 124.261 0.322116 1.9151 0
M  V30 1304 O 123.536 -0.676723 1.82348 0
M  V30 1305 C 123.819 2.80421 2.25912 0
M  V30 1306 C 123.672 4.20144 1.60622 0
M  V30 1307 C 124.991 2.94354 3.27176 0
M  V30 1308 H 122.11 0.589752 0.441998 0
M  V30 1309 H 124.752 1.82956 0.51257 0
M  V30 1310 H 122.902 2.62717 2.86203 0
M  V30 1311 H 124.574 4.49449 1.03889 0
M  V30 1312 H 122.817 4.24165 0.909211 0
M  V30 1313 H 123.488 4.98914 2.36196 0
M  V30 1314 H 125.964 3.10578 2.76913 0
M  V30 1315 H 124.84 3.788 3.97242 0
M  V30 1316 H 125.101 2.05186 3.916 0
M  V30 1317 N 124.16 -0.719506 1.40217 0
M  V30 1318 C 125.093 -1.84298 1.34571 0
M  V30 1319 C 126.071 -1.61149 0.216741 0
M  V30 1320 O 127.255 -1.84212 0.399756 0
M  V30 1321 C 124.382 -3.20568 1.09335 0
M  V30 1322 C 123.428 -3.62551 2.24631 0
M  V30 1323 S 124.261 -3.7012 3.87004 0
M  V30 1324 C 125.417 -5.09154 3.64024 0
M  V30 1325 H 125.65 -1.88807 2.2965 0
M  V30 1326 H 123.183 -0.885901 1.26456 0
M  V30 1327 H 125.141 -3.99246 0.954602 0
M  V30 1328 H 123.802 -3.13696 0.159164 0
M  V30 1329 H 122.995 -4.61483 2.02606 0
M  V30 1330 H 122.597 -2.91119 2.34789 0
M  V30 1331 H 124.889 -5.95955 3.22248 0
M  V30 1332 H 125.832 -5.36213 4.62473 0
M  V30 1333 H 126.24 -4.79562 2.97793 0
M  V30 1334 N 125.638 -1.25649 -0.95132 0
M  V30 1335 C 126.884 -1.10757 -1.69884 0
M  V30 1336 C 127.217 0.350061 -1.91019 0
M  V30 1337 O 126.492 1.25783 -1.48354 0
M  V30 1338 C 126.775 -1.86606 -3.07978 0
M  V30 1339 C 126.628 -3.40217 -2.94232 0
M  V30 1340 C 127.947 -1.65182 -4.07925 0
M  V30 1341 H 125.066 -0.40374 -0.616574 0
M  V30 1342 H 127.708 -1.54521 -1.10558 0
M  V30 1343 H 125.858 -1.49409 -3.58621 0
M  V30 1344 H 127.53 -3.87108 -2.50889 0
M  V30 1345 H 125.773 -3.67759 -2.30078 0
M  V30 1346 H 126.444 -3.88505 -3.92133 0
M  V30 1347 H 128.92 -1.9757 -3.66204 0
M  V30 1348 H 127.796 -2.20683 -5.02583 0
M  V30 1349 H 128.057 -0.593933 -4.38092 0
M  V30 1350 N 127.117 1.15442 -1.07289 0
M  V30 1351 C 128.027 2.23786 -0.704057 0
M  V30 1352 C 129.043 1.7166 0.284413 0
M  V30 1353 O 130.219 2.00972 0.131205 0
M  V30 1354 C 127.284 3.46535 -0.106792 0
M  V30 1355 C 126.345 4.13654 -1.14842 0
M  V30 1356 C 125.578 5.30544 -0.57956 0
M  V30 1357 O 125.801 5.67187 0.604585 0
M  V30 1358 O 124.735 5.87154 -1.32414 0
M  V30 1359 H 128.561 2.57664 -1.60757 0
M  V30 1360 H 126.146 1.23152 -0.845803 0
M  V30 1361 H 128.028 4.20804 0.224048 0
M  V30 1362 H 126.703 3.14407 0.770049 0
M  V30 1363 H 125.61 3.4131 -1.5316 0
M  V30 1364 H 126.943 4.49861 -1.99714 0
M  V30 1365 N 128.595 0.856903 1.32268 0
M  V30 1366 C 129.525 0.31858 2.31316 0
M  V30 1367 C 130.506 -0.583487 1.59779 0
M  V30 1368 O 131.691 -0.503259 1.87566 0
M  V30 1369 C 128.821 -0.491979 3.43798 0
M  V30 1370 C 127.775 0.315849 4.26833 0
M  V30 1371 C 127.101 -0.619586 5.31098 0
M  V30 1372 C 128.401 1.54282 4.98993 0
M  V30 1373 H 130.095 1.14621 2.76591 0
M  V30 1374 H 127.641 0.552613 1.32974 0
M  V30 1375 H 129.594 -0.879012 4.1213 0
M  V30 1376 H 128.318 -1.35299 2.97257 0
M  V30 1377 H 126.977 0.684664 3.6015 0
M  V30 1378 H 126.625 -1.47751 4.8081 0
M  V30 1379 H 126.325 -0.0830621 5.87541 0
M  V30 1380 H 127.849 -1.00375 6.02293 0
M  V30 1381 H 129.263 1.22796 5.59995 0
M  V30 1382 H 127.66 2.01745 5.65172 0
M  V30 1383 H 128.73 2.30285 4.26728 0
M  V30 1384 N 130.073 -1.45103 0.615059 0
M  V30 1385 C 131.319 -2.02483 0.113347 0
M  V30 1386 C 131.652 -1.48146 -1.25564 0
M  V30 1387 O 130.927 -0.659104 -1.82992 0
M  V30 1388 C 131.21 -3.60005 0.0825278 0
M  V30 1389 C 131.063 -4.2466 1.48271 0
M  V30 1390 C 132.382 -4.35972 -0.601401 0
M  V30 1391 H 129.501 -0.735764 0.0426632 0
M  V30 1392 H 132.143 -1.72868 0.788461 0
M  V30 1393 H 130.293 -3.85367 -0.492378 0
M  V30 1394 H 131.965 -4.10458 2.10527 0
M  V30 1395 H 130.208 -3.82772 2.04127 0
M  V30 1396 H 130.879 -5.336 1.41332 0
M  V30 1397 H 133.355 -4.15947 -0.112666 0
M  V30 1398 H 132.231 -5.45697 -0.592097 0
M  V30 1399 H 132.492 -4.09391 -1.66887 0
M  V30 1400 N 131.551 -0.354651 -1.53558 0
M  V30 1401 C 132.514 0.484566 -2.24019 0
M  V30 1402 C 133.514 1.01861 -1.24422 0
M  V30 1403 O 134.704 0.906097 -1.4878 0
M  V30 1404 C 131.836 1.67615 -2.96847 0
M  V30 1405 H 133.029 -0.131843 -2.9961 0
M  V30 1406 H 130.582 -0.106165 -1.55939 0
M  V30 1407 H 131.317 2.33095 -2.25471 0
M  V30 1408 H 131.102 1.30029 -3.69912 0
M  V30 1409 H 132.592 2.27114 -3.50441 0
M  V30 1410 N 133.029 1.57378 -0.0835403 0
M  V30 1411 C 133.939 2.16897 0.894021 0
M  V30 1412 C 134.955 1.13528 1.31861 0
M  V30 1413 O 136.131 1.45848 1.3889 0
M  V30 1414 C 133.196 2.72831 2.13925 0
M  V30 1415 C 132.257 3.91115 1.76997 0
M  V30 1416 C 131.49 4.44371 2.95584 0
M  V30 1417 O 131.713 3.96596 4.09961 0
M  V30 1418 O 130.647 5.35549 2.74719 0
M  V30 1419 H 134.473 3.00814 0.417679 0
M  V30 1420 H 132.058 1.48741 0.140181 0
M  V30 1421 H 133.94 3.0863 2.86924 0
M  V30 1422 H 132.615 1.91967 2.60635 0
M  V30 1423 H 131.522 3.60148 1.01214 0
M  V30 1424 H 132.855 4.73307 1.3506 0
M  V30 1425 N 134.507 -0.190092 1.56449 0
M  V30 1426 C 135.437 -1.23816 1.97969 0
M  V30 1427 C 136.418 -1.47201 0.852395 0
M  V30 1428 O 137.603 -1.58854 1.1171 0
M  V30 1429 C 134.733 -2.5813 2.3235 0
M  V30 1430 C 133.687 -2.49348 3.47864 0
M  V30 1431 C 133.013 -3.8798 3.67934 0
M  V30 1432 C 134.313 -2.01424 4.81898 0
M  V30 1433 H 136.007 -0.89311 2.85769 0
M  V30 1434 H 133.553 -0.428177 1.37487 0
M  V30 1435 H 135.506 -3.31637 2.59991 0
M  V30 1436 H 134.23 -2.94386 1.41438 0
M  V30 1437 H 132.889 -1.78297 3.20321 0
M  V30 1438 H 132.537 -4.21597 2.74344 0
M  V30 1439 H 132.237 -3.82978 4.45648 0
M  V30 1440 H 133.761 -4.63101 3.97957 0
M  V30 1441 H 135.175 -2.64693 5.08538 0
M  V30 1442 H 133.572 -2.07413 5.63116 0
M  V30 1443 H 134.642 -0.967677 4.75146 0
M  V30 1444 N 135.985 -1.50799 -0.457987 0
M  V30 1445 C 136.895 -1.73426 -1.57989 0
M  V30 1446 C 137.911 -0.617745 -1.62665 0
M  V30 1447 O 139.087 -0.897614 -1.80291 0
M  V30 1448 C 136.152 -1.83557 -2.94122 0
M  V30 1449 C 135.213 -3.07345 -2.99729 0
M  V30 1450 C 134.446 -3.16983 -4.29368 0
M  V30 1451 O 134.669 -2.33077 -5.20607 0
M  V30 1452 O 133.603 -4.09812 -4.40837 0
M  V30 1453 H 137.429 -2.68555 -1.41817 0
M  V30 1454 H 135.014 -1.35052 -0.638859 0
M  V30 1455 H 136.896 -1.92326 -3.74952 0
M  V30 1456 H 135.571 -0.916137 -3.10465 0
M  V30 1457 H 134.478 -3.04068 -2.1793 0
M  V30 1458 H 135.811 -3.9891 -2.88326 0
M  V30 1459 N 137.463 0.71206 -1.40597 0
M  V30 1460 C 138.711 1.46907 -1.38791 0
M  V30 1461 C 139.032 1.94998 0.00780391 0
M  V30 1462 O 138.302 1.70587 0.963174 0
M  V30 1463 H 136.882 0.545043 -0.51082 0
M  V30 1464 H 139.544 0.843882 -1.75683 0
M  V30 1465 H 138.64 2.34021 -2.06496 0
M  V30 1466 N 138.941 1.26152 0.944643 0
M  V30 1467 C 140.19 1.10883 1.68487 0
M  V30 1468 C 140.503 -0.348153 1.92477 0
M  V30 1469 O 141.709 -0.621459 2.64292 0
M  V30 1470 C 140.165 1.93624 3.03377 0
M  V30 1471 C 139.773 3.43875 2.87148 0
M  V30 1472 C 141.517 1.86954 3.81115 0
M  V30 1473 C 139.424 4.18875 4.1749 0
M  V30 1474 H 138.354 0.41135 0.631907 0
M  V30 1475 H 141.005 1.50433 1.05082 0
M  V30 1476 H 139.387 1.46904 3.67743 0
M  V30 1477 H 140.561 3.98338 2.31653 0
M  V30 1478 H 138.876 3.51744 2.22856 0
M  V30 1479 H 141.473 2.40275 4.77673 0
M  V30 1480 H 141.816 0.839518 4.07747 0
M  V30 1481 H 142.349 2.31477 3.23517 0
M  V30 1482 H 139.088 5.22332 3.96043 0
M  V30 1483 H 138.608 3.69193 4.72712 0
M  V30 1484 H 140.287 4.27134 4.85968 0
M  V30 1485 N 140.419 -1.14872 1.07899 0
M  V30 1486 C 141.351 -2.19425 0.662231 0
M  V30 1487 C 142.364 -1.60231 -0.288079 0
M  V30 1488 O 143.553 -1.78336 -0.076534 0
M  V30 1489 C 140.653 -3.38867 -0.0470695 0
M  V30 1490 C 139.826 -4.27597 0.920831 0
M  V30 1491 C 138.885 -5.25616 0.247805 0
M  V30 1492 O 137.911 -5.62189 0.890599 0
M  V30 1493 N 139.113 -5.71746 -1.00435 0
M  V30 1494 H 141.878 -2.55797 1.56166 0
M  V30 1495 H 139.439 -1.30042 0.964404 0
M  V30 1496 H 141.431 -4.01497 -0.50813 0
M  V30 1497 H 140.001 -3.00864 -0.848523 0
M  V30 1498 H 139.221 -3.61982 1.56087 0
M  V30 1499 H 140.509 -4.83748 1.57688 0
M  V30 1500 H 139.907 -5.44153 -1.54642 0
M  V30 1501 H 138.464 -6.36389 -1.40899 0
M  V30 1502 N 141.898 -0.863906 -1.31812 0
M  V30 1503 C 143.128 -0.485406 -2.00817 0
M  V30 1504 C 143.536 0.925007 -1.65046 0
M  V30 1505 O 142.879 1.61653 -0.872574 0
M  V30 1506 C 142.941 -0.555589 -3.55181 0
M  V30 1507 C 142.605 -1.92654 -4.14407 0
M  V30 1508 C 143.602 -2.89324 -4.31958 0
M  V30 1509 C 141.287 -2.2262 -4.50273 0
M  V30 1510 C 143.281 -4.14108 -4.84555 0
M  V30 1511 C 140.968 -3.47654 -5.02573 0
M  V30 1512 C 141.966 -4.43214 -5.19664 0
M  V30 1513 O 141.654 -5.66033 -5.70843 0
M  V30 1514 H 141.386 -0.188224 -0.649267 0
M  V30 1515 H 143.94 -1.16514 -1.69156 0
M  V30 1516 H 142.17 0.181037 -3.86276 0
M  V30 1517 H 143.859 -0.19138 -4.05449 0
M  V30 1518 H 144.625 -2.6748 -4.04573 0
M  V30 1519 H 140.504 -1.4902 -4.3625 0
M  V30 1520 H 144.048 -4.88703 -4.9781 0
M  V30 1521 H 139.945 -3.69345 -5.29391 0
M  V30 1522 H 140.713 -5.6812 -5.89222 0
M  V30 1523 N 143.376 1.44774 -0.622745 0
M  V30 1524 C 144.624 2.01721 -0.123655 0
M  V30 1525 C 144.945 1.49172 1.25589 0
M  V30 1526 O 144.215 0.691974 1.83272 0
M  V30 1527 H 142.795 0.745777 -0.0427225 0
M  V30 1528 H 145.457 1.77382 -0.807559 0
M  V30 1529 H 144.553 3.11984 -0.0849534 0
M  V30 1530 N 144.854 0.36279 1.53368 0
M  V30 1531 C 146.27 0.0116182 1.59596 0
M  V30 1532 C 146.47 -1.47012 1.37803 0
M  V30 1533 O 145.526 -2.23136 1.18181 0
M  V30 1534 C 146.839 0.465052 2.97082 0
M  V30 1535 C 148.387 0.419033 3.10182 0
M  V30 1536 C 148.862 0.848235 4.50077 0
M  V30 1537 N 150.353 0.803183 4.56183 0
M  V30 1538 C 151.088 1.107 5.62613 0
M  V30 1539 N 150.584 1.47996 6.76808 0
M  V30 1540 N 152.377 1.02998 5.52583 0
M  V30 1541 H 144.528 1.32775 1.65785 0
M  V30 1542 H 146.791 0.542518 0.777417 0
M  V30 1543 H 146.497 1.49892 3.18159 0
M  V30 1544 H 146.371 -0.149786 3.76902 0
M  V30 1545 H 148.758 -0.605696 2.88817 0
M  V30 1546 H 148.839 1.06933 2.32377 0
M  V30 1547 H 148.483 1.87107 4.7218 0
M  V30 1548 H 148.413 0.175218 5.26308 0
M  V30 1549 H 150.904 0.52838 3.74188 0
M  V30 1550 H 151.217 1.69613 7.53957 0
M  V30 1551 H 149.562 1.51859 6.78206 0
M  V30 1552 H 152.753 0.737817 4.62249 0
M  V30 1553 H 152.926 1.2701 6.35431 0
M  V30 1554 N 146.332 -1.57332 0.0918853 0
M  V30 1555 C 147.557 -1.98995 -0.584442 0
M  V30 1556 C 147.982 -0.970528 -1.61128 0
M  V30 1557 O 147.34 0.0613904 -1.81196 0
M  V30 1558 C 147.388 -3.39636 -1.21161 0
M  V30 1559 O 146.492 -3.40447 -2.32744 0
M  V30 1560 H 145.833 -0.647165 -0.148572 0
M  V30 1561 H 148.363 -2.03873 0.172347 0
M  V30 1562 H 148.373 -3.7726 -1.55367 0
M  V30 1563 H 147.048 -4.13356 -0.459313 0
M  V30 1564 H 145.625 -3.14614 -2.0018 0
M  V30 1565 N 147.81 0.181792 -1.56548 0
M  V30 1566 C 149.058 0.89832 -1.81038 0
M  V30 1567 C 149.379 1.83232 -0.667164 0
M  V30 1568 O 148.649 1.93372 0.313673 0
M  V30 1569 H 147.229 0.33471 -0.667816 0
M  V30 1570 H 149.891 0.184116 -1.94028 0
M  V30 1571 H 148.987 1.4815 -2.74696 0
M  V30 1572 N 149.288 1.51039 0.449983 0
M  V30 1573 C 150.198 1.74261 1.57067 0
M  V30 1574 C 151.214 0.626363 1.62335 0
M  V30 1575 O 152.39 0.907162 1.79812 0
M  V30 1576 C 149.455 1.85114 2.93144 0
M  V30 1577 C 148.516 3.0893 2.98095 0
M  V30 1578 C 147.749 3.19256 4.27681 0
M  V30 1579 O 147.972 2.35835 5.19363 0
M  V30 1580 O 146.906 4.12144 4.38658 0
M  V30 1581 H 150.732 2.69303 1.40391 0
M  V30 1582 H 148.317 1.35389 0.631688 0
M  V30 1583 H 150.199 1.94311 3.73926 0
M  V30 1584 H 148.874 0.932588 3.09975 0
M  V30 1585 H 147.781 3.0522 2.16314 0
M  V30 1586 H 149.114 4.00433 2.86206 0
M  V30 1587 N 150.766 -0.704594 1.40972 0
M  V30 1588 C 151.994 -1.49354 1.43182 0
M  V30 1589 C 152.409 -1.88768 0.0345508 0
M  V30 1590 O 151.766 -1.56184 -0.944081 0
M  V30 1591 C 151.817 -2.76187 2.33244 0
M  V30 1592 O 151.538 -2.38436 3.67532 0
M  V30 1593 C 153.039 -3.7 2.44162 0
M  V30 1594 H 150.259 -0.460559 0.487982 0
M  V30 1595 H 152.803 -0.868261 1.85153 0
M  V30 1596 H 150.958 -3.34974 1.94606 0
M  V30 1597 H 151.372 -3.20126 4.15475 0
M  V30 1598 H 152.846 -4.55803 3.11364 0
M  V30 1599 H 153.323 -4.13867 1.47006 0
M  V30 1600 H 153.929 -3.17121 2.83398 0
M  V30 1601 N 152.244 -1.26651 -0.937939 0
M  V30 1602 C 153.174 -1.10993 -2.05433 0
M  V30 1603 C 154.155 -0.0142161 -1.70094 0
M  V30 1604 O 155.34 -0.186837 -1.93299 0
M  V30 1605 C 152.47 -0.745561 -3.39203 0
M  V30 1606 C 151.424 -1.79337 -3.88616 0
M  V30 1607 C 150.75 -1.28324 -5.19073 0
M  V30 1608 C 152.05 -3.19553 -4.13138 0
M  V30 1609 H 153.744 -2.0438 -2.1879 0
M  V30 1610 H 151.29 -0.984041 -1.05131 0
M  V30 1611 H 153.243 -0.622888 -4.16771 0
M  V30 1612 H 151.967 0.22401 -3.25831 0
M  V30 1613 H 150.626 -1.90477 -3.13231 0
M  V30 1614 H 150.274 -0.303414 -5.02084 0
M  V30 1615 H 149.974 -1.98369 -5.53103 0
M  V30 1616 H 151.498 -1.1733 -5.99221 0
M  V30 1617 H 152.912 -3.11471 -4.81309 0
M  V30 1618 H 151.309 -3.87218 -4.58457 0
M  V30 1619 H 152.379 -3.65368 -3.18801 0
M  V30 1620 N 153.722 1.14298 -1.08507 0
M  V30 1621 C 154.97 1.84993 -0.813763 0
M  V30 1622 C 155.291 1.83405 0.662393 0
M  V30 1623 O 154.561 1.28319 1.48024 0
M  V30 1624 H 153.141 0.684966 -0.298045 0
M  V30 1625 H 155.803 1.385 -1.37126 0
M  V30 1626 H 154.899 2.89788 -1.15884 0
M  V30 1627 N 155.201 0.870884 1.31352 0
M  V30 1628 C 156.447 0.482987 1.96965 0
M  V30 1629 C 156.78 -0.962462 1.68672 0
M  V30 1630 O 156.055 -1.6779 0.98371 0
M  V30 1631 C 156.338 0.741752 3.52378 0
M  V30 1632 C 156.191 2.2368 3.9024 0
M  V30 1633 C 157.51 0.208838 4.39604 0
M  V30 1634 H 154.629 0.176955 0.715441 0
M  V30 1635 H 157.271 1.09229 1.55464 0
M  V30 1636 H 155.421 0.223149 3.87859 0
M  V30 1637 H 157.093 2.82273 3.64856 0
M  V30 1638 H 155.336 2.70901 3.38814 0
M  V30 1639 H 156.007 2.3685 4.98604 0
M  V30 1640 H 158.483 0.652529 4.10952 0
M  V30 1641 H 157.359 0.419336 5.47296 0
M  V30 1642 H 157.62 -0.889275 4.33064 0
M  V30 1643 N 156.679 -1.44442 0.630414 0
M  V30 1644 C 157.609 -2.33418 -0.0618083 0
M  V30 1645 C 158.59 -1.48165 -0.835541 0
M  V30 1646 O 159.775 -1.76886 -0.801564 0
M  V30 1647 C 156.905 -3.31222 -1.04449 0
M  V30 1648 C 155.859 -4.26288 -0.382436 0
M  V30 1649 C 155.185 -5.13954 -1.47497 0
M  V30 1650 C 156.485 -5.1744 0.710865 0
M  V30 1651 H 158.179 -2.91548 0.681184 0
M  V30 1652 H 155.725 -1.40191 0.329026 0
M  V30 1653 H 157.678 -3.92351 -1.53748 0
M  V30 1654 H 156.402 -2.71299 -1.81836 0
M  V30 1655 H 155.061 -3.6649 0.0899054 0
M  V30 1656 H 154.709 -4.50385 -2.2397 0
M  V30 1657 H 154.409 -5.7837 -1.03737 0
M  V30 1658 H 155.933 -5.77955 -1.96979 0
M  V30 1659 H 157.347 -5.72509 0.300996 0
M  V30 1660 H 155.744 -5.90455 1.07156 0
M  V30 1661 H 156.814 -4.58496 1.57829 0
M  V30 1662 N 158.157 -0.370918 -1.53173 0
M  V30 1663 C 159.403 0.217423 -2.01631 0
M  V30 1664 C 159.736 1.47983 -1.25756 0
M  V30 1665 O 159.011 1.91274 -0.352764 0
M  V30 1666 C 159.294 0.503982 -3.56556 0
M  V30 1667 C 159.147 -0.77243 -4.43118 0
M  V30 1668 C 160.466 1.30234 -4.20389 0
M  V30 1669 H 157.585 0.0775486 -0.732909 0
M  V30 1670 H 160.227 -0.496863 -1.83388 0
M  V30 1671 H 158.377 1.11248 -3.72231 0
M  V30 1672 H 160.049 -1.4098 -4.39229 0
M  V30 1673 H 158.292 -1.39167 -4.10871 0
M  V30 1674 H 158.963 -0.526815 -5.4948 0
M  V30 1675 H 161.439 0.787546 -4.08579 0
M  V30 1676 H 160.315 1.47158 -5.28806 0
M  V30 1677 H 160.576 2.31237 -3.76805 0
M  V30 1678 N 159.635 1.57281 -0.100228 0
M  V30 1679 C 161.046 1.81725 0.428107 0
M  V30 1680 C 161.397 1.01619 1.67833 0
M  V30 1681 O 160.522 0.247098 2.14985 0
M  V30 1682 C 161.117 3.29617 0.78347 0
M  V30 1683 C 159.676 3.54808 1.25653 0
M  V30 1684 C 158.823 2.76118 0.255752 0
M  V30 1685 H 161.774 1.55324 -0.325608 0
M  V30 1686 H 161.795 3.4322 1.64256 0
M  V30 1687 H 161.307 3.87893 -0.12665 0
M  V30 1688 H 159.408 3.01868 2.18418 0
M  V30 1689 H 159.521 4.63443 1.21482 0
M  V30 1690 H 157.885 2.43745 0.738956 0
M  V30 1691 H 158.668 3.37145 -0.647136 0
M  V30 1692 N 161.113 -0.173488 1.56642 0
M  V30 1693 C 162.063 -1.21941 1.92651 0
M  V30 1694 C 163.047 -1.39912 0.794577 0
M  V30 1695 O 164.239 -1.41919 1.05773 0
M  V30 1696 C 161.368 -2.55935 2.28806 0
M  V30 1697 C 160.454 -2.41667 3.48508 0
M  V30 1698 N 160.845 -1.9711 4.65813 0
M  V30 1699 C 159.143 -2.72499 3.53072 0
M  V30 1700 C 159.844 -1.95253 5.47952 0
M  V30 1701 N 158.82 -2.37575 4.88937 0
M  V30 1702 H 162.622 -0.866581 2.80834 0
M  V30 1703 H 160.136 -0.381776 1.57849 0
M  V30 1704 H 162.133 -3.31511 2.52797 0
M  V30 1705 H 160.793 -2.92022 1.41961 0
M  V30 1706 H 161.804 -1.67481 4.90072 0
M  V30 1707 H 158.481 -3.12639 2.767 0
M  V30 1708 H 159.871 -1.6252 6.51948 0
M  V30 1709 N 162.591 -1.51276 -0.441967 0
M  V30 1710 C 163.837 -1.63958 -1.19355 0
M  V30 1711 C 164.17 -0.352543 -1.90973 0
M  V30 1712 O 163.445 0.647627 -1.83401 0
M  V30 1713 C 163.728 -2.83979 -2.21422 0
M  V30 1714 C 163.581 -4.22646 -1.53918 0
M  V30 1715 C 164.9 -2.99521 -3.22451 0
M  V30 1716 H 162.019 -0.596709 -0.432559 0
M  V30 1717 H 164.661 -1.83748 -0.483398 0
M  V30 1718 H 162.811 -2.67237 -2.81987 0
M  V30 1719 H 164.483 -4.51045 -0.967256 0
M  V30 1720 H 162.726 -4.25558 -0.841615 0
M  V30 1721 H 163.397 -5.02609 -2.28229 0
M  V30 1722 H 165.873 -3.14944 -2.71937 0
M  V30 1723 H 164.749 -3.85072 -3.91166 0
M  V30 1724 H 165.01 -2.11391 -3.88287 0
M  V30 1725 N 164.069 0.697108 -1.41344 0
M  V30 1726 C 165.317 1.45426 -1.40341 0
M  V30 1727 C 165.638 1.94996 -0.0128787 0
M  V30 1728 O 164.908 1.71599 0.945027 0
M  V30 1729 H 163.488 0.539594 -0.516573 0
M  V30 1730 H 166.15 0.825201 -1.76569 0
M  V30 1731 H 165.246 2.31817 -2.08967 0
M  V30 1732 N 165.547 1.27147 0.931209 0
M  V30 1733 C 166.457 1.11372 2.06478 0
M  V30 1734 C 167.473 0.044645 1.73943 0
M  V30 1735 O 168.649 0.250417 1.99837 0
M  V30 1736 C 165.714 0.758838 3.38294 0
M  V30 1737 C 164.775 1.90841 3.84549 0
M  V30 1738 C 164.008 1.57036 5.10074 0
M  V30 1739 O 164.231 0.476645 5.68405 0
M  V30 1740 O 163.165 2.40839 5.51616 0
M  V30 1741 H 166.991 2.06493 2.22698 0
M  V30 1742 H 164.576 1.06301 1.04978 0
M  V30 1743 H 166.458 0.574098 4.17471 0
M  V30 1744 H 165.133 -0.162879 3.2329 0
M  V30 1745 H 164.04 2.14819 3.06274 0
M  V30 1746 H 165.373 2.81021 4.04089 0
M  V30 1747 N 167.025 -1.13721 1.09112 0
M  V30 1748 C 168.274 -1.84275 0.82009 0
M  V30 1749 C 168.587 -1.84253 -0.656509 0
M  V30 1750 O 169.793 -2.50668 -1.04296 0
M  V30 1751 C 168.249 -3.30825 1.41714 0
M  V30 1752 C 167.857 -3.39244 2.92605 0
M  V30 1753 C 169.601 -4.06443 1.22492 0
M  V30 1754 C 167.508 -4.80047 3.45411 0
M  V30 1755 H 166.438 -0.690387 0.30312 0
M  V30 1756 H 169.089 -1.28146 1.31343 0
M  V30 1757 H 167.471 -3.86737 0.851498 0
M  V30 1758 H 168.645 -2.93344 3.55367 0
M  V30 1759 H 166.96 -2.77088 3.10823 0
M  V30 1760 H 169.557 -5.10387 1.59402 0
M  V30 1761 H 169.9 -4.15972 0.165299 0
M  V30 1762 H 170.433 -3.56852 1.75788 0
M  V30 1763 H 167.172 -4.75709 4.50978 0
M  V30 1764 H 166.692 -5.26455 2.87411 0
M  V30 1765 H 168.371 -5.48957 3.42425 0
M  V30 1766 N 168.503 -0.877838 -1.30888 0
M  V30 1767 C 169.914 -0.544193 -1.78593 0
M  V30 1768 C 170.265 0.939301 -1.72254 0
M  V30 1769 O 169.39 1.7337 -1.29505 0
M  V30 1770 C 169.985 -0.98105 -3.24285 0
M  V30 1771 C 168.544 -0.698935 -3.69854 0
M  V30 1772 C 167.691 -1.168 -2.51502 0
M  V30 1773 H 170.642 -1.06278 -1.17859 0
M  V30 1774 H 170.663 -0.307009 -3.79259 0
M  V30 1775 H 170.175 -2.06079 -3.28866 0
M  V30 1776 H 168.276 0.369112 -3.70767 0
M  V30 1777 H 168.389 -1.28148 -4.61644 0
M  V30 1778 H 166.753 -0.587535 -2.47831 0
M  V30 1779 H 167.536 -2.25533 -2.58824 0
M  V30 1780 N 169.982 1.44106 -0.638065 0
M  V30 1781 C 171.228 2.02277 -0.145546 0
M  V30 1782 C 171.561 1.50125 1.23191 0
M  V30 1783 O 170.836 0.688133 1.8192 0
M  V30 1784 C 171.119 3.59829 -0.139791 0
M  V30 1785 C 170.972 4.22247 -1.55008 0
M  V30 1786 C 172.291 4.36873 0.531966 0
M  V30 1787 H 169.41 0.734992 -0.0543632 0
M  V30 1788 H 172.052 1.71592 -0.815863 0
M  V30 1789 H 170.202 3.86102 0.431007 0
M  V30 1790 H 171.874 4.07057 -2.1703 0
M  V30 1791 H 170.117 3.79476 -2.10191 0
M  V30 1792 H 170.788 5.31284 -1.49804 0
M  V30 1793 H 173.264 4.16074 0.0464781 0
M  V30 1794 H 172.14 5.4657 0.505206 0
M  V30 1795 H 172.401 4.11995 1.60352 0
M  V30 1796 N 171.46 0.379036 1.52974 0
M  V30 1797 C 172.423 -0.448865 2.24762 0
M  V30 1798 C 173.423 -0.998689 1.26027 0
M  V30 1799 O 174.613 -0.882313 1.50203 0
M  V30 1800 C 171.745 -1.62872 2.99476 0
M  V30 1801 H 172.938 0.179491 2.99362 0
M  V30 1802 H 170.491 0.13096 1.5575 0
M  V30 1803 H 171.226 -2.29479 2.29151 0
M  V30 1804 H 171.011 -1.24128 3.71934 0
M  V30 1805 H 172.501 -2.2151 3.5401 0
M  V30 1806 N 172.938 -1.57226 0.108567 0
M  V30 1807 C 174.168 -1.9889 -0.559142 0
M  V30 1808 C 174.576 -0.986889 -1.61422 0
M  V30 1809 O 173.919 0.0298705 -1.83676 0
M  V30 1810 C 173.981 -3.36952 -1.25315 0
M  V30 1811 C 173.645 -4.55679 -0.347248 0
M  V30 1812 C 174.642 -5.18281 0.409996 0
M  V30 1813 C 172.327 -5.0162 -0.261367 0
M  V30 1814 C 174.321 -6.25203 1.24096 0
M  V30 1815 C 172.008 -6.08405 0.573238 0
M  V30 1816 C 173.006 -6.70063 1.32304 0
M  V30 1817 O 172.694 -7.74788 2.14381 0
M  V30 1818 H 172.426 -0.658343 -0.153492 0
M  V30 1819 H 174.98 -2.04532 0.188584 0
M  V30 1820 H 173.21 -3.28032 -2.04773 0
M  V30 1821 H 174.899 -3.62974 -1.81673 0
M  V30 1822 H 175.665 -4.8371 0.353457 0
M  V30 1823 H 171.544 -4.53381 -0.834656 0
M  V30 1824 H 175.088 -6.73259 1.82669 0
M  V30 1825 H 170.985 -6.42406 0.631208 0
M  V30 1826 H 171.753 -7.91837 2.07209 0
M  V30 1827 N 174.416 0.165178 -1.56732 0
M  V30 1828 C 175.832 0.517174 -1.50988 0
M  V30 1829 C 176.032 1.84331 -0.813894 0
M  V30 1830 O 175.088 2.49672 -0.37682 0
M  V30 1831 C 176.401 0.544261 -2.95733 0
M  V30 1832 C 177.949 0.631039 -3.06573 0
M  V30 1833 C 178.424 0.68896 -4.52788 0
M  V30 1834 N 179.915 0.751683 -4.5706 0
M  V30 1835 C 180.65 0.817177 -5.67547 0
M  V30 1836 N 180.146 0.843129 -6.8765 0
M  V30 1837 N 181.939 0.856668 -5.55534 0
M  V30 1838 H 174.09 -0.704318 -2.00382 0
M  V30 1839 H 176.353 -0.254687 -0.913148 0
M  V30 1840 H 176.059 -0.361607 -3.49836 0
M  V30 1841 H 175.933 1.3886 -3.5071 0
M  V30 1842 H 178.32 1.52733 -2.52501 0
M  V30 1843 H 178.401 -0.240095 -2.54671 0
M  V30 1844 H 178.045 -0.2031 -5.07494 0
M  V30 1845 H 177.975 1.57633 -5.02454 0
M  V30 1846 H 180.466 0.739661 -3.70591 0
M  V30 1847 H 180.779 0.894448 -7.67606 0
M  V30 1848 H 179.124 0.811304 -6.90248 0
M  V30 1849 H 182.315 0.833437 -4.60621 0
M  V30 1850 H 182.488 0.904247 -6.4166 0
M  V30 1851 N 175.894 1.51508 0.433938 0
M  V30 1852 C 176.841 1.73068 1.52696 0
M  V30 1853 C 177.811 0.572441 1.55924 0
M  V30 1854 O 178.996 0.807253 1.72882 0
M  V30 1855 C 176.136 1.86474 2.90381 0
M  V30 1856 C 175.249 3.14037 2.96656 0
M  V30 1857 C 174.384 3.18019 4.25485 0
M  V30 1858 C 173.423 4.39882 4.2564 0
M  V30 1859 N 172.56 4.41394 5.45999 0
M  V30 1860 H 177.4 2.66366 1.33615 0
M  V30 1861 H 174.937 1.32008 0.649018 0
M  V30 1862 H 176.895 1.92229 3.70275 0
M  V30 1863 H 175.525 0.965809 3.08013 0
M  V30 1864 H 174.577 3.17575 2.09404 0
M  V30 1865 H 175.889 4.0394 2.92633 0
M  V30 1866 H 175.043 3.22708 5.13755 0
M  V30 1867 H 173.782 2.2601 4.3217 0
M  V30 1868 H 172.787 4.35366 3.35763 0
M  V30 1869 H 174.012 5.33159 4.20617 0
M  V30 1870 H 171.958 3.52258 5.53399 0
M  V30 1871 H 171.875 5.25111 5.4387 0
M  V30 1872 H 173.143 4.50281 6.36292 0
M  V30 1873 N 177.372 -0.689602 1.41712 0
M  V30 1874 C 178.618 -1.45181 1.41599 0
M  V30 1875 C 178.951 -1.94181 0.0270081 0
M  V30 1876 O 178.226 -1.6993 -0.946265 0
M  V30 1877 C 178.509 -2.65945 2.42787 0
M  V30 1878 C 178.362 -2.22672 3.90816 0
M  V30 1879 C 179.681 -3.68149 2.41151 0
M  V30 1880 H 176.8 -0.526576 0.515642 0
M  V30 1881 H 179.442 -0.784947 1.73028 0
M  V30 1882 H 177.592 -3.2284 2.16116 0
M  V30 1883 H 179.264 -1.71058 4.28412 0
M  V30 1884 H 177.507 -1.54394 4.05395 0
M  V30 1885 H 178.178 -3.0935 4.57172 0
M  V30 1886 H 180.654 -3.2094 2.64834 0
M  V30 1887 H 179.53 -4.50248 3.13955 0
M  V30 1888 H 179.791 -4.18259 1.43221 0
M  V30 1889 N 178.85 -1.27639 -0.924453 0
M  V30 1890 C 179.78 -1.13166 -2.04244 0
M  V30 1891 C 180.761 -0.032256 -1.70069 0
M  V30 1892 O 181.946 -0.207328 -1.9309 0
M  V30 1893 C 179.076 -0.781496 -3.38393 0
M  V30 1894 C 178.03 -1.83449 -3.86692 0
M  V30 1895 C 177.356 -1.33822 -5.17683 0
M  V30 1896 C 178.656 -3.23917 -4.09726 0
M  V30 1897 H 180.35 -2.06689 -2.1661 0
M  V30 1898 H 177.896 -0.995136 -1.04082 0
M  V30 1899 H 179.849 -0.667057 -4.16087 0
M  V30 1900 H 178.573 0.189439 -3.2605 0
M  V30 1901 H 177.232 -1.93789 -3.11193 0
M  V30 1902 H 176.88 -0.35665 -5.01734 0
M  V30 1903 H 176.58 -2.04224 -5.50968 0
M  V30 1904 H 178.104 -1.23679 -5.97943 0
M  V30 1905 H 179.518 -3.16559 -4.77978 0
M  V30 1906 H 177.915 -3.92059 -4.54324 0
M  V30 1907 H 178.985 -3.68729 -3.14908 0
M  V30 1908 N 180.328 1.1314 -1.09713 0
M  V30 1909 C 181.258 2.20748 -0.761102 0
M  V30 1910 C 182.239 1.68061 0.262566 0
M  V30 1911 O 183.424 1.93765 0.129977 0
M  V30 1912 C 180.554 3.46812 -0.184054 0
M  V30 1913 C 179.508 4.12606 -1.13757 0
M  V30 1914 C 178.834 5.33031 -0.422083 0
M  V30 1915 C 180.134 4.59603 -2.48118 0
M  V30 1916 H 181.828 2.49113 -1.66082 0
M  V30 1917 H 179.374 1.19734 -0.799987 0
M  V30 1918 H 181.327 4.21353 0.0631215 0
M  V30 1919 H 180.051 3.17851 0.750868 0
M  V30 1920 H 178.71 3.40036 -1.37007 0
M  V30 1921 H 178.358 5.00335 0.517072 0
M  V30 1922 H 178.058 5.77999 -1.05788 0
M  V30 1923 H 179.582 6.10325 -0.183277 0
M  V30 1924 H 180.996 5.25552 -2.29059 0
M  V30 1925 H 179.393 5.15321 -3.07514 0
M  V30 1926 H 180.463 3.73971 -3.08665 0
M  V30 1927 N 181.806 0.884767 1.30421 0
M  V30 1928 C 183.222 0.57874 1.48737 0
M  V30 1929 C 183.422 -0.883567 1.81095 0
M  V30 1930 O 182.478 -1.6648 1.89844 0
M  V30 1931 C 183.791 1.49171 2.61091 0
M  V30 1932 C 185.339 1.49532 2.74971 0
M  V30 1933 C 185.814 2.39421 3.90438 0
M  V30 1934 N 187.305 2.37383 3.97748 0
M  V30 1935 C 188.04 3.03647 4.86401 0
M  V30 1936 N 187.536 3.79136 5.79852 0
M  V30 1937 N 189.329 2.9288 4.79768 0
M  V30 1938 H 181.48 1.83075 1.0769 0
M  V30 1939 H 183.743 0.783637 0.533495 0
M  V30 1940 H 183.449 2.53291 2.44001 0
M  V30 1941 H 183.323 1.20113 3.57565 0
M  V30 1942 H 185.71 0.46163 2.91467 0
M  V30 1943 H 185.791 1.8262 1.79119 0
M  V30 1944 H 185.435 3.42874 3.74699 0
M  V30 1945 H 185.365 2.03649 4.85628 0
M  V30 1946 H 187.856 1.82525 3.30897 0
M  V30 1947 H 188.169 4.26789 6.4426 0
M  V30 1948 H 186.514 3.83243 5.79784 0
M  V30 1949 H 189.705 2.33433 4.05742 0
M  V30 1950 H 189.878 3.448 5.4865 0
M  V30 1951 N 183.284 -1.43765 0.645699 0
M  V30 1952 C 184.231 -2.30745 -0.0504648 0
M  V30 1953 C 185.201 -1.4432 -0.822241 0
M  V30 1954 O 186.386 -1.73202 -0.800358 0
M  V30 1955 C 183.526 -3.29802 -1.0161 0
M  V30 1956 C 182.639 -4.31326 -0.241219 0
M  V30 1957 C 181.774 -5.17469 -1.19998 0
M  V30 1958 C 180.813 -6.10691 -0.415094 0
M  V30 1959 N 179.95 -6.89483 -1.32506 0
M  V30 1960 H 184.79 -2.8973 0.697155 0
M  V30 1961 H 182.327 -1.42738 0.355563 0
M  V30 1962 H 184.285 -3.85734 -1.58949 0
M  V30 1963 H 182.915 -2.72483 -1.73069 0
M  V30 1964 H 181.967 -3.77749 0.448334 0
M  V30 1965 H 183.279 -4.9743 0.369437 0
M  V30 1966 H 182.433 -5.7799 -1.84424 0
M  V30 1967 H 181.172 -4.51473 -1.84455 0
M  V30 1968 H 180.177 -5.49265 0.242565 0
M  V30 1969 H 181.402 -6.78727 0.224966 0
M  V30 1970 H 179.348 -6.26142 -1.95657 0
M  V30 1971 H 179.265 -7.52081 -0.768783 0
M  V30 1972 H 180.533 -7.54516 -1.9577 0
M  V30 1973 N 184.763 -0.387143 -1.52771 0
M  V30 1974 C 185.711 0.463953 -2.27926 0
M  V30 1975 C 186.705 1.06493 -1.31741 0
M  V30 1976 O 187.911 1.00565 -1.49287 0
M  V30 1977 H 184.286 0.16837 -0.732909 0
M  V30 1978 H 186.257 -0.19141 -2.97785 0
M  V30 1979 C 185.006 1.5803 -3.09713 0
M  V30 1980 H 184.329 1.12718 -3.83581 0
M  V30 1981 H 185.769 2.15008 -3.65442 0
M  V30 1982 C 184.228 2.53509 -2.2189 0
M  V30 1983 O 184.758 3.56863 -1.84422 0
M  V30 1984 N 182.964 2.23199 -1.86093 0
M  V30 1985 H 182.511 1.39185 -2.16761 0
M  V30 1986 H 182.469 2.87333 -1.27621 0
M  V30 1987 N 186.241 1.57166 -0.116904 0
M  V30 1988 C 187.489 1.94737 0.540533 0
M  V30 1989 C 187.81 1.00096 1.67349 0
M  V30 1990 O 187.08 0.0568854 1.95817 0
M  V30 1991 H 185.66 0.718981 0.202669 0
M  V30 1992 H 188.322 1.94017 -0.185353 0
M  V30 1993 H 187.418 2.97719 0.936483 0
M  V30 1994 N 187.719 -0.156864 1.56817 0
M  V30 1995 C 188.667 -1.21319 1.98455 0
M  V30 1996 C 189.661 -1.45025 0.875444 0
M  V30 1997 O 190.867 -1.45435 1.0606 0
M  V30 1998 H 187.242 -0.408142 0.631605 0
M  V30 1999 H 189.213 -0.835244 2.86472 0
M  V30 2000 C 187.962 -2.54148 2.37285 0
M  V30 2001 H 187.285 -2.36733 3.22176 0
M  V30 2002 H 188.725 -3.26712 2.70251 0
M  V30 2003 C 187.184 -3.13967 1.22173 0
M  V30 2004 O 187.714 -3.98357 0.517149 0
M  V30 2005 N 185.92 -2.7327 0.988536 0
M  V30 2006 H 185.467 -2.04744 1.56326 0
M  V30 2007 H 185.425 -3.13628 0.220209 0
M  V30 2008 N 189.197 -1.51736 -0.425897 0
M  V30 2009 C 190.144 -1.73875 -1.51776 0
M  V30 2010 C 191.114 -0.580702 -1.55618 0
M  V30 2011 O 192.299 -0.81641 -1.72451 0
M  V30 2012 C 189.439 -1.88012 -2.89388 0
M  V30 2013 C 188.552 -3.15606 -2.94986 0
M  V30 2014 C 187.687 -3.20271 -4.23793 0
M  V30 2015 C 186.726 -4.42134 -4.23302 0
M  V30 2016 N 185.863 -4.44284 -5.43651 0
M  V30 2017 H 190.703 -2.67071 -1.32201 0
M  V30 2018 H 188.24 -1.32351 -0.642008 0
M  V30 2019 H 190.198 -1.9419 -3.69251 0
M  V30 2020 H 188.828 -0.98213 -3.07496 0
M  V30 2021 H 187.88 -3.18681 -2.07717 0
M  V30 2022 H 189.192 -4.05486 -2.90486 0
M  V30 2023 H 188.346 -3.25428 -5.12036 0
M  V30 2024 H 187.085 -2.28299 -4.30965 0
M  V30 2025 H 186.09 -4.3714 -3.3345 0
M  V30 2026 H 187.315 -5.35382 -4.17783 0
M  V30 2027 H 185.261 -3.55188 -5.51523 0
M  V30 2028 H 185.178 -5.27988 -5.41078 0
M  V30 2029 H 186.446 -4.53649 -6.33895 0
M  V30 2030 N 190.675 0.682077 -1.42076 0
M  V30 2031 C 191.923 1.4393 -1.41876 0
M  V30 2032 C 192.244 1.94971 -0.0335599 0
M  V30 2033 O 191.514 1.72591 0.926773 0
M  V30 2034 H 190.094 0.534085 -0.522267 0
M  V30 2035 H 192.756 0.806427 -1.77434 0
M  V30 2036 H 191.852 2.29588 -2.11414 0
M  V30 2037 N 192.153 1.28127 0.917671 0
M  V30 2038 C 193.116 1.11744 2.00115 0
M  V30 2039 C 194.116 0.0583052 1.60694 0
M  V30 2040 O 195.306 0.303755 1.71531 0
M  V30 2041 C 192.438 0.704862 3.33533 0
M  V30 2042 H 193.631 2.07966 2.16079 0
M  V30 2043 H 191.184 1.11058 1.09981 0
M  V30 2044 H 191.919 -0.258299 3.2327 0
M  V30 2045 H 191.704 1.4699 3.63505 0
M  V30 2046 H 193.194 0.612768 4.1308 0
M  V30 2047 N 193.631 -1.12557 1.10312 0
M  V30 2048 C 194.879 -1.83675 0.843091 0
M  V30 2049 C 195.2 -1.84435 -0.633131 0
M  V30 2050 O 194.47 -1.30657 -1.45964 0
M  V30 2051 H 193.05 -0.680138 0.308904 0
M  V30 2052 H 195.712 -1.36301 1.39313 0
M  V30 2053 H 194.808 -2.87908 1.2048 0
M  V30 2054 N 195.109 -0.891671 -1.2995 0
M  V30 2055 C 196.357 -0.512486 -1.95494 0
M  V30 2056 C 196.678 0.942776 -1.70695 0
M  V30 2057 O 195.948 1.66374 -1.03424 0
M  V30 2058 H 194.528 -0.186533 -0.723336 0
M  V30 2059 H 197.19 -1.13621 -1.58355 0
M  V30 2060 H 196.286 -0.688342 -3.04415 0
M  V30 2061 N 196.587 1.43421 -0.653314 0
M  V30 2062 C 197.537 2.2792 0.060558 0
M  V30 2063 C 198.521 1.39906 0.794677 0
M  V30 2064 O 199.713 1.63536 0.677128 0
M  V30 2065 C 196.842 3.27603 1.0262 0
M  V30 2066 C 195.928 4.23104 0.290551 0
M  V30 2067 N 196.319 5.01031 -0.692967 0
M  V30 2068 C 194.617 4.42816 0.531984 0
M  V30 2069 C 195.318 5.70626 -1.12963 0
M  V30 2070 N 194.294 5.41617 -0.463867 0
M  V30 2071 H 198.096 2.85585 -0.694143 0
M  V30 2072 H 195.61 1.55126 -0.480602 0
M  V30 2073 H 197.607 3.86918 1.55242 0
M  V30 2074 H 196.267 2.71499 1.78096 0
M  V30 2075 H 197.278 5.0669 -1.07169 0
M  V30 2076 H 193.955 3.97782 1.26791 0
M  V30 2077 H 195.345 6.4318 -1.94343 0
M  V30 2078 N 198.065 0.39524 1.52563 0
M  V30 2079 C 199.29 -0.187456 2.06551 0
M  V30 2080 C 199.715 -1.39249 1.26457 0
M  V30 2081 O 199.073 -1.78947 0.291151 0
M  V30 2082 C 199.121 -0.529985 3.56684 0
M  V30 2083 O 198.225 -1.62307 3.79118 0
M  V30 2084 H 197.566 -0.0202537 0.663691 0
M  V30 2085 H 200.096 0.564426 1.96661 0
M  V30 2086 H 200.106 -0.792598 4.00227 0
M  V30 2087 H 198.781 0.350987 4.14416 0
M  V30 2088 H 197.358 -1.3537 3.47461 0
M  V30 2089 N 199.544 -1.57102 0.125237 0
M  V30 2090 C 200.774 -1.99472 -0.538015 0
M  V30 2091 C 201.182 -1.00395 -1.60366 0
M  V30 2092 O 200.525 0.0103875 -1.83697 0
M  V30 2093 C 200.587 -3.38262 -1.21734 0
M  V30 2094 C 200.251 -4.56021 -0.298897 0
M  V30 2095 C 201.248 -5.17817 0.464943 0
M  V30 2096 C 198.933 -5.01869 -0.208149 0
M  V30 2097 C 200.927 -6.23852 1.3072 0
M  V30 2098 C 198.614 -6.07763 0.637736 0
M  V30 2099 C 199.612 -6.68622 1.39403 0
M  V30 2100 O 199.3 -7.7247 2.22586 0
M  V30 2101 H 199.032 -0.659934 -0.146501 0
M  V30 2102 H 201.586 -2.04321 0.210267 0
M  V30 2103 H 199.816 -3.30185 -2.01282 0
M  V30 2104 H 201.505 -3.6488 -1.77813 0
M  V30 2105 H 202.271 -4.83308 0.404741 0
M  V30 2106 H 198.15 -4.54241 -0.786522 0
M  V30 2107 H 201.694 -6.71284 1.898 0
M  V30 2108 H 197.591 -6.41701 0.699309 0
M  V30 2109 H 198.359 -7.89595 2.15596 0
M  V30 2110 N 201.022 0.148545 -1.56898 0
M  V30 2111 C 202.27 0.859717 -1.82902 0
M  V30 2112 C 202.591 1.81775 -0.70588 0
M  V30 2113 O 201.861 1.93994 0.272586 0
M  V30 2114 H 200.441 0.320469 -0.674766 0
M  V30 2115 H 203.103 0.142918 -1.94375 0
M  V30 2116 H 202.199 1.4229 -2.77777 0
M  V30 2117 N 202.5 1.5196 0.417844 0
M  V30 2118 C 203.463 1.74065 1.49111 0
M  V30 2119 C 204.463 0.610537 1.48758 0
M  V30 2120 O 205.653 0.87832 1.50437 0
M  V30 2121 C 202.785 1.81502 2.88565 0
M  V30 2122 H 203.978 2.69869 1.30807 0
M  V30 2123 H 201.531 1.42244 0.647785 0
M  V30 2124 H 202.266 0.875813 3.1225 0
M  V30 2125 H 202.051 2.63651 2.90225 0
M  V30 2126 H 203.541 2.00376 3.66387 0
M  V30 2127 N 203.978 -0.674533 1.42435 0
M  V30 2128 C 205.255 -1.4305 1.33402 0
M  V30 2129 C 205.635 -2.11081 -0.0284674 0
M  V30 2130 O 204.983 -2.03257 -1.04397 0
M  V30 2131 C 205.193 -2.43272 2.50239 0
M  V30 2132 C 206.541 -3.07907 2.92367 0
M  V30 2133 O 207.565 -2.53599 2.50132 0
M  V30 2134 O 206.424 -4.0632 3.65467 0
M  V30 2135 H 203.518 -0.638076 0.526106 0
M  V30 2136 H 206.064 -0.703235 1.54443 0
M  V30 2137 H 204.836 -1.91803 3.41068 0
M  V30 2138 H 204.459 -3.23479 2.31186 0
M  V30 2139 N 205.456 -1.28612 -0.910864 0
M  V30 2140 C 206.386 -1.15326 -2.03032 0
M  V30 2141 C 207.367 -0.0502924 -1.70026 0
M  V30 2142 O 208.552 -0.227797 -1.92859 0
M  V30 2143 C 205.682 -0.817343 -3.37545 0
M  V30 2144 C 204.636 -1.8754 -3.84724 0
M  V30 2145 C 203.962 -1.39305 -5.16235 0
M  V30 2146 C 205.262 -3.28244 -4.06267 0
M  V30 2147 H 206.956 -2.08975 -2.14406 0
M  V30 2148 H 204.502 -1.00612 -1.03021 0
M  V30 2149 H 206.455 -0.711151 -4.15356 0
M  V30 2150 H 205.179 0.154846 -3.26233 0
M  V30 2151 H 203.838 -1.97079 -3.09121 0
M  V30 2152 H 203.486 -0.409846 -5.01328 0
M  V30 2153 H 203.186 -2.10057 -5.48771 0
M  V30 2154 H 204.71 -1.30014 -5.96598 0
M  V30 2155 H 206.124 -3.21611 -4.74594 0
M  V30 2156 H 204.521 -3.96855 -4.5014 0
M  V30 2157 H 205.591 -3.72048 -3.10979 0
M  V30 2158 N 206.934 1.1197 -1.10907 0
M  V30 2159 C 207.881 2.17846 -0.762345 0
M  V30 2160 C 208.851 1.63995 0.263599 0
M  V30 2161 O 210.036 1.90273 0.141773 0
M  V30 2162 C 207.176 3.44487 -0.205651 0
M  V30 2163 C 206.289 4.12369 -1.28748 0
M  V30 2164 C 205.424 5.26674 -0.691919 0
M  V30 2165 C 204.463 5.86431 -1.75399 0
M  V30 2166 N 203.6 6.92142 -1.17833 0
M  V30 2167 H 208.44 2.46851 -1.6694 0
M  V30 2168 H 205.977 1.21188 -0.833776 0
M  V30 2169 H 207.935 4.16981 0.135037 0
M  V30 2170 H 206.565 3.15884 0.664613 0
M  V30 2171 H 205.617 3.38003 -1.74522 0
M  V30 2172 H 206.929 4.52844 -2.09125 0
M  V30 2173 H 206.083 6.05953 -0.300963 0
M  V30 2174 H 204.822 4.8749 0.143232 0
M  V30 2175 H 203.827 5.05835 -2.15432 0
M  V30 2176 H 205.052 6.27685 -2.59208 0
M  V30 2177 H 202.998 6.54985 -0.364725 0
M  V30 2178 H 202.915 7.31242 -1.91887 0
M  V30 2179 H 204.183 7.75237 -0.81408 0
M  V30 2180 N 208.412 0.89855 1.29475 0
M  V30 2181 C 209.637 0.538561 2.00285 0
M  V30 2182 C 210.062 -0.869135 1.66816 0
M  V30 2183 O 209.42 -1.57831 0.892145 0
M  V30 2184 C 209.468 0.736475 3.52999 0
M  V30 2185 O 208.572 -0.211537 4.11857 0
M  V30 2186 H 207.913 0.210563 0.62973 0
M  V30 2187 H 210.443 1.20982 1.64998 0
M  V30 2188 H 210.453 0.640685 4.02938 0
M  V30 2189 H 209.128 1.76276 3.76696 0
M  V30 2190 H 207.705 -0.0682991 3.72837 0
M  V30 2191 N 209.89 -1.43072 0.660911 0
M  V30 2192 C 211.137 -2.01721 0.177445 0
M  V30 2193 C 211.465 -1.5218 -1.21126 0
M  V30 2194 O 210.72 -0.708659 -1.82419 0
M  V30 2195 C 211.019 -3.57103 0.145563 0
M  V30 2196 C 210.685 -4.26021 1.47705 0
M  V30 2197 C 209.347 -4.44563 1.84165 0
M  V30 2198 C 211.699 -4.64983 2.35458 0
M  V30 2199 C 209.027 -4.99334 3.0803 0
M  V30 2200 C 211.379 -5.21127 3.58622 0
M  V30 2201 C 210.043 -5.37884 3.95268 0
M  V30 2202 H 209.313 -0.73815 0.0649317 0
M  V30 2203 H 211.96 -1.71446 0.853144 0
M  V30 2204 H 210.265 -3.86965 -0.61361 0
M  V30 2205 H 211.962 -4.00248 -0.2455 0
M  V30 2206 H 208.552 -4.11939 1.18339 0
M  V30 2207 H 212.736 -4.50343 2.08579 0
M  V30 2208 H 207.992 -5.10493 3.36462 0
M  V30 2209 H 212.166 -5.50262 4.26831 0
M  V30 2210 H 209.793 -5.80089 4.91325 0
M  V30 2211 N 211.368 -0.403325 -1.52352 0
M  V30 2212 C 212.645 0.232611 -1.94212 0
M  V30 2213 C 213.025 1.63133 -1.33981 0
M  V30 2214 O 212.373 2.22659 -0.513344 0
M  V30 2215 C 212.583 0.244811 -3.4814 0
M  V30 2216 C 213.931 0.46698 -4.22024 0
M  V30 2217 O 214.955 0.324419 -3.5472 0
M  V30 2218 O 213.814 0.74747 -5.41364 0
M  V30 2219 H 210.908 0.148223 -0.813609 0
M  V30 2220 H 213.454 -0.458848 -1.63379 0
M  V30 2221 H 212.226 -0.734378 -3.84347 0
M  V30 2222 H 211.849 0.980611 -3.85318 0
M  V30 2223 N 212.846 1.57033 -0.133567 0
M  V30 2224 C 213.776 2.1909 0.807567 0
M  V30 2225 C 214.757 1.13517 1.26681 0
M  V30 2226 O 215.942 1.41809 1.32679 0
M  V30 2227 C 213.072 2.80188 2.05212 0
M  V30 2228 C 212.026 3.91471 1.73015 0
M  V30 2229 C 211.352 4.39443 3.04622 0
M  V30 2230 C 212.652 5.12886 0.987168 0
M  V30 2231 H 214.346 2.97988 0.290403 0
M  V30 2232 H 211.892 1.43335 0.138239 0
M  V30 2233 H 213.845 3.22264 2.71521 0
M  V30 2234 H 212.569 1.98601 2.59278 0
M  V30 2235 H 211.228 3.49993 1.0909 0
M  V30 2236 H 210.876 3.54695 3.56651 0
M  V30 2237 H 210.576 5.14495 2.83847 0
M  V30 2238 H 212.1 4.8418 3.72024 0
M  V30 2239 H 213.514 5.51891 1.55208 0
M  V30 2240 H 211.911 5.93615 0.87985 0
M  V30 2241 H 212.981 4.84894 -0.0235286 0
M  V30 2242 N 214.325 -0.140222 1.56975 0
M  V30 2243 C 215.573 -0.850005 1.83356 0
M  V30 2244 C 215.894 -1.81399 0.71551 0
M  V30 2245 O 215.164 -1.94136 -0.262294 0
M  V30 2246 H 213.744 -0.316886 0.676456 0
M  V30 2247 H 216.406 -0.132608 1.94448 0
M  V30 2248 H 215.502 -1.40814 2.78528 0
M  V30 2249 N 215.803 -1.52179 -0.40978 0
M  V30 2250 C 217.08 -1.56769 -1.16974 0
M  V30 2251 C 217.46 -0.348322 -2.08206 0
M  V30 2252 O 216.808 0.664862 -2.18613 0
M  V30 2253 C 217.018 -2.89603 -1.9476 0
M  V30 2254 C 218.366 -3.42579 -2.50849 0
M  V30 2255 O 219.39 -2.91338 -2.04941 0
M  V30 2256 O 218.249 -4.32054 -3.34652 0
M  V30 2257 H 215.343 -0.631439 -0.534054 0
M  V30 2258 H 217.889 -1.64507 -0.416613 0
M  V30 2259 H 216.661 -3.698 -1.27921 0
M  V30 2260 H 216.284 -2.85155 -2.77079 0
M  V30 2261 N 217.281 0.66697 -1.42791 0
M  V30 2262 C 218.191 1.80962 -1.49299 0
M  V30 2263 C 219.207 1.69775 -0.381108 0
M  V30 2264 O 220.383 1.91188 -0.633188 0
M  V30 2265 C 217.448 3.17156 -1.40045 0
M  V30 2266 C 216.509 3.40242 -2.6179 0
M  V30 2267 C 215.742 4.69939 -2.52969 0
M  V30 2268 O 215.965 5.48372 -1.56985 0
M  V30 2269 O 214.899 4.94441 -3.43237 0
M  V30 2270 H 218.725 1.78427 -2.45759 0
M  V30 2271 H 216.31 0.823713 -1.24641 0
M  V30 2272 H 218.192 3.98413 -1.37276 0
M  V30 2273 H 216.867 3.20312 -0.467138 0
M  V30 2274 H 215.774 2.58802 -2.70134 0
M  V30 2275 H 217.107 3.41923 -3.54047 0
M  V30 2276 N 218.759 1.29093 0.90403 0
M  V30 2277 C 219.689 1.16401 2.02418 0
M  V30 2278 C 220.67 0.0593085 1.69997 0
M  V30 2279 O 221.855 0.238021 1.92736 0
M  V30 2280 C 218.985 0.835233 3.37107 0
M  V30 2281 C 217.939 1.89578 3.83724 0
M  V30 2282 C 217.265 1.42041 5.15489 0
M  V30 2283 C 218.565 3.30394 4.04521 0
M  V30 2284 H 220.259 2.10109 2.13295 0
M  V30 2285 H 217.805 1.01157 1.02486 0
M  V30 2286 H 219.758 0.733169 4.14973 0
M  V30 2287 H 218.482 -0.137543 3.2631 0
M  V30 2288 H 217.141 1.98715 3.08071 0
M  V30 2289 H 216.789 0.436426 5.01103 0
M  V30 2290 H 216.489 2.12964 5.4765 0
M  V30 2291 H 218.013 1.33176 5.959 0
M  V30 2292 H 219.427 3.24123 4.72882 0
M  V30 2293 H 217.824 3.99237 4.48029 0
M  V30 2294 H 218.894 3.73692 3.09002 0
M  V30 2295 N 220.237 -1.11381 1.11499 0
M  V30 2296 C 221.485 -1.8277 0.862524 0
M  V30 2297 C 221.806 -1.85097 -0.613534 0
M  V30 2298 O 221.076 -1.32198 -1.4457 0
M  V30 2299 H 219.656 -0.676823 0.316101 0
M  V30 2300 H 222.318 -1.34816 1.4075 0
M  V30 2301 H 221.414 -2.86614 1.23527 0
M  V30 2302 N 221.715 -0.905404 -1.28997 0
M  V30 2303 C 222.943 -0.549846 -1.9946 0
M  V30 2304 C 223.358 0.866834 -1.67724 0
M  V30 2305 O 222.715 1.57298 -0.925404 0
M  V30 2306 C 222.766 -0.739387 -3.53858 0
M  V30 2307 O 222.487 -2.10031 -3.84472 0
M  V30 2308 C 223.988 -0.389541 -4.41585 0
M  V30 2309 H 221.208 -0.210429 -0.637151 0
M  V30 2310 H 223.752 -1.21632 -1.64396 0
M  V30 2311 H 221.907 -0.120023 -3.87214 0
M  V30 2312 H 222.321 -2.13385 -4.79132 0
M  V30 2313 H 223.795 -0.572972 -5.49018 0
M  V30 2314 H 224.272 0.673756 -4.34001 0
M  V30 2315 H 224.878 -0.986089 -4.1371 0
M  V30 2316 N 223.193 1.4272 -0.668489 0
M  V30 2317 C 224.47 1.95248 -0.117373 0
M  V30 2318 C 224.85 1.60919 1.36632 0
M  V30 2319 O 224.198 0.902095 2.09939 0
M  V30 2320 C 224.408 3.46927 -0.379806 0
M  V30 2321 C 225.756 4.23588 -0.292923 0
M  V30 2322 O 226.78 3.5482 -0.313204 0
M  V30 2323 O 225.639 5.46017 -0.229697 0
M  V30 2324 H 222.733 0.827 0.00079152 0
M  V30 2325 H 225.279 1.52581 -0.742783 0
M  V30 2326 H 224.051 3.65096 -1.40786 0
M  V30 2327 H 223.674 3.96627 0.277923 0
M  V30 2328 N 224.671 0.411399 1.52136 0
M  V30 2329 C 226.082 -0.0576826 1.86611 0
M  V30 2330 C 226.433 -1.44238 1.33003 0
M  V30 2331 O 225.558 -2.05759 0.670228 0
M  V30 2332 C 226.153 -0.111448 3.38617 0
M  V30 2333 C 224.712 -0.52487 3.72723 0
M  V30 2334 C 223.859 0.299176 2.75681 0
M  V30 2335 H 226.81 0.628368 1.4573 0
M  V30 2336 H 226.831 -0.926252 3.69054 0
M  V30 2337 H 226.343 0.896488 3.77604 0
M  V30 2338 H 224.444 -1.53936 3.39315 0
M  V30 2339 H 224.557 -0.267681 4.78352 0
M  V30 2340 H 222.921 -0.238814 2.53578 0
M  V30 2341 H 223.704 1.3055 3.17508 0
M  V30 2342 N 226.149 -1.5696 0.141893 0
M  V30 2343 C 227.379 -2.00031 -0.516828 0
M  V30 2344 C 227.787 -1.02091 -1.59293 0
M  V30 2345 O 227.13 -0.00909657 -1.83698 0
M  V30 2346 C 227.192 -3.39534 -1.1814 0
M  V30 2347 C 226.856 -4.56313 -0.250513 0
M  V30 2348 C 227.853 -5.17295 0.519839 0
M  V30 2349 C 225.538 -5.02061 -0.154907 0
M  V30 2350 C 227.532 -6.2243 1.3733 0
M  V30 2351 C 225.219 -6.07053 0.702161 0
M  V30 2352 C 226.217 -6.67106 1.46487 0
M  V30 2353 O 225.905 -7.70066 2.30767 0
M  V30 2354 H 225.637 -0.661451 -0.139493 0
M  V30 2355 H 228.191 -2.04086 0.231926 0
M  V30 2356 H 226.421 -3.32302 -1.97769 0
M  V30 2357 H 228.11 -3.66745 -1.73933 0
M  V30 2358 H 228.876 -4.82852 0.45598 0
M  V30 2359 H 224.755 -4.5505 -0.7383 0
M  V30 2360 H 228.299 -6.69233 1.96909 0
M  V30 2361 H 224.196 -6.40923 0.76733 0
M  V30 2362 H 224.964 -7.87264 2.23959 0
M  V30 2363 N 227.627 0.131896 -1.57047 0
M  V30 2364 C 228.537 1.1815 -2.02676 0
M  V30 2365 C 229.553 1.46113 -0.944824 0
M  V30 2366 O 230.729 1.57485 -1.25541 0
M  V30 2367 C 227.794 2.49139 -2.41103 0
M  V30 2368 C 226.855 2.28688 -3.63318 0
M  V30 2369 C 226.088 3.53431 -3.99903 0
M  V30 2370 O 226.311 4.60223 -3.36973 0
M  V30 2371 O 225.245 3.45198 -4.93074 0
M  V30 2372 H 229.071 0.824069 -2.92306 0
M  V30 2373 H 226.656 0.341745 -1.45439 0
M  V30 2374 H 228.538 3.26338 -2.66611 0
M  V30 2375 H 227.213 2.84382 -1.54624 0
M  V30 2376 H 226.12 1.4939 -3.42977 0
M  V30 2377 H 227.453 1.98355 -4.50462 0
M  V30 2378 N 229.106 1.52395 0.401703 0
M  V30 2379 C 230.383 1.57387 1.16141 0
M  V30 2380 C 230.763 0.359359 2.08019 0
M  V30 2381 O 230.111 -0.65326 2.18963 0
M  V30 2382 C 230.321 2.90631 1.93221 0
M  V30 2383 C 231.669 3.43904 2.49028 0
M  V30 2384 O 232.693 2.92421 2.03393 0
M  V30 2385 O 231.552 4.33823 3.32356 0
M  V30 2386 H 228.646 0.634262 0.530698 0
M  V30 2387 H 231.192 1.64725 0.407883 0
M  V30 2388 H 229.964 3.70473 1.25958 0
M  V30 2389 H 229.587 2.8662 2.75563 0
M  V30 2390 N 230.584 -0.659388 1.43143 0
M  V30 2391 C 231.831 -1.41935 1.44433 0
M  V30 2392 C 232.159 -1.94387 0.0663522 0
M  V30 2393 O 231.414 -1.72314 -0.927706 0
M  V30 2394 C 231.713 -2.62206 2.42864 0
M  V30 2395 C 231.379 -2.28208 3.88886 0
M  V30 2396 C 230.041 -2.18647 4.28657 0
M  V30 2397 C 232.393 -2.00887 4.8093 0
M  V30 2398 C 229.721 -1.79914 5.58433 0
M  V30 2399 C 232.073 -1.63653 6.11065 0
M  V30 2400 C 230.737 -1.52614 6.49819 0
M  V30 2401 H 230.007 -0.519376 0.528517 0
M  V30 2402 H 232.654 -0.750453 1.76183 0
M  V30 2403 H 230.959 -3.34199 2.04495 0
M  V30 2404 H 232.656 -3.2041 2.41119 0
M  V30 2405 H 229.246 -2.36557 3.57406 0
M  V30 2406 H 233.43 -2.07198 4.5098 0
M  V30 2407 H 228.686 -1.69948 5.87305 0
M  V30 2408 H 232.86 -1.41543 6.81864 0
M  V30 2409 H 230.487 -1.22371 7.50286 0
M  V30 2410 N 232.062 -1.29571 -0.897171 0
M  V30 2411 C 232.994 -1.10724 -2.00681 0
M  V30 2412 C 234.007 -0.0540026 -1.6271 0
M  V30 2413 O 235.196 -0.298783 -1.75982 0
M  V30 2414 C 232.296 -0.663912 -3.32333 0
M  V30 2415 C 231.469 -1.79622 -3.98816 0
M  V30 2416 C 230.528 -1.34349 -5.0876 0
M  V30 2417 O 229.554 -2.04864 -5.31055 0
M  V30 2418 N 230.756 -0.215764 -5.80099 0
M  V30 2419 H 233.521 -2.06291 -2.17403 0
M  V30 2420 H 231.082 -1.21544 -1.06951 0
M  V30 2421 H 233.074 -0.344295 -4.03233 0
M  V30 2422 H 231.644 0.199375 -3.11964 0
M  V30 2423 H 230.864 -2.28459 -3.21248 0
M  V30 2424 H 232.152 -2.55535 -4.39976 0
M  V30 2425 H 231.55 0.372091 -5.64475 0
M  V30 2426 H 230.107 0.0444707 -6.51785 0
M  V30 2427 N 233.54 1.10788 -1.12088 0
M  V30 2428 C 234.45 2.20599 -0.798338 0
M  V30 2429 C 235.466 1.72712 0.21135 0
M  V30 2430 O 236.642 2.01348 0.0458477 0
M  V30 2431 C 233.707 3.45771 -0.253674 0
M  V30 2432 C 232.768 4.08411 -1.32283 0
M  V30 2433 C 232.001 5.27608 -0.80406 0
M  V30 2434 O 232.224 5.69241 0.363478 0
M  V30 2435 O 231.158 5.8101 -1.57198 0
M  V30 2436 H 234.984 2.50614 -1.7154 0
M  V30 2437 H 232.569 1.19454 -0.897275 0
M  V30 2438 H 234.451 4.21376 0.0453691 0
M  V30 2439 H 233.126 3.1739 0.636005 0
M  V30 2440 H 232.033 3.34507 -1.67499 0
M  V30 2441 H 233.366 4.40986 -2.18614 0
M  V30 2442 N 235.018 0.912232 1.28515 0
M  V30 2443 C 235.966 0.389597 2.29314 0
M  V30 2444 C 236.96 -0.517915 1.61289 0
M  V30 2445 O 238.166 -0.399328 1.75515 0
M  V30 2446 H 234.541 0.107386 0.744293 0
M  V30 2447 H 236.512 1.25286 2.70825 0
M  V30 2448 C 235.261 -0.356496 3.45868 0
M  V30 2449 H 234.584 0.332608 3.98414 0
M  V30 2450 H 236.024 -0.686851 4.184 0
M  V30 2451 C 234.483 -1.56383 2.98406 0
M  V30 2452 O 235.013 -2.66294 3.00749 0
M  V30 2453 N 233.219 -1.41029 2.54085 0
M  V30 2454 H 232.766 -0.516089 2.52377 0
M  V30 2455 H 232.724 -2.21939 2.22689 0
M  V30 2456 N 236.496 -1.42363 0.676048 0
M  V30 2457 C 237.742 -2.02336 0.207809 0
M  V30 2458 C 238.097 -1.52506 -1.17302 0
M  V30 2459 O 237.39 -0.718048 -1.77636 0
M  V30 2460 C 237.584 -3.56929 0.183431 0
M  V30 2461 C 237.413 -4.21762 1.56036 0
M  V30 2462 C 236.183 -4.56881 2.15842 0
M  V30 2463 C 238.381 -4.49267 2.50327 0
M  V30 2464 N 236.363 -5.069 3.46303 0
M  V30 2465 C 237.734 -5.00851 3.65443 0
M  V30 2466 C 239.789 -4.31257 2.48841 0
M  V30 2467 C 238.492 -5.36317 4.79329 0
M  V30 2468 C 240.518 -4.678 3.61824 0
M  V30 2469 C 239.88 -5.19537 4.75668 0
M  V30 2470 H 235.979 -0.772583 0.120993 0
M  V30 2471 H 238.563 -1.73203 0.889306 0
M  V30 2472 H 236.734 -3.85576 -0.467483 0
M  V30 2473 H 238.466 -4.03603 -0.297808 0
M  V30 2474 H 235.221 -4.4268 1.68319 0
M  V30 2475 H 235.645 -5.36338 4.13123 0
M  V30 2476 H 240.287 -3.90511 1.62051 0
M  V30 2477 H 238.005 -5.75995 5.66794 0
M  V30 2478 H 241.591 -4.55541 3.61903 0
M  V30 2479 H 240.471 -5.47287 5.61646 0
M  V30 2480 N 237.974 -0.419461 -1.51915 0
M  V30 2481 C 238.922 0.415502 -2.28859 0
M  V30 2482 C 239.916 1.03674 -1.3397 0
M  V30 2483 O 241.122 0.973757 -1.51387 0
M  V30 2484 H 237.497 0.152786 -0.736315 0
M  V30 2485 H 239.468 -0.254531 -2.97312 0
M  V30 2486 C 238.217 1.51425 -3.12995 0
M  V30 2487 H 237.54 1.04556 -3.85886 0
M  V30 2488 H 238.98 2.07208 -3.6992 0
M  V30 2489 C 237.439 2.48745 -2.27217 0
M  V30 2490 O 237.969 3.52871 -1.9195 0
M  V30 2491 N 236.175 2.19202 -1.90785 0
M  V30 2492 H 235.722 1.34556 -2.19664 0
M  V30 2493 H 235.68 2.84561 -1.33687 0
M  V30 2494 N 239.452 1.56882 -0.150215 0
M  V30 2495 C 240.68 2.00593 0.506948 0
M  V30 2496 C 241.095 1.03033 1.58208 0
M  V30 2497 O 240.452 0.0278396 1.82479 0
M  V30 2498 C 240.503 3.44209 1.10465 0
M  V30 2499 O 240.224 4.3804 0.0724636 0
M  V30 2500 C 241.725 4.03214 1.84211 0
M  V30 2501 H 238.945 0.65795 0.13169 0
M  V30 2502 H 241.489 2.03018 -0.245743 0
M  V30 2503 H 239.644 3.42625 1.80795 0
M  V30 2504 H 240.058 5.22007 0.510793 0
M  V30 2505 H 241.532 5.0569 2.21318 0
M  V30 2506 H 242.009 3.44107 2.72923 0
M  V30 2507 H 242.615 4.08437 1.18572 0
M  V30 2508 N 240.93 -0.123565 1.57115 0
M  V30 2509 C 241.877 -1.15177 2.00007 0
M  V30 2510 C 242.847 -1.41403 0.871454 0
M  V30 2511 O 244.032 -1.53346 1.13533 0
M  V30 2512 C 241.172 -2.47436 2.40561 0
M  V30 2513 C 240.285 -2.28184 3.66819 0
M  V30 2514 C 239.42 -3.53641 3.96373 0
M  V30 2515 C 238.459 -3.29528 5.15827 0
M  V30 2516 N 237.596 -4.47175 5.41275 0
M  V30 2517 H 242.436 -0.779008 2.87638 0
M  V30 2518 H 239.973 -0.373166 1.42288 0
M  V30 2519 H 241.931 -3.24584 2.62109 0
M  V30 2520 H 240.561 -2.82614 1.55978 0
M  V30 2521 H 239.613 -1.41976 3.52912 0
M  V30 2522 H 240.925 -2.0634 4.5412 0
M  V30 2523 H 240.079 -4.39209 4.18545 0
M  V30 2524 H 238.818 -3.78512 3.07538 0
M  V30 2525 H 237.823 -2.42349 4.93505 0
M  V30 2526 H 239.048 -3.06031 6.06236 0
M  V30 2527 H 236.994 -4.72175 4.55397 0
M  V30 2528 H 236.911 -4.28419 6.22891 0
M  V30 2529 H 238.179 -5.3389 5.67963 0
M  V30 2530 N 242.408 -1.52605 -0.393616 0
M  V30 2531 C 243.358 -1.73436 -1.48 0
M  V30 2532 C 244.342 -0.588386 -1.49756 0
M  V30 2533 O 245.534 -0.846047 -1.5547 0
M  V30 2534 C 242.663 -1.90247 -2.85764 0
M  V30 2535 C 241.749 -3.10763 -2.88595 0
M  V30 2536 N 242.14 -4.33196 -2.61103 0
M  V30 2537 C 240.438 -3.10914 -3.19763 0
M  V30 2538 C 241.139 -5.1477 -2.70899 0
M  V30 2539 N 240.115 -4.50356 -3.04435 0
M  V30 2540 H 243.917 -2.65727 -1.25563 0
M  V30 2541 H 241.431 -1.5085 -0.601513 0
M  V30 2542 H 243.428 -2.03291 -3.63976 0
M  V30 2543 H 242.088 -0.991663 -3.09186 0
M  V30 2544 H 243.099 -4.61408 -2.35209 0
M  V30 2545 H 239.776 -2.29626 -3.4868 0
M  V30 2546 H 241.166 -6.22355 -2.53227 0
M  V30 2547 N 243.887 0.651787 -1.4349 0
M  V30 2548 C 245.112 1.44434 -1.48841 0
M  V30 2549 C 245.537 1.8779 -0.107955 0
M  V30 2550 O 244.895 1.57464 0.898602 0
M  V30 2551 C 244.943 2.65458 -2.44059 0
M  V30 2552 O 244.047 3.64566 -1.92784 0
M  V30 2553 H 243.388 0.433005 -0.503391 0
M  V30 2554 H 245.918 0.797451 -1.88419 0
M  V30 2555 H 245.928 3.13255 -2.6141 0
M  V30 2556 H 244.603 2.33244 -3.4434 0
M  V30 2557 H 243.18 3.23716 -1.851 0
M  V30 2558 N 245.365 1.30045 0.890287 0
M  V30 2559 C 246.59 1.21598 1.68014 0
M  V30 2560 C 247.015 -0.218678 1.86825 0
M  V30 2561 O 246.373 -1.15756 1.39536 0
M  V30 2562 C 246.421 1.94434 3.03691 0
M  V30 2563 O 245.525 1.2678 3.92429 0
M  V30 2564 H 244.866 0.420856 0.513592 0
M  V30 2565 H 247.396 1.71775 1.11151 0
M  V30 2566 H 247.406 2.03251 3.5377 0
M  V30 2567 H 246.081 2.98777 2.89318 0
M  V30 2568 H 244.658 1.26282 3.50866 0
M  V30 2569 N 246.843 -1.10192 1.12674 0
M  V30 2570 C 248.091 -1.81845 0.881861 0
M  V30 2571 C 248.412 -1.85737 -0.593867 0
M  V30 2572 O 247.682 -1.33724 -1.4316 0
M  V30 2573 H 246.262 -0.673432 0.323261 0
M  V30 2574 H 248.924 -1.33316 1.42172 0
M  V30 2575 H 248.02 -2.85288 1.2656 0
M  V30 2576 N 248.321 -0.919034 -1.28029 0
M  V30 2577 C 249.567 -0.555757 -1.95036 0
M  V30 2578 C 249.9 0.899198 -1.72128 0
M  V30 2579 O 249.175 1.64023 -1.04531 0
M  V30 2580 C 249.458 -0.872024 -3.49382 0
M  V30 2581 C 249.311 -2.3801 -3.81669 0
M  V30 2582 C 250.63 -0.37185 -4.38526 0
M  V30 2583 H 247.749 -0.203386 -0.708381 0
M  V30 2584 H 250.391 -1.14924 -1.51303 0
M  V30 2585 H 248.541 -0.366946 -3.86763 0
M  V30 2586 H 250.213 -2.9562 -3.54128 0
M  V30 2587 H 248.456 -2.83289 -3.28526 0
M  V30 2588 H 249.127 -2.55192 -4.8947 0
M  V30 2589 H 251.603 -0.804602 -4.08247 0
M  V30 2590 H 250.479 -0.622173 -5.45362 0
M  V30 2591 H 250.74 0.727934 -4.36066 0
M  V30 2592 N 249.799 1.42003 -0.683588 0
M  V30 2593 C 251.027 2.05746 -0.218182 0
M  V30 2594 C 251.442 1.51396 1.12804 0
M  V30 2595 O 250.799 0.657303 1.70252 0
M  V30 2596 C 250.85 3.61171 -0.154131 0
M  V30 2597 O 250.571 4.13508 -1.44716 0
M  V30 2598 C 252.072 4.42042 0.333713 0
M  V30 2599 H 249.292 0.662888 -0.10402 0
M  V30 2600 H 251.836 1.81987 -0.9328 0
M  V30 2601 H 249.991 3.84012 0.511231 0
M  V30 2602 H 250.405 5.07453 -1.32632 0
M  V30 2603 H 251.879 5.51028 0.327423 0
M  V30 2604 H 252.356 4.17269 1.37053 0
M  V30 2605 H 252.962 4.24239 -0.300222 0
M  V30 2606 N 251.277 0.427512 1.51691 0
M  V30 2607 C 252.693 0.0792977 1.59403 0
M  V30 2608 C 252.893 -1.41035 1.43914 0
M  V30 2609 O 251.949 -2.17922 1.27539 0
M  V30 2610 C 253.262 0.590636 2.94842 0
M  V30 2611 C 254.81 0.550215 3.08126 0
M  V30 2612 C 255.285 1.03836 4.46074 0
M  V30 2613 N 256.776 0.995943 4.52366 0
M  V30 2614 C 257.511 1.34463 5.57411 0
M  V30 2615 N 257.007 1.76569 6.69922 0
M  V30 2616 N 258.8 1.26343 5.47717 0
M  V30 2617 H 250.951 1.39687 1.60004 0
M  V30 2618 H 253.214 0.575003 0.753708 0
M  V30 2619 H 252.92 1.63251 3.11516 0
M  V30 2620 H 252.794 0.0102061 3.77199 0
M  V30 2621 H 255.181 -0.482654 2.91126 0
M  V30 2622 H 255.262 1.16693 2.27632 0
M  V30 2623 H 254.906 2.06965 4.63819 0
M  V30 2624 H 254.836 0.398286 5.25092 0
M  V30 2625 H 257.327 0.68661 3.7161 0
M  V30 2626 H 257.64 2.01438 7.46085 0
M  V30 2627 H 255.985 1.80488 6.71155 0
M  V30 2628 H 259.176 0.933209 4.58703 0
M  V30 2629 H 259.349 1.53846 6.29472 0
M  V30 2630 N 252.755 -1.56801 0.158532 0
M  V30 2631 C 253.665 -2.20916 -0.789518 0
M  V30 2632 C 254.681 -1.1969 -1.26294 0
M  V30 2633 O 255.857 -1.52308 -1.31773 0
M  V30 2634 C 252.922 -2.82727 -2.00665 0
M  V30 2635 C 251.983 -3.99114 -1.58134 0
M  V30 2636 C 251.216 -4.57968 -2.74045 0
M  V30 2637 O 251.439 -4.15704 -3.90572 0
M  V30 2638 O 250.373 -5.48047 -2.48855 0
M  V30 2639 H 254.199 -3.02464 -0.273681 0
M  V30 2640 H 251.784 -1.4924 -0.0690548 0
M  V30 2641 H 253.666 -3.21968 -2.71872 0
M  V30 2642 H 252.341 -2.04184 -2.51179 0
M  V30 2643 H 251.248 -3.64567 -0.839155 0
M  V30 2644 H 252.581 -4.79212 -1.12325 0
M  V30 2645 N 254.233 0.115231 -1.57178 0
M  V30 2646 C 255.163 1.1423 -2.03651 0
M  V30 2647 C 256.144 1.42967 -0.921655 0
M  V30 2648 O 257.329 1.53343 -1.19162 0
M  V30 2649 C 254.459 2.4675 -2.44401 0
M  V30 2650 C 253.413 2.32467 -3.59365 0
M  V30 2651 C 252.739 3.69984 -3.86026 0
M  V30 2652 C 254.039 1.78203 -4.90959 0
M  V30 2653 H 255.733 0.755749 -2.89705 0
M  V30 2654 H 253.279 0.362093 -1.39373 0
M  V30 2655 H 255.232 3.18854 -2.75517 0
M  V30 2656 H 253.956 2.87302 -1.55322 0
M  V30 2657 H 252.615 1.62811 -3.28463 0
M  V30 2658 H 252.263 4.08028 -2.94147 0
M  V30 2659 H 251.963 3.61279 -4.63412 0
M  V30 2660 H 253.487 4.43587 -4.19599 0
M  V30 2661 H 254.901 2.40128 -5.20587 0
M  V30 2662 H 253.298 1.8031 -5.72371 0
M  V30 2663 H 254.368 0.739876 -4.79222 0
M  V30 2664 N 255.711 1.52812 0.385517 0
M  V30 2665 C 256.644 1.72592 1.49289 0
M  V30 2666 C 257.622 0.573819 1.52138 0
M  V30 2667 O 258.806 0.80404 1.70492 0
M  V30 2668 C 255.933 1.78669 2.87741 0
M  V30 2669 C 254.979 3.00455 3.02703 0
M  V30 2670 S 255.812 4.60366 2.73538 0
M  V30 2671 C 256.968 4.69263 4.14177 0
M  V30 2672 H 257.201 2.66248 1.32285 0
M  V30 2673 H 254.734 1.43148 0.578611 0
M  V30 2674 H 256.692 1.82855 3.67524 0
M  V30 2675 H 255.353 0.861 3.02069 0
M  V30 2676 H 254.546 3.01258 4.04054 0
M  V30 2677 H 254.148 2.94278 2.30817 0
M  V30 2678 H 256.44 4.48092 5.08153 0
M  V30 2679 H 257.383 5.71276 4.18388 0
M  V30 2680 H 257.791 3.98072 4.00249 0
M  V30 2681 N 257.189 -0.644168 1.43834 0
M  V30 2682 C 258.605 -0.960875 1.27434 0
M  V30 2683 C 258.805 -2.00499 0.200618 0
M  V30 2684 O 257.861 -2.49018 -0.417906 0
M  V30 2685 C 259.174 -1.43653 2.64167 0
M  V30 2686 C 260.722 -1.55271 2.71772 0
M  V30 2687 C 261.197 -2.06224 4.08944 0
M  V30 2688 N 262.688 -2.13513 4.11055 0
M  V30 2689 C 263.423 -2.54081 5.14033 0
M  V30 2690 N 262.919 -2.9388 6.27381 0
M  V30 2691 N 264.712 -2.54101 5.01387 0
M  V30 2692 H 256.863 0.0465779 2.12349 0
M  V30 2693 H 259.126 -0.0417638 0.94708 0
M  V30 2694 H 258.832 -0.743706 3.43747 0
M  V30 2695 H 258.706 -2.40993 2.90176 0
M  V30 2696 H 261.093 -2.23653 1.92519 0
M  V30 2697 H 261.174 -0.563395 2.49519 0
M  V30 2698 H 260.818 -1.38441 4.88668 0
M  V30 2699 H 260.748 -3.06003 4.28567 0
M  V30 2700 H 263.239 -1.85493 3.29242 0
M  V30 2701 H 263.552 -3.2361 7.01781 0
M  V30 2702 H 261.897 -2.91663 6.30839 0
M  V30 2703 H 265.088 -2.22391 4.11898 0
M  V30 2704 H 265.261 -2.85394 5.81768 0
M  V30 2705 N 258.668 -1.30515 -0.883378 0
M  V30 2706 C 259.578 -1.18959 -2.02203 0
M  V30 2707 C 260.594 -0.109172 -1.73657 0
M  V30 2708 O 261.77 -0.324413 -1.9877 0
M  V30 2709 C 258.835 -0.883871 -3.35244 0
M  V30 2710 C 257.896 -2.04982 -3.77201 0
M  V30 2711 C 257.129 -1.75859 -5.03894 0
M  V30 2712 O 257.352 -0.687276 -5.66244 0
M  V30 2713 O 256.286 -2.61146 -5.42297 0
M  V30 2714 H 260.112 -2.14616 -2.1488 0
M  V30 2715 H 257.697 -1.10124 -1.0096 0
M  V30 2716 H 259.579 -0.728644 -4.15053 0
M  V30 2717 H 258.254 0.0427798 -3.23672 0
M  V30 2718 H 257.161 -2.26038 -2.9809 0
M  V30 2719 H 258.494 -2.95825 -3.93381 0
M  V30 2720 N 260.146 1.09593 -1.13257 0
M  V30 2721 C 261.076 2.18214 -0.830946 0
M  V30 2722 C 262.057 1.68812 0.208966 0
M  V30 2723 O 263.242 1.9408 0.0682666 0
M  V30 2724 C 260.372 3.46051 -0.294296 0
M  V30 2725 C 259.326 4.08778 -1.26826 0
M  V30 2726 C 258.652 5.31419 -0.591449 0
M  V30 2727 C 259.952 4.51476 -2.62615 0
M  V30 2728 H 261.646 2.43703 -1.73923 0
M  V30 2729 H 259.192 1.17128 -0.837675 0
M  V30 2730 H 261.145 4.2134 -0.0709606 0
M  V30 2731 H 259.869 3.20079 0.649366 0
M  V30 2732 H 258.528 3.35505 -1.47756 0
M  V30 2733 H 258.176 5.01727 0.357633 0
M  V30 2734 H 257.876 5.74341 -1.24123 0
M  V30 2735 H 259.4 6.09433 -0.377355 0
M  V30 2736 H 260.814 5.17999 -2.45663 0
M  V30 2737 H 259.211 5.05277 -3.23752 0
M  V30 2738 H 260.281 3.63962 -3.20406 0
M  V30 2739 N 261.624 0.925811 1.2754 0
M  V30 2740 C 262.572 0.413897 2.28888 0
M  V30 2741 C 263.566 -0.500779 1.61829 0
M  V30 2742 O 264.772 -0.38069 1.75928 0
M  V30 2743 H 261.147 0.115274 0.743112 0
M  V30 2744 H 263.118 1.28151 2.69481 0
M  V30 2745 C 261.867 -0.319792 3.46226 0
M  V30 2746 H 261.19 0.374846 3.98039 0
M  V30 2747 H 262.63 -0.642435 4.19105 0
M  V30 2748 C 261.089 -1.53209 3.00048 0
M  V30 2749 O 261.619 -2.6309 3.03557 0
M  V30 2750 N 259.825 -1.38326 2.55566 0
M  V30 2751 H 259.372 -0.489292 2.5291 0
M  V30 2752 H 259.33 -2.19564 2.25031 0
M  V30 2753 N 263.102 -1.41638 0.69111 0
M  V30 2754 C 264.35 -2.00902 0.219758 0
M  V30 2755 C 264.671 -1.54994 -1.18329 0
M  V30 2756 O 263.941 -0.778628 -1.79762 0
M  V30 2757 H 262.521 -0.74289 0.0782558 0
M  V30 2758 H 265.183 -1.73327 0.891271 0
M  V30 2759 H 264.279 -3.11224 0.233708 0
M  V30 2760 N 264.58 -0.43555 -1.51462 0
M  V30 2761 C 265.828 0.131254 -2.01673 0
M  V30 2762 C 266.149 1.43368 -1.32177 0
M  V30 2763 O 265.419 1.90524 -0.455769 0
M  V30 2764 H 263.999 0.0514954 -0.745223 0
M  V30 2765 H 266.661 -0.577847 -1.86137 0
M  V30 2766 H 265.757 0.308446 -3.10572 0
M  V30 2767 N 266.058 1.56714 -0.166846 0
M  V30 2768 C 267.021 2.16539 0.751232 0
M  V30 2769 C 268.021 1.11228 1.16125 0
M  V30 2770 O 269.211 1.36765 1.07894 0
M  V30 2771 C 266.343 2.74462 2.02196 0
M  V30 2772 H 267.536 2.99013 0.230499 0
M  V30 2773 H 265.089 1.56081 0.0826982 0
M  V30 2774 H 265.824 1.95709 2.58589 0
M  V30 2775 H 265.609 3.51527 1.73698 0
M  V30 2776 H 267.099 3.20489 2.67725 0
M  V30 2777 N 267.536 -0.106894 1.57237 0
M  V30 2778 C 268.766 -0.825191 1.89405 0
M  V30 2779 C 269.174 -1.73374 0.757496 0
M  V30 2780 O 268.517 -1.81552 -0.280115 0
M  V30 2781 C 268.579 -1.70102 3.1671 0
M  V30 2782 C 268.243 -0.965523 4.46684 0
M  V30 2783 C 269.24 -0.300741 5.19029 0
M  V30 2784 C 266.925 -0.943105 4.93367 0
M  V30 2785 C 268.919 0.376622 6.36286 0
M  V30 2786 C 266.606 -0.261949 6.10538 0
M  V30 2787 C 267.604 0.396748 6.81847 0
M  V30 2788 O 267.292 1.06701 7.96787 0
M  V30 2789 H 267.024 -0.241852 0.631255 0
M  V30 2790 H 269.578 -0.0921491 2.05193 0
M  V30 2791 H 267.808 -2.47601 2.97036 0
M  V30 2792 H 269.497 -2.29483 3.34802 0
M  V30 2793 H 270.263 -0.309599 4.84011 0
M  V30 2794 H 266.142 -1.44524 4.3776 0
M  V30 2795 H 269.686 0.891334 6.91882 0
M  V30 2796 H 265.583 -0.250896 6.45012 0
M  V30 2797 H 266.351 0.972707 8.127 0
M  V30 2798 N 269.014 -1.53014 -0.377408 0
M  V30 2799 C 270.242 -1.72515 -1.14219 0
M  V30 2800 C 270.657 -0.448735 -1.8339 0
M  V30 2801 O 270.014 0.577592 -1.73119 0
M  V30 2802 C 270.065 -2.8826 -2.18148 0
M  V30 2803 O 269.786 -4.10962 -1.51795 0
M  V30 2804 C 271.287 -3.19536 -3.07264 0
M  V30 2805 H 268.507 -0.577301 -0.342001 0
M  V30 2806 H 271.051 -1.99712 -0.439935 0
M  V30 2807 H 269.206 -2.63492 -2.83991 0
M  V30 2808 H 269.62 -4.75693 -2.20945 0
M  V30 2809 H 271.094 -4.03959 -3.76193 0
M  V30 2810 H 271.571 -2.34403 -3.71419 0
M  V30 2811 H 272.177 -3.46186 -2.47053 0
M  V30 2812 N 270.492 0.636531 -1.44174 0
M  V30 2813 C 271.908 0.954104 -1.27941 0
M  V30 2814 C 272.108 2.0039 -0.211248 0
M  V30 2815 O 271.164 2.49236 0.404695 0
M  V30 2816 C 272.477 1.4225 -2.64925 0
M  V30 2817 C 274.025 1.53827 -2.72592 0
M  V30 2818 C 274.5 2.04053 -4.10032 0
M  V30 2819 N 275.991 2.11331 -4.12182 0
M  V30 2820 C 276.726 2.51352 -5.15374 0
M  V30 2821 N 276.222 2.90549 -6.2893 0
M  V30 2822 N 278.015 2.51438 -5.02728 0
M  V30 2823 H 270.166 -0.0578386 -2.12321 0
M  V30 2824 H 272.429 0.0367406 -0.947288 0
M  V30 2825 H 272.135 0.725466 -3.44136 0
M  V30 2826 H 272.009 2.39451 -2.9145 0
M  V30 2827 H 274.396 2.22628 -1.93702 0
M  V30 2828 H 274.477 0.550154 -2.49814 0
M  V30 2829 H 274.121 1.35848 -4.89395 0
M  V30 2830 H 274.051 3.03726 -4.30184 0
M  V30 2831 H 276.542 1.83745 -3.30222 0
M  V30 2832 H 276.855 3.19884 -7.03487 0
M  V30 2833 H 275.2 2.88313 -6.32377 0
M  V30 2834 H 278.391 2.20203 -4.13072 0
M  V30 2835 H 278.564 2.82304 -5.83274 0
M  V30 2836 N 271.97 1.30982 0.876444 0
M  V30 2837 C 273.2 1.23063 1.65949 0
M  V30 2838 C 273.608 -0.207537 1.88058 0
M  V30 2839 O 272.951 -1.14781 1.43426 0
M  V30 2840 C 273.013 1.89768 3.05333 0
M  V30 2841 C 272.677 3.39106 3.0636 0
M  V30 2842 C 273.674 4.3496 2.84791 0
M  V30 2843 C 271.359 3.80693 3.27686 0
M  V30 2844 C 273.353 5.70375 2.84519 0
M  V30 2845 C 271.04 5.16223 3.27043 0
M  V30 2846 C 272.038 6.10875 3.05485 0
M  V30 2847 O 271.726 7.43928 3.04674 0
M  V30 2848 H 271.458 0.426685 0.524324 0
M  V30 2849 H 274.012 1.7329 1.10271 0
M  V30 2850 H 272.242 1.34082 3.6271 0
M  V30 2851 H 273.931 1.75853 3.65829 0
M  V30 2852 H 274.697 4.0416 2.68103 0
M  V30 2853 H 270.576 3.07457 3.43499 0
M  V30 2854 H 274.12 6.44228 2.67611 0
M  V30 2855 H 270.017 5.4666 3.43269 0
M  V30 2856 H 270.785 7.53022 3.2078 0
M  V30 2857 N 273.449 -1.08991 1.13837 0
M  V30 2858 C 274.695 -1.81526 0.90422 0
M  V30 2859 C 275.028 -1.85706 -0.568066 0
M  V30 2860 O 274.303 -1.32855 -1.42056 0
M  V30 2861 C 274.586 -3.27447 1.49835 0
M  V30 2862 C 274.439 -3.31512 3.04006 0
M  V30 2863 C 275.758 -4.24256 1.17025 0
M  V30 2864 H 272.877 -0.659029 0.329923 0
M  V30 2865 H 275.519 -1.27644 1.40737 0
M  V30 2866 H 273.669 -3.73462 1.07044 0
M  V30 2867 H 275.341 -2.93867 3.55584 0
M  V30 2868 H 273.584 -2.70963 3.38765 0
M  V30 2869 H 274.255 -4.34329 3.40679 0
M  V30 2870 H 276.731 -3.86549 1.54009 0
M  V30 2871 H 275.607 -5.24684 1.61237 0
M  V30 2872 H 275.868 -4.42019 0.0846274 0
M  V30 2873 N 274.927 -0.932562 -1.27047 0
M  V30 2874 C 276.204 -0.49377 -1.89265 0
M  V30 2875 C 276.584 1.02833 -1.8436 0
M  V30 2876 O 275.932 1.88461 -1.29209 0
M  V30 2877 C 276.142 -1.04536 -3.32976 0
M  V30 2878 C 277.49 -1.10879 -4.09867 0
M  V30 2879 O 278.514 -0.995327 -3.42011 0
M  V30 2880 O 277.373 -1.28417 -5.31198 0
M  V30 2881 H 274.467 -0.159596 -0.811454 0
M  V30 2882 H 277.013 -1.02457 -1.3528 0
M  V30 2883 H 275.785 -2.08913 -3.30864 0
M  V30 2884 H 275.408 -0.496494 -3.94488 0
M  V30 2885 N 276.405 1.4127 -0.698611 0
M  V30 2886 C 277.353 2.32588 -0.023855 0
M  V30 2887 C 278.347 1.51128 0.765292 0
M  V30 2888 O 279.553 1.67043 0.670571 0
M  V30 2889 H 275.928 0.751918 0.0110871 0
M  V30 2890 H 277.899 2.87167 -0.811031 0
M  V30 2891 C 276.648 3.35947 0.896369 0
M  V30 2892 H 275.971 3.98684 0.298548 0
M  V30 2893 H 277.411 4.02376 1.33676 0
M  V30 2894 C 275.87 2.70076 2.01396 0
M  V30 2895 O 276.4 2.55093 3.10307 0
M  V30 2896 N 274.606 2.28724 1.79259 0
M  V30 2897 H 274.153 2.4111 0.906841 0
M  V30 2898 H 274.111 1.84986 2.54219 0
M  V30 2899 N 277.883 0.443576 1.51229 0
M  V30 2900 C 278.831 -0.37904 2.29491 0
M  V30 2901 C 279.825 -1.0153 1.35603 0
M  V30 2902 O 281.031 -0.94955 1.52917 0
M  V30 2903 H 277.406 -0.141053 0.738653 0
M  V30 2904 H 279.377 0.301799 2.9687 0
M  V30 2905 C 278.126 -1.46426 3.15364 0
M  V30 2906 H 277.449 -0.984037 3.87501 0
M  V30 2907 H 278.889 -2.01297 3.7317 0
M  V30 2908 C 277.348 -2.45099 2.31146 0
M  V30 2909 O 277.878 -3.49773 1.9754 0
M  V30 2910 N 276.084 -2.16139 1.94249 0
M  V30 2911 H 275.631 -1.31044 2.21777 0
M  V30 2912 H 275.589 -2.82398 1.38198 0
M  V30 2913 N 279.361 -1.56624 0.175154 0
M  V30 2914 C 280.608 -1.96999 -0.468811 0
M  V30 2915 C 280.936 -1.06129 -1.62994 0
M  V30 2916 O 280.191 -0.0961771 -1.95464 0
M  V30 2917 C 280.49 -3.43419 -0.989864 0
M  V30 2918 C 280.156 -4.50866 0.0557687 0
M  V30 2919 C 278.818 -4.79975 0.343134 0
M  V30 2920 C 281.17 -5.15551 0.765308 0
M  V30 2921 C 278.498 -5.71066 1.34536 0
M  V30 2922 C 280.85 -6.07724 1.75654 0
M  V30 2923 C 279.514 -6.35199 2.05132 0
M  V30 2924 H 278.784 -0.720869 -0.17155 0
M  V30 2925 H 281.431 -1.89616 0.267924 0
M  V30 2926 H 279.736 -3.47772 -1.80449 0
M  V30 2927 H 281.433 -3.72002 -1.49719 0
M  V30 2928 H 278.023 -4.28229 -0.178381 0
M  V30 2929 H 282.207 -4.9317 0.556513 0
M  V30 2930 H 277.463 -5.90635 1.57988 0
M  V30 2931 H 281.637 -6.56912 2.31169 0
M  V30 2932 H 279.264 -7.05584 2.8294 0
M  V30 2933 N 280.839 0.0985539 -1.57292 0
M  V30 2934 C 282.079 0.808332 -1.87737 0
M  V30 2935 C 282.443 1.7607 -0.76572 0
M  V30 2936 O 283.644 2.51358 -0.952499 0
M  V30 2937 C 281.915 1.52093 -3.23423 0
M  V30 2938 S 283.474 2.26947 -3.75554 0
M  V30 2939 H 280.292 0.269377 -0.657995 0
M  V30 2940 H 282.894 0.0656269 -1.9539 0
M  V30 2941 H 281.598 0.81363 -4.02254 0
M  V30 2942 H 281.129 2.30361 -3.189 0
M  V30 2943 H 283.144 3.53027 -3.48692 0
M  V30 2944 N 282.317 1.53212 0.369288 0
M  V30 2945 C 283.565 1.68881 1.11012 0
M  V30 2946 C 283.886 0.441285 1.89941 0
M  V30 2947 O 283.156 -0.544623 1.88177 0
M  V30 2948 H 281.736 0.622569 0.412816 0
M  V30 2949 H 284.398 1.90391 0.416802 0
M  V30 2950 H 283.494 2.54822 1.80201 0
M  V30 2951 N 283.795 -0.628877 1.44509 0
M  V30 2952 C 285.206 -1.21054 1.42137 0
M  V30 2953 C 285.557 -1.95715 0.137881 0
M  V30 2954 O 284.682 -2.02554 -0.761645 0
M  V30 2955 C 285.277 -2.20189 2.57493 0
M  V30 2956 C 283.836 -2.73777 2.58308 0
M  V30 2957 C 282.983 -1.48813 2.33987 0
M  V30 2958 H 285.934 -0.41942 1.53057 0
M  V30 2959 H 285.955 -3.02833 2.30375 0
M  V30 2960 H 285.467 -1.6582 3.50892 0
M  V30 2961 H 283.568 -3.32142 1.68856 0
M  V30 2962 H 283.681 -3.19662 3.56865 0
M  V30 2963 H 282.045 -1.77024 1.83124 0
M  V30 2964 H 282.828 -0.963442 3.29504 0
M  V30 2965 N 285.273 -1.31445 -0.869486 0
M  V30 2966 C 286.55 -1.11795 -1.60503 0
M  V30 2967 C 286.93 0.327168 -2.08549 0
M  V30 2968 O 286.278 1.32135 -1.8642 0
M  V30 2969 C 286.488 -2.13258 -2.76265 0
M  V30 2970 C 287.836 -2.45805 -3.46215 0
M  V30 2971 O 288.86 -2.11688 -2.86473 0
M  V30 2972 O 287.719 -3.04228 -4.5399 0
M  V30 2973 H 284.813 -0.430421 -0.706163 0
M  V30 2974 H 287.359 -1.42925 -0.914907 0
M  V30 2975 H 286.131 -3.10461 -2.3818 0
M  V30 2976 H 285.754 -1.83035 -3.52964 0
M  V30 2977 N 286.751 1.08385 -1.14413 0
M  V30 2978 C 287.999 1.80419 -0.910679 0
M  V30 2979 C 288.32 1.86658 0.564243 0
M  V30 2980 O 287.59 1.35985 1.41014 0
M  V30 2981 H 286.17 0.668204 -0.333934 0
M  V30 2982 H 288.832 1.31037 -1.44275 0
M  V30 2983 H 287.928 2.83238 -1.31082 0
M  V30 2984 N 288.23 0.939286 1.26551 0
M  V30 2985 C 289.46 0.601663 1.97645 0
M  V30 2986 C 289.868 -0.827206 1.70159 0
M  V30 2987 O 289.211 -1.56291 0.965338 0
M  V30 2988 C 289.273 0.761725 3.51337 0
M  V30 2989 C 288.937 2.16487 4.0247 0
M  V30 2990 C 289.934 3.14016 4.14355 0
M  V30 2991 C 287.619 2.48494 4.36527 0
M  V30 2992 C 289.613 4.41654 4.59587 0
M  V30 2993 C 287.3 3.76364 4.81449 0
M  V30 2994 C 288.298 4.72758 4.92939 0
M  V30 2995 O 287.986 5.98352 5.36871 0
M  V30 2996 H 287.718 0.225758 0.637189 0
M  V30 2997 H 290.272 1.26178 1.62075 0
M  V30 2998 H 288.502 0.0444808 3.86674 0
M  V30 2999 H 290.191 0.427442 4.03643 0
M  V30 3000 H 290.957 2.90613 3.8829 0
M  V30 3001 H 286.836 1.74202 4.26819 0
M  V30 3002 H 290.38 5.16896 4.68471 0
M  V30 3003 H 286.277 3.99582 5.06956 0
M  V30 3004 H 287.045 6.01507 5.55096 0
M  V30 3005 N 289.708 -1.40897 0.706093 0
M  V30 3006 C 291.119 -1.84023 0.315052 0
M  V30 3007 C 291.47 -1.5906 -1.14866 0
M  V30 3008 O 290.595 -1.06651 -1.88293 0
M  V30 3009 C 291.19 -3.34055 0.565038 0
M  V30 3010 C 289.749 -3.7571 0.227806 0
M  V30 3011 C 288.896 -2.64204 0.842122 0
M  V30 3012 H 291.847 -1.303 0.905963 0
M  V30 3013 H 291.868 -3.80107 -0.172843 0
M  V30 3014 H 291.38 -3.52192 1.63042 0
M  V30 3015 H 289.481 -3.63172 -0.832895 0
M  V30 3016 H 289.594 -4.74103 0.690174 0
M  V30 3017 H 287.958 -2.53255 0.270893 0
M  V30 3018 H 288.741 -2.85155 1.91158 0
M  V30 3019 N 291.186 -0.45159 -1.50991 0
M  V30 3020 C 292.116 0.342898 -2.30969 0
M  V30 3021 C 293.097 1.00815 -1.37005 0
M  V30 3022 O 294.282 1.00907 -1.65926 0
M  V30 3023 C 291.412 1.43637 -3.16205 0
M  V30 3024 C 290.366 0.893818 -4.18563 0
M  V30 3025 C 289.692 2.08411 -4.92411 0
M  V30 3026 C 290.992 -0.0815568 -5.22236 0
M  V30 3027 H 292.686 -0.324556 -2.97636 0
M  V30 3028 H 290.232 -0.157531 -1.43136 0
M  V30 3029 H 292.185 1.9995 -3.70942 0
M  V30 3030 H 290.909 2.13232 -2.47386 0
M  V30 3031 H 289.568 0.352798 -3.64898 0
M  V30 3032 H 289.216 2.76658 -4.20082 0
M  V30 3033 H 288.916 1.72741 -5.61636 0
M  V30 3034 H 290.44 2.65251 -5.49976 0
M  V30 3035 H 291.854 0.391742 -5.7196 0
M  V30 3036 H 290.251 -0.351551 -5.99069 0
M  V30 3037 H 291.321 -1.01374 -4.74185 0
M  V30 3038 N 292.664 1.56529 -0.183458 0
M  V30 3039 C 293.574 2.22144 0.754272 0
M  V30 3040 C 294.59 1.21684 1.24374 0
M  V30 3041 O 295.766 1.54385 1.29333 0
M  V30 3042 C 292.831 2.85884 1.96141 0
M  V30 3043 C 291.892 4.01579 1.51765 0
M  V30 3044 C 291.125 4.6227 2.66725 0
M  V30 3045 O 291.348 4.21865 3.83909 0
M  V30 3046 O 290.282 5.51936 2.40104 0
M  V30 3047 H 294.108 3.02861 0.225527 0
M  V30 3048 H 291.693 1.49331 0.0453032 0
M  V30 3049 H 293.575 3.26253 2.66715 0
M  V30 3050 H 292.25 2.08154 2.47899 0
M  V30 3051 H 291.157 3.65856 0.781049 0
M  V30 3052 H 292.49 4.80938 1.04686 0
M  V30 3053 N 294.142 -0.090211 1.57342 0
M  V30 3054 C 295.382 -0.798365 1.88163 0
M  V30 3055 C 295.746 -1.75662 0.775046 0
M  V30 3056 O 296.947 -2.50849 0.965816 0
M  V30 3057 C 295.218 -1.50376 3.24225 0
M  V30 3058 S 296.777 -2.24952 3.76752 0
M  V30 3059 H 293.595 -0.265883 0.659414 0
M  V30 3060 H 296.197 -0.055264 1.95422 0
M  V30 3061 H 294.901 -0.792286 4.0268 0
M  V30 3062 H 294.432 -2.28666 3.20118 0
M  V30 3063 H 296.447 -3.51173 3.5056 0
M  V30 3064 N 295.62 -1.53406 -0.361157 0
M  V30 3065 C 296.869 -1.69022 -1.10066 0
M  V30 3066 C 297.182 -0.450838 -1.90333 0
M  V30 3067 O 298.388 -0.487617 -2.67085 0
M  V30 3068 C 296.844 -2.98812 -2.00598 0
M  V30 3069 C 296.452 -4.30027 -1.25621 0
M  V30 3070 C 298.196 -3.23795 -2.74513 0
M  V30 3071 C 296.103 -5.50903 -2.1508 0
M  V30 3072 H 295.033 -0.629776 -0.414606 0
M  V30 3073 H 297.684 -1.79907 -0.361348 0
M  V30 3074 H 296.066 -2.8174 -2.78278 0
M  V30 3075 H 297.24 -4.57745 -0.529739 0
M  V30 3076 H 295.555 -4.11522 -0.635496 0
M  V30 3077 H 298.152 -4.11289 -3.41681 0
M  V30 3078 H 298.495 -2.40045 -3.40123 0
M  V30 3079 H 299.028 -3.41561 -2.03914 0
M  V30 3080 H 295.767 -6.37143 -1.54041 0
M  V30 3081 H 295.287 -5.27459 -2.85565 0
M  V30 3082 H 296.966 -5.85865 -2.74538 0
M  V30 3083 N 297.098 0.621204 -1.44841 0
M  V30 3084 C 298.045 1.73267 -1.5247 0
M  V30 3085 C 299.015 1.6189 -0.371611 0
M  V30 3086 O 300.2 1.81668 -0.58321 0
M  V30 3087 C 297.34 3.11545 -1.48438 0
M  V30 3088 C 296.453 3.33827 -2.74196 0
M  V30 3089 C 295.588 4.62133 -2.61929 0
M  V30 3090 C 294.627 4.77627 -3.82804 0
M  V30 3091 N 293.764 5.97219 -3.69153 0
M  V30 3092 H 298.604 1.66082 -2.47428 0
M  V30 3093 H 296.141 0.810026 -1.22788 0
M  V30 3094 H 298.099 3.91528 -1.4409 0
M  V30 3095 H 296.729 3.1772 -0.570402 0
M  V30 3096 H 295.781 2.47715 -2.88689 0
M  V30 3097 H 297.093 3.41153 -3.6389 0
M  V30 3098 H 296.247 5.50291 -2.5547 0
M  V30 3099 H 294.986 4.57182 -1.69811 0
M  V30 3100 H 293.991 3.87896 -3.89637 0
M  V30 3101 H 295.216 4.84385 -4.75971 0
M  V30 3102 H 293.162 5.93339 -2.79794 0
M  V30 3103 H 293.079 6.05644 -4.52472 0
M  V30 3104 H 294.347 6.87912 -3.66603 0
M  V30 3105 N 298.576 1.31904 0.862503 0
M  V30 3106 C 299.853 1.12644 1.59908 0
M  V30 3107 C 300.233 -0.316104 2.0872 0
M  V30 3108 O 299.581 -1.31145 1.87118 0
M  V30 3109 C 299.791 2.1472 2.7513 0
M  V30 3110 C 301.139 2.47637 3.44907 0
M  V30 3111 O 302.163 2.13205 2.85346 0
M  V30 3112 O 301.022 3.06632 4.52371 0
M  V30 3113 H 298.116 0.43416 0.703871 0
M  V30 3114 H 300.662 1.43408 0.907314 0
M  V30 3115 H 299.434 3.1172 2.3653 0
M  V30 3116 H 299.057 1.84905 3.51989 0
M  V30 3117 N 300.054 -1.07777 1.14986 0
M  V30 3118 C 300.984 -2.16865 0.865557 0
M  V30 3119 C 301.965 -1.69123 -0.182083 0
M  V30 3120 O 303.15 -1.94164 -0.0373815 0
M  V30 3121 C 300.28 -3.45539 0.349313 0
M  V30 3122 C 299.234 -4.06708 1.33313 0
M  V30 3123 C 298.56 -5.30411 0.675918 0
M  V30 3124 C 299.86 -4.47241 2.69764 0
M  V30 3125 H 301.554 -2.40905 1.77778 0
M  V30 3126 H 299.1 -1.15781 0.856203 0
M  V30 3127 H 301.053 -4.21174 0.137983 0
M  V30 3128 H 299.777 -3.21072 -0.598362 0
M  V30 3129 H 298.436 -3.33112 1.53075 0
M  V30 3130 H 298.084 -5.02232 -0.277767 0
M  V30 3131 H 297.784 -5.72293 1.33244 0
M  V30 3132 H 299.308 -6.08755 0.474262 0
M  V30 3133 H 300.722 -5.14025 2.53873 0
M  V30 3134 H 299.119 -5.00062 3.3175 0
M  V30 3135 H 300.189 -3.58818 3.26156 0
M  V30 3136 N 301.532 -0.945985 -1.26051 0
M  V30 3137 C 302.462 -0.477172 -2.28572 0
M  V30 3138 C 303.443 0.472032 -1.63419 0
M  V30 3139 O 304.628 0.372853 -1.90587 0
M  V30 3140 C 301.758 0.253975 -3.4637 0
M  V30 3141 C 300.712 -0.609135 -4.23643 0
M  V30 3142 C 300.038 0.252252 -5.34105 0
M  V30 3143 C 301.338 -1.8829 -4.8718 0
M  V30 3144 H 303.032 -1.33402 -2.68038 0
M  V30 3145 H 300.578 -0.642904 -1.28852 0
M  V30 3146 H 302.531 0.593016 -4.17207 0
M  V30 3147 H 301.255 1.145 -3.05871 0
M  V30 3148 H 299.914 -0.931138 -3.54578 0
M  V30 3149 H 299.562 1.14278 -4.89846 0
M  V30 3150 H 299.262 -0.32188 -5.86718 0
M  V30 3151 H 300.786 0.586454 -6.07777 0
M  V30 3152 H 302.2 -1.61081 -5.50205 0
M  V30 3153 H 300.597 -2.40199 -5.49931 0
M  V30 3154 H 301.667 -2.59134 -4.09851 0
M  V30 3155 N 303.011 1.40521 -0.713556 0
M  V30 3156 C 303.974 2.29098 -0.0684347 0
M  V30 3157 C 304.974 1.45268 0.689472 0
M  V30 3158 O 306.164 1.66205 0.521677 0
M  V30 3159 C 303.296 3.28446 0.913024 0
M  V30 3160 H 304.489 2.87645 -0.84855 0
M  V30 3161 H 302.042 1.48809 -0.47809 0
M  V30 3162 H 302.777 2.74913 1.72027 0
M  V30 3163 H 302.562 3.90327 0.372472 0
M  V30 3164 H 304.052 3.94777 1.36165 0
M  V30 3165 N 304.489 0.459591 1.5075 0
M  V30 3166 C 305.905 0.113092 1.59199 0
M  V30 3167 C 306.105 -1.37951 1.46874 0
M  V30 3168 O 305.161 -2.15168 1.32132 0
M  V30 3169 C 306.474 0.653043 2.93523 0
M  V30 3170 C 308.022 0.615449 3.0689 0
M  V30 3171 C 308.497 1.13275 4.43771 0
M  V30 3172 N 309.988 1.09167 4.50152 0
M  V30 3173 C 310.723 1.46256 5.54434 0
M  V30 3174 N 310.219 1.90739 6.66026 0
M  V30 3175 N 312.012 1.37932 5.44914 0
M  V30 3176 H 304.163 1.43049 1.57005 0
M  V30 3177 H 306.426 0.590861 0.741341 0
M  V30 3178 H 306.132 1.69822 3.07983 0
M  V30 3179 H 306.006 0.0902132 3.77092 0
M  V30 3180 H 308.393 -0.420793 2.92084 0
M  V30 3181 H 308.474 1.21495 2.25106 0
M  V30 3182 H 308.118 2.16757 4.59324 0
M  V30 3183 H 308.048 0.509576 5.24129 0
M  V30 3184 H 310.539 0.76528 3.7007 0
M  V30 3185 H 310.852 2.17218 7.41644 0
M  V30 3186 H 309.197 1.94683 6.67176 0
M  V30 3187 H 312.388 1.0303 4.56621 0
M  V30 3188 H 312.561 1.67164 6.26067 0
M  V30 3189 N 305.967 -1.56429 0.191757 0
M  V30 3190 C 306.93 -2.17707 -0.716688 0
M  V30 3191 C 307.93 -1.13061 -1.14341 0
M  V30 3192 O 309.12 -1.38464 -1.05704 0
M  V30 3193 C 306.252 -2.77644 -1.97804 0
M  V30 3194 H 307.445 -2.99342 -0.1829 0
M  V30 3195 H 304.998 -1.56193 -0.0578566 0
M  V30 3196 H 305.733 -1.99799 -2.55443 0
M  V30 3197 H 305.518 -3.54246 -1.68083 0
M  V30 3198 H 307.008 -3.24708 -2.62592 0
M  V30 3199 N 307.445 0.0818655 -1.57387 0
M  V30 3200 C 308.693 0.781368 -1.86384 0
M  V30 3201 C 309.014 1.78618 -0.782342 0
M  V30 3202 O 308.284 1.94976 0.190061 0
M  V30 3203 H 306.864 0.291562 -0.687751 0
M  V30 3204 H 309.526 0.060348 -1.94807 0
M  V30 3205 H 308.622 1.3038 -2.83562 0
M  V30 3206 N 308.923 1.53595 0.353017 0
M  V30 3207 C 309.87 1.80919 1.43308 0
M  V30 3208 C 310.84 0.654288 1.5267 0
M  V30 3209 O 312.025 0.897759 1.6836 0
M  V30 3210 C 309.165 2.01605 2.80089 0
M  V30 3211 C 308.278 3.29321 2.79593 0
M  V30 3212 C 307.413 3.40125 4.0803 0
M  V30 3213 C 306.452 4.61826 4.01725 0
M  V30 3214 N 305.589 4.69716 5.21834 0
M  V30 3215 H 310.429 2.73074 1.19308 0
M  V30 3216 H 307.966 1.35263 0.578131 0
M  V30 3217 H 309.924 2.11586 3.59565 0
M  V30 3218 H 308.554 1.12772 3.0246 0
M  V30 3219 H 307.606 3.28229 1.92276 0
M  V30 3220 H 308.918 4.18884 2.70809 0
M  V30 3221 H 308.072 3.49488 4.95927 0
M  V30 3222 H 306.811 2.48601 4.19582 0
M  V30 3223 H 305.816 4.52552 3.12213 0
M  V30 3224 H 307.041 5.54705 3.91764 0
M  V30 3225 H 304.987 3.81097 5.33948 0
M  V30 3226 H 304.904 5.53202 5.1527 0
M  V30 3227 H 306.172 4.83376 6.11529 0
M  V30 3228 N 310.401 -0.613514 1.45168 0
M  V30 3229 C 311.364 -1.7065 1.53007 0
M  V30 3230 C 312.364 -1.5548 0.410184 0
M  V30 3231 O 313.554 -1.60656 0.673455 0
M  V30 3232 C 310.686 -3.09875 1.42093 0
M  V30 3233 H 311.879 -1.65068 2.50385 0
M  V30 3234 H 309.432 -0.828728 1.32521 0
M  V30 3235 H 310.167 -3.21039 0.458769 0
M  V30 3236 H 309.952 -3.22293 2.23315 0
M  V30 3237 H 311.442 -3.895 1.50598 0
M  V30 3238 N 311.879 -1.3236 -0.855495 0
M  V30 3239 C 313.104 -1.2601 -1.64731 0
M  V30 3240 C 313.529 0.169068 -1.87339 0
M  V30 3241 O 312.887 1.12016 -1.42556 0
M  V30 3242 C 312.935 -2.02417 -2.98429 0
M  V30 3243 O 312.039 -1.3714 -3.8893 0
M  V30 3244 H 311.38 -0.434325 -0.502253 0
M  V30 3245 H 313.91 -1.74661 -1.06558 0
M  V30 3246 H 313.92 -2.12559 -3.48257 0
M  V30 3247 H 312.595 -3.06343 -2.81295 0
M  V30 3248 H 311.172 -1.3554 -3.47395 0
M  V30 3249 N 313.357 1.07166 -1.15556 0
M  V30 3250 C 314.597 1.81391 -0.94216 0
M  V30 3251 C 314.961 1.84788 0.521272 0
M  V30 3252 O 316.162 2.54904 0.85307 0
M  V30 3253 C 314.433 3.22431 -1.54185 0
M  V30 3254 S 315.992 4.13379 -1.47183 0
M  V30 3255 H 312.81 0.624963 -0.339031 0
M  V30 3256 H 315.412 1.28725 -1.4714 0
M  V30 3257 H 314.116 3.17548 -2.59984 0
M  V30 3258 H 313.647 3.80172 -1.01156 0
M  V30 3259 H 315.662 4.94007 -0.466004 0
M  V30 3260 N 314.835 0.952656 1.25548 0
M  V30 3261 C 316.063 0.623496 1.97282 0
M  V30 3262 C 316.478 -0.803987 1.70826 0
M  V30 3263 O 315.835 -1.53755 0.983147 0
M  V30 3264 C 315.886 0.870209 3.5087 0
M  V30 3265 O 315.607 2.24156 3.76412 0
M  V30 3266 C 317.108 0.553164 4.39835 0
M  V30 3267 H 314.328 0.233931 0.628902 0
M  V30 3268 H 316.872 1.27649 1.59768 0
M  V30 3269 H 315.027 0.263652 3.86502 0
M  V30 3270 H 315.441 2.31021 4.70882 0
M  V30 3271 H 316.915 0.776342 5.46513 0
M  V30 3272 H 317.392 -0.512215 4.36203 0
M  V30 3273 H 317.998 1.13896 4.09766 0
M  V30 3274 N 316.313 -1.40141 0.720998 0
M  V30 3275 C 317.243 -2.33339 0.0867621 0
M  V30 3276 C 318.224 -1.53178 -0.739622 0
M  V30 3277 O 319.409 -1.81625 -0.687449 0
M  V30 3278 C 316.539 -3.37194 -0.831728 0
M  V30 3279 C 315.493 -4.27857 -0.110558 0
M  V30 3280 C 314.819 -5.22294 -1.14513 0
M  V30 3281 C 316.119 -5.11872 1.0385 0
M  V30 3282 H 317.813 -2.86626 0.865219 0
M  V30 3283 H 315.359 -1.37814 0.417516 0
M  V30 3284 H 317.312 -4.01335 -1.28485 0
M  V30 3285 H 316.036 -2.82314 -1.64214 0
M  V30 3286 H 314.695 -3.65176 0.322797 0
M  V30 3287 H 314.343 -4.63717 -1.94874 0
M  V30 3288 H 314.043 -5.83797 -0.667446 0
M  V30 3289 H 315.567 -5.89312 -1.59824 0
M  V30 3290 H 316.981 -5.69436 0.664482 0
M  V30 3291 H 315.378 -5.82445 1.4449 0
M  V30 3292 H 316.448 -4.4753 1.86668 0
M  V30 3293 N 317.792 -0.46758 -1.50504 0
M  V30 3294 C 319.017 0.0886943 -2.0721 0
M  V30 3295 C 319.442 1.33057 -1.32956 0
M  V30 3296 O 318.8 1.77354 -0.376197 0
M  V30 3297 C 318.848 0.359202 -3.58806 0
M  V30 3298 O 317.952 1.44034 -3.8643 0
M  V30 3299 H 317.293 -0.0114349 -0.663902 0
M  V30 3300 H 319.823 -0.657613 -1.93744 0
M  V30 3301 H 319.833 0.600742 -4.03553 0
M  V30 3302 H 318.508 -0.548311 -4.1227 0
M  V30 3303 H 317.085 1.18638 -3.53524 0
M  V30 3304 N 319.27 1.56325 -0.20005 0
M  V30 3305 C 320.18 2.22931 0.730668 0
M  V30 3306 C 321.196 1.22997 1.23076 0
M  V30 3307 O 322.372 1.55748 1.27689 0
M  V30 3308 C 319.437 2.87948 1.93098 0
M  V30 3309 C 318.498 4.03166 1.47497 0
M  V30 3310 C 317.731 4.65073 2.61807 0
M  V30 3311 O 317.954 4.25913 3.79413 0
M  V30 3312 O 316.888 5.54452 2.34237 0
M  V30 3313 H 320.714 3.03084 0.193391 0
M  V30 3314 H 318.299 1.49371 0.0294621 0
M  V30 3315 H 320.181 3.29063 2.6324 0
M  V30 3316 H 318.856 2.10771 2.45677 0
M  V30 3317 H 317.763 3.66664 0.742201 0
M  V30 3318 H 319.096 4.82022 0.995796 0
M  V30 3319 N 320.748 -0.0735177 1.57428 0
M  V30 3320 C 321.68 -1.11423 2.00294 0
M  V30 3321 C 322.693 -1.35084 0.908637 0
M  V30 3322 O 323.882 -1.33355 1.18654 0
M  V30 3323 C 320.982 -2.46548 2.32523 0
M  V30 3324 C 320.155 -2.42867 3.63778 0
M  V30 3325 C 319.214 -3.60087 3.83697 0
M  V30 3326 O 318.24 -3.41595 4.55304 0
M  V30 3327 N 319.442 -4.80372 3.25919 0
M  V30 3328 H 322.207 -0.749206 2.90184 0
M  V30 3329 H 319.768 -0.262195 1.59763 0
M  V30 3330 H 321.76 -3.23607 2.43024 0
M  V30 3331 H 320.33 -2.75059 1.48531 0
M  V30 3332 H 319.55 -1.51206 3.64047 0
M  V30 3333 H 320.838 -2.37506 4.49965 0
M  V30 3334 H 320.236 -4.983 2.67795 0
M  V30 3335 H 318.793 -5.54948 3.41871 0
M  V30 3336 N 322.226 -1.5378 -0.344866 0
M  V30 3337 C 323.156 -1.84662 -1.42906 0
M  V30 3338 C 324.137 -0.701648 -1.54955 0
M  V30 3339 O 325.322 -0.953438 -1.69184 0
M  V30 3340 C 322.452 -2.05503 -2.79974 0
M  V30 3341 C 321.406 -3.21318 -2.82734 0
M  V30 3342 C 320.732 -3.2749 -4.22675 0
M  V30 3343 C 322.032 -4.59456 -2.48389 0
M  V30 3344 H 323.726 -2.75461 -1.17311 0
M  V30 3345 H 321.272 -1.32542 -0.562896 0
M  V30 3346 H 323.225 -2.25691 -3.55867 0
M  V30 3347 H 321.949 -1.11434 -3.07002 0
M  V30 3348 H 320.608 -3.00984 -2.09294 0
M  V30 3349 H 320.256 -2.31019 -4.4681 0
M  V30 3350 H 319.956 -4.05316 -4.25433 0
M  V30 3351 H 321.48 -3.49887 -5.00412 0
M  V30 3352 H 322.894 -4.79667 -3.13995 0
M  V30 3353 H 321.291 -5.39675 -2.62432 0
M  V30 3354 H 322.361 -4.63155 -1.4358 0
M  V30 3355 N 323.704 0.605807 -1.45491 0
M  V30 3356 C 324.981 1.36522 -1.40075 0
M  V30 3357 C 325.361 2.10976 -0.0722744 0
M  V30 3358 O 324.709 2.08007 0.945808 0
M  V30 3359 C 324.919 2.31056 -2.61561 0
M  V30 3360 C 326.267 2.93608 -3.06724 0
M  V30 3361 O 327.291 2.41376 -2.61946 0
M  V30 3362 O 326.15 3.88421 -3.84437 0
M  V30 3363 H 323.244 0.612248 -0.555951 0
M  V30 3364 H 325.79 0.628747 -1.57623 0
M  V30 3365 H 324.562 1.75311 -3.49831 0
M  V30 3366 H 324.185 3.12081 -2.46356 0
M  V30 3367 N 325.182 1.32811 0.848464 0
M  V30 3368 C 326.429 1.23724 1.60308 0
M  V30 3369 C 326.757 -0.1994 1.93475 0
M  V30 3370 O 326.012 -1.15406 1.5805 0
M  V30 3371 C 326.311 2.04831 2.92881 0
M  V30 3372 C 325.977 3.54125 2.79117 0
M  V30 3373 C 324.639 3.94829 2.7507 0
M  V30 3374 C 326.991 4.49036 2.64606 0
M  V30 3375 C 324.319 5.28675 2.544 0
M  V30 3376 C 326.671 5.83033 2.4547 0
M  V30 3377 C 325.335 6.22931 2.39819 0
M  V30 3378 H 324.605 0.452737 0.586609 0
M  V30 3379 H 327.252 1.64301 0.983743 0
M  V30 3380 H 325.557 1.57001 3.58968 0
M  V30 3381 H 327.254 1.95164 3.50303 0
M  V30 3382 H 323.844 3.21801 2.83094 0
M  V30 3383 H 328.028 4.18505 2.66772 0
M  V30 3384 H 323.284 5.58637 2.48465 0
M  V30 3385 H 327.458 6.56186 2.33222 0
M  V30 3386 H 325.085 7.26584 2.23562 0
M  V30 3387 N 326.66 -1.06551 1.16123 0
M  V30 3388 C 327.909 -1.78687 0.935622 0
M  V30 3389 C 328.222 -1.88056 -0.538001 0
M  V30 3390 O 329.428 -2.56794 -0.88143 0
M  V30 3391 C 327.884 -3.21143 1.62466 0
M  V30 3392 C 327.492 -3.19949 3.13587 0
M  V30 3393 C 329.236 -3.9783 1.48092 0
M  V30 3394 C 327.143 -4.57108 3.75241 0
M  V30 3395 H 326.073 -0.669712 0.346412 0
M  V30 3396 H 328.724 -1.19534 1.39226 0
M  V30 3397 H 327.106 -3.80539 1.09572 0
M  V30 3398 H 328.28 -2.70151 3.73303 0
M  V30 3399 H 326.595 -2.5676 3.27816 0
M  V30 3400 H 329.192 -4.99217 1.91538 0
M  V30 3401 H 329.535 -4.14078 0.429507 0
M  V30 3402 H 330.068 -3.4495 1.98127 0
M  V30 3403 H 326.807 -4.46065 4.80319 0
M  V30 3404 H 326.327 -5.07111 3.20309 0
M  V30 3405 H 328.006 -5.26069 3.76644 0
M  V30 3406 N 328.138 -0.959301 -1.25041 0
M  V30 3407 C 329.415 -0.533805 -1.88175 0
M  V30 3408 C 329.795 0.988994 -1.865 0
M  V30 3409 O 329.143 1.85677 -1.33177 0
M  V30 3410 C 329.353 -1.11575 -3.30684 0
M  V30 3411 C 330.701 -1.19548 -4.07423 0
M  V30 3412 O 331.725 -1.06765 -3.39823 0
M  V30 3413 O 330.584 -1.39656 -5.28354 0
M  V30 3414 H 327.678 -0.176772 -0.807887 0
M  V30 3415 H 330.224 -1.05303 -1.33076 0
M  V30 3416 H 328.996 -2.15884 -3.26358 0
M  V30 3417 H 328.619 -0.580059 -3.93346 0
M  V30 3418 N 329.616 1.39756 -0.72842 0
M  V30 3419 C 330.844 2.04948 -0.283528 0
M  V30 3420 C 331.259 1.54908 1.0793 0
M  V30 3421 O 330.616 0.711135 1.68075 0
M  V30 3422 C 330.667 3.60498 -0.268957 0
M  V30 3423 O 330.388 4.08695 -1.57798 0
M  V30 3424 C 331.889 4.4288 0.192912 0
M  V30 3425 H 329.109 0.659243 -0.125056 0
M  V30 3426 H 331.653 1.78927 -0.990226 0
M  V30 3427 H 329.808 3.85444 0.388801 0
M  V30 3428 H 330.222 5.02977 -1.48709 0
M  V30 3429 H 331.696 5.51791 0.151952 0
M  V30 3430 H 332.173 4.21418 1.23708 0
M  V30 3431 H 332.779 4.23069 -0.435039 0
M  V30 3432 N 331.094 0.475555 1.50254 0
M  V30 3433 C 332.041 -0.316293 2.28622 0
M  V30 3434 C 333.011 -0.983227 1.33873 0
M  V30 3435 O 334.196 -0.994805 1.62814 0
M  V30 3436 C 331.336 -1.38975 3.1588 0
M  V30 3437 C 330.449 -0.737146 4.25664 0
M  V30 3438 C 329.584 -1.78887 5.00173 0
M  V30 3439 C 328.623 -1.11676 6.01826 0
M  V30 3440 N 327.76 -2.11154 6.69596 0
M  V30 3441 H 332.6 0.358297 2.95838 0
M  V30 3442 H 330.137 0.188541 1.45887 0
M  V30 3443 H 332.095 -2.02383 3.64825 0
M  V30 3444 H 330.725 -2.03344 2.50701 0
M  V30 3445 H 329.777 0.0096065 3.80399 0
M  V30 3446 H 331.089 -0.206816 4.98371 0
M  V30 3447 H 330.243 -2.49865 5.52859 0
M  V30 3448 H 328.982 -2.35302 4.27182 0
M  V30 3449 H 327.987 -0.392633 5.48396 0
M  V30 3450 H 329.212 -0.55945 6.76792 0
M  V30 3451 H 327.158 -2.66577 5.99394 0
M  V30 3452 H 327.075 -1.63118 7.38193 0
M  V30 3453 H 328.343 -2.81497 7.26897 0
M  V30 3454 N 332.573 -1.56217 0.208337 0
M  V30 3455 C 333.989 -1.58919 -0.14729 0
M  V30 3456 C 334.189 -1.22486 -1.59998 0
M  V30 3457 O 333.245 -0.953849 -2.3379 0
M  V30 3458 C 334.558 -3.00236 0.167048 0
M  V30 3459 C 336.106 -3.12813 0.108219 0
M  V30 3460 C 336.581 -4.56284 0.396049 0
M  V30 3461 N 338.072 -4.61912 0.345142 0
M  V30 3462 C 338.807 -5.70837 0.541523 0
M  V30 3463 N 338.303 -6.88178 0.798968 0
M  V30 3464 N 340.096 -5.60091 0.474867 0
M  V30 3465 H 332.247 -1.78177 1.15614 0
M  V30 3466 H 334.51 -0.827555 0.462446 0
M  V30 3467 H 334.216 -3.31499 1.1748 0
M  V30 3468 H 334.09 -3.7354 -0.524184 0
M  V30 3469 H 336.477 -2.81354 -0.890157 0
M  V30 3470 H 336.558 -2.41866 0.832729 0
M  V30 3471 H 336.202 -4.88458 1.3918 0
M  V30 3472 H 336.132 -5.25439 -0.349502 0
M  V30 3473 H 338.623 -3.77589 0.153316 0
M  V30 3474 H 338.936 -7.67095 0.93727 0
M  V30 3475 H 337.281 -6.89953 0.836013 0
M  V30 3476 H 340.472 -4.67297 0.274064 0
M  V30 3477 H 340.645 -6.44917 0.631326 0
M  V30 3478 N 334.051 0.0651679 -1.57465 0
M  V30 3479 C 335.299 0.761555 -1.87202 0
M  V30 3480 C 335.62 1.77778 -0.801243 0
M  V30 3481 O 334.89 1.95166 0.16937 0
M  V30 3482 H 333.47 0.284251 -0.690804 0
M  V30 3483 H 336.132 0.0396827 -1.9486 0
M  V30 3484 H 335.228 1.27365 -2.84929 0
M  V30 3485 N 335.529 1.53961 0.336706 0
M  V30 3486 C 336.775 1.7179 1.07777 0
M  V30 3487 C 337.108 0.483263 1.88091 0
M  V30 3488 O 336.383 -0.519747 1.87427 0
M  V30 3489 C 336.666 2.98558 2.01334 0
M  V30 3490 C 336.519 4.32245 1.24437 0
M  V30 3491 C 337.838 3.21023 3.01052 0
M  V30 3492 H 334.957 0.625089 0.390426 0
M  V30 3493 H 337.599 1.86641 0.35567 0
M  V30 3494 H 335.749 2.86028 2.62908 0
M  V30 3495 H 337.421 4.56637 0.654243 0
M  V30 3496 H 335.664 4.30344 0.546458 0
M  V30 3497 H 336.335 5.17137 1.93063 0
M  V30 3498 H 338.811 3.32929 2.49595 0
M  V30 3499 H 337.687 4.11104 3.6371 0
M  V30 3500 H 337.948 2.37637 3.72802 0
M  V30 3501 N 337.007 -0.598083 1.45811 0
M  V30 3502 C 338.237 -1.38121 1.53643 0
M  V30 3503 C 338.645 -1.88425 0.171081 0
M  V30 3504 O 337.988 -1.63409 -0.839237 0
M  V30 3505 C 338.05 -2.61432 2.46766 0
M  V30 3506 C 337.714 -2.32702 3.93318 0
M  V30 3507 C 338.711 -1.92479 4.82957 0
M  V30 3508 C 336.396 -2.45321 4.38318 0
M  V30 3509 C 338.39 -1.65248 6.15607 0
M  V30 3510 C 336.077 -2.17703 5.71007 0
M  V30 3511 C 337.075 -1.7773 6.5947 0
M  V30 3512 O 336.763 -1.50441 7.89698 0
M  V30 3513 H 336.495 -0.428863 0.522544 0
M  V30 3514 H 339.049 -0.73557 1.91777 0
M  V30 3515 H 337.279 -3.28749 2.0362 0
M  V30 3516 H 338.968 -3.23487 2.45175 0
M  V30 3517 H 339.734 -1.82258 4.49452 0
M  V30 3518 H 335.613 -2.75399 3.69697 0
M  V30 3519 H 339.157 -1.33973 6.84614 0
M  V30 3520 H 335.054 -2.27544 6.04065 0
M  V30 3521 H 335.822 -1.64415 8.01817 0
M  V30 3522 N 338.485 -1.33259 -0.841409 0
M  V30 3523 C 339.725 -1.25902 -1.61022 0
M  V30 3524 C 340.089 0.173325 -1.91216 0
M  V30 3525 O 341.29 0.370824 -2.6623 0
M  V30 3526 C 339.561 -2.10735 -2.88662 0
M  V30 3527 S 341.12 -2.20541 -3.79351 0
M  V30 3528 H 337.938 -0.447958 -0.552137 0
M  V30 3529 H 340.54 -1.68263 -0.995382 0
M  V30 3530 H 339.244 -3.1384 -2.64448 0
M  V30 3531 H 338.775 -1.69201 -3.55154 0
M  V30 3532 H 340.79 -1.36462 -4.77067 0
M  V30 3533 N 339.963 1.05934 -1.16686 0
M  V30 3534 C 341.203 1.80382 -0.961345 0
M  V30 3535 C 341.567 1.85331 0.501643 0
M  V30 3536 O 342.768 2.55795 0.825986 0
M  V30 3537 C 341.039 3.20777 -1.57596 0
M  V30 3538 S 342.598 4.11795 -1.51559 0
M  V30 3539 H 339.416 0.621332 -0.345641 0
M  V30 3540 H 342.018 1.27157 -1.48497 0
M  V30 3541 H 340.722 3.14773 -2.63337 0
M  V30 3542 H 340.253 3.79078 -1.05182 0
M  V30 3543 H 342.268 4.93485 -0.518374 0
M  V30 3544 N 341.441 0.965919 1.2453 0
M  V30 3545 C 342.857 0.67216 1.44756 0
M  V30 3546 C 343.057 -0.766609 1.86347 0
M  V30 3547 O 342.113 -1.5407 2.00047 0
M  V30 3548 C 343.426 1.65473 2.51076 0
M  V30 3549 C 344.974 1.66716 2.64905 0
M  V30 3550 C 345.449 2.63766 3.74421 0
M  V30 3551 N 346.94 2.62198 3.81846 0
M  V30 3552 C 347.675 3.33966 4.66106 0
M  V30 3553 N 347.171 4.15245 5.54566 0
M  V30 3554 N 348.964 3.22799 4.60171 0
M  V30 3555 H 341.115 1.89553 0.958293 0
M  V30 3556 H 343.378 0.815979 0.482579 0
M  V30 3557 H 343.084 2.68296 2.27399 0
M  V30 3558 H 342.958 1.4261 3.49202 0
M  V30 3559 H 345.345 0.646057 2.87941 0
M  V30 3560 H 345.426 1.93642 1.67142 0
M  V30 3561 H 345.07 3.6601 3.52135 0
M  V30 3562 H 345 2.34121 4.71694 0
M  V30 3563 H 347.491 2.032 3.18619 0
M  V30 3564 H 347.804 4.66898 6.15814 0
M  V30 3565 H 346.149 4.1934 5.54237 0
M  V30 3566 H 349.34 2.58764 3.90075 0
M  V30 3567 H 349.513 3.78994 5.25612 0
M  V30 3568 N 342.919 -1.39368 0.735821 0
M  V30 3569 C 343.829 -2.34395 0.0979693 0
M  V30 3570 C 344.845 -1.58361 -0.720968 0
M  V30 3571 O 346.021 -1.90648 -0.649245 0
M  V30 3572 C 343.086 -3.37393 -0.797916 0
M  V30 3573 C 342.147 -4.29287 0.0333662 0
M  V30 3574 C 341.38 -5.27365 -0.819854 0
M  V30 3575 O 341.603 -5.31959 -2.05855 0
M  V30 3576 O 340.537 -6.01389 -0.248079 0
M  V30 3577 H 344.363 -2.90601 0.882315 0
M  V30 3578 H 341.948 -1.40909 0.4965 0
M  V30 3579 H 343.83 -4.00505 -1.31048 0
M  V30 3580 H 342.505 -2.83571 -1.56106 0
M  V30 3581 H 341.412 -3.69395 0.591475 0
M  V30 3582 H 342.745 -4.86317 0.758752 0
M  V30 3583 N 344.397 -0.483516 -1.5 0
M  V30 3584 C 345.347 0.32306 -2.257 0
M  V30 3585 C 346.331 0.950755 -1.29805 0
M  V30 3586 O 347.523 0.861247 -1.54634 0
M  V30 3587 C 344.652 1.39724 -3.13579 0
M  V30 3588 C 343.738 0.776663 -4.16928 0
M  V30 3589 N 344.129 -0.1104 -5.0568 0
M  V30 3590 C 342.427 1.03922 -4.33724 0
M  V30 3591 C 343.128 -0.46387 -5.79848 0
M  V30 3592 N 342.104 0.163987 -5.43353 0
M  V30 3593 H 345.906 -0.360086 -2.91686 0
M  V30 3594 H 343.42 -0.298456 -1.59634 0
M  V30 3595 H 345.417 1.98837 -3.66428 0
M  V30 3596 H 344.077 2.08225 -2.49143 0
M  V30 3597 H 345.088 -0.480069 -5.1567 0
M  V30 3598 H 341.765 1.71829 -3.80501 0
M  V30 3599 H 343.155 -1.18854 -6.61304 0
M  V30 3600 N 345.875 1.56104 -0.216619 0
M  V30 3601 C 346.785 2.23694 0.706982 0
M  V30 3602 C 347.801 1.24295 1.21765 0
M  V30 3603 O 348.977 1.57094 1.2603 0
M  V30 3604 C 346.042 2.8998 1.90033 0
M  V30 3605 C 345.103 4.04708 1.43213 0
M  V30 3606 C 344.336 4.67824 2.56859 0
M  V30 3607 O 344.559 4.29913 3.74874 0
M  V30 3608 O 343.493 5.56905 2.28343 0
M  V30 3609 H 347.319 3.03272 0.161235 0
M  V30 3610 H 344.904 1.49394 0.0136177 0
M  V30 3611 H 346.786 3.31837 2.59735 0
M  V30 3612 H 345.461 2.13365 2.43428 0
M  V30 3613 H 344.368 3.6743 0.70327 0
M  V30 3614 H 345.701 4.83051 0.944615 0
M  V30 3615 N 347.353 -0.0568162 1.57498 0
M  V30 3616 C 348.303 -1.07315 2.01166 0
M  V30 3617 C 349.287 -1.33632 0.896171 0
M  V30 3618 O 350.479 -1.33682 1.16009 0
M  V30 3619 C 347.608 -2.38257 2.47161 0
M  V30 3620 C 346.694 -2.1515 3.65474 0
M  V30 3621 N 347.085 -1.62014 4.7915 0
M  V30 3622 C 345.383 -2.45559 3.72313 0
M  V30 3623 C 346.084 -1.54069 5.60926 0
M  V30 3624 N 345.06 -2.00652 5.05213 0
M  V30 3625 H 348.862 -0.655878 2.86488 0
M  V30 3626 H 346.376 -0.263635 1.60246 0
M  V30 3627 H 348.373 -3.11845 2.76691 0
M  V30 3628 H 347.033 -2.80687 1.63232 0
M  V30 3629 H 348.044 -1.30667 5.01145 0
M  V30 3630 H 344.721 -2.91253 2.99129 0
M  V30 3631 H 346.111 -1.13712 6.62208 0
M  V30 3632 N 348.832 -1.54138 -0.328536 0
M  V30 3633 C 349.742 -1.86192 -1.42723 0
M  V30 3634 C 350.758 -0.753382 -1.56844 0
M  V30 3635 O 351.934 -1.04718 -1.72035 0
M  V30 3636 C 348.999 -2.07824 -2.77507 0
M  V30 3637 C 348.06 -3.31641 -2.72603 0
M  V30 3638 C 347.293 -3.52232 -4.00959 0
M  V30 3639 O 347.516 -2.7636 -4.9898 0
M  V30 3640 O 346.45 -4.45699 -4.0452 0
M  V30 3641 H 350.276 -2.79608 -1.18547 0
M  V30 3642 H 347.861 -1.3998 -0.522104 0
M  V30 3643 H 349.743 -2.23411 -3.57303 0
M  V30 3644 H 348.418 -1.17596 -3.01584 0
M  V30 3645 H 347.325 -3.21444 -1.91376 0
M  V30 3646 H 348.658 -4.2191 -2.53481 0
M  V30 3647 N 350.31 0.590341 -1.46126 0
M  V30 3648 C 351.559 1.34499 -1.50309 0
M  V30 3649 C 351.872 1.94977 -0.156021 0
M  V30 3650 O 353.078 2.71395 -0.0756037 0
M  V30 3651 C 351.534 2.43723 -2.64815 0
M  V30 3652 C 351.142 1.89582 -4.0591 0
M  V30 3653 C 352.886 3.20579 -2.78262 0
M  V30 3654 C 350.793 2.9639 -5.11769 0
M  V30 3655 H 349.723 0.505593 -0.559368 0
M  V30 3656 H 352.374 0.630848 -1.72315 0
M  V30 3657 H 350.756 3.17902 -2.36124 0
M  V30 3658 H 351.93 1.21997 -4.44357 0
M  V30 3659 H 350.245 1.25418 -3.97063 0
M  V30 3660 H 352.842 4.00276 -3.54519 0
M  V30 3661 H 353.185 3.72684 -1.85505 0
M  V30 3662 H 353.718 2.53505 -3.06562 0
M  V30 3663 H 350.457 2.49181 -6.06291 0
M  V30 3664 H 349.977 3.62487 -4.77873 0
M  V30 3665 H 351.656 3.60474 -5.37278 0
M  V30 3666 N 351.788 1.33704 0.83433 0
M  V30 3667 C 352.751 1.24244 1.92603 0
M  V30 3668 C 353.751 0.160383 1.59998 0
M  V30 3669 O 354.941 0.412228 1.69252 0
M  V30 3670 C 352.073 0.91555 3.28376 0
M  V30 3671 H 353.266 2.21287 2.02416 0
M  V30 3672 H 350.819 1.17827 1.02696 0
M  V30 3673 H 351.554 -0.0521886 3.24258 0
M  V30 3674 H 351.339 1.69811 3.53422 0
M  V30 3675 H 352.829 0.874231 4.08347 0
M  V30 3676 N 353.266 -1.05314 1.17247 0
M  V30 3677 C 354.512 -1.78699 0.971513 0
M  V30 3678 C 354.867 -1.85932 -0.494692 0
M  V30 3679 O 354.16 -1.34716 -1.36243 0
M  V30 3680 C 354.354 -3.2229 1.54479 0
M  V30 3681 C 354.183 -3.29052 3.06521 0
M  V30 3682 C 352.953 -3.3841 3.75242 0
M  V30 3683 C 355.151 -3.18095 4.04129 0
M  V30 3684 N 353.133 -3.34289 5.14902 0
M  V30 3685 C 354.504 -3.21331 5.30232 0
M  V30 3686 C 356.559 -3.02049 3.95817 0
M  V30 3687 C 355.262 -3.10169 6.4899 0
M  V30 3688 C 357.288 -2.92228 5.14156 0
M  V30 3689 C 356.65 -2.96096 6.39145 0
M  V30 3690 H 352.749 -0.66628 0.409383 0
M  V30 3691 H 355.333 -1.25553 1.4881 0
M  V30 3692 H 353.504 -3.7381 1.05455 0
M  V30 3693 H 355.236 -3.83905 1.28059 0
M  V30 3694 H 351.991 -3.43621 3.25917 0
M  V30 3695 H 352.415 -3.35702 5.87906 0
M  V30 3696 H 357.057 -2.97897 3.00029 0
M  V30 3697 H 354.775 -3.13076 7.44989 0
M  V30 3698 H 358.361 -2.80885 5.09505 0
M  V30 3699 H 357.241 -2.88568 7.29176 0
M  V30 3700 N 354.744 -0.972509 -1.24016 0
M  V30 3701 C 355.974 -0.653853 -1.9598 0
M  V30 3702 C 356.382 0.781801 -1.72292 0
M  V30 3703 O 355.725 1.53677 -1.00644 0
M  V30 3704 C 355.787 -0.854608 -3.49194 0
M  V30 3705 C 355.451 -2.27082 -3.96589 0
M  V30 3706 C 356.448 -3.24892 -4.05883 0
M  V30 3707 C 354.133 -2.5998 -4.29786 0
M  V30 3708 C 356.127 -4.53684 -4.47716 0
M  V30 3709 C 353.814 -3.88997 -4.71301 0
M  V30 3710 C 354.812 -4.85661 -4.80232 0
M  V30 3711 O 354.5 -6.12376 -5.20818 0
M  V30 3712 H 354.232 -0.242572 -0.630979 0
M  V30 3713 H 356.786 -1.30431 -1.58673 0
M  V30 3714 H 355.016 -0.146985 -3.86421 0
M  V30 3715 H 356.705 -0.534311 -4.02368 0
M  V30 3716 H 357.471 -3.00805 -3.80449 0
M  V30 3717 H 353.35 -1.85457 -4.22051 0
M  V30 3718 H 356.894 -5.29135 -4.54601 0
M  V30 3719 H 352.791 -4.12882 -4.96184 0
M  V30 3720 H 353.559 -6.16013 -5.38953 0
M  V30 3721 N 356.222 1.38976 -0.743202 0
M  V30 3722 C 357.45 2.04636 -0.30525 0
M  V30 3723 C 357.865 1.56044 1.06281 0
M  V30 3724 O 357.222 0.728921 1.67311 0
M  V30 3725 C 357.273 3.60193 -0.307177 0
M  V30 3726 O 356.994 4.06998 -1.62124 0
M  V30 3727 C 358.495 4.4306 0.145928 0
M  V30 3728 H 355.715 0.65788 -0.132041 0
M  V30 3729 H 358.259 1.77866 -1.00915 0
M  V30 3730 H 356.414 3.85835 0.347898 0
M  V30 3731 H 356.828 5.01371 -1.54036 0
M  V30 3732 H 358.302 5.51921 0.0934183 0
M  V30 3733 H 358.779 4.22706 1.19231 0
M  V30 3734 H 359.385 4.22584 -0.479886 0
M  V30 3735 N 357.7 0.491464 1.49741 0
M  V30 3736 C 358.61 -0.296835 2.32715 0
M  V30 3737 C 359.626 -0.976536 1.44013 0
M  V30 3738 O 360.802 -0.960023 1.77047 0
M  V30 3739 C 357.867 -1.35288 3.19215 0
M  V30 3740 C 356.928 -0.687632 4.23757 0
M  V30 3741 C 356.161 -1.69336 5.06123 0
M  V30 3742 O 356.384 -2.92219 4.89861 0
M  V30 3743 O 355.318 -1.25394 5.88693 0
M  V30 3744 H 359.144 0.382048 3.01287 0
M  V30 3745 H 356.729 0.252953 1.47243 0
M  V30 3746 H 358.611 -1.96411 3.72828 0
M  V30 3747 H 357.286 -2.01487 2.53347 0
M  V30 3748 H 356.193 -0.0369159 3.74082 0
M  V30 3749 H 357.526 -0.0682566 4.92153 0
M  V30 3750 N 359.178 -1.55987 0.224894 0
M  V30 3751 C 360.594 -1.59066 -0.130426 0
M  V30 3752 C 360.794 -1.24176 -1.5869 0
M  V30 3753 O 359.85 -0.978592 -2.32766 0
M  V30 3754 C 361.163 -3.00042 0.198883 0
M  V30 3755 C 362.711 -3.1268 0.141391 0
M  V30 3756 C 363.186 -4.55839 0.444422 0
M  V30 3757 N 364.677 -4.6152 0.394115 0
M  V30 3758 C 365.412 -5.70231 0.602038 0
M  V30 3759 N 364.908 -6.87291 0.871914 0
M  V30 3760 N 366.701 -5.59555 0.534245 0
M  V30 3761 H 358.852 -1.76941 1.17497 0
M  V30 3762 H 361.115 -0.822604 0.471197 0
M  V30 3763 H 360.821 -3.30234 1.2099 0
M  V30 3764 H 360.695 -3.74075 -0.484535 0
M  V30 3765 H 363.082 -2.82283 -0.860265 0
M  V30 3766 H 363.163 -2.40969 0.858335 0
M  V30 3767 H 362.807 -4.86954 1.44353 0
M  V30 3768 H 362.737 -5.2578 -0.293752 0
M  V30 3769 H 365.228 -3.77405 0.193356 0
M  V30 3770 H 365.541 -7.66058 1.01858 0
M  V30 3771 H 363.886 -6.89028 0.909145 0
M  V30 3772 H 367.077 -4.6698 0.323612 0
M  V30 3773 H 367.25 -6.44211 0.699693 0
M  V30 3774 N 360.656 0.0484629 -1.57525 0
M  V30 3775 C 361.881 0.759177 -1.93006 0
M  V30 3776 C 362.306 1.69125 -0.823317 0
M  V30 3777 O 361.664 1.79931 0.222364 0
M  V30 3778 C 361.712 1.50899 -3.27509 0
M  V30 3779 O 360.816 2.62112 -3.18388 0
M  V30 3780 H 360.157 0.205564 -0.631379 0
M  V30 3781 H 362.687 0.00972959 -2.04598 0
M  V30 3782 H 362.697 1.88317 -3.6194 0
M  V30 3783 H 361.372 0.825269 -4.0763 0
M  V30 3784 H 359.949 2.27379 -2.95556 0
M  V30 3785 N 362.134 1.5431 0.320358 0
M  V30 3786 C 363.044 1.86946 1.41734 0
M  V30 3787 C 364.06 0.761689 1.56443 0
M  V30 3788 O 365.236 1.05629 1.71477 0
M  V30 3789 C 362.301 2.09293 2.76401 0
M  V30 3790 C 361.362 3.33082 2.70841 0
M  V30 3791 C 360.595 3.54353 3.99086 0
M  V30 3792 O 360.818 2.79002 4.97508 0
M  V30 3793 O 359.752 4.47838 4.0215 0
M  V30 3794 H 363.578 2.80232 1.17062 0
M  V30 3795 H 361.163 1.40255 0.514673 0
M  V30 3796 H 363.045 2.25303 3.56113 0
M  V30 3797 H 361.72 1.19194 3.00956 0
M  V30 3798 H 360.627 3.22454 1.89668 0
M  V30 3799 H 361.96 4.23249 2.5124 0
M  V30 3800 N 363.613 -0.582584 1.46437 0
M  V30 3801 C 364.56 -1.69164 1.5701 0
M  V30 3802 C 365.53 -1.60847 0.414403 0
M  V30 3803 O 366.715 -1.80058 0.631171 0
M  V30 3804 C 363.855 -3.075 1.56646 0
M  V30 3805 C 362.968 -3.2644 2.82951 0
M  V30 3806 C 362.103 -4.55026 2.7409 0
M  V30 3807 C 361.142 -4.6731 3.95333 0
M  V30 3808 N 360.279 -5.87221 3.84858 0
M  V30 3809 H 365.119 -1.59464 2.51744 0
M  V30 3810 H 362.656 -0.777186 1.24893 0
M  V30 3811 H 364.614 -3.8757 1.5442 0
M  V30 3812 H 363.244 -3.16096 0.654439 0
M  V30 3813 H 362.296 -2.39974 2.95155 0
M  V30 3814 H 363.608 -3.31385 3.72808 0
M  V30 3815 H 362.762 -5.43324 2.6997 0
M  V30 3816 H 361.501 -4.52519 1.81873 0
M  V30 3817 H 360.506 -3.77429 3.99784 0
M  V30 3818 H 361.731 -4.71595 4.88646 0
M  V30 3819 H 359.677 -5.85712 2.95427 0
M  V30 3820 H 359.594 -5.93435 4.6837 0
M  V30 3821 H 360.862 -6.7795 3.84713 0
M  V30 3822 N 365.091 -1.34144 -0.827227 0
M  V30 3823 C 366.316 -1.29476 -1.62021 0
M  V30 3824 C 366.741 0.129292 -1.87655 0
M  V30 3825 O 366.099 1.08967 -1.449 0
M  V30 3826 C 366.147 -2.08702 -2.94068 0
M  V30 3827 O 365.251 -1.45359 -3.85933 0
M  V30 3828 H 364.592 -0.444881 -0.492927 0
M  V30 3829 H 367.122 -1.76882 -1.02829 0
M  V30 3830 H 367.132 -2.19898 -3.43669 0
M  V30 3831 H 365.807 -3.12241 -2.74734 0
M  V30 3832 H 364.384 -1.42879 -3.44442 0
M  V30 3833 N 366.569 1.04691 -1.17803 0
M  V30 3834 C 367.799 1.81183 -0.992788 0
M  V30 3835 C 368.207 1.8347 0.462098 0
M  V30 3836 O 367.55 1.2643 1.33271 0
M  V30 3837 C 367.612 3.28363 -1.46349 0
M  V30 3838 C 367.276 3.49749 -2.94151 0
M  V30 3839 C 368.273 3.41456 -3.92051 0
M  V30 3840 C 365.958 3.76548 -3.32441 0
M  V30 3841 C 367.952 3.59656 -5.26238 0
M  V30 3842 C 365.639 3.94396 -4.66792 0
M  V30 3843 C 366.637 3.8595 -5.635 0
M  V30 3844 O 366.325 4.03294 -6.9542 0
M  V30 3845 H 366.057 0.577622 -0.351182 0
M  V30 3846 H 368.611 1.32876 -1.5663 0
M  V30 3847 H 366.841 3.77609 -0.833574 0
M  V30 3848 H 368.53 3.86395 -1.24313 0
M  V30 3849 H 369.296 3.20723 -3.63815 0
M  V30 3850 H 365.175 3.82224 -2.57732 0
M  V30 3851 H 368.719 3.52979 -6.01707 0
M  V30 3852 H 364.616 4.14622 -4.94731 0
M  V30 3853 H 365.384 4.2049 -7.02232 0
M  V30 3854 N 368.047 0.979072 1.23499 0
M  V30 3855 C 368.957 0.526431 2.28617 0
M  V30 3856 C 369.973 -0.418126 1.68901 0
M  V30 3857 O 371.149 -0.288372 1.99325 0
M  V30 3858 C 368.214 -0.165235 3.46306 0
M  V30 3859 C 367.275 0.82056 4.21385 0
M  V30 3860 C 366.508 0.161807 5.33455 0
M  V30 3861 O 366.731 -1.04742 5.60701 0
M  V30 3862 O 365.665 0.859708 5.95729 0
M  V30 3863 H 369.491 1.4006 2.69475 0
M  V30 3864 H 367.076 0.746643 1.29405 0
M  V30 3865 H 368.958 -0.553287 4.17752 0
M  V30 3866 H 367.633 -1.01419 3.07402 0
M  V30 3867 H 366.54 1.25929 3.52268 0
M  V30 3868 H 367.873 1.63828 4.64135 0
M  V30 3869 N 369.525 -1.3858 0.750561 0
M  V30 3870 C 370.455 -2.33102 0.136237 0
M  V30 3871 C 371.436 -1.54713 -0.706965 0
M  V30 3872 O 372.621 -1.83043 -0.648769 0
M  V30 3873 C 369.751 -3.38882 -0.760017 0
M  V30 3874 C 368.705 -4.27995 -0.0197785 0
M  V30 3875 C 368.031 -5.24605 -1.03408 0
M  V30 3876 C 369.331 -5.09554 1.14684 0
M  V30 3877 H 371.025 -2.84726 0.925822 0
M  V30 3878 H 368.571 -1.36898 0.446654 0
M  V30 3879 H 370.524 -4.0397 -1.19943 0
M  V30 3880 H 369.248 -2.85734 -1.58189 0
M  V30 3881 H 367.907 -3.64409 0.400184 0
M  V30 3882 H 367.555 -4.67746 -1.84994 0
M  V30 3883 H 367.255 -5.85081 -0.543464 0
M  V30 3884 H 368.779 -5.9257 -1.47288 0
M  V30 3885 H 370.193 -5.67899 0.785118 0
M  V30 3886 H 368.59 -5.7925 1.56812 0
M  V30 3887 H 369.66 -4.4347 1.96118 0
M  V30 3888 N 371.003 -0.499398 -1.49478 0
M  V30 3889 C 371.935 0.316575 -2.27003 0
M  V30 3890 C 372.948 0.932047 -1.33479 0
M  V30 3891 O 374.137 0.815658 -1.58774 0
M  V30 3892 C 371.237 1.46055 -3.05812 0
M  V30 3893 C 370.41 0.952679 -4.26899 0
M  V30 3894 C 369.469 1.97407 -4.87767 0
M  V30 3895 O 368.495 1.54326 -5.4788 0
M  V30 3896 N 369.697 3.30436 -4.77276 0
M  V30 3897 H 372.462 -0.348168 -2.97671 0
M  V30 3898 H 370.023 -0.33185 -1.58463 0
M  V30 3899 H 372.015 2.14135 -3.43407 0
M  V30 3900 H 370.585 2.02948 -2.37762 0
M  V30 3901 H 369.805 0.0968248 -3.94081 0
M  V30 3902 H 371.093 0.59174 -5.05347 0
M  V30 3903 H 370.491 3.68126 -4.29534 0
M  V30 3904 H 369.048 3.94235 -5.19059 0
M  V30 3905 N 372.481 1.55866 -0.233164 0
M  V30 3906 C 373.709 2.02998 0.399905 0
M  V30 3907 C 374.124 1.11274 1.52524 0
M  V30 3908 O 373.481 0.124528 1.82075 0
M  V30 3909 C 373.532 3.4958 0.920639 0
M  V30 3910 O 373.253 4.37808 -0.159834 0
M  V30 3911 C 374.754 4.12411 1.62578 0
M  V30 3912 H 371.974 0.664006 0.0966281 0
M  V30 3913 H 374.518 2.0143 -0.353013 0
M  V30 3914 H 372.673 3.51727 1.62379 0
M  V30 3915 H 373.087 5.23981 0.23337 0
M  V30 3916 H 374.561 5.16711 1.94201 0
M  V30 3917 H 375.038 3.5809 2.54299 0
M  V30 3918 H 375.644 4.14148 0.967553 0
M  V30 3919 N 373.959 -0.0401083 1.57549 0
M  V30 3920 C 375.37 -0.588097 1.77196 0
M  V30 3921 C 375.721 -1.76209 0.862832 0
M  V30 3922 O 374.846 -2.16331 0.0548389 0
M  V30 3923 C 375.441 -1.07363 3.21339 0
M  V30 3924 C 374 -1.56723 3.42221 0
M  V30 3925 C 373.147 -0.50041 2.72747 0
M  V30 3926 H 376.098 0.186119 1.57605 0
M  V30 3927 H 376.119 -1.94143 3.27244 0
M  V30 3928 H 375.631 -0.218975 3.87482 0
M  V30 3929 H 373.732 -2.4441 2.81237 0
M  V30 3930 H 373.845 -1.62234 4.50796 0
M  V30 3931 H 372.209 -0.952894 2.36203 0
M  V30 3932 H 372.992 0.344599 3.41566 0
M  V30 3933 N 375.437 -1.54477 -0.31217 0
M  V30 3934 C 376.684 -1.73227 -1.04875 0
M  V30 3935 C 377.012 -0.512042 -1.87639 0
M  V30 3936 O 376.267 0.506131 -1.89042 0
M  V30 3937 C 376.566 -2.967 -1.99258 0
M  V30 3938 C 376.232 -4.30974 -1.32559 0
M  V30 3939 C 374.894 -4.67477 -1.141 0
M  V30 3940 C 377.246 -5.14258 -0.847835 0
M  V30 3941 C 374.574 -5.84852 -0.465326 0
M  V30 3942 C 376.926 -6.32327 -0.185931 0
M  V30 3943 C 375.59 -6.67499 0.0107077 0
M  V30 3944 H 374.86 -0.633881 -0.383765 0
M  V30 3945 H 377.507 -1.88727 -0.324731 0
M  V30 3946 H 375.812 -2.75935 -2.7815 0
M  V30 3947 H 377.509 -3.08401 -2.563 0
M  V30 3948 H 374.099 -4.02262 -1.4793 0
M  V30 3949 H 378.283 -4.86565 -0.978192 0
M  V30 3950 H 373.539 -6.10654 -0.301883 0
M  V30 3951 H 377.713 -6.96135 0.192211 0
M  V30 3952 H 375.34 -7.58306 0.536287 0
M  V30 3953 N 376.915 0.57481 -1.46744 0
M  V30 3954 C 377.825 1.711 -1.60505 0
M  V30 3955 C 378.841 1.67008 -0.488307 0
M  V30 3956 O 380.017 1.86774 -0.753495 0
M  V30 3957 C 377.082 3.07608 -1.59932 0
M  V30 3958 C 376.143 3.22904 -2.82898 0
M  V30 3959 C 375.376 4.529 -2.82343 0
M  V30 3960 O 375.599 5.37278 -1.91542 0
M  V30 3961 O 374.533 4.71611 -3.73987 0
M  V30 3962 H 378.359 1.62436 -2.56609 0
M  V30 3963 H 375.944 0.742779 -1.29627 0
M  V30 3964 H 377.826 3.88877 -1.62336 0
M  V30 3965 H 376.501 3.16692 -0.669898 0
M  V30 3966 H 375.408 2.41099 -2.86046 0
M  V30 3967 H 376.741 3.18715 -3.75076 0
M  V30 3968 N 378.394 1.34581 0.820102 0
M  V30 3969 C 379.643 1.26437 1.57151 0
M  V30 3970 C 379.956 -0.163111 1.94919 0
M  V30 3971 O 381.162 -0.366722 2.69012 0
M  V30 3972 C 379.618 2.21658 2.83541 0
M  V30 3973 C 379.226 3.69679 2.53065 0
M  V30 3974 C 380.97 2.22428 3.61561 0
M  V30 3975 C 378.877 4.56761 3.75664 0
M  V30 3976 H 377.807 0.469707 0.589823 0
M  V30 3977 H 380.458 1.59763 0.902656 0
M  V30 3978 H 378.84 1.81287 3.52067 0
M  V30 3979 H 380.014 4.18605 1.92631 0
M  V30 3980 H 378.329 3.71384 1.88316 0
M  V30 3981 H 380.926 2.8471 4.52597 0
M  V30 3982 H 381.269 1.22434 3.97889 0
M  V30 3983 H 381.802 2.61259 2.99981 0
M  V30 3984 H 378.541 5.57702 3.44454 0
M  V30 3985 H 378.061 4.12568 4.35371 0
M  V30 3986 H 379.74 4.71509 4.43044 0
M  V30 3987 N 379.872 -1.04064 1.18357 0
M  V30 3988 C 380.819 -2.12077 0.910603 0
M  V30 3989 C 381.789 -1.65421 -0.15 0
M  V30 3990 O 382.974 -1.90797 -0.0103614 0
M  V30 3991 C 380.114 -3.42252 0.442472 0
M  V30 3992 C 379.227 -4.0252 1.5685 0
M  V30 3993 C 378.362 -5.20657 1.05309 0
M  V30 3994 C 377.401 -5.72955 2.1538 0
M  V30 3995 N 376.538 -6.8238 1.65233 0
M  V30 3996 H 381.378 -2.34764 1.83548 0
M  V30 3997 H 378.915 -1.15157 0.915279 0
M  V30 3998 H 380.873 -4.16921 0.152534 0
M  V30 3999 H 379.503 -3.19712 -0.445428 0
M  V30 4000 H 378.555 -3.25178 1.97391 0
M  V30 4001 H 379.867 -4.37362 2.39824 0
M  V30 4002 H 379.021 -6.0244 0.717677 0
M  V30 4003 H 377.76 -4.87318 0.19293 0
M  V30 4004 H 376.765 -4.89793 2.49766 0
M  V30 4005 H 377.99 -6.08337 3.01832 0
M  V30 4006 H 375.936 -6.50917 0.815064 0
M  V30 4007 H 375.853 -7.16286 2.41805 0
M  V30 4008 H 377.121 -7.67788 1.34619 0
M  V30 4009 N 381.35 -0.985608 -1.22978 0
M  V30 4010 C 382.28 -0.549649 -2.26939 0
M  V30 4011 C 383.261 0.419803 -1.64838 0
M  V30 4012 O 384.446 0.31203 -1.91677 0
M  V30 4013 C 381.576 0.143652 -3.47003 0
M  V30 4014 C 380.53 -0.743606 -4.21491 0
M  V30 4015 C 379.856 0.0822027 -5.34637 0
M  V30 4016 C 381.156 -2.03694 -4.80943 0
M  V30 4017 H 382.85 -1.41862 -2.63658 0
M  V30 4018 H 380.396 -0.683571 -1.26741 0
M  V30 4019 H 382.349 0.459985 -4.18882 0
M  V30 4020 H 381.073 1.04711 -3.09359 0
M  V30 4021 H 379.732 -1.04347 -3.51436 0
M  V30 4022 H 379.38 0.986359 -4.93234 0
M  V30 4023 H 379.08 -0.508377 -5.85397 0
M  V30 4024 H 380.604 0.392797 -6.09335 0
M  V30 4025 H 382.018 -1.78504 -5.44802 0
M  V30 4026 H 380.415 -2.57573 -5.42011 0
M  V30 4027 H 381.485 -2.72042 -4.01399 0
M  V30 4028 N 382.828 1.3818 -0.7579 0
M  V30 4029 C 383.791 2.28764 -0.141286 0
M  V30 4030 C 384.791 1.47388 0.642907 0
M  V30 4031 O 385.981 1.67781 0.468536 0
M  V30 4032 C 383.113 3.31184 0.808069 0
M  V30 4033 H 384.306 2.848 -0.939633 0
M  V30 4034 H 381.859 1.47212 -0.525191 0
M  V30 4035 H 382.594 2.80247 1.63193 0
M  V30 4036 H 382.379 3.91314 0.248104 0
M  V30 4037 H 383.869 3.98909 1.23536 0
M  V30 4038 N 384.306 0.507319 1.49211 0
M  V30 4039 C 385.253 -0.267728 2.29242 0
M  V30 4040 C 386.223 -0.954609 1.35928 0
M  V30 4041 O 387.408 -0.960046 1.64887 0
M  V30 4042 C 384.548 -1.32243 3.18756 0
M  V30 4043 C 383.661 -0.64669 4.27132 0
M  V30 4044 C 382.796 -1.68238 5.03855 0
M  V30 4045 C 381.835 -0.98885 6.0406 0
M  V30 4046 N 380.972 -1.96903 6.73924 0
M  V30 4047 H 385.812 0.420968 2.95012 0
M  V30 4048 H 383.349 0.219443 1.45454 0
M  V30 4049 H 385.307 -1.94599 3.69036 0
M  V30 4050 H 383.937 -1.97981 2.54958 0
M  V30 4051 H 382.989 0.0902926 3.80293 0
M  V30 4052 H 384.301 -0.101058 4.98698 0
M  V30 4053 H 383.455 -2.38081 5.58034 0
M  V30 4054 H 382.194 -2.26187 4.32077 0
M  V30 4055 H 381.199 -0.276222 5.49106 0
M  V30 4056 H 382.424 -0.415767 6.77826 0
M  V30 4057 H 380.37 -2.53803 6.04913 0
M  V30 4058 H 380.287 -1.47423 7.41487 0
M  V30 4059 H 381.555 -2.66015 7.32705 0
M  V30 4060 N 385.784 -1.5574 0.241426 0
M  V30 4061 C 386.731 -2.21149 -0.660432 0
M  V30 4062 C 387.701 -1.17356 -1.17545 0
M  V30 4063 O 388.886 -1.45784 -1.23093 0
M  V30 4064 C 386.026 -2.91059 -1.85414 0
M  V30 4065 C 385.139 -4.09495 -1.37616 0
M  V30 4066 C 384.274 -4.67135 -2.529 0
M  V30 4067 C 383.313 -5.77831 -2.01936 0
M  V30 4068 N 382.45 -6.29677 -3.10566 0
M  V30 4069 H 387.29 -2.97845 -0.095955 0
M  V30 4070 H 384.827 -1.47057 -0.0356024 0
M  V30 4071 H 386.785 -3.29788 -2.5553 0
M  V30 4072 H 385.415 -2.16846 -2.39118 0
M  V30 4073 H 384.467 -3.76117 -0.569235 0
M  V30 4074 H 385.779 -4.89423 -0.962618 0
M  V30 4075 H 384.933 -5.08409 -3.31067 0
M  V30 4076 H 383.672 -3.86411 -2.97553 0
M  V30 4077 H 382.677 -5.36039 -1.22238 0
M  V30 4078 H 383.902 -6.60402 -1.58259 0
M  V30 4079 H 381.848 -5.5186 -3.54664 0
M  V30 4080 H 381.765 -7.04783 -2.73526 0
M  V30 4081 H 383.033 -6.75609 -3.88809 0
M  V30 4082 N 387.262 0.0317525 -1.57568 0
M  V30 4083 C 388.509 0.723104 -1.89149 0
M  V30 4084 C 388.837 1.75504 -0.838377 0
M  V30 4085 O 388.092 1.95037 0.160982 0
M  V30 4086 C 388.391 1.43167 -3.27472 0
M  V30 4087 C 388.057 0.535972 -4.47703 0
M  V30 4088 C 386.719 0.289262 -4.8033 0
M  V30 4089 C 389.071 -0.0826125 -5.21135 0
M  V30 4090 C 386.399 -0.584853 -5.83778 0
M  V30 4091 C 388.751 -0.944414 -6.25511 0
M  V30 4092 C 387.415 -1.20061 -6.56614 0
M  V30 4093 H 386.685 0.264602 -0.692146 0
M  V30 4094 H 389.332 -0.0169496 -1.91492 0
M  V30 4095 H 387.637 2.24497 -3.21105 0
M  V30 4096 H 389.334 1.97209 -3.49155 0
M  V30 4097 H 385.924 0.738414 -4.22191 0
M  V30 4098 H 390.108 0.0950302 -4.96209 0
M  V30 4099 H 385.364 -0.79168 -6.06253 0
M  V30 4100 H 389.538 -1.43026 -6.81554 0
M  V30 4101 H 387.165 -1.87967 -7.36595 0
M  V30 4102 N 388.74 1.54641 0.303973 0
M  V30 4103 C 390.017 1.64455 1.05896 0
M  V30 4104 C 390.397 0.490923 2.05312 0
M  V30 4105 O 389.745 -0.512685 2.22674 0
M  V30 4106 C 389.955 3.02331 1.74347 0
M  V30 4107 C 391.303 3.59045 2.26653 0
M  V30 4108 O 392.327 3.04764 1.84384 0
M  V30 4109 O 391.186 4.54081 3.04093 0
M  V30 4110 H 388.28 0.666729 0.489287 0
M  V30 4111 H 390.826 1.66986 0.302298 0
M  V30 4112 H 389.598 3.77734 1.02142 0
M  V30 4113 H 389.221 3.03565 2.56777 0
M  V30 4114 N 390.218 -0.567019 1.47046 0
M  V30 4115 C 391.446 -1.35027 1.56765 0
M  V30 4116 C 391.861 -1.8758 0.214316 0
M  V30 4117 O 391.218 -1.64471 -0.790919 0
M  V30 4118 C 391.269 -2.52698 2.58507 0
M  V30 4119 O 390.99 -2.0232 3.88585 0
M  V30 4120 C 392.491 -3.45043 2.78316 0
M  V30 4121 H 389.711 -0.41195 0.529658 0
M  V30 4122 H 392.255 -0.687832 1.92585 0
M  V30 4123 H 390.41 -3.149 2.25648 0
M  V30 4124 H 390.824 -2.79068 4.44096 0
M  V30 4125 H 392.298 -4.2405 3.53391 0
M  V30 4126 H 392.775 -3.97971 1.85784 0
M  V30 4127 H 393.381 -2.88665 3.12334 0
M  V30 4128 N 391.696 -1.35014 -0.812953 0
M  V30 4129 C 392.943 -1.27931 -1.56971 0
M  V30 4130 C 393.271 0.148034 -1.93936 0
M  V30 4131 O 392.526 1.11175 -1.61054 0
M  V30 4132 C 392.825 -2.12524 -2.87347 0
M  V30 4133 C 392.491 -3.61401 -2.6963 0
M  V30 4134 C 391.153 -4.01983 -2.64506 0
M  V30 4135 C 393.505 -4.55894 -2.52607 0
M  V30 4136 C 390.833 -5.35235 -2.40293 0
M  V30 4137 C 393.185 -5.89336 -2.29925 0
M  V30 4138 C 391.849 -6.2907 -2.23219 0
M  V30 4139 H 391.119 -0.468131 -0.574399 0
M  V30 4140 H 393.766 -1.66851 -0.939836 0
M  V30 4141 H 392.071 -1.66463 -3.54679 0
M  V30 4142 H 393.768 -2.04383 -3.45005 0
M  V30 4143 H 390.358 -3.29193 -2.74463 0
M  V30 4144 H 394.542 -4.25431 -2.55583 0
M  V30 4145 H 389.798 -5.65028 -2.33566 0
M  V30 4146 H 393.972 -6.62139 -2.15743 0
M  V30 4147 H 391.599 -7.32256 -2.04219 0
M  V30 4148 N 393.175 1.03435 -1.18907 0
M  V30 4149 C 394.123 2.13703 -0.918353 0
M  V30 4150 C 395.117 1.68947 0.123767 0
M  V30 4151 O 396.323 1.79983 -0.0249701 0
M  V30 4152 H 392.698 0.698112 -0.279542 0
M  V30 4153 H 394.669 2.33731 -1.85506 0
M  V30 4154 C 393.418 3.44542 -0.467532 0
M  V30 4155 H 392.741 3.79394 -1.26095 0
M  V30 4156 H 394.181 4.22812 -0.317164 0
M  V30 4157 C 392.64 3.26829 0.817588 0
M  V30 4158 O 393.17 3.54975 1.88031 0
M  V30 4159 N 391.376 2.80139 0.772677 0
M  V30 4160 H 390.923 2.57434 -0.0923883 0
M  V30 4161 H 390.881 2.68668 1.63294 0
M  V30 4162 N 394.653 0.992116 1.22453 0
M  V30 4163 C 395.901 0.666215 1.90804 0
M  V30 4164 C 396.222 -0.804152 1.77647 0
M  V30 4165 O 395.492 -1.57629 1.16318 0
M  V30 4166 H 394.072 0.243423 0.706225 0
M  V30 4167 H 396.734 1.25845 1.48825 0
M  V30 4168 H 395.83 0.928069 2.97982 0
M  V30 4169 N 396.131 -1.37776 0.765217 0
M  V30 4170 C 397.041 -2.34135 0.147666 0
M  V30 4171 C 398.057 -1.59854 -0.687215 0
M  V30 4172 O 399.233 -1.91983 -0.608659 0
M  V30 4173 C 396.298 -3.3901 -0.72617 0
M  V30 4174 C 395.359 -4.2912 0.124417 0
M  V30 4175 C 394.592 -5.28986 -0.707807 0
M  V30 4176 O 394.815 -5.36205 -1.94525 0
M  V30 4177 O 393.749 -6.01779 -0.12046 0
M  V30 4178 H 397.575 -2.88664 0.943758 0
M  V30 4179 H 395.16 -1.39824 0.526277 0
M  V30 4180 H 397.042 -4.03195 -1.22524 0
M  V30 4181 H 395.717 -2.86819 -1.50056 0
M  V30 4182 H 394.624 -3.68057 0.669696 0
M  V30 4183 H 395.957 -4.84598 0.861736 0
M  V30 4184 N 397.609 -0.515225 -1.4894 0
M  V30 4185 C 398.849 0.0223983 -2.04388 0
M  V30 4186 C 399.213 1.32961 -1.38511 0
M  V30 4187 O 400.414 1.95236 -1.8476 0
M  V30 4188 C 398.685 0.157056 -3.57055 0
M  V30 4189 S 400.244 0.646875 -4.34006 0
M  V30 4190 H 397.062 -0.00500662 -0.710982 0
M  V30 4191 H 399.664 -0.69243 -1.82827 0
M  V30 4192 H 398.368 -0.799412 -4.02539 0
M  V30 4193 H 397.899 0.896704 -3.83044 0
M  V30 4194 H 399.914 1.91381 -4.57808 0
M  V30 4195 N 399.087 1.5561 -0.249682 0
M  V30 4196 C 400.498 1.84979 0.252949 0
M  V30 4197 C 400.849 1.17153 1.57384 0
M  V30 4198 O 399.974 0.450884 2.11651 0
M  V30 4199 C 400.569 3.35584 0.465732 0
M  V30 4200 C 399.128 3.65169 0.912624 0
M  V30 4201 C 398.275 2.77299 -0.00859085 0
M  V30 4202 H 401.226 1.51513 -0.47217 0
M  V30 4203 H 401.247 3.57313 1.30795 0
M  V30 4204 H 400.759 3.8492 -0.49579 0
M  V30 4205 H 398.86 3.21312 1.88652 0
M  V30 4206 H 398.973 4.72912 0.767559 0
M  V30 4207 H 397.337 2.49678 0.50327 0
M  V30 4208 H 398.12 3.29442 -0.965537 0
M  V30 4209 N 400.565 -0.0233959 1.57583 0
M  V30 4210 C 401.513 -1.04063 2.08023 0
M  V30 4211 C 402.507 -1.37084 0.995204 0
M  V30 4212 O 403.713 -1.35923 1.18004 0
M  V30 4213 H 400.088 -0.353144 0.663922 0
M  V30 4214 H 402.059 -0.589453 2.9252 0
M  V30 4215 C 400.808 -2.33123 2.57971 0
M  V30 4216 H 400.131 -2.08577 3.4108 0
M  V30 4217 H 401.571 -3.02632 2.96967 0
M  V30 4218 C 400.03 -3.02483 1.48342 0
M  V30 4219 O 400.56 -3.92541 0.852898 0
M  V30 4220 N 398.766 -2.63909 1.21658 0
M  V30 4221 H 398.313 -1.90758 1.73116 0
M  V30 4222 H 398.271 -3.10633 0.485218 0
M  V30 4223 N 402.043 -1.548 -0.295768 0
M  V30 4224 C 403.29 -1.74329 -1.03032 0
M  V30 4225 C 403.618 -0.531915 -1.87085 0
M  V30 4226 O 402.873 0.486052 -1.89568 0
M  V30 4227 C 403.172 -2.98797 -1.961 0
M  V30 4228 C 402.838 -4.32356 -1.2798 0
M  V30 4229 C 401.5 -4.68661 -1.09135 0
M  V30 4230 C 403.852 -5.15128 -0.793243 0
M  V30 4231 C 401.18 -5.85312 -0.403269 0
M  V30 4232 C 403.532 -6.32488 -0.118854 0
M  V30 4233 C 402.196 -6.6745 0.0815043 0
M  V30 4234 H 401.466 -0.637916 -0.37702 0
M  V30 4235 H 404.113 -1.8906 -0.304696 0
M  V30 4236 H 402.418 -2.78869 -2.75207 0
M  V30 4237 H 404.115 -3.11102 -2.53015 0
M  V30 4238 H 400.705 -4.03808 -1.43655 0
M  V30 4239 H 404.889 -4.87575 -0.92653 0
M  V30 4240 H 400.145 -6.1094 -0.237098 0
M  V30 4241 H 404.319 -6.95892 0.266035 0
M  V30 4242 H 401.946 -7.57695 0.616685 0
M  V30 4243 N 403.521 0.559213 -1.47345 0
M  V30 4244 C 404.767 1.31843 -1.54095 0
M  V30 4245 C 405.1 1.93149 -0.201726 0
M  V30 4246 O 404.375 1.77759 0.789428 0
M  V30 4247 C 404.658 2.43006 -2.65744 0
M  V30 4248 C 404.511 1.86581 -4.09277 0
M  V30 4249 C 405.83 3.44943 -2.73318 0
M  V30 4250 H 402.949 0.478012 -0.560957 0
M  V30 4251 H 405.591 0.625977 -1.79392 0
M  V30 4252 H 403.741 3.02072 -2.44305 0
M  V30 4253 H 405.413 1.31792 -4.42073 0
M  V30 4254 H 403.656 1.17268 -4.17649 0
M  V30 4255 H 404.327 2.66933 -4.83168 0
M  V30 4256 H 406.803 2.95793 -2.92653 0
M  V30 4257 H 405.679 4.20153 -3.53218 0
M  V30 4258 H 405.94 4.03665 -1.80296 0
M  V30 4259 N 404.999 1.35443 0.805782 0
M  V30 4260 C 406.246 1.28761 1.56291 0
M  V30 4261 C 406.574 -0.137747 1.94012 0
M  V30 4262 O 405.829 -1.1032 1.61642 0
M  V30 4263 C 406.128 2.14045 2.86216 0
M  V30 4264 C 405.794 3.62826 2.67709 0
M  V30 4265 C 404.456 4.0338 2.6237 0
M  V30 4266 C 406.808 4.57227 2.50186 0
M  V30 4267 C 404.136 5.36501 2.37451 0
M  V30 4268 C 406.488 5.90547 2.26797 0
M  V30 4269 C 405.152 6.30245 2.1988 0
M  V30 4270 H 404.422 0.471171 0.571908 0
M  V30 4271 H 407.069 1.67347 0.930974 0
M  V30 4272 H 405.374 1.68342 3.53791 0
M  V30 4273 H 407.071 2.0621 3.43917 0
M  V30 4274 H 403.661 3.30644 2.72713 0
M  V30 4275 H 407.845 4.2678 2.53323 0
M  V30 4276 H 403.101 5.66259 2.30567 0
M  V30 4277 H 407.275 6.63274 2.12228 0
M  V30 4278 H 404.902 7.33328 2.00333 0
M  V30 4279 N 406.477 -1.02803 1.19454 0
M  V30 4280 C 407.888 -1.57667 0.999899 0
M  V30 4281 C 408.239 -1.91041 -0.446956 0
M  V30 4282 O 407.364 -1.70978 -1.32648 0
M  V30 4283 C 407.959 -2.86477 1.80877 0
M  V30 4284 C 406.518 -3.37911 1.65811 0
M  V30 4285 C 405.665 -2.11343 1.79526 0
M  V30 4286 H 408.616 -0.853214 1.33813 0
M  V30 4287 H 408.637 -3.57408 1.30536 0
M  V30 4288 H 408.149 -2.62155 2.86175 0
M  V30 4289 H 406.25 -3.67218 0.63102 0
M  V30 4290 H 406.363 -4.10885 2.46395 0
M  V30 4291 H 404.727 -2.23254 1.22596 0
M  V30 4292 H 405.51 -1.89461 2.86285 0
M  V30 4293 N 407.956 -0.998596 -1.21925 0
M  V30 4294 C 408.886 -0.573688 -2.26343 0
M  V30 4295 C 409.867 0.402296 -1.65274 0
M  V30 4296 O 411.052 0.291683 -1.91997 0
M  V30 4297 C 408.182 0.106839 -3.47136 0
M  V30 4298 C 407.136 -0.788269 -4.20678 0
M  V30 4299 C 406.462 0.0254927 -5.34694 0
M  V30 4300 C 407.762 -2.08784 -4.78755 0
M  V30 4301 H 409.456 -1.44651 -2.62138 0
M  V30 4302 H 407.002 -0.696975 -1.26009 0
M  V30 4303 H 408.955 0.415531 -4.19346 0
M  V30 4304 H 407.679 1.01424 -3.10452 0
M  V30 4305 H 406.338 -1.08069 -3.50309 0
M  V30 4306 H 405.986 0.933989 -4.94253 0
M  V30 4307 H 405.686 -0.570437 -5.84825 0
M  V30 4308 H 407.21 0.328147 -6.09718 0
M  V30 4309 H 408.624 -1.84272 -5.42878 0
M  V30 4310 H 407.021 -2.63307 -5.39249 0
M  V30 4311 H 408.091 -2.76284 -3.98491 0
M  V30 4312 N 409.434 1.37368 -0.772513 0
M  V30 4313 C 410.382 2.32134 -0.147111 0
M  V30 4314 C 411.376 1.54972 0.684106 0
M  V30 4315 O 412.582 1.70363 0.581083 0
M  V30 4316 H 408.957 0.751449 -0.028786 0
M  V30 4317 H 410.928 2.82464 -0.962112 0
M  V30 4318 C 409.677 3.40226 0.71703 0
M  V30 4319 H 409 3.99706 0.0867951 0
M  V30 4320 H 410.44 4.08897 1.12159 0
M  V30 4321 C 408.899 2.80372 1.86797 0
M  V30 4322 O 409.429 2.71183 2.96349 0
M  V30 4323 N 407.635 2.37904 1.66883 0
M  V30 4324 H 407.182 2.45578 0.777759 0
M  V30 4325 H 407.14 1.98202 2.44056 0
M  V30 4326 N 410.912 0.523116 1.48665 0
M  V30 4327 C 412.137 -0.0117284 2.07397 0
M  V30 4328 C 412.562 -1.28031 1.37803 0
M  V30 4329 O 411.92 -1.75836 0.441762 0
M  V30 4330 C 411.968 -0.225786 3.59892 0
M  V30 4331 O 411.072 -1.29592 3.91509 0
M  V30 4332 H 410.413 0.0360673 0.66302 0
M  V30 4333 H 412.943 0.729066 1.9117 0
M  V30 4334 H 412.953 -0.450552 4.05505 0
M  V30 4335 H 411.628 0.700944 4.09951 0
M  V30 4336 H 410.205 -1.05436 3.57684 0
M  V30 4337 N 412.39 -1.55475 0.257931 0
M  V30 4338 C 413.639 -1.98383 -0.364275 0
M  V30 4339 C 413.952 -1.14952 -1.58258 0
M  V30 4340 O 415.158 -1.47924 -2.27664 0
M  V30 4341 C 413.614 -3.53037 -0.699479 0
M  V30 4342 C 413.222 -4.45223 0.498046 0
M  V30 4343 C 414.966 -4.04575 -1.28526 0
M  V30 4344 C 412.873 -5.91238 0.138383 0
M  V30 4345 H 411.803 -0.740911 -0.13988 0
M  V30 4346 H 414.454 -1.79936 0.359883 0
M  V30 4347 H 412.836 -3.6722 -1.48207 0
M  V30 4348 H 414.01 -4.42803 1.27522 0
M  V30 4349 H 412.325 -4.04226 0.999503 0
M  V30 4350 H 414.922 -5.11196 -1.56788 0
M  V30 4351 H 415.265 -3.5258 -2.21344 0
M  V30 4352 H 415.798 -3.93762 -0.565337 0
M  V30 4353 H 412.537 -6.47294 1.03398 0
M  V30 4354 H 412.057 -5.96768 -0.602374 0
M  V30 4355 H 413.736 -6.46413 -0.27553 0
M  V30 4356 N 413.868 0.0150385 -1.57593 0
M  V30 4357 C 415.117 0.702115 -1.89085 0
M  V30 4358 C 415.43 1.75764 -0.858277 0
M  V30 4359 O 416.636 2.49829 -1.0629 0
M  V30 4360 C 415.092 1.29992 -3.35604 0
M  V30 4361 C 414.7 0.280007 -4.47124 0
M  V30 4362 C 416.444 1.96606 -3.76227 0
M  V30 4363 C 414.351 0.886949 -5.84711 0
M  V30 4364 H 413.281 0.265997 -0.705522 0
M  V30 4365 H 415.932 -0.0430408 -1.8345 0
M  V30 4366 H 414.314 2.09525 -3.36029 0
M  V30 4367 H 415.488 -0.489631 -4.58191 0
M  V30 4368 H 413.803 -0.284835 -4.15425 0
M  V30 4369 H 416.4 2.42893 -4.76347 0
M  V30 4370 H 416.743 2.79024 -3.08952 0
M  V30 4371 H 417.276 1.23828 -3.78036 0
M  V30 4372 H 414.015 0.101876 -6.55421 0
M  V30 4373 H 413.535 1.6261 -5.77337 0
M  V30 4374 H 415.214 1.39011 -6.3189 0
M  V30 4375 N 415.346 1.54954 0.287554 0
M  V30 4376 C 416.293 1.86834 1.35505 0
M  V30 4377 C 417.263 0.718452 1.49758 0
M  V30 4378 O 418.448 0.968358 1.644 0
M  V30 4379 C 415.588 2.13303 2.71286 0
M  V30 4380 C 414.701 3.40883 2.65373 0
M  V30 4381 C 413.836 3.57125 3.93236 0
M  V30 4382 C 412.875 4.78449 3.81776 0
M  V30 4383 N 412.012 4.91426 5.01443 0
M  V30 4384 H 416.852 2.77889 1.07619 0
M  V30 4385 H 414.389 1.37593 0.520241 0
M  V30 4386 H 416.347 2.26646 3.50267 0
M  V30 4387 H 414.977 1.25499 2.97405 0
M  V30 4388 H 414.029 3.36088 1.78182 0
M  V30 4389 H 415.341 4.29993 2.52799 0
M  V30 4390 H 414.495 3.70207 4.80658 0
M  V30 4391 H 413.234 2.66173 4.0866 0
M  V30 4392 H 412.239 4.65386 2.92738 0
M  V30 4393 H 413.464 5.70822 3.67884 0
M  V30 4394 H 411.41 4.03401 5.17304 0
M  V30 4395 H 411.327 5.74559 4.91343 0
M  V30 4396 H 412.595 5.08879 5.90477 0
M  V30 4397 N 416.824 -0.551391 1.4764 0
M  V30 4398 C 418.052 -1.33357 1.58189 0
M  V30 4399 C 418.467 -1.87342 0.234199 0
M  V30 4400 O 417.824 -1.65301 -0.77343 0
M  V30 4401 C 417.875 -2.49942 2.61173 0
M  V30 4402 O 417.596 -1.98187 3.90709 0
M  V30 4403 C 419.097 -3.42072 2.8196 0
M  V30 4404 H 416.317 -0.40631 0.533998 0
M  V30 4405 H 418.861 -0.667367 1.93304 0
M  V30 4406 H 417.016 -3.12489 2.28975 0
M  V30 4407 H 417.43 -2.74342 4.47031 0
M  V30 4408 H 418.904 -4.20278 3.57869 0
M  V30 4409 H 419.381 -3.95978 1.89995 0
M  V30 4410 H 419.987 -2.85336 3.15378 0
M  V30 4411 N 418.302 -1.35869 -0.798587 0
M  V30 4412 C 419.551 -1.28921 -1.5512 0
M  V30 4413 C 419.864 0.13208 -1.95154 0
M  V30 4414 O 421.07 0.323879 -2.69561 0
M  V30 4415 C 419.526 -2.26141 -2.79979 0
M  V30 4416 C 419.134 -3.73658 -2.47151 0
M  V30 4417 C 420.878 -2.28152 -3.57976 0
M  V30 4418 C 418.785 -4.62679 -3.6835 0
M  V30 4419 H 417.715 -0.479031 -0.582276 0
M  V30 4420 H 420.366 -1.61179 -0.877125 0
M  V30 4421 H 418.748 -1.86865 -3.49138 0
M  V30 4422 H 419.922 -4.21616 -1.85947 0
M  V30 4423 H 418.237 -3.74333 -1.82383 0
M  V30 4424 H 420.834 -2.91875 -4.4801 0
M  V30 4425 H 421.177 -1.28748 -3.95891 0
M  V30 4426 H 421.71 -2.65998 -2.95787 0
M  V30 4427 H 418.449 -5.63111 -3.35538 0
M  V30 4428 H 417.969 -4.19442 -4.28752 0
M  V30 4429 H 419.648 -4.78498 -4.35487 0
M  V30 4430 N 419.78 1.02168 -1.19998 0
M  V30 4431 C 420.712 2.10705 -0.901994 0
M  V30 4432 C 421.725 1.6244 0.108216 0
M  V30 4433 O 422.914 1.78082 -0.12214 0
M  V30 4434 C 420.014 3.37291 -0.329834 0
M  V30 4435 C 419.187 4.14714 -1.39035 0
M  V30 4436 C 418.246 5.19606 -0.830432 0
M  V30 4437 O 417.272 5.48809 -1.50989 0
M  V30 4438 N 418.474 5.79366 0.362696 0
M  V30 4439 H 421.239 2.36856 -1.83628 0
M  V30 4440 H 418.8 1.18518 -1.10296 0
M  V30 4441 H 420.792 4.04657 0.0587633 0
M  V30 4442 H 419.362 3.0843 0.508891 0
M  V30 4443 H 418.582 3.42392 -1.9535 0
M  V30 4444 H 419.87 4.63226 -2.10474 0
M  V30 4445 H 419.268 5.57968 0.932081 0
M  V30 4446 H 417.825 6.48106 0.69299 0
M  V30 4447 N 421.258 1.00505 1.21394 0
M  V30 4448 C 422.669 0.721082 1.72213 0
M  V30 4449 C 423.02 -0.761263 1.80829 0
M  V30 4450 O 422.145 -1.59464 1.46288 0
M  V30 4451 C 422.74 1.30228 3.12772 0
M  V30 4452 C 421.299 1.06743 3.60947 0
M  V30 4453 C 420.446 1.41507 2.38477 0
M  V30 4454 H 423.397 1.17594 1.06571 0
M  V30 4455 H 423.418 0.686955 3.74247 0
M  V30 4456 H 422.93 2.38115 3.06468 0
M  V30 4457 H 421.031 0.00572162 3.726 0
M  V30 4458 H 421.144 1.73936 4.46411 0
M  V30 4459 H 419.508 0.833852 2.40664 0
M  V30 4460 H 420.291 2.50424 2.34824 0
M  V30 4461 N 422.737 -1.36956 0.779787 0
M  V30 4462 C 424.153 -1.52817 0.460342 0
M  V30 4463 C 424.353 -1.7361 -1.02283 0
M  V30 4464 O 423.409 -1.76207 -1.80852 0
M  V30 4465 C 424.722 -2.71983 1.28241 0
M  V30 4466 C 426.27 -2.85849 1.27512 0
M  V30 4467 C 426.745 -4.08008 2.08072 0
M  V30 4468 N 428.236 -4.15135 2.05467 0
M  V30 4469 C 428.971 -5.08711 2.64577 0
M  V30 4470 N 428.467 -6.07792 3.32506 0
M  V30 4471 N 430.26 -5.01254 2.54363 0
M  V30 4472 H 422.411 -1.21713 1.74068 0
M  V30 4473 H 424.674 -0.593294 0.739396 0
M  V30 4474 H 424.38 -2.63109 2.33381 0
M  V30 4475 H 424.254 -3.65882 0.917088 0
M  V30 4476 H 426.641 -2.94189 0.231686 0
M  V30 4477 H 426.722 -1.92886 1.68014 0
M  V30 4478 H 426.366 -4.00429 3.12441 0
M  V30 4479 H 426.296 -5.001 1.64947 0
M  V30 4480 H 428.787 -3.44189 1.5602 0
M  V30 4481 H 429.1 -6.75739 3.74963 0
M  V30 4482 H 427.445 -6.08047 3.36606 0
M  V30 4483 H 430.636 -4.22795 2.00902 0
M  V30 4484 H 430.809 -5.73995 3.00722 0
M  V30 4485 N 424.215 -0.530993 -1.48385 0
M  V30 4486 C 425.461 0.00274135 -2.028 0
M  V30 4487 C 425.794 1.33838 -1.40716 0
M  V30 4488 O 425.069 1.86465 -0.553277 0
M  V30 4489 C 425.352 0.123676 -3.59888 0
M  V30 4490 C 425.205 -1.2372 -4.3245 0
M  V30 4491 C 426.524 0.849967 -4.31814 0
M  V30 4492 H 423.643 -0.000477758 -0.737 0
M  V30 4493 H 426.285 -0.688217 -1.77098 0
M  V30 4494 H 424.435 0.712157 -3.81917 0
M  V30 4495 H 426.107 -1.86687 -4.21836 0
M  V30 4496 H 424.35 -1.81882 -3.93829 0
M  V30 4497 H 425.021 -1.10557 -5.40815 0
M  V30 4498 H 427.497 0.350572 -4.14621 0
M  V30 4499 H 426.373 0.903486 -5.41413 0
M  V30 4500 H 426.634 1.90047 -3.99167 0
M  V30 4501 N 425.693 1.55336 -0.266172 0
M  V30 4502 C 426.603 2.2583 0.635458 0
M  V30 4503 C 427.619 1.28106 1.17749 0
M  V30 4504 O 428.795 1.61024 1.20968 0
M  V30 4505 C 425.86 2.95879 1.80712 0
M  V30 4506 C 424.921 4.09059 1.30265 0
M  V30 4507 C 424.154 4.75759 2.41846 0
M  V30 4508 O 424.377 4.41622 3.61007 0
M  V30 4509 O 423.311 5.63888 2.1051 0
M  V30 4510 H 427.137 3.03631 0.0646693 0
M  V30 4511 H 424.722 1.49361 -0.0339177 0
M  V30 4512 H 426.604 3.39932 2.49047 0
M  V30 4513 H 425.279 2.21002 2.36516 0
M  V30 4514 H 424.186 3.69482 0.586019 0
M  V30 4515 H 425.519 4.85811 0.790458 0
M  V30 4516 N 427.171 -0.0066808 1.57599 0
M  V30 4517 C 428.118 -1.00024 2.08 0
M  V30 4518 C 429.088 -1.34549 0.973943 0
M  V30 4519 O 430.273 -1.44502 1.24595 0
M  V30 4520 C 427.413 -2.2891 2.58252 0
M  V30 4521 C 426.526 -2.00346 3.82734 0
M  V30 4522 C 425.661 -3.23265 4.21513 0
M  V30 4523 C 424.7 -2.90357 5.3885 0
M  V30 4524 N 423.837 -4.05793 5.72954 0
M  V30 4525 H 428.677 -0.563499 2.92624 0
M  V30 4526 H 426.214 -0.266592 1.44664 0
M  V30 4527 H 428.172 -3.04247 2.85464 0
M  V30 4528 H 426.802 -2.70265 1.76512 0
M  V30 4529 H 425.854 -1.15406 3.62471 0
M  V30 4530 H 427.166 -1.72086 4.68175 0
M  V30 4531 H 426.32 -4.06953 4.49971 0
M  V30 4532 H 425.059 -3.54657 3.34768 0
M  V30 4533 H 424.064 -2.05075 5.10122 0
M  V30 4534 H 425.289 -2.60219 6.27266 0
M  V30 4535 H 423.235 -4.37094 4.89167 0
M  V30 4536 H 423.152 -3.81034 6.52954 0
M  V30 4537 H 424.42 -4.90289 6.06001 0
M  V30 4538 N 428.649 -1.55105 -0.279332 0
M  V30 4539 C 429.596 -1.8755 -1.34513 0
M  V30 4540 C 430.566 -0.726384 -1.49375 0
M  V30 4541 O 431.751 -0.977063 -1.63884 0
M  V30 4542 C 428.891 -2.14738 -2.70151 0
M  V30 4543 C 428.004 -3.42285 -2.63562 0
M  V30 4544 C 427.139 -3.59206 -3.91337 0
M  V30 4545 C 426.178 -4.80467 -3.79233 0
M  V30 4546 N 425.315 -4.94079 -4.98829 0
M  V30 4547 H 430.155 -2.78456 -1.06143 0
M  V30 4548 H 427.692 -1.37867 -0.512936 0
M  V30 4549 H 429.65 -2.28501 -3.49061 0
M  V30 4550 H 428.28 -1.27075 -2.96735 0
M  V30 4551 H 427.332 -3.37029 -1.76397 0
M  V30 4552 H 428.644 -4.31328 -2.50515 0
M  V30 4553 H 427.798 -3.72751 -4.78687 0
M  V30 4554 H 426.537 -2.68337 -4.07243 0
M  V30 4555 H 425.542 -4.66932 -2.90266 0
M  V30 4556 H 426.767 -5.72765 -3.64852 0
M  V30 4557 H 424.713 -4.06139 -5.15158 0
M  V30 4558 H 424.63 -5.77156 -4.8829 0
M  V30 4559 H 425.898 -5.12003 -5.8777 0
M  V30 4560 N 430.127 0.543554 -1.4793 0
M  V30 4561 C 431.074 1.64942 -1.6144 0
M  V30 4562 C 432.044 1.59692 -0.456903 0
M  V30 4563 O 433.229 1.78321 -0.678688 0
M  V30 4564 C 430.369 3.03238 -1.64744 0
M  V30 4565 C 429.482 3.18823 -2.91506 0
M  V30 4566 C 428.617 4.47599 -2.86057 0
M  V30 4567 C 427.656 4.56664 -4.07584 0
M  V30 4568 N 426.793 5.76811 -4.00292 0
M  V30 4569 H 431.633 1.52733 -2.55884 0
M  V30 4570 H 429.17 0.7438 -1.2691 0
M  V30 4571 H 431.128 3.83339 -1.64641 0
M  V30 4572 H 429.758 3.1425 -0.738017 0
M  V30 4573 H 428.81 2.32064 -3.01414 0
M  V30 4574 H 430.122 3.21384 -3.81463 0
M  V30 4575 H 429.276 5.35975 -2.84281 0
M  V30 4576 H 428.015 4.47538 -1.93807 0
M  V30 4577 H 427.02 3.66697 -4.09651 0
M  V30 4578 H 428.245 4.58474 -5.00978 0
M  V30 4579 H 426.191 5.77673 -3.10853 0
M  V30 4580 H 426.108 5.80808 -4.8394 0
M  V30 4581 H 427.376 6.67512 -4.02553 0
M  V30 4582 N 431.605 1.3629 0.791371 0
M  V30 4583 C 432.535 1.33137 1.91825 0
M  V30 4584 C 433.516 0.203168 1.68882 0
M  V30 4585 O 434.701 0.400509 1.90025 0
M  V30 4586 C 431.831 1.11793 3.28816 0
M  V30 4587 C 430.785 2.21417 3.66277 0
M  V30 4588 C 430.111 1.85218 5.01596 0
M  V30 4589 C 431.411 3.63489 3.75064 0
M  V30 4590 H 433.105 2.2743 1.9472 0
M  V30 4591 H 430.651 1.09479 0.935437 0
M  V30 4592 H 432.604 1.08222 4.07266 0
M  V30 4593 H 431.328 0.139501 3.26302 0
M  V30 4594 H 429.987 2.2411 2.90121 0
M  V30 4595 H 429.635 0.859544 4.95602 0
M  V30 4596 H 429.335 2.58611 5.27631 0
M  V30 4597 H 430.859 1.832 5.82469 0
M  V30 4598 H 432.273 3.63034 4.43711 0
M  V30 4599 H 430.67 4.35771 4.12582 0
M  V30 4600 H 431.74 3.98536 2.76219 0
M  V30 4601 N 433.083 -1.0153 1.20538 0
M  V30 4602 C 434.36 -1.72327 0.925343 0
M  V30 4603 C 434.74 -2.03383 -0.565547 0
M  V30 4604 O 434.088 -1.69934 -1.52757 0
M  V30 4605 C 434.298 -2.9902 1.79967 0
M  V30 4606 C 435.646 -3.72258 2.04228 0
M  V30 4607 O 436.67 -3.08979 1.77231 0
M  V30 4608 O 435.529 -4.86053 2.4983 0
M  V30 4609 H 432.623 -0.751099 0.346092 0
M  V30 4610 H 435.169 -1.07366 1.31417 0
M  V30 4611 H 433.941 -2.72402 2.80915 0
M  V30 4612 H 433.564 -3.71721 1.41099 0
M  V30 4613 N 434.561 -1.01147 -1.20859 0
M  V30 4614 C 435.809 -0.696486 -1.89719 0
M  V30 4615 C 436.13 0.775788 -1.78904 0
M  V30 4616 O 435.4 1.55759 -1.18811 0
M  V30 4617 H 433.98 -0.254628 -0.702263 0
M  V30 4618 H 436.642 -1.28197 -1.46804 0
M  V30 4619 H 435.738 -0.975357 -2.96468 0
M  V30 4620 N 436.039 1.36541 -0.78704 0
M  V30 4621 C 437.286 1.99304 -0.358341 0
M  V30 4622 C 437.614 1.62467 1.06933 0
M  V30 4623 O 436.869 0.870019 1.75297 0
M  V30 4624 C 437.168 3.54343 -0.466485 0
M  V30 4625 C 436.834 4.10993 -1.85461 0
M  V30 4626 C 435.496 4.26177 -2.23443 0
M  V30 4627 C 437.848 4.41895 -2.76366 0
M  V30 4628 C 435.176 4.69573 -3.51736 0
M  V30 4629 C 437.528 4.86722 -4.04084 0
M  V30 4630 C 436.192 5.00112 -4.42091 0
M  V30 4631 H 435.462 0.729306 -0.131126 0
M  V30 4632 H 438.109 1.63068 -1.00404 0
M  V30 4633 H 436.414 3.90918 0.262719 0
M  V30 4634 H 438.111 4.00833 -0.115854 0
M  V30 4635 H 434.701 3.99612 -1.54946 0
M  V30 4636 H 438.885 4.29735 -2.48277 0
M  V30 4637 H 434.141 4.78127 -3.81057 0
M  V30 4638 H 438.315 5.09598 -4.7464 0
M  V30 4639 H 435.942 5.33498 -5.41557 0
M  V30 4640 N 437.518 0.538854 1.48102 0
M  V30 4641 C 438.451 -0.266495 2.26639 0
M  V30 4642 C 439.429 -0.93687 1.32897 0
M  V30 4643 O 440.613 -0.959507 1.62252 0
M  V30 4644 C 437.74 -1.37814 3.09394 0
M  V30 4645 C 436.786 -0.818247 4.18577 0
M  V30 4646 S 437.619 0.320848 5.34538 0
M  V30 4647 C 438.775 -0.793059 6.20855 0
M  V30 4648 H 439.008 0.399994 2.94597 0
M  V30 4649 H 436.541 0.324808 1.50945 0
M  V30 4650 H 438.499 -2.01488 3.57649 0
M  V30 4651 H 437.16 -2.01639 2.40833 0
M  V30 4652 H 436.353 -1.65247 4.7614 0
M  V30 4653 H 435.955 -0.258036 3.73109 0
M  V30 4654 H 438.247 -1.68961 6.56093 0
M  V30 4655 H 439.19 -0.255204 7.0764 0
M  V30 4656 H 439.598 -1.07746 5.54122 0
M  V30 4657 N 438.996 -1.55193 0.274407 0
M  V30 4658 C 440.244 -1.99187 -0.341902 0
M  V30 4659 C 440.565 -1.16422 -1.56431 0
M  V30 4660 O 439.835 -0.253573 -1.94252 0
M  V30 4661 H 438.415 -0.735721 -0.129317 0
M  V30 4662 H 441.077 -1.91168 0.379578 0
M  V30 4663 H 440.173 -3.05629 -0.632253 0
M  V30 4664 N 440.474 -0.00167713 -1.576 0
M  V30 4665 C 441.89 0.354422 -1.55615 0
M  V30 4666 C 442.09 1.74679 -1.00447 0
M  V30 4667 O 441.146 2.4428 -0.639022 0
M  V30 4668 C 442.459 0.22812 -2.99833 0
M  V30 4669 C 444.007 0.302934 -3.11531 0
M  V30 4670 C 444.482 0.205737 -4.57538 0
M  V30 4671 N 445.973 0.263584 -4.62449 0
M  V30 4672 C 446.708 0.211742 -5.73009 0
M  V30 4673 N 446.204 0.110399 -6.92712 0
M  V30 4674 N 447.997 0.263729 -5.61481 0
M  V30 4675 H 440.148 -0.912498 -1.918 0
M  V30 4676 H 442.411 -0.349928 -0.881053 0
M  V30 4677 H 442.117 -0.729934 -3.44042 0
M  V30 4678 H 441.991 1.00951 -3.6344 0
M  V30 4679 H 444.378 1.25143 -2.67251 0
M  V30 4680 H 444.459 -0.508357 -2.50698 0
M  V30 4681 H 444.103 -0.739225 -5.02492 0
M  V30 4682 H 444.033 1.03554 -5.16318 0
M  V30 4683 H 446.524 0.343173 -3.76339 0
M  V30 4684 H 446.837 0.0767828 -7.72762 0
M  V30 4685 H 445.182 0.0760025 -6.94958 0
M  V30 4686 H 448.373 0.34111 -4.66855 0
M  V30 4687 H 448.546 0.219862 -6.47627 0
M  V30 4688 N 441.952 1.55251 0.271103 0
M  V30 4689 C 443.201 1.75151 1.00025 0
M  V30 4690 C 443.514 0.561041 1.87381 0
M  V30 4691 O 444.72 0.642506 2.63788 0
M  V30 4692 C 443.176 3.09999 1.82835 0
M  V30 4693 C 442.784 4.3662 1.00336 0
M  V30 4694 C 444.528 3.39249 2.55168 0
M  V30 4695 C 442.435 5.62506 1.82595 0
M  V30 4696 H 441.365 0.652877 0.377183 0
M  V30 4697 H 444.016 1.81708 0.255843 0
M  V30 4698 H 442.398 2.97485 2.61378 0
M  V30 4699 H 443.572 4.60055 0.261959 0
M  V30 4700 H 441.887 4.14527 0.394486 0
M  V30 4701 H 444.484 4.3051 3.1712 0
M  V30 4702 H 444.827 2.59467 3.2555 0
M  V30 4703 H 445.36 3.52869 1.83653 0
M  V30 4704 H 442.099 6.45041 1.16631 0
M  V30 4705 H 441.619 5.43211 2.54327 0
M  V30 4706 H 443.298 6.00875 2.39913 0
M  V30 4707 N 443.43 -0.535701 1.48216 0
M  V30 4708 C 444.846 -0.863701 1.3421 0
M  V30 4709 C 445.046 -1.98458 0.34879 0
M  V30 4710 O 444.102 -2.51432 -0.23204 0
M  V30 4711 C 445.415 -1.23662 2.74095 0
M  V30 4712 C 446.963 -1.34683 2.82541 0
M  V30 4713 C 447.438 -1.75322 4.23115 0
M  V30 4714 N 448.929 -1.82434 4.2576 0
M  V30 4715 C 449.664 -2.15252 5.31464 0
M  V30 4716 N 449.16 -2.46533 6.47452 0
M  V30 4717 N 450.953 -2.16209 5.18855 0
M  V30 4718 H 443.104 0.203965 2.11418 0
M  V30 4719 H 445.367 0.0286033 0.947568 0
M  V30 4720 H 445.073 -0.486674 3.48316 0
M  V30 4721 H 444.947 -2.18805 3.07253 0
M  V30 4722 H 447.334 -2.08756 2.08579 0
M  V30 4723 H 447.415 -0.376756 2.5301 0
M  V30 4724 H 447.059 -1.01812 4.97591 0
M  V30 4725 H 446.989 -2.7337 4.50085 0
M  V30 4726 H 449.48 -1.6056 3.42095 0
M  V30 4727 H 449.793 -2.70662 7.23852 0
M  V30 4728 H 448.138 -2.44065 6.50736 0
M  V30 4729 H 451.329 -1.91224 4.2726 0
M  V30 4730 H 451.502 -2.41453 6.01335 0
M  V30 4731 N 444.908 -1.36708 -0.784132 0
M  V30 4732 C 446.133 -1.34565 -1.5782 0
M  V30 4733 C 446.558 0.0695257 -1.87971 0
M  V30 4734 O 445.916 1.04302 -1.48293 0
M  V30 4735 C 445.964 -2.17952 -2.87279 0
M  V30 4736 O 445.068 -1.57563 -3.81114 0
M  V30 4737 H 444.409 -0.460337 -0.478524 0
M  V30 4738 H 446.939 -1.80064 -0.971495 0
M  V30 4739 H 446.949 -2.30721 -3.365 0
M  V30 4740 H 445.624 -3.20823 -2.64661 0
M  V30 4741 H 444.201 -1.53764 -3.39722 0
M  V30 4742 N 446.386 1.0089 -1.21074 0
M  V30 4743 C 447.632 1.74866 -1.02712 0
M  V30 4744 C 447.965 1.89178 0.438787 0
M  V30 4745 O 447.24 1.42325 1.32567 0
M  V30 4746 C 447.523 3.16347 -1.72036 0
M  V30 4747 C 447.376 3.09782 -3.26121 0
M  V30 4748 C 448.695 4.15187 -1.45973 0
M  V30 4749 H 445.814 0.634736 -0.374539 0
M  V30 4750 H 448.456 1.17646 -1.49196 0
M  V30 4751 H 446.606 3.65201 -1.32517 0
M  V30 4752 H 448.278 2.68673 -3.74983 0
M  V30 4753 H 446.521 2.46982 -3.56626 0
M  V30 4754 H 447.192 4.09829 -3.6979 0
M  V30 4755 H 449.668 3.75022 -1.80272 0
M  V30 4756 H 448.544 5.12331 -1.96999 0
M  V30 4757 H 448.805 4.40386 -0.388924 0
M  V30 4758 N 447.864 1.01787 1.20321 0
M  V30 4759 C 449.094 0.72614 1.93419 0
M  V30 4760 C 449.502 -0.717317 1.75075 0
M  V30 4761 O 448.845 -1.49836 1.06278 0
M  V30 4762 C 448.907 0.983621 3.45782 0
M  V30 4763 C 448.571 2.41645 3.87888 0
M  V30 4764 C 449.568 3.39732 3.93545 0
M  V30 4765 C 447.253 2.75752 4.19841 0
M  V30 4766 C 449.247 4.69988 4.30569 0
M  V30 4767 C 446.934 4.06221 4.56539 0
M  V30 4768 C 447.932 5.0315 4.61876 0
M  V30 4769 O 447.62 6.31284 4.97731 0
M  V30 4770 H 447.352 0.265824 0.621541 0
M  V30 4771 H 449.906 1.3623 1.53722 0
M  V30 4772 H 448.136 0.290301 3.85609 0
M  V30 4773 H 449.825 0.683279 4.00108 0
M  V30 4774 H 450.591 3.14718 3.69022 0
M  V30 4775 H 446.47 2.00993 4.14877 0
M  V30 4776 H 450.014 5.45642 4.3465 0
M  V30 4777 H 445.911 4.31013 4.80518 0
M  V30 4778 H 446.679 6.35591 5.15719 0
M  V30 4779 N 449.342 -1.36122 0.79427 0
M  V30 4780 C 450.753 -1.81646 0.431446 0
M  V30 4781 C 451.104 -1.66043 -1.04518 0
M  V30 4782 O 450.229 -1.1841 -1.8113 0
M  V30 4783 C 450.824 -3.29785 0.776341 0
M  V30 4784 C 449.383 -3.73501 0.466282 0
M  V30 4785 C 448.53 -2.58313 1.00844 0
M  V30 4786 H 451.481 -1.24274 0.986995 0
M  V30 4787 H 451.502 -3.80437 0.0692413 0
M  V30 4788 H 451.014 -3.4111 1.8511 0
M  V30 4789 H 449.115 -3.67733 -0.600245 0
M  V30 4790 H 449.228 -4.68754 0.990288 0
M  V30 4791 H 447.592 -2.5102 0.431406 0
M  V30 4792 H 448.375 -2.72421 2.08906 0
M  V30 4793 N 450.82 -0.546701 -1.47814 0
M  V30 4794 C 452.066 -0.0187684 -2.02791 0
M  V30 4795 C 452.399 1.32338 -1.42128 0
M  V30 4796 O 451.674 1.85867 -0.573023 0
M  V30 4797 C 451.957 0.0854985 -3.59998 0
M  V30 4798 C 451.81 -1.283 -4.31114 0
M  V30 4799 C 453.129 0.80412 -4.32691 0
M  V30 4800 H 450.248 -0.0082946 -0.736953 0
M  V30 4801 H 452.89 -0.706962 -1.76358 0
M  V30 4802 H 451.04 0.671609 -3.82651 0
M  V30 4803 H 452.712 -1.91151 -4.19832 0
M  V30 4804 H 450.955 -1.86049 -3.91878 0
M  V30 4805 H 451.626 -1.16287 -5.39612 0
M  V30 4806 H 454.102 0.306576 -4.14969 0
M  V30 4807 H 452.978 0.846011 -5.42341 0
M  V30 4808 H 453.239 1.85802 -4.01161 0
M  V30 4809 N 452.299 1.55045 -0.282633 0
M  V30 4810 C 453.262 2.21515 0.588539 0
M  V30 4811 C 454.262 1.19535 1.07554 0
M  V30 4812 O 455.452 1.44391 0.974514 0
M  V30 4813 C 452.584 2.88704 1.8128 0
M  V30 4814 H 453.777 2.99899 0.00806397 0
M  V30 4815 H 451.33 1.56265 -0.0333067 0
M  V30 4816 H 452.065 2.14352 2.43359 0
M  V30 4817 H 451.85 3.63443 1.47144 0
M  V30 4818 H 453.34 3.39465 2.43214 0
M  V30 4819 N 453.777 0.010035 1.57597 0
M  V30 4820 C 455.002 -0.687021 1.95691 0
M  V30 4821 C 455.427 -1.65952 0.885519 0
M  V30 4822 O 454.785 -1.80633 -0.15543 0
M  V30 4823 C 454.833 -1.3864 3.32884 0
M  V30 4824 O 453.937 -2.50115 3.27897 0
M  V30 4825 H 453.278 -0.181989 0.638573 0
M  V30 4826 H 455.808 0.0662122 2.04493 0
M  V30 4827 H 455.818 -1.74754 3.6868 0
M  V30 4828 H 454.493 -0.673411 4.10412 0
M  V30 4829 H 453.07 -2.16253 3.03791 0
M  V30 4830 N 455.255 -1.55392 -0.262866 0
M  V30 4831 C 456.666 -1.67079 -0.833158 0
M  V30 4832 C 457.017 -0.604539 -1.86654 0
M  V30 4833 O 456.142 0.252138 -2.14926 0
M  V30 4834 C 456.737 -3.02891 -1.51797 0
M  V30 4835 C 455.296 -3.16571 -2.03617 0
M  V30 4836 C 454.443 -2.62909 -0.881701 0
M  V30 4837 H 457.394 -1.58652 -0.0389986 0
M  V30 4838 H 457.415 -2.96445 -2.38538 0
M  V30 4839 H 456.927 -3.80473 -0.765619 0
M  V30 4840 H 455.028 -2.43782 -2.81782 0
M  V30 4841 H 455.141 -4.23271 -2.24452 0
M  V30 4842 H 453.505 -2.20324 -1.27786 0
M  V30 4843 H 454.288 -3.43003 -0.14269 0
M  V30 4844 N 456.733 0.527833 -1.48498 0
M  V30 4845 C 457.681 1.65313 -1.63628 0
M  V30 4846 C 458.675 1.6177 -0.502676 0
M  V30 4847 O 459.881 1.66601 -0.681469 0
M  V30 4848 H 456.256 0.547518 -0.515488 0
M  V30 4849 H 458.227 1.49696 -2.58135 0
M  V30 4850 C 456.976 3.03576 -1.6952 0
M  V30 4851 H 456.299 3.06997 -2.56111 0
M  V30 4852 H 457.739 3.81923 -1.84149 0
M  V30 4853 C 456.198 3.34089 -0.43432 0
M  V30 4854 O 456.728 3.99151 0.451852 0
M  V30 4855 N 454.934 2.88991 -0.305368 0
M  V30 4856 H 454.481 2.36222 -1.02747 0
M  V30 4857 H 454.439 3.09776 0.537249 0
M  V30 4858 N 458.211 1.37122 0.776871 0
M  V30 4859 C 459.121 1.34651 1.9211 0
M  V30 4860 C 460.137 0.246824 1.7224 0
M  V30 4861 O 461.313 0.48134 1.95563 0
M  V30 4862 C 458.378 1.14748 3.2716 0
M  V30 4863 C 457.439 2.34308 3.5972 0
M  V30 4864 C 456.672 2.15345 4.88326 0
M  V30 4865 O 456.895 1.13507 5.58992 0
M  V30 4866 O 455.829 3.03414 5.1983 0
M  V30 4867 H 459.655 2.31013 1.97146 0
M  V30 4868 H 457.24 1.17799 0.918901 0
M  V30 4869 H 459.122 1.05616 4.0795 0
M  V30 4870 H 457.797 0.214562 3.22988 0
M  V30 4871 H 456.704 2.49011 2.79185 0
M  V30 4872 H 458.037 3.26149 3.68629 0
M  V30 4873 N 459.689 -1.00246 1.21608 0
M  V30 4874 C 460.929 -1.75589 1.04631 0
M  V30 4875 C 461.293 -1.87513 -0.412648 0
M  V30 4876 O 462.494 -2.59444 -0.703003 0
M  V30 4877 C 460.765 -3.12893 1.72722 0
M  V30 4878 S 462.324 -4.04095 1.71034 0
M  V30 4879 H 459.142 -0.604133 0.374892 0
M  V30 4880 H 461.744 -1.19927 1.54395 0
M  V30 4881 H 460.448 -3.0185 2.78055 0
M  V30 4882 H 459.979 -3.73628 1.23149 0
M  V30 4883 H 461.994 -4.9045 0.753231 0
M  V30 4884 N 461.167 -1.02423 -1.1978 0
M  V30 4885 C 462.115 -0.594474 -2.24875 0
M  V30 4886 C 463.109 0.370598 -1.65296 0
M  V30 4887 O 464.315 0.239684 -1.78397 0
M  V30 4888 H 460.69 -0.173961 -0.731602 0
M  V30 4889 H 462.661 -1.4916 -2.58445 0
M  V30 4890 C 461.41 0.0436512 -3.47673 0
M  V30 4891 H 460.733 -0.689963 -3.93801 0
M  V30 4892 H 462.173 0.307362 -4.22884 0
M  V30 4893 C 460.632 1.28881 -3.11274 0
M  V30 4894 O 461.162 2.38135 -3.23503 0
M  V30 4895 N 459.368 1.1758 -2.6575 0
M  V30 4896 H 458.915 0.286769 -2.55999 0
M  V30 4897 H 458.873 2.00988 -2.41767 0
M  V30 4898 N 462.645 1.35699 -0.801477 0
M  V30 4899 C 463.577 2.28598 -0.166028 0
M  V30 4900 C 464.59 1.50044 0.631721 0
M  V30 4901 O 465.779 1.72339 0.464921 0
M  V30 4902 C 462.879 3.29625 0.787451 0
M  V30 4903 C 462.052 4.37384 0.037171 0
M  V30 4904 C 461.111 5.183 0.908375 0
M  V30 4905 O 460.137 5.68053 0.361189 0
M  V30 4906 N 461.339 5.35912 2.23112 0
M  V30 4907 H 464.104 2.83771 -0.964071 0
M  V30 4908 H 461.665 1.47994 -0.656469 0
M  V30 4909 H 463.657 3.80648 1.37439 0
M  V30 4910 H 462.227 2.75004 1.48632 0
M  V30 4911 H 461.447 3.87364 -0.730935 0
M  V30 4912 H 462.735 5.0653 -0.480109 0
M  V30 4913 H 462.133 4.97125 2.69968 0
M  V30 4914 H 460.69 5.90133 2.76741 0
M  V30 4915 N 464.123 0.554532 1.47522 0
M  V30 4916 C 465.056 -0.242442 2.26908 0
M  V30 4917 C 466.034 -0.922722 1.33883 0
M  V30 4918 O 467.218 -0.942244 1.63261 0
M  V30 4919 C 464.345 -1.34525 3.10839 0
M  V30 4920 C 463.391 -0.773805 4.19422 0
M  V30 4921 S 464.224 0.377525 5.34168 0
M  V30 4922 C 465.38 -0.727164 6.21662 0
M  V30 4923 H 465.613 0.431218 2.94156 0
M  V30 4924 H 463.146 0.3408 1.50592 0
M  V30 4925 H 465.104 -1.97683 3.59766 0
M  V30 4926 H 463.765 -1.99073 2.42958 0
M  V30 4927 H 462.958 -1.60187 4.77866 0
M  V30 4928 H 462.56 -0.218448 3.73361 0
M  V30 4929 H 464.852 -1.61992 6.57849 0
M  V30 4930 H 465.795 -0.180135 7.07871 0
M  V30 4931 H 466.203 -1.01863 5.55233 0
M  V30 4932 N 465.601 -1.54893 0.290851 0
M  V30 4933 C 466.841 -2.01842 -0.322388 0
M  V30 4934 C 467.205 -1.17477 -1.51865 0
M  V30 4935 O 468.406 -1.54077 -2.20258 0
M  V30 4936 C 466.677 -3.50874 -0.679844 0
M  V30 4937 S 468.236 -4.19796 -1.27739 0
M  V30 4938 H 465.054 -0.704005 -0.0994866 0
M  V30 4939 H 467.656 -1.91015 0.416358 0
M  V30 4940 H 466.36 -4.09915 0.199435 0
M  V30 4941 H 465.891 -3.65717 -1.44964 0
M  V30 4942 H 467.906 -4.24729 -2.56554 0
M  V30 4943 N 467.08 -0.0183926 -1.57589 0
M  V30 4944 C 468.01 0.965596 -2.12599 0
M  V30 4945 C 468.991 1.34641 -1.0395 0
M  V30 4946 O 470.176 1.42693 -1.31729 0
M  V30 4947 C 467.306 2.25149 -2.64434 0
M  V30 4948 C 466.26 2.01175 -3.77773 0
M  V30 4949 C 465.586 3.35937 -4.15994 0
M  V30 4950 C 466.886 1.35953 -5.04296 0
M  V30 4951 H 468.58 0.507504 -2.95067 0
M  V30 4952 H 466.126 0.242671 -1.41941 0
M  V30 4953 H 468.079 2.94357 -3.01549 0
M  V30 4954 H 466.803 2.73105 -1.79112 0
M  V30 4955 H 465.462 1.34388 -3.4108 0
M  V30 4956 H 465.11 3.81631 -3.27669 0
M  V30 4957 H 464.81 3.20705 -4.92364 0
M  V30 4958 H 466.334 4.0643 -4.55683 0
M  V30 4959 H 467.748 1.95144 -5.39065 0
M  V30 4960 H 466.145 1.31152 -5.85593 0
M  V30 4961 H 467.215 0.331071 -4.83768 0
M  V30 4962 N 468.558 1.5553 0.254621 0
M  V30 4963 C 469.783 1.81383 1.00573 0
M  V30 4964 C 470.208 0.594419 1.78461 0
M  V30 4965 O 469.566 -0.456403 1.75461 0
M  V30 4966 C 469.614 3.04892 1.92545 0
M  V30 4967 O 468.718 2.81266 3.01601 0
M  V30 4968 H 468.059 0.598969 0.286587 0
M  V30 4969 H 470.589 2.02703 0.277952 0
M  V30 4970 H 470.599 3.34119 2.34155 0
M  V30 4971 H 469.274 3.93287 1.3527 0
M  V30 4972 H 467.851 2.63185 2.64174 0
M  V30 4973 N 470.036 -0.519951 1.48776 0
M  V30 4974 C 471.264 -1.29971 1.60982 0
M  V30 4975 C 471.679 -1.86803 0.273885 0
M  V30 4976 O 471.036 -1.66904 -0.738193 0
M  V30 4977 C 471.087 -2.44346 2.66415 0
M  V30 4978 O 470.808 -1.89855 3.94825 0
M  V30 4979 C 472.309 -3.36014 2.89153 0
M  V30 4980 H 469.529 -0.394891 0.542496 0
M  V30 4981 H 472.073 -0.626214 1.94676 0
M  V30 4982 H 470.228 -3.07562 2.35552 0
M  V30 4983 H 470.642 -2.64798 4.5275 0
M  V30 4984 H 472.116 -4.12593 3.66703 0
M  V30 4985 H 472.593 -3.91859 1.98351 0
M  V30 4986 H 473.199 -2.78582 3.21359 0
M  V30 4987 N 471.514 -1.37532 -0.769588 0
M  V30 4988 C 472.444 -1.36172 -1.89682 0
M  V30 4989 C 473.425 -0.23001 -1.68538 0
M  V30 4990 O 474.61 -0.43069 -1.89364 0
M  V30 4991 C 471.74 -1.1701 -3.26995 0
M  V30 4992 C 470.694 -2.27216 -3.62708 0
M  V30 4993 C 470.02 -1.93174 -4.98586 0
M  V30 4994 C 471.32 -3.6941 -3.69234 0
M  V30 4995 H 473.014 -2.30499 -1.91078 0
M  V30 4996 H 470.56 -1.10953 -0.917902 0
M  V30 4997 H 472.513 -1.14688 -4.05493 0
M  V30 4998 H 471.237 -0.191395 -3.26039 0
M  V30 4999 H 469.896 -2.28697 -2.86519 0
M  V30 5000 H 469.544 -0.938281 -4.94171 0
M  V30 5001 H 469.244 -2.66973 -5.23449 0
M  V30 5002 H 470.768 -1.92443 -5.79481 0
M  V30 5003 H 472.182 -3.70047 -4.37879 0
M  V30 5004 H 470.579 -4.4228 -4.05597 0
M  V30 5005 H 471.649 -4.0288 -2.69844 0
M  V30 5006 N 472.992 0.995999 -1.22138 0
M  V30 5007 C 473.925 2.08302 -0.931952 0
M  V30 5008 C 474.903 1.62127 0.123956 0
M  V30 5009 O 476.087 1.88499 -0.00696004 0
M  V30 5010 C 473.214 3.36317 -0.401068 0
M  V30 5011 C 472.26 4.01413 -1.44117 0
M  V30 5012 S 473.093 4.42664 -3.01345 0
M  V30 5013 C 474.249 5.73853 -2.49887 0
M  V30 5014 H 474.482 2.32532 -1.85246 0
M  V30 5015 H 472.015 1.13005 -1.0521 0
M  V30 5016 H 473.973 4.10375 -0.101352 0
M  V30 5017 H 472.634 3.10123 0.498272 0
M  V30 5018 H 471.827 4.9358 -1.01952 0
M  V30 5019 H 471.429 3.33668 -1.68943 0
M  V30 5020 H 473.721 6.50039 -1.90934 0
M  V30 5021 H 474.664 6.20841 -3.40532 0
M  V30 5022 H 475.072 5.31105 -1.9128 0
M  V30 5023 N 474.47 1.03057 1.19235 0
M  V30 5024 C 475.417 0.612832 2.22515 0
M  V30 5025 C 476.387 -0.374224 1.61829 0
M  V30 5026 O 477.572 -0.270501 1.88873 0
M  V30 5027 C 474.712 -0.028475 3.45088 0
M  V30 5028 C 473.825 1.00483 4.20151 0
M  V30 5029 C 472.96 0.333102 5.30155 0
M  V30 5030 C 471.999 1.3522 5.96977 0
M  V30 5031 N 471.136 0.70616 6.9854 0
M  V30 5032 H 475.976 1.49812 2.57605 0
M  V30 5033 H 473.513 0.749658 1.26564 0
M  V30 5034 H 475.471 -0.417548 4.15105 0
M  V30 5035 H 474.101 -0.877334 3.10649 0
M  V30 5036 H 473.153 1.51194 3.49062 0
M  V30 5037 H 474.465 1.77929 4.65986 0
M  V30 5038 H 473.619 -0.110725 6.06599 0
M  V30 5039 H 472.358 -0.473547 4.85396 0
M  V30 5040 H 471.363 1.80627 5.19282 0
M  V30 5041 H 472.588 2.16037 6.4382 0
M  V30 5042 H 470.534 -0.0803667 6.55951 0
M  V30 5043 H 470.451 1.41848 7.42573 0
M  V30 5044 H 471.719 0.286391 7.78974 0
M  V30 5045 N 475.948 -1.35272 0.808662 0
M  V30 5046 C 477.188 -2.00534 0.395668 0
M  V30 5047 C 477.552 -1.62755 -1.01857 0
M  V30 5048 O 478.753 -2.20752 -1.53368 0
M  V30 5049 C 477.024 -3.52732 0.575771 0
M  V30 5050 S 478.583 -4.38067 0.253507 0
M  V30 5051 H 475.401 -0.694962 0.150165 0
M  V30 5052 H 478.003 -1.64823 1.05137 0
M  V30 5053 H 476.707 -3.77714 1.60499 0
M  V30 5054 H 476.238 -3.93285 -0.0951739 0
M  V30 5055 H 478.253 -4.87252 -0.938068 0
M  V30 5056 N 477.426 -0.562348 -1.47226 0
M  V30 5057 C 478.703 0.0256985 -1.95583 0
M  V30 5058 C 479.083 1.48032 -1.50498 0
M  V30 5059 O 478.431 2.15973 -0.746181 0
M  V30 5060 C 478.641 -0.125129 -3.48776 0
M  V30 5061 C 479.989 0.0175728 -4.24596 0
M  V30 5062 O 481.013 -0.0529341 -3.56161 0
M  V30 5063 O 479.872 0.170145 -5.46235 0
M  V30 5064 H 476.966 0.0612565 -0.824728 0
M  V30 5065 H 479.512 -0.629233 -1.57603 0
M  V30 5066 H 478.284 -1.13715 -3.74412 0
M  V30 5067 H 477.907 0.567178 -3.93534 0
M  V30 5068 N 478.904 1.54736 -0.299062 0
M  V30 5069 C 479.854 2.20155 0.592932 0
M  V30 5070 C 480.838 1.1739 1.10038 0
M  V30 5071 O 482.03 1.43116 1.04147 0
M  V30 5072 C 479.159 2.94437 1.76527 0
M  V30 5073 C 478.245 4.04516 1.27388 0
M  V30 5074 N 478.636 5.03319 0.500339 0
M  V30 5075 C 476.934 4.18022 1.55478 0
M  V30 5076 C 477.635 5.81209 0.238909 0
M  V30 5077 N 476.611 5.37408 0.818163 0
M  V30 5078 H 480.413 2.93899 -0.00563596 0
M  V30 5079 H 477.927 1.62068 -0.103732 0
M  V30 5080 H 479.924 3.3977 2.41582 0
M  V30 5081 H 478.584 2.22209 2.36756 0
M  V30 5082 H 479.595 5.17696 0.145419 0
M  V30 5083 H 476.272 3.56998 2.16469 0
M  V30 5084 H 477.662 6.70812 -0.382223 0
M  V30 5085 N 480.382 0.0267497 1.57577 0
M  V30 5086 C 481.622 -0.65659 1.93567 0
M  V30 5087 C 481.986 -1.69429 0.903213 0
M  V30 5088 O 483.187 -2.42994 1.14923 0
M  V30 5089 C 481.458 -1.25912 3.34486 0
M  V30 5090 S 483.017 -1.96386 3.924 0
M  V30 5091 H 479.835 -0.216237 0.67732 0
M  V30 5092 H 482.437 0.0898475 1.95293 0
M  V30 5093 H 481.141 -0.491405 4.07447 0
M  V30 5094 H 480.672 -2.04291 3.36198 0
M  V30 5095 H 482.687 -3.24202 3.75643 0
M  V30 5096 N 481.861 -1.55662 -0.24637 0
M  V30 5097 C 483.109 -1.77168 -0.972411 0
M  V30 5098 C 483.43 -0.590827 -1.85834 0
M  V30 5099 O 482.7 0.393365 -1.9191 0
M  V30 5100 H 481.28 -0.653405 -0.362038 0
M  V30 5101 H 483.942 -1.93101 -0.264189 0
M  V30 5102 H 483.038 -2.68335 -1.59382 0
M  V30 5103 N 483.339 0.512053 -1.4905 0
M  V30 5104 C 484.249 1.64139 -1.67617 0
M  V30 5105 C 485.265 1.64786 -0.558701 0
M  V30 5106 O 486.441 1.8341 -0.832034 0
M  V30 5107 C 483.506 3.00548 -1.72835 0
M  V30 5108 C 482.567 3.10615 -2.96339 0
M  V30 5109 C 481.8 4.40517 -3.01298 0
M  V30 5110 O 482.023 5.28671 -2.14157 0
M  V30 5111 O 480.957 4.55325 -3.93653 0
M  V30 5112 H 484.783 1.51407 -2.63267 0
M  V30 5113 H 482.368 0.687131 -1.32661 0
M  V30 5114 H 484.25 3.81641 -1.78683 0
M  V30 5115 H 482.925 3.13566 -0.803616 0
M  V30 5116 H 481.832 2.2875 -2.96014 0
M  V30 5117 H 483.165 3.0252 -3.88256 0
M  V30 5118 N 484.817 1.37938 0.762283 0
M  V30 5119 C 486.045 1.36883 1.55147 0
M  V30 5120 C 486.46 -0.0435348 1.8875 0
M  V30 5121 O 485.817 -1.00786 1.52146 0
M  V30 5122 C 485.868 2.21624 2.85596 0
M  V30 5123 O 485.589 3.57358 2.5343 0
M  V30 5124 C 487.09 2.28653 3.7978 0
M  V30 5125 H 484.31 0.468521 0.480343 0
M  V30 5126 H 486.854 1.81404 0.944079 0
M  V30 5127 H 485.009 1.80588 3.42734 0
M  V30 5128 H 485.423 4.01883 3.37032 0
M  V30 5129 H 486.897 2.9225 4.68288 0
M  V30 5130 H 487.374 1.29767 4.19592 0
M  V30 5131 H 487.98 2.70043 3.28568 0
M  V30 5132 N 486.295 -0.989507 1.22664 0
M  V30 5133 C 487.52 -1.77031 1.08051 0
M  V30 5134 C 487.945 -1.84535 -0.364483 0
M  V30 5135 O 487.303 -1.3003 -1.2634 0
M  V30 5136 C 487.351 -3.18 1.70024 0
M  V30 5137 O 486.455 -4.01161 0.956216 0
M  V30 5138 H 485.796 -0.545008 0.379292 0
M  V30 5139 H 488.326 -1.24277 1.62531 0
M  V30 5140 H 488.336 -3.68616 1.74888 0
M  V30 5141 H 487.011 -3.11853 2.75174 0
M  V30 5142 H 485.588 -3.59687 0.98384 0
M  V30 5143 N 487.773 -1.03688 -1.18687 0
M  V30 5144 C 489.019 -0.74888 -1.89112 0
M  V30 5145 C 489.374 0.715345 -1.78607 0
M  V30 5146 O 488.667 1.51498 -1.17299 0
M  V30 5147 C 488.861 -1.14477 -3.3857 0
M  V30 5148 C 488.69 -2.64594 -3.63621 0
M  V30 5149 C 487.46 -3.31685 -3.812 0
M  V30 5150 C 489.658 -3.62811 -3.64517 0
M  V30 5151 N 487.64 -4.70822 -3.93955 0
M  V30 5152 C 489.011 -4.87603 -3.8294 0
M  V30 5153 C 491.066 -3.56495 -3.47585 0
M  V30 5154 C 489.769 -6.0684 -3.86184 0
M  V30 5155 C 491.795 -4.75155 -3.52111 0
M  V30 5156 C 491.157 -5.98765 -3.71026 0
M  V30 5157 H 487.256 -0.32603 -0.710794 0
M  V30 5158 H 489.84 -1.3258 -1.42586 0
M  V30 5159 H 488.011 -0.595974 -3.838 0
M  V30 5160 H 489.743 -0.808187 -3.96548 0
M  V30 5161 H 486.498 -2.82091 -3.80423 0
M  V30 5162 H 486.922 -5.43122 -4.04163 0
M  V30 5163 H 491.564 -2.61907 -3.31911 0
M  V30 5164 H 489.282 -7.01788 -4.00648 0
M  V30 5165 H 492.868 -4.71905 -3.40289 0
M  V30 5166 H 491.748 -6.89047 -3.74412 0
M  V30 5167 N 489.251 1.34841 -0.815825 0
M  V30 5168 C 490.183 2.28409 -0.190265 0
M  V30 5169 C 491.196 1.50705 0.615771 0
M  V30 5170 O 492.385 1.72822 0.446616 0
M  V30 5171 C 489.485 3.30441 0.752446 0
M  V30 5172 C 488.658 4.37399 -0.00922152 0
M  V30 5173 C 487.717 5.19234 0.853351 0
M  V30 5174 O 486.743 5.68404 0.300919 0
M  V30 5175 N 487.945 5.38248 2.17416 0
M  V30 5176 H 490.71 2.82732 -0.994114 0
M  V30 5177 H 488.271 1.47289 -0.672129 0
M  V30 5178 H 490.263 3.82084 1.33394 0
M  V30 5179 H 488.833 2.76565 1.45707 0
M  V30 5180 H 488.053 3.86567 -0.771979 0
M  V30 5181 H 489.341 5.05992 -0.533807 0
M  V30 5182 H 488.739 4.99961 2.6468 0
M  V30 5183 H 487.296 5.93035 2.70467 0
M  V30 5184 N 490.729 0.570148 1.46925 0
M  V30 5185 C 491.957 0.0561966 2.06824 0
M  V30 5186 C 492.372 -1.24326 1.42086 0
M  V30 5187 O 491.729 -1.74882 0.521794 0
M  V30 5188 C 491.78 -0.129517 3.61268 0
M  V30 5189 O 491.501 1.1185 4.23581 0
M  V30 5190 C 493.002 -0.679266 4.38065 0
M  V30 5191 H 490.222 0.0517261 0.669003 0
M  V30 5192 H 492.766 0.787243 1.8874 0
M  V30 5193 H 490.921 -0.810739 3.78822 0
M  V30 5194 H 491.335 0.924375 5.1629 0
M  V30 5195 H 492.809 -0.758445 5.46765 0
M  V30 5196 H 493.286 -1.69346 4.05239 0
M  V30 5197 H 493.892 -0.0333237 4.25287 0
M  V30 5198 N 492.207 -1.54576 0.307264 0
M  V30 5199 C 493.455 -1.99867 -0.299574 0
M  V30 5200 C 493.776 -1.19714 -1.53927 0
M  V30 5201 O 493.046 -0.29472 -1.9367 0
M  V30 5202 H 491.626 -0.738299 -0.113683 0
M  V30 5203 H 494.288 -1.9032 0.420042 0
M  V30 5204 H 493.384 -3.06901 -0.567283 0
M  V30 5205 N 493.685 -0.035106 -1.57561 0
M  V30 5206 C 494.962 0.681212 -1.83354 0
M  V30 5207 C 495.342 1.89986 -0.920252 0
M  V30 5208 O 494.69 2.28489 0.0226815 0
M  V30 5209 C 494.9 1.05376 -3.32712 0
M  V30 5210 C 496.248 1.44286 -3.99333 0
M  V30 5211 O 497.272 1.14656 -3.37242 0
M  V30 5212 O 496.131 1.99518 -5.08778 0
M  V30 5213 H 493.225 0.334741 -0.756226 0
M  V30 5214 H 495.771 -0.0632448 -1.69582 0
M  V30 5215 H 494.543 0.186668 -3.90854 0
M  V30 5216 H 494.166 1.85619 -3.51613 0
M  V30 5217 N 495.163 1.55791 0.238111 0
M  V30 5218 C 496.41 1.78033 0.964907 0
M  V30 5219 C 496.738 0.600984 1.84982 0
M  V30 5220 O 495.993 -0.41536 1.91241 0
M  V30 5221 C 496.292 3.05869 1.84875 0
M  V30 5222 C 495.958 4.36808 1.11846 0
M  V30 5223 C 494.62 4.72388 0.916662 0
M  V30 5224 C 496.972 5.17717 0.60151 0
M  V30 5225 C 494.3 5.86406 0.185756 0
M  V30 5226 C 496.652 6.32494 -0.115972 0
M  V30 5227 C 495.316 6.66688 -0.329168 0
M  V30 5228 H 494.586 0.651469 0.353085 0
M  V30 5229 H 497.233 1.90061 0.234318 0
M  V30 5230 H 495.538 2.88891 2.64668 0
M  V30 5231 H 497.235 3.20278 2.41294 0
M  V30 5232 H 493.825 4.08862 1.28569 0
M  V30 5233 H 498.009 4.90678 0.744932 0
M  V30 5234 H 493.265 6.11399 0.0101886 0
M  V30 5235 H 497.439 6.94425 -0.524127 0
M  V30 5236 H 495.066 7.54884 -0.897474 0
M  V30 5237 N 496.642 -0.504142 1.49319 0
M  V30 5238 C 497.888 -1.26033 1.58882 0
M  V30 5239 C 498.221 -1.92268 0.273274 0
M  V30 5240 O 497.496 -1.80567 -0.72291 0
M  V30 5241 C 497.779 -2.32976 2.7458 0
M  V30 5242 C 497.632 -1.71263 4.1592 0
M  V30 5243 C 498.951 -3.34561 2.85932 0
M  V30 5244 H 496.07 -0.456863 0.578312 0
M  V30 5245 H 498.712 -0.558965 1.81592 0
M  V30 5246 H 496.862 -2.92796 2.55348 0
M  V30 5247 H 498.534 -1.15294 4.4666 0
M  V30 5248 H 496.777 -1.01686 4.21714 0
M  V30 5249 H 497.448 -2.48816 4.92742 0
M  V30 5250 H 499.924 -2.84727 3.0343 0
M  V30 5251 H 498.8 -4.06754 3.68568 0
M  V30 5252 H 499.061 -3.96695 1.95154 0
M  V30 5253 N 498.12 -1.38341 -0.754957 0
M  V30 5254 C 499.067 -1.3546 -1.86867 0
M  V30 5255 C 500.037 -0.217369 -1.64672 0
M  V30 5256 O 501.222 -0.409383 -1.86356 0
M  V30 5257 C 498.362 -1.18413 -3.24149 0
M  V30 5258 C 497.475 -2.41511 -3.58185 0
M  V30 5259 C 496.61 -2.17205 -4.84763 0
M  V30 5260 C 495.649 -3.36081 -5.11582 0
M  V30 5261 N 494.786 -3.11219 -6.29354 0
M  V30 5262 H 499.626 -2.30672 -1.88664 0
M  V30 5263 H 497.163 -1.14607 -0.922154 0
M  V30 5264 H 499.121 -1.06545 -4.03366 0
M  V30 5265 H 497.751 -0.268397 -3.21682 0
M  V30 5266 H 496.803 -2.64056 -2.73822 0
M  V30 5267 H 498.115 -3.30115 -3.73932 0
M  V30 5268 H 497.269 -2.02465 -5.7192 0
M  V30 5269 H 496.008 -1.25964 -4.71152 0
M  V30 5270 H 495.013 -3.51341 -4.22894 0
M  V30 5271 H 496.238 -4.28196 -5.27091 0
M  V30 5272 H 494.184 -2.22624 -6.17069 0
M  V30 5273 H 494.101 -3.93373 -6.45596 0
M  V30 5274 H 495.369 -3.00132 -7.19403 0
M  V30 5275 N 499.598 0.982988 -1.23187 0
M  V30 5276 C 500.561 2.05649 -1.01198 0
M  V30 5277 C 501.561 1.6078 0.0252464 0
M  V30 5278 O 502.751 1.72878 -0.214243 0
M  V30 5279 C 499.883 3.36744 -0.530656 0
M  V30 5280 H 501.076 2.2659 -1.96461 0
M  V30 5281 H 498.629 1.15602 -1.05195 0
M  V30 5282 H 499.364 3.21492 0.425873 0
M  V30 5283 H 499.149 3.7065 -1.2791 0
M  V30 5284 H 500.639 4.15705 -0.397366 0
M  V30 5285 N 501.076 1.04316 1.18135 0
M  V30 5286 C 502.304 0.768117 1.92113 0
M  V30 5287 C 502.719 -0.675057 1.76319 0
M  V30 5288 O 502.076 -1.46038 1.09449 0
M  V30 5289 C 502.127 1.12808 3.43448 0
M  V30 5290 O 501.848 2.5146 3.58747 0
M  V30 5291 C 503.349 0.8779 4.3452 0
M  V30 5292 H 500.569 0.279937 0.609817 0
M  V30 5293 H 503.113 1.39149 1.49859 0
M  V30 5294 H 501.268 0.549623 3.83481 0
M  V30 5295 H 501.682 2.65313 4.52448 0
M  V30 5296 H 503.156 1.17959 5.39249 0
M  V30 5297 H 503.633 -0.187239 4.38801 0
M  V30 5298 H 504.239 1.43977 4.00188 0
M  V30 5299 N 502.554 -1.34406 0.822964 0
M  V30 5300 C 503.794 -2.00103 0.416915 0
M  V30 5301 C 504.158 -1.63826 -1.00125 0
M  V30 5302 O 505.359 -2.22367 -1.51018 0
M  V30 5303 C 503.63 -3.52101 0.613151 0
M  V30 5304 S 505.189 -4.37774 0.299956 0
M  V30 5305 H 502.007 -0.69333 0.157527 0
M  V30 5306 H 504.609 -1.63698 1.06879 0
M  V30 5307 H 503.313 -3.75991 1.64496 0
M  V30 5308 H 502.844 -3.93364 -0.0534554 0
M  V30 5309 H 504.859 -4.8822 -0.886336 0
M  V30 5310 N 504.032 -0.577932 -1.46621 0
M  V30 5311 C 504.942 0.160651 -2.34049 0
M  V30 5312 C 505.958 0.890911 -1.49462 0
M  V30 5313 O 507.134 0.855166 -1.82343 0
M  V30 5314 C 504.199 1.16447 -3.26559 0
M  V30 5315 C 503.26 0.4394 -4.27045 0
M  V30 5316 C 502.493 1.3954 -5.15135 0
M  V30 5317 O 502.716 2.63162 -5.06065 0
M  V30 5318 O 501.65 0.908585 -5.95003 0
M  V30 5319 H 505.476 -0.557057 -2.98547 0
M  V30 5320 H 503.061 -0.338369 -1.45518 0
M  V30 5321 H 504.943 1.7434 -3.83645 0
M  V30 5322 H 503.618 1.86373 -2.64663 0
M  V30 5323 H 502.525 -0.181247 -3.73661 0
M  V30 5324 H 503.858 -0.218799 -4.91713 0
M  V30 5325 N 505.51 1.54411 -0.315457 0
M  V30 5326 C 506.757 2.00419 0.289543 0
M  V30 5327 C 507.085 1.20373 1.52776 0
M  V30 5328 O 506.34 0.271769 1.93804 0
M  V30 5329 C 506.639 3.50936 0.676652 0
M  V30 5330 C 506.305 4.48532 -0.461472 0
M  V30 5331 C 504.967 4.74936 -0.773879 0
M  V30 5332 C 507.319 5.06567 -1.22637 0
M  V30 5333 C 504.647 5.56634 -1.85405 0
M  V30 5334 C 506.999 5.89441 -2.29657 0
M  V30 5335 C 505.663 6.1415 -2.61488 0
M  V30 5336 H 504.933 0.733386 0.105951 0
M  V30 5337 H 507.58 1.86434 -0.437554 0
M  V30 5338 H 505.885 3.62606 1.48405 0
M  V30 5339 H 507.582 3.83971 1.15618 0
M  V30 5340 H 504.172 4.28096 -0.207893 0
M  V30 5341 H 508.356 4.86157 -0.998271 0
M  V30 5342 H 503.612 5.74012 -2.10523 0
M  V30 5343 H 507.786 6.33432 -2.89374 0
M  V30 5344 H 505.413 6.77245 -3.45317 0
M  V30 5345 N 506.988 0.0434614 1.5754 0
M  V30 5346 C 508.228 -0.636023 1.94253 0
M  V30 5347 C 508.592 -1.68461 0.921132 0
M  V30 5348 O 509.793 -2.41762 1.17494 0
M  V30 5349 C 508.064 -1.22357 3.35803 0
M  V30 5350 S 509.623 -1.92213 3.94461 0
M  V30 5351 H 506.441 -0.209041 0.679575 0
M  V30 5352 H 509.043 0.110556 1.95187 0
M  V30 5353 H 507.747 -0.448162 4.07946 0
M  V30 5354 H 507.278 -2.00713 3.38346 0
M  V30 5355 H 509.293 -3.20199 3.79061 0
M  V30 5356 N 508.466 -1.55915 -0.229846 0
M  V30 5357 C 509.714 -1.7819 -0.953565 0
M  V30 5358 C 510.035 -0.610504 -1.85197 0
M  V30 5359 O 509.305 0.372988 -1.92316 0
M  V30 5360 H 507.885 -0.657208 -0.355087 0
M  V30 5361 H 510.547 -1.9337 -0.243693 0
M  V30 5362 H 509.643 -2.70011 -1.56527 0
M  V30 5363 N 509.944 0.496216 -1.49584 0
M  V30 5364 C 511.172 1.27394 -1.63029 0
M  V30 5365 C 511.587 1.86344 -0.303569 0
M  V30 5366 O 510.944 1.68057 0.711547 0
M  V30 5367 C 510.995 2.40077 -2.70269 0
M  V30 5368 O 510.716 1.83549 -3.97796 0
M  V30 5369 C 512.217 3.31372 -2.94462 0
M  V30 5370 H 509.437 0.386211 -0.54871 0
M  V30 5371 H 511.981 0.595163 -1.95648 0
M  V30 5372 H 510.136 3.03775 -2.40415 0
M  V30 5373 H 510.55 2.57561 -4.56905 0
M  V30 5374 H 512.024 4.06707 -3.73221 0
M  V30 5375 H 512.501 3.88654 -2.0456 0
M  V30 5376 H 513.107 2.73435 -3.25751 0
M  V30 5377 N 511.423 1.38739 0.74761 0
M  V30 5378 C 512.333 1.38696 1.89211 0
M  V30 5379 C 513.349 0.283303 1.71678 0
M  V30 5380 O 514.525 0.522713 1.94498 0
M  V30 5381 C 511.59 1.21662 3.24653 0
M  V30 5382 C 510.651 2.41886 3.54669 0
M  V30 5383 C 509.884 2.25655 4.83648 0
M  V30 5384 O 510.107 1.25339 5.56459 0
M  V30 5385 O 509.041 3.14372 5.13277 0
M  V30 5386 H 512.867 2.35143 1.92202 0
M  V30 5387 H 510.452 1.19721 0.893708 0
M  V30 5388 H 512.334 1.14246 4.05618 0
M  V30 5389 H 511.009 0.283024 3.2246 0
M  V30 5390 H 509.916 2.54877 2.73841 0
M  V30 5391 H 511.249 3.33895 3.61628 0
M  V30 5392 N 512.901 -0.976442 1.23707 0
M  V30 5393 C 513.849 -2.09078 1.01927 0
M  V30 5394 C 514.843 -1.69345 -0.0430193 0
M  V30 5395 O 516.049 -1.79659 0.110814 0
M  V30 5396 H 512.424 -0.68398 0.312531 0
M  V30 5397 H 514.395 -2.24614 1.96447 0
M  V30 5398 C 513.144 -3.41919 0.631385 0
M  V30 5399 H 512.467 -3.72946 1.44053 0
M  V30 5400 H 513.907 -4.20817 0.518532 0
M  V30 5401 C 512.366 -3.30357 -0.660723 0
M  V30 5402 O 512.896 -3.63542 -1.70881 0
M  V30 5403 N 511.102 -2.83507 -0.638139 0
M  V30 5404 H 510.649 -2.567 0.215108 0
M  V30 5405 H 510.607 -2.76153 -1.50289 0
M  V30 5406 N 514.379 -1.04941 -1.1758 0
M  V30 5407 C 515.309 -0.669172 -2.23706 0
M  V30 5408 C 516.29 0.331835 -1.66832 0
M  V30 5409 O 517.475 0.209988 -1.93061 0
M  V30 5410 C 514.605 -0.0404889 -3.47276 0
M  V30 5411 C 513.559 -0.965983 -4.16957 0
M  V30 5412 C 512.885 -0.201312 -5.34321 0
M  V30 5413 C 514.185 -2.28902 -4.69469 0
M  V30 5414 H 515.879 -1.55639 -2.55767 0
M  V30 5415 H 513.425 -0.749793 -1.22939 0
M  V30 5416 H 515.378 0.237298 -4.20731 0
M  V30 5417 H 514.102 0.881658 -3.14475 0
M  V30 5418 H 512.761 -1.22829 -3.45411 0
M  V30 5419 H 512.409 0.723519 -4.97769 0
M  V30 5420 H 512.109 -0.817968 -5.81879 0
M  V30 5421 H 513.633 0.0692499 -6.10561 0
M  V30 5422 H 515.047 -2.07132 -5.34574 0
M  V30 5423 H 513.444 -2.85942 -5.27596 0
M  V30 5424 H 514.514 -2.92937 -3.86414 0
M  V30 5425 N 515.857 1.33968 -0.830081 0
M  V30 5426 C 517.085 2.0228 -0.434773 0
M  V30 5427 C 517.5 1.62487 0.961419 0
M  V30 5428 O 516.857 0.833849 1.62337 0
M  V30 5429 C 516.908 3.5751 -0.535625 0
M  V30 5430 O 516.629 3.95864 -1.87679 0
M  V30 5431 C 518.13 4.43091 -0.136137 0
M  V30 5432 H 515.35 0.648151 -0.173613 0
M  V30 5433 H 517.894 1.71089 -1.12022 0
M  V30 5434 H 516.049 3.87266 0.101817 0
M  V30 5435 H 516.463 4.9056 -1.85609 0
M  V30 5436 H 517.937 5.51398 -0.257772 0
M  V30 5437 H 518.414 4.29433 0.921076 0
M  V30 5438 H 519.02 4.18677 -0.747662 0
M  V30 5439 N 517.335 0.585699 1.46312 0
M  V30 5440 C 518.282 -0.145835 2.30339 0
M  V30 5441 C 519.252 -0.881215 1.40797 0
M  V30 5442 O 520.437 -0.871293 1.69744 0
M  V30 5443 C 517.577 -1.15161 3.25318 0
M  V30 5444 C 516.69 -0.419367 4.2996 0
M  V30 5445 C 515.825 -1.41293 5.12064 0
M  V30 5446 C 514.864 -0.667261 6.08452 0
M  V30 5447 N 514.001 -1.60903 6.83414 0
M  V30 5448 H 518.841 0.576755 2.92365 0
M  V30 5449 H 516.378 0.296237 1.44086 0
M  V30 5450 H 518.336 -1.74763 3.78832 0
M  V30 5451 H 516.966 -1.84188 2.65094 0
M  V30 5452 H 516.018 0.291751 3.7928 0
M  V30 5453 H 517.33 0.163433 4.98532 0
M  V30 5454 H 516.484 -2.08167 5.6987 0
M  V30 5455 H 515.223 -2.02966 4.43459 0
M  V30 5456 H 514.228 0.0152356 5.49798 0
M  V30 5457 H 515.453 -0.0558817 6.79077 0
M  V30 5458 H 513.399 -2.21381 6.17516 0
M  V30 5459 H 513.316 -1.07911 7.48259 0
M  V30 5460 H 514.584 -2.26802 7.45775 0
M  V30 5461 N 518.813 -1.54241 0.323641 0
M  V30 5462 C 519.723 -2.28033 -0.551205 0
M  V30 5463 C 520.739 -1.32388 -1.12913 0
M  V30 5464 O 521.915 -1.65403 -1.14908 0
M  V30 5465 C 518.98 -3.02382 -1.69606 0
M  V30 5466 C 518.041 -4.13612 -1.14993 0
M  V30 5467 C 517.274 -4.84407 -2.24022 0
M  V30 5468 O 517.497 -4.54716 -3.44368 0
M  V30 5469 O 516.431 -5.71312 -1.89436 0
M  V30 5470 H 520.257 -3.03662 0.048066 0
M  V30 5471 H 517.842 -1.49133 0.0893289 0
M  V30 5472 H 519.724 -3.48941 -2.36259 0
M  V30 5473 H 518.399 -2.29628 -2.28151 0
M  V30 5474 H 517.306 -3.71402 -0.448484 0
M  V30 5475 H 518.639 -4.8841 -0.609608 0
M  V30 5476 N 520.291 -0.0518155 -1.57515 0
M  V30 5477 C 521.539 0.620595 -1.92336 0
M  V30 5478 C 521.86 1.71345 -0.930907 0
M  V30 5479 O 521.13 1.95885 0.0241341 0
M  V30 5480 H 519.71 0.232226 -0.709986 0
M  V30 5481 H 522.372 -0.104969 -1.94617 0
M  V30 5482 H 521.468 1.05879 -2.93592 0
M  V30 5483 N 521.769 1.56035 0.221574 0
M  V30 5484 C 522.732 1.91584 1.2581 0
M  V30 5485 C 523.732 0.794425 1.39805 0
M  V30 5486 O 524.922 1.06217 1.38071 0
M  V30 5487 C 522.054 2.16663 2.63192 0
M  V30 5488 H 523.247 2.8429 0.954935 0
M  V30 5489 H 520.8 1.49316 0.461988 0
M  V30 5490 H 521.535 1.26508 2.98607 0
M  V30 5491 H 521.32 2.98358 2.5441 0
M  V30 5492 H 522.81 2.45262 3.37988 0
M  V30 5493 N 523.247 -0.488276 1.49845 0
M  V30 5494 C 524.475 -1.26527 1.63702 0
M  V30 5495 C 524.89 -1.8618 0.313447 0
M  V30 5496 O 524.247 -1.68432 -0.702624 0
M  V30 5497 C 524.298 -2.3864 2.71538 0
M  V30 5498 O 524.019 -1.81437 3.98763 0
M  V30 5499 C 525.52 -3.29805 2.96215 0
M  V30 5500 H 522.74 -0.383295 0.55075 0
M  V30 5501 H 525.284 -0.584779 1.95961 0
M  V30 5502 H 523.439 -3.02496 2.42023 0
M  V30 5503 H 523.853 -2.55135 4.58265 0
M  V30 5504 H 525.327 -4.04722 3.75372 0
M  V30 5505 H 525.804 -3.87563 2.06619 0
M  V30 5506 H 526.41 -2.71703 3.27196 0
M  V30 5507 N 524.725 -1.39134 -0.740242 0
M  V30 5508 C 525.953 -1.39334 -1.5295 0
M  V30 5509 C 526.368 0.0135008 -1.88795 0
M  V30 5510 O 525.725 0.983524 -1.5373 0
M  V30 5511 C 525.776 -2.2614 -2.82034 0
M  V30 5512 O 525.497 -3.61345 -2.47712 0
M  V30 5513 C 526.998 -2.34666 -3.76094 0
M  V30 5514 H 524.218 -0.476103 -0.472828 0
M  V30 5515 H 526.762 -1.82883 -0.9151 0
M  V30 5516 H 524.917 -1.86018 -3.39818 0
M  V30 5517 H 525.331 -4.07194 -3.30595 0
M  V30 5518 H 526.805 -2.99663 -4.63579 0
M  V30 5519 H 527.282 -1.36426 -4.17474 0
M  V30 5520 H 527.888 -2.75236 -3.2423 0
M  V30 5521 N 526.204 0.969867 -1.24223 0
M  V30 5522 C 527.444 1.72754 -1.0925 0
M  V30 5523 C 527.808 1.88541 0.362787 0
M  V30 5524 O 529.009 2.61217 0.633969 0
M  V30 5525 C 527.28 3.08204 -1.80957 0
M  V30 5526 S 528.839 3.99418 -1.81688 0
M  V30 5527 H 525.657 0.593981 -0.390778 0
M  V30 5528 H 528.259 1.15792 -1.5752 0
M  V30 5529 H 526.963 2.94372 -2.85961 0
M  V30 5530 H 526.494 3.70232 -1.33012 0
M  V30 5531 H 528.509 4.8828 -0.883001 0
M  V30 5532 N 527.682 1.05563 1.17022 0
M  V30 5533 C 528.93 0.76642 1.87004 0
M  V30 5534 C 529.251 -0.708854 1.8166 0
M  V30 5535 O 528.521 -1.51242 1.2451 0
M  V30 5536 H 527.101 0.280516 0.692329 0
M  V30 5537 H 529.763 1.33557 1.41945 0
M  V30 5538 H 528.859 1.08472 2.92644 0
M  V30 5539 N 529.16 -1.33526 0.837174 0
M  V30 5540 C 530.39 -2.01754 0.444848 0
M  V30 5541 C 530.798 -1.63149 -0.958072 0
M  V30 5542 O 530.141 -0.839827 -1.63379 0
M  V30 5543 C 530.203 -3.56228 0.483917 0
M  V30 5544 C 529.867 -4.18205 1.84265 0
M  V30 5545 C 530.864 -4.37699 2.80563 0
M  V30 5546 C 528.549 -4.54667 2.13503 0
M  V30 5547 C 530.543 -4.928 4.04261 0
M  V30 5548 C 528.23 -5.09475 3.37458 0
M  V30 5549 C 529.228 -5.28488 4.32654 0
M  V30 5550 O 528.916 -5.82132 5.54417 0
M  V30 5551 H 528.648 -0.652928 0.175104 0
M  V30 5552 H 531.202 -1.71469 1.13082 0
M  V30 5553 H 529.432 -3.85833 -0.258826 0
M  V30 5554 H 531.121 -4.05752 0.109653 0
M  V30 5555 H 531.887 -4.0988 2.59274 0
M  V30 5556 H 527.766 -4.39164 1.40201 0
M  V30 5557 H 531.31 -5.07555 4.78574 0
M  V30 5558 H 527.207 -5.36725 3.58604 0
M  V30 5559 H 527.975 -6.00548 5.56133 0
M  V30 5560 N 530.638 -0.59345 -1.46 0
M  V30 5561 C 531.568 0.121192 -2.33185 0
M  V30 5562 C 532.549 0.872977 -1.4599 0
M  V30 5563 O 533.734 0.846321 -1.74789 0
M  V30 5564 C 530.864 1.12844 -3.28456 0
M  V30 5565 C 529.818 0.4908 -4.25177 0
M  V30 5566 C 529.144 1.60529 -5.10034 0
M  V30 5567 C 530.444 -0.578949 -5.19081 0
M  V30 5568 H 532.138 -0.606767 -2.93187 0
M  V30 5569 H 529.684 -0.293242 -1.40983 0
M  V30 5570 H 531.637 1.63684 -3.88311 0
M  V30 5571 H 530.361 1.88681 -2.66584 0
M  V30 5572 H 529.02 0.00339328 -3.666 0
M  V30 5573 H 528.668 2.35359 -4.44539 0
M  V30 5574 H 528.368 1.18422 -5.75543 0
M  V30 5575 H 529.892 2.11623 -5.72755 0
M  V30 5576 H 531.306 -0.155199 -5.7309 0
M  V30 5577 H 529.703 -0.920947 -5.92991 0
M  V30 5578 H 530.773 -1.46109 -4.62364 0
M  V30 5579 N 532.116 1.54067 -0.331816 0
M  V30 5580 C 533.527 1.86059 0.15454 0
M  V30 5581 C 533.878 1.25331 1.50952 0
M  V30 5582 O 533.003 0.562441 2.08963 0
M  V30 5583 C 533.598 3.37581 0.287192 0
M  V30 5584 C 532.157 3.69493 0.717773 0
M  V30 5585 C 531.304 2.76863 -0.155569 0
M  V30 5586 H 534.255 1.48797 -0.55182 0
M  V30 5587 H 534.276 3.63744 1.11671 0
M  V30 5588 H 533.788 3.81751 -0.699131 0
M  V30 5589 H 531.889 3.3086 1.71354 0
M  V30 5590 H 532.002 4.76315 0.5158 0
M  V30 5591 H 530.366 2.51995 0.370213 0
M  V30 5592 H 531.149 3.23861 -1.13881 0
M  V30 5593 N 533.594 0.0601682 1.57485 0
M  V30 5594 C 534.526 -0.94047 2.09016 0
M  V30 5595 C 535.539 -1.26897 1.01985 0
M  V30 5596 O 536.728 -1.22819 1.29529 0
M  V30 5597 C 533.828 -2.25955 2.52582 0
M  V30 5598 C 533.001 -2.11163 3.83052 0
M  V30 5599 C 532.06 -3.26273 4.12835 0
M  V30 5600 O 531.086 -3.01779 4.82616 0
M  V30 5601 N 532.288 -4.51022 3.65458 0
M  V30 5602 H 535.053 -0.500578 2.9549 0
M  V30 5603 H 532.614 -0.125852 1.6141 0
M  V30 5604 H 534.606 -3.01846 2.69575 0
M  V30 5605 H 533.176 -2.61481 1.71308 0
M  V30 5606 H 532.396 -1.19808 3.75552 0
M  V30 5607 H 533.684 -1.98517 4.68475 0
M  V30 5608 H 533.082 -4.73811 3.09062 0
M  V30 5609 H 531.639 -5.23978 3.87673 0
M  V30 5610 N 535.072 -1.5615 -0.213296 0
M  V30 5611 C 536.02 -1.93953 -1.28394 0
M  V30 5612 C 537.014 -0.822592 -1.48087 0
M  V30 5613 O 538.22 -1.00748 -1.49164 0
M  V30 5614 H 534.595 -0.61648 -0.430646 0
M  V30 5615 H 536.566 -2.83275 -0.937977 0
M  V30 5616 C 535.315 -2.27969 -2.62537 0
M  V30 5617 H 534.638 -3.13432 -2.48194 0
M  V30 5618 H 536.078 -2.58297 -3.36242 0
M  V30 5619 C 534.537 -1.10775 -3.18167 0
M  V30 5620 O 535.067 -0.373201 -3.99963 0
M  V30 5621 N 533.273 -0.889377 -2.76656 0
M  V30 5622 H 532.82 -1.48843 -2.10246 0
M  V30 5623 H 532.778 -0.107 -3.14218 0
M  V30 5624 N 536.55 0.480323 -1.50102 0
M  V30 5625 C 537.513 1.56181 -1.6775 0
M  V30 5626 C 538.513 1.51156 -0.548503 0
M  V30 5627 O 539.703 1.5394 -0.815363 0
M  V30 5628 C 536.835 2.95823 -1.69415 0
M  V30 5629 H 538.028 1.41855 -2.6423 0
M  V30 5630 H 535.581 0.70605 -1.39444 0
M  V30 5631 H 536.316 3.15604 -0.745948 0
M  V30 5632 H 536.101 3.00878 -2.51425 0
M  V30 5633 H 537.591 3.74359 -1.85054 0
M  V30 5634 N 538.028 1.39524 0.732853 0
M  V30 5635 C 539.274 1.37068 1.49467 0
M  V30 5636 C 539.607 -0.0327166 1.94172 0
M  V30 5637 O 538.882 -0.998071 1.66939 0
M  V30 5638 C 539.165 2.34494 2.73285 0
M  V30 5639 C 539.018 3.83784 2.34585 0
M  V30 5640 C 540.337 2.29717 3.75391 0
M  V30 5641 H 537.456 0.499206 0.542183 0
M  V30 5642 H 540.098 1.70532 0.837783 0
M  V30 5643 H 538.248 2.06087 3.29333 0
M  V30 5644 H 539.92 4.22949 1.84151 0
M  V30 5645 H 538.163 4.00455 1.66787 0
M  V30 5646 H 538.834 4.47444 3.23262 0
M  V30 5647 H 541.31 2.54839 3.28932 0
M  V30 5648 H 540.186 2.99962 4.59689 0
M  V30 5649 H 540.447 1.30291 4.22465 0
M  V30 5650 N 539.506 -0.963266 1.24736 0
M  V30 5651 C 540.752 -1.70933 1.09131 0
M  V30 5652 C 541.085 -1.90676 -0.368273 0
M  V30 5653 O 540.36 -1.47147 -1.27193 0
M  V30 5654 C 540.643 -3.09744 1.83658 0
M  V30 5655 C 540.496 -2.97465 3.37394 0
M  V30 5656 C 541.815 -4.09483 1.61282 0
M  V30 5657 H 538.934 -0.620398 0.397838 0
M  V30 5658 H 541.576 -1.12028 1.53459 0
M  V30 5659 H 539.726 -3.60031 1.4598 0
M  V30 5660 H 541.398 -2.54571 3.84696 0
M  V30 5661 H 539.641 -2.33576 3.65547 0
M  V30 5662 H 540.312 -3.95822 3.84745 0
M  V30 5663 H 542.788 -3.68073 1.94066 0
M  V30 5664 H 541.664 -5.04666 2.15878 0
M  V30 5665 H 541.925 -4.38639 0.552102 0
M  V30 5666 N 540.985 -1.06182 -1.16461 0
M  V30 5667 C 541.932 -0.671613 -2.20812 0
M  V30 5668 C 542.902 0.331186 -1.62765 0
M  V30 5669 O 544.087 0.22033 -1.89524 0
M  V30 5670 C 541.227 -0.063029 -3.45042 0
M  V30 5671 C 540.34 -1.11587 -4.1734 0
M  V30 5672 C 539.475 -0.473546 -5.29085 0
M  V30 5673 C 538.514 -1.51 -5.93182 0
M  V30 5674 N 537.651 -0.891118 -6.96422 0
M  V30 5675 H 542.491 -1.56589 -2.53542 0
M  V30 5676 H 540.028 -0.782951 -1.24532 0
M  V30 5677 H 541.986 0.307344 -4.16066 0
M  V30 5678 H 540.616 0.794663 -3.12866 0
M  V30 5679 H 539.668 -1.60396 -3.44931 0
M  V30 5680 H 540.98 -1.90221 -4.61104 0
M  V30 5681 H 540.134 -0.0501432 -6.06679 0
M  V30 5682 H 538.873 0.344687 -4.8648 0
M  V30 5683 H 537.878 -1.94331 -5.14311 0
M  V30 5684 H 539.103 -2.33031 -6.37866 0
M  V30 5685 H 537.049 -0.0935753 -6.55933 0
M  V30 5686 H 536.966 -1.61486 -7.38551 0
M  V30 5687 H 538.234 -0.492822 -7.77941 0
M  V30 5688 N 542.463 1.3308 -0.844243 0
M  V30 5689 C 543.712 1.96868 -0.438833 0
M  V30 5690 C 544.025 1.67599 1.00846 0
M  V30 5691 O 545.231 2.25043 1.51881 0
M  V30 5692 C 543.687 3.5234 -0.73377 0
M  V30 5693 C 543.295 3.90481 -2.1961 0
M  V30 5694 C 545.039 4.22653 -0.395574 0
M  V30 5695 C 542.946 5.38954 -2.43481 0
M  V30 5696 H 541.876 0.736749 -0.160364 0
M  V30 5697 H 544.527 1.51623 -1.03358 0
M  V30 5698 H 542.909 3.95941 -0.068589 0
M  V30 5699 H 544.083 3.57922 -2.90221 0
M  V30 5700 H 542.398 3.33165 -2.4978 0
M  V30 5701 H 544.995 5.31848 -0.551477 0
M  V30 5702 H 545.338 4.11004 0.661921 0
M  V30 5703 H 545.871 3.84601 -1.01621 0
M  V30 5704 H 542.61 5.55612 -3.47816 0
M  V30 5705 H 542.13 5.72954 -1.77437 0
M  V30 5706 H 543.809 6.05907 -2.26905 0
M  V30 5707 N 543.941 0.601185 1.45683 0
M  V30 5708 C 545.171 0.0999093 2.06358 0
M  V30 5709 C 545.579 -1.21831 1.44754 0
M  V30 5710 O 544.922 -1.75157 0.553695 0
M  V30 5711 C 544.984 -0.12085 3.59297 0
M  V30 5712 C 544.648 1.11459 4.432 0
M  V30 5713 C 545.645 2.03118 4.7858 0
M  V30 5714 C 543.33 1.34162 4.84051 0
M  V30 5715 C 545.324 3.15814 5.53661 0
M  V30 5716 C 543.011 2.4716 5.58888 0
M  V30 5717 C 544.009 3.37814 5.93608 0
M  V30 5718 O 543.697 4.48846 6.66928 0
M  V30 5719 H 543.429 0.0630316 0.673055 0
M  V30 5720 H 545.983 0.826982 1.88016 0
M  V30 5721 H 544.213 -0.902744 3.76015 0
M  V30 5722 H 545.902 -0.572925 4.01836 0
M  V30 5723 H 546.668 1.86801 4.47583 0
M  V30 5724 H 542.547 0.645018 4.56465 0
M  V30 5725 H 546.091 3.86596 5.8068 0
M  V30 5726 H 541.988 2.63432 5.89299 0
M  V30 5727 H 542.756 4.47446 6.85371 0
M  V30 5728 N 545.419 -1.53889 0.339982 0
M  V30 5729 C 546.659 -2.02765 -0.258011 0
M  V30 5730 C 547.023 -1.22249 -1.48051 0
M  V30 5731 O 548.224 -1.61007 -2.15245 0
M  V30 5732 C 546.495 -3.5286 -0.567872 0
M  V30 5733 S 548.054 -4.23647 -1.14318 0
M  V30 5734 H 544.872 -0.706814 -0.0770389 0
M  V30 5735 H 547.474 -1.89594 0.476917 0
M  V30 5736 H 546.178 -4.09073 0.329745 0
M  V30 5737 H 545.709 -3.70144 -1.33256 0
M  V30 5738 H 547.724 -4.32676 -2.42911 0
M  V30 5739 N 546.897 -0.0685191 -1.57451 0
M  V30 5740 C 548.308 0.464634 -1.80826 0
M  V30 5741 C 548.659 1.69847 -0.982169 0
M  V30 5742 O 547.784 2.15439 -0.203734 0
M  V30 5743 C 548.379 0.849721 -3.27971 0
M  V30 5744 C 546.938 1.32776 -3.52204 0
M  V30 5745 C 546.085 0.311332 -2.75547 0
M  V30 5746 H 549.036 -0.294248 -1.55948 0
M  V30 5747 H 549.057 1.71138 -3.39841 0
M  V30 5748 H 548.569 -0.0484736 -3.8807 0
M  V30 5749 H 546.67 2.24456 -2.97406 0
M  V30 5750 H 546.783 1.30794 -4.60901 0
M  V30 5751 H 545.147 0.787915 -2.42206 0
M  V30 5752 H 545.93 -0.579078 -3.38381 0
M  V30 5753 N 548.375 1.56261 0.205012 0
M  V30 5754 C 549.338 1.92908 1.23771 0
M  V30 5755 C 550.338 0.809208 1.38955 0
M  V30 5756 O 551.528 1.07676 1.36936 0
M  V30 5757 C 548.66 2.19442 2.60879 0
M  V30 5758 H 549.853 2.85287 0.924728 0
M  V30 5759 H 547.406 1.49798 0.446125 0
M  V30 5760 H 548.141 1.29668 2.97248 0
M  V30 5761 H 547.926 3.0104 2.51232 0
M  V30 5762 H 549.416 2.48833 3.35368 0
M  V30 5763 N 549.853 -0.472356 1.50355 0
M  V30 5764 C 551.093 -1.23439 1.62918 0
M  V30 5765 C 551.457 -1.89284 0.321801 0
M  V30 5766 O 552.658 -2.66854 0.322852 0
M  V30 5767 C 550.929 -2.25119 2.7759 0
M  V30 5768 S 552.488 -3.10278 3.10279 0
M  V30 5769 H 549.306 -0.41911 0.574341 0
M  V30 5770 H 551.908 -0.531621 1.88133 0
M  V30 5771 H 550.612 -1.75324 3.71066 0
M  V30 5772 H 550.143 -3.00026 2.54457 0
M  V30 5773 H 552.158 -4.26257 2.54007 0
M  V30 5774 N 551.331 -1.39911 -0.725443 0
M  V30 5775 C 552.281 -1.35878 -1.83088 0
M  V30 5776 C 553.265 -0.237989 -1.5913 0
M  V30 5777 O 554.457 -0.476302 -1.70471 0
M  V30 5778 C 551.586 -1.21403 -3.21117 0
M  V30 5779 C 550.672 -2.38223 -3.50871 0
M  V30 5780 N 551.063 -3.63703 -3.51502 0
M  V30 5781 C 549.361 -2.31388 -3.81281 0
M  V30 5782 C 550.062 -4.4101 -3.79322 0
M  V30 5783 N 549.038 -3.7072 -3.97577 0
M  V30 5784 H 552.84 -2.3085 -1.81895 0
M  V30 5785 H 550.354 -1.33543 -0.924125 0
M  V30 5786 H 552.351 -1.16597 -4.00263 0
M  V30 5787 H 551.011 -0.273902 -3.23543 0
M  V30 5788 H 552.022 -3.96998 -3.32586 0
M  V30 5789 H 548.699 -1.45689 -3.91256 0
M  V30 5790 H 550.089 -5.49819 -3.86198 0
M  V30 5791 N 552.809 0.956637 -1.25245 0
M  V30 5792 C 553.757 2.0743 -1.0524 0
M  V30 5793 C 554.751 1.69392 0.0160725 0
M  V30 5794 O 555.957 1.7946 -0.139382 0
M  V30 5795 H 552.332 0.678921 -0.323373 0
M  V30 5796 H 554.303 2.2146 -1.99995 0
M  V30 5797 C 553.052 3.40872 -0.685702 0
M  V30 5798 H 552.375 3.70607 -1.49968 0
M  V30 5799 H 553.815 4.19939 -0.585415 0
M  V30 5800 C 552.274 3.31367 0.608082 0
M  V30 5801 O 552.804 3.66214 1.65076 0
M  V30 5802 N 551.01 2.84486 0.592955 0
M  V30 5803 H 550.557 2.56326 -0.25592 0
M  V30 5804 H 550.515 2.78509 1.45877 0
M  V30 5805 N 554.287 1.06798 1.15896 0
M  V30 5806 C 555.512 0.808739 1.90982 0
M  V30 5807 C 555.937 -0.6316 1.77179 0
M  V30 5808 O 555.295 -1.4407 1.10061 0
M  V30 5809 C 555.343 1.21468 3.39526 0
M  V30 5810 O 554.447 0.356562 4.10856 0
M  V30 5811 H 553.788 0.29512 0.594811 0
M  V30 5812 H 556.318 1.42513 1.46804 0
M  V30 5813 H 556.328 1.18844 3.90308 0
M  V30 5814 H 555.003 2.26379 3.48891 0
M  V30 5815 H 553.58 0.444808 3.70238 0
M  V30 5816 N 555.766 -1.3263 0.851289 0
M  V30 5817 C 556.676 -2.32722 0.296268 0
M  V30 5818 C 557.692 -1.63901 -0.584162 0
M  V30 5819 O 558.868 -1.95465 -0.485334 0
M  V30 5820 C 555.933 -3.42942 -0.509103 0
M  V30 5821 C 554.994 -4.2746 0.397069 0
M  V30 5822 C 554.227 -5.32416 -0.36996 0
M  V30 5823 O 554.45 -5.47491 -1.6003 0
M  V30 5824 O 553.384 -6.01327 0.262493 0
M  V30 5825 H 557.21 -2.82078 1.12543 0
M  V30 5826 H 554.795 -1.36194 0.614135 0
M  V30 5827 H 556.677 -4.1017 -0.96634 0
M  V30 5828 H 555.352 -2.95781 -1.31512 0
M  V30 5829 H 554.259 -3.63053 0.902411 0
M  V30 5830 H 555.592 -4.78136 1.16818 0
M  V30 5831 N 557.244 -0.608902 -1.45362 0
M  V30 5832 C 558.49 -0.104762 -2.02529 0
M  V30 5833 C 558.823 1.26191 -1.47613 0
M  V30 5834 O 558.098 1.8327 -0.65134 0
M  V30 5835 C 558.381 -0.0672661 -3.60037 0
M  V30 5836 C 558.234 -1.4647 -4.25284 0
M  V30 5837 C 559.553 0.619877 -4.35713 0
M  V30 5838 H 556.672 -0.0395438 -0.735938 0
M  V30 5839 H 559.314 -0.781126 -1.73201 0
M  V30 5840 H 557.464 0.50871 -3.85155 0
M  V30 5841 H 559.136 -2.08785 -4.11347 0
M  V30 5842 H 557.379 -2.02502 -3.83634 0
M  V30 5843 H 558.05 -1.39069 -5.34195 0
M  V30 5844 H 560.526 0.130297 -4.15896 0
M  V30 5845 H 559.402 0.615224 -5.45441 0
M  V30 5846 H 559.663 1.68621 -4.0868 0
M  V30 5847 N 558.722 1.53707 -0.348139 0
M  V30 5848 C 559.97 2.00591 0.246478 0
M  V30 5849 C 560.291 1.23753 1.50699 0
M  V30 5850 O 559.561 0.345964 1.92821 0
M  V30 5851 H 558.141 0.741053 0.0940679 0
M  V30 5852 H 560.803 1.89139 -0.470354 0
M  V30 5853 H 559.899 3.08297 0.485714 0
M  V30 5854 N 560.2 0.0768682 1.57412 0
M  V30 5855 C 561.611 -0.455037 1.8107 0
M  V30 5856 C 561.962 -1.69323 0.991162 0
M  V30 5857 O 561.087 -2.15328 0.215156 0
M  V30 5858 C 561.682 -0.832316 3.28417 0
M  V30 5859 C 560.241 -1.30906 3.52903 0
M  V30 5860 C 559.388 -0.296714 2.75708 0
M  V30 5861 H 562.339 0.302514 1.5579 0
M  V30 5862 H 562.36 -1.69333 3.40744 0
M  V30 5863 H 561.872 0.0690532 3.88039 0
M  V30 5864 H 559.973 -2.22875 2.98592 0
M  V30 5865 H 560.086 -1.28348 4.61588 0
M  V30 5866 H 558.45 -0.775059 2.42621 0
M  V30 5867 H 559.233 0.597015 3.38069 0
M  V30 5868 N 561.678 -1.56367 -0.196722 0
M  V30 5869 C 562.588 -1.97617 -1.2643 0
M  V30 5870 C 563.604 -0.883598 -1.49895 0
M  V30 5871 O 564.78 -1.18921 -1.62541 0
M  V30 5872 C 561.845 -2.30595 -2.58895 0
M  V30 5873 C 560.906 -3.53551 -2.43516 0
M  V30 5874 C 560.139 -3.84946 -3.69665 0
M  V30 5875 O 560.362 -3.17655 -4.73763 0
M  V30 5876 O 559.296 -4.78379 -3.65291 0
M  V30 5877 H 563.122 -2.88648 -0.944233 0
M  V30 5878 H 560.707 -1.43901 -0.401592 0
M  V30 5879 H 562.589 -2.52889 -3.37083 0
M  V30 5880 H 561.264 -1.42732 -2.90533 0
M  V30 5881 H 560.171 -3.36507 -1.63445 0
M  V30 5882 H 561.504 -4.41875 -2.16812 0
M  V30 5883 N 563.156 0.464375 -1.50603 0
M  V30 5884 C 564.106 1.55929 -1.66343 0
M  V30 5885 C 565.09 1.52338 -0.517887 0
M  V30 5886 O 566.282 1.59248 -0.772601 0
M  V30 5887 C 563.411 2.94327 -1.7671 0
M  V30 5888 C 562.497 3.02777 -2.96962 0
M  V30 5889 N 562.888 2.81026 -4.20545 0
M  V30 5890 C 561.186 3.33919 -2.95659 0
M  V30 5891 C 561.887 2.94618 -5.01573 0
M  V30 5892 N 560.863 3.25112 -4.35664 0
M  V30 5893 H 564.665 1.37822 -2.59581 0
M  V30 5894 H 562.179 0.671227 -1.47879 0
M  V30 5895 H 564.176 3.73063 -1.86091 0
M  V30 5896 H 562.836 3.13476 -0.846353 0
M  V30 5897 H 563.847 2.56477 -4.49933 0
M  V30 5898 H 560.524 3.59013 -2.13111 0
M  V30 5899 H 561.914 2.81984 -6.09865 0
M  V30 5900 N 564.634 1.40294 0.718013 0
M  V30 5901 C 565.859 1.41941 1.5122 0
M  V30 5902 C 566.284 0.0202371 1.88089 0
M  V30 5903 O 565.642 -0.971078 1.53101 0
M  V30 5904 C 565.69 2.3141 2.76554 0
M  V30 5905 O 564.794 1.75567 3.73162 0
M  V30 5906 H 564.135 0.482644 0.456016 0
M  V30 5907 H 566.665 1.84494 0.884478 0
M  V30 5908 H 566.675 2.46513 3.25108 0
M  V30 5909 H 565.35 3.33085 2.49053 0
M  V30 5910 H 563.927 1.69798 3.31999 0
M  V30 5911 N 566.112 -0.949982 1.2575 0
M  V30 5912 C 567.042 -2.06483 1.09028 0
M  V30 5913 C 568.023 -1.701 -0.00201532 0
M  V30 5914 O 569.208 -1.93469 0.168383 0
M  V30 5915 C 566.338 -3.39899 0.71316 0
M  V30 5916 C 565.292 -3.90309 1.75621 0
M  V30 5917 C 564.618 -5.20274 1.23365 0
M  V30 5918 C 565.918 -4.16169 3.15596 0
M  V30 5919 H 567.612 -2.20731 2.02283 0
M  V30 5920 H 565.158 -1.06066 0.973964 0
M  V30 5921 H 567.111 -4.17346 0.58309 0
M  V30 5922 H 565.835 -3.25602 -0.255091 0
M  V30 5923 H 564.494 -3.15035 1.8748 0
M  V30 5924 H 564.142 -5.02351 0.255491 0
M  V30 5925 H 563.842 -5.54971 1.93082 0
M  V30 5926 H 565.366 -6.00314 1.11607 0
M  V30 5927 H 566.78 -4.84259 3.06864 0
M  V30 5928 H 565.177 -4.62131 3.82825 0
M  V30 5929 H 566.247 -3.22273 3.6231 0
M  V30 5930 N 567.59 -1.07411 -1.15328 0
M  V30 5931 C 568.553 -0.698914 -2.18284 0
M  V30 5932 C 569.553 0.261149 -1.58665 0
M  V30 5933 O 570.743 0.0420277 -1.74149 0
M  V30 5934 C 567.875 -0.0302427 -3.40887 0
M  V30 5935 H 569.068 -1.61045 -2.52991 0
M  V30 5936 H 566.621 -0.870724 -1.298 0
M  V30 5937 H 567.356 0.893505 -3.11748 0
M  V30 5938 H 567.141 -0.720759 -3.85419 0
M  V30 5939 H 568.631 0.21759 -4.17033 0
M  V30 5940 N 569.068 1.32177 -0.85831 0
M  V30 5941 C 569.978 2.32561 -0.308606 0
M  V30 5942 C 570.994 1.64209 0.575462 0
M  V30 5943 O 572.17 1.95719 0.474961 0
M  V30 5944 C 569.235 3.43207 0.490909 0
M  V30 5945 C 568.296 4.27243 -0.419733 0
M  V30 5946 C 567.529 5.32605 0.341719 0
M  V30 5947 O 567.752 5.48332 1.57125 0
M  V30 5948 O 566.686 6.0118 -0.294379 0
M  V30 5949 H 570.512 2.81477 -1.14037 0
M  V30 5950 H 568.097 1.35866 -0.621349 0
M  V30 5951 H 569.979 4.10677 0.944574 0
M  V30 5952 H 568.654 2.96474 1.29941 0
M  V30 5953 H 567.561 3.62569 -0.921652 0
M  V30 5954 H 568.894 4.7751 -1.19352 0
M  V30 5955 N 570.547 0.616602 1.45037 0
M  V30 5956 C 571.777 0.121791 2.06241 0
M  V30 5957 C 572.185 -1.20289 1.46038 0
M  V30 5958 O 571.528 -1.7456 0.572242 0
M  V30 5959 C 571.59 -0.0827345 3.59405 0
M  V30 5960 C 571.254 1.16153 4.41993 0
M  V30 5961 C 572.251 2.08183 4.76399 0
M  V30 5962 C 569.936 1.39288 4.82601 0
M  V30 5963 C 571.93 3.21668 5.5028 0
M  V30 5964 C 569.617 2.53073 5.56235 0
M  V30 5965 C 570.615 3.44091 5.89992 0
M  V30 5966 O 570.303 4.55894 6.6213 0
M  V30 5967 H 570.035 0.0701667 0.672349 0
M  V30 5968 H 572.589 0.846877 1.87129 0
M  V30 5969 H 570.819 -0.862812 3.76952 0
M  V30 5970 H 572.508 -0.530273 4.02421 0
M  V30 5971 H 573.274 1.91538 4.45576 0
M  V30 5972 H 569.153 0.693396 4.55755 0
M  V30 5973 H 572.697 3.92733 5.76547 0
M  V30 5974 H 568.594 2.69667 5.86472 0
M  V30 5975 H 569.362 4.5469 6.80587 0
M  V30 5976 N 572.025 -1.5352 0.356285 0
M  V30 5977 C 572.975 -2.22204 -0.510815 0
M  V30 5978 C 573.959 -1.21393 -1.05605 0
M  V30 5979 O 575.151 -1.46883 -0.987639 0
M  V30 5980 C 572.28 -3.00786 -1.65478 0
M  V30 5981 C 571.366 -4.08965 -1.12287 0
M  V30 5982 N 571.757 -5.04829 -0.313191 0
M  V30 5983 C 570.055 -4.23505 -1.39856 0
M  V30 5984 C 570.756 -5.81695 -0.0230322 0
M  V30 5985 N 569.732 -5.40074 -0.618144 0
M  V30 5986 H 573.534 -2.93676 0.114711 0
M  V30 5987 H 571.048 -1.61572 0.163811 0
M  V30 5988 H 573.045 -3.48502 -2.28806 0
M  V30 5989 H 571.705 -2.30843 -2.28345 0
M  V30 5990 H 572.716 -5.17879 0.0468202 0
M  V30 5991 H 569.393 -3.64786 -2.0307 0
M  V30 5992 H 570.783 -6.68931 0.630927 0
M  V30 5993 N 573.503 -0.0852151 -1.57369 0
M  V30 5994 C 574.451 0.894856 -2.14698 0
M  V30 5995 C 575.445 1.29903 -1.08727 0
M  V30 5996 O 576.651 1.27471 -1.27088 0
M  V30 5997 H 573.026 0.306569 -0.686673 0
M  V30 5998 H 574.997 0.386542 -2.95886 0
M  V30 5999 C 573.746 2.14798 -2.73417 0
M  V30 6000 H 573.069 1.84585 -3.54638 0
M  V30 6001 H 574.509 2.81456 -3.1711 0
M  V30 6002 C 572.968 2.91546 -1.68828 0
M  V30 6003 O 573.498 3.85733 -1.12129 0
M  V30 6004 N 571.704 2.54901 -1.39549 0
M  V30 6005 H 571.251 1.7838 -1.85845 0
M  V30 6006 H 571.209 3.06553 -0.698054 0
M  V30 6007 N 574.981 1.5647 0.188427 0
M  V30 6008 C 575.891 1.98285 1.2538 0
M  V30 6009 C 576.907 0.891535 1.49424 0
M  V30 6010 O 578.083 1.19782 1.61908 0
M  V30 6011 C 575.148 2.31965 2.57669 0
M  V30 6012 C 574.209 3.54838 2.41638 0
M  V30 6013 C 573.442 3.86901 3.67618 0
M  V30 6014 O 573.665 3.20163 4.72072 0
M  V30 6015 O 572.599 4.80309 3.62749 0
M  V30 6016 H 576.425 2.89145 0.928912 0
M  V30 6017 H 574.01 1.44112 0.393955 0
M  V30 6018 H 575.892 2.54673 3.35737 0
M  V30 6019 H 574.567 1.44271 2.89771 0
M  V30 6020 H 573.474 3.37369 1.61658 0
M  V30 6021 H 574.807 4.43019 2.14465 0
M  V30 6022 N 576.459 -0.456382 1.50847 0
M  V30 6023 C 577.684 -1.2349 1.66628 0
M  V30 6024 C 578.109 -1.84715 0.355254 0
M  V30 6025 O 577.467 -1.67961 -0.682559 0
M  V30 6026 C 577.515 -2.30865 2.77009 0
M  V30 6027 O 576.619 -3.35882 2.39285 0
M  V30 6028 H 575.96 -0.36266 0.556214 0
M  V30 6029 H 578.49 -0.541374 1.97308 0
M  V30 6030 H 578.5 -2.75949 3.00526 0
M  V30 6031 H 577.175 -1.85677 3.72152 0
M  V30 6032 H 575.752 -2.96406 2.26269 0
M  V30 6033 N 577.937 -1.40673 -0.710563 0
M  V30 6034 C 579.185 -1.38947 -1.46759 0
M  V30 6035 C 579.506 0.00572879 -1.94999 0
M  V30 6036 O 578.776 0.961358 -1.70689 0
M  V30 6037 H 577.356 -0.5114 -0.544499 0
M  V30 6038 H 580.018 -1.75773 -0.842012 0
M  V30 6039 H 579.114 -2.06745 -2.33801 0
M  V30 6040 N 579.415 0.9433 -1.26252 0
M  V30 6041 C 580.345 2.05902 -1.10122 0
M  V30 6042 C 581.326 1.70099 -0.00700552 0
M  V30 6043 O 582.511 1.93377 -0.178641 0
M  V30 6044 C 579.641 3.39516 -0.731175 0
M  V30 6045 C 578.595 3.89372 -1.77688 0
M  V30 6046 C 577.921 5.19613 -1.26122 0
M  V30 6047 C 579.221 4.14489 -3.17799 0
M  V30 6048 H 580.915 2.19655 -2.03451 0
M  V30 6049 H 578.461 1.05548 -0.979576 0
M  V30 6050 H 580.414 4.17031 -0.605215 0
M  V30 6051 H 579.138 3.25733 0.23782 0
M  V30 6052 H 577.797 3.14036 -1.89148 0
M  V30 6053 H 577.445 5.02208 -0.282128 0
M  V30 6054 H 577.145 5.53939 -1.96023 0
M  V30 6055 H 578.669 5.99713 -1.14789 0
M  V30 6056 H 580.083 4.82625 -3.09428 0
M  V30 6057 H 578.48 4.60094 -3.85271 0
M  V30 6058 H 579.55 3.20347 -3.64014 0
M  V30 6059 N 580.893 1.08022 1.14757 0
M  V30 6060 C 581.84 0.706657 2.19716 0
M  V30 6061 C 582.81 -0.30525 1.63271 0
M  V30 6062 O 583.995 -0.19015 1.8985 0
M  V30 6063 C 581.135 0.117914 3.44898 0
M  V30 6064 C 580.248 1.18212 4.15512 0
M  V30 6065 C 579.383 0.557659 5.28265 0
M  V30 6066 C 578.422 1.60418 5.90705 0
M  V30 6067 N 577.559 1.0018 6.94916 0
M  V30 6068 H 582.399 1.60603 2.51019 0
M  V30 6069 H 579.936 0.802664 1.23271 0
M  V30 6070 H 581.894 -0.241112 4.16503 0
M  V30 6071 H 580.524 -0.744788 3.1409 0
M  V30 6072 H 579.576 1.65863 3.42335 0
M  V30 6073 H 580.888 1.97533 4.5802 0
M  V30 6074 H 580.042 0.146654 6.06523 0
M  V30 6075 H 578.781 -0.267249 4.86967 0
M  V30 6076 H 577.786 2.02489 5.11154 0
M  V30 6077 H 579.011 2.43149 6.34078 0
M  V30 6078 H 576.957 0.197917 6.55701 0
M  V30 6079 H 576.874 1.73216 7.35889 0
M  V30 6080 H 578.142 0.616523 7.77058 0
M  V30 6081 N 582.371 -1.3172 0.865308 0
M  V30 6082 C 583.599 -2.01057 0.488251 0
M  V30 6083 C 584.014 -1.64979 -0.918 0
M  V30 6084 O 583.371 -0.876597 -1.60069 0
M  V30 6085 C 583.422 -3.55964 0.630224 0
M  V30 6086 O 583.143 -3.90749 1.98109 0
M  V30 6087 C 584.644 -4.42574 0.253567 0
M  V30 6088 H 581.864 -0.64332 0.190736 0
M  V30 6089 H 584.408 -1.68058 1.16519 0
M  V30 6090 H 582.563 -3.874 0.000895422 0
M  V30 6091 H 582.977 -4.85467 1.9855 0
M  V30 6092 H 584.451 -5.50521 0.403875 0
M  V30 6093 H 584.928 -4.31724 -0.806895 0
M  V30 6094 H 585.534 -4.16547 0.858404 0
M  V30 6095 N 583.85 -0.624285 -1.44708 0
M  V30 6096 C 585.099 -0.123539 -2.01321 0
M  V30 6097 C 585.412 1.25966 -1.49639 0
M  V30 6098 O 586.618 1.85405 -1.98336 0
M  V30 6099 C 585.074 -0.170124 -3.59498 0
M  V30 6100 C 584.682 -1.55421 -4.20176 0
M  V30 6101 C 586.426 0.274513 -4.23611 0
M  V30 6102 C 584.332 -1.55628 -5.70556 0
M  V30 6103 H 583.263 -0.0424183 -0.752806 0
M  V30 6104 H 585.913 -0.782076 -1.65999 0
M  V30 6105 H 584.296 0.555385 -3.92086 0
M  V30 6106 H 585.47 -2.30276 -3.99136 0
M  V30 6107 H 583.784 -1.94235 -3.68323 0
M  V30 6108 H 586.382 0.292402 -5.339 0
M  V30 6109 H 586.725 1.3005 -3.95465 0
M  V30 6110 H 587.258 -0.398275 -3.95801 0
M  V30 6111 H 583.997 -2.56041 -6.03426 0
M  V30 6112 H 583.517 -0.850563 -5.93739 0
M  V30 6113 H 585.196 -1.28721 -6.34066 0
M  V30 6114 N 585.328 1.53329 -0.364422 0
M  V30 6115 C 586.258 2.28627 0.474543 0
M  V30 6116 C 587.239 1.31009 1.08492 0
M  V30 6117 O 588.424 1.59878 1.10239 0
M  V30 6118 C 585.554 3.07465 1.61501 0
M  V30 6119 C 584.508 4.1276 1.13194 0
M  V30 6120 C 583.834 4.79674 2.36255 0
M  V30 6121 C 585.134 5.21847 0.217507 0
M  V30 6122 H 586.828 2.99005 -0.153656 0
M  V30 6123 H 584.374 1.43803 -0.0753406 0
M  V30 6124 H 586.327 3.58889 2.20855 0
M  V30 6125 H 585.051 2.34775 2.27042 0
M  V30 6126 H 583.71 3.62281 0.56109 0
M  V30 6127 H 583.358 4.03557 3.00251 0
M  V30 6128 H 583.058 5.50827 2.04606 0
M  V30 6129 H 584.582 5.33892 2.96297 0
M  V30 6130 H 585.996 5.6878 0.718493 0
M  V30 6131 H 584.393 6.00099 -0.00806408 0
M  V30 6132 H 585.463 4.7921 -0.740653 0
M  V30 6133 N 586.806 0.0935595 1.57322 0
M  V30 6134 C 588.222 -0.263091 1.57417 0
M  V30 6135 C 588.422 -1.68526 1.1046 0
M  V30 6136 O 587.478 -2.40139 0.780357 0
M  V30 6137 C 588.791 -0.0529201 3.00653 0
M  V30 6138 C 590.339 -0.120788 3.12767 0
M  V30 6139 C 590.814 0.0613707 4.57959 0
M  V30 6140 N 592.305 0.00648534 4.632 0
M  V30 6141 C 593.04 0.122699 5.73269 0
M  V30 6142 N 592.536 0.29366 6.92177 0
M  V30 6143 N 594.329 0.0640787 5.62063 0
M  V30 6144 H 586.48 1.02277 1.86154 0
M  V30 6145 H 588.743 0.4007 0.859153 0
M  V30 6146 H 588.449 0.929279 3.39201 0
M  V30 6147 H 588.323 -0.795899 3.68708 0
M  V30 6148 H 590.71 -1.09349 2.74093 0
M  V30 6149 H 590.791 0.653656 2.47307 0
M  V30 6150 H 590.435 1.03093 4.97327 0
M  V30 6151 H 590.365 -0.732748 5.21477 0
M  V30 6152 H 592.856 -0.123173 3.77699 0
M  V30 6153 H 593.169 0.37389 7.71895 0
M  V30 6154 H 591.514 0.329307 6.94219 0
M  V30 6155 H 594.705 -0.0683396 4.6805 0
M  V30 6156 H 594.878 0.158097 6.47807 0
M  V30 6157 N 588.284 -1.56567 -0.180126 0
M  V30 6158 C 589.231 -1.95725 -1.22313 0
M  V30 6159 C 590.201 -0.819911 -1.44453 0
M  V30 6160 O 591.386 -1.07931 -1.57339 0
M  V30 6161 C 588.526 -2.31484 -2.55947 0
M  V30 6162 C 587.639 -3.58354 -2.4126 0
M  V30 6163 C 586.774 -3.83366 -3.67701 0
M  V30 6164 C 585.813 -5.03612 -3.47909 0
M  V30 6165 N 584.95 -5.24802 -4.66398 0
M  V30 6166 H 589.79 -2.84642 -0.882198 0
M  V30 6167 H 587.327 -1.4085 -0.42422 0
M  V30 6168 H 589.285 -2.50237 -3.33822 0
M  V30 6169 H 587.915 -1.45689 -2.88053 0
M  V30 6170 H 586.967 -3.47565 -1.54606 0
M  V30 6171 H 588.279 -4.46386 -2.22577 0
M  V30 6172 H 587.433 -4.02439 -4.54013 0
M  V30 6173 H 586.172 -2.93692 -3.89353 0
M  V30 6174 H 585.177 -4.84447 -2.59983 0
M  V30 6175 H 586.402 -5.94809 -3.27688 0
M  V30 6176 H 584.348 -4.38079 -4.88286 0
M  V30 6177 H 584.265 -6.07041 -4.50596 0
M  V30 6178 H 585.533 -5.48346 -5.54019 0
M  V30 6179 N 589.762 0.448376 -1.51087 0
M  V30 6180 C 591.01 1.19635 -1.62886 0
M  V30 6181 C 591.331 1.91977 -0.342024 0
M  V30 6182 O 590.601 1.85094 0.641636 0
M  V30 6183 H 589.181 0.444598 -0.600285 0
M  V30 6184 H 591.843 0.515138 -1.87969 0
M  V30 6185 H 590.939 1.93194 -2.45117 0
M  V30 6186 N 591.24 1.41047 0.703093 0
M  V30 6187 C 592.488 1.39723 1.4602 0
M  V30 6188 C 592.809 0.00461257 1.94999 0
M  V30 6189 O 592.079 -0.952292 1.71196 0
M  V30 6190 H 590.659 0.514281 0.541779 0
M  V30 6191 H 593.321 1.76217 0.832678 0
M  V30 6192 H 592.417 2.07982 2.32701 0
M  V30 6193 N 592.718 -0.936591 1.26751 0
M  V30 6194 C 594.134 -1.21095 1.03963 0
M  V30 6195 C 594.334 -2.00156 -0.232372 0
M  V30 6196 O 593.39 -2.3434 -0.940274 0
M  V30 6197 C 594.703 -1.96775 2.27377 0
M  V30 6198 C 596.251 -2.09749 2.32324 0
M  V30 6199 C 596.726 -2.88832 3.55443 0
M  V30 6200 N 598.217 -2.96404 3.55948 0
M  V30 6201 C 598.952 -3.58036 4.47881 0
M  V30 6202 N 598.448 -4.21132 5.50109 0
M  V30 6203 N 600.241 -3.55353 4.35523 0
M  V30 6204 H 592.392 -0.408173 2.08441 0
M  V30 6205 H 594.655 -0.243139 0.91629 0
M  V30 6206 H 594.361 -1.46094 3.19921 0
M  V30 6207 H 594.235 -2.97424 2.31989 0
M  V30 6208 H 596.622 -2.5962 1.40291 0
M  V30 6209 H 596.703 -1.08347 2.31721 0
M  V30 6210 H 596.347 -2.39647 4.47808 0
M  V30 6211 H 596.277 -3.90499 3.53296 0
M  V30 6212 H 598.768 -2.51552 2.82011 0
M  V30 6213 H 599.081 -4.66071 6.16439 0
M  V30 6214 H 597.426 -4.19705 5.53961 0
M  V30 6215 H 600.617 -3.05256 3.54875 0
M  V30 6216 H 600.79 -4.03097 5.07363 0
M  V30 6217 N 594.196 -1.08629 -1.14182 0
M  V30 6218 C 595.424 -0.838889 -1.8913 0
M  V30 6219 C 595.839 0.609153 -1.78703 0
M  V30 6220 O 595.196 1.41876 -1.14794 0
M  V30 6221 C 595.247 -1.25477 -3.39025 0
M  V30 6222 O 594.968 -2.64601 -3.49167 0
M  V30 6223 C 596.469 -1.03856 -4.30963 0
M  V30 6224 H 593.689 -0.302377 -0.599007 0
M  V30 6225 H 596.233 -1.44615 -1.44592 0
M  V30 6226 H 594.388 -0.691571 -3.81177 0
M  V30 6227 H 594.802 -2.81922 -4.42289 0
M  V30 6228 H 596.276 -1.37892 -5.345 0
M  V30 6229 H 596.753 0.0242522 -4.39193 0
M  V30 6230 H 597.359 -1.58731 -3.94569 0
M  V30 6231 N 595.674 1.31259 -0.872281 0
M  V30 6232 C 596.923 1.95893 -0.480493 0
M  V30 6233 C 597.236 1.697 0.972688 0
M  V30 6234 O 598.442 2.28214 1.47073 0
M  V30 6235 C 596.898 3.50705 -0.808342 0
M  V30 6236 C 596.506 3.85735 -2.27844 0
M  V30 6237 C 598.25 4.21719 -0.485136 0
M  V30 6238 C 596.157 5.33668 -2.54858 0
M  V30 6239 H 595.087 0.733182 -0.175955 0
M  V30 6240 H 597.738 1.49396 -1.0655 0
M  V30 6241 H 596.12 3.95706 -0.152558 0
M  V30 6242 H 597.294 3.51686 -2.97748 0
M  V30 6243 H 595.609 3.27792 -2.56791 0
M  V30 6244 H 598.206 5.30559 -0.664166 0
M  V30 6245 H 598.549 4.12316 0.574592 0
M  V30 6246 H 599.082 3.82359 -1.09756 0
M  V30 6247 H 595.821 5.48109 -3.59523 0
M  V30 6248 H 595.341 5.69061 -1.8955 0
M  V30 6249 H 597.02 6.00958 -2.39706 0
M  V30 6250 N 597.152 0.631951 1.44375 0
M  V30 6251 C 598.115 -0.0628142 2.29114 0
M  V30 6252 C 599.115 -0.771494 1.41084 0
M  V30 6253 O 600.305 -0.615959 1.62947 0
M  V30 6254 C 597.437 -1.09953 3.22681 0
M  V30 6255 H 598.63 0.682509 2.92031 0
M  V30 6256 H 596.183 0.392128 1.51301 0
M  V30 6257 H 596.918 -1.87481 2.64616 0
M  V30 6258 H 596.703 -0.595286 3.87555 0
M  V30 6259 H 598.193 -1.58538 3.86336 0
M  V30 6260 N 598.631 -1.53133 0.372548 0
M  V30 6261 C 599.878 -2.01356 -0.214959 0
M  V30 6262 C 600.206 -1.2596 -1.48204 0
M  V30 6263 O 599.461 -0.343511 -1.92662 0
M  V30 6264 C 599.76 -3.53206 -0.545938 0
M  V30 6265 C 599.426 -4.46511 0.627624 0
M  V30 6266 C 598.088 -4.71737 0.949615 0
M  V30 6267 C 600.44 -5.01666 1.41353 0
M  V30 6268 C 597.768 -5.4937 2.05936 0
M  V30 6269 C 600.12 -5.80511 2.51375 0
M  V30 6270 C 598.784 -6.04022 2.84101 0
M  V30 6271 H 598.054 -0.736813 -0.078659 0
M  V30 6272 H 600.701 -1.84682 0.506447 0
M  V30 6273 H 599.006 -3.67864 -1.34845 0
M  V30 6274 H 600.703 -3.87997 -1.01287 0
M  V30 6275 H 597.293 -4.27029 0.366635 0
M  V30 6276 H 601.477 -4.82117 1.17802 0
M  V30 6277 H 596.733 -5.65803 2.31682 0
M  V30 6278 H 600.907 -6.22255 3.12684 0
M  V30 6279 H 598.534 -6.63962 3.70214 0
M  V30 6280 N 600.109 -0.101901 -1.5727 0
M  V30 6281 C 601.357 0.559091 -1.94213 0
M  V30 6282 C 601.678 1.68297 -0.984948 0
M  V30 6283 O 600.948 1.95863 -0.0381975 0
M  V30 6284 H 599.528 0.20952 -0.717015 0
M  V30 6285 H 602.19 -0.166831 -1.94185 0
M  V30 6286 H 601.286 0.96485 -2.96811 0
M  V30 6287 N 601.587 1.56661 0.17182 0
M  V30 6288 C 602.835 1.81606 0.886774 0
M  V30 6289 C 603.156 0.678818 1.82803 0
M  V30 6290 O 602.426 -0.301354 1.93568 0
M  V30 6291 H 601.006 0.669934 0.330451 0
M  V30 6292 H 603.668 1.94142 0.171757 0
M  V30 6293 H 602.764 2.75634 1.46398 0
M  V30 6294 N 603.065 -0.440357 1.51323 0
M  V30 6295 C 604.305 -1.19956 1.65499 0
M  V30 6296 C 604.669 -1.88559 0.361878 0
M  V30 6297 O 605.87 -2.66109 0.379383 0
M  V30 6298 C 604.141 -2.1918 2.82303 0
M  V30 6299 S 605.7 -3.03627 3.1679 0
M  V30 6300 H 602.518 -0.406833 0.583102 0
M  V30 6301 H 605.12 -0.491596 1.89218 0
M  V30 6302 H 603.824 -1.67414 3.74701 0
M  V30 6303 H 603.355 -2.94561 2.60763 0
M  V30 6304 H 605.37 -4.20773 2.62991 0
M  V30 6305 N 604.543 -1.41418 -0.695603 0
M  V30 6306 C 605.789 -1.40982 -1.4578 0
M  V30 6307 C 606.122 -0.0187763 -1.94191 0
M  V30 6308 O 605.397 0.95346 -1.69527 0
M  V30 6309 C 605.68 -2.41657 -2.66972 0
M  V30 6310 C 605.533 -3.89869 -2.24327 0
M  V30 6311 C 606.852 -2.39589 -3.69168 0
M  V30 6312 H 603.971 -0.513405 -0.528757 0
M  V30 6313 H 606.613 -1.72693 -0.792275 0
M  V30 6314 H 604.763 -2.14746 -3.23754 0
M  V30 6315 H 606.435 -4.27683 -1.72872 0
M  V30 6316 H 604.678 -4.04737 -1.56111 0
M  V30 6317 H 605.349 -4.55857 -3.11285 0
M  V30 6318 H 607.825 -2.63471 -3.2206 0
M  V30 6319 H 606.701 -3.12044 -4.51575 0
M  V30 6320 H 606.962 -1.41447 -4.18862 0
M  V30 6321 N 606.021 0.929856 -1.27246 0
M  V30 6322 C 607.268 1.67731 -1.13457 0
M  V30 6323 C 607.596 1.9185 0.319998 0
M  V30 6324 O 606.851 1.50524 1.25064 0
M  V30 6325 C 607.15 3.05116 -1.86115 0
M  V30 6326 C 606.816 3.00715 -3.35978 0
M  V30 6327 C 605.478 2.99222 -3.76855 0
M  V30 6328 C 607.83 2.92168 -4.3161 0
M  V30 6329 C 605.158 2.86962 -5.11732 0
M  V30 6330 C 607.51 2.81449 -5.66542 0
M  V30 6331 C 606.174 2.78305 -6.06715 0
M  V30 6332 H 605.444 0.613772 -0.415168 0
M  V30 6333 H 608.091 1.08456 -1.57827 0
M  V30 6334 H 606.396 3.68083 -1.34246 0
M  V30 6335 H 608.093 3.61822 -1.72876 0
M  V30 6336 H 604.683 3.02664 -3.03468 0
M  V30 6337 H 608.867 2.92421 -4.01003 0
M  V30 6338 H 604.123 2.82913 -5.42006 0
M  V30 6339 H 608.297 2.738 -6.40317 0
M  V30 6340 H 605.924 2.68561 -7.11181 0
M  V30 6341 N 607.499 1.09233 1.13605 0
M  V30 6342 C 608.724 0.849067 1.89224 0
M  V30 6343 C 609.149 -0.593875 1.78479 0
M  V30 6344 O 608.507 -1.41703 1.13092 0
M  V30 6345 C 608.555 1.28642 3.36873 0
M  V30 6346 O 607.659 0.44363 4.10007 0
M  V30 6347 H 607 0.30767 0.588417 0
M  V30 6348 H 609.53 1.45595 1.43748 0
M  V30 6349 H 609.54 1.27096 3.87699 0
M  V30 6350 H 608.215 2.33729 3.44011 0
M  V30 6351 H 606.792 0.523241 3.69211 0
M  V30 6352 N 608.977 -1.30795 0.87923 0
M  V30 6353 C 610.207 -2.00237 0.50881 0
M  V30 6354 C 610.615 -1.66115 -0.905682 0
M  V30 6355 O 609.958 -0.89138 -1.60624 0
M  V30 6356 C 610.02 -3.54508 0.597003 0
M  V30 6357 C 609.684 -4.12131 1.97477 0
M  V30 6358 C 610.681 -4.28552 2.94346 0
M  V30 6359 C 608.366 -4.47644 2.2786 0
M  V30 6360 C 610.36 -4.79689 4.19735 0
M  V30 6361 C 608.047 -4.98481 3.53496 0
M  V30 6362 C 609.045 -5.14456 4.49248 0
M  V30 6363 O 608.733 -5.64199 5.72656 0
M  V30 6364 H 608.465 -0.647026 0.195788 0
M  V30 6365 H 611.019 -1.67785 1.1848 0
M  V30 6366 H 609.249 -3.86461 -0.135945 0
M  V30 6367 H 610.938 -4.05198 0.238684 0
M  V30 6368 H 611.704 -4.01424 2.72183 0
M  V30 6369 H 607.583 -4.34481 1.54102 0
M  V30 6370 H 611.127 -4.92073 4.9448 0
M  V30 6371 H 607.024 -5.25044 3.75498 0
M  V30 6372 H 607.792 -5.82551 5.74957 0
M  V30 6373 N 610.455 -0.639598 -1.44038 0
M  V30 6374 C 611.701 -0.147698 -2.02261 0
M  V30 6375 C 612.034 1.23031 -1.50256 0
M  V30 6376 O 611.309 1.81847 -0.690068 0
M  V30 6377 C 611.592 -0.14362 -3.59813 0
M  V30 6378 C 611.445 -1.55458 -4.22082 0
M  V30 6379 C 612.764 0.527317 -4.36929 0
M  V30 6380 H 609.883 -0.0551453 -0.734934 0
M  V30 6381 H 612.525 -0.817688 -1.71505 0
M  V30 6382 H 610.675 0.426898 -3.86147 0
M  V30 6383 H 612.347 -2.17464 -4.06826 0
M  V30 6384 H 610.59 -2.10594 -3.79253 0
M  V30 6385 H 611.261 -1.50369 -5.31124 0
M  V30 6386 H 613.737 0.0420504 -4.16079 0
M  V30 6387 H 612.613 0.499389 -5.46624 0
M  V30 6388 H 612.874 1.59914 -4.12165 0
M  V30 6389 N 611.933 1.52934 -0.380664 0
M  V30 6390 C 613.181 2.01069 0.203874 0
M  V30 6391 C 613.502 1.26922 1.4804 0
M  V30 6392 O 612.772 0.386787 1.92044 0
M  V30 6393 H 611.352 0.742882 0.0783279 0
M  V30 6394 H 614.014 1.88099 -0.510368 0
M  V30 6395 H 613.11 3.09258 0.42021 0
M  V30 6396 N 613.412 0.11024 1.57214 0
M  V30 6397 C 614.652 -0.553061 1.96775 0
M  V30 6398 C 615.016 -1.64403 0.991753 0
M  V30 6399 O 616.217 -2.36561 1.27642 0
M  V30 6400 C 614.488 -1.08004 3.4069 0
M  V30 6401 S 616.047 -1.75309 4.02259 0
M  V30 6402 H 612.865 -0.18003 0.68783 0
M  V30 6403 H 615.467 0.193242 1.94543 0
M  V30 6404 H 614.171 -0.274735 4.09479 0
M  V30 6405 H 613.702 -1.86182 3.46554 0
M  V30 6406 H 615.717 -3.03834 3.923 0
M  V30 6407 N 614.89 -1.56749 -0.16351 0
M  V30 6408 C 615.84 -1.93424 -1.20712 0
M  V30 6409 C 616.824 -0.803469 -1.39403 0
M  V30 6410 O 618.016 -1.06675 -1.41243 0
M  V30 6411 C 615.145 -2.30431 -2.54473 0
M  V30 6412 C 614.231 -3.5004 -2.39443 0
M  V30 6413 N 614.622 -4.67058 -1.9414 0
M  V30 6414 C 612.92 -3.548 -2.70246 0
M  V30 6415 C 613.621 -5.49184 -1.9176 0
M  V30 6416 N 612.597 -4.9044 -2.34457 0
M  V30 6417 H 616.399 -2.8138 -0.848681 0
M  V30 6418 H 613.913 -1.58089 -0.371717 0
M  V30 6419 H 615.91 -2.54903 -3.29894 0
M  V30 6420 H 614.57 -1.43818 -2.91112 0
M  V30 6421 H 615.581 -4.91128 -1.64357 0
M  V30 6422 H 612.258 -2.78685 -3.10871 0
M  V30 6423 H 613.648 -6.5297 -1.58366 0
M  V30 6424 N 616.368 0.432326 -1.51554 0
M  V30 6425 C 617.316 1.54572 -1.73811 0
M  V30 6426 C 618.31 1.58246 -0.604539 0
M  V30 6427 O 619.516 1.6193 -0.786041 0
M  V30 6428 H 615.891 0.513626 -0.549265 0
M  V30 6429 H 617.862 1.32977 -2.67132 0
M  V30 6430 C 616.611 2.92181 -1.88483 0
M  V30 6431 H 615.934 2.90088 -2.75116 0
M  V30 6432 H 617.374 3.69439 -2.08065 0
M  V30 6433 C 615.833 3.3065 -0.645909 0
M  V30 6434 O 616.363 4.01216 0.197093 0
M  V30 6435 N 614.569 2.86464 -0.488538 0
M  V30 6436 H 614.116 2.29209 -1.17562 0
M  V30 6437 H 614.074 3.12565 0.339156 0
M  V30 6438 N 617.846 1.41785 0.688094 0
M  V30 6439 C 618.793 1.44221 1.80191 0
M  V30 6440 C 619.763 0.295688 1.63447 0
M  V30 6441 O 620.948 0.49783 1.84191 0
M  V30 6442 C 618.088 1.33743 3.1813 0
M  V30 6443 C 617.201 2.58325 3.46254 0
M  V30 6444 C 616.336 2.40086 4.73848 0
M  V30 6445 C 615.375 3.60107 4.94964 0
M  V30 6446 N 614.512 3.40892 6.13789 0
M  V30 6447 H 619.352 2.39411 1.77444 0
M  V30 6448 H 616.889 1.18876 0.866423 0
M  V30 6449 H 618.847 1.25669 3.97823 0
M  V30 6450 H 617.477 0.42157 3.20035 0
M  V30 6451 H 616.529 2.7682 2.60912 0
M  V30 6452 H 617.841 3.4758 3.57756 0
M  V30 6453 H 616.995 2.29522 5.61609 0
M  V30 6454 H 615.734 1.483 4.64606 0
M  V30 6455 H 614.739 3.71118 4.05649 0
M  V30 6456 H 615.964 4.52857 5.06061 0
M  V30 6457 H 613.91 2.51812 6.05745 0
M  V30 6458 H 613.827 4.23727 6.26092 0
M  V30 6459 H 615.095 3.34114 7.04264 0
M  V30 6460 N 619.324 -0.923095 1.27737 0
M  V30 6461 C 620.564 -1.6858 1.15586 0
M  V30 6462 C 620.928 -1.89758 -0.292562 0
M  V30 6463 O 622.129 -2.6339 -0.536583 0
M  V30 6464 C 620.4 -3.01275 1.92271 0
M  V30 6465 S 621.959 -3.924 1.96387 0
M  V30 6466 H 618.777 -0.579069 0.412554 0
M  V30 6467 H 621.379 -1.09866 1.61709 0
M  V30 6468 H 620.083 -2.83556 2.96689 0
M  V30 6469 H 619.614 -3.6504 1.46661 0
M  V30 6470 H 621.629 -4.84667 1.06361 0
M  V30 6471 N 620.802 -1.09834 -1.13024 0
M  V30 6472 C 621.765 -0.745058 -2.16752 0
M  V30 6473 C 622.765 0.227435 -1.59183 0
M  V30 6474 O 623.955 0.0050786 -1.74199 0
M  V30 6475 C 621.087 -0.102543 -3.40746 0
M  V30 6476 H 622.28 -1.66375 -2.49518 0
M  V30 6477 H 619.833 -0.898061 -1.27924 0
M  V30 6478 H 620.568 0.827177 -3.13573 0
M  V30 6479 H 620.353 -0.80235 -3.83803 0
M  V30 6480 H 621.843 0.129082 -4.174 0
M  V30 6481 N 622.28 1.30327 -0.886154 0
M  V30 6482 C 623.51 1.99964 -0.519421 0
M  V30 6483 C 623.918 1.66593 0.89686 0
M  V30 6484 O 623.261 0.899886 1.60149 0
M  V30 6485 C 623.323 3.54187 -0.615795 0
M  V30 6486 C 622.987 4.11078 -1.9966 0
M  V30 6487 C 623.984 4.26985 -2.96614 0
M  V30 6488 C 621.669 4.46429 -2.30231 0
M  V30 6489 C 623.663 4.77456 -4.22273 0
M  V30 6490 C 621.35 4.966 -3.56135 0
M  V30 6491 C 622.348 5.12066 -4.5197 0
M  V30 6492 O 622.036 5.61154 -5.7564 0
M  V30 6493 H 621.768 0.645979 -0.199217 0
M  V30 6494 H 624.322 1.67154 -1.19368 0
M  V30 6495 H 622.552 3.86528 0.115448 0
M  V30 6496 H 624.241 4.05065 -0.26017 0
M  V30 6497 H 625.007 3.99975 -2.74308 0
M  V30 6498 H 620.886 4.33658 -1.56404 0
M  V30 6499 H 624.43 4.89444 -4.97082 0
M  V30 6500 H 620.327 5.23045 -3.78277 0
M  V30 6501 H 621.095 5.79494 -5.78039 0
M  V30 6502 N 623.758 0.647228 1.43697 0
M  V30 6503 C 625.004 0.167001 2.02713 0
M  V30 6504 C 625.359 -1.20351 1.50111 0
M  V30 6505 O 624.652 -1.79047 0.682113 0
M  V30 6506 C 624.846 0.111481 3.57226 0
M  V30 6507 C 624.675 1.47507 4.2482 0
M  V30 6508 C 623.445 2.06594 4.61137 0
M  V30 6509 C 625.643 2.41224 4.54219 0
M  V30 6510 N 623.625 3.3602 5.13774 0
M  V30 6511 C 624.996 3.55278 5.08112 0
M  V30 6512 C 627.051 2.40102 4.36183 0
M  V30 6513 C 625.754 4.68426 5.45866 0
M  V30 6514 C 627.78 3.52326 4.74995 0
M  V30 6515 C 627.142 4.65104 5.29015 0
M  V30 6516 H 623.241 0.105402 0.774864 0
M  V30 6517 H 625.825 0.854229 1.7496 0
M  V30 6518 H 623.996 -0.545073 3.84556 0
M  V30 6519 H 625.728 -0.379063 4.02921 0
M  V30 6520 H 622.483 1.59366 4.45981 0
M  V30 6521 H 622.907 4.02233 5.44552 0
M  V30 6522 H 627.549 1.54151 3.93697 0
M  V30 6523 H 625.267 5.55074 5.87298 0
M  V30 6524 H 628.853 3.52652 4.6274 0
M  V30 6525 H 627.733 5.50506 5.58492 0
M  V30 6526 N 625.236 -1.5273 0.388769 0
M  V30 6527 C 626.482 -2.01871 -0.193877 0
M  V30 6528 C 626.815 -1.27475 -1.46505 0
M  V30 6529 O 626.09 -0.375063 -1.90849 0
M  V30 6530 C 626.373 -3.5712 -0.462336 0
M  V30 6531 C 626.226 -4.42186 0.824091 0
M  V30 6532 C 627.545 -4.21881 -1.25319 0
M  V30 6533 H 624.664 -0.733764 -0.0689899 0
M  V30 6534 H 627.306 -1.82796 0.518231 0
M  V30 6535 H 625.456 -3.73504 -1.06896 0
M  V30 6536 H 627.128 -4.37554 1.46096 0
M  V30 6537 H 625.371 -4.09219 1.43952 0
M  V30 6538 H 626.042 -5.48828 0.590905 0
M  V30 6539 H 628.518 -4.0947 -0.73981 0
M  V30 6540 H 627.394 -5.30487 -1.40977 0
M  V30 6541 H 627.655 -3.79478 -2.26824 0
M  V30 6542 N 626.714 -0.118576 -1.57153 0
M  V30 6543 C 628.125 0.40687 -1.82213 0
M  V30 6544 C 628.476 1.66636 -1.03571 0
M  V30 6545 O 627.601 2.14682 -0.272171 0
M  V30 6546 C 628.196 0.744949 -3.30509 0
M  V30 6547 C 626.755 1.21503 -3.5625 0
M  V30 6548 C 625.902 0.223511 -2.76398 0
M  V30 6549 H 628.853 -0.343712 -1.54933 0
M  V30 6550 H 628.874 1.6024 -3.45114 0
M  V30 6551 H 628.386 -0.171911 -3.87719 0
M  V30 6552 H 626.487 2.1488 -3.04396 0
M  V30 6553 H 626.6 1.16065 -4.64829 0
M  V30 6554 H 624.964 0.71046 -2.44591 0
M  V30 6555 H 625.747 -0.686439 -3.36367 0
M  V30 6556 N 628.193 1.56834 0.155195 0
M  V30 6557 C 629.609 1.51315 0.50755 0
M  V30 6558 C 629.809 0.825614 1.83809 0
M  V30 6559 O 628.865 0.39271 2.49427 0
M  V30 6560 C 630.178 2.96074 0.52542 0
M  V30 6561 C 631.726 3.06968 0.611505 0
M  V30 6562 C 632.201 4.53218 0.660115 0
M  V30 6563 N 633.692 4.5753 0.722564 0
M  V30 6564 C 634.427 5.68056 0.781023 0
M  V30 6565 N 633.923 6.88173 0.799327 0
M  V30 6566 N 635.716 5.56068 0.821278 0
M  V30 6567 H 627.867 1.9993 -0.717063 0
M  V30 6568 H 630.13 0.911507 -0.260496 0
M  V30 6569 H 629.836 3.49599 -0.383875 0
M  V30 6570 H 629.71 3.51587 1.36624 0
M  V30 6571 H 632.097 2.53468 1.51122 0
M  V30 6572 H 632.178 2.54513 -0.256306 0
M  V30 6573 H 631.822 5.07354 -0.23541 0
M  V30 6574 H 631.752 5.03447 1.5443 0
M  V30 6575 H 634.243 3.71054 0.716049 0
M  V30 6576 H 634.556 7.6816 0.845553 0
M  V30 6577 H 632.901 6.90751 0.767337 0
M  V30 6578 H 636.092 4.61142 0.804091 0
M  V30 6579 H 636.265 6.42223 0.863372 0
M  V30 6580 N 629.671 -0.424282 1.51781 0
M  V30 6581 C 630.634 -1.49848 1.73431 0
M  V30 6582 C 631.634 -1.49016 0.604225 0
M  V30 6583 O 632.824 -1.50808 0.871935 0
M  V30 6584 C 629.956 -2.89332 1.80277 0
M  V30 6585 H 631.149 -1.3195 2.69312 0
M  V30 6586 H 628.702 -0.653809 1.41968 0
M  V30 6587 H 629.437 -3.12618 0.862568 0
M  V30 6588 H 629.222 -2.9134 2.62419 0
M  V30 6589 H 630.712 -3.67233 1.98821 0
M  V30 6590 N 631.149 -1.42148 -0.680565 0
M  V30 6591 C 632.374 -1.45901 -1.47403 0
M  V30 6592 C 632.799 -0.0700985 -1.87969 0
M  V30 6593 O 632.157 0.930145 -1.55621 0
M  V30 6594 C 632.205 -2.38661 -2.70321 0
M  V30 6595 O 631.309 -1.85399 -3.68376 0
M  V30 6596 H 630.65 -0.494565 -0.443059 0
M  V30 6597 H 633.18 -1.86774 -0.835251 0
M  V30 6598 H 633.19 -2.55046 -3.18458 0
M  V30 6599 H 631.865 -3.39571 -2.40134 0
M  V30 6600 H 630.442 -1.78541 -3.2738 0
M  V30 6601 N 632.627 0.916307 -1.28225 0
M  V30 6602 C 633.59 1.99996 -1.11957 0
M  V30 6603 C 634.59 1.60688 -0.0600152 0
M  V30 6604 O 635.78 1.71499 -0.30558 0
M  V30 6605 C 632.912 3.33458 -0.708411 0
M  V30 6606 H 634.105 2.15858 -2.08196 0
M  V30 6607 H 631.658 1.09863 -1.11175 0
M  V30 6608 H 632.393 3.23297 0.254859 0
M  V30 6609 H 632.178 3.63349 -1.47377 0
M  V30 6610 H 633.668 4.13014 -0.617164 0
M  V30 6611 N 634.105 1.10431 1.1244 0
M  V30 6612 C 635.053 0.747974 2.20246 0
M  V30 6613 C 636.047 -0.255848 1.67457 0
M  V30 6614 O 637.253 -0.116221 1.79624 0
M  V30 6615 H 633.628 0.223946 0.71788 0
M  V30 6616 H 635.599 1.6661 2.47556 0
M  V30 6617 C 634.348 0.195957 3.47147 0
M  V30 6618 H 633.671 0.959606 3.88113 0
M  V30 6619 H 635.111 -0.0153154 4.23997 0
M  V30 6620 C 633.57 -1.07132 3.19413 0
M  V30 6621 O 634.1 -2.15284 3.3914 0
M  V30 6622 N 632.306 -0.98994 2.73219 0
M  V30 6623 H 631.853 -0.109736 2.57366 0
M  V30 6624 H 631.811 -1.83856 2.55038 0
M  V30 6625 N 635.583 -1.29855 0.893053 0
M  V30 6626 C 636.832 -1.95104 0.511597 0
M  V30 6627 C 637.145 -1.71226 -0.945567 0
M  V30 6628 O 638.351 -2.30525 -1.43424 0
M  V30 6629 C 636.807 -3.49374 0.864034 0
M  V30 6630 C 636.415 -3.82061 2.33952 0
M  V30 6631 C 638.159 -4.20894 0.552167 0
M  V30 6632 C 636.066 -5.29546 2.63316 0
M  V30 6633 H 634.996 -0.73029 0.187597 0
M  V30 6634 H 637.647 -1.47682 1.08914 0
M  V30 6635 H 636.029 -3.95413 0.215493 0
M  V30 6636 H 637.203 -3.46904 3.03305 0
M  V30 6637 H 635.518 -3.23665 2.61973 0
M  V30 6638 H 638.115 -5.29435 0.748489 0
M  V30 6639 H 638.458 -4.13178 -0.508924 0
M  V30 6640 H 638.991 -3.80564 1.15825 0
M  V30 6641 H 635.73 -5.4232 3.68197 0
M  V30 6642 H 635.25 -5.65974 1.9858 0
M  V30 6643 H 636.929 -5.97068 2.49236 0
M  V30 6644 N 637.061 -0.65484 -1.43351 0
M  V30 6645 C 638.309 -0.168559 -2.01396 0
M  V30 6646 C 638.63 1.22235 -1.51933 0
M  V30 6647 O 637.9 1.81685 -0.732627 0
M  V30 6648 H 636.48 -0.0593244 -0.744641 0
M  V30 6649 H 639.142 -0.846871 -1.75539 0
M  V30 6650 H 638.238 -0.154428 -3.11718 0
M  V30 6651 N 638.539 1.52521 -0.396863 0
M  V30 6652 C 639.779 2.03583 0.182578 0
M  V30 6653 C 640.143 1.2766 1.43412 0
M  V30 6654 O 641.344 1.68884 2.09121 0
M  V30 6655 C 639.615 3.54724 0.436519 0
M  V30 6656 S 641.174 4.27598 0.985163 0
M  V30 6657 H 637.992 0.709186 0.0507529 0
M  V30 6658 H 640.594 1.87693 -0.546955 0
M  V30 6659 H 639.298 4.07567 -0.481343 0
M  V30 6660 H 638.829 3.74834 1.19427 0
M  V30 6661 H 640.844 4.41393 2.26686 0
M  V30 6662 N 640.017 0.126909 1.57088 0
M  V30 6663 C 640.965 -0.837618 2.16995 0
M  V30 6664 C 641.959 -1.26974 1.12133 0
M  V30 6665 O 643.165 -1.24056 1.30423 0
M  V30 6666 H 639.54 -0.288256 0.694559 0
M  V30 6667 H 641.511 -0.307957 2.96807 0
M  V30 6668 C 640.26 -2.07474 2.79016 0
M  V30 6669 H 639.583 -1.75117 3.59408 0
M  V30 6670 H 641.023 -2.72949 3.24461 0
M  V30 6671 C 639.482 -2.86967 1.76498 0
M  V30 6672 O 640.012 -3.82625 1.22316 0
M  V30 6673 N 638.218 -2.51111 1.46258 0
M  V30 6674 H 637.765 -1.73389 1.90509 0
M  V30 6675 H 637.723 -3.04594 0.779085 0
M  V30 6676 N 641.495 -1.56914 -0.146875 0
M  V30 6677 C 642.445 -1.94693 -1.18653 0
M  V30 6678 C 643.429 -0.81821 -1.38543 0
M  V30 6679 O 644.621 -1.08167 -1.40103 0
M  V30 6680 C 641.75 -2.33117 -2.52014 0
M  V30 6681 C 640.836 -3.5256 -2.35717 0
M  V30 6682 N 641.227 -4.69091 -1.89175 0
M  V30 6683 C 639.525 -3.57647 -2.66467 0
M  V30 6684 C 640.226 -5.51187 -1.85924 0
M  V30 6685 N 639.202 -4.92899 -2.29242 0
M  V30 6686 H 643.004 -2.82264 -0.81879 0
M  V30 6687 H 640.518 -1.58474 -0.354929 0
M  V30 6688 H 642.515 -2.58387 -3.27172 0
M  V30 6689 H 641.175 -1.46898 -2.89571 0
M  V30 6690 H 642.186 -4.92844 -1.59139 0
M  V30 6691 H 638.863 -2.81967 -3.07898 0
M  V30 6692 H 640.253 -6.54613 -1.51431 0
M  V30 6693 N 642.974 0.416227 -1.52004 0
M  V30 6694 C 644.202 1.18573 -1.69553 0
M  V30 6695 C 644.617 1.84472 -0.401919 0
M  V30 6696 O 643.974 1.71593 0.621463 0
M  V30 6697 C 644.025 2.25413 -2.82615 0
M  V30 6698 O 643.746 1.62205 -4.06966 0
M  V30 6699 C 645.247 3.15297 -3.11613 0
M  V30 6700 H 642.467 0.356582 -0.56841 0
M  V30 6701 H 645.011 0.490618 -1.98528 0
M  V30 6702 H 643.166 2.90604 -2.56179 0
M  V30 6703 H 643.58 2.3298 -4.69916 0
M  V30 6704 H 645.054 3.86351 -3.94255 0
M  V30 6705 H 645.531 3.77264 -2.24874 0
M  V30 6706 H 646.137 2.55783 -3.39787 0
M  V30 6707 N 644.452 1.42507 0.673017 0
M  V30 6708 C 645.7 1.42789 1.43023 0
M  V30 6709 C 646.021 0.0459738 1.94946 0
M  V30 6710 O 645.291 -0.915765 1.73178 0
M  V30 6711 H 643.871 0.525657 0.530748 0
M  V30 6712 H 646.533 1.77944 0.795113 0
M  V30 6713 H 645.629 2.12872 2.28237 0
M  V30 6714 N 645.93 -0.909495 1.28709 0
M  V30 6715 C 647.176 -1.66151 1.16283 0
M  V30 6716 C 647.509 -1.92067 -0.287069 0
M  V30 6717 O 646.784 -1.52409 -1.20837 0
M  V30 6718 C 647.067 -3.01676 1.9663 0
M  V30 6719 C 646.92 -2.82888 3.49707 0
M  V30 6720 C 648.239 -4.02274 1.78504 0
M  V30 6721 H 645.358 -0.602966 0.423793 0
M  V30 6722 H 648 -1.05418 1.58073 0
M  V30 6723 H 646.15 -3.53515 1.61119 0
M  V30 6724 H 647.822 -2.38026 3.95147 0
M  V30 6725 H 646.065 -2.17862 3.75125 0
M  V30 6726 H 646.736 -3.79147 4.01187 0
M  V30 6727 H 649.212 -3.59511 2.09503 0
M  V30 6728 H 648.088 -4.95056 2.37088 0
M  V30 6729 H 648.349 -4.35903 0.737647 0
M  V30 6730 N 647.408 -1.11026 -1.11852 0
M  V30 6731 C 648.654 -0.857729 -1.83768 0
M  V30 6732 C 648.987 0.615143 -1.842 0
M  V30 6733 O 648.262 1.45391 -1.29196 0
M  V30 6734 C 648.545 -1.41453 -3.31154 0
M  V30 6735 C 648.398 -2.95471 -3.39142 0
M  V30 6736 C 649.717 -1.0619 -4.27097 0
M  V30 6737 H 646.836 -0.313044 -0.667212 0
M  V30 6738 H 649.478 -1.37443 -1.31185 0
M  V30 6739 H 647.628 -0.975052 -3.76065 0
M  V30 6740 H 649.3 -3.4799 -3.02821 0
M  V30 6741 H 647.543 -3.31759 -2.79497 0
M  V30 6742 H 648.214 -3.29515 -4.42859 0
M  V30 6743 H 650.69 -1.44122 -3.90344 0
M  V30 6744 H 649.566 -1.47832 -5.28618 0
M  V30 6745 H 649.827 0.0278912 -4.42091 0
M  V30 6746 N 648.886 1.2938 -0.899927 0
M  V30 6747 C 650.134 1.95164 -0.524924 0
M  V30 6748 C 650.455 1.71292 0.931888 0
M  V30 6749 O 649.725 1.04481 1.65712 0
M  V30 6750 H 648.305 0.722133 -0.191135 0
M  V30 6751 H 650.967 1.57628 -1.14627 0
M  V30 6752 H 650.063 3.0397 -0.707711 0
M  V30 6753 N 650.364 0.662433 1.43002 0
M  V30 6754 C 651.274 -0.0239199 2.34588 0
M  V30 6755 C 652.29 -0.802255 1.54402 0
M  V30 6756 O 653.466 -0.747401 1.87018 0
M  V30 6757 C 650.531 -0.972098 3.32793 0
M  V30 6758 C 649.592 -0.189673 4.28881 0
M  V30 6759 C 648.825 -1.09269 5.22395 0
M  V30 6760 O 649.048 -2.33209 5.20547 0
M  V30 6761 O 647.982 -0.560136 5.99288 0
M  V30 6762 H 651.808 0.730171 2.94792 0
M  V30 6763 H 649.393 0.422635 1.43297 0
M  V30 6764 H 651.275 -1.51676 3.93157 0
M  V30 6765 H 649.95 -1.70626 2.75079 0
M  V30 6766 H 648.857 0.398794 3.71968 0
M  V30 6767 H 650.19 0.50511 4.89601 0
M  V30 6768 N 651.842 -1.52309 0.404946 0
M  V30 6769 C 653.09 -2.01368 -0.17186 0
M  V30 6770 C 653.411 -1.29261 -1.46002 0
M  V30 6771 O 652.681 -0.41729 -1.91404 0
M  V30 6772 H 651.261 -0.744034 -0.0664993 0
M  V30 6773 H 653.923 -1.87263 0.540228 0
M  V30 6774 H 653.019 -3.09888 -0.370957 0
M  V30 6775 N 653.32 -0.135238 -1.57019 0
M  V30 6776 C 654.545 0.529343 -2.00531 0
M  V30 6777 C 654.97 1.58391 -1.01459 0
M  V30 6778 O 654.328 1.81296 0.0113986 0
M  V30 6779 C 654.376 1.11748 -3.42848 0
M  V30 6780 O 653.48 2.23267 -3.46736 0
M  V30 6781 H 652.821 0.130669 -0.651016 0
M  V30 6782 H 655.351 -0.228503 -2.0332 0
M  V30 6783 H 655.361 1.44905 -3.81401 0
M  V30 6784 H 654.036 0.345147 -4.14465 0
M  V30 6785 H 652.613 1.91428 -3.20015 0
M  V30 6786 N 654.798 1.5699 0.138552 0
M  V30 6787 C 655.708 2.02174 1.19008 0
M  V30 6788 C 656.724 0.938622 1.46512 0
M  V30 6789 O 657.9 1.24872 1.58016 0
M  V30 6790 C 654.965 2.40045 2.50159 0
M  V30 6791 C 654.026 3.62346 2.30226 0
M  V30 6792 C 653.259 3.98401 3.55123 0
M  V30 6793 O 653.482 3.35019 4.61647 0
M  V30 6794 O 652.416 4.91606 3.47285 0
M  V30 6795 H 656.242 2.91954 0.836452 0
M  V30 6796 H 653.827 1.45293 0.347907 0
M  V30 6797 H 655.709 2.65225 3.27465 0
M  V30 6798 H 654.384 1.53417 2.85035 0
M  V30 6799 H 653.291 3.42341 1.50843 0
M  V30 6800 H 654.624 4.49617 2.00262 0
M  V30 6801 N 656.276 -0.40816 1.52223 0
M  V30 6802 C 657.524 -1.15274 1.66001 0
M  V30 6803 C 657.845 -1.91003 0.392803 0
M  V30 6804 O 657.115 -1.8673 -0.592336 0
M  V30 6805 H 655.695 -0.428526 0.611861 0
M  V30 6806 H 658.357 -0.46512 1.89269 0
M  V30 6807 H 657.453 -1.86628 2.50153 0
M  V30 6808 N 657.755 -1.42862 -0.66545 0
M  V30 6809 C 658.685 -1.49867 -1.79059 0
M  V30 6810 C 659.666 -0.354394 -1.66367 0
M  V30 6811 O 660.851 -0.569969 -1.85647 0
M  V30 6812 C 657.981 -1.40943 -3.17415 0
M  V30 6813 C 656.935 -2.53495 -3.44854 0
M  V30 6814 C 656.261 -2.29626 -4.82883 0
M  V30 6815 C 657.561 -3.95781 -3.40815 0
M  V30 6816 H 659.255 -2.44037 -1.73453 0
M  V30 6817 H 656.801 -1.17456 -0.833071 0
M  V30 6818 H 658.754 -1.4445 -3.95869 0
M  V30 6819 H 657.478 -0.432716 -3.23721 0
M  V30 6820 H 656.137 -2.4932 -2.68766 0
M  V30 6821 H 655.785 -1.30226 -4.8585 0
M  V30 6822 H 655.485 -3.05065 -5.02204 0
M  V30 6823 H 657.009 -2.34897 -5.63609 0
M  V30 6824 H 658.423 -4.01508 -4.09224 0
M  V30 6825 H 656.82 -4.71148 -3.71672 0
M  V30 6826 H 657.89 -4.21786 -2.39216 0
M  V30 6827 N 659.233 0.902656 -1.29189 0
M  V30 6828 C 660.181 2.0278 -1.13943 0
M  V30 6829 C 661.175 1.69308 -0.055787 0
M  V30 6830 O 662.381 1.78707 -0.215371 0
M  V30 6831 H 658.756 0.664595 -0.351877 0
M  V30 6832 H 660.727 2.12778 -2.09208 0
M  V30 6833 C 659.476 3.37657 -0.82966 0
M  V30 6834 H 658.799 3.63913 -1.65551 0
M  V30 6835 H 660.239 4.17078 -0.762998 0
M  V30 6836 C 658.698 3.33648 0.466991 0
M  V30 6837 O 659.228 3.72886 1.49395 0
M  V30 6838 N 657.434 2.86745 0.471761 0
M  V30 6839 H 656.981 2.55009 -0.364406 0
M  V30 6840 H 656.939 2.84446 1.33933 0
M  V30 6841 N 660.711 1.11618 1.11262 0
M  V30 6842 C 661.988 0.777876 1.79467 0
M  V30 6843 C 662.368 -0.733774 1.97937 0
M  V30 6844 O 661.716 -1.66443 1.56554 0
M  V30 6845 C 661.926 1.5431 3.13032 0
M  V30 6846 C 663.274 1.72357 3.88044 0
M  V30 6847 O 664.298 1.5075 3.22727 0
M  V30 6848 O 663.157 2.08276 5.05256 0
M  V30 6849 H 660.251 0.282018 0.777428 0
M  V30 6850 H 662.797 1.21971 1.17988 0
M  V30 6851 H 661.569 2.57132 2.94956 0
M  V30 6852 H 661.192 1.09495 3.82226 0
M  V30 6853 N 662.189 -1.289 0.906776 0
M  V30 6854 C 663.137 -2.29477 0.379873 0
M  V30 6855 C 664.131 -1.61068 -0.524747 0
M  V30 6856 O 665.337 -1.75344 -0.406765 0
M  V30 6857 H 661.712 -0.744742 0.10423 0
M  V30 6858 H 663.683 -2.71353 1.24137 0
M  V30 6859 C 662.432 -3.45713 -0.371154 0
M  V30 6860 H 661.755 -3.98551 0.315716 0
M  V30 6861 H 663.195 -4.18105 -0.704581 0
M  V30 6862 C 661.654 -2.9774 -1.57646 0
M  V30 6863 O 662.184 -2.99618 -2.67567 0
M  V30 6864 N 660.39 -2.53485 -1.42105 0
M  V30 6865 H 659.937 -2.52156 -0.526783 0
M  V30 6866 H 659.895 -2.21747 -2.22881 0
M  V30 6867 N 663.667 -0.670007 -1.42649 0
M  V30 6868 C 664.597 -0.00258501 -2.335 0
M  V30 6869 C 665.578 0.794364 -1.50412 0
M  V30 6870 O 666.763 0.75248 -1.79029 0
M  V30 6871 C 663.893 0.952748 -3.33976 0
M  V30 6872 C 662.847 0.264733 -4.2718 0
M  V30 6873 C 662.173 1.33267 -5.17826 0
M  V30 6874 C 663.473 -0.853289 -5.15283 0
M  V30 6875 H 665.167 -0.761326 -2.89559 0
M  V30 6876 H 662.713 -0.367561 -1.3923 0
M  V30 6877 H 664.666 1.4287 -3.96442 0
M  V30 6878 H 663.39 1.74285 -2.7621 0
M  V30 6879 H 662.049 -0.190938 -3.66102 0
M  V30 6880 H 661.697 2.11464 -4.5639 0
M  V30 6881 H 661.397 0.877476 -5.81011 0
M  V30 6882 H 662.921 1.80965 -5.83167 0
M  V30 6883 H 664.335 -0.458763 -5.71462 0
M  V30 6884 H 662.732 -1.23398 -5.87276 0
M  V30 6885 H 663.802 -1.70412 -4.53969 0
M  V30 6886 N 665.145 1.52092 -0.413018 0
M  V30 6887 C 666.075 2.30021 0.401567 0
M  V30 6888 C 667.056 1.34395 1.04269 0
M  V30 6889 O 668.241 1.63304 1.05097 0
M  V30 6890 C 665.371 3.12447 1.51638 0
M  V30 6891 C 664.325 4.16153 1.00005 0
M  V30 6892 C 663.651 4.86948 2.20875 0
M  V30 6893 C 664.951 5.22275 0.0513757 0
M  V30 6894 H 666.645 2.98365 -0.248704 0
M  V30 6895 H 664.191 1.4349 -0.121052 0
M  V30 6896 H 666.144 3.65733 2.09326 0
M  V30 6897 H 664.868 2.41879 2.19458 0
M  V30 6898 H 663.527 3.63882 0.445549 0
M  V30 6899 H 663.175 4.12905 2.8726 0
M  V30 6900 H 662.875 5.57057 1.86978 0
M  V30 6901 H 664.399 5.43048 2.79162 0
M  V30 6902 H 665.813 5.70778 0.537176 0
M  V30 6903 H 664.21 5.9977 -0.198977 0
M  V30 6904 H 665.28 4.76611 -0.892736 0
M  V30 6905 N 666.623 0.143563 1.56945 0
M  V30 6906 C 667.533 -0.810562 2.20152 0
M  V30 6907 C 668.549 -1.27431 1.1848 0
M  V30 6908 O 669.725 -1.33221 1.51044 0
M  V30 6909 C 666.79 -2.03353 2.80799 0
M  V30 6910 C 665.851 -1.61936 3.97587 0
M  V30 6911 C 665.084 -2.78403 4.55332 0
M  V30 6912 O 665.307 -3.94521 4.11958 0
M  V30 6913 O 664.241 -2.54073 5.45647 0
M  V30 6914 H 668.067 -0.30253 3.02189 0
M  V30 6915 H 665.652 -0.0832925 1.49168 0
M  V30 6916 H 667.534 -2.74932 3.19359 0
M  V30 6917 H 666.209 -2.53116 2.01777 0
M  V30 6918 H 665.116 -0.873904 3.6375 0
M  V30 6919 H 666.449 -1.16892 4.78118 0
M  V30 6920 N 668.101 -1.57061 -0.130224 0
M  V30 6921 C 669.35 -1.83446 -0.838488 0
M  V30 6922 C 669.663 -0.727468 -1.81569 0
M  V30 6923 O 670.869 -0.877394 -2.56932 0
M  V30 6924 C 669.325 -3.25201 -1.54182 0
M  V30 6925 C 668.933 -4.4388 -0.606178 0
M  V30 6926 C 670.677 -3.60844 -2.23588 0
M  V30 6927 C 668.584 -5.76661 -1.31209 0
M  V30 6928 H 667.514 -0.684185 -0.316871 0
M  V30 6929 H 670.165 -1.83273 -0.0912059 0
M  V30 6930 H 668.547 -3.1981 -2.33533 0
M  V30 6931 H 669.721 -4.60545 0.153308 0
M  V30 6932 H 668.036 -4.16395 -0.0196705 0
M  V30 6933 H 670.633 -4.57313 -2.77072 0
M  V30 6934 H 670.976 -2.87724 -3.00867 0
M  V30 6935 H 671.509 -3.67971 -1.51137 0
M  V30 6936 H 668.248 -6.52922 -0.580823 0
M  V30 6937 H 667.768 -5.63902 -2.04387 0
M  V30 6938 H 669.447 -6.20035 -1.8484 0
M  V30 6939 N 669.579 0.400081 -1.52437 0
M  V30 6940 C 670.509 1.4947 -1.7939 0
M  V30 6941 C 671.49 1.57383 -0.645329 0
M  V30 6942 O 672.675 1.72511 -0.891826 0
M  V30 6943 C 669.805 2.87201 -1.95276 0
M  V30 6944 C 668.759 2.94134 -3.10917 0
M  V30 6945 C 668.085 4.34207 -3.1204 0
M  V30 6946 C 669.385 2.64791 -4.50203 0
M  V30 6947 H 671.079 1.27165 -2.71052 0
M  V30 6948 H 668.625 0.610312 -1.30427 0
M  V30 6949 H 670.578 3.63772 -2.12715 0
M  V30 6950 H 669.302 3.10819 -1.00294 0
M  V30 6951 H 667.961 2.20009 -2.93243 0
M  V30 6952 H 667.609 4.54848 -2.14761 0
M  V30 6953 H 667.309 4.39768 -3.89715 0
M  V30 6954 H 668.833 5.127 -3.31619 0
M  V30 6955 H 670.247 3.31083 -4.68035 0
M  V30 6956 H 668.644 2.81717 -5.29864 0
M  V30 6957 H 669.714 1.60184 -4.57678 0
M  V30 6958 N 671.057 1.43213 0.657864 0
M  V30 6959 C 671.989 1.43974 1.78337 0
M  V30 6960 C 673.002 0.336482 1.59285 0
M  V30 6961 O 674.191 0.600631 1.68091 0
M  V30 6962 C 671.291 1.23242 3.15697 0
M  V30 6963 C 670.464 2.46319 3.61449 0
M  V30 6964 C 669.523 2.2088 4.77597 0
M  V30 6965 O 668.549 2.942 4.87273 0
M  V30 6966 N 669.751 1.22251 5.67481 0
M  V30 6967 H 672.516 2.40993 1.78164 0
M  V30 6968 H 670.077 1.3831 0.841549 0
M  V30 6969 H 672.069 1.04113 3.91079 0
M  V30 6970 H 670.639 0.346849 3.1067 0
M  V30 6971 H 669.859 2.80904 2.76563 0
M  V30 6972 H 671.147 3.28239 3.88763 0
M  V30 6973 H 670.545 0.616433 5.62331 0
M  V30 6974 H 669.102 1.09107 6.42603 0
M  V30 6975 N 672.536 -0.895792 1.29666 0
M  V30 6976 C 673.483 -2.00035 1.15129 0
M  V30 6977 C 674.453 -1.66043 0.0435819 0
M  V30 6978 O 675.638 -1.89621 0.211811 0
M  V30 6979 C 672.778 -3.34774 0.83787 0
M  V30 6980 C 671.891 -3.81525 2.0264 0
M  V30 6981 C 671.026 -5.04858 1.65201 0
M  V30 6982 C 670.065 -5.43988 2.80612 0
M  V30 6983 N 669.202 -6.58507 2.43544 0
M  V30 6984 H 674.042 -2.11802 2.09628 0
M  V30 6985 H 671.579 -1.03719 1.04311 0
M  V30 6986 H 673.537 -4.12311 0.636824 0
M  V30 6987 H 672.167 -3.22724 -0.0702314 0
M  V30 6988 H 671.219 -2.9999 2.33903 0
M  V30 6989 H 672.531 -4.06472 2.89106 0
M  V30 6990 H 671.685 -5.8999 1.41408 0
M  V30 6991 H 670.424 -4.81759 0.758893 0
M  V30 6992 H 669.429 -4.57388 3.05083 0
M  V30 6993 H 670.654 -5.69066 3.70595 0
M  V30 6994 H 668.6 -6.37004 1.56724 0
M  V30 6995 H 668.517 -6.83269 3.23542 0
M  V30 6996 H 669.785 -7.46897 2.2308 0
M  V30 6997 N 674.014 -1.12206 -1.10668 0
M  V30 6998 C 674.924 -0.800686 -2.20513 0
M  V30 6999 C 675.94 0.209512 -1.72734 0
M  V30 7000 O 677.116 0.043705 -2.01353 0
M  V30 7001 C 674.181 -0.257353 -3.45744 0
M  V30 7002 C 673.242 -1.32718 -4.0827 0
M  V30 7003 C 672.475 -0.809674 -5.27522 0
M  V30 7004 O 672.698 0.35742 -5.69279 0
M  V30 7005 O 671.632 -1.57816 -5.80842 0
M  V30 7006 H 675.458 -1.71807 -2.50432 0
M  V30 7007 H 673.043 -0.898546 -1.19359 0
M  V30 7008 H 674.925 0.0408849 -4.2138 0
M  V30 7009 H 673.6 0.632627 -3.17458 0
M  V30 7010 H 672.507 -1.67855 -3.34329 0
M  V30 7011 H 673.84 -2.19083 -4.40753 0
M  V30 7012 N 675.492 1.28418 -0.913599 0
M  V30 7013 C 676.439 2.27301 -0.400373 0
M  V30 7014 C 677.409 1.57582 0.52509 0
M  V30 7015 O 678.594 1.85482 0.447318 0
M  V30 7016 C 675.734 3.43284 0.35361 0
M  V30 7017 C 674.847 4.27752 -0.604341 0
M  V30 7018 C 673.982 5.30934 0.168075 0
M  V30 7019 C 673.021 6.07065 -0.783499 0
M  V30 7020 N 672.158 7.02086 -0.0446112 0
M  V30 7021 H 676.998 2.70579 -1.24865 0
M  V30 7022 H 674.535 1.33067 -0.627028 0
M  V30 7023 H 676.493 4.09322 0.806945 0
M  V30 7024 H 675.123 3.00997 1.16623 0
M  V30 7025 H 674.175 3.61759 -1.17621 0
M  V30 7026 H 675.487 4.80682 -1.33216 0
M  V30 7027 H 674.641 6.02855 0.681979 0
M  V30 7028 H 673.38 4.78771 0.928947 0
M  V30 7029 H 672.385 5.33995 -1.30878 0
M  V30 7030 H 673.61 6.61317 -1.54392 0
M  V30 7031 H 671.556 6.52273 0.698272 0
M  V30 7032 H 671.473 7.52637 -0.712258 0
M  V30 7033 H 672.741 7.78205 0.449102 0
M  V30 7034 N 676.97 0.677563 1.42291 0
M  V30 7035 C 678.216 0.201272 2.01799 0
M  V30 7036 C 678.549 -1.19004 1.53465 0
M  V30 7037 O 677.824 -1.79953 0.738039 0
M  V30 7038 C 678.107 0.238968 3.59306 0
M  V30 7039 C 677.96 1.66594 4.17812 0
M  V30 7040 C 679.279 -0.411287 4.38174 0
M  V30 7041 H 676.398 0.0746114 0.733214 0
M  V30 7042 H 679.04 0.862872 1.69276 0
M  V30 7043 H 677.19 -0.324368 3.87144 0
M  V30 7044 H 678.862 2.28173 4.00917 0
M  V30 7045 H 677.105 2.20576 3.73536 0
M  V30 7046 H 677.776 1.64398 5.26951 0
M  V30 7047 H 680.252 0.0682804 4.16044 0
M  V30 7048 H 679.128 -0.354286 5.47755 0
M  V30 7049 H 679.389 -1.4893 4.1626 0
M  V30 7050 N 678.448 -1.51871 0.421078 0
M  V30 7051 C 679.396 -2.28903 -0.413066 0
M  V30 7052 C 680.39 -1.3408 -1.03532 0
M  V30 7053 O 681.596 -1.5149 -0.972146 0
M  V30 7054 H 677.971 -0.736478 -0.152003 0
M  V30 7055 H 679.942 -2.97285 0.257695 0
M  V30 7056 C 678.691 -3.13156 -1.51091 0
M  V30 7057 H 678.014 -3.85997 -1.04145 0
M  V30 7058 H 679.454 -3.7014 -2.06814 0
M  V30 7059 C 677.913 -2.27482 -2.48503 0
M  V30 7060 O 678.443 -1.92325 -3.52667 0
M  V30 7061 N 676.649 -1.91019 -2.18998 0
M  V30 7062 H 676.196 -2.19808 -1.34322 0
M  V30 7063 H 676.154 -1.3399 -2.84419 0
M  V30 7064 N 679.926 -0.151884 -1.56866 0
M  V30 7065 C 681.175 0.497992 -1.95456 0
M  V30 7066 C 681.488 1.6569 -1.03953 0
M  V30 7067 O 682.694 2.37173 -1.32142 0
M  V30 7068 C 681.15 0.93732 -3.4748 0
M  V30 7069 C 680.758 -0.194921 -4.47576 0
M  V30 7070 C 682.502 1.55671 -3.94926 0
M  V30 7071 C 680.409 0.26295 -5.90815 0
M  V30 7072 H 679.339 0.189811 -0.729717 0
M  V30 7073 H 681.99 -0.237011 -1.81963 0
M  V30 7074 H 680.372 1.72773 -3.56322 0
M  V30 7075 H 681.546 -0.971951 -4.50433 0
M  V30 7076 H 679.861 -0.72303 -4.10075 0
M  V30 7077 H 682.458 1.91099 -4.99385 0
M  V30 7078 H 682.801 2.44748 -3.36755 0
M  V30 7079 H 683.334 0.831109 -3.89021 0
M  V30 7080 H 680.073 -0.592568 -6.52816 0
M  V30 7081 H 679.593 1.00575 -5.91308 0
M  V30 7082 H 681.272 0.713333 -6.43056 0
M  V30 7083 N 681.404 1.57128 0.121893 0
M  V30 7084 C 682.352 2.01109 1.16868 0
M  V30 7085 C 683.346 0.907532 1.43039 0
M  V30 7086 O 684.552 1.09274 1.43036 0
M  V30 7087 H 680.927 0.640539 0.393971 0
M  V30 7088 H 682.898 2.88261 0.771224 0
M  V30 7089 C 681.647 2.42887 2.48799 0
M  V30 7090 H 680.97 3.2737 2.29498 0
M  V30 7091 H 682.41 2.77461 3.20611 0
M  V30 7092 C 680.869 1.29137 3.11168 0
M  V30 7093 O 681.399 0.605756 3.97106 0
M  V30 7094 N 679.605 1.04916 2.71 0
M  V30 7095 H 679.152 1.60848 2.01211 0
M  V30 7096 H 679.11 0.290016 3.1306 0
M  V30 7097 N 682.882 -0.391992 1.52647 0
M  V30 7098 C 684.131 -1.13449 1.6677 0
M  V30 7099 C 684.444 -1.91203 0.412399 0
M  V30 7100 O 685.65 -2.68013 0.433707 0
M  V30 7101 C 684.106 -2.06577 2.9471 0
M  V30 7102 C 683.714 -1.3426 4.27409 0
M  V30 7103 C 685.458 -2.80981 3.18198 0
M  V30 7104 C 683.365 -2.26136 5.46458 0
M  V30 7105 H 682.295 -0.427211 0.621295 0
M  V30 7106 H 684.946 -0.397522 1.79142 0
M  V30 7107 H 683.328 -2.83898 2.76076 0
M  V30 7108 H 684.502 -0.621856 4.56585 0
M  V30 7109 H 682.817 -0.718279 4.10158 0
M  V30 7110 H 685.414 -3.49898 4.04321 0
M  V30 7111 H 685.757 -3.44891 2.33144 0
M  V30 7112 H 686.29 -2.10754 3.37383 0
M  V30 7113 H 683.029 -1.66846 6.33911 0
M  V30 7114 H 682.549 -2.96134 5.21598 0
M  V30 7115 H 684.228 -2.86286 5.80215 0
M  V30 7116 N 684.36 -1.4356 -0.65026 0
M  V30 7117 C 685.606 -1.45549 -1.41221 0
M  V30 7118 C 685.939 -0.0805472 -1.94033 0
M  V30 7119 O 685.214 0.899043 -1.72475 0
M  V30 7120 C 685.497 -2.50028 -2.59148 0
M  V30 7121 C 685.35 -3.96808 -2.1181 0
M  V30 7122 C 686.669 -2.51212 -3.61359 0
M  V30 7123 H 683.788 -0.529967 -0.512156 0
M  V30 7124 H 686.43 -1.75127 -0.736933 0
M  V30 7125 H 684.58 -2.24937 -3.16758 0
M  V30 7126 H 686.252 -4.32966 -1.59178 0
M  V30 7127 H 684.495 -4.09498 -1.43156 0
M  V30 7128 H 685.166 -4.6553 -2.96625 0
M  V30 7129 H 687.642 -2.73583 -3.13515 0
M  V30 7130 H 686.518 -3.26252 -4.41419 0
M  V30 7131 H 686.779 -1.54701 -4.1415 0
M  V30 7132 N 685.838 0.888903 -1.30139 0
M  V30 7133 C 687.086 1.63713 -1.18501 0
M  V30 7134 C 687.407 1.9324 0.261399 0
M  V30 7135 O 686.677 1.56608 1.17689 0
M  V30 7136 H 685.257 0.606861 -0.435579 0
M  V30 7137 H 687.919 1.06525 -1.63213 0
M  V30 7138 H 687.015 2.58894 -1.743 0
M  V30 7139 N 687.317 1.12792 1.10072 0
M  V30 7140 C 688.594 0.796867 1.78632 0
M  V30 7141 C 688.974 -0.712739 1.98704 0
M  V30 7142 O 688.322 -1.64773 1.5831 0
M  V30 7143 C 688.532 1.57622 3.11378 0
M  V30 7144 C 689.88 1.76463 3.86194 0
M  V30 7145 O 690.904 1.54165 3.2111 0
M  V30 7146 O 689.763 2.13623 5.03018 0
M  V30 7147 H 686.857 0.290248 0.774394 0
M  V30 7148 H 689.403 1.23215 1.16688 0
M  V30 7149 H 688.175 2.60246 2.92212 0
M  V30 7150 H 687.798 1.13543 3.81043 0
M  V30 7151 N 688.795 -1.27931 0.920396 0
M  V30 7152 C 690.042 -1.94689 0.557007 0
M  V30 7153 C 690.37 -1.724 -0.900476 0
M  V30 7154 O 689.625 -1.04194 -1.65657 0
M  V30 7155 C 689.924 -3.47853 0.820558 0
M  V30 7156 C 689.59 -3.90252 2.25863 0
M  V30 7157 C 688.252 -4.01539 2.65179 0
M  V30 7158 C 690.604 -4.11853 3.19415 0
M  V30 7159 C 687.932 -4.3181 3.97187 0
M  V30 7160 C 690.284 -4.43606 4.50995 0
M  V30 7161 C 688.948 -4.53105 4.90155 0
M  V30 7162 H 688.218 -0.712416 0.203823 0
M  V30 7163 H 690.865 -1.52142 1.16298 0
M  V30 7164 H 689.17 -3.91578 0.131844 0
M  V30 7165 H 690.867 -3.97634 0.51847 0
M  V30 7166 H 687.457 -3.81999 1.94358 0
M  V30 7167 H 691.641 -4.0258 2.90246 0
M  V30 7168 H 686.897 -4.37371 4.2722 0
M  V30 7169 H 691.071 -4.59268 5.23494 0
M  V30 7170 H 688.698 -4.76315 5.92476 0
M  V30 7171 N 690.273 -0.685099 -1.4193 0
M  V30 7172 C 691.22 -0.0131869 -2.30796 0
M  V30 7173 C 692.19 0.782129 -1.46533 0
M  V30 7174 O 693.375 0.75229 -1.75343 0
M  V30 7175 C 690.515 0.924768 -3.32479 0
M  V30 7176 C 689.628 0.122181 -4.31827 0
M  V30 7177 C 688.763 1.05682 -5.20581 0
M  V30 7178 C 687.802 0.246526 -6.11603 0
M  V30 7179 N 686.939 1.13442 -6.92875 0
M  V30 7180 H 691.779 -0.776789 -2.87698 0
M  V30 7181 H 689.316 -0.394791 -1.41703 0
M  V30 7182 H 691.274 1.48251 -3.89971 0
M  V30 7183 H 689.904 1.65488 -2.77152 0
M  V30 7184 H 688.956 -0.552335 -3.76369 0
M  V30 7185 H 690.268 -0.506473 -4.96222 0
M  V30 7186 H 689.422 1.68415 -5.82856 0
M  V30 7187 H 688.161 1.71935 -4.56388 0
M  V30 7188 H 687.166 -0.393944 -5.48387 0
M  V30 7189 H 688.391 -0.412053 -6.77849 0
M  V30 7190 H 686.337 1.78316 -6.313 0
M  V30 7191 H 686.254 0.561089 -7.53915 0
M  V30 7192 H 687.522 1.74889 -7.59628 0
M  V30 7193 N 691.751 1.51645 -0.429126 0
M  V30 7194 C 692.681 2.30434 0.377148 0
M  V30 7195 C 693.662 1.35493 1.02838 0
M  V30 7196 O 694.847 1.6441 1.03359 0
M  V30 7197 C 691.977 3.14038 1.48315 0
M  V30 7198 C 690.931 4.1719 0.955855 0
M  V30 7199 C 690.257 4.89263 2.15698 0
M  V30 7200 C 691.557 5.223 -0.00402136 0
M  V30 7201 H 693.251 2.98085 -0.280336 0
M  V30 7202 H 690.797 1.43354 -0.136265 0
M  V30 7203 H 692.75 3.67933 2.05435 0
M  V30 7204 H 691.474 2.44193 2.16881 0
M  V30 7205 H 690.133 3.64335 0.406929 0
M  V30 7206 H 689.781 4.15929 2.82864 0
M  V30 7207 H 689.481 5.59009 1.81059 0
M  V30 7208 H 691.005 5.45978 2.73387 0
M  V30 7209 H 692.419 5.71315 0.476607 0
M  V30 7210 H 690.816 5.99525 -0.26258 0
M  V30 7211 H 691.886 4.75638 -0.943236 0
M  V30 7212 N 693.229 0.160201 1.56784 0
M  V30 7213 C 694.177 -0.791402 2.18723 0
M  V30 7214 C 695.171 -1.24567 1.14801 0
M  V30 7215 O 696.377 -1.21262 1.33025 0
M  V30 7216 H 692.752 -0.273458 0.700517 0
M  V30 7217 H 694.723 -0.244931 2.97393 0
M  V30 7218 C 693.472 -2.01509 2.83354 0
M  V30 7219 H 692.795 -1.67454 3.63041 0
M  V30 7220 H 694.235 -2.66006 3.30177 0
M  V30 7221 C 692.694 -2.83159 1.82545 0
M  V30 7222 O 693.224 -3.79944 1.30405 0
M  V30 7223 N 691.43 -2.47953 1.51552 0
M  V30 7224 H 690.977 -1.69309 1.94144 0
M  V30 7225 H 690.935 -3.02873 0.843519 0
M  V30 7226 N 694.707 -1.5719 -0.113559 0
M  V30 7227 C 695.617 -2.04041 -1.15777 0
M  V30 7228 C 696.633 -0.961812 -1.45001 0
M  V30 7229 O 697.809 -1.2737 -1.56009 0
M  V30 7230 C 694.874 -2.43994 -2.46308 0
M  V30 7231 C 693.935 -3.65962 -2.24433 0
M  V30 7232 C 693.168 -4.04 -3.4874 0
M  V30 7233 O 693.391 -3.42321 -4.56259 0
M  V30 7234 O 692.325 -4.97069 -3.3942 0
M  V30 7235 H 696.151 -2.93248 -0.789899 0
M  V30 7236 H 693.736 -1.45828 -0.324748 0
M  V30 7237 H 695.618 -2.70401 -3.23204 0
M  V30 7238 H 694.293 -1.57932 -2.82558 0
M  V30 7239 H 693.2 -3.44697 -1.45377 0
M  V30 7240 H 694.533 -4.52746 -1.93084 0
M  V30 7241 N 696.185 0.383891 -1.52853 0
M  V30 7242 C 697.095 1.49343 -1.80925 0
M  V30 7243 C 698.111 1.59458 -0.696348 0
M  V30 7244 O 699.287 1.75698 -0.984481 0
M  V30 7245 C 696.352 2.84819 -1.97684 0
M  V30 7246 C 695.413 2.84382 -3.21598 0
M  V30 7247 C 694.646 4.13397 -3.37548 0
M  V30 7248 O 694.869 5.08619 -2.58192 0
M  V30 7249 O 693.803 4.20325 -4.30826 0
M  V30 7250 H 697.629 1.2855 -2.75152 0
M  V30 7251 H 695.214 0.572229 -1.38007 0
M  V30 7252 H 697.096 3.65125 -2.10385 0
M  V30 7253 H 695.771 3.05627 -1.06647 0
M  V30 7254 H 694.678 2.0284 -3.14336 0
M  V30 7255 H 696.011 2.68526 -4.12498 0
M  V30 7256 N 697.663 1.43903 0.642637 0
M  V30 7257 C 698.912 1.45362 1.39831 0
M  V30 7258 C 699.225 0.0856289 1.95412 0
M  V30 7259 O 700.431 -0.0222856 2.71491 0
M  V30 7260 C 698.887 2.55857 2.53111 0
M  V30 7261 C 698.495 3.98811 2.04092 0
M  V30 7262 C 700.239 2.66524 3.30402 0
M  V30 7263 C 698.146 5.00751 3.14647 0
M  V30 7264 H 697.076 0.540777 0.52543 0
M  V30 7265 H 699.727 1.69929 0.692559 0
M  V30 7266 H 698.109 2.2451 3.26207 0
M  V30 7267 H 699.283 4.3967 1.37938 0
M  V30 7268 H 697.598 3.92284 1.39651 0
M  V30 7269 H 700.195 3.39858 4.12796 0
M  V30 7270 H 700.538 1.71949 3.79129 0
M  V30 7271 H 701.071 2.97224 2.64392 0
M  V30 7272 H 697.81 5.96914 2.70876 0
M  V30 7273 H 697.33 4.64495 3.79479 0
M  V30 7274 H 699.009 5.23933 3.79609 0
M  V30 7275 N 699.141 -0.881989 1.30609 0
M  V30 7276 C 700.104 -1.96957 1.1722 0
M  V30 7277 C 701.104 -1.60472 0.102598 0
M  V30 7278 O 702.294 -1.70628 0.350943 0
M  V30 7279 C 699.426 -3.31463 0.796572 0
M  V30 7280 H 700.619 -2.10262 2.13846 0
M  V30 7281 H 698.172 -1.06877 1.14048 0
M  V30 7282 H 698.907 -3.23859 -0.169053 0
M  V30 7283 H 698.692 -3.59314 1.56959 0
M  V30 7284 H 700.182 -4.11233 0.72645 0
M  V30 7285 N 700.619 -1.13374 -1.09472 0
M  V30 7286 C 701.868 -0.889844 -1.8101 0
M  V30 7287 C 702.181 0.585686 -1.86625 0
M  V30 7288 O 703.387 0.946497 -2.54467 0
M  V30 7289 C 701.843 -1.54241 -3.25174 0
M  V30 7290 C 701.451 -3.05343 -3.27826 0
M  V30 7291 C 703.195 -1.37919 -4.0147 0
M  V30 7292 C 701.102 -3.63486 -4.6651 0
M  V30 7293 H 700.032 -0.329256 -0.678311 0
M  V30 7294 H 702.683 -1.36139 -1.23038 0
M  V30 7295 H 701.065 -0.998525 -3.83204 0
M  V30 7296 H 702.239 -3.66307 -2.79563 0
M  V30 7297 H 700.554 -3.21175 -2.65019 0
M  V30 7298 H 703.151 -1.78771 -5.03929 0
M  V30 7299 H 703.494 -0.323987 -4.15037 0
M  V30 7300 H 704.027 -1.89284 -3.49881 0
M  V30 7301 H 700.766 -4.68811 -4.58145 0
M  V30 7302 H 700.286 -3.073 -5.15099 0
M  V30 7303 H 701.965 -3.63134 -5.35484 0
M  V30 7304 N 702.098 1.27442 -0.927168 0
M  V30 7305 C 703.347 1.93679 -0.563146 0
M  V30 7306 C 703.66 1.73673 0.899837 0
M  V30 7307 O 704.866 2.34247 1.37262 0
M  V30 7308 C 703.322 3.46961 -0.95636 0
M  V30 7309 C 702.93 3.75724 -2.43999 0
M  V30 7310 C 704.674 4.19282 -0.663565 0
M  V30 7311 C 702.581 5.22378 -2.77263 0
M  V30 7312 H 701.511 0.725059 -0.206894 0
M  V30 7313 H 704.162 1.44743 -1.12791 0
M  V30 7314 H 702.544 3.94703 -0.320254 0
M  V30 7315 H 703.718 3.38741 -3.12396 0
M  V30 7316 H 702.033 3.16605 -2.70463 0
M  V30 7317 H 704.63 5.27265 -0.888596 0
M  V30 7318 H 704.973 4.14382 0.399198 0
M  V30 7319 H 705.506 3.7736 -1.25875 0
M  V30 7320 H 702.245 5.32367 -3.82446 0
M  V30 7321 H 701.765 5.6051 -2.13516 0
M  V30 7322 H 703.444 5.9025 -2.64979 0
M  V30 7323 N 703.576 0.692616 1.41565 0
M  V30 7324 C 704.506 0.0397325 2.33466 0
M  V30 7325 C 705.487 -0.770334 1.51657 0
M  V30 7326 O 706.672 -0.723903 1.80203 0
M  V30 7327 C 703.802 -0.899495 3.3545 0
M  V30 7328 C 702.756 -0.196738 4.27548 0
M  V30 7329 C 702.082 -1.25012 5.19881 0
M  V30 7330 C 703.382 0.935158 5.1386 0
M  V30 7331 H 705.076 0.807296 2.88311 0
M  V30 7332 H 702.622 0.389665 1.38628 0
M  V30 7333 H 704.575 -1.36545 3.98665 0
M  V30 7334 H 703.299 -1.69869 2.78948 0
M  V30 7335 H 701.958 0.249158 3.65752 0
M  V30 7336 H 701.606 -2.04177 4.59696 0
M  V30 7337 H 701.306 -0.784931 5.82334 0
M  V30 7338 H 702.83 -1.71665 5.85972 0
M  V30 7339 H 704.244 0.549619 5.70659 0
M  V30 7340 H 702.641 1.32726 5.85238 0
M  V30 7341 H 703.711 1.77613 4.512 0
M  V30 7342 N 705.054 -1.51416 0.437162 0
M  V30 7343 C 706.017 -2.26312 -0.362729 0
M  V30 7344 C 707.017 -1.29748 -0.949847 0
M  V30 7345 O 708.207 -1.53462 -0.824325 0
M  V30 7346 C 705.339 -3.05475 -1.5132 0
M  V30 7347 H 706.532 -2.98459 0.29365 0
M  V30 7348 H 704.085 -1.55137 0.190327 0
M  V30 7349 H 704.82 -2.37744 -2.20563 0
M  V30 7350 H 704.605 -3.76401 -1.09838 0
M  V30 7351 H 706.095 -3.62209 -2.07833 0
M  V30 7352 N 706.532 -0.168513 -1.56696 0
M  V30 7353 C 707.757 0.486688 -2.01609 0
M  V30 7354 C 708.182 1.56203 -1.04796 0
M  V30 7355 O 707.54 1.8128 -0.0270596 0
M  V30 7356 C 707.588 1.04451 -3.45141 0
M  V30 7357 O 706.692 2.15862 -3.51393 0
M  V30 7358 H 706.033 0.116831 -0.653641 0
M  V30 7359 H 708.563 -0.271579 -2.0279 0
M  V30 7360 H 708.573 1.36782 -3.84389 0
M  V30 7361 H 707.248 0.257155 -4.15104 0
M  V30 7362 H 705.825 1.84597 -3.24004 0
M  V30 7363 N 708.01 1.57248 0.105221 0
M  V30 7364 C 709.257 1.8557 0.810552 0
M  V30 7365 C 709.585 0.755595 1.79223 0
M  V30 7366 O 708.84 -0.251788 1.94073 0
M  V30 7367 C 709.139 3.20437 1.58287 0
M  V30 7368 C 708.805 4.44716 0.744235 0
M  V30 7369 C 707.467 4.78458 0.513013 0
M  V30 7370 C 709.819 5.20953 0.160578 0
M  V30 7371 C 707.147 5.8587 -0.311894 0
M  V30 7372 C 709.499 6.29235 -0.651596 0
M  V30 7373 C 708.163 6.615 -0.893005 0
M  V30 7374 H 707.433 0.67905 0.296602 0
M  V30 7375 H 710.08 1.91363 0.0723968 0
M  V30 7376 H 708.385 3.10283 2.39232 0
M  V30 7377 H 710.082 3.39576 2.13282 0
M  V30 7378 H 706.672 4.18287 0.934555 0
M  V30 7379 H 710.856 4.95226 0.3264 0
M  V30 7380 H 706.112 6.09286 -0.508012 0
M  V30 7381 H 710.286 6.87484 -1.11077 0
M  V30 7382 H 707.913 7.44562 -1.53401 0
M  V30 7383 N 709.488 -0.375779 1.53054 0
M  V30 7384 C 710.713 -1.14484 1.7294 0
M  V30 7385 C 711.138 -1.82572 0.452668 0
M  V30 7386 O 710.496 -1.71343 -0.592567 0
M  V30 7387 C 710.544 -2.15857 2.88857 0
M  V30 7388 O 709.648 -3.22725 2.56753 0
M  V30 7389 H 708.989 -0.332666 0.574656 0
M  V30 7390 H 711.519 -0.436025 1.999 0
M  V30 7391 H 711.529 -2.59631 3.14731 0
M  V30 7392 H 710.204 -1.65689 3.81471 0
M  V30 7393 H 708.781 -2.83996 2.41663 0
M  V30 7394 N 710.966 -1.44241 -0.634997 0
M  V30 7395 C 711.929 -1.50457 -1.72903 0
M  V30 7396 C 712.929 -0.387058 -1.56072 0
M  V30 7397 O 714.119 -0.649531 -1.61638 0
M  V30 7398 C 711.251 -1.37477 -3.1195 0
M  V30 7399 H 712.444 -2.47907 -1.68767 0
M  V30 7400 H 709.997 -1.31276 -0.84831 0
M  V30 7401 H 710.732 -0.41106 -3.21684 0
M  V30 7402 H 710.517 -2.18506 -3.25573 0
M  V30 7403 H 712.007 -1.44799 -3.91692 0
M  V30 7404 N 712.444 0.87505 -1.31075 0
M  V30 7405 C 713.669 1.66583 -1.23551 0
M  V30 7406 C 714.094 1.87067 0.19686 0
M  V30 7407 O 713.452 1.40877 1.1412 0
M  V30 7408 C 713.5 3.01401 -1.97965 0
M  V30 7409 O 712.604 3.90923 -1.31351 0
M  V30 7410 H 711.945 0.508645 -0.426821 0
M  V30 7411 H 714.475 1.09139 -1.7306 0
M  V30 7412 H 714.485 3.51374 -2.07366 0
M  V30 7413 H 713.16 2.85812 -3.02133 0
M  V30 7414 H 711.737 3.49369 -1.30368 0
M  V30 7415 N 713.922 1.13953 1.08869 0
M  V30 7416 C 715.15 0.92817 1.84912 0
M  V30 7417 C 715.565 -0.523197 1.81406 0
M  V30 7418 O 714.922 -1.36237 1.21432 0
M  V30 7419 C 714.973 1.41509 3.32652 0
M  V30 7420 O 714.694 2.80959 3.36145 0
M  V30 7421 C 716.195 1.243 4.25517 0
M  V30 7422 H 713.415 0.330612 0.583898 0
M  V30 7423 H 715.959 1.51349 1.37527 0
M  V30 7424 H 714.114 0.872648 3.77444 0
M  V30 7425 H 714.528 3.02704 4.28335 0
M  V30 7426 H 716.002 1.63237 5.27312 0
M  V30 7427 H 716.479 0.18532 4.38809 0
M  V30 7428 H 717.085 1.77375 3.86546 0
M  V30 7429 N 715.4 -1.26948 0.933913 0
M  V30 7430 C 716.625 -1.98724 0.593589 0
M  V30 7431 C 717.05 -1.6915 -0.822801 0
M  V30 7432 O 716.408 -0.93533 -1.5531 0
M  V30 7433 C 716.456 -3.50834 0.833542 0
M  V30 7434 O 715.56 -4.12284 -0.0978788 0
M  V30 7435 H 714.901 -0.623683 0.227849 0
M  V30 7436 H 717.431 -1.61599 1.25486 0
M  V30 7437 H 717.441 -4.01018 0.75156 0
M  V30 7438 H 716.116 -3.71691 1.86597 0
M  V30 7439 H 714.693 -3.72884 0.0345443 0
M  V30 7440 N 716.879 -0.700114 -1.41195 0
M  V30 7441 C 717.842 -0.0465706 -2.29153 0
M  V30 7442 C 718.842 0.703302 -1.44604 0
M  V30 7443 O 720.032 0.537513 -1.657 0
M  V30 7444 C 717.164 0.944324 -3.2756 0
M  V30 7445 H 718.357 -0.821064 -2.88442 0
M  V30 7446 H 715.91 -0.463869 -1.49258 0
M  V30 7447 H 716.645 1.74642 -2.73259 0
M  V30 7448 H 716.43 0.409701 -3.89954 0
M  V30 7449 H 717.92 1.39925 -3.9346 0
M  V30 7450 N 718.357 1.51182 -0.445186 0
M  V30 7451 C 719.604 2.02152 0.118645 0
M  V30 7452 C 719.932 1.32888 1.42025 0
M  V30 7453 O 719.187 0.435041 1.90803 0
M  V30 7454 C 719.486 3.55408 0.376797 0
M  V30 7455 C 719.152 4.43008 -0.839945 0
M  V30 7456 C 717.814 4.66669 -1.17361 0
M  V30 7457 C 720.166 4.9435 -1.65127 0
M  V30 7458 C 717.494 5.38919 -2.31913 0
M  V30 7459 C 719.846 5.67857 -2.78786 0
M  V30 7460 C 718.51 5.89779 -3.12597 0
M  V30 7461 H 717.78 0.739727 0.0434152 0
M  V30 7462 H 720.427 1.82055 -0.593984 0
M  V30 7463 H 718.732 3.73879 1.1714 0
M  V30 7464 H 720.429 3.92388 0.826602 0
M  V30 7465 H 717.019 4.24793 -0.569958 0
M  V30 7466 H 721.203 4.75947 -1.4067 0
M  V30 7467 H 716.459 5.54105 -2.58413 0
M  V30 7468 H 720.633 6.06628 -3.42017 0
M  V30 7469 H 718.26 6.45542 -4.01471 0
M  V30 7470 N 719.835 0.176821 1.56605 0
M  V30 7471 C 721.081 -0.467406 1.9734 0
M  V30 7472 C 721.414 -1.62523 1.06301 0
M  V30 7473 O 720.689 -1.94182 0.11125 0
M  V30 7474 C 720.972 -0.945106 3.47476 0
M  V30 7475 C 720.825 0.213273 4.49294 0
M  V30 7476 C 722.144 -1.8169 4.00845 0
M  V30 7477 H 719.263 -0.168426 0.717497 0
M  V30 7478 H 721.905 0.264065 1.88156 0
M  V30 7479 H 720.055 -1.56841 3.55434 0
M  V30 7480 H 721.727 0.850508 4.53392 0
M  V30 7481 H 719.97 0.867918 4.25029 0
M  V30 7482 H 720.641 -0.163187 5.51759 0
M  V30 7483 H 723.117 -1.29139 3.95553 0
M  V30 7484 H 721.993 -2.12015 5.06301 0
M  V30 7485 H 722.254 -2.76463 3.44994 0
M  V30 7486 N 721.313 -1.57302 -0.09688 0
M  V30 7487 C 722.223 -2.05258 -1.13606 0
M  V30 7488 C 723.239 -0.977137 -1.43972 0
M  V30 7489 O 724.415 -1.29018 -1.54649 0
M  V30 7490 C 721.48 -2.46593 -2.43706 0
M  V30 7491 C 720.541 -3.68322 -2.20538 0
M  V30 7492 C 719.774 -4.07676 -3.44435 0
M  V30 7493 O 719.997 -3.47141 -4.52603 0
M  V30 7494 O 718.931 -5.00641 -3.34129 0
M  V30 7495 H 722.757 -2.94069 -0.758752 0
M  V30 7496 H 720.342 -1.46164 -0.309263 0
M  V30 7497 H 722.224 -2.73814 -3.20318 0
M  V30 7498 H 720.899 -1.6092 -2.80867 0
M  V30 7499 H 719.806 -3.4622 -1.41713 0
M  V30 7500 H 721.139 -4.54769 -1.88271 0
M  V30 7501 N 722.791 0.367657 -1.53252 0
M  V30 7502 C 724.019 1.13119 -1.73239 0
M  V30 7503 C 724.434 1.831 -0.460404 0
M  V30 7504 O 723.791 1.73483 0.566557 0
M  V30 7505 C 723.842 2.16308 -2.89643 0
M  V30 7506 O 723.563 1.49175 -4.1192 0
M  V30 7507 C 725.064 3.05224 -3.21486 0
M  V30 7508 H 722.284 0.338318 -0.579467 0
M  V30 7509 H 724.828 0.42721 -1.99988 0
M  V30 7510 H 722.983 2.82307 -2.65295 0
M  V30 7511 H 723.397 2.17912 -4.7709 0
M  V30 7512 H 724.871 3.73613 -4.06346 0
M  V30 7513 H 725.348 3.69919 -2.36763 0
M  V30 7514 H 725.954 2.44843 -3.47753 0
M  V30 7515 N 724.269 1.44576 0.627338 0
M  V30 7516 C 725.515 1.47777 1.38888 0
M  V30 7517 C 725.848 0.111406 1.9388 0
M  V30 7518 O 725.123 -0.87149 1.73883 0
M  V30 7519 C 725.406 2.54119 2.55138 0
M  V30 7520 C 725.259 4.00128 2.0547 0
M  V30 7521 C 726.578 2.56929 3.57317 0
M  V30 7522 H 723.697 0.538048 0.50366 0
M  V30 7523 H 726.339 1.76277 0.708978 0
M  V30 7524 H 724.489 2.29948 3.13139 0
M  V30 7525 H 726.161 4.35444 1.5227 0
M  V30 7526 H 724.404 4.11724 1.36623 0
M  V30 7527 H 725.075 4.7019 2.89181 0
M  V30 7528 H 727.551 2.78536 3.09122 0
M  V30 7529 H 726.427 3.33234 4.36173 0
M  V30 7530 H 726.688 1.6127 4.11636 0
M  V30 7531 N 725.747 -0.868086 1.31537 0
M  V30 7532 C 726.694 -1.97548 1.19346 0
M  V30 7533 C 727.664 -1.65913 0.0787922 0
M  V30 7534 O 728.849 -1.89129 0.251985 0
M  V30 7535 C 725.989 -3.32922 0.908692 0
M  V30 7536 C 725.102 -3.77141 2.10687 0
M  V30 7537 C 724.237 -5.01241 1.75873 0
M  V30 7538 C 723.276 -5.37914 2.92088 0
M  V30 7539 N 722.413 -6.53192 2.57457 0
M  V30 7540 H 727.253 -2.07307 2.14074 0
M  V30 7541 H 724.79 -1.01483 1.06487 0
M  V30 7542 H 726.748 -4.10867 0.724138 0
M  V30 7543 H 725.378 -3.228 -0.0017611 0
M  V30 7544 H 724.43 -2.94961 2.40213 0
M  V30 7545 H 725.742 -4.00248 2.97663 0
M  V30 7546 H 724.896 -5.86858 1.53891 0
M  V30 7547 H 723.635 -4.80041 0.86091 0
M  V30 7548 H 722.64 -4.50814 3.14717 0
M  V30 7549 H 723.865 -5.61077 3.82582 0
M  V30 7550 H 721.811 -6.33536 1.702 0
M  V30 7551 H 721.728 -6.76252 3.37963 0
M  V30 7552 H 722.996 -7.41997 2.38873 0
M  V30 7553 N 727.225 -1.14528 -1.08264 0
M  V30 7554 C 728.473 -0.912599 -1.80322 0
M  V30 7555 C 728.794 0.562256 -1.86718 0
M  V30 7556 O 728.064 1.40869 -1.36135 0
M  V30 7557 H 726.644 -0.334645 -0.667849 0
M  V30 7558 H 729.306 -1.44415 -1.30883 0
M  V30 7559 H 728.402 -1.31384 -2.83098 0
M  V30 7560 N 728.703 1.26451 -0.940633 0
M  V30 7561 C 729.633 2.28773 -0.467479 0
M  V30 7562 C 730.614 1.63218 0.478955 0
M  V30 7563 O 731.799 1.90427 0.380929 0
M  V30 7564 C 728.929 3.46259 0.268656 0
M  V30 7565 C 727.883 4.23898 -0.591171 0
M  V30 7566 C 727.209 5.33993 0.274891 0
M  V30 7567 C 728.509 4.87974 -1.86223 0
M  V30 7568 H 730.203 2.68601 -1.32265 0
M  V30 7569 H 727.749 1.29123 -0.637436 0
M  V30 7570 H 729.702 4.16951 0.610696 0
M  V30 7571 H 728.426 3.05383 1.15796 0
M  V30 7572 H 727.085 3.54969 -0.916098 0
M  V30 7573 H 726.733 4.89358 1.16353 0
M  V30 7574 H 726.433 5.86849 -0.297006 0
M  V30 7575 H 727.957 6.07523 0.612213 0
M  V30 7576 H 729.371 5.50883 -1.58747 0
M  V30 7577 H 727.768 5.50945 -2.37866 0
M  V30 7578 H 728.838 4.10945 -2.57394 0
M  V30 7579 N 730.181 0.707592 1.40822 0
M  V30 7580 C 731.458 0.171172 1.9485 0
M  V30 7581 C 731.838 -1.32143 1.64625 0
M  V30 7582 O 731.186 -2.07372 0.959647 0
M  V30 7583 C 731.396 0.475334 3.45748 0
M  V30 7584 C 732.744 0.409625 4.22619 0
M  V30 7585 O 733.768 0.410934 3.53822 0
M  V30 7586 O 732.627 0.380185 5.45176 0
M  V30 7587 H 729.721 0.022015 0.826707 0
M  V30 7588 H 732.267 0.784577 1.50474 0
M  V30 7589 H 731.039 1.50801 3.61075 0
M  V30 7590 H 730.662 -0.168439 3.97243 0
M  V30 7591 N 731.66 -1.50943 0.453197 0
M  V30 7592 C 732.89 -2.06328 -0.105981 0
M  V30 7593 C 733.298 -1.31909 -1.35634 0
M  V30 7594 O 732.641 -0.376607 -1.79798 0
M  V30 7595 C 732.703 -3.5631 -0.477868 0
M  V30 7596 C 732.367 -4.52093 0.667925 0
M  V30 7597 C 733.364 -4.96421 1.54475 0
M  V30 7598 C 731.049 -4.95001 0.853168 0
M  V30 7599 C 733.043 -5.82346 2.59138 0
M  V30 7600 C 730.73 -5.80713 1.90305 0
M  V30 7601 C 731.728 -6.24284 2.77053 0
M  V30 7602 O 731.416 -7.08291 3.80236 0
M  V30 7603 H 731.148 -0.675986 -0.00427247 0
M  V30 7604 H 733.702 -1.95314 0.635738 0
M  V30 7605 H 731.932 -3.65163 -1.27252 0
M  V30 7606 H 733.621 -3.94138 -0.970039 0
M  V30 7607 H 734.387 -4.63953 1.41324 0
M  V30 7608 H 730.266 -4.60619 0.187482 0
M  V30 7609 H 733.81 -6.16276 3.2688 0
M  V30 7610 H 729.707 -6.12593 2.03469 0
M  V30 7611 H 730.475 -7.26504 3.77007 0
M  V30 7612 N 733.138 -0.185124 -1.56509 0
M  V30 7613 C 734.085 0.739729 -2.18624 0
M  V30 7614 C 735.055 1.217 -1.13042 0
M  V30 7615 O 736.24 1.28268 -1.41251 0
M  V30 7616 C 733.38 1.95787 -2.84186 0
M  V30 7617 C 732.493 1.52289 -4.04267 0
M  V30 7618 C 731.628 2.69576 -4.57714 0
M  V30 7619 C 730.667 2.22636 -5.70175 0
M  V30 7620 N 729.804 3.33065 -6.18071 0
M  V30 7621 H 734.644 0.203269 -2.97306 0
M  V30 7622 H 732.181 0.0885946 -1.46833 0
M  V30 7623 H 734.139 2.67253 -3.20361 0
M  V30 7624 H 732.769 2.4678 -2.08085 0
M  V30 7625 H 731.821 0.704458 -3.7382 0
M  V30 7626 H 733.133 1.13843 -4.85635 0
M  V30 7627 H 732.287 3.4918 -4.96143 0
M  V30 7628 H 731.026 3.1129 -3.75433 0
M  V30 7629 H 730.031 1.41483 -5.31284 0
M  V30 7630 H 731.256 1.81964 -6.54267 0
M  V30 7631 H 729.202 3.74328 -5.38715 0
M  V30 7632 H 729.119 2.98756 -6.94464 0
M  V30 7633 H 730.387 4.12912 -6.61153 0
M  V30 7634 N 734.616 1.57351 0.0885366 0
M  V30 7635 C 735.579 2.01557 1.09121 0
M  V30 7636 C 736.579 0.910052 1.3257 0
M  V30 7637 O 737.769 1.17537 1.28572 0
M  V30 7638 C 734.901 2.38189 2.43883 0
M  V30 7639 H 736.094 2.91361 0.710562 0
M  V30 7640 H 733.647 1.52694 0.333779 0
M  V30 7641 H 734.382 1.5136 2.86811 0
M  V30 7642 H 734.167 3.18846 2.28209 0
M  V30 7643 H 735.657 2.73025 3.15986 0
M  V30 7644 N 736.094 -0.359525 1.53444 0
M  V30 7645 C 737.341 -1.10152 1.6992 0
M  V30 7646 C 737.669 -1.89125 0.4541 0
M  V30 7647 O 736.924 -1.87396 -0.564023 0
M  V30 7648 C 737.223 -2.08287 2.90433 0
M  V30 7649 C 736.889 -1.45749 4.26694 0
M  V30 7650 C 735.551 -1.28421 4.63747 0
M  V30 7651 C 737.903 -1.00557 5.11408 0
M  V30 7652 C 735.231 -0.644951 5.83144 0
M  V30 7653 C 737.583 -0.380288 6.31456 0
M  V30 7654 C 736.247 -0.194557 6.67216 0
M  V30 7655 H 735.517 -0.403076 0.621781 0
M  V30 7656 H 738.164 -0.382612 1.87639 0
M  V30 7657 H 736.469 -2.86503 2.67251 0
M  V30 7658 H 738.166 -2.65662 3.00374 0
M  V30 7659 H 734.756 -1.6023 3.97523 0
M  V30 7660 H 738.94 -1.12735 4.83326 0
M  V30 7661 H 734.196 -0.48952 6.09437 0
M  V30 7662 H 738.37 -0.0219455 6.96397 0
M  V30 7663 H 735.997 0.30285 7.59597 0
M  V30 7664 N 737.572 -1.44907 -0.619662 0
M  V30 7665 C 738.519 -1.52654 -1.73105 0
M  V30 7666 C 739.489 -0.373334 -1.6185 0
M  V30 7667 O 740.674 -0.585143 -1.81606 0
M  V30 7668 C 737.814 -1.48769 -3.11387 0
M  V30 7669 C 736.927 -2.74551 -3.33535 0
M  V30 7670 C 736.062 -2.62421 -4.61854 0
M  V30 7671 C 735.101 -3.83312 -4.77219 0
M  V30 7672 N 734.238 -3.69789 -5.96826 0
M  V30 7673 H 739.078 -2.47605 -1.65819 0
M  V30 7674 H 736.615 -1.22875 -0.808719 0
M  V30 7675 H 738.573 -1.44507 -3.91374 0
M  V30 7676 H 737.203 -0.573783 -3.1766 0
M  V30 7677 H 736.255 -2.88953 -2.47408 0
M  V30 7678 H 737.567 -3.64253 -3.40765 0
M  V30 7679 H 736.721 -2.56056 -5.50019 0
M  V30 7680 H 735.46 -1.70298 -4.57001 0
M  V30 7681 H 734.465 -3.90049 -3.87481 0
M  V30 7682 H 735.69 -4.76486 -4.83878 0
M  V30 7683 H 733.636 -2.80426 -5.93041 0
M  V30 7684 H 733.553 -4.53116 -6.05163 0
M  V30 7685 H 734.821 -3.67335 -6.87521 0
M  V30 7686 N 739.05 0.861098 -1.31996 0
M  V30 7687 C 739.982 1.97551 -1.16216 0
M  V30 7688 C 740.995 1.625 -0.0988527 0
M  V30 7689 O 742.184 1.75091 -0.3472 0
M  V30 7690 C 739.284 3.30376 -0.755307 0
M  V30 7691 C 738.457 3.93711 -1.90552 0
M  V30 7692 C 737.516 5.04862 -1.48328 0
M  V30 7693 O 736.542 5.25204 -2.19431 0
M  V30 7694 N 737.744 5.79283 -0.375656 0
M  V30 7695 H 740.509 2.11632 -2.12208 0
M  V30 7696 H 738.07 1.03559 -1.24448 0
M  V30 7697 H 740.062 4.0213 -0.455364 0
M  V30 7698 H 738.632 3.12395 0.113269 0
M  V30 7699 H 737.852 3.14825 -2.37231 0
M  V30 7700 H 739.14 4.32762 -2.67571 0
M  V30 7701 H 738.538 5.65286 0.216284 0
M  V30 7702 H 737.095 6.5166 -0.135289 0
M  V30 7703 N 740.528 1.15101 1.07655 0
M  V30 7704 C 741.777 0.918528 1.79572 0
M  V30 7705 C 742.09 -0.555922 1.87534 0
M  V30 7706 O 743.296 -0.905893 2.55941 0
M  V30 7707 C 741.752 1.59394 3.22679 0
M  V30 7708 C 741.36 3.1052 3.22927 0
M  V30 7709 C 743.104 1.44289 3.99225 0
M  V30 7710 C 741.011 3.70862 4.60668 0
M  V30 7711 H 739.941 0.340006 0.672987 0
M  V30 7712 H 742.592 1.38079 1.20857 0
M  V30 7713 H 740.974 1.05936 3.81567 0
M  V30 7714 H 742.148 3.70708 2.737 0
M  V30 7715 H 740.463 3.25351 2.59876 0
M  V30 7716 H 743.06 1.86766 5.01022 0
M  V30 7717 H 743.403 0.389975 4.14469 0
M  V30 7718 H 743.936 1.94826 3.46825 0
M  V30 7719 H 740.675 4.7604 4.50628 0
M  V30 7720 H 740.195 3.15456 5.10145 0
M  V30 7721 H 741.874 3.71607 5.29639 0
M  V30 7722 N 742.006 -1.2595 0.947325 0
M  V30 7723 C 743.252 -1.9375 0.599064 0
M  V30 7724 C 743.585 -1.74088 -0.860632 0
M  V30 7725 O 742.86 -1.08158 -1.61654 0
M  V30 7726 C 743.143 -3.47353 0.949634 0
M  V30 7727 C 742.996 -3.76273 2.46452 0
M  V30 7728 C 744.315 -4.37589 0.469442 0
M  V30 7729 H 741.434 -0.703674 0.219115 0
M  V30 7730 H 744.076 -1.48705 1.18266 0
M  V30 7731 H 742.226 -3.8585 0.453008 0
M  V30 7732 H 743.898 -3.47455 3.03435 0
M  V30 7733 H 742.141 -3.22135 2.90537 0
M  V30 7734 H 742.812 -4.83664 2.66032 0
M  V30 7735 H 745.288 -4.06353 0.89534 0
M  V30 7736 H 744.164 -5.43841 0.7435 0
M  V30 7737 H 744.425 -4.37579 -0.630618 0
M  V30 7738 N 743.484 -0.715051 -1.40445 0
M  V30 7739 C 744.394 -0.0631624 -2.34515 0
M  V30 7740 C 745.41 0.744397 -1.57273 0
M  V30 7741 O 746.586 0.677475 -1.89663 0
M  V30 7742 C 743.651 0.847915 -3.36172 0
M  V30 7743 C 742.712 0.0303655 -4.29289 0
M  V30 7744 C 741.945 0.898051 -5.2609 0
M  V30 7745 O 742.168 2.13729 -5.28844 0
M  V30 7746 O 741.102 0.337328 -6.00954 0
M  V30 7747 H 744.928 -0.839078 -2.91879 0
M  V30 7748 H 742.513 -0.475527 -1.4163 0
M  V30 7749 H 744.395 1.3698 -3.98515 0
M  V30 7750 H 743.07 1.60299 -2.81222 0
M  V30 7751 H 741.977 -0.536573 -3.70232 0
M  V30 7752 H 743.31 -0.686474 -4.87389 0
M  V30 7753 N 744.962 1.50701 -0.461195 0
M  V30 7754 C 746.187 2.07171 0.0974773 0
M  V30 7755 C 746.612 1.32391 1.3362 0
M  V30 7756 O 745.97 0.368676 1.77512 0
M  V30 7757 C 746.018 3.58651 0.374409 0
M  V30 7758 O 745.122 3.85816 1.4567 0
M  V30 7759 H 744.463 0.663944 -0.00862047 0
M  V30 7760 H 746.993 1.94021 -0.649394 0
M  V30 7761 H 747.003 4.03295 0.617843 0
M  V30 7762 H 745.678 4.12498 -0.530829 0
M  V30 7763 H 744.255 3.53018 1.20136 0
M  V30 7764 N 746.441 0.193421 1.56409 0
M  V30 7765 C 747.681 -0.447977 1.9943 0
M  V30 7766 C 748.045 -1.58915 1.07751 0
M  V30 7767 O 749.246 -2.29462 1.40002 0
M  V30 7768 C 747.517 -0.89793 3.45936 0
M  V30 7769 S 749.076 -1.5374 4.10986 0
M  V30 7770 H 745.894 -0.143316 0.696406 0
M  V30 7771 H 748.496 0.296093 1.93245 0
M  V30 7772 H 747.2 -0.0572927 4.1036 0
M  V30 7773 H 746.731 -1.67551 3.55936 0
M  V30 7774 H 748.746 -2.82612 4.07854 0
M  V30 7775 N 747.919 -1.57396 -0.0801906 0
M  V30 7776 C 749.167 -1.86467 -0.779384 0
M  V30 7777 C 749.488 -0.784243 -1.78535 0
M  V30 7778 O 748.758 0.187986 -1.94996 0
M  V30 7779 H 747.338 -0.68806 -0.29083 0
M  V30 7780 H 750 -1.94813 -0.0582749 0
M  V30 7781 H 749.096 -2.83701 -1.30078 0
M  V30 7782 N 749.397 0.351382 -1.53633 0
M  V30 7783 C 750.345 1.45142 -1.8176 0
M  V30 7784 C 751.339 1.54819 -0.687571 0
M  V30 7785 O 752.545 1.57536 -0.870772 0
M  V30 7786 H 748.92 0.483789 -0.575719 0
M  V30 7787 H 750.891 1.1863 -2.73806 0
M  V30 7788 C 749.64 2.81779 -2.03706 0
M  V30 7789 H 748.963 2.75097 -2.90107 0
M  V30 7790 H 750.403 3.5789 -2.27356 0
M  V30 7791 C 748.862 3.26762 -0.820271 0
M  V30 7792 O 749.392 4.01697 -0.0158603 0
M  V30 7793 N 747.598 2.83472 -0.639699 0
M  V30 7794 H 747.145 2.22655 -1.29547 0
M  V30 7795 H 747.103 3.13924 0.172995 0
M  V30 7796 N 750.875 1.45233 0.611969 0
M  V30 7797 C 752.122 1.49021 1.37109 0
M  V30 7798 C 752.45 0.130227 1.94064 0
M  V30 7799 O 751.705 -0.870551 1.75271 0
M  V30 7800 C 752.004 2.51353 2.54079 0
M  V30 7801 C 751.67 3.96178 2.15299 0
M  V30 7802 C 750.332 4.35614 2.04436 0
M  V30 7803 C 752.684 4.87275 1.84966 0
M  V30 7804 C 750.012 5.64047 1.61456 0
M  V30 7805 C 752.364 6.16115 1.43474 0
M  V30 7806 C 751.028 6.54486 1.31167 0
M  V30 7807 H 750.298 0.545307 0.501719 0
M  V30 7808 H 752.945 1.78555 0.692122 0
M  V30 7809 H 751.25 2.15372 3.27295 0
M  V30 7810 H 752.947 2.51523 3.12309 0
M  V30 7811 H 749.537 3.6499 2.24678 0
M  V30 7812 H 753.721 4.57548 1.92258 0
M  V30 7813 H 748.977 5.92575 1.50547 0
M  V30 7814 H 753.151 6.86149 1.19048 0
M  V30 7815 H 750.778 7.53904 0.97637 0
M  V30 7816 N 752.353 -0.854086 1.3245 0
M  V30 7817 C 753.3 -1.96271 1.21434 0
M  V30 7818 C 754.27 -1.6582 0.0963851 0
M  V30 7819 O 755.455 -1.88851 0.27203 0
M  V30 7820 C 752.595 -3.31939 0.943952 0
M  V30 7821 C 751.708 -3.74885 2.14675 0
M  V30 7822 C 750.843 -4.99347 1.81179 0
M  V30 7823 C 749.882 -5.34785 2.97777 0
M  V30 7824 N 749.019 -6.50425 2.6437 0
M  V30 7825 H 753.859 -2.05025 2.16261 0
M  V30 7826 H 751.396 -1.00348 1.07558 0
M  V30 7827 H 753.354 -4.10076 0.767675 0
M  V30 7828 H 751.984 -3.22784 0.0324763 0
M  V30 7829 H 751.036 -2.92396 2.43328 0
M  V30 7830 H 752.348 -3.97068 3.01891 0
M  V30 7831 H 751.502 -5.85193 1.60107 0
M  V30 7832 H 750.241 -4.79101 0.911777 0
M  V30 7833 H 749.246 -4.47451 3.1948 0
M  V30 7834 H 750.471 -5.56988 3.88511 0
M  V30 7835 H 748.417 -6.31695 1.7691 0
M  V30 7836 H 748.334 -6.7263 3.45116 0
M  V30 7837 H 749.602 -7.39422 2.46729 0
M  V30 7838 N 753.831 -1.1567 -1.07043 0
M  V30 7839 C 755.077 -0.9349 -1.79965 0
M  V30 7840 C 755.41 0.536464 -1.86643 0
M  V30 7841 O 754.685 1.39781 -1.35247 0
M  V30 7842 C 754.968 -1.55371 -3.24857 0
M  V30 7843 C 754.821 -3.09589 -3.26305 0
M  V30 7844 C 756.14 -1.24209 -4.22209 0
M  V30 7845 H 753.259 -0.341061 -0.653335 0
M  V30 7846 H 755.901 -1.42883 -1.25237 0
M  V30 7847 H 754.051 -1.13368 -3.71591 0
M  V30 7848 H 755.723 -3.60521 -2.87789 0
M  V30 7849 H 753.966 -3.43315 -2.65174 0
M  V30 7850 H 754.637 -3.48002 -4.28484 0
M  V30 7851 H 757.113 -1.60548 -3.8388 0
M  V30 7852 H 755.989 -1.70119 -5.21872 0
M  V30 7853 H 756.25 -0.15964 -4.41812 0
M  V30 7854 N 755.309 1.25446 -0.953992 0
M  V30 7855 C 756.537 1.97215 -0.625595 0
M  V30 7856 C 756.952 1.70911 0.802168 0
M  V30 7857 O 756.309 0.984782 1.5365 0
M  V30 7858 C 756.36 3.50777 -0.873943 0
M  V30 7859 O 756.081 3.76173 -2.24556 0
M  V30 7860 C 757.582 4.39776 -0.557845 0
M  V30 7861 H 754.802 0.628652 -0.2346 0
M  V30 7862 H 757.346 1.59632 -1.27819 0
M  V30 7863 H 755.501 3.86474 -0.267765 0
M  V30 7864 H 755.915 4.70636 -2.31522 0
M  V30 7865 H 757.389 5.46431 -0.782157 0
M  V30 7866 H 757.866 4.36257 0.507573 0
M  V30 7867 H 758.472 4.09644 -1.14332 0
M  V30 7868 N 756.787 0.722489 1.40064 0
M  V30 7869 C 757.734 0.0743738 2.3068 0
M  V30 7870 C 758.704 -0.743004 1.48555 0
M  V30 7871 O 759.889 -0.705536 1.77276 0
M  V30 7872 C 757.029 -0.836292 3.34814 0
M  V30 7873 C 756.142 -0.00764663 4.31999 0
M  V30 7874 C 755.277 -0.918428 5.232 0
M  V30 7875 C 754.316 -0.0842838 6.12042 0
M  V30 7876 N 753.453 -0.950316 6.95639 0
M  V30 7877 H 758.293 0.852794 2.85537 0
M  V30 7878 H 755.83 0.432222 1.40607 0
M  V30 7879 H 757.788 -1.3786 3.93765 0
M  V30 7880 H 756.418 -1.58082 2.81443 0
M  V30 7881 H 755.47 0.651928 3.74772 0
M  V30 7882 H 756.782 0.63786 4.94705 0
M  V30 7883 H 755.936 -1.52902 5.87116 0
M  V30 7884 H 754.675 -1.59774 4.60786 0
M  V30 7885 H 753.68 0.5392 5.4715 0
M  V30 7886 H 754.905 0.591628 6.76518 0
M  V30 7887 H 752.851 -1.61515 6.35806 0
M  V30 7888 H 752.768 -0.361004 7.55138 0
M  V30 7889 H 754.036 -1.54687 7.63997 0
M  V30 7890 N 758.265 -1.50454 0.469181 0
M  V30 7891 C 759.513 -2.01916 -0.0862982 0
M  V30 7892 C 759.834 -1.35337 -1.40388 0
M  V30 7893 O 759.104 -0.498096 -1.89462 0
M  V30 7894 H 757.684 -0.746185 -0.0348825 0
M  V30 7895 H 760.346 -1.84804 0.619167 0
M  V30 7896 H 759.442 -3.11182 -0.239189 0
M  V30 7897 N 759.743 -0.201713 -1.56304 0
M  V30 7898 C 760.69 0.716499 -2.19397 0
M  V30 7899 C 761.66 1.20494 -1.14326 0
M  V30 7900 O 762.845 1.26763 -1.42604 0
M  V30 7901 C 759.985 1.92762 -2.86246 0
M  V30 7902 C 759.098 1.47993 -4.0586 0
M  V30 7903 C 758.233 2.64706 -4.60547 0
M  V30 7904 C 757.272 2.16576 -5.72504 0
M  V30 7905 N 756.409 3.26491 -6.21569 0
M  V30 7906 H 761.249 0.171724 -2.97505 0
M  V30 7907 H 758.786 0.073016 -1.46919 0
M  V30 7908 H 760.744 2.6384 -3.23178 0
M  V30 7909 H 759.374 2.44559 -2.10691 0
M  V30 7910 H 758.426 0.66477 -3.74546 0
M  V30 7911 H 759.738 1.08686 -4.86815 0
M  V30 7912 H 758.892 3.43898 -4.99819 0
M  V30 7913 H 757.631 3.0729 -3.78713 0
M  V30 7914 H 756.636 1.3584 -5.32755 0
M  V30 7915 H 757.861 1.75015 -6.56161 0
M  V30 7916 H 755.807 3.68594 -5.42655 0
M  V30 7917 H 755.724 2.91374 -6.97594 0
M  V30 7918 H 756.992 4.05877 -6.65495 0
M  V30 7919 N 761.222 1.57436 0.0718424 0
M  V30 7920 C 762.185 2.02703 1.06977 0
M  V30 7921 C 763.185 0.924062 1.31597 0
M  V30 7922 O 764.375 1.18894 1.27318 0
M  V30 7923 C 761.507 2.40763 2.41342 0
M  V30 7924 H 762.7 2.92098 0.679619 0
M  V30 7925 H 760.253 1.5304 0.317565 0
M  V30 7926 H 760.988 1.54394 2.8519 0
M  V30 7927 H 760.773 3.21249 2.24814 0
M  V30 7928 H 762.263 2.76361 3.13073 0
M  V30 7929 N 762.7 -0.34323 1.53817 0
M  V30 7930 C 763.647 -1.42153 1.81827 0
M  V30 7931 C 764.617 -1.52251 0.663996 0
M  V30 7932 O 765.802 -1.67784 0.908461 0
M  V30 7933 C 762.942 -2.78799 2.03384 0
M  V30 7934 C 762.055 -2.7749 3.31094 0
M  V30 7935 C 761.19 -4.05856 3.42717 0
M  V30 7936 C 760.229 -3.98776 4.64375 0
M  V30 7937 N 759.366 -5.18833 4.73029 0
M  V30 7938 H 764.206 -1.17567 2.73829 0
M  V30 7939 H 761.743 -0.569506 1.35628 0
M  V30 7940 H 763.701 -3.58211 2.13872 0
M  V30 7941 H 762.331 -3.01736 1.14696 0
M  V30 7942 H 761.383 -1.90182 3.29446 0
M  V30 7943 H 762.695 -2.68137 4.206 0
M  V30 7944 H 761.849 -4.93691 3.52638 0
M  V30 7945 H 760.588 -4.1799 2.51267 0
M  V30 7946 H 759.593 -3.09325 4.5453 0
M  V30 7947 H 760.818 -3.88224 5.57189 0
M  V30 7948 H 758.764 -5.31511 3.84489 0
M  V30 7949 H 758.681 -5.11737 5.56472 0
M  V30 7950 H 759.949 -6.08439 4.87261 0
M  V30 7951 N 764.178 -1.45556 -0.604258 0
M  V30 7952 C 765.125 -1.54482 -1.71476 0
M  V30 7953 C 766.095 -0.390479 -1.61445 0
M  V30 7954 O 767.28 -0.604371 -1.80975 0
M  V30 7955 C 764.42 -1.52064 -3.09791 0
M  V30 7956 C 763.533 -2.78073 -3.30604 0
M  V30 7957 C 762.668 -2.67304 -4.59044 0
M  V30 7958 C 761.707 -3.88352 -4.73127 0
M  V30 7959 N 760.844 -3.76098 -5.9287 0
M  V30 7960 H 765.684 -2.49349 -1.63184 0
M  V30 7961 H 763.221 -1.23725 -0.795641 0
M  V30 7962 H 765.179 -1.48649 -3.89819 0
M  V30 7963 H 763.809 -0.607442 -3.17033 0
M  V30 7964 H 762.861 -2.91561 -2.44329 0
M  V30 7965 H 764.173 -3.67847 -3.36883 0
M  V30 7966 H 763.327 -2.61875 -5.47272 0
M  V30 7967 H 762.066 -1.75135 -4.55169 0
M  V30 7968 H 761.071 -3.94137 -3.83322 0
M  V30 7969 H 762.296 -4.81591 -4.78797 0
M  V30 7970 H 760.242 -2.867 -5.90033 0
M  V30 7971 H 760.159 -4.59509 -6.00323 0
M  V30 7972 H 761.427 -3.74607 -6.83586 0
M  V30 7973 N 765.656 0.84705 -1.32902 0
M  V30 7974 C 766.904 1.5986 -1.2365 0
M  V30 7975 C 767.225 1.93974 0.199789 0
M  V30 7976 O 766.495 1.60273 1.12648 0
M  V30 7977 H 765.075 0.592696 -0.454665 0
M  V30 7978 H 767.737 1.01278 -1.66519 0
M  V30 7979 H 766.833 2.53218 -1.82448 0
M  V30 7980 N 767.134 1.16236 1.06428 0
M  V30 7981 C 768.097 0.870163 2.1204 0
M  V30 7982 C 769.097 -0.134239 1.60239 0
M  V30 7983 O 770.287 0.0964932 1.73933 0
M  V30 7984 C 767.419 0.301033 3.39568 0
M  V30 7985 H 768.612 1.8064 2.39394 0
M  V30 7986 H 766.165 0.971116 1.2247 0
M  V30 7987 H 766.9 -0.642948 3.17863 0
M  V30 7988 H 766.685 1.02475 3.78472 0
M  V30 7989 H 768.175 0.114494 4.17443 0
M  V30 7990 N 768.612 -1.24939 0.960631 0
M  V30 7991 C 769.858 -1.93425 0.629155 0
M  V30 7992 C 770.213 -1.73784 -0.825635 0
M  V30 7993 O 769.506 -1.07595 -1.58536 0
M  V30 7994 C 769.7 -3.45066 0.930809 0
M  V30 7995 C 769.529 -3.79455 2.41337 0
M  V30 7996 C 768.299 -4.01195 3.07197 0
M  V30 7997 C 770.497 -3.86492 3.39306 0
M  V30 7998 N 768.479 -4.22626 4.45265 0
M  V30 7999 C 769.85 -4.12682 4.62702 0
M  V30 8000 C 771.905 -3.69198 3.34061 0
M  V30 8001 C 770.608 -4.23376 5.81502 0
M  V30 8002 C 772.634 -3.81135 4.52206 0
M  V30 8003 C 771.996 -4.07743 5.74391 0
M  V30 8004 H 768.095 -0.729791 0.280943 0
M  V30 8005 H 770.679 -1.50597 1.23404 0
M  V30 8006 H 768.85 -3.86776 0.354801 0
M  V30 8007 H 770.582 -4.00826 0.558627 0
M  V30 8008 H 767.337 -3.97319 2.5775 0
M  V30 8009 H 767.761 -4.37335 5.16785 0
M  V30 8010 H 772.403 -3.47639 2.40638 0
M  V30 8011 H 770.121 -4.4375 6.75361 0
M  V30 8012 H 773.707 -3.69133 4.49702 0
M  V30 8013 H 772.587 -4.16768 6.64284 0
M  V30 8014 N 770.09 -0.729906 -1.39679 0
M  V30 8015 C 771.038 -0.0756589 -2.32477 0
M  V30 8016 C 772.032 0.731438 -1.52795 0
M  V30 8017 O 773.238 0.633195 -1.68495 0
M  V30 8018 H 769.613 -0.00566492 -0.751979 0
M  V30 8019 H 771.584 -0.874797 -2.85289 0
M  V30 8020 C 770.333 0.821313 -3.37861 0
M  V30 8021 H 769.656 0.209666 -3.9925 0
M  V30 8022 H 771.096 1.24679 -4.05254 0
M  V30 8023 C 769.555 1.9533 -2.74495 0
M  V30 8024 O 770.085 3.04548 -2.61942 0
M  V30 8025 N 768.291 1.74119 -2.3266 0
M  V30 8026 H 767.838 0.852908 -2.4307 0
M  V30 8027 H 767.796 2.50036 -1.90603 0
M  V30 8028 N 771.568 1.50203 -0.477153 0
M  V30 8029 C 772.817 2.01551 0.0774548 0
M  V30 8030 C 773.13 1.36359 1.40234 0
M  V30 8031 O 774.336 1.78898 2.04225 0
M  V30 8032 C 772.792 3.59406 0.188539 0
M  V30 8033 C 772.4 4.3356 -1.12828 0
M  V30 8034 C 774.144 4.18776 0.694782 0
M  V30 8035 C 772.051 5.83213 -0.98066 0
M  V30 8036 H 770.981 0.75329 0.0327212 0
M  V30 8037 H 773.632 1.72959 -0.612969 0
M  V30 8038 H 772.014 3.84611 0.942881 0
M  V30 8039 H 773.188 4.20074 -1.89405 0
M  V30 8040 H 771.503 3.85827 -1.5661 0
M  V30 8041 H 774.1 5.28338 0.822356 0
M  V30 8042 H 774.443 3.80557 1.68766 0
M  V30 8043 H 774.976 3.978 -0.00234519 0
M  V30 8044 H 771.715 6.25914 -1.94709 0
M  V30 8045 H 771.235 5.99256 -0.255375 0
M  V30 8046 H 772.914 6.4373 -0.649717 0
M  V30 8047 N 773.046 0.209999 1.56195 0
M  V30 8048 C 774.294 -0.423974 1.97603 0
M  V30 8049 C 774.615 -1.61112 1.09854 0
M  V30 8050 O 773.885 -1.95134 0.173032 0
M  V30 8051 H 772.465 -0.159629 0.729745 0
M  V30 8052 H 775.127 0.300205 1.92574 0
M  V30 8053 H 774.223 -0.75809 3.02753 0
M  V30 8054 N 774.524 -1.57472 -0.0634922 0
M  V30 8055 C 775.434 -2.07621 -1.09227 0
M  V30 8056 C 776.45 -1.00746 -1.41867 0
M  V30 8057 O 777.626 -1.32269 -1.51878 0
M  V30 8058 C 774.691 -2.51707 -2.38421 0
M  V30 8059 C 773.752 -3.72917 -2.12676 0
M  V30 8060 C 772.985 -4.14891 -3.3571 0
M  V30 8061 O 773.208 -3.56663 -4.45137 0
M  V30 8062 O 772.142 -5.07616 -3.23434 0
M  V30 8063 H 775.968 -2.95612 -0.696205 0
M  V30 8064 H 773.553 -1.46787 -0.27819 0
M  V30 8065 H 775.435 -2.80547 -3.14438 0
M  V30 8066 H 774.11 -1.66842 -2.77391 0
M  V30 8067 H 773.017 -3.49148 -1.34337 0
M  V30 8068 H 774.35 -4.5866 -1.78583 0
M  V30 8069 N 776.003 0.335068 -1.53997 0
M  V30 8070 C 776.935 1.4327 -1.78903 0
M  V30 8071 C 777.948 1.48347 -0.670598 0
M  V30 8072 O 779.137 1.51277 -0.947494 0
M  V30 8073 C 776.237 2.81878 -1.88144 0
M  V30 8074 C 775.41 3.00141 -3.18174 0
M  V30 8075 C 774.469 4.19041 -3.18263 0
M  V30 8076 O 773.495 4.12751 -3.9195 0
M  V30 8077 N 774.697 5.28004 -2.41231 0
M  V30 8078 H 777.462 1.22272 -2.73623 0
M  V30 8079 H 775.023 0.524996 -1.53152 0
M  V30 8080 H 777.015 3.59609 -1.85644 0
M  V30 8081 H 775.585 2.9598 -1.00572 0
M  V30 8082 H 774.805 2.09808 -3.33728 0
M  V30 8083 H 776.093 3.0923 -4.04047 0
M  V30 8084 H 775.491 5.35986 -1.8093 0
M  V30 8085 H 774.048 6.04196 -2.44521 0
M  V30 8086 N 777.481 1.45874 0.596531 0
M  V30 8087 C 778.428 1.55389 1.70655 0
M  V30 8088 C 779.398 0.399036 1.61236 0
M  V30 8089 O 780.583 0.61396 1.80652 0
M  V30 8090 C 777.723 1.53705 3.0898 0
M  V30 8091 C 776.836 2.79823 3.29125 0
M  V30 8092 C 775.971 2.69735 4.5762 0
M  V30 8093 C 775.01 3.90856 4.71061 0
M  V30 8094 N 774.147 3.79237 5.90867 0
M  V30 8095 H 778.987 2.50211 1.61859 0
M  V30 8096 H 776.524 1.24146 0.789069 0
M  V30 8097 H 778.482 1.50715 3.89026 0
M  V30 8098 H 777.112 0.624247 3.16706 0
M  V30 8099 H 776.164 2.92852 2.42779 0
M  V30 8100 H 777.476 3.69628 3.34927 0
M  V30 8101 H 776.63 2.64773 5.45875 0
M  V30 8102 H 775.369 1.77547 4.54234 0
M  V30 8103 H 774.374 3.96164 3.81227 0
M  V30 8104 H 775.599 4.84124 4.76236 0
M  V30 8105 H 773.545 2.89825 5.88504 0
M  V30 8106 H 773.462 4.62686 5.97877 0
M  V30 8107 H 774.73 3.78227 6.8159 0
M  V30 8108 N 778.959 -0.83999 1.33349 0
M  V30 8109 C 780.184 -1.63249 1.27924 0
M  V30 8110 C 780.609 -1.87523 -0.147193 0
M  V30 8111 O 779.967 -1.43853 -1.10345 0
M  V30 8112 C 780.015 -2.96046 2.05886 0
M  V30 8113 O 779.119 -3.87303 1.4167 0
M  V30 8114 H 778.46 -0.49715 0.440157 0
M  V30 8115 H 780.99 -1.04512 1.75893 0
M  V30 8116 H 781 -3.45752 2.16609 0
M  V30 8117 H 779.675 -2.77701 3.09605 0
M  V30 8118 H 778.252 -3.45789 1.39585 0
M  V30 8119 N 780.437 -1.16799 -1.0581 0
M  V30 8120 C 781.686 -0.94698 -1.78088 0
M  V30 8121 C 781.999 0.526016 -1.88394 0
M  V30 8122 O 783.205 0.865061 -2.5735 0
M  V30 8123 C 781.661 -1.64508 -3.20102 0
M  V30 8124 C 781.269 -3.15618 -3.17946 0
M  V30 8125 C 783.013 -1.50622 -3.96879 0
M  V30 8126 C 780.92 -3.78144 -4.5471 0
M  V30 8127 H 779.85 -0.35067 -0.667493 0
M  V30 8128 H 782.501 -1.39985 -1.18645 0
M  V30 8129 H 780.883 -1.11993 -3.79834 0
M  V30 8130 H 782.057 -3.75016 -2.67768 0
M  V30 8131 H 780.372 -3.29444 -2.54667 0
M  V30 8132 H 782.969 -1.94713 -4.97987 0
M  V30 8133 H 783.312 -0.455864 -4.13797 0
M  V30 8134 H 783.845 -2.00319 -3.43682 0
M  V30 8135 H 780.584 -4.83149 -4.42998 0
M  V30 8136 H 780.104 -3.23532 -5.05062 0
M  V30 8137 H 781.783 -3.79986 -5.2366 0
M  V30 8138 N 781.915 1.24427 -0.967243 0
M  V30 8139 C 782.845 2.2773 -0.515899 0
M  V30 8140 C 783.826 1.64197 0.444227 0
M  V30 8141 O 785.011 1.91193 0.340451 0
M  V30 8142 C 782.141 3.46751 0.195149 0
M  V30 8143 C 781.095 4.22548 -0.680953 0
M  V30 8144 C 780.421 5.34456 0.161561 0
M  V30 8145 C 781.721 4.83914 -1.96532 0
M  V30 8146 H 783.415 2.65735 -1.37933 0
M  V30 8147 H 780.961 1.27742 -0.664681 0
M  V30 8148 H 782.914 4.18153 0.522117 0
M  V30 8149 H 781.638 3.07771 1.09292 0
M  V30 8150 H 780.297 3.52946 -0.991186 0
M  V30 8151 H 779.945 4.91716 1.05947 0
M  V30 8152 H 779.645 5.86087 -0.421418 0
M  V30 8153 H 781.169 6.08685 0.483211 0
M  V30 8154 H 782.583 5.47392 -1.70396 0
M  V30 8155 H 780.98 5.45775 -2.49499 0
M  V30 8156 H 782.05 4.05393 -2.66053 0
M  V30 8157 N 783.393 0.737304 1.3929 0
M  V30 8158 C 784.618 0.295237 2.05288 0
M  V30 8159 C 785.043 -1.06235 1.55228 0
M  V30 8160 O 784.401 -1.67365 0.697043 0
M  V30 8161 C 784.449 0.309146 3.59272 0
M  V30 8162 O 783.553 -0.702437 4.06374 0
M  V30 8163 H 782.894 0.133762 0.650387 0
M  V30 8164 H 785.424 1.00387 1.78279 0
M  V30 8165 H 785.434 0.154336 4.07708 0
M  V30 8166 H 784.109 1.29974 3.95069 0
M  V30 8167 H 782.686 -0.513574 3.69346 0
M  V30 8168 N 784.871 -1.49948 0.485112 0
M  V30 8169 C 786.282 -1.8667 0.0334041 0
M  V30 8170 C 786.633 -1.3988 -1.37579 0
M  V30 8171 O 785.758 -0.769788 -2.02245 0
M  V30 8172 C 786.353 -3.38757 0.0538426 0
M  V30 8173 C 784.912 -3.74839 -0.342453 0
M  V30 8174 C 784.059 -2.73894 0.433281 0
M  V30 8175 H 787.01 -1.42492 0.698699 0
M  V30 8176 H 787.031 -3.73132 -0.745146 0
M  V30 8177 H 786.543 -3.72782 1.07959 0
M  V30 8178 H 784.644 -3.46419 -1.37203 0
M  V30 8179 H 784.757 -4.79088 -0.0340503 0
M  V30 8180 H 783.121 -2.54441 -0.114849 0
M  V30 8181 H 783.904 -3.10763 1.45881 0
M  V30 8182 N 786.349 -0.21828 -1.56081 0
M  V30 8183 C 787.279 0.687922 -2.23136 0
M  V30 8184 C 788.26 1.20357 -1.202 0
M  V30 8185 O 789.445 1.24817 -1.48776 0
M  V30 8186 C 786.575 1.89762 -2.90874 0
M  V30 8187 C 785.529 1.51595 -4.00254 0
M  V30 8188 C 784.855 2.80415 -4.55271 0
M  V30 8189 C 786.155 0.708404 -5.17474 0
M  V30 8190 H 787.849 0.128854 -2.99123 0
M  V30 8191 H 785.395 0.0605354 -1.43873 0
M  V30 8192 H 787.348 2.53699 -3.36474 0
M  V30 8193 H 786.072 2.4816 -2.1233 0
M  V30 8194 H 784.731 0.900058 -3.55379 0
M  V30 8195 H 784.379 3.36951 -3.73461 0
M  V30 8196 H 784.079 2.55613 -5.2909 0
M  V30 8197 H 785.603 3.453 -5.03587 0
M  V30 8198 H 787.017 1.2514 -5.59476 0
M  V30 8199 H 785.414 0.557593 -5.97504 0
M  V30 8200 H 786.484 -0.285679 -4.84058 0
M  V30 8201 N 787.827 1.57504 0.0551401 0
M  V30 8202 C 789.057 1.92015 0.762472 0
M  V30 8203 C 789.465 0.814088 1.7079 0
M  V30 8204 O 788.808 -0.220273 1.82375 0
M  V30 8205 C 788.87 3.22132 1.59598 0
M  V30 8206 C 788.534 4.49617 0.818141 0
M  V30 8207 C 789.531 5.19738 0.129933 0
M  V30 8208 C 787.216 4.96201 0.780387 0
M  V30 8209 C 789.21 6.34704 -0.585616 0
M  V30 8210 C 786.897 6.11069 0.0610756 0
M  V30 8211 C 787.895 6.80174 -0.62071 0
M  V30 8212 O 787.583 7.92849 -1.3284 0
M  V30 8213 H 787.315 0.638866 0.220967 0
M  V30 8214 H 789.869 2.05385 0.0246362 0
M  V30 8215 H 788.099 3.05016 2.37701 0
M  V30 8216 H 789.788 3.42166 2.18351 0
M  V30 8217 H 790.554 4.84767 0.150299 0
M  V30 8218 H 786.433 4.42275 1.30054 0
M  V30 8219 H 789.977 6.88578 -1.11833 0
M  V30 8220 H 785.874 6.45488 0.0386945 0
M  V30 8221 H 786.642 8.09062 -1.23938 0
M  V30 8222 N 789.305 -0.326896 1.54172 0
M  V30 8223 C 790.268 -1.38515 1.8261 0
M  V30 8224 C 791.268 -1.44872 0.697771 0
M  V30 8225 O 792.458 -1.44957 0.966078 0
M  V30 8226 C 789.59 -2.77281 1.98313 0
M  V30 8227 H 790.783 -1.14556 2.77159 0
M  V30 8228 H 788.336 -0.562199 1.45839 0
M  V30 8229 H 789.071 -3.065 1.05964 0
M  V30 8230 H 788.856 -2.74061 2.80416 0
M  V30 8231 H 790.346 -3.53845 2.21773 0
M  V30 8232 N 790.784 -1.46188 -0.588786 0
M  V30 8233 C 792.031 -1.51184 -1.34721 0
M  V30 8234 C 792.359 -0.161084 -1.93832 0
M  V30 8235 O 791.614 0.842557 -1.76634 0
M  V30 8236 C 791.913 -2.55364 -2.50048 0
M  V30 8237 C 791.579 -3.99553 -2.08969 0
M  V30 8238 C 790.241 -4.38811 -1.9748 0
M  V30 8239 C 792.593 -4.90156 -1.77191 0
M  V30 8240 C 789.921 -5.66544 -1.52463 0
M  V30 8241 C 792.273 -6.1832 -1.33654 0
M  V30 8242 C 790.937 -6.5649 -1.20738 0
M  V30 8243 H 790.207 -0.55322 -0.49298 0
M  V30 8244 H 792.854 -1.79634 -0.663627 0
M  V30 8245 H 791.159 -2.20552 -3.23827 0
M  V30 8246 H 792.856 -2.5646 -3.08268 0
M  V30 8247 H 789.446 -3.68518 -2.18843 0
M  V30 8248 H 793.63 -4.60549 -1.84955 0
M  V30 8249 H 788.886 -5.94895 -1.411 0
M  V30 8250 H 793.06 -6.87956 -1.08117 0
M  V30 8251 H 790.687 -7.55362 -0.856307 0
M  V30 8252 N 792.262 0.832906 -1.33792 0
M  V30 8253 C 793.225 1.92471 -1.24449 0
M  V30 8254 C 794.225 1.59981 -0.162085 0
M  V30 8255 O 795.415 1.69208 -0.414029 0
M  V30 8256 C 792.547 3.28278 -0.919044 0
M  V30 8257 H 793.74 2.0218 -2.21502 0
M  V30 8258 H 791.293 1.0257 -1.17936 0
M  V30 8259 H 792.028 3.24263 0.048738 0
M  V30 8260 H 791.813 3.53241 -1.70187 0
M  V30 8261 H 793.303 4.08253 -0.878576 0
M  V30 8262 N 793.74 1.17359 1.05189 0
M  V30 8263 C 794.965 0.98709 1.82404 0
M  V30 8264 C 795.39 -0.459848 1.82392 0
M  V30 8265 O 794.748 -1.32924 1.23292 0
M  V30 8266 C 794.796 1.53276 3.26403 0
M  V30 8267 O 793.9 0.746541 4.05587 0
M  V30 8268 H 793.241 0.35047 0.563974 0
M  V30 8269 H 795.771 1.55856 1.32552 0
M  V30 8270 H 795.781 1.55504 3.77203 0
M  V30 8271 H 794.456 2.58603 3.25726 0
M  V30 8272 H 793.033 0.795671 3.64312 0
M  V30 8273 N 795.218 -1.23913 0.973828 0
M  V30 8274 C 796.128 -2.28838 0.516735 0
M  V30 8275 C 797.144 -1.68723 -0.425282 0
M  V30 8276 O 798.32 -1.99201 -0.296819 0
M  V30 8277 C 795.385 -3.46233 -0.179914 0
M  V30 8278 C 794.446 -4.21729 0.80269 0
M  V30 8279 C 793.679 -5.33518 0.139191 0
M  V30 8280 O 793.902 -5.60252 -1.07118 0
M  V30 8281 O 792.836 -5.96088 0.834447 0
M  V30 8282 H 796.662 -2.70067 1.38916 0
M  V30 8283 H 794.247 -1.2972 0.74115 0
M  V30 8284 H 796.129 -4.17514 -0.570991 0
M  V30 8285 H 794.804 -3.06969 -1.02721 0
M  V30 8286 H 793.711 -3.52799 1.24434 0
M  V30 8287 H 795.044 -4.64825 1.61859 0
M  V30 8288 N 796.696 -0.74468 -1.38897 0
M  V30 8289 C 797.659 -0.11945 -2.28889 0
M  V30 8290 C 798.659 0.656942 -1.46768 0
M  V30 8291 O 799.849 0.484525 -1.67326 0
M  V30 8292 C 796.981 0.839635 -3.30398 0
M  V30 8293 H 798.174 -0.912414 -2.85683 0
M  V30 8294 H 795.727 -0.511119 -1.47707 0
M  V30 8295 H 796.462 1.6586 -2.78677 0
M  V30 8296 H 796.247 0.285432 -3.9106 0
M  V30 8297 H 797.737 1.27337 -3.97712 0
M  V30 8298 N 798.174 1.49689 -0.493057 0
M  V30 8299 C 799.137 2.27502 0.278485 0
M  V30 8300 C 800.137 1.33184 0.901037 0
M  V30 8301 O 801.327 1.56415 0.766801 0
M  V30 8302 C 798.459 3.10881 1.39878 0
M  V30 8303 H 799.652 2.97163 -0.404219 0
M  V30 8304 H 797.205 1.54324 -0.247774 0
M  V30 8305 H 797.94 2.45767 2.11587 0
M  V30 8306 H 797.725 3.80219 0.957924 0
M  V30 8307 H 799.215 3.69673 1.94247 0
M  V30 8308 N 799.652 0.226554 1.55963 0
M  V30 8309 C 801.068 -0.128733 1.5908 0
M  V30 8310 C 801.268 -1.58558 1.24345 0
M  V30 8311 O 800.324 -2.32661 0.981069 0
M  V30 8312 C 801.637 0.202076 3.0002 0
M  V30 8313 C 803.185 0.144718 3.12665 0
M  V30 8314 C 803.66 0.449272 4.55791 0
M  V30 8315 N 805.151 0.399026 4.61478 0
M  V30 8316 C 805.886 0.608106 5.70166 0
M  V30 8317 N 805.382 0.879227 6.87198 0
M  V30 8318 N 807.175 0.5402 5.59498 0
M  V30 8319 H 799.326 1.17686 1.76816 0
M  V30 8320 H 801.589 0.472072 0.822102 0
M  V30 8321 H 801.295 1.21341 3.30105 0
M  V30 8322 H 801.169 -0.480554 3.74126 0
M  V30 8323 H 803.556 -0.857261 2.82374 0
M  V30 8324 H 803.637 0.860899 2.40878 0
M  V30 8325 H 803.281 1.44871 4.86801 0
M  V30 8326 H 803.211 -0.288157 5.25811 0
M  V30 8327 H 805.702 0.197372 3.77384 0
M  V30 8328 H 806.015 1.02673 7.65949 0
M  V30 8329 H 804.36 0.916477 6.88931 0
M  V30 8330 H 807.551 0.328581 4.66945 0
M  V30 8331 H 807.724 0.706548 6.44137 0
M  V30 8332 N 801.13 -1.57531 -0.0467866 0
M  V30 8333 C 802.376 -1.8873 -0.742218 0
M  V30 8334 C 802.709 -0.822084 -1.75941 0
M  V30 8335 O 801.984 0.164922 -1.938 0
M  V30 8336 C 802.267 -3.30586 -1.42776 0
M  V30 8337 C 802.12 -4.47785 -0.425285 0
M  V30 8338 C 803.439 -3.71068 -2.36636 0
M  V30 8339 H 800.558 -0.686406 -0.268359 0
M  V30 8340 H 803.2 -1.89999 -0.00511341 0
M  V30 8341 H 801.35 -3.29634 -2.05605 0
M  V30 8342 H 803.022 -4.60867 0.199721 0
M  V30 8343 H 801.265 -4.33037 0.25713 0
M  V30 8344 H 801.936 -5.43884 -0.943086 0
M  V30 8345 H 804.412 -3.73273 -1.83866 0
M  V30 8346 H 803.288 -4.71165 -2.81593 0
M  V30 8347 H 803.549 -3.02355 -3.22542 0
M  V30 8348 N 802.608 0.318715 -1.54344 0
M  V30 8349 C 803.854 1.05765 -1.73037 0
M  V30 8350 C 804.187 1.87514 -0.505181 0
M  V30 8351 O 803.462 1.88021 0.497838 0
M  V30 8352 C 803.745 1.97836 -3.00887 0
M  V30 8353 C 803.598 1.19384 -4.33668 0
M  V30 8354 C 804.917 2.97285 -3.24514 0
M  V30 8355 H 802.036 0.383104 -0.629603 0
M  V30 8356 H 804.678 0.333864 -1.87044 0
M  V30 8357 H 802.828 2.59552 -2.89076 0
M  V30 8358 H 804.5 0.600906 -4.57369 0
M  V30 8359 H 802.743 0.496198 -4.30953 0
M  V30 8360 H 803.414 1.87014 -5.19355 0
M  V30 8361 H 805.89 2.45693 -3.35819 0
M  V30 8362 H 804.766 3.58887 -4.15321 0
M  V30 8363 H 805.027 3.70003 -2.41971 0
M  V30 8364 N 804.086 1.46499 0.581025 0
M  V30 8365 C 805.502 1.31491 0.904563 0
M  V30 8366 C 805.702 0.287598 1.99437 0
M  V30 8367 O 804.758 -0.309247 2.50599 0
M  V30 8368 C 806.071 2.70163 1.32032 0
M  V30 8369 C 807.619 2.78266 1.43308 0
M  V30 8370 C 808.094 4.17524 1.8825 0
M  V30 8371 N 809.585 4.19949 1.9544 0
M  V30 8372 C 810.32 5.24594 2.31493 0
M  V30 8373 N 809.816 6.39564 2.66326 0
M  V30 8374 N 811.609 5.11961 2.32062 0
M  V30 8375 H 803.76 2.11946 -0.138856 0
M  V30 8376 H 806.023 0.948 0.000548528 0
M  V30 8377 H 805.729 3.46655 0.593554 0
M  V30 8378 H 805.603 3.00379 2.2815 0
M  V30 8379 H 807.99 2.02061 2.15071 0
M  V30 8380 H 808.071 2.51732 0.45438 0
M  V30 8381 H 807.715 4.94225 1.17065 0
M  V30 8382 H 807.645 4.41466 2.87081 0
M  V30 8383 H 810.136 3.36996 1.71004 0
M  V30 8384 H 810.449 7.15187 2.92793 0
M  V30 8385 H 808.794 6.42923 2.6396 0
M  V30 8386 H 811.985 4.21177 2.04272 0
M  V30 8387 H 812.158 5.93626 2.5983 0
M  V30 8388 N 805.565 -0.825799 1.34232 0
M  V30 8389 C 806.79 -1.61883 1.29648 0
M  V30 8390 C 807.215 -1.87669 -0.127295 0
M  V30 8391 O 806.573 -1.45016 -1.08813 0
M  V30 8392 C 806.621 -2.93846 2.09014 0
M  V30 8393 O 805.725 -3.85778 1.4577 0
M  V30 8394 H 805.066 -0.492454 0.445405 0
M  V30 8395 H 807.596 -1.02641 1.76992 0
M  V30 8396 H 807.606 -3.43435 2.20264 0
M  V30 8397 H 806.281 -2.74401 3.12533 0
M  V30 8398 H 804.858 -3.4429 1.43245 0
M  V30 8399 N 807.043 -1.17915 -1.04565 0
M  V30 8400 C 808.292 -0.965816 -1.77073 0
M  V30 8401 C 808.605 0.506005 -1.88942 0
M  V30 8402 O 809.811 0.837717 -2.58253 0
M  V30 8403 C 808.267 -1.67894 -3.18339 0
M  V30 8404 C 807.875 -3.18972 -3.1458 0
M  V30 8405 C 809.619 -1.54823 -3.9526 0
M  V30 8406 C 807.526 -3.82946 -4.50674 0
M  V30 8407 H 806.456 -0.357729 -0.663736 0
M  V30 8408 H 809.107 -1.41235 -1.17153 0
M  V30 8409 H 807.489 -1.16016 -3.78624 0
M  V30 8410 H 808.663 -3.77835 -2.63776 0
M  V30 8411 H 806.978 -3.32127 -2.51159 0
M  V30 8412 H 809.575 -1.99984 -4.95894 0
M  V30 8413 H 809.918 -0.499727 -4.1329 0
M  V30 8414 H 810.451 -2.03953 -3.41538 0
M  V30 8415 H 807.19 -4.8782 -4.37849 0
M  V30 8416 H 806.71 -3.2887 -5.01602 0
M  V30 8417 H 808.389 -3.85518 -5.196 0
M  V30 8418 N 808.521 1.23394 -0.980386 0
M  V30 8419 C 809.768 1.91809 -0.649261 0
M  V30 8420 C 810.096 1.765 0.817197 0
M  V30 8421 O 809.351 1.11979 1.60497 0
M  V30 8422 C 809.65 3.43542 -0.985588 0
M  V30 8423 C 809.316 3.79031 -2.44225 0
M  V30 8424 C 807.978 3.88429 -2.84035 0
M  V30 8425 C 810.33 3.96145 -3.38702 0
M  V30 8426 C 807.658 4.12368 -4.17336 0
M  V30 8427 C 810.01 4.21583 -4.71646 0
M  V30 8428 C 808.674 4.29203 -5.11215 0
M  V30 8429 H 807.944 0.70188 -0.237581 0
M  V30 8430 H 810.591 1.4642 -1.23424 0
M  V30 8431 H 808.896 3.90503 -0.318521 0
M  V30 8432 H 810.593 3.94708 -0.707596 0
M  V30 8433 H 807.183 3.7229 -2.12362 0
M  V30 8434 H 811.367 3.88274 -3.09123 0
M  V30 8435 H 806.623 4.1649 -4.47601 0
M  V30 8436 H 810.797 4.33769 -5.4481 0
M  V30 8437 H 808.424 4.47505 -6.14527 0
M  V30 8438 N 809.999 0.752036 1.385 0
M  V30 8439 C 811.224 0.316993 2.04963 0
M  V30 8440 C 811.649 -1.04582 1.56346 0
M  V30 8441 O 811.007 -1.66616 0.714755 0
M  V30 8442 C 811.055 0.347235 3.58924 0
M  V30 8443 O 810.159 -0.659296 4.07096 0
M  V30 8444 H 809.5 0.140652 0.648932 0
M  V30 8445 H 812.03 1.02272 1.77205 0
M  V30 8446 H 812.04 0.19757 4.07521 0
M  V30 8447 H 810.715 1.34157 3.93668 0
M  V30 8448 H 809.292 -0.474371 3.6987 0
M  V30 8449 N 811.477 -1.49425 0.500989 0
M  V30 8450 C 812.893 -1.58826 0.156951 0
M  V30 8451 C 813.093 -1.50622 -1.33848 0
M  V30 8452 O 812.149 -1.38016 -2.11442 0
M  V30 8453 C 813.462 -2.91611 0.73374 0
M  V30 8454 C 815.01 -3.05076 0.699846 0
M  V30 8455 C 815.485 -4.40479 1.2547 0
M  V30 8456 N 816.976 -4.4697 1.2154 0
M  V30 8457 C 817.711 -5.50189 1.6149 0
M  V30 8458 N 817.207 -6.60512 2.09034 0
M  V30 8459 N 819 -5.40903 1.52907 0
M  V30 8460 H 811.151 -1.53001 1.47324 0
M  V30 8461 H 813.414 -0.724765 0.61108 0
M  V30 8462 H 813.12 -3.03182 1.78251 0
M  V30 8463 H 812.994 -3.767 0.19417 0
M  V30 8464 H 815.381 -2.93134 -0.340085 0
M  V30 8465 H 815.462 -2.2167 1.27656 0
M  V30 8466 H 815.106 -4.53172 2.29341 0
M  V30 8467 H 815.036 -5.22524 0.653921 0
M  V30 8468 H 817.527 -3.67819 0.867043 0
M  V30 8469 H 817.84 -7.35372 2.37588 0
M  V30 8470 H 816.185 -6.61553 2.13008 0
M  V30 8471 H 819.376 -4.53606 1.15583 0
M  V30 8472 H 819.549 -6.21219 1.84365 0
M  V30 8473 N 812.955 -0.234822 -1.55841 0
M  V30 8474 C 814.183 0.397745 -2.03041 0
M  V30 8475 C 814.598 1.52405 -1.11437 0
M  V30 8476 O 813.955 1.82061 -0.126466 0
M  V30 8477 C 814.006 0.916919 -3.49678 0
M  V30 8478 O 813.727 -0.164493 -4.37791 0
M  V30 8479 C 815.228 1.62139 -4.12584 0
M  V30 8480 H 812.448 0.0959214 -0.664108 0
M  V30 8481 H 814.992 -0.355156 -2.01392 0
M  V30 8482 H 813.147 1.62004 -3.519 0
M  V30 8483 H 813.561 0.227794 -5.24005 0
M  V30 8484 H 815.035 1.93651 -5.16917 0
M  V30 8485 H 815.512 2.53918 -3.58361 0
M  V30 8486 H 816.118 0.963145 -4.14251 0
M  V30 8487 N 814.433 1.57553 0.0384317 0
M  V30 8488 C 815.363 2.0898 1.04161 0
M  V30 8489 C 816.344 0.99029 1.38301 0
M  V30 8490 O 817.529 1.26499 1.47349 0
M  V30 8491 C 814.659 2.56145 2.34536 0
M  V30 8492 C 813.613 3.70275 2.14663 0
M  V30 8493 C 812.939 4.03612 3.50715 0
M  V30 8494 C 814.239 4.99067 1.54045 0
M  V30 8495 H 815.933 2.93046 0.613548 0
M  V30 8496 H 813.479 1.40973 0.293684 0
M  V30 8497 H 815.432 2.90741 3.05037 0
M  V30 8498 H 814.156 1.6915 2.79385 0
M  V30 8499 H 812.815 3.36013 1.46597 0
M  V30 8500 H 812.463 3.13698 3.93195 0
M  V30 8501 H 812.163 4.80482 3.38247 0
M  V30 8502 H 813.687 4.40735 4.22593 0
M  V30 8503 H 815.101 5.3168 2.14451 0
M  V30 8504 H 813.498 5.80484 1.52178 0
M  V30 8505 H 814.568 4.8226 0.505259 0
M  V30 8506 N 815.911 -0.310526 1.54511 0
M  V30 8507 C 816.821 -1.4054 1.87844 0
M  V30 8508 C 817.837 -1.55954 0.771635 0
M  V30 8509 O 819.013 -1.70801 1.06719 0
M  V30 8510 C 816.078 -2.75063 2.11048 0
M  V30 8511 C 815.139 -2.68715 3.348 0
M  V30 8512 C 814.372 -3.96821 3.56887 0
M  V30 8513 O 814.595 -4.95721 2.82165 0
M  V30 8514 O 813.529 -3.99291 4.50389 0
M  V30 8515 H 817.355 -1.15275 2.80972 0
M  V30 8516 H 814.94 -0.505732 1.4058 0
M  V30 8517 H 816.822 -3.54671 2.27566 0
M  V30 8518 H 815.497 -3.00191 1.21108 0
M  V30 8519 H 814.404 -1.87611 3.23655 0
M  V30 8520 H 815.737 -2.4854 4.2484 0
M  V30 8521 N 817.389 -1.46805 -0.573248 0
M  V30 8522 C 818.617 -1.56191 -1.3569 0
M  V30 8523 C 819.032 -0.206362 -1.87669 0
M  V30 8524 O 818.389 0.797883 -1.64134 0
M  V30 8525 C 818.44 -2.57433 -2.53792 0
M  V30 8526 O 818.161 -3.87724 -2.03965 0
M  V30 8527 C 819.662 -2.76851 -3.4622 0
M  V30 8528 H 816.882 -0.527907 -0.414192 0
M  V30 8529 H 819.426 -1.92292 -0.695989 0
M  V30 8530 H 817.581 -2.24311 -3.15854 0
M  V30 8531 H 817.995 -4.42909 -2.80948 0
M  V30 8532 H 819.469 -3.5159 -4.25545 0
M  V30 8533 H 819.946 -1.84095 -3.98755 0
M  V30 8534 H 820.552 -3.11107 -2.89987 0
M  V30 8535 N 818.867 0.818669 -1.34668 0
M  V30 8536 C 819.83 1.9114 -1.26483 0
M  V30 8537 C 820.83 1.598 -0.179044 0
M  V30 8538 O 822.02 1.6876 -0.431952 0
M  V30 8539 C 819.152 3.27285 -0.95381 0
M  V30 8540 H 820.345 1.9982 -2.23634 0
M  V30 8541 H 817.898 1.01314 -1.19018 0
M  V30 8542 H 818.633 3.24297 0.0143428 0
M  V30 8543 H 818.418 3.51416 -1.73924 0
M  V30 8544 H 819.908 4.07299 -0.921827 0
M  V30 8545 N 820.346 1.18468 1.03938 0
M  V30 8546 C 821.278 0.870615 2.12021 0
M  V30 8547 C 822.291 -0.132318 1.62261 0
M  V30 8548 O 823.48 0.0956901 1.78243 0
M  V30 8549 C 820.58 0.279727 3.37744 0
M  V30 8550 C 819.753 1.32863 4.16733 0
M  V30 8551 C 818.812 0.753204 5.20781 0
M  V30 8552 O 817.838 1.42825 5.5099 0
M  V30 8553 N 819.04 -0.448664 5.78764 0
M  V30 8554 H 821.805 1.80091 2.39556 0
M  V30 8555 H 819.366 1.08524 1.20142 0
M  V30 8556 H 821.358 -0.118829 4.04526 0
M  V30 8557 H 819.928 -0.554621 3.07641 0
M  V30 8558 H 819.148 1.90245 3.45254 0
M  V30 8559 H 820.436 2.03574 4.66299 0
M  V30 8560 H 819.834 -1.01481 5.56523 0
M  V30 8561 H 818.391 -0.789125 6.47005 0
M  V30 8562 N 821.824 -1.22873 0.986916 0
M  V30 8563 C 822.772 -2.26597 0.525043 0
M  V30 8564 C 823.766 -1.64079 -0.421252 0
M  V30 8565 O 824.972 -1.77576 -0.294429 0
M  V30 8566 H 821.347 -0.736606 0.151381 0
M  V30 8567 H 823.318 -2.62909 1.41142 0
M  V30 8568 C 822.067 -3.47374 -0.150542 0
M  V30 8569 H 821.39 -3.95737 0.568541 0
M  V30 8570 H 822.83 -4.21739 -0.437256 0
M  V30 8571 C 821.289 -3.07163 -1.38392 0
M  V30 8572 O 821.819 -3.16028 -2.47971 0
M  V30 8573 N 820.025 -2.62009 -1.25697 0
M  V30 8574 H 819.572 -2.54996 -0.365355 0
M  V30 8575 H 819.53 -2.35472 -2.08327 0
M  V30 8576 N 823.302 -0.75937 -1.38099 0
M  V30 8577 C 824.527 -0.327859 -2.04792 0
M  V30 8578 C 824.952 1.03752 -1.56899 0
M  V30 8579 O 824.31 1.66235 -0.723581 0
M  V30 8580 C 824.358 -0.366264 -3.58735 0
M  V30 8581 O 823.462 0.637697 -4.0744 0
M  V30 8582 H 822.803 -0.144092 -0.648177 0
M  V30 8583 H 825.333 -1.03211 -1.7666 0
M  V30 8584 H 825.343 -0.219179 -4.07411 0
M  V30 8585 H 824.018 -1.36243 -3.92951 0
M  V30 8586 H 822.595 0.454749 -3.70117 0
M  V30 8587 N 824.78 1.49157 -0.508906 0
M  V30 8588 C 826.026 2.02773 0.0328469 0
M  V30 8589 C 826.359 1.38714 1.35912 0
M  V30 8590 O 825.634 0.525536 1.87266 0
M  V30 8591 C 825.917 3.59664 0.177088 0
M  V30 8592 C 825.77 4.34239 -1.17287 0
M  V30 8593 C 827.089 4.30505 0.913977 0
M  V30 8594 H 824.208 0.736926 0.0104631 0
M  V30 8595 H 826.85 1.781 -0.661851 0
M  V30 8596 H 825 3.80818 0.768774 0
M  V30 8597 H 826.672 4.24561 -1.80404 0
M  V30 8598 H 824.915 3.96486 -1.76016 0
M  V30 8599 H 825.586 5.42397 -1.02516 0
M  V30 8600 H 828.062 4.14054 0.412084 0
M  V30 8601 H 826.938 5.40012 0.983759 0
M  V30 8602 H 827.199 3.96302 1.95951 0
M  V30 8603 N 826.258 0.243083 1.55714 0
M  V30 8604 C 827.674 -0.111853 1.59208 0
M  V30 8605 C 827.874 -1.5723 1.2602 0
M  V30 8606 O 826.93 -2.31608 1.00569 0
M  V30 8607 C 828.243 0.233885 2.99789 0
M  V30 8608 C 829.791 0.177873 3.12494 0
M  V30 8609 C 830.266 0.49759 4.55289 0
M  V30 8610 N 831.757 0.447949 4.61029 0
M  V30 8611 C 832.492 0.668545 5.69489 0
M  V30 8612 N 831.988 0.952064 6.86227 0
M  V30 8613 N 833.781 0.599512 5.58894 0
M  V30 8614 H 825.932 1.19554 1.75558 0
M  V30 8615 H 828.195 0.480765 0.817049 0
M  V30 8616 H 827.901 1.24835 3.28799 0
M  V30 8617 H 827.775 -0.440846 3.74615 0
M  V30 8618 H 830.162 -0.827263 2.83267 0
M  V30 8619 H 830.243 0.886399 2.39951 0
M  V30 8620 H 829.887 1.50026 4.85237 0
M  V30 8621 H 829.817 -0.232371 5.26087 0
M  V30 8622 H 832.308 0.237388 3.77154 0
M  V30 8623 H 832.621 1.10791 7.64817 0
M  V30 8624 H 830.966 0.989496 6.8792 0
M  V30 8625 H 834.157 0.378088 4.66571 0
M  V30 8626 H 834.33 0.774828 6.43351 0
M  V30 8627 N 827.736 -1.57571 -0.0300757 0
M  V30 8628 C 828.982 -1.89506 -0.722159 0
M  V30 8629 C 829.315 -0.840699 -1.7506 0
M  V30 8630 O 828.59 0.144358 -1.93964 0
M  V30 8631 C 828.873 -3.32081 -1.39262 0
M  V30 8632 C 828.726 -4.48211 -0.377768 0
M  V30 8633 C 830.045 -3.73557 -2.32687 0
M  V30 8634 H 827.164 -0.689213 -0.261064 0
M  V30 8635 H 829.806 -1.89994 0.0150388 0
M  V30 8636 H 827.956 -3.31796 -2.02098 0
M  V30 8637 H 829.628 -4.6063 0.248591 0
M  V30 8638 H 827.871 -4.3274 0.303045 0
M  V30 8639 H 828.542 -5.44854 -0.885347 0
M  V30 8640 H 831.018 -3.75202 -1.79896 0
M  V30 8641 H 829.894 -4.74125 -2.7658 0
M  V30 8642 H 830.155 -3.05759 -3.19317 0
M  V30 8643 N 829.214 0.302327 -1.54673 0
M  V30 8644 C 830.144 1.37759 -1.88533 0
M  V30 8645 C 831.125 1.52961 -0.744113 0
M  V30 8646 O 832.31 1.6649 -0.999731 0
M  V30 8647 C 829.44 2.74201 -2.13146 0
M  V30 8648 C 828.394 2.73765 -3.28993 0
M  V30 8649 C 827.72 4.13483 -3.39022 0
M  V30 8650 C 829.02 2.35624 -4.66132 0
M  V30 8651 H 830.714 1.0967 -2.78591 0
M  V30 8652 H 828.26 0.52613 -1.34044 0
M  V30 8653 H 830.213 3.49508 -2.35419 0
M  V30 8654 H 828.937 3.03812 -1.19858 0
M  V30 8655 H 827.596 2.00914 -3.06642 0
M  V30 8656 H 827.244 4.40269 -2.43253 0
M  V30 8657 H 826.944 4.14093 -4.16894 0
M  V30 8658 H 828.468 4.90572 -3.63553 0
M  V30 8659 H 829.882 3.00647 -4.88143 0
M  V30 8660 H 828.279 2.47449 -5.46707 0
M  V30 8661 H 829.349 1.30753 -4.66939 0
M  V30 8662 N 830.692 1.47107 0.565454 0
M  V30 8663 C 831.624 1.55024 1.6882 0
M  V30 8664 C 832.637 0.4371 1.56822 0
M  V30 8665 O 833.826 0.706315 1.63931 0
M  V30 8666 C 830.926 1.43069 3.0722 0
M  V30 8667 C 830.099 2.68807 3.45053 0
M  V30 8668 C 829.158 2.50806 4.62583 0
M  V30 8669 O 828.184 3.24593 4.67577 0
M  V30 8670 N 829.386 1.58093 5.58558 0
M  V30 8671 H 832.151 2.51836 1.62477 0
M  V30 8672 H 829.712 1.43382 0.751885 0
M  V30 8673 H 831.704 1.28773 3.83666 0
M  V30 8674 H 830.274 0.543721 3.07835 0
M  V30 8675 H 829.494 2.97923 2.58138 0
M  V30 8676 H 830.782 3.52298 3.67101 0
M  V30 8677 H 830.18 0.972807 5.57273 0
M  V30 8678 H 828.737 1.49753 6.34364 0
M  V30 8679 N 832.17 -0.811516 1.35101 0
M  V30 8680 C 833.117 -1.92308 1.27617 0
M  V30 8681 C 834.087 -1.6543 0.149091 0
M  V30 8682 O 835.272 -1.8789 0.331974 0
M  V30 8683 C 832.412 -3.28768 1.04908 0
M  V30 8684 C 831.525 -3.67865 2.26493 0
M  V30 8685 C 830.66 -4.9333 1.96974 0
M  V30 8686 C 829.699 -5.25041 3.1464 0
M  V30 8687 N 828.836 -6.41685 2.84929 0
M  V30 8688 H 833.676 -1.98041 2.22674 0
M  V30 8689 H 831.213 -0.968755 1.10696 0
M  V30 8690 H 833.171 -4.07426 0.897749 0
M  V30 8691 H 831.801 -3.22517 0.135151 0
M  V30 8692 H 830.853 -2.84507 2.52507 0
M  V30 8693 H 832.165 -3.87263 3.14371 0
M  V30 8694 H 831.319 -5.79803 1.78643 0
M  V30 8695 H 830.058 -4.75958 1.06374 0
M  V30 8696 H 829.063 -4.3706 3.33554 0
M  V30 8697 H 830.288 -5.44346 4.06035 0
M  V30 8698 H 828.234 -6.25747 1.96918 0
M  V30 8699 H 828.151 -6.6131 3.66341 0
M  V30 8700 H 829.419 -7.31198 2.70128 0
M  V30 8701 N 833.648 -1.19017 -1.03309 0
M  V30 8702 C 834.611 -0.926076 -2.09658 0
M  V30 8703 C 835.611 0.0917077 -1.60538 0
M  V30 8704 O 836.801 -0.142574 -1.73616 0
M  V30 8705 C 833.933 -0.390958 -3.38651 0
M  V30 8706 H 835.126 -1.86923 -2.3452 0
M  V30 8707 H 832.679 -1.00325 -1.19853 0
M  V30 8708 H 833.414 0.558446 -3.19456 0
M  V30 8709 H 833.199 -1.12474 -3.75622 0
M  V30 8710 H 834.689 -0.225131 -4.16993 0
M  V30 8711 N 835.127 1.22348 -0.993418 0
M  V30 8712 C 836.09 2.22522 -0.549251 0
M  V30 8713 C 837.09 1.56529 0.368164 0
M  V30 8714 O 838.28 1.73463 0.16005 0
M  V30 8715 C 835.412 3.40307 0.201037 0
M  V30 8716 H 836.605 2.63332 -1.43515 0
M  V30 8717 H 834.158 1.35407 -0.78068 0
M  V30 8718 H 834.893 3.0497 1.10289 0
M  V30 8719 H 834.678 3.8942 -0.457685 0
M  V30 8720 H 836.168 4.14597 0.499946 0
M  V30 8721 N 836.605 0.766683 1.37694 0
M  V30 8722 C 837.854 0.325425 1.99057 0
M  V30 8723 C 838.167 -1.10275 1.61551 0
M  V30 8724 O 839.373 -1.64513 2.1598 0
M  V30 8725 C 837.829 0.530886 3.55963 0
M  V30 8726 C 837.437 1.96899 4.02411 0
M  V30 8727 C 839.181 0.152997 4.24224 0
M  V30 8728 C 837.088 2.12232 5.52007 0
M  V30 8729 H 836.018 0.117929 0.744721 0
M  V30 8730 H 838.669 0.945091 1.5729 0
M  V30 8731 H 837.051 -0.158162 3.95684 0
M  V30 8732 H 838.225 2.69258 3.73948 0
M  V30 8733 H 836.54 2.303 3.46916 0
M  V30 8734 H 839.137 0.24614 5.34133 0
M  V30 8735 H 839.48 -0.896096 4.06541 0
M  V30 8736 H 840.013 0.794398 3.89787 0
M  V30 8737 H 836.752 3.15442 5.7461 0
M  V30 8738 H 836.272 1.4435 5.82171 0
M  V30 8739 H 837.951 1.9185 6.17902 0
M  V30 8740 N 838.083 -1.48885 0.516809 0
M  V30 8741 C 839.311 -2.06892 -0.0184017 0
M  V30 8742 C 839.726 -1.37511 -1.29368 0
M  V30 8743 O 839.083 -0.458409 -1.76649 0
M  V30 8744 C 839.134 -3.60566 -0.259673 0
M  V30 8745 O 838.855 -4.27338 0.965065 0
M  V30 8746 C 840.356 -4.35331 -0.836751 0
M  V30 8747 H 837.576 -0.670433 0.0275743 0
M  V30 8748 H 840.12 -1.91455 0.718689 0
M  V30 8749 H 838.275 -3.75653 -0.94678 0
M  V30 8750 H 838.689 -5.19287 0.737647 0
M  V30 8751 H 840.163 -5.43675 -0.955065 0
M  V30 8752 H 840.64 -3.9887 -1.83845 0
M  V30 8753 H 841.246 -4.2489 -0.186622 0
M  V30 8754 N 839.561 -0.251338 -1.55583 0
M  V30 8755 C 840.81 0.372681 -1.98227 0
M  V30 8756 C 841.123 1.58743 -1.1428 0
M  V30 8757 O 842.329 2.28289 -1.46957 0
M  V30 8758 C 840.785 0.714439 -3.52738 0
M  V30 8759 C 840.393 -0.479168 -4.4543 0
M  V30 8760 C 842.137 1.3024 -4.04027 0
M  V30 8761 C 840.044 -0.113318 -5.91291 0
M  V30 8762 H 838.974 0.14302 -0.740312 0
M  V30 8763 H 841.625 -0.352253 -1.80087 0
M  V30 8764 H 840.007 1.49762 -3.66589 0
M  V30 8765 H 841.181 -1.25644 -4.4334 0
M  V30 8766 H 839.496 -0.982359 -4.04646 0
M  V30 8767 H 842.093 1.58953 -5.10527 0
M  V30 8768 H 842.436 2.22837 -3.51638 0
M  V30 8769 H 842.969 0.582024 -3.93519 0
M  V30 8770 H 839.708 -1.00654 -6.47726 0
M  V30 8771 H 839.228 0.627666 -5.96507 0
M  V30 8772 H 840.907 0.30293 -6.4629 0
M  V30 8773 N 841.039 1.57585 0.0217189 0
M  V30 8774 C 841.969 2.10073 1.01939 0
M  V30 8775 C 842.95 1.0049 1.37243 0
M  V30 8776 O 844.135 1.28055 1.45999 0
M  V30 8777 C 841.265 2.58618 2.31806 0
M  V30 8778 C 840.219 3.72531 2.10724 0
M  V30 8779 C 839.545 4.07309 3.46415 0
M  V30 8780 C 840.845 5.00672 1.48743 0
M  V30 8781 H 842.539 2.9368 0.582432 0
M  V30 8782 H 840.085 1.41277 0.278715 0
M  V30 8783 H 842.038 2.9396 3.01936 0
M  V30 8784 H 840.762 1.72104 2.77575 0
M  V30 8785 H 839.421 3.37549 1.43025 0
M  V30 8786 H 839.069 3.17851 3.89846 0
M  V30 8787 H 838.769 4.84042 3.33132 0
M  V30 8788 H 840.293 4.45192 4.17895 0
M  V30 8789 H 841.707 5.33925 2.088 0
M  V30 8790 H 840.104 5.82065 1.46013 0
M  V30 8791 H 841.174 4.82769 0.45408 0
M  V30 8792 N 842.517 -0.29412 1.54831 0
M  V30 8793 C 843.794 -1.04847 1.65126 0
M  V30 8794 C 844.174 -2.04996 0.503986 0
M  V30 8795 O 843.522 -2.22996 -0.498496 0
M  V30 8796 C 843.732 -1.72418 3.03435 0
M  V30 8797 C 845.08 -2.24362 3.60481 0
M  V30 8798 O 846.104 -1.8244 3.05932 0
M  V30 8799 O 844.963 -3.01196 4.56008 0
M  V30 8800 H 842.057 -0.485032 0.669831 0
M  V30 8801 H 844.603 -0.291659 1.67175 0
M  V30 8802 H 843.375 -0.997351 3.78376 0
M  V30 8803 H 842.998 -2.54839 3.05193 0
M  V30 8804 N 843.995 -1.47404 -0.557645 0
M  V30 8805 C 845.243 -1.53703 -1.31224 0
M  V30 8806 C 845.564 -0.200742 -1.93964 0
M  V30 8807 O 844.834 0.775253 -1.79907 0
M  V30 8808 H 843.414 -0.566171 -0.487299 0
M  V30 8809 H 846.076 -1.83699 -0.651195 0
M  V30 8810 H 845.172 -2.30335 -2.10599 0
M  V30 8811 N 845.473 0.80434 -1.35529 0
M  V30 8812 C 846.722 1.55665 -1.28263 0
M  V30 8813 C 847.035 1.95096 0.140352 0
M  V30 8814 O 848.241 2.69422 0.335303 0
M  V30 8815 C 846.697 2.80935 -2.24952 0
M  V30 8816 C 846.305 2.48733 -3.72607 0
M  V30 8817 C 848.049 3.5894 -2.26632 0
M  V30 8818 C 845.956 3.70308 -4.61114 0
M  V30 8819 H 844.886 0.584301 -0.476559 0
M  V30 8820 H 847.537 0.88395 -1.60806 0
M  V30 8821 H 845.919 3.49927 -1.85383 0
M  V30 8822 H 847.093 1.87733 -4.20824 0
M  V30 8823 H 845.408 1.83969 -3.73557 0
M  V30 8824 H 848.005 4.49244 -2.89973 0
M  V30 8825 H 848.348 3.96433 -1.27069 0
M  V30 8826 H 848.881 2.96912 -2.64742 0
M  V30 8827 H 845.62 3.37922 -5.61684 0
M  V30 8828 H 845.14 4.30526 -4.17621 0
M  V30 8829 H 846.819 4.37511 -4.76648 0
M  V30 8830 N 846.951 1.19563 1.02676 0
M  V30 8831 C 848.176 1.02556 1.80269 0
M  V30 8832 C 848.601 -0.421056 1.83327 0
M  V30 8833 O 847.959 -1.30279 1.26084 0
M  V30 8834 C 848.007 1.60165 3.23078 0
M  V30 8835 O 847.111 0.832404 4.03912 0
M  V30 8836 H 846.452 0.362354 0.556413 0
M  V30 8837 H 848.982 1.58633 1.29216 0
M  V30 8838 H 848.992 1.6347 3.7382 0
M  V30 8839 H 847.667 2.65454 3.20167 0
M  V30 8840 H 846.244 0.872768 3.62543 0
M  V30 8841 N 848.429 -1.21819 0.999893 0
M  V30 8842 C 849.361 -2.23356 0.514256 0
M  V30 8843 C 850.374 -1.5795 -0.394413 0
M  V30 8844 O 851.563 -1.77427 -0.195428 0
M  V30 8845 C 848.663 -3.37797 -0.273207 0
M  V30 8846 C 847.836 -4.32791 0.633293 0
M  V30 8847 C 846.895 -5.26098 -0.103673 0
M  V30 8848 O 845.921 -5.66881 0.513269 0
M  V30 8849 N 847.123 -5.63764 -1.38383 0
M  V30 8850 H 849.888 -2.65653 1.3874 0
M  V30 8851 H 847.449 -1.3619 0.875431 0
M  V30 8852 H 849.441 -3.97209 -0.775053 0
M  V30 8853 H 848.011 -2.94527 -1.0475 0
M  V30 8854 H 847.231 -3.71595 1.31571 0
M  V30 8855 H 848.519 -4.93196 1.25039 0
M  V30 8856 H 847.917 -5.32614 -1.90627 0
M  V30 8857 H 846.474 -6.25562 -1.83073 0
M  V30 8858 N 849.908 -0.773975 -1.37286 0
M  V30 8859 C 851.138 -0.350249 -2.03609 0
M  V30 8860 C 851.546 1.03313 -1.58502 0
M  V30 8861 O 850.889 1.67118 -0.7627 0
M  V30 8862 C 850.951 -0.317215 -3.58098 0
M  V30 8863 C 850.615 -1.64556 -4.26345 0
M  V30 8864 C 851.612 -2.59839 -4.50311 0
M  V30 8865 C 849.297 -1.92061 -4.64131 0
M  V30 8866 C 851.291 -3.80833 -5.11122 0
M  V30 8867 C 848.978 -3.13325 -5.24663 0
M  V30 8868 C 849.976 -4.0753 -5.48095 0
M  V30 8869 O 849.664 -5.26658 -6.0736 0
M  V30 8870 H 849.396 -0.144456 -0.660385 0
M  V30 8871 H 851.95 -1.0496 -1.76557 0
M  V30 8872 H 850.18 0.438528 -3.84205 0
M  V30 8873 H 851.869 0.0797428 -4.05822 0
M  V30 8874 H 852.635 -2.39872 -4.21529 0
M  V30 8875 H 848.514 -1.19562 -4.45226 0
M  V30 8876 H 852.058 -4.54377 -5.29327 0
M  V30 8877 H 847.955 -3.33177 -5.52869 0
M  V30 8878 H 848.723 -5.27513 -6.25837 0
M  V30 8879 N 851.386 1.48609 -0.524698 0
M  V30 8880 C 852.611 2.07398 0.00952139 0
M  V30 8881 C 853.036 1.37939 1.27884 0
M  V30 8882 O 852.394 0.443633 1.75788 0
M  V30 8883 C 852.442 3.59916 0.221956 0
M  V30 8884 O 851.546 3.91647 1.29175 0
M  V30 8885 H 850.887 0.662981 -0.0367729 0
M  V30 8886 H 853.417 1.91092 -0.7311 0
M  V30 8887 H 853.427 4.05552 0.446236 0
M  V30 8888 H 852.102 4.09876 -0.705306 0
M  V30 8889 H 850.679 3.57796 1.05055 0
M  V30 8890 N 852.864 0.259585 1.55447 0
M  V30 8891 C 853.794 -0.62852 2.24882 0
M  V30 8892 C 854.775 -1.17128 1.23349 0
M  V30 8893 O 855.96 -1.20829 1.52033 0
M  V30 8894 C 853.09 -1.81983 2.95803 0
M  V30 8895 C 852.044 -1.40929 4.04132 0
M  V30 8896 C 851.37 -2.68246 4.62545 0
M  V30 8897 C 852.67 -0.570956 5.1917 0
M  V30 8898 H 854.364 -0.0495021 2.99359 0
M  V30 8899 H 851.91 -0.0223688 1.43983 0
M  V30 8900 H 853.863 -2.44689 3.43082 0
M  V30 8901 H 852.587 -2.42444 2.18835 0
M  V30 8902 H 851.246 -0.805519 3.57641 0
M  V30 8903 H 850.894 -3.26931 3.82263 0
M  V30 8904 H 850.594 -2.41495 5.35681 0
M  V30 8905 H 852.118 -3.31827 5.12565 0
M  V30 8906 H 853.532 -1.10262 5.62597 0
M  V30 8907 H 851.929 -0.398979 5.98772 0
M  V30 8908 H 852.999 0.413918 4.8313 0
M  V30 8909 N 854.342 -1.57594 -0.0133615 0
M  V30 8910 C 855.758 -1.5527 -0.369255 0
M  V30 8911 C 855.958 -0.987751 -1.7563 0
M  V30 8912 O 855.014 -0.615683 -2.44879 0
M  V30 8913 C 856.327 -2.99602 -0.25672 0
M  V30 8914 C 857.875 -3.11227 -0.332647 0
M  V30 8915 C 858.35 -4.57321 -0.249387 0
M  V30 8916 N 859.841 -4.62177 -0.3077 0
M  V30 8917 C 860.576 -5.72781 -0.26641 0
M  V30 8918 N 860.072 -6.92575 -0.176494 0
M  V30 8919 N 861.865 -5.61204 -0.317295 0
M  V30 8920 H 854.016 -1.92662 0.894154 0
M  V30 8921 H 856.279 -0.884352 0.341505 0
M  V30 8922 H 855.985 -3.44723 0.697072 0
M  V30 8923 H 855.859 -3.6246 -1.04415 0
M  V30 8924 H 858.246 -2.66045 -1.27688 0
M  V30 8925 H 858.327 -2.51171 0.484412 0
M  V30 8926 H 857.971 -5.03174 0.691242 0
M  V30 8927 H 857.901 -5.15306 -1.08476 0
M  V30 8928 H 860.392 -3.75994 -0.379069 0
M  V30 8929 H 860.705 -7.72653 -0.150518 0
M  V30 8930 H 859.05 -6.94854 -0.142314 0
M  V30 8931 H 862.241 -4.66509 -0.385643 0
M  V30 8932 H 862.414 -6.47388 -0.28165 0
M  V30 8933 N 855.82 0.285905 -1.54985 0
M  V30 8934 C 856.75 1.35752 -1.89983 0
M  V30 8935 C 857.731 1.52163 -0.760295 0
M  V30 8936 O 858.916 1.65421 -1.01733 0
M  V30 8937 C 856.046 2.71925 -2.16042 0
M  V30 8938 C 855 2.70261 -3.31878 0
M  V30 8939 C 854.326 4.09864 -3.43388 0
M  V30 8940 C 855.626 2.30667 -4.68604 0
M  V30 8941 H 857.32 1.06709 -2.79738 0
M  V30 8942 H 854.866 0.511884 -1.34595 0
M  V30 8943 H 856.819 3.46992 -2.39113 0
M  V30 8944 H 855.543 3.02523 -1.23074 0
M  V30 8945 H 854.202 1.97651 -3.08755 0
M  V30 8946 H 853.85 4.37664 -2.47909 0
M  V30 8947 H 853.55 4.09648 -4.21262 0
M  V30 8948 H 855.074 4.86689 -3.68736 0
M  V30 8949 H 856.488 2.95453 -4.91305 0
M  V30 8950 H 854.885 2.41637 -5.49301 0
M  V30 8951 H 855.955 1.25793 -4.68299 0
M  V30 8952 N 857.298 1.47698 0.54982 0
M  V30 8953 C 858.547 1.53961 1.30303 0
M  V30 8954 C 858.86 0.209731 1.94472 0
M  V30 8955 O 860.066 0.150418 2.71083 0
M  V30 8956 C 858.522 2.71436 2.36328 0
M  V30 8957 C 858.13 4.10983 1.78316 0
M  V30 8958 C 859.874 2.86996 3.12783 0
M  V30 8959 C 857.781 5.19747 2.82164 0
M  V30 8960 H 856.711 0.573098 0.489975 0
M  V30 8961 H 859.362 1.73989 0.583089 0
M  V30 8962 H 857.744 2.44801 3.11269 0
M  V30 8963 H 858.918 4.47552 1.09697 0
M  V30 8964 H 857.233 4.00371 1.1442 0
M  V30 8965 H 859.83 3.65422 3.90347 0
M  V30 8966 H 860.173 1.95712 3.67427 0
M  V30 8967 H 860.706 3.13436 2.44954 0
M  V30 8968 H 857.445 6.12932 2.32366 0
M  V30 8969 H 856.965 4.87688 3.49171 0
M  V30 8970 H 858.644 5.47014 3.4552 0
M  V30 8971 N 858.776 -0.797141 1.35954 0
M  V30 8972 C 860.053 -1.54224 1.2031 0
M  V30 8973 C 860.433 -2.10013 -0.213926 0
M  V30 8974 O 859.781 -1.93292 -1.21862 0
M  V30 8975 C 859.991 -2.6433 2.27883 0
M  V30 8976 C 861.339 -3.32418 2.64165 0
M  V30 8977 O 862.363 -2.74607 2.26868 0
M  V30 8978 O 861.222 -4.36876 3.28331 0
M  V30 8979 H 858.316 -0.681857 0.467974 0
M  V30 8980 H 860.862 -0.836288 1.47663 0
M  V30 8981 H 859.634 -2.21044 3.22885 0
M  V30 8982 H 859.257 -3.42551 2.01853 0
M  V30 8983 N 860.254 -1.20106 -1.0204 0
M  V30 8984 C 861.217 -0.948261 -2.08664 0
M  V30 8985 C 862.217 0.0746753 -1.60627 0
M  V30 8986 O 863.407 -0.160981 -1.73455 0
M  V30 8987 C 860.539 -0.426854 -3.38217 0
M  V30 8988 H 861.732 -1.894 -2.32524 0
M  V30 8989 H 859.285 -1.0159 -1.18782 0
M  V30 8990 H 860.02 0.524532 -3.2003 0
M  V30 8991 H 859.805 -1.16451 -3.74408 0
M  V30 8992 H 861.295 -0.269346 -4.1673 0
M  V30 8993 N 861.732 1.21287 -1.00634 0
M  V30 8994 C 862.665 2.22366 -0.512687 0
M  V30 8995 C 863.643 1.56692 0.434332 0
M  V30 8996 O 864.827 1.85094 0.35674 0
M  V30 8997 C 861.954 3.37738 0.255139 0
M  V30 8998 C 861 4.21673 -0.639883 0
M  V30 8999 S 861.833 4.92474 -2.10308 0
M  V30 9000 C 862.989 6.11275 -1.34512 0
M  V30 9001 H 863.222 2.63896 -1.36918 0
M  V30 9002 H 860.755 1.31176 -0.814387 0
M  V30 9003 H 862.713 4.04624 0.692067 0
M  V30 9004 H 861.374 2.94689 1.08707 0
M  V30 9005 H 860.567 5.03977 -0.0483821 0
M  V30 9006 H 860.169 3.59988 -1.01414 0
M  V30 9007 H 862.461 6.7466 -0.619721 0
M  V30 9008 H 863.404 6.74864 -2.14393 0
M  V30 9009 H 863.812 5.58026 -0.852506 0
M  V30 9010 N 863.21 0.781244 1.36873 0
M  V30 9011 C 864.143 0.120106 2.27884 0
M  V30 9012 C 865.121 -0.698961 1.4681 0
M  V30 9013 O 866.305 -0.671694 1.76126 0
M  V30 9014 C 863.432 -0.835804 3.28226 0
M  V30 9015 C 862.478 -0.0995527 4.26384 0
M  V30 9016 S 863.311 1.21903 5.2144 0
M  V30 9017 C 864.467 0.266904 6.25331 0
M  V30 9018 H 864.7 0.891796 2.83609 0
M  V30 9019 H 862.233 0.575075 1.43291 0
M  V30 9020 H 864.191 -1.3819 3.86541 0
M  V30 9021 H 862.852 -1.58068 2.71428 0
M  V30 9022 H 862.045 -0.82457 4.97209 0
M  V30 9023 H 861.647 0.375818 3.72107 0
M  V30 9024 H 863.939 -0.55725 6.75204 0
M  V30 9025 H 864.882 0.943603 7.01785 0
M  V30 9026 H 865.29 -0.126121 5.64359 0
M  V30 9027 N 864.689 -1.48329 0.532571 0
M  V30 9028 C 865.936 -2.025 -0.000582356 0
M  V30 9029 C 866.264 -1.40942 -1.34036 0
M  V30 9030 O 865.519 -0.545545 -1.87942 0
M  V30 9031 C 865.818 -3.57 -0.168943 0
M  V30 9032 C 865.484 -4.37357 1.0968 0
M  V30 9033 C 864.146 -4.59033 1.44369 0
M  V30 9034 C 866.498 -4.83882 1.93669 0
M  V30 9035 C 863.826 -5.24481 2.62939 0
M  V30 9036 C 866.178 -5.50637 3.11419 0
M  V30 9037 C 864.842 -5.70551 3.46451 0
M  V30 9038 H 864.112 -0.741 -0.000213099 0
M  V30 9039 H 866.759 -1.78282 0.699117 0
M  V30 9040 H 865.064 -3.80072 -0.951429 0
M  V30 9041 H 866.761 -3.9654 -0.596422 0
M  V30 9042 H 863.351 -4.20748 0.816655 0
M  V30 9043 H 867.535 -4.66936 1.6818 0
M  V30 9044 H 862.791 -5.38096 2.9028 0
M  V30 9045 H 866.965 -5.85655 3.76803 0
M  V30 9046 H 864.592 -6.21037 4.38425 0
M  V30 9047 N 866.167 -0.267825 -1.55308 0
M  V30 9048 C 867.395 0.354587 -2.03839 0
M  V30 9049 C 867.81 1.50007 -1.14644 0
M  V30 9050 O 867.167 1.81752 -0.165055 0
M  V30 9051 C 867.218 0.84254 -3.51544 0
M  V30 9052 O 866.939 -0.257318 -4.37344 0
M  V30 9053 C 868.44 1.53351 -4.15931 0
M  V30 9054 H 865.66 0.0818131 -0.665994 0
M  V30 9055 H 868.204 -0.397795 -2.00594 0
M  V30 9056 H 866.359 1.54503 -3.55257 0
M  V30 9057 H 866.773 0.116593 -5.2437 0
M  V30 9058 H 868.247 1.82643 -5.20908 0
M  V30 9059 H 868.724 2.4626 -3.63666 0
M  V30 9060 H 869.33 0.87506 -4.162 0
M  V30 9061 N 867.645 1.57599 0.00500368 0
M  V30 9062 C 868.87 1.95026 0.705663 0
M  V30 9063 C 869.295 0.869643 1.6679 0
M  V30 9064 O 868.653 -0.172659 1.80476 0
M  V30 9065 C 868.701 3.31545 1.4181 0
M  V30 9066 O 867.805 3.25495 2.53232 0
M  V30 9067 H 867.146 0.636808 0.188074 0
M  V30 9068 H 869.676 2.04547 -0.046696 0
M  V30 9069 H 869.686 3.66996 1.78265 0
M  V30 9070 H 868.361 4.09751 0.712543 0
M  V30 9071 H 866.938 3.01714 2.19142 0
M  V30 9072 N 869.123 -0.277682 1.55134 0
M  V30 9073 C 870.4 -1.0309 1.66228 0
M  V30 9074 C 870.78 -2.0445 0.525701 0
M  V30 9075 O 870.128 -2.23512 -0.474816 0
M  V30 9076 C 870.338 -1.6919 3.05247 0
M  V30 9077 C 871.686 -2.20526 3.62841 0
M  V30 9078 O 872.71 -1.79185 3.07849 0
M  V30 9079 O 871.569 -2.96342 4.59177 0
M  V30 9080 H 868.663 -0.4779 0.674937 0
M  V30 9081 H 871.209 -0.273912 1.67475 0
M  V30 9082 H 869.981 -0.957163 3.79413 0
M  V30 9083 H 869.604 -2.51587 3.07879 0
M  V30 9084 N 870.601 -1.47988 -0.541979 0
M  V30 9085 C 871.531 -1.64503 -1.65713 0
M  V30 9086 C 872.512 -0.494116 -1.62765 0
M  V30 9087 O 873.697 -0.725256 -1.80149 0
M  V30 9088 C 870.827 -1.67337 -3.04328 0
M  V30 9089 C 869.781 -2.81809 -3.2213 0
M  V30 9090 C 869.107 -2.69724 -4.61685 0
M  V30 9091 C 870.407 -4.23241 -3.06046 0
M  V30 9092 H 872.101 -2.5786 -1.52147 0
M  V30 9093 H 869.647 -1.24094 -0.730529 0
M  V30 9094 H 871.6 -1.77481 -3.82202 0
M  V30 9095 H 870.324 -0.705514 -3.18889 0
M  V30 9096 H 868.983 -2.71201 -2.46669 0
M  V30 9097 H 868.631 -1.70934 -4.73065 0
M  V30 9098 H 868.331 -3.4653 -4.74543 0
M  V30 9099 H 869.855 -2.81818 -5.41674 0
M  V30 9100 H 871.269 -4.34746 -3.73723 0
M  V30 9101 H 869.666 -5.00952 -3.30405 0
M  V30 9102 H 870.736 -4.40543 -2.02609 0
M  V30 9103 N 872.079 0.78992 -1.36375 0
M  V30 9104 C 873.042 1.88414 -1.30509 0
M  V30 9105 C 874.042 1.59384 -0.2129 0
M  V30 9106 O 875.232 1.67805 -0.467651 0
M  V30 9107 C 872.364 3.25188 -1.02302 0
M  V30 9108 H 873.557 1.95031 -2.27822 0
M  V30 9109 H 871.11 0.987664 -1.2114 0
M  V30 9110 H 871.845 3.24254 -0.0544486 0
M  V30 9111 H 871.63 3.47647 -1.81338 0
M  V30 9112 H 873.12 4.05252 -1.00801 0
M  V30 9113 N 873.557 1.20646 1.01402 0
M  V30 9114 C 874.785 1.04389 1.78635 0
M  V30 9115 C 875.2 -0.406771 1.84366 0
M  V30 9116 O 874.557 -1.28239 1.2985 0
M  V30 9117 C 874.608 1.62378 3.22979 0
M  V30 9118 O 874.329 3.01768 3.17597 0
M  V30 9119 C 875.83 1.5111 4.1675 0
M  V30 9120 H 873.05 0.367077 0.56169 0
M  V30 9121 H 875.594 1.59789 1.27624 0
M  V30 9122 H 873.749 1.11092 3.7113 0
M  V30 9123 H 874.163 3.29331 4.08217 0
M  V30 9124 H 875.637 1.96441 5.15863 0
M  V30 9125 H 876.114 0.464011 4.36742 0
M  V30 9126 H 876.72 2.01599 3.74483 0
M  V30 9127 N 875.035 -1.20752 1.01276 0
M  V30 9128 C 875.983 -2.25432 0.572989 0
M  V30 9129 C 876.977 -1.64935 -0.386354 0
M  V30 9130 O 878.183 -1.7816 -0.256696 0
M  V30 9131 H 874.558 -0.733229 0.166972 0
M  V30 9132 H 876.529 -2.59856 1.46687 0
M  V30 9133 C 875.278 -3.47615 -0.0768249 0
M  V30 9134 H 874.601 -3.94442 0.652354 0
M  V30 9135 H 876.041 -4.22572 -0.3477 0
M  V30 9136 C 874.5 -3.1003 -1.31845 0
M  V30 9137 O 875.03 -3.21216 -2.41211 0
M  V30 9138 N 873.236 -2.64616 -1.20111 0
M  V30 9139 H 872.783 -2.55714 -0.311184 0
M  V30 9140 H 872.741 -2.39838 -2.03286 0
M  V30 9141 N 876.513 -0.788492 -1.36457 0
M  V30 9142 C 877.461 -0.174192 -2.31947 0
M  V30 9143 C 878.455 0.665974 -1.5576 0
M  V30 9144 O 879.661 0.561161 -1.71029 0
M  V30 9145 H 876.036 -0.0375538 -0.751062 0
M  V30 9146 H 878.007 -0.995011 -2.81322 0
M  V30 9147 C 876.756 0.677276 -3.4104 0
M  V30 9148 H 876.079 0.0401418 -3.9978 0
M  V30 9149 H 877.519 1.07379 -4.10178 0
M  V30 9150 C 875.978 1.83512 -2.82533 0
M  V30 9151 O 876.508 2.93164 -2.74623 0
M  V30 9152 N 874.714 1.64095 -2.39836 0
M  V30 9153 H 874.261 0.749046 -2.46469 0
M  V30 9154 H 874.219 2.41726 -2.01037 0
M  V30 9155 N 877.991 1.48044 -0.54043 0
M  V30 9156 C 878.921 2.32597 0.205178 0
M  V30 9157 C 879.902 1.42748 0.925041 0
M  V30 9158 O 881.087 1.71624 0.908784 0
M  V30 9159 C 878.217 3.24175 1.24612 0
M  V30 9160 C 877.171 4.23131 0.64376 0
M  V30 9161 C 876.497 5.03915 1.78812 0
M  V30 9162 C 877.797 5.20831 -0.39144 0
M  V30 9163 H 879.491 2.95184 -0.500676 0
M  V30 9164 H 877.037 1.41948 -0.242225 0
M  V30 9165 H 878.99 3.82158 1.77576 0
M  V30 9166 H 877.714 2.59608 1.98169 0
M  V30 9167 H 876.373 3.66349 0.135554 0
M  V30 9168 H 876.021 4.35765 2.51232 0
M  V30 9169 H 875.721 5.709 1.39094 0
M  V30 9170 H 877.245 5.64753 2.32134 0
M  V30 9171 H 878.659 5.73277 0.0515064 0
M  V30 9172 H 877.056 5.95926 -0.706569 0
M  V30 9173 H 878.126 4.6733 -1.29345 0
M  V30 9174 N 879.47 0.276058 1.55163 0
M  V30 9175 C 880.716 -0.340959 1.99913 0
M  V30 9176 C 881.049 -1.55434 1.16422 0
M  V30 9177 O 880.324 -1.93081 0.234517 0
M  V30 9178 C 880.607 -0.722211 3.52783 0
M  V30 9179 C 880.46 0.498575 4.47028 0
M  V30 9180 C 881.779 -1.5583 4.11589 0
M  V30 9181 H 878.898 -0.122455 0.726756 0
M  V30 9182 H 881.54 0.38319 1.86096 0
M  V30 9183 H 879.69 -1.33919 3.64689 0
M  V30 9184 H 881.362 1.13713 4.47065 0
M  V30 9185 H 879.605 1.13646 4.18649 0
M  V30 9186 H 880.276 0.188041 5.5168 0
M  V30 9187 H 882.752 -1.03722 4.02965 0
M  V30 9188 H 881.628 -1.79387 5.1876 0
M  V30 9189 H 881.889 -2.53963 3.61877 0
M  V30 9190 N 880.948 -1.576 0.00335426 0
M  V30 9191 C 882.194 -1.90996 -0.681799 0
M  V30 9192 C 882.527 -0.877643 -1.73237 0
M  V30 9193 O 881.802 0.103183 -1.94226 0
M  V30 9194 C 882.085 -3.34961 -1.32187 0
M  V30 9195 C 881.938 -4.48911 -0.28261 0
M  V30 9196 C 883.257 -3.78408 -2.24711 0
M  V30 9197 H 880.376 -0.694596 -0.246386 0
M  V30 9198 H 883.018 -1.89919 0.055336 0
M  V30 9199 H 881.168 -3.36008 -1.95014 0
M  V30 9200 H 882.84 -4.59999 0.346241 0
M  V30 9201 H 881.083 -4.32 0.394768 0
M  V30 9202 H 881.754 -5.46609 -0.769576 0
M  V30 9203 H 884.23 -3.78934 -1.71897 0
M  V30 9204 H 883.106 -4.79885 -2.66461 0
M  V30 9205 H 883.367 -3.12464 -3.1276 0
M  V30 9206 N 882.426 0.269451 -1.5528 0
M  V30 9207 C 883.359 1.3588 -1.83336 0
M  V30 9208 C 884.337 1.4739 -0.68666 0
M  V30 9209 O 885.521 1.63959 -0.930037 0
M  V30 9210 C 882.648 2.73483 -1.99812 0
M  V30 9211 C 881.694 2.79239 -3.22378 0
M  V30 9212 S 882.527 2.38125 -4.79642 0
M  V30 9213 C 883.683 3.77697 -4.99095 0
M  V30 9214 H 883.916 1.11878 -2.75446 0
M  V30 9215 H 881.449 0.469268 -1.47096 0
M  V30 9216 H 883.407 3.52725 -2.09989 0
M  V30 9217 H 882.068 2.94735 -1.08583 0
M  V30 9218 H 881.261 3.80243 -3.30804 0
M  V30 9219 H 880.863 2.08022 -3.1081 0
M  V30 9220 H 883.155 4.72999 -4.85055 0
M  V30 9221 H 884.098 3.7422 -6.01136 0
M  V30 9222 H 884.506 3.69164 -4.27058 0
M  V30 9223 N 883.904 1.48273 0.534124 0
M  V30 9224 C 884.867 1.6201 1.62127 0
M  V30 9225 C 885.867 0.493653 1.53035 0
M  V30 9226 O 887.057 0.759337 1.56779 0
M  V30 9227 C 884.189 1.5864 3.01739 0
M  V30 9228 H 885.382 2.58944 1.51288 0
M  V30 9229 H 882.935 1.36808 0.755861 0
M  V30 9230 H 883.67 0.631685 3.18088 0
M  V30 9231 H 883.455 2.40415 3.09747 0
M  V30 9232 H 884.945 1.71438 3.80787 0
M  V30 9233 N 885.382 -0.782676 1.36792 0
M  V30 9234 C 886.612 -1.56934 1.3437 0
M  V30 9235 C 887.02 -1.89049 -0.0754828 0
M  V30 9236 O 886.363 -1.51103 -1.04467 0
M  V30 9237 C 886.425 -2.91311 2.10661 0
M  V30 9238 C 886.089 -2.81889 3.59705 0
M  V30 9239 C 887.086 -2.53668 4.53815 0
M  V30 9240 C 884.771 -3.00254 4.02682 0
M  V30 9241 C 886.765 -2.43925 5.8888 0
M  V30 9242 C 884.452 -2.90132 5.37835 0
M  V30 9243 C 885.45 -2.62006 6.30747 0
M  V30 9244 O 885.138 -2.5189 7.63418 0
M  V30 9245 H 884.87 -0.493194 0.462316 0
M  V30 9246 H 887.424 -0.978791 1.80579 0
M  V30 9247 H 885.654 -3.52443 1.59125 0
M  V30 9248 H 887.343 -3.52632 2.01012 0
M  V30 9249 H 888.109 -2.39176 4.21924 0
M  V30 9250 H 883.988 -3.21151 3.30731 0
M  V30 9251 H 887.532 -2.21892 6.6137 0
M  V30 9252 H 883.429 -3.04189 5.69332 0
M  V30 9253 H 884.197 -2.67321 7.73616 0
M  V30 9254 N 886.86 -1.21182 -1.00761 0
M  V30 9255 C 888.109 -1.02166 -1.73911 0
M  V30 9256 C 888.422 0.445638 -1.90456 0
M  V30 9257 O 889.628 0.755132 -2.60787 0
M  V30 9258 C 888.084 -1.77936 -3.12837 0
M  V30 9259 C 887.692 -3.28819 -3.04273 0
M  V30 9260 C 889.436 -1.67319 -3.90134 0
M  V30 9261 C 887.343 -3.97089 -4.38262 0
M  V30 9262 H 886.273 -0.378665 -0.652019 0
M  V30 9263 H 888.924 -1.44891 -1.12601 0
M  V30 9264 H 887.306 -1.28003 -3.74742 0
M  V30 9265 H 888.48 -3.86035 -2.51622 0
M  V30 9266 H 886.795 -3.39949 -2.40465 0
M  V30 9267 H 889.392 -2.15659 -4.8928 0
M  V30 9268 H 889.735 -0.630959 -4.11491 0
M  V30 9269 H 890.268 -2.14716 -3.34876 0
M  V30 9270 H 887.007 -5.01503 -4.22107 0
M  V30 9271 H 886.527 -3.44662 -4.90885 0
M  V30 9272 H 888.206 -4.01854 -5.07072 0
M  V30 9273 N 888.338 1.20213 -1.01915 0
M  V30 9274 C 889.566 1.93622 -0.729255 0
M  V30 9275 C 889.981 1.74923 0.710444 0
M  V30 9276 O 889.338 1.06484 1.48214 0
M  V30 9277 C 889.389 3.45651 -1.05865 0
M  V30 9278 O 889.11 3.63741 -2.44181 0
M  V30 9279 C 890.611 4.36201 -0.790176 0
M  V30 9280 H 887.831 0.615333 -0.267594 0
M  V30 9281 H 890.375 1.52633 -1.36101 0
M  V30 9282 H 888.53 3.84511 -0.47225 0
M  V30 9283 H 888.944 4.57702 -2.56143 0
M  V30 9284 H 890.418 5.41516 -1.07071 0
M  V30 9285 H 890.895 4.38334 0.275609 0
M  V30 9286 H 891.501 4.03008 -1.35885 0
M  V30 9287 N 889.816 0.795718 1.36037 0
M  V30 9288 C 891.064 0.370291 1.98679 0
M  V30 9289 C 891.385 -1.06332 1.63458 0
M  V30 9290 O 890.655 -1.73394 0.911671 0
M  V30 9291 H 889.235 0.133928 0.734896 0
M  V30 9292 H 891.897 1.01915 1.6613 0
M  V30 9293 H 890.993 0.467207 3.08583 0
M  V30 9294 N 891.294 -1.47756 0.548274 0
M  V30 9295 C 892.542 -2.02089 0.0208542 0
M  V30 9296 C 892.863 -1.42589 -1.33017 0
M  V30 9297 O 892.133 -0.597825 -1.86555 0
M  V30 9298 H 890.713 -0.746985 0.00472023 0
M  V30 9299 H 893.375 -1.81262 0.716257 0
M  V30 9300 H 892.471 -3.12012 -0.0739016 0
M  V30 9301 N 892.772 -0.284283 -1.55015 0
M  V30 9302 C 894.018 0.330352 -2.00091 0
M  V30 9303 C 894.351 1.54814 -1.17244 0
M  V30 9304 O 893.626 1.92954 -0.244753 0
M  V30 9305 C 893.909 0.703492 -3.53161 0
M  V30 9306 C 893.762 -0.522275 -4.46758 0
M  V30 9307 C 895.081 1.53645 -4.12409 0
M  V30 9308 H 892.2 0.118599 -0.727395 0
M  V30 9309 H 894.842 -0.393054 -1.8589 0
M  V30 9310 H 892.992 1.31983 -3.65394 0
M  V30 9311 H 894.664 -1.16082 -4.46456 0
M  V30 9312 H 892.907 -1.15865 -4.1804 0
M  V30 9313 H 893.578 -0.217295 -5.51572 0
M  V30 9314 H 896.054 1.01583 -4.0351 0
M  V30 9315 H 894.93 1.76633 -5.19704 0
M  V30 9316 H 895.191 2.5204 -3.63219 0
M  V30 9317 N 894.251 1.57596 -0.0117121 0
M  V30 9318 C 895.497 1.91355 0.671661 0
M  V30 9319 C 895.83 0.886818 1.72769 0
M  V30 9320 O 895.105 -0.0928813 1.94278 0
M  V30 9321 C 895.388 3.35657 1.30409 0
M  V30 9322 C 895.241 4.49055 0.2588 0
M  V30 9323 C 896.56 3.79595 2.22701 0
M  V30 9324 H 893.679 0.695893 0.242698 0
M  V30 9325 H 896.321 1.89887 -0.0654071 0
M  V30 9326 H 894.471 3.37038 1.9323 0
M  V30 9327 H 896.143 4.59809 -0.370631 0
M  V30 9328 H 894.386 4.31785 -0.417672 0
M  V30 9329 H 895.057 5.4701 0.740578 0
M  V30 9330 H 897.533 3.7984 1.69885 0
M  V30 9331 H 896.409 4.81292 2.63912 0
M  V30 9332 H 896.67 3.14118 3.11098 0
M  V30 9333 N 895.729 -0.261212 1.5542 0
M  V30 9334 C 896.661 -1.34571 1.85535 0
M  V30 9335 C 897.674 -1.44979 0.740612 0
M  V30 9336 O 898.863 -1.46584 1.01859 0
M  V30 9337 C 895.963 -2.7258 2.01378 0
M  V30 9338 C 895.136 -2.84618 3.32131 0
M  V30 9339 C 894.195 -4.03379 3.37893 0
M  V30 9340 O 893.221 -3.93581 4.11197 0
M  V30 9341 N 894.423 -5.15893 2.66148 0
M  V30 9342 H 897.188 -1.09078 2.79145 0
M  V30 9343 H 894.749 -0.451327 1.55482 0
M  V30 9344 H 896.741 -3.50342 2.0259 0
M  V30 9345 H 895.311 -2.90844 1.14579 0
M  V30 9346 H 894.531 -1.93647 3.43358 0
M  V30 9347 H 895.819 -2.896 4.18341 0
M  V30 9348 H 895.217 -5.26743 2.06297 0
M  V30 9349 H 893.774 -5.91842 2.73069 0
M  V30 9350 N 897.207 -1.48554 -0.526253 0
M  V30 9351 C 898.137 -1.66252 -1.63959 0
M  V30 9352 C 899.118 -0.511351 -1.62232 0
M  V30 9353 O 900.303 -0.744322 -1.7937 0
M  V30 9354 C 897.433 -1.70556 -3.02536 0
M  V30 9355 C 896.387 -2.8521 -3.19123 0
M  V30 9356 C 895.713 -2.74606 -4.58798 0
M  V30 9357 C 897.013 -4.26463 -3.0154 0
M  V30 9358 H 898.707 -2.59459 -1.49404 0
M  V30 9359 H 896.253 -1.24862 -0.717326 0
M  V30 9360 H 898.206 -1.81524 -3.80298 0
M  V30 9361 H 896.93 -0.739297 -3.18123 0
M  V30 9362 H 895.589 -2.73802 -2.43779 0
M  V30 9363 H 895.237 -1.75941 -4.71226 0
M  V30 9364 H 894.937 -3.51544 -4.70841 0
M  V30 9365 H 896.461 -2.87548 -5.38655 0
M  V30 9366 H 897.875 -4.38685 -3.69091 0
M  V30 9367 H 896.272 -5.04428 -3.25073 0
M  V30 9368 H 897.342 -4.42667 -1.97925 0
M  V30 9369 N 898.685 0.775411 -1.37205 0
M  V30 9370 C 899.913 1.56446 -1.35397 0
M  V30 9371 C 900.328 1.887 0.0615437 0
M  V30 9372 O 899.685 1.51178 1.02233 0
M  V30 9373 C 899.736 2.87697 -2.18889 0
M  V30 9374 O 899.457 2.56828 -3.54924 0
M  V30 9375 C 900.958 3.81944 -2.25019 0
M  V30 9376 H 898.178 0.484792 -0.463916 0
M  V30 9377 H 900.722 0.961346 -1.80495 0
M  V30 9378 H 898.877 3.44442 -1.7731 0
M  V30 9379 H 899.291 3.40851 -3.98649 0
M  V30 9380 H 900.765 4.71055 -2.87769 0
M  V30 9381 H 901.242 4.20811 -1.25757 0
M  V30 9382 H 901.848 3.3113 -2.66895 0
M  V30 9383 N 900.163 1.21714 1.00117 0
M  V30 9384 C 901.388 1.06357 1.78054 0
M  V30 9385 C 901.813 -0.382075 1.84179 0
M  V30 9386 O 901.171 -1.27575 1.28819 0
M  V30 9387 C 901.219 1.66982 3.19608 0
M  V30 9388 O 900.323 0.917892 4.02055 0
M  V30 9389 H 899.664 0.374074 0.548602 0
M  V30 9390 H 902.194 1.61338 1.25822 0
M  V30 9391 H 902.204 1.71363 3.70268 0
M  V30 9392 H 900.879 2.72185 3.14465 0
M  V30 9393 H 899.456 0.949473 3.6061 0
M  V30 9394 N 901.641 -1.19671 1.02551 0
M  V30 9395 C 902.573 -2.22215 0.561517 0
M  V30 9396 C 903.586 -1.58751 -0.360821 0
M  V30 9397 O 904.775 -1.77802 -0.157749 0
M  V30 9398 C 901.875 -3.383 -0.201494 0
M  V30 9399 C 901.048 -4.3135 0.724952 0
M  V30 9400 C 900.107 -5.26199 0.00794334 0
M  V30 9401 O 899.133 -5.65665 0.633398 0
M  V30 9402 N 900.335 -5.66573 -1.26394 0
M  V30 9403 H 903.1 -2.6265 1.44343 0
M  V30 9404 H 900.661 -1.34303 0.904122 0
M  V30 9405 H 902.653 -3.98764 -0.690625 0
M  V30 9406 H 901.223 -2.96683 -0.98479 0
M  V30 9407 H 900.443 -3.6872 1.39423 0
M  V30 9408 H 901.731 -4.90433 1.35472 0
M  V30 9409 H 901.129 -5.36538 -1.79287 0
M  V30 9410 H 899.686 -6.29304 -1.69763 0
M  V30 9411 N 903.119 -0.802921 -1.35613 0
M  V30 9412 C 904.365 -0.391259 -1.99601 0
M  V30 9413 C 904.72 1.02922 -1.62557 0
M  V30 9414 O 904.013 1.70357 -0.876878 0
M  V30 9415 C 904.207 -0.507806 -3.53774 0
M  V30 9416 C 904.036 -1.93807 -4.05794 0
M  V30 9417 C 902.806 -2.56564 -4.3532 0
M  V30 9418 C 905.004 -2.90211 -4.24596 0
M  V30 9419 N 902.986 -3.91038 -4.73247 0
M  V30 9420 C 904.357 -4.09548 -4.65479 0
M  V30 9421 C 906.412 -2.87091 -4.06796 0
M  V30 9422 C 905.115 -5.26191 -4.90424 0
M  V30 9423 C 907.141 -4.02933 -4.32896 0
M  V30 9424 C 906.503 -5.21017 -4.74047 0
M  V30 9425 H 902.602 -0.190867 -0.758349 0
M  V30 9426 H 905.186 -1.04338 -1.64382 0
M  V30 9427 H 903.357 0.114306 -3.88232 0
M  V30 9428 H 905.089 -0.0710855 -4.04638 0
M  V30 9429 H 901.844 -2.07945 -4.25507 0
M  V30 9430 H 902.268 -4.60262 -4.96475 0
M  V30 9431 H 906.91 -1.96951 -3.74126 0
M  V30 9432 H 904.628 -6.16906 -5.2197 0
M  V30 9433 H 908.214 -4.01895 -4.2068 0
M  V30 9434 H 907.094 -6.09165 -4.93849 0
M  V30 9435 N 904.597 1.47463 -0.556102 0
M  V30 9436 C 905.527 2.32801 0.180497 0
M  V30 9437 C 906.508 1.43721 0.909848 0
M  V30 9438 O 907.693 1.72578 0.89053 0
M  V30 9439 C 904.823 3.25478 1.21167 0
M  V30 9440 C 903.777 4.2379 0.598846 0
M  V30 9441 C 903.103 5.05783 1.73457 0
M  V30 9442 C 904.403 5.20387 -0.446659 0
M  V30 9443 H 906.097 2.94636 -0.531956 0
M  V30 9444 H 903.643 1.41683 -0.257267 0
M  V30 9445 H 905.596 3.8402 1.73513 0
M  V30 9446 H 904.32 2.61695 1.95405 0
M  V30 9447 H 902.979 3.66472 0.0966897 0
M  V30 9448 H 902.627 4.38405 2.46596 0
M  V30 9449 H 902.327 5.72343 1.33031 0
M  V30 9450 H 903.851 5.67183 2.26131 0
M  V30 9451 H 905.265 5.73299 -0.00930019 0
M  V30 9452 H 903.662 5.95143 -0.769735 0
M  V30 9453 H 904.732 4.65932 -1.34295 0
M  V30 9454 N 906.075 0.2925 1.54862 0
M  V30 9455 C 907.303 -0.322113 2.04377 0
M  V30 9456 C 907.718 -1.48164 1.17016 0
M  V30 9457 O 907.075 -1.81466 0.19395 0
M  V30 9458 C 907.126 -0.786506 3.5284 0
M  V30 9459 O 906.847 0.326863 4.36879 0
M  V30 9460 C 908.348 -1.46715 4.18318 0
M  V30 9461 H 905.568 -0.0712074 0.667211 0
M  V30 9462 H 908.112 0.429657 1.99935 0
M  V30 9463 H 906.267 -1.48832 3.5767 0
M  V30 9464 H 906.681 -0.0331558 5.2449 0
M  V30 9465 H 908.155 -1.74333 5.23748 0
M  V30 9466 H 908.632 -2.40443 3.67538 0
M  V30 9467 H 909.238 -0.808735 4.1754 0
M  V30 9468 N 907.553 -1.57587 0.0200696 0
M  V30 9469 C 908.501 -2.10814 -0.982868 0
M  V30 9470 C 909.495 -1.03263 -1.34287 0
M  V30 9471 O 910.701 -1.21708 -1.32617 0
M  V30 9472 H 907.076 -0.673409 -0.334701 0
M  V30 9473 H 909.047 -2.94034 -0.50856 0
M  V30 9474 C 907.796 -2.64301 -2.25921 0
M  V30 9475 H 907.119 -3.46703 -1.99091 0
M  V30 9476 H 908.559 -3.052 -2.94328 0
M  V30 9477 C 907.018 -1.56628 -2.98277 0
M  V30 9478 O 907.548 -0.960825 -3.9004 0
M  V30 9479 N 905.754 -1.28889 -2.60453 0
M  V30 9480 H 905.301 -1.7831 -1.85912 0
M  V30 9481 H 905.259 -0.570697 -3.09177 0
M  V30 9482 N 909.032 0.252966 -1.55557 0
M  V30 9483 C 910.281 0.979736 -1.76307 0
M  V30 9484 C 910.594 1.86714 -0.582871 0
M  V30 9485 O 911.8 2.6302 -0.673247 0
M  V30 9486 C 910.256 1.79205 -3.12112 0
M  V30 9487 C 909.864 0.952333 -4.37761 0
M  V30 9488 C 911.608 2.51191 -3.42203 0
M  V30 9489 C 909.515 1.76018 -5.64599 0
M  V30 9490 H 908.445 0.369538 -0.657235 0
M  V30 9491 H 911.096 0.234619 -1.81994 0
M  V30 9492 H 909.478 2.57888 -3.00515 0
M  V30 9493 H 910.652 0.208251 -4.60329 0
M  V30 9494 H 908.967 0.346082 -4.14959 0
M  V30 9495 H 911.564 3.12074 -4.34182 0
M  V30 9496 H 911.907 3.22499 -2.63249 0
M  V30 9497 H 912.44 1.79523 -3.54988 0
M  V30 9498 H 909.179 1.09095 -6.46358 0
M  V30 9499 H 908.699 2.4797 -5.46142 0
M  V30 9500 H 910.378 2.32884 -6.03634 0
M  V30 9501 N 910.51 1.48831 0.518367 0
M  V30 9502 C 911.757 1.57439 1.27355 0
M  V30 9503 C 912.085 0.25338 1.92843 0
M  V30 9504 O 911.34 -0.757323 1.80452 0
M  V30 9505 C 911.639 2.67003 2.3758 0
M  V30 9506 C 911.305 4.09069 1.89667 0
M  V30 9507 C 909.967 4.47733 1.76319 0
M  V30 9508 C 912.319 4.98052 1.53603 0
M  V30 9509 C 909.647 5.73173 1.25258 0
M  V30 9510 C 911.999 6.23992 1.04001 0
M  V30 9511 C 910.663 6.61503 0.892784 0
M  V30 9512 H 909.933 0.57611 0.466023 0
M  V30 9513 H 912.58 1.82595 0.577166 0
M  V30 9514 H 910.885 2.35751 3.12936 0
M  V30 9515 H 912.582 2.70876 2.95681 0
M  V30 9516 H 909.172 3.7854 2.01011 0
M  V30 9517 H 913.356 4.68849 1.62771 0
M  V30 9518 H 908.612 6.0095 1.12557 0
M  V30 9519 H 912.786 6.92331 0.751706 0
M  V30 9520 H 910.413 7.58587 0.494939 0
M  V30 9521 N 911.988 -0.768124 1.37614 0
M  V30 9522 C 913.236 -1.52379 1.3276 0
M  V30 9523 C 913.557 -1.94809 -0.0863564 0
M  V30 9524 O 912.827 -1.66568 -1.03112 0
M  V30 9525 H 911.407 -0.565179 0.488448 0
M  V30 9526 H 914.069 -0.913974 1.72141 0
M  V30 9527 H 913.165 -2.4215 1.96901 0
M  V30 9528 N 913.466 -1.22244 -0.994698 0
M  V30 9529 C 914.694 -1.07218 -1.76952 0
M  V30 9530 C 915.109 0.377388 -1.8499 0
M  V30 9531 O 914.466 1.26157 -1.31874 0
M  V30 9532 C 914.517 -1.67496 -3.20355 0
M  V30 9533 O 914.238 -3.06782 -3.12756 0
M  V30 9534 C 915.739 -1.57721 -4.14294 0
M  V30 9535 H 912.959 -0.375966 -0.555779 0
M  V30 9536 H 915.503 -1.61799 -1.25065 0
M  V30 9537 H 913.658 -1.16982 -3.69315 0
M  V30 9538 H 914.072 -3.35784 -4.02926 0
M  V30 9539 H 915.546 -2.04623 -5.12673 0
M  V30 9540 H 916.023 -0.533434 -4.35949 0
M  V30 9541 H 916.629 -2.07531 -3.71229 0
M  V30 9542 N 914.944 1.19125 -1.03184 0
M  V30 9543 C 916.19 1.89163 -0.731111 0
M  V30 9544 C 916.523 1.79604 0.738662 0
M  V30 9545 O 915.798 1.19037 1.53819 0
M  V30 9546 C 916.081 3.39986 -1.18666 0
M  V30 9547 C 915.934 3.58401 -2.71788 0
M  V30 9548 C 917.253 4.33316 -0.769772 0
M  V30 9549 H 914.372 0.686908 -0.267069 0
M  V30 9550 H 917.014 1.40205 -1.28229 0
M  V30 9551 H 915.164 3.81813 -0.717736 0
M  V30 9552 H 916.836 3.25727 -3.26649 0
M  V30 9553 H 915.079 3.01355 -3.12038 0
M  V30 9554 H 915.75 4.64189 -2.98719 0
M  V30 9555 H 918.226 3.9922 -1.17314 0
M  V30 9556 H 917.102 5.37427 -1.11637 0
M  V30 9557 H 917.363 4.40884 0.327681 0
M  V30 9558 N 916.422 0.810101 1.35185 0
M  V30 9559 C 917.652 0.404109 2.02609 0
M  V30 9560 C 918.06 -0.990748 1.61186 0
M  V30 9561 O 917.403 -1.65038 0.80674 0
M  V30 9562 C 917.465 0.412047 3.57131 0
M  V30 9563 C 917.129 1.75802 4.21832 0
M  V30 9564 C 918.126 2.71687 4.43263 0
M  V30 9565 C 915.811 2.04299 4.58876 0
M  V30 9566 C 917.805 3.9425 5.00845 0
M  V30 9567 C 915.492 3.27125 5.16171 0
M  V30 9568 C 916.49 4.21918 5.37098 0
M  V30 9569 O 916.178 5.42576 5.93184 0
M  V30 9570 H 915.91 0.161914 0.656323 0
M  V30 9571 H 918.464 1.09605 1.73712 0
M  V30 9572 H 916.694 -0.336509 3.85233 0
M  V30 9573 H 918.383 0.0278817 4.0589 0
M  V30 9574 H 919.149 2.50964 4.15021 0
M  V30 9575 H 915.028 1.31324 4.41899 0
M  V30 9576 H 918.572 4.68251 5.17094 0
M  V30 9577 H 914.469 3.47718 5.43841 0
M  V30 9578 H 915.237 5.43921 6.11631 0
M  V30 9579 N 917.9 -1.47166 0.563914 0
M  V30 9580 C 918.81 -2.33885 -0.182977 0
M  V30 9581 C 919.826 -1.48605 -0.905132 0
M  V30 9582 O 921.002 -1.81518 -0.872527 0
M  V30 9583 C 918.067 -3.25433 -1.19558 0
M  V30 9584 C 917.128 -4.26607 -0.480129 0
M  V30 9585 C 916.361 -5.1378 -1.44449 0
M  V30 9586 O 916.584 -5.03531 -2.67979 0
M  V30 9587 O 915.518 -5.94109 -0.965321 0
M  V30 9588 H 919.344 -2.99065 0.528544 0
M  V30 9589 H 916.929 -1.45834 0.324468 0
M  V30 9590 H 918.811 -3.81964 -1.77993 0
M  V30 9591 H 917.486 -2.62873 -1.8889 0
M  V30 9592 H 916.393 -3.73817 0.145583 0
M  V30 9593 H 917.726 -4.919 0.171868 0
M  V30 9594 N 919.378 -0.300708 -1.54705 0
M  V30 9595 C 920.325 0.57552 -2.23509 0
M  V30 9596 C 921.295 1.12979 -1.21758 0
M  V30 9597 O 922.48 1.17437 -1.50377 0
M  V30 9598 C 919.62 1.74167 -2.97926 0
M  V30 9599 C 918.733 1.21882 -4.1445 0
M  V30 9600 C 917.868 2.34881 -4.7645 0
M  V30 9601 C 916.907 1.79729 -5.85119 0
M  V30 9602 N 916.044 2.863 -6.41075 0
M  V30 9603 H 920.884 -0.0178257 -2.97995 0
M  V30 9604 H 918.421 -0.0205666 -1.47086 0
M  V30 9605 H 920.379 2.42753 -3.39303 0
M  V30 9606 H 919.009 2.30665 -2.25817 0
M  V30 9607 H 918.061 0.425227 -3.78016 0
M  V30 9608 H 919.373 0.775065 -4.92741 0
M  V30 9609 H 918.527 3.11415 -5.20678 0
M  V30 9610 H 917.266 2.82584 -3.97489 0
M  V30 9611 H 916.271 1.01684 -5.40315 0
M  V30 9612 H 917.496 1.32931 -6.65963 0
M  V30 9613 H 915.442 3.33337 -5.64998 0
M  V30 9614 H 915.359 2.46419 -7.14712 0
M  V30 9615 H 916.627 3.62732 -6.89961 0
M  V30 9616 N 920.856 1.57574 -0.0284266 0
M  V30 9617 C 921.786 2.1321 0.952039 0
M  V30 9618 C 922.767 1.04806 1.33977 0
M  V30 9619 O 923.952 1.32635 1.41851 0
M  V30 9620 C 921.082 2.65862 2.23461 0
M  V30 9621 C 920.036 3.79047 1.98765 0
M  V30 9622 C 919.362 4.18124 3.33281 0
M  V30 9623 C 920.662 5.05151 1.32739 0
M  V30 9624 H 922.356 2.95385 0.488705 0
M  V30 9625 H 919.902 1.42092 0.233628 0
M  V30 9626 H 921.855 3.03417 2.92431 0
M  V30 9627 H 920.579 1.80848 2.71959 0
M  V30 9628 H 919.238 3.41929 1.32213 0
M  V30 9629 H 918.886 3.30092 3.79537 0
M  V30 9630 H 918.586 4.94396 3.17563 0
M  V30 9631 H 920.11 4.58262 4.0352 0
M  V30 9632 H 921.524 5.40297 1.91708 0
M  V30 9633 H 919.921 5.86416 1.27421 0
M  V30 9634 H 920.991 4.83969 0.300261 0
M  V30 9635 N 922.334 -0.244713 1.55689 0
M  V30 9636 C 923.281 -1.30301 1.905 0
M  V30 9637 C 924.251 -1.4772 0.759478 0
M  V30 9638 O 925.436 -1.61667 1.01333 0
M  V30 9639 C 922.576 -2.653 2.20703 0
M  V30 9640 C 921.689 -2.55872 3.48071 0
M  V30 9641 C 920.824 -3.83238 3.67834 0
M  V30 9642 C 919.863 -3.68436 4.88796 0
M  V30 9643 N 919 -4.877 5.05068 0
M  V30 9644 H 923.84 -0.999143 2.80751 0
M  V30 9645 H 921.377 -0.482099 1.38976 0
M  V30 9646 H 923.335 -3.43884 2.36219 0
M  V30 9647 H 921.965 -2.93831 1.33653 0
M  V30 9648 H 921.017 -1.68846 3.40874 0
M  V30 9649 H 922.329 -2.40845 4.36801 0
M  V30 9650 H 921.483 -4.70266 3.83321 0
M  V30 9651 H 920.222 -4.01165 2.77341 0
M  V30 9652 H 919.227 -2.79793 4.73282 0
M  V30 9653 H 920.452 -3.52003 5.8075 0
M  V30 9654 H 918.398 -5.05983 4.17513 0
M  V30 9655 H 918.315 -4.75312 5.8789 0
M  V30 9656 H 919.583 -5.76219 5.24969 0
M  V30 9657 N 923.813 -1.49104 -0.510467 0
M  V30 9658 C 925.224 -1.51423 -1.09215 0
M  V30 9659 C 925.575 -0.295035 -1.93969 0
M  V30 9660 O 924.7 0.596064 -2.08029 0
M  V30 9661 C 925.295 -2.74387 -1.98739 0
M  V30 9662 C 923.854 -2.79515 -2.52088 0
M  V30 9663 C 923.001 -2.4521 -1.29488 0
M  V30 9664 H 925.952 -1.55938 -0.294807 0
M  V30 9665 H 925.973 -2.54012 -2.83298 0
M  V30 9666 H 925.485 -3.63105 -1.37026 0
M  V30 9667 H 923.586 -1.95054 -3.17466 0
M  V30 9668 H 923.699 -3.81447 -2.89887 0
M  V30 9669 H 922.063 -1.96785 -1.61703 0
M  V30 9670 H 922.846 -3.36192 -0.694978 0
M  V30 9671 N 925.291 0.760815 -1.38019 0
M  V30 9672 C 926.537 1.52198 -1.34028 0
M  V30 9673 C 926.87 1.94067 0.0718309 0
M  V30 9674 O 926.145 1.64895 1.0315 0
M  V30 9675 C 926.428 2.77954 -2.2894 0
M  V30 9676 C 926.281 2.42269 -3.7898 0
M  V30 9677 C 927.6 3.79943 -2.22107 0
M  V30 9678 H 924.719 0.552131 -0.488181 0
M  V30 9679 H 927.361 0.871971 -1.6881 0
M  V30 9680 H 925.511 3.33419 -1.9941 0
M  V30 9681 H 927.183 1.92635 -4.19153 0
M  V30 9682 H 925.426 1.74822 -3.97014 0
M  V30 9683 H 926.097 3.32211 -4.4084 0
M  V30 9684 H 928.573 3.34 -2.4816 0
M  V30 9685 H 927.449 4.6564 -2.90639 0
M  V30 9686 H 927.71 4.25004 -1.21753 0
M  V30 9687 N 926.769 1.22769 0.988202 0
M  V30 9688 C 927.699 1.02627 2.09738 0
M  V30 9689 C 928.68 -0.0543211 1.70013 0
M  V30 9690 O 929.865 0.108811 1.93895 0
M  V30 9691 C 926.995 0.608302 3.41931 0
M  V30 9692 C 925.949 1.63536 3.95525 0
M  V30 9693 C 925.275 1.07308 5.23822 0
M  V30 9694 C 926.575 3.02649 4.25677 0
M  V30 9695 H 928.269 1.954 2.26847 0
M  V30 9696 H 925.815 0.940888 1.09011 0
M  V30 9697 H 927.768 0.454478 4.18942 0
M  V30 9698 H 926.492 -0.355095 3.24664 0
M  V30 9699 H 925.151 1.77704 3.20651 0
M  V30 9700 H 924.799 0.100894 5.02899 0
M  V30 9701 H 924.499 1.75925 5.60646 0
M  V30 9702 H 926.023 0.930938 6.03462 0
M  V30 9703 H 927.437 2.91828 4.93467 0
M  V30 9704 H 925.834 3.68434 4.73684 0
M  V30 9705 H 926.904 3.52228 3.33262 0
M  V30 9706 N 928.247 -1.18576 1.03814 0
M  V30 9707 C 929.524 -1.8433 0.654358 0
M  V30 9708 C 929.904 -1.92504 -0.866338 0
M  V30 9709 O 929.252 -1.44904 -1.76678 0
M  V30 9710 C 929.462 -3.22778 1.32723 0
M  V30 9711 C 930.81 -3.98841 1.45641 0
M  V30 9712 O 931.834 -3.32209 1.28514 0
M  V30 9713 O 930.693 -5.18219 1.73526 0
M  V30 9714 H 927.787 -0.794766 0.228638 0
M  V30 9715 H 930.333 -1.25989 1.13687 0
M  V30 9716 H 929.105 -3.11717 2.36534 0
M  V30 9717 H 928.728 -3.88772 0.833176 0
M  V30 9718 N 929.725 -0.817259 -1.34754 0
M  V30 9719 C 930.971 -0.412407 -1.99175 0
M  V30 9720 C 931.326 1.01192 -1.6364 0
M  V30 9721 O 930.619 1.69417 -0.894897 0
M  V30 9722 C 930.813 -0.5453 -3.53216 0
M  V30 9723 C 930.642 -1.981 -4.03716 0
M  V30 9724 C 929.412 -2.61167 -4.32574 0
M  V30 9725 C 931.61 -2.94698 -4.21494 0
M  V30 9726 N 929.592 -3.96035 -4.69073 0
M  V30 9727 C 930.963 -4.14462 -4.61109 0
M  V30 9728 C 933.018 -2.9139 -4.03728 0
M  V30 9729 C 931.721 -5.31363 -4.84815 0
M  V30 9730 C 933.747 -4.07502 -4.28598 0
M  V30 9731 C 933.109 -5.26016 -4.68494 0
M  V30 9732 H 929.208 -0.198899 -0.756282 0
M  V30 9733 H 931.792 -1.06076 -1.63266 0
M  V30 9734 H 929.963 0.073122 -3.88331 0
M  V30 9735 H 931.695 -0.113999 -4.04539 0
M  V30 9736 H 928.45 -2.12446 -4.23277 0
M  V30 9737 H 928.874 -4.65502 -4.91566 0
M  V30 9738 H 933.516 -2.00908 -3.72016 0
M  V30 9739 H 931.234 -6.22408 -5.15397 0
M  V30 9740 H 934.82 -4.06335 -4.16393 0
M  V30 9741 H 933.7 -6.14369 -4.87361 0
M  V30 9742 N 931.203 1.46865 -0.571711 0
M  V30 9743 C 932.133 2.3298 0.155795 0
M  V30 9744 C 933.114 1.44678 0.894553 0
M  V30 9745 O 934.299 1.73513 0.872176 0
M  V30 9746 C 931.429 3.26745 1.17708 0
M  V30 9747 C 930.383 4.24401 0.553863 0
M  V30 9748 C 929.709 5.07595 1.68083 0
M  V30 9749 C 931.009 5.19884 -0.501827 0
M  V30 9750 H 932.703 2.94056 -0.563176 0
M  V30 9751 H 930.249 1.41402 -0.27228 0
M  V30 9752 H 932.202 3.85838 1.6943 0
M  V30 9753 H 930.926 2.63753 1.92618 0
M  V30 9754 H 929.585 3.66554 0.057815 0
M  V30 9755 H 929.233 4.40996 2.41933 0
M  V30 9756 H 928.933 5.73722 1.26953 0
M  V30 9757 H 930.457 5.6955 2.20103 0
M  V30 9758 H 931.871 5.73257 -0.0701057 0
M  V30 9759 H 930.268 5.94293 -0.832815 0
M  V30 9760 H 931.338 4.64482 -1.39229 0
M  V30 9761 N 932.681 0.308908 1.54543 0
M  V30 9762 C 933.591 -0.572939 2.27496 0
M  V30 9763 C 934.607 -1.14171 1.31305 0
M  V30 9764 O 935.783 -1.16481 1.64299 0
M  V30 9765 C 932.848 -1.72483 3.0075 0
M  V30 9766 C 931.909 -1.18934 4.12496 0
M  V30 9767 C 931.142 -2.28634 4.82247 0
M  V30 9768 O 931.365 -3.48691 4.5141 0
M  V30 9769 O 930.299 -1.94879 5.69478 0
M  V30 9770 H 934.125 0.0190877 3.03694 0
M  V30 9771 H 931.71 0.0750943 1.49211 0
M  V30 9772 H 933.592 -2.39578 3.46671 0
M  V30 9773 H 932.267 -2.30332 2.2744 0
M  V30 9774 H 931.174 -0.483904 3.70957 0
M  V30 9775 H 932.507 -0.656185 4.87806 0
M  V30 9776 N 934.159 -1.57557 0.0367827 0
M  V30 9777 C 935.069 -2.14148 -0.958017 0
M  V30 9778 C 936.085 -1.09564 -1.35173 0
M  V30 9779 O 937.261 -1.4166 -1.43158 0
M  V30 9780 C 934.326 -2.6636 -2.21931 0
M  V30 9781 C 933.387 -3.85688 -1.8853 0
M  V30 9782 C 932.62 -4.35401 -3.08645 0
M  V30 9783 O 932.843 -3.8425 -4.21554 0
M  V30 9784 O 931.777 -5.27158 -2.90497 0
M  V30 9785 H 935.603 -2.99442 -0.506797 0
M  V30 9786 H 933.188 -1.48259 -0.184275 0
M  V30 9787 H 935.07 -2.99976 -2.9596 0
M  V30 9788 H 933.745 -1.84145 -2.66219 0
M  V30 9789 H 932.652 -3.56985 -1.11861 0
M  V30 9790 H 933.985 -4.69089 -1.49052 0
M  V30 9791 N 935.637 0.236453 -1.55816 0
M  V30 9792 C 936.584 1.29289 -1.91188 0
M  V30 9793 C 937.554 1.47315 -0.767301 0
M  V30 9794 O 938.739 1.61128 -1.02189 0
M  V30 9795 C 935.879 2.64126 -2.22107 0
M  V30 9796 C 934.992 2.54022 -3.49423 0
M  V30 9797 C 934.127 3.81282 -3.69861 0
M  V30 9798 C 933.166 3.65839 -4.90743 0
M  V30 9799 N 932.303 4.85014 -5.07647 0
M  V30 9800 H 937.143 0.98424 -2.81277 0
M  V30 9801 H 934.68 0.474722 -1.39229 0
M  V30 9802 H 936.638 3.42626 -2.3804 0
M  V30 9803 H 935.268 2.93118 -1.35209 0
M  V30 9804 H 934.32 1.67036 -3.41765 0
M  V30 9805 H 935.632 2.38525 -4.38072 0
M  V30 9806 H 934.786 4.68226 -3.8581 0
M  V30 9807 H 933.525 3.99688 -2.79465 0
M  V30 9808 H 932.53 2.77279 -4.74759 0
M  V30 9809 H 933.755 3.48918 -5.82609 0
M  V30 9810 H 931.701 5.03762 -4.20191 0
M  V30 9811 H 931.618 4.72188 -5.90402 0
M  V30 9812 H 932.886 5.73427 -5.28017 0
M  V30 9813 N 937.115 1.49373 0.502552 0
M  V30 9814 C 938.362 1.58781 1.25678 0
M  V30 9815 C 938.69 0.273819 1.92563 0
M  V30 9816 O 937.945 -0.738141 1.81246 0
M  V30 9817 C 938.244 2.69508 2.34735 0
M  V30 9818 C 937.91 4.11057 1.85318 0
M  V30 9819 C 936.572 4.49578 1.7156 0
M  V30 9820 C 938.924 4.99653 1.48312 0
M  V30 9821 C 936.252 5.74469 1.19172 0
M  V30 9822 C 938.604 6.2506 0.97377 0
M  V30 9823 C 937.268 6.62412 0.822573 0
M  V30 9824 H 936.538 0.581021 0.459887 0
M  V30 9825 H 939.185 1.83197 0.557767 0
M  V30 9826 H 937.49 2.39057 3.10418 0
M  V30 9827 H 939.187 2.73997 2.92791 0
M  V30 9828 H 935.777 3.80651 1.96985 0
M  V30 9829 H 939.961 4.70549 1.57789 0
M  V30 9830 H 935.217 6.0211 1.06176 0
M  V30 9831 H 939.391 6.93089 0.678233 0
M  V30 9832 H 937.018 7.59069 0.414453 0
M  V30 9833 N 938.594 -0.753485 1.38421 0
M  V30 9834 C 939.541 -1.86723 1.35659 0
M  V30 9835 C 940.511 -1.64648 0.219121 0
M  V30 9836 O 941.696 -1.86313 0.411366 0
M  V30 9837 C 938.836 -3.24023 1.18758 0
M  V30 9838 C 937.949 -3.57928 2.41892 0
M  V30 9839 C 937.084 -4.84532 2.17721 0
M  V30 9840 C 936.123 -5.11224 3.36626 0
M  V30 9841 N 935.26 -6.29023 3.11889 0
M  V30 9842 H 940.1 -1.88419 2.30873 0
M  V30 9843 H 937.637 -0.920934 1.14705 0
M  V30 9844 H 939.595 -4.03252 1.06974 0
M  V30 9845 H 938.225 -3.21654 0.27182 0
M  V30 9846 H 937.277 -2.73541 2.64347 0
M  V30 9847 H 938.589 -3.73581 3.30513 0
M  V30 9848 H 937.743 -5.71704 2.03074 0
M  V30 9849 H 936.482 -4.71018 1.26465 0
M  V30 9850 H 935.487 -4.2252 3.51791 0
M  V30 9851 H 936.712 -5.26635 4.28757 0
M  V30 9852 H 934.658 -6.16832 2.2328 0
M  V30 9853 H 934.575 -6.45177 3.9406 0
M  V30 9854 H 935.843 -7.19083 3.00898 0
M  V30 9855 N 940.072 -1.23292 -0.981677 0
M  V30 9856 C 940.982 -1.02964 -2.10798 0
M  V30 9857 C 941.998 0.0254674 -1.73981 0
M  V30 9858 O 943.174 -0.169706 -2.00684 0
M  V30 9859 C 940.239 -0.621934 -3.41076 0
M  V30 9860 C 939.3 -1.75194 -3.91926 0
M  V30 9861 C 938.533 -1.36359 -5.15986 0
M  V30 9862 O 938.756 -0.247265 -5.69864 0
M  V30 9863 O 937.69 -2.18421 -5.60871 0
M  V30 9864 H 941.516 -1.97354 -2.30836 0
M  V30 9865 H 939.101 -1.01986 -1.09175 0
M  V30 9866 H 940.983 -0.405446 -4.19445 0
M  V30 9867 H 939.658 0.29299 -3.22371 0
M  V30 9868 H 938.565 -2.02305 -3.1468 0
M  V30 9869 H 939.898 -2.64513 -4.15083 0
M  V30 9870 N 941.55 1.18024 -1.04442 0
M  V30 9871 C 942.798 1.87727 -0.74854 0
M  V30 9872 C 943.119 1.80975 0.726156 0
M  V30 9873 O 942.389 1.23061 1.52423 0
M  V30 9874 H 940.969 0.694974 -0.273897 0
M  V30 9875 H 943.631 1.43213 -1.32197 0
M  V30 9876 H 942.727 2.93665 -1.05674 0
M  V30 9877 N 943.028 0.824394 1.34319 0
M  V30 9878 C 944.274 0.413779 1.98534 0
M  V30 9879 C 944.607 -1.02089 1.65201 0
M  V30 9880 O 943.882 -1.71129 0.924402 0
M  V30 9881 C 944.165 0.61801 3.54757 0
M  V30 9882 C 944.018 2.0989 3.97827 0
M  V30 9883 C 945.337 0.0549041 4.40066 0
M  V30 9884 H 942.456 0.151815 0.721194 0
M  V30 9885 H 945.098 1.03723 1.5919 0
M  V30 9886 H 943.248 0.0873107 3.88402 0
M  V30 9887 H 944.92 2.69335 3.74508 0
M  V30 9888 H 943.163 2.58881 3.48085 0
M  V30 9889 H 943.834 2.1926 5.06586 0
M  V30 9890 H 946.31 0.508348 4.12983 0
M  V30 9891 H 945.186 0.227595 5.48428 0
M  V30 9892 H 945.447 -1.04025 4.29687 0
M  V30 9893 N 944.506 -1.46559 0.579492 0
M  V30 9894 C 945.416 -2.34066 -0.15816 0
M  V30 9895 C 946.432 -1.49556 -0.88932 0
M  V30 9896 O 947.608 -1.82434 -0.853226 0
M  V30 9897 C 944.673 -3.26683 -1.161 0
M  V30 9898 C 943.734 -4.27092 -0.434855 0
M  V30 9899 C 942.967 -5.15283 -1.38992 0
M  V30 9900 O 943.19 -5.06345 -2.62623 0
M  V30 9901 O 942.124 -5.95099 -0.902253 0
M  V30 9902 H 945.95 -2.98488 0.560234 0
M  V30 9903 H 943.535 -1.45482 0.339918 0
M  V30 9904 H 945.417 -3.8383 -1.73932 0
M  V30 9905 H 944.092 -2.64862 -1.86091 0
M  V30 9906 H 942.999 -3.73641 0.185224 0
M  V30 9907 H 944.332 -4.9169 0.224031 0
M  V30 9908 N 945.984 -0.3171 -1.54377 0
M  V30 9909 C 947.231 0.28741 -2.0045 0
M  V30 9910 C 947.559 1.52648 -1.20535 0
M  V30 9911 O 946.814 1.93775 -0.273831 0
M  V30 9912 C 947.113 0.672917 -3.51008 0
M  V30 9913 C 946.779 -0.466245 -4.48483 0
M  V30 9914 C 945.441 -0.778933 -4.74854 0
M  V30 9915 C 947.793 -1.23176 -5.06436 0
M  V30 9916 C 945.121 -1.85997 -5.56437 0
M  V30 9917 C 947.473 -2.30284 -5.89196 0
M  V30 9918 C 946.137 -2.62141 -6.13872 0
M  V30 9919 H 945.407 0.105171 -0.733499 0
M  V30 9920 H 948.054 -0.439538 -1.86388 0
M  V30 9921 H 946.359 1.48019 -3.62764 0
M  V30 9922 H 948.056 1.15209 -3.84094 0
M  V30 9923 H 944.646 -0.212449 -4.28073 0
M  V30 9924 H 948.83 -1.00344 -4.8605 0
M  V30 9925 H 944.086 -2.11134 -5.73788 0
M  V30 9926 H 948.26 -2.90048 -6.33123 0
M  V30 9927 H 945.887 -3.46037 -6.76877 0
M  V30 9928 N 947.462 1.57535 -0.0451378 0
M  V30 9929 C 948.392 2.14208 0.929372 0
M  V30 9930 C 949.373 1.06221 1.32858 0
M  V30 9931 O 950.558 1.34132 1.40436 0
M  V30 9932 C 947.688 2.68217 2.20629 0
M  V30 9933 C 946.642 3.81134 1.94734 0
M  V30 9934 C 945.968 4.21636 3.28828 0
M  V30 9935 C 947.268 5.06531 1.27374 0
M  V30 9936 H 948.962 2.95886 0.457348 0
M  V30 9937 H 946.508 1.42332 0.218544 0
M  V30 9938 H 948.461 3.06502 2.89196 0
M  V30 9939 H 947.185 1.83722 2.70026 0
M  V30 9940 H 945.844 3.43312 1.28579 0
M  V30 9941 H 945.492 3.34099 3.76014 0
M  V30 9942 H 945.192 4.97736 3.12302 0
M  V30 9943 H 946.716 4.62516 3.98637 0
M  V30 9944 H 948.13 5.423 1.85967 0
M  V30 9945 H 946.527 5.87735 1.21194 0
M  V30 9946 H 947.597 4.84261 0.248913 0
M  V30 9947 N 948.94 -0.228186 1.55939 0
M  V30 9948 C 950.356 -0.577583 1.48782 0
M  V30 9949 C 950.556 -1.87461 0.738972 0
M  V30 9950 O 949.612 -2.50988 0.275929 0
M  V30 9951 C 950.925 -0.662961 2.93301 0
M  V30 9952 C 952.473 -0.754035 3.03782 0
M  V30 9953 C 952.948 -0.870815 4.49645 0
M  V30 9954 N 954.439 -0.935208 4.53661 0
M  V30 9955 C 955.174 -1.04516 5.63794 0
M  V30 9956 N 954.67 -1.11948 6.83696 0
M  V30 9957 N 956.463 -1.07978 5.51631 0
M  V30 9958 H 948.614 0.623018 2.03057 0
M  V30 9959 H 950.877 0.217692 0.922667 0
M  V30 9960 H 950.583 0.220375 3.51009 0
M  V30 9961 H 950.457 -1.52876 3.44831 0
M  V30 9962 H 952.844 -1.62782 2.46143 0
M  V30 9963 H 952.925 0.137301 2.55431 0
M  V30 9964 H 952.569 -0.0015186 5.079 0
M  V30 9965 H 952.499 -1.77747 4.95695 0
M  V30 9966 H 954.99 -0.88836 3.6731 0
M  V30 9967 H 955.303 -1.20297 7.6338 0
M  V30 9968 H 953.648 -1.08873 6.8642 0
M  V30 9969 H 956.839 -1.01833 4.56889 0
M  V30 9970 H 957.012 -1.16202 6.37496 0
M  V30 9971 N 950.418 -1.49637 -0.494624 0
M  V30 9972 C 951.695 -1.4995 -1.25596 0
M  V30 9973 C 952.075 -0.230805 -2.09834 0
M  V30 9974 O 951.423 0.786625 -2.14533 0
M  V30 9975 C 951.633 -2.78204 -2.10721 0
M  V30 9976 C 952.981 -3.27946 -2.69698 0
M  V30 9977 O 954.005 -2.79365 -2.20984 0
M  V30 9978 O 952.864 -4.12571 -3.58395 0
M  V30 9979 H 949.958 -0.60044 -0.568684 0
M  V30 9980 H 952.504 -1.61906 -0.508371 0
M  V30 9981 H 951.276 -3.62029 -1.48494 0
M  V30 9982 H 950.899 -2.69139 -2.92661 0
M  V30 9983 N 951.896 0.746133 -1.38819 0
M  V30 9984 C 953.144 1.50247 -1.35167 0
M  V30 9985 C 953.465 1.94921 0.0553531 0
M  V30 9986 O 952.735 1.68187 1.00449 0
M  V30 9987 H 951.315 0.557337 -0.497377 0
M  V30 9988 H 953.977 0.886472 -1.73573 0
M  V30 9989 H 953.073 2.38986 -2.00728 0
M  V30 9990 N 953.375 1.23811 0.975125 0
M  V30 9991 C 954.621 1.08502 1.72043 0
M  V30 9992 C 954.976 -0.373437 1.88741 0
M  V30 9993 O 954.269 -1.27248 1.43243 0
M  V30 9994 C 954.463 1.74994 3.11628 0
M  V30 9995 C 954.292 3.27155 3.08544 0
M  V30 9996 C 953.062 3.96338 3.1344 0
M  V30 9997 C 955.26 4.23851 2.91299 0
M  V30 9998 N 953.242 5.35439 3.00297 0
M  V30 9999 C 954.613 5.499 2.86375 0
M  V30 10000 C 956.668 4.14519 2.75824 0
M  V30 10001 C 955.371 6.67687 2.67558 0
M  V30 10002 C 957.397 5.31975 2.58372 0
M  V30 10003 C 956.759 6.56953 2.5415 0
M  V30 10004 H 952.858 0.451607 0.638416 0
M  V30 10005 H 955.442 1.56617 1.15669 0
M  V30 10006 H 953.613 1.29404 3.66209 0
M  V30 10007 H 955.345 1.52614 3.74822 0
M  V30 10008 H 952.1 3.47453 3.21828 0
M  V30 10009 H 952.524 6.08381 2.96987 0
M  V30 10010 H 957.166 3.18662 2.77874 0
M  V30 10011 H 954.884 7.63673 2.64251 0
M  V30 10012 H 958.47 5.266 2.47354 0
M  V30 10013 H 957.35 7.46309 2.40817 0
M  V30 10014 N 954.853 -1.17469 1.05066 0
M  V30 10015 C 955.763 -2.25089 0.661222 0
M  V30 10016 C 956.779 -1.71086 -0.31712 0
M  V30 10017 O 957.955 -2.00685 -0.169534 0
M  V30 10018 C 955.02 -3.46676 0.0406415 0
M  V30 10019 C 954.081 -4.15771 1.06927 0
M  V30 10020 C 953.314 -5.31553 0.478208 0
M  V30 10021 O 953.537 -5.6593 -0.712714 0
M  V30 10022 O 952.471 -5.89574 1.21185 0
M  V30 10023 H 956.297 -2.60685 1.5581 0
M  V30 10024 H 953.882 -1.24744 0.822147 0
M  V30 10025 H 955.764 -4.203 -0.304312 0
M  V30 10026 H 954.439 -3.1288 -0.829909 0
M  V30 10027 H 953.346 -3.44171 1.46619 0
M  V30 10028 H 954.679 -4.53591 1.91092 0
M  V30 10029 N 956.331 -0.831506 -1.3388 0
M  V30 10030 C 957.58 -0.420028 -1.97278 0
M  V30 10031 C 957.893 1.02441 -1.66629 0
M  V30 10032 O 959.099 1.54021 -2.23584 0
M  V30 10033 C 957.555 -0.700116 -3.53025 0
M  V30 10034 C 957.163 -2.15874 -3.92559 0
M  V30 10035 C 958.907 -0.355226 -4.23011 0
M  V30 10036 C 956.814 -2.38327 -5.41252 0
M  V30 10037 H 955.744 -0.153326 -0.738246 0
M  V30 10038 H 958.395 -1.01906 -1.52602 0
M  V30 10039 H 956.777 -0.0308044 -3.95988 0
M  V30 10040 H 957.951 -2.86792 -3.60675 0
M  V30 10041 H 956.266 -2.4659 -3.35533 0
M  V30 10042 H 958.863 -0.500701 -5.32351 0
M  V30 10043 H 959.206 0.70111 -4.10354 0
M  V30 10044 H 959.739 -0.979466 -3.85553 0
M  V30 10045 H 956.478 -3.42498 -5.58906 0
M  V30 10046 H 955.998 -1.71962 -5.74621 0
M  V30 10047 H 957.677 -2.21113 -6.08045 0
M  V30 10048 N 957.809 1.4625 -0.587256 0
M  V30 10049 C 959.055 2.02662 -0.0746851 0
M  V30 10050 C 959.388 1.45723 1.28368 0
M  V30 10051 O 958.663 0.624062 1.84216 0
M  V30 10052 C 958.946 3.60097 -0.0138109 0
M  V30 10053 C 958.799 4.27412 -1.4014 0
M  V30 10054 C 960.118 4.34744 0.684491 0
M  V30 10055 H 957.237 0.736444 -0.0286144 0
M  V30 10056 H 959.879 1.74341 -0.755328 0
M  V30 10057 H 958.029 3.84357 0.56583 0
M  V30 10058 H 959.701 4.14401 -2.02656 0
M  V30 10059 H 957.944 3.86598 -1.96785 0
M  V30 10060 H 958.615 5.362 -1.31124 0
M  V30 10061 H 961.091 4.15657 0.192023 0
M  V30 10062 H 959.967 5.44468 0.696127 0
M  V30 10063 H 960.228 4.06132 1.74669 0
M  V30 10064 N 959.287 0.325282 1.54207 0
M  V30 10065 C 960.234 -0.539889 2.24397 0
M  V30 10066 C 961.204 -1.11028 1.2354 0
M  V30 10067 O 962.389 -1.1503 1.52226 0
M  V30 10068 C 959.529 -1.69405 3.00659 0
M  V30 10069 C 958.642 -1.15273 4.16337 0
M  V30 10070 C 957.777 -2.27272 4.80126 0
M  V30 10071 C 956.816 -1.70397 5.87904 0
M  V30 10072 N 955.953 -2.76065 6.45548 0
M  V30 10073 H 960.793 0.0652318 2.97929 0
M  V30 10074 H 958.33 0.043964 1.47034 0
M  V30 10075 H 960.288 -2.37325 3.43122 0
M  V30 10076 H 958.918 -2.27043 2.29458 0
M  V30 10077 H 957.97 -0.365034 3.78645 0
M  V30 10078 H 959.282 -0.696576 4.93912 0
M  V30 10079 H 958.436 -3.03092 5.25566 0
M  V30 10080 H 957.175 -2.76224 4.01935 0
M  V30 10081 H 956.18 -0.930752 5.41864 0
M  V30 10082 H 957.405 -1.22319 6.67993 0
M  V30 10083 H 955.351 -3.24306 5.7023 0
M  V30 10084 H 955.268 -2.35018 7.18542 0
M  V30 10085 H 956.536 -3.5171 6.95644 0
M  V30 10086 N 960.765 -1.57509 0.0534917 0
M  V30 10087 C 962.012 -1.92782 -0.619772 0
M  V30 10088 C 962.34 -0.932046 -1.70714 0
M  V30 10089 O 961.595 0.0552891 -1.95622 0
M  V30 10090 C 961.894 -3.34734 -1.25251 0
M  V30 10091 C 961.56 -4.49946 -0.293113 0
M  V30 10092 C 960.222 -4.81191 -0.0291223 0
M  V30 10093 C 962.574 -5.19925 0.364271 0
M  V30 10094 C 959.902 -5.79761 0.899649 0
M  V30 10095 C 962.254 -6.19489 1.28125 0
M  V30 10096 C 960.918 -6.49161 1.55389 0
M  V30 10097 H 960.188 -0.705441 -0.226791 0
M  V30 10098 H 962.835 -1.91121 0.120466 0
M  V30 10099 H 961.14 -3.32774 -2.06807 0
M  V30 10100 H 962.837 -3.59308 -1.78042 0
M  V30 10101 H 959.427 -4.25566 -0.509053 0
M  V30 10102 H 963.611 -4.95997 0.173411 0
M  V30 10103 H 958.867 -6.01085 1.11833 0
M  V30 10104 H 963.041 -6.72824 1.79669 0
M  V30 10105 H 960.668 -7.25354 2.2752 0
M  V30 10106 N 962.243 0.219913 -1.56058 0
M  V30 10107 C 963.492 0.942119 -1.78345 0
M  V30 10108 C 963.805 1.85435 -0.622344 0
M  V30 10109 O 965.011 2.61533 -0.728886 0
M  V30 10110 C 963.467 1.72544 -3.15843 0
M  V30 10111 C 963.075 0.859263 -4.39682 0
M  V30 10112 C 964.819 2.43876 -3.47455 0
M  V30 10113 C 962.726 1.64003 -5.68205 0
M  V30 10114 H 961.656 0.355514 -0.664925 0
M  V30 10115 H 964.307 0.195963 -1.82451 0
M  V30 10116 H 962.689 2.51456 -3.05918 0
M  V30 10117 H 963.863 0.110562 -4.60667 0
M  V30 10118 H 962.178 0.257985 -4.156 0
M  V30 10119 H 964.775 3.02794 -4.40704 0
M  V30 10120 H 965.118 3.16843 -2.7003 0
M  V30 10121 H 965.651 1.71952 -3.58716 0
M  V30 10122 H 962.39 0.953606 -6.48526 0
M  V30 10123 H 961.91 2.3633 -5.51279 0
M  V30 10124 H 963.589 2.20028 -6.08438 0
M  V30 10125 N 963.721 1.49897 0.486681 0
M  V30 10126 C 964.946 1.64106 1.26823 0
M  V30 10127 C 965.371 0.317967 1.85393 0
M  V30 10128 O 964.729 -0.71626 1.66551 0
M  V30 10129 C 964.777 2.72301 2.36399 0
M  V30 10130 O 963.881 2.32469 3.40634 0
M  V30 10131 H 963.222 0.548794 0.373793 0
M  V30 10132 H 965.752 1.96177 0.581017 0
M  V30 10133 H 965.762 2.94906 2.81948 0
M  V30 10134 H 964.437 3.68335 1.93137 0
M  V30 10135 H 963.014 2.20251 3.00905 0
M  V30 10136 N 965.199 -0.738761 1.39212 0
M  V30 10137 C 966.427 -1.52801 1.39497 0
M  V30 10138 C 966.842 -1.88797 -0.0114917 0
M  V30 10139 O 966.199 -1.53835 -0.981887 0
M  V30 10140 C 966.25 -2.81793 2.2644 0
M  V30 10141 O 965.971 -2.47328 3.61608 0
M  V30 10142 C 967.472 -3.75844 2.35067 0
M  V30 10143 H 964.692 -0.472322 0.476606 0
M  V30 10144 H 967.236 -0.913153 1.8298 0
M  V30 10145 H 965.391 -3.3962 1.8638 0
M  V30 10146 H 965.805 -3.30162 4.07545 0
M  V30 10147 H 967.279 -4.6326 3.00157 0
M  V30 10148 H 967.756 -4.17329 1.3687 0
M  V30 10149 H 968.362 -3.23937 2.75581 0
M  V30 10150 N 966.677 -1.24326 -0.968545 0
M  V30 10151 C 967.917 -1.09434 -1.72637 0
M  V30 10152 C 968.281 0.360781 -1.8858 0
M  V30 10153 O 969.482 0.631188 -2.61284 0
M  V30 10154 C 967.753 -1.81285 -3.08011 0
M  V30 10155 S 969.312 -1.82113 -3.99225 0
M  V30 10156 H 966.13 -0.391409 -0.593565 0
M  V30 10157 H 968.732 -1.57643 -1.15624 0
M  V30 10158 H 967.436 -2.86274 -2.94067 0
M  V30 10159 H 966.967 -1.33405 -3.7009 0
M  V30 10160 H 968.982 -0.888196 -4.88186 0
M  V30 10161 N 968.156 1.1691 -1.05688 0
M  V30 10162 C 969.119 2.19297 -0.666433 0
M  V30 10163 C 970.119 1.5826 0.284674 0
M  V30 10164 O 971.309 1.74068 0.0678757 0
M  V30 10165 C 968.441 3.40894 0.0203656 0
M  V30 10166 H 969.634 2.55354 -1.57272 0
M  V30 10167 H 967.187 1.31078 -0.851359 0
M  V30 10168 H 967.922 3.10388 0.939686 0
M  V30 10169 H 967.707 3.86446 -0.663464 0
M  V30 10170 H 969.197 4.16664 0.279475 0
M  V30 10171 N 969.634 0.838594 1.33437 0
M  V30 10172 C 970.874 0.440239 1.99603 0
M  V30 10173 C 971.238 -0.982061 1.64984 0
M  V30 10174 O 972.439 -1.48413 2.24114 0
M  V30 10175 C 970.71 0.654201 3.51362 0
M  V30 10176 S 972.269 0.351025 4.37394 0
M  V30 10177 H 969.087 0.165608 0.691444 0
M  V30 10178 H 971.689 1.08782 1.6244 0
M  V30 10179 H 970.393 1.68873 3.74045 0
M  V30 10180 H 969.924 -0.00754449 3.93399 0
M  V30 10181 H 971.939 -0.829298 4.89221 0
M  V30 10182 N 971.112 -1.45937 0.595003 0
M  V30 10183 C 972.022 -2.34221 -0.133325 0
M  V30 10184 C 973.038 -1.50491 -0.873407 0
M  V30 10185 O 974.214 -1.83328 -0.833828 0
M  V30 10186 C 971.279 -3.27896 -1.12628 0
M  V30 10187 C 970.34 -4.27529 -0.389532 0
M  V30 10188 C 969.573 -5.16729 -1.33519 0
M  V30 10189 O 969.796 -5.09102 -2.57238 0
M  V30 10190 O 968.73 -5.96023 -0.839084 0
M  V30 10191 H 972.556 -2.97877 0.591861 0
M  V30 10192 H 970.141 -1.45113 0.355329 0
M  V30 10193 H 972.023 -3.85654 -1.69851 0
M  V30 10194 H 970.698 -2.6682 -1.83272 0
M  V30 10195 H 969.605 -3.73424 0.224843 0
M  V30 10196 H 970.938 -4.91425 0.276169 0
M  V30 10197 N 972.59 -0.333456 -1.54032 0
M  V30 10198 C 973.839 0.267081 -1.99924 0
M  V30 10199 C 974.152 1.52463 -1.22534 0
M  V30 10200 O 975.358 2.20178 -1.58852 0
M  V30 10201 C 973.814 0.526456 -3.56029 0
M  V30 10202 C 973.422 -0.714607 -4.42264 0
M  V30 10203 C 975.166 1.0864 -4.10363 0
M  V30 10204 C 973.073 -0.42659 -5.89859 0
M  V30 10205 H 972.003 0.103577 -0.746852 0
M  V30 10206 H 974.654 -0.447218 -1.77967 0
M  V30 10207 H 973.036 1.3012 -3.74012 0
M  V30 10208 H 974.21 -1.48968 -4.36056 0
M  V30 10209 H 972.525 -1.19547 -3.9887 0
M  V30 10210 H 975.122 1.31668 -5.18235 0
M  V30 10211 H 975.465 2.03884 -3.62956 0
M  V30 10212 H 975.998 0.37261 -3.96051 0
M  V30 10213 H 972.737 -1.34847 -6.4148 0
M  V30 10214 H 972.257 0.310588 -5.98995 0
M  V30 10215 H 973.936 -0.0400807 -6.46988 0
M  V30 10216 N 974.068 1.57479 -0.061844 0
M  V30 10217 C 975.314 1.93395 0.610443 0
M  V30 10218 C 975.647 0.941334 1.6986 0
M  V30 10219 O 974.922 -0.0310262 1.94475 0
M  V30 10220 C 975.205 3.39636 1.19664 0
M  V30 10221 C 975.058 4.49651 0.115805 0
M  V30 10222 C 976.377 3.86488 2.10512 0
M  V30 10223 H 973.496 0.703262 0.220436 0
M  V30 10224 H 976.138 1.89583 -0.125785 0
M  V30 10225 H 974.288 3.43015 1.82409 0
M  V30 10226 H 975.96 4.58397 -0.516728 0
M  V30 10227 H 974.203 4.30237 -0.55483 0
M  V30 10228 H 974.874 5.49089 0.566176 0
M  V30 10229 H 977.35 3.85052 1.57715 0
M  V30 10230 H 976.226 4.89444 2.48466 0
M  V30 10231 H 976.487 3.23856 3.00948 0
M  V30 10232 N 975.546 -0.211634 1.56173 0
M  V30 10233 C 976.794 -0.932704 1.7929 0
M  V30 10234 C 977.115 -1.84472 0.632076 0
M  V30 10235 O 976.385 -1.92739 -0.350519 0
M  V30 10236 H 974.965 -0.347393 0.661307 0
M  V30 10237 H 977.627 -0.22111 1.93642 0
M  V30 10238 H 976.723 -1.53365 2.71819 0
M  V30 10239 N 977.024 -1.50153 -0.478725 0
M  V30 10240 C 978.272 -1.60443 -1.22892 0
M  V30 10241 C 978.593 -0.303276 -1.92627 0
M  V30 10242 O 977.863 0.678798 -1.83764 0
M  V30 10243 H 976.443 -0.591205 -0.456602 0
M  V30 10244 H 979.105 -1.86893 -0.552905 0
M  V30 10245 H 978.201 -2.41175 -1.98094 0
M  V30 10246 N 978.502 0.731368 -1.39602 0
M  V30 10247 C 979.434 1.85575 -1.34516 0
M  V30 10248 C 980.447 1.60818 -0.253287 0
M  V30 10249 O 981.636 1.70984 -0.512505 0
M  V30 10250 C 978.736 3.21673 -1.06676 0
M  V30 10251 C 977.909 3.73757 -2.27211 0
M  V30 10252 C 976.968 4.88426 -1.95773 0
M  V30 10253 O 975.994 5.01898 -2.68491 0
M  V30 10254 N 977.196 5.73065 -0.926083 0
M  V30 10255 H 979.961 1.90442 -2.31413 0
M  V30 10256 H 977.522 0.912258 -1.33752 0
M  V30 10257 H 979.514 3.95959 -0.836577 0
M  V30 10258 H 978.084 3.12052 -0.185003 0
M  V30 10259 H 977.304 2.90781 -2.66158 0
M  V30 10260 H 978.592 4.05289 -3.07601 0
M  V30 10261 H 977.99 5.64774 -0.323497 0
M  V30 10262 H 976.547 6.47403 -0.755795 0
M  V30 10263 N 979.98 1.24838 0.961938 0
M  V30 10264 C 981.229 1.0855 1.69999 0
M  V30 10265 C 981.542 -0.374645 1.91979 0
M  V30 10266 O 982.748 -0.657822 2.6341 0
M  V30 10267 C 981.204 1.89424 3.06017 0
M  V30 10268 C 980.812 3.39885 2.9186 0
M  V30 10269 C 982.556 1.81684 3.83655 0
M  V30 10270 C 980.463 4.13082 4.23223 0
M  V30 10271 H 979.393 0.402603 0.637516 0
M  V30 10272 H 982.044 1.4897 1.07146 0
M  V30 10273 H 980.426 1.41823 3.69733 0
M  V30 10274 H 981.6 3.95108 2.37121 0
M  V30 10275 H 979.915 3.4864 2.27683 0
M  V30 10276 H 982.512 2.3367 4.80939 0
M  V30 10277 H 982.855 0.783247 4.08865 0
M  V30 10278 H 983.388 2.26997 3.26676 0
M  V30 10279 H 980.127 5.16824 4.03204 0
M  V30 10280 H 979.647 3.62644 4.77755 0
M  V30 10281 H 981.326 4.20397 4.91808 0
M  V30 10282 N 981.458 -1.16348 1.06306 0
M  V30 10283 C 982.704 -1.87158 0.781007 0
M  V30 10284 C 983.037 -1.81499 -0.690784 0
M  V30 10285 O 982.312 -1.23074 -1.50609 0
M  V30 10286 C 982.595 -3.3672 1.27639 0
M  V30 10287 C 982.448 -3.51069 2.81194 0
M  V30 10288 C 983.767 -4.31122 0.884388 0
M  V30 10289 H 980.886 -0.679586 0.285187 0
M  V30 10290 H 983.528 -1.36756 1.31901 0
M  V30 10291 H 981.678 -3.79775 0.818715 0
M  V30 10292 H 983.35 -3.16952 3.35171 0
M  V30 10293 H 981.593 -2.92976 3.19918 0
M  V30 10294 H 982.264 -4.56105 3.10921 0
M  V30 10295 H 984.74 -3.95969 1.27858 0
M  V30 10296 H 983.616 -5.34279 1.25847 0
M  V30 10297 H 983.877 -4.41598 -0.210673 0
M  V30 10298 N 982.937 -0.845659 -1.3299 0
M  V30 10299 C 984.165 -0.45835 -2.01759 0
M  V30 10300 C 984.58 0.94239 -1.63598 0
M  V30 10301 O 983.937 1.61353 -0.852738 0
M  V30 10302 C 983.988 -0.577311 -3.5686 0
M  V30 10303 O 983.709 -1.92287 -3.93646 0
M  V30 10304 C 985.21 -0.187839 -4.42902 0
M  V30 10305 H 982.43 -0.181165 -0.646081 0
M  V30 10306 H 984.974 -1.14011 -1.6977 0
M  V30 10307 H 983.129 0.0566146 -3.87359 0
M  V30 10308 H 983.543 -1.91322 -4.88361 0
M  V30 10309 H 985.017 -0.322105 -5.51059 0
M  V30 10310 H 985.494 0.870896 -4.30479 0
M  V30 10311 H 986.1 -0.796473 -4.17776 0
M  V30 10312 N 984.415 1.45619 -0.602734 0
M  V30 10313 C 985.655 2.0416 -0.0989764 0
M  V30 10314 C 986.019 1.4616 1.24504 0
M  V30 10315 O 987.22 1.96025 1.83923 0
M  V30 10316 C 985.491 3.57357 -0.0551869 0
M  V30 10317 S 987.05 4.3708 0.388086 0
M  V30 10318 H 983.868 0.709431 -0.0472054 0
M  V30 10319 H 986.47 1.78394 -0.799745 0
M  V30 10320 H 985.174 3.97083 -1.03697 0
M  V30 10321 H 984.705 3.87692 0.667727 0
M  V30 10322 H 986.72 4.68362 1.63865 0
M  V30 10323 N 985.893 0.34162 1.53853 0
M  V30 10324 C 986.856 -0.503541 2.236 0
M  V30 10325 C 987.856 -1.02912 1.23554 0
M  V30 10326 O 989.046 -0.918678 1.48007 0
M  V30 10327 C 986.178 -1.70126 2.95415 0
M  V30 10328 H 987.371 0.106437 2.99711 0
M  V30 10329 H 984.924 0.0929408 1.56023 0
M  V30 10330 H 985.659 -2.34999 2.23486 0
M  V30 10331 H 985.444 -1.33161 3.68796 0
M  V30 10332 H 986.934 -2.30077 3.48503 0
M  V30 10333 N 987.371 -1.57444 0.0701946 0
M  V30 10334 C 988.318 -2.12631 -0.897599 0
M  V30 10335 C 989.288 -1.03841 -1.29639 0
M  V30 10336 O 990.473 -1.31495 -1.38253 0
M  V30 10337 C 987.613 -2.6911 -2.16041 0
M  V30 10338 C 986.726 -3.9205 -1.8144 0
M  V30 10339 C 985.861 -4.36778 -3.02321 0
M  V30 10340 C 984.9 -5.52371 -2.63729 0
M  V30 10341 N 984.037 -5.92065 -3.77364 0
M  V30 10342 H 988.877 -2.95024 -0.420104 0
M  V30 10343 H 986.414 -1.45792 -0.195716 0
M  V30 10344 H 988.372 -2.99963 -2.89962 0
M  V30 10345 H 987.002 -1.89484 -2.61334 0
M  V30 10346 H 986.054 -3.67669 -0.975896 0
M  V30 10347 H 987.366 -4.76011 -1.49046 0
M  V30 10348 H 986.52 -4.69285 -3.84521 0
M  V30 10349 H 985.259 -3.51668 -3.37907 0
M  V30 10350 H 984.264 -5.19517 -1.7995 0
M  V30 10351 H 985.489 -6.39212 -2.29315 0
M  V30 10352 H 983.435 -5.09904 -4.12715 0
M  V30 10353 H 983.352 -6.70762 -3.48733 0
M  V30 10354 H 984.62 -6.29193 -4.60148 0
M  V30 10355 N 988.849 0.203349 -1.56283 0
M  V30 10356 C 989.759 1.27266 -1.9708 0
M  V30 10357 C 990.775 1.50268 -0.877236 0
M  V30 10358 O 991.951 1.63044 -1.18231 0
M  V30 10359 C 989.016 2.59871 -2.29495 0
M  V30 10360 C 988.077 2.45012 -3.52516 0
M  V30 10361 C 987.31 3.71293 -3.83376 0
M  V30 10362 O 987.533 4.75106 -3.15643 0
M  V30 10363 O 986.467 3.67316 -4.76826 0
M  V30 10364 H 990.293 0.956461 -2.88246 0
M  V30 10365 H 987.878 0.407688 -1.4373 0
M  V30 10366 H 989.76 3.38152 -2.51458 0
M  V30 10367 H 988.435 2.91135 -1.415 0
M  V30 10368 H 987.342 1.6487 -3.35811 0
M  V30 10369 H 988.675 2.18683 -4.40952 0
M  V30 10370 N 990.327 1.50405 0.470755 0
M  V30 10371 C 991.576 1.60652 1.21959 0
M  V30 10372 C 991.889 0.312521 1.93087 0
M  V30 10373 O 993.095 0.293901 2.69905 0
M  V30 10374 C 991.551 2.83581 2.21607 0
M  V30 10375 C 991.159 4.19858 1.5628 0
M  V30 10376 C 992.903 3.03173 2.9713 0
M  V30 10377 C 990.81 5.33974 2.54217 0
M  V30 10378 H 989.74 0.598264 0.458907 0
M  V30 10379 H 992.391 1.76836 0.490041 0
M  V30 10380 H 990.773 2.60957 2.97855 0
M  V30 10381 H 991.947 4.52738 0.85819 0
M  V30 10382 H 990.262 4.05873 0.930366 0
M  V30 10383 H 992.859 3.856 3.70428 0
M  V30 10384 H 993.202 2.14914 3.56536 0
M  V30 10385 H 993.735 3.2598 2.27995 0
M  V30 10386 H 990.474 6.24388 1.99549 0
M  V30 10387 H 989.994 5.05511 3.22829 0
M  V30 10388 H 991.673 5.64561 3.16039 0
M  V30 10389 N 991.805 -0.723954 1.39988 0
M  V30 10390 C 992.752 -1.83803 1.39589 0
M  V30 10391 C 993.722 -1.64146 0.253996 0
M  V30 10392 O 994.907 -1.85398 0.450793 0
M  V30 10393 C 992.047 -3.21431 1.25604 0
M  V30 10394 C 991.16 -3.52717 2.49429 0
M  V30 10395 C 990.295 -4.79805 2.27949 0
M  V30 10396 C 989.334 -5.03968 3.47394 0
M  V30 10397 N 988.471 -6.22266 3.25161 0
M  V30 10398 H 993.311 -1.83479 2.34818 0
M  V30 10399 H 990.848 -0.896396 1.16633 0
M  V30 10400 H 992.806 -4.00892 1.15504 0
M  V30 10401 H 991.436 -3.21005 0.339986 0
M  V30 10402 H 990.488 -2.67872 2.7009 0
M  V30 10403 H 991.8 -3.66486 3.38363 0
M  V30 10404 H 990.954 -5.67268 2.15155 0
M  V30 10405 H 989.693 -4.68229 1.36428 0
M  V30 10406 H 988.698 -4.14963 3.60674 0
M  V30 10407 H 989.923 -5.17422 4.39831 0
M  V30 10408 H 987.869 -6.11957 2.36314 0
M  V30 10409 H 987.786 -6.36673 4.07656 0
M  V30 10410 H 989.054 -7.12539 3.16083 0
M  V30 10411 N 993.283 -1.25346 -0.955304 0
M  V30 10412 C 994.193 -1.07412 -2.08566 0
M  V30 10413 C 995.209 -0.0114424 -1.73996 0
M  V30 10414 O 996.385 -0.212236 -2.00279 0
M  V30 10415 C 993.45 -0.694141 -3.3968 0
M  V30 10416 C 992.511 -1.83468 -3.88121 0
M  V30 10417 C 991.744 -1.47274 -5.12978 0
M  V30 10418 O 991.967 -0.368086 -5.69211 0
M  V30 10419 O 990.901 -2.30269 -5.56111 0
M  V30 10420 H 994.727 -2.02206 -2.26598 0
M  V30 10421 H 992.312 -1.04279 -1.06988 0
M  V30 10422 H 994.194 -0.494325 -4.18491 0
M  V30 10423 H 992.869 0.224545 -3.2292 0
M  V30 10424 H 991.776 -2.08935 -3.10318 0
M  V30 10425 H 993.109 -2.73258 -4.09379 0
M  V30 10426 N 994.761 1.15782 -1.06922 0
M  V30 10427 C 995.986 1.90896 -0.810771 0
M  V30 10428 C 996.411 1.77246 0.629714 0
M  V30 10429 O 995.769 1.10215 1.43953 0
M  V30 10430 C 995.817 3.39397 -1.21829 0
M  V30 10431 O 994.921 4.10818 -0.360934 0
M  V30 10432 H 994.262 0.594497 -0.295752 0
M  V30 10433 H 996.792 1.46652 -1.42669 0
M  V30 10434 H 996.802 3.90181 -1.19259 0
M  V30 10435 H 995.477 3.4865 -2.2675 0
M  V30 10436 H 994.054 3.7019 -0.448748 0
M  V30 10437 N 996.239 0.8527 1.3254 0
M  V30 10438 C 997.485 0.455798 1.97612 0
M  V30 10439 C 997.818 -0.985616 1.6733 0
M  V30 10440 O 997.093 -1.69129 0.960493 0
M  V30 10441 C 997.376 0.69312 3.53366 0
M  V30 10442 C 997.229 2.18281 3.93285 0
M  V30 10443 C 998.548 0.148236 4.3985 0
M  V30 10444 H 995.667 0.167078 0.717812 0
M  V30 10445 H 998.309 1.07076 1.56954 0
M  V30 10446 H 996.459 0.169677 3.88129 0
M  V30 10447 H 998.131 2.77218 3.68711 0
M  V30 10448 H 996.374 2.66206 3.42515 0
M  V30 10449 H 997.045 2.29957 5.01821 0
M  V30 10450 H 999.521 0.595834 4.11812 0
M  V30 10451 H 998.397 0.343873 5.47822 0
M  V30 10452 H 998.658 -0.948872 4.31797 0
M  V30 10453 N 997.718 -1.45297 0.610449 0
M  V30 10454 C 998.65 -2.28742 -0.144884 0
M  V30 10455 C 999.663 -1.40114 -0.828977 0
M  V30 10456 O 1000.85 -1.64461 -0.693887 0
M  V30 10457 C 997.952 -3.15934 -1.22632 0
M  V30 10458 C 997.125 -4.32857 -0.628785 0
M  V30 10459 C 996.184 -5.01237 -1.60148 0
M  V30 10460 O 995.21 -5.57938 -1.12667 0
M  V30 10461 N 996.412 -5.00785 -2.9359 0
M  V30 10462 H 999.177 -2.94207 0.571145 0
M  V30 10463 H 996.738 -1.55517 0.450134 0
M  V30 10464 H 998.73 -3.58545 -1.87691 0
M  V30 10465 H 997.3 -2.52358 -1.84483 0
M  V30 10466 H 996.52 -3.93693 0.199951 0
M  V30 10467 H 997.808 -5.08367 -0.209845 0
M  V30 10468 H 997.206 -4.56014 -3.34765 0
M  V30 10469 H 995.763 -5.4725 -3.54064 0
M  V30 10470 N 999.196 -0.349774 -1.5367 0
M  V30 10471 C 1000.42 0.246038 -2.05432 0
M  V30 10472 C 1000.84 1.43719 -1.22435 0
M  V30 10473 O 1000.2 1.80622 -0.261166 0
M  V30 10474 C 1000.25 0.65501 -3.55516 0
M  V30 10475 O 999.968 -0.488782 -4.35365 0
M  V30 10476 C 1001.47 1.31088 -4.23475 0
M  V30 10477 H 998.689 0.0463952 -0.669394 0
M  V30 10478 H 1001.23 -0.503566 -1.98203 0
M  V30 10479 H 999.388 1.35455 -3.62947 0
M  V30 10480 H 999.802 -0.161528 -5.24251 0
M  V30 10481 H 1001.28 1.54774 -5.29857 0
M  V30 10482 H 1001.75 2.26636 -3.76208 0
M  V30 10483 H 1002.36 0.653211 -4.20254 0
M  V30 10484 N 1000.67 1.57404 -0.0785433 0
M  V30 10485 C 1001.92 1.93744 0.589024 0
M  V30 10486 C 1002.25 0.959087 1.69209 0
M  V30 10487 O 1001.5 -0.0241604 1.95685 0
M  V30 10488 C 1001.8 3.36684 1.1991 0
M  V30 10489 C 1001.47 4.50356 0.221493 0
M  V30 10490 C 1000.13 4.81177 -0.0474347 0
M  V30 10491 C 1002.48 5.1928 -0.446941 0
M  V30 10492 C 999.811 5.78257 -0.99177 0
M  V30 10493 C 1002.16 6.17372 -1.37964 0
M  V30 10494 C 1000.83 6.46607 -1.65697 0
M  V30 10495 H 1000.1 0.70896 0.215539 0
M  V30 10496 H 1002.74 1.90905 -0.150856 0
M  V30 10497 H 1001.05 3.36022 2.01486 0
M  V30 10498 H 1002.75 3.62095 1.72303 0
M  V30 10499 H 999.336 4.26322 0.441284 0
M  V30 10500 H 1003.52 4.95658 -0.252298 0
M  V30 10501 H 998.776 5.9923 -1.21381 0
M  V30 10502 H 1002.95 6.6988 -1.9035 0
M  V30 10503 H 1000.58 7.21643 -2.39031 0
M  V30 10504 N 1002.15 -0.195058 1.56388 0
M  V30 10505 C 1003.4 -0.915444 1.80626 0
M  V30 10506 C 1003.73 -1.83255 0.651768 0
M  V30 10507 O 1002.98 -1.92314 -0.362464 0
M  V30 10508 C 1003.28 -1.7637 3.10851 0
M  V30 10509 C 1002.95 -0.997572 4.39726 0
M  V30 10510 C 1001.61 -0.786043 4.74737 0
M  V30 10511 C 1003.96 -0.45851 5.19179 0
M  V30 10512 C 1001.29 -0.023972 5.86695 0
M  V30 10513 C 1003.64 0.29035 6.31933 0
M  V30 10514 C 1002.3 0.512895 6.65527 0
M  V30 10515 H 1001.57 -0.334985 0.660959 0
M  V30 10516 H 1004.22 -0.181815 1.90635 0
M  V30 10517 H 1002.53 -2.566 2.9608 0
M  V30 10518 H 1004.22 -2.3237 3.26811 0
M  V30 10519 H 1000.81 -1.17245 4.12252 0
M  V30 10520 H 1005 -0.609334 4.92545 0
M  V30 10521 H 1000.25 0.158421 6.11195 0
M  V30 10522 H 1004.43 0.715429 6.92715 0
M  V30 10523 H 1002.05 1.10531 7.52122 0
M  V30 10524 N 1003.63 -1.50653 -0.462772 0
M  V30 10525 C 1004.58 -1.70122 -1.55971 0
M  V30 10526 C 1005.55 -0.542581 -1.56988 0
M  V30 10527 O 1006.73 -0.774114 -1.74391 0
M  V30 10528 C 1003.87 -1.80899 -2.93887 0
M  V30 10529 C 1002.98 -3.08318 -3.02595 0
M  V30 10530 C 1002.12 -3.09841 -4.31477 0
M  V30 10531 C 1001.16 -4.3168 -4.33957 0
M  V30 10532 N 1000.3 -4.30894 -5.54323 0
M  V30 10533 H 1005.14 -2.63768 -1.38674 0
M  V30 10534 H 1002.67 -1.30746 -0.674091 0
M  V30 10535 H 1004.63 -1.85128 -3.73876 0
M  V30 10536 H 1003.26 -0.906854 -3.098 0
M  V30 10537 H 1002.31 -3.13521 -2.15427 0
M  V30 10538 H 1003.62 -3.98282 -3.00288 0
M  V30 10539 H 1002.78 -3.12845 -5.1982 0
M  V30 10540 H 1001.52 -2.17722 -4.36404 0
M  V30 10541 H 1000.52 -4.28879 -3.4401 0
M  V30 10542 H 1001.75 -5.25035 -4.30715 0
M  V30 10543 H 999.694 -3.41633 -5.6002 0
M  V30 10544 H 999.611 -5.14636 -5.53792 0
M  V30 10545 H 1000.88 -4.38056 -6.44769 0
M  V30 10546 N 1005.11 0.71652 -1.4037 0
M  V30 10547 C 1006.04 1.84345 -1.43315 0
M  V30 10548 C 1007.02 1.67537 -0.294186 0
M  V30 10549 O 1008.2 1.87582 -0.502671 0
M  V30 10550 C 1005.33 3.2229 -1.29408 0
M  V30 10551 C 1004.29 3.53769 -2.40897 0
M  V30 10552 C 1003.61 4.90847 -2.12068 0
M  V30 10553 C 1004.91 3.54862 -3.83237 0
M  V30 10554 H 1006.61 1.82138 -2.37626 0
M  V30 10555 H 1004.15 0.874873 -1.14376 0
M  V30 10556 H 1006.11 4.00819 -1.30085 0
M  V30 10557 H 1004.83 3.2507 -0.31573 0
M  V30 10558 H 1003.49 2.77579 -2.39469 0
M  V30 10559 H 1003.14 4.90229 -1.12626 0
M  V30 10560 H 1002.84 5.12875 -2.86762 0
M  V30 10561 H 1004.36 5.71711 -2.14426 0
M  V30 10562 H 1005.78 4.23432 -3.86494 0
M  V30 10563 H 1004.17 3.88416 -4.57442 0
M  V30 10564 H 1005.24 2.54266 -4.12888 0
M  V30 10565 N 1006.59 1.25851 0.948643 0
M  V30 10566 C 1007.83 1.11119 1.69648 0
M  V30 10567 C 1008.17 -0.345995 1.91093 0
M  V30 10568 O 1007.44 -1.25467 1.48621 0
M  V30 10569 C 1007.72 1.87261 3.0758 0
M  V30 10570 C 1007.58 3.40842 2.93507 0
M  V30 10571 C 1008.9 1.6605 4.07573 0
M  V30 10572 H 1006.01 0.405052 0.615713 0
M  V30 10573 H 1008.66 1.54756 1.10229 0
M  V30 10574 H 1006.81 1.50172 3.58303 0
M  V30 10575 H 1008.48 3.87641 2.50064 0
M  V30 10576 H 1006.72 3.68248 2.29294 0
M  V30 10577 H 1007.39 3.89339 3.91305 0
M  V30 10578 H 1009.87 1.98348 3.65783 0
M  V30 10579 H 1008.74 2.21753 5.02113 0
M  V30 10580 H 1009.01 0.603256 4.37965 0
M  V30 10581 N 1008.06 -1.15214 1.07534 0
M  V30 10582 C 1009.01 -2.22078 0.69168 0
M  V30 10583 C 1010.01 -1.66751 -0.298382 0
M  V30 10584 O 1011.21 -1.7927 -0.161897 0
M  V30 10585 H 1007.59 -0.723347 0.205604 0
M  V30 10586 H 1009.56 -2.51716 1.60256 0
M  V30 10587 C 1008.31 -3.47534 0.107546 0
M  V30 10588 H 1007.63 -3.90429 0.860522 0
M  V30 10589 H 1009.07 -4.23821 -0.123215 0
M  V30 10590 C 1007.53 -3.16583 -1.15226 0
M  V30 10591 O 1008.06 -3.33551 -2.23845 0
M  V30 10592 N 1006.27 -2.70611 -1.05915 0
M  V30 10593 H 1005.81 -2.57004 -0.175198 0
M  V30 10594 H 1005.77 -2.50277 -1.90287 0
M  V30 10595 N 1009.54 -0.859717 -1.32086 0
M  V30 10596 C 1010.49 -0.306042 -2.28762 0
M  V30 10597 C 1011.46 0.589801 -1.55276 0
M  V30 10598 O 1012.64 0.523633 -1.83474 0
M  V30 10599 C 1009.78 0.495256 -3.41528 0
M  V30 10600 C 1008.9 -0.426947 -4.29885 0
M  V30 10601 C 1008.03 0.387474 -5.29785 0
M  V30 10602 C 1007.07 -0.531807 -6.09785 0
M  V30 10603 N 1006.21 0.245741 -7.0167 0
M  V30 10604 H 1011.05 -1.1357 -2.7551 0
M  V30 10605 H 1008.59 -0.571468 -1.35546 0
M  V30 10606 H 1010.54 0.97551 -4.05635 0
M  V30 10607 H 1009.17 1.28969 -2.95917 0
M  V30 10608 H 1008.23 -1.02561 -3.66313 0
M  V30 10609 H 1009.54 -1.13226 -4.85779 0
M  V30 10610 H 1008.69 0.930677 -5.99519 0
M  V30 10611 H 1007.43 1.12612 -4.74521 0
M  V30 10612 H 1006.44 -1.08685 -5.3895 0
M  V30 10613 H 1007.66 -1.26915 -6.67135 0
M  V30 10614 H 1005.61 0.967391 -6.48828 0
M  V30 10615 H 1005.52 -0.400432 -7.54939 0
M  V30 10616 H 1006.79 0.770507 -7.75683 0
M  V30 10617 N 1011.02 1.44971 -0.618145 0
M  V30 10618 C 1012.27 2.02159 -0.117482 0
M  V30 10619 C 1012.6 1.48517 1.2559 0
M  V30 10620 O 1011.85 0.654192 1.84442 0
M  V30 10621 C 1012.15 3.57378 -0.0394861 0
M  V30 10622 C 1011.82 4.30218 -1.34993 0
M  V30 10623 C 1010.48 4.49835 -1.70886 0
M  V30 10624 C 1012.83 4.71768 -2.21551 0
M  V30 10625 C 1010.16 5.08258 -2.9307 0
M  V30 10626 C 1012.51 5.31543 -3.42993 0
M  V30 10627 C 1011.17 5.49381 -3.79126 0
M  V30 10628 H 1010.44 0.739752 -0.0429897 0
M  V30 10629 H 1013.09 1.73903 -0.801871 0
M  V30 10630 H 1011.4 3.84973 0.728217 0
M  V30 10631 H 1013.09 3.99343 0.364213 0
M  V30 10632 H 1009.68 4.15271 -1.06057 0
M  V30 10633 H 1013.87 4.56336 -1.95117 0
M  V30 10634 H 1009.12 5.20257 -3.21158 0
M  V30 10635 H 1013.3 5.62691 -4.10308 0
M  V30 10636 H 1010.92 5.94419 -4.73888 0
M  V30 10637 N 1012.5 0.357919 1.53482 0
M  V30 10638 C 1013.43 -0.484231 2.28424 0
M  V30 10639 C 1014.41 -1.09046 1.30548 0
M  V30 10640 O 1015.59 -1.10916 1.59409 0
M  V30 10641 C 1012.72 -1.62803 3.06778 0
M  V30 10642 C 1011.68 -1.14943 4.12277 0
M  V30 10643 C 1011 -2.38287 4.78669 0
M  V30 10644 C 1012.3 -0.239627 5.2175 0
M  V30 10645 H 1014 0.140979 2.99068 0
M  V30 10646 H 1011.54 0.069244 1.43833 0
M  V30 10647 H 1013.5 -2.22374 3.57949 0
M  V30 10648 H 1012.22 -2.28036 2.3381 0
M  V30 10649 H 1010.88 -0.576442 3.6204 0
M  V30 10650 H 1010.53 -3.01959 4.02281 0
M  V30 10651 H 1010.23 -2.06939 5.49955 0
M  V30 10652 H 1011.75 -2.98558 5.32631 0
M  V30 10653 H 1013.17 -0.742597 5.6847 0
M  V30 10654 H 1011.56 -0.0173747 6.00097 0
M  V30 10655 H 1012.63 0.720333 4.7952 0
M  V30 10656 N 1013.98 -1.5736 0.0868897 0
M  V30 10657 C 1014.94 -2.12436 -0.860439 0
M  V30 10658 C 1015.94 -1.05175 -1.21634 0
M  V30 10659 O 1017.13 -1.31098 -1.14713 0
M  V30 10660 C 1014.26 -2.63818 -2.159 0
M  V30 10661 H 1015.45 -2.97453 -0.382346 0
M  V30 10662 H 1013.01 -1.55458 -0.162009 0
M  V30 10663 H 1013.74 -1.82298 -2.68212 0
M  V30 10664 H 1013.53 -3.42234 -1.91359 0
M  V30 10665 H 1015.02 -3.06452 -2.83685 0
M  V30 10666 N 1015.45 0.186762 -1.56489 0
M  V30 10667 C 1016.38 1.23395 -1.98232 0
M  V30 10668 C 1017.37 1.4702 -0.855526 0
M  V30 10669 O 1018.55 1.58616 -1.12048 0
M  V30 10670 C 1015.68 2.57635 -2.32898 0
M  V30 10671 C 1014.63 2.48607 -3.48394 0
M  V30 10672 C 1013.96 3.87196 -3.68759 0
M  V30 10673 C 1015.26 2.00398 -4.82325 0
M  V30 10674 H 1016.95 0.887026 -2.85958 0
M  V30 10675 H 1014.5 0.42525 -1.37578 0
M  V30 10676 H 1016.45 3.31082 -2.60696 0
M  V30 10677 H 1015.18 2.94084 -1.42064 0
M  V30 10678 H 1013.84 1.77615 -3.207 0
M  V30 10679 H 1013.48 4.21012 -2.75241 0
M  V30 10680 H 1013.18 3.82029 -4.46462 0
M  V30 10681 H 1014.71 4.62253 -3.98941 0
M  V30 10682 H 1016.12 2.6361 -5.091 0
M  V30 10683 H 1014.52 2.06214 -5.63556 0
M  V30 10684 H 1015.59 0.957562 -4.75351 0
M  V30 10685 N 1016.93 1.50896 0.454776 0
M  V30 10686 C 1018.17 1.64347 1.21529 0
M  V30 10687 C 1018.54 0.343869 1.88896 0
M  V30 10688 O 1019.74 0.353973 2.66459 0
M  V30 10689 C 1018.01 2.80199 2.21864 0
M  V30 10690 S 1019.57 3.13879 3.06636 0
M  V30 10691 H 1016.39 0.579193 0.412379 0
M  V30 10692 H 1018.99 1.88741 0.509629 0
M  V30 10693 H 1017.69 3.73086 1.70982 0
M  V30 10694 H 1017.22 2.57941 2.97036 0
M  V30 10695 H 1019.24 2.58964 4.23264 0
M  V30 10696 N 1018.41 -0.709066 1.40748 0
M  V30 10697 C 1019.37 -1.80485 1.41272 0
M  V30 10698 C 1020.37 -1.57872 0.305463 0
M  V30 10699 O 1021.56 -1.64793 0.564691 0
M  V30 10700 C 1018.7 -3.1867 1.21087 0
M  V30 10701 H 1019.89 -1.81417 2.38805 0
M  V30 10702 H 1017.44 -0.915356 1.26692 0
M  V30 10703 H 1018.18 -3.23385 0.243406 0
M  V30 10704 H 1017.96 -3.36484 2.01299 0
M  V30 10705 H 1019.45 -3.98685 1.24257 0
M  V30 10706 N 1019.89 -1.26353 -0.941956 0
M  V30 10707 C 1021.17 -1.02601 -1.6653 0
M  V30 10708 C 1021.55 0.44381 -2.06382 0
M  V30 10709 O 1020.89 1.42399 -1.78703 0
M  V30 10710 C 1021.1 -1.97401 -2.87809 0
M  V30 10711 C 1022.45 -2.25967 -3.59478 0
M  V30 10712 O 1023.48 -1.95261 -2.97912 0
M  V30 10713 O 1022.34 -2.78244 -4.70364 0
M  V30 10714 H 1019.43 -0.39007 -0.729228 0
M  V30 10715 H 1021.98 -1.37559 -0.993754 0
M  V30 10716 H 1020.75 -2.9659 -2.55245 0
M  V30 10717 H 1020.37 -1.62918 -3.62689 0
M  V30 10718 N 1021.37 1.14642 -1.08144 0
M  V30 10719 C 1022.59 1.90025 -0.830972 0
M  V30 10720 C 1023.02 1.77904 0.610879 0
M  V30 10721 O 1022.38 1.11735 1.42776 0
M  V30 10722 C 1022.42 3.38085 -1.25422 0
M  V30 10723 O 1021.53 4.10412 -0.404486 0
M  V30 10724 H 1020.87 0.591327 -0.302041 0
M  V30 10725 H 1023.4 1.4513 -1.44216 0
M  V30 10726 H 1023.41 3.88894 -1.23391 0
M  V30 10727 H 1022.08 3.46226 -2.30435 0
M  V30 10728 H 1020.66 3.69693 -0.487987 0
M  V30 10729 N 1022.85 0.866709 1.31628 0
M  V30 10730 C 1024.09 0.472185 1.96095 0
M  V30 10731 C 1024.41 -0.979873 1.69286 0
M  V30 10732 O 1025.61 -1.48039 2.27589 0
M  V30 10733 C 1024.07 0.793468 3.51044 0
M  V30 10734 C 1023.68 2.26206 3.86697 0
M  V30 10735 C 1025.42 0.467255 4.21921 0
M  V30 10736 C 1023.33 2.52593 5.34743 0
M  V30 10737 H 1022.26 0.172846 0.733921 0
M  V30 10738 H 1024.91 1.05916 1.49847 0
M  V30 10739 H 1023.29 0.135783 3.95767 0
M  V30 10740 H 1024.47 2.96254 3.52945 0
M  V30 10741 H 1022.78 2.55399 3.28877 0
M  V30 10742 H 1025.38 0.641669 5.30836 0
M  V30 10743 H 1025.72 -0.592065 4.12068 0
M  V30 10744 H 1026.25 1.08134 3.82821 0
M  V30 10745 H 1022.99 3.57196 5.49628 0
M  V30 10746 H 1022.51 1.87136 5.6986 0
M  V30 10747 H 1024.19 2.37156 6.01968 0
M  V30 10748 N 1024.32 -1.44642 0.625825 0
M  V30 10749 C 1025.57 -2.01308 0.125682 0
M  V30 10750 C 1025.89 -1.49773 -1.25807 0
M  V30 10751 O 1027.09 -1.98533 -1.85194 0
M  V30 10752 C 1025.55 -3.59479 0.17395 0
M  V30 10753 C 1025.16 -4.20011 1.55868 0
M  V30 10754 C 1026.9 -4.2364 -0.270005 0
M  V30 10755 C 1024.81 -5.7039 1.56235 0
M  V30 10756 H 1023.74 -0.75276 0.0432194 0
M  V30 10757 H 1026.39 -1.65916 0.783842 0
M  V30 10758 H 1024.77 -3.92145 -0.551212 0
M  V30 10759 H 1025.94 -3.98891 2.307 0
M  V30 10760 H 1024.26 -3.68116 1.94627 0
M  V30 10761 H 1026.86 -5.33931 -0.28672 0
M  V30 10762 H 1027.2 -3.95603 -1.29629 0
M  V30 10763 H 1027.73 -3.95759 0.402487 0
M  V30 10764 H 1024.47 -6.03154 2.56683 0
M  V30 10765 H 1023.99 -5.93648 0.856881 0
M  V30 10766 H 1025.67 -6.33929 1.29396 0
M  V30 10767 N 1025.8 -0.366053 -1.5329 0
M  V30 10768 C 1027.05 0.224614 -2.00445 0
M  V30 10769 C 1027.36 1.49829 -1.2574 0
M  V30 10770 O 1028.57 2.16759 -1.63487 0
M  V30 10771 C 1027.03 0.450818 -3.57065 0
M  V30 10772 C 1026.63 -0.808257 -4.40649 0
M  V30 10773 C 1028.38 0.999116 -4.12575 0
M  V30 10774 C 1026.28 -0.551612 -5.88822 0
M  V30 10775 H 1025.21 0.0877114 -0.748881 0
M  V30 10776 H 1027.87 -0.484866 -1.76978 0
M  V30 10777 H 1026.25 1.22157 -3.76688 0
M  V30 10778 H 1027.42 -1.58184 -4.32798 0
M  V30 10779 H 1025.74 -1.27981 -3.96245 0
M  V30 10780 H 1028.33 1.20646 -5.20911 0
M  V30 10781 H 1028.68 1.96139 -3.67199 0
M  V30 10782 H 1029.21 0.288518 -3.96752 0
M  V30 10783 H 1025.95 -1.48423 -6.38475 0
M  V30 10784 H 1025.47 0.183462 -5.99519 0
M  V30 10785 H 1027.15 -0.177307 -6.46757 0
M  V30 10786 N 1027.28 1.57312 -0.0952337 0
M  V30 10787 C 1028.53 1.93974 0.567319 0
M  V30 10788 C 1028.85 0.977805 1.68713 0
M  V30 10789 O 1028.12 0.0298944 1.95877 0
M  V30 10790 H 1026.7 0.71612 0.212558 0
M  V30 10791 H 1029.36 1.94254 -0.158598 0
M  V30 10792 H 1028.46 2.964 0.977423 0
M  V30 10793 N 1028.76 -0.17846 1.56586 0
M  V30 10794 C 1030.01 -0.894464 1.81228 0
M  V30 10795 C 1030.33 -1.83089 0.671062 0
M  V30 10796 O 1029.6 -1.93439 -0.309557 0
M  V30 10797 H 1028.18 -0.333288 0.668527 0
M  V30 10798 H 1030.84 -0.179986 1.94067 0
M  V30 10799 H 1029.93 -1.47565 2.75011 0
M  V30 10800 N 1030.24 -1.51135 -0.446768 0
M  V30 10801 C 1031.2 -1.71187 -1.52406 0
M  V30 10802 C 1032.2 -0.582037 -1.49897 0
M  V30 10803 O 1033.39 -0.849452 -1.52085 0
M  V30 10804 C 1030.52 -1.75962 -2.91976 0
M  V30 10805 H 1031.71 -2.67324 -1.35934 0
M  V30 10806 H 1029.27 -1.40982 -0.674813 0
M  V30 10807 H 1030 -0.816065 -3.13864 0
M  V30 10808 H 1029.79 -2.58065 -2.95203 0
M  V30 10809 H 1031.28 -1.93347 -3.70144 0
M  V30 10810 N 1031.71 0.701592 -1.41122 0
M  V30 10811 C 1032.66 1.81559 -1.42495 0
M  V30 10812 C 1033.63 1.63722 -0.280078 0
M  V30 10813 O 1034.82 1.84658 -0.480231 0
M  V30 10814 C 1031.96 3.19392 -1.30702 0
M  V30 10815 C 1031.07 3.48704 -2.55009 0
M  V30 10816 C 1030.2 4.76118 -2.35554 0
M  V30 10817 C 1029.24 4.98378 -3.55367 0
M  V30 10818 N 1028.38 6.17014 -3.3502 0
M  V30 10819 H 1033.22 1.7972 -2.37707 0
M  V30 10820 H 1030.76 0.877727 -1.18044 0
M  V30 10821 H 1032.71 3.99004 -1.21867 0
M  V30 10822 H 1031.34 3.20423 -0.391012 0
M  V30 10823 H 1030.4 2.63542 -2.74317 0
M  V30 10824 H 1031.71 3.61057 -3.44151 0
M  V30 10825 H 1030.86 5.63774 -2.24152 0
M  V30 10826 H 1029.6 4.66 -1.43859 0
M  V30 10827 H 1028.61 4.09172 -3.6723 0
M  V30 10828 H 1029.83 5.10359 -4.48007 0
M  V30 10829 H 1027.78 6.0812 -2.4602 0
M  V30 10830 H 1027.69 6.30107 -4.17733 0
M  V30 10831 H 1028.96 7.0742 -3.27379 0
M  V30 10832 N 1033.19 1.2685 0.935242 0
M  V30 10833 C 1034.12 1.1143 2.05196 0
M  V30 10834 C 1035.1 0.0178362 1.70091 0
M  V30 10835 O 1036.29 0.190951 1.93259 0
M  V30 10836 C 1033.42 0.752779 3.39044 0
M  V30 10837 C 1032.37 1.80164 3.88233 0
M  V30 10838 C 1031.7 1.29428 5.18799 0
M  V30 10839 C 1033 3.20431 4.12457 0
M  V30 10840 H 1034.69 2.04845 2.18355 0
M  V30 10841 H 1032.24 0.986276 1.04922 0
M  V30 10842 H 1034.19 0.631757 4.16637 0
M  V30 10843 H 1032.91 -0.217075 3.25878 0
M  V30 10844 H 1031.57 1.91144 3.12825 0
M  V30 10845 H 1031.22 0.3141 5.02018 0
M  V30 10846 H 1030.92 1.99546 5.5268 0
M  V30 10847 H 1032.45 1.18605 5.9897 0
M  V30 10848 H 1033.86 3.12495 4.80645 0
M  V30 10849 H 1032.26 3.88193 4.57631 0
M  V30 10850 H 1033.33 3.66046 3.18023 0
M  V30 10851 N 1034.67 -1.14067 1.0875 0
M  V30 10852 C 1035.62 -2.19261 0.720633 0
M  V30 10853 C 1036.59 -1.63462 -0.294847 0
M  V30 10854 O 1037.77 -1.89967 -0.178058 0
M  V30 10855 C 1034.91 -3.44816 0.139873 0
M  V30 10856 C 1034.03 -4.1475 1.20856 0
M  V30 10857 C 1033.16 -5.27899 0.591285 0
M  V30 10858 C 1032.2 -5.89672 1.64176 0
M  V30 10859 N 1031.34 -6.94264 1.04603 0
M  V30 10860 H 1036.18 -2.49991 1.62198 0
M  V30 10861 H 1033.71 -1.22757 0.810497 0
M  V30 10862 H 1035.67 -4.16648 -0.214587 0
M  V30 10863 H 1034.3 -3.14558 -0.724774 0
M  V30 10864 H 1033.35 -3.41272 1.6804 0
M  V30 10865 H 1034.67 -4.56753 2.00446 0
M  V30 10866 H 1033.82 -6.06417 0.185271 0
M  V30 10867 H 1032.56 -4.87128 -0.236236 0
M  V30 10868 H 1031.56 -5.09854 2.05739 0
M  V30 10869 H 1032.79 -6.32517 2.47182 0
M  V30 10870 H 1030.73 -6.55562 0.239664 0
M  V30 10871 H 1030.65 -7.34771 1.77898 0
M  V30 10872 H 1031.92 -7.7665 0.665989 0
M  V30 10873 N 1036.15 -0.873678 -1.31166 0
M  V30 10874 C 1037.11 -0.337069 -2.26708 0
M  V30 10875 C 1038.11 0.51406 -1.52362 0
M  V30 10876 O 1039.3 0.322834 -1.71182 0
M  V30 10877 C 1036.43 0.520897 -3.36897 0
M  V30 10878 H 1037.63 -1.18056 -2.75686 0
M  V30 10879 H 1035.18 -0.649577 -1.42163 0
M  V30 10880 H 1035.91 1.38543 -2.93217 0
M  V30 10881 H 1035.7 -0.0886015 -3.92 0
M  V30 10882 H 1037.19 0.888497 -4.08039 0
M  V30 10883 N 1037.63 1.44308 -0.633487 0
M  V30 10884 C 1038.56 2.33431 0.0568402 0
M  V30 10885 C 1039.54 1.48342 0.832386 0
M  V30 10886 O 1040.72 1.77056 0.797798 0
M  V30 10887 C 1037.85 3.31443 1.03743 0
M  V30 10888 C 1036.81 4.26368 0.373362 0
M  V30 10889 C 1036.13 5.14267 1.46403 0
M  V30 10890 C 1037.43 5.17287 -0.721876 0
M  V30 10891 H 1039.13 2.91402 -0.687388 0
M  V30 10892 H 1036.67 1.4012 -0.332009 0
M  V30 10893 H 1038.63 3.92677 1.52913 0
M  V30 10894 H 1037.35 2.71686 1.81258 0
M  V30 10895 H 1036.01 3.6647 -0.0977053 0
M  V30 10896 H 1035.66 4.50861 2.23011 0
M  V30 10897 H 1035.36 5.7859 1.02506 0
M  V30 10898 H 1036.88 5.78373 1.95748 0
M  V30 10899 H 1038.29 5.72444 -0.313181 0
M  V30 10900 H 1036.69 5.90226 -1.08413 0
M  V30 10901 H 1037.76 4.58159 -1.58804 0
M  V30 10902 N 1039.1 0.374177 1.53094 0
M  V30 10903 C 1040.05 -0.48326 2.27524 0
M  V30 10904 C 1041.05 -1.07606 1.30833 0
M  V30 10905 O 1042.25 -1.01827 1.48429 0
M  V30 10906 H 1038.63 -0.174578 0.731455 0
M  V30 10907 H 1040.6 0.166156 2.97937 0
M  V30 10908 C 1039.35 -1.6065 3.08362 0
M  V30 10909 H 1038.67 -1.15966 3.82612 0
M  V30 10910 H 1040.11 -2.18099 3.63606 0
M  V30 10911 C 1038.57 -2.55381 2.19732 0
M  V30 10912 O 1039.1 -3.58414 1.8139 0
M  V30 10913 N 1037.31 -2.24769 1.84194 0
M  V30 10914 H 1036.85 -1.41018 2.15573 0
M  V30 10915 H 1036.81 -2.88404 1.25181 0
M  V30 10916 N 1040.58 -1.57259 0.103575 0
M  V30 10917 C 1041.51 -2.17509 -0.84923 0
M  V30 10918 C 1042.49 -1.11079 -1.28824 0
M  V30 10919 O 1043.68 -1.39252 -1.35361 0
M  V30 10920 C 1040.81 -2.76221 -2.10522 0
M  V30 10921 C 1039.76 -3.88098 -1.80454 0
M  V30 10922 C 1039.09 -4.33549 -3.12952 0
M  V30 10923 C 1040.39 -5.10909 -1.08486 0
M  V30 10924 H 1042.08 -2.9738 -0.347217 0
M  V30 10925 H 1039.63 -1.43045 -0.165568 0
M  V30 10926 H 1041.58 -3.17024 -2.77621 0
M  V30 10927 H 1040.31 -1.93617 -2.63021 0
M  V30 10928 H 1038.96 -3.47847 -1.15749 0
M  V30 10929 H 1038.61 -3.47825 -3.63355 0
M  V30 10930 H 1038.31 -5.08984 -2.93614 0
M  V30 10931 H 1039.84 -4.76992 -3.81196 0
M  V30 10932 H 1041.25 -5.48828 -1.65711 0
M  V30 10933 H 1039.65 -5.91828 -0.992973 0
M  V30 10934 H 1040.72 -4.84851 -0.0690108 0
M  V30 10935 N 1042.06 0.170153 -1.56679 0
M  V30 10936 C 1043.31 0.884841 -1.817 0
M  V30 10937 C 1043.63 1.82731 -0.680763 0
M  V30 10938 O 1042.9 1.936 0.299294 0
M  V30 10939 H 1041.48 0.329738 -0.670285 0
M  V30 10940 H 1044.14 0.169691 -1.9416 0
M  V30 10941 H 1043.24 1.46104 -2.7579 0
M  V30 10942 N 1043.54 1.5137 0.438746 0
M  V30 10943 C 1044.45 1.75424 1.55768 0
M  V30 10944 C 1045.46 0.638409 1.61865 0
M  V30 10945 O 1046.64 0.9205 1.79133 0
M  V30 10946 C 1043.71 1.87288 2.9176 0
M  V30 10947 C 1042.77 3.11137 2.95791 0
M  V30 10948 C 1042 3.22425 4.25297 0
M  V30 10949 O 1042.22 2.39688 5.17596 0
M  V30 10950 O 1041.16 4.15393 4.35583 0
M  V30 10951 H 1044.98 2.70339 1.38386 0
M  V30 10952 H 1042.57 1.35854 0.621609 0
M  V30 10953 H 1044.45 1.97085 3.72472 0
M  V30 10954 H 1043.12 0.955599 3.09273 0
M  V30 10955 H 1042.03 3.06819 2.1404 0
M  V30 10956 H 1043.36 4.02549 2.83223 0
M  V30 10957 N 1045.02 -0.694098 1.41492 0
M  V30 10958 C 1046.24 -1.48286 1.44288 0
M  V30 10959 C 1046.66 -1.88737 0.0485783 0
M  V30 10960 O 1046.02 -1.56881 -0.932449 0
M  V30 10961 C 1046.07 -2.74446 2.3529 0
M  V30 10962 O 1045.79 -2.35698 3.69294 0
M  V30 10963 C 1047.29 -3.68175 2.46905 0
M  V30 10964 H 1044.51 -0.45692 0.491391 0
M  V30 10965 H 1047.05 -0.854477 1.85793 0
M  V30 10966 H 1045.21 -3.33518 1.9709 0
M  V30 10967 H 1045.62 -3.17029 4.17843 0
M  V30 10968 H 1047.1 -4.53476 3.14743 0
M  V30 10969 H 1047.57 -4.12763 1.50078 0
M  V30 10970 H 1048.18 -3.15006 2.85747 0
M  V30 10971 N 1046.49 -1.27344 -0.928501 0
M  V30 10972 C 1047.74 -1.13635 -1.6761 0
M  V30 10973 C 1048.07 0.317957 -1.91884 0
M  V30 10974 O 1047.32 1.24904 -1.50657 0
M  V30 10975 C 1047.62 -1.86439 -3.04918 0
M  V30 10976 C 1047.29 -3.36298 -3.00358 0
M  V30 10977 C 1045.95 -3.77173 -2.98821 0
M  V30 10978 C 1048.3 -4.31921 -2.91708 0
M  V30 10979 C 1045.63 -5.12037 -2.86417 0
M  V30 10980 C 1047.98 -5.66841 -2.80846 0
M  V30 10981 C 1046.65 -6.07011 -2.77659 0
M  V30 10982 H 1045.92 -0.415821 -0.61333 0
M  V30 10983 H 1048.56 -1.57943 -1.08288 0
M  V30 10984 H 1046.87 -1.34638 -3.6794 0
M  V30 10985 H 1048.57 -1.73261 -3.61637 0
M  V30 10986 H 1045.16 -3.0379 -3.0234 0
M  V30 10987 H 1049.34 -4.01314 -2.91994 0
M  V30 10988 H 1044.6 -5.42307 -2.82336 0
M  V30 10989 H 1048.77 -6.40608 -2.73119 0
M  V30 10990 H 1046.4 -7.11467 -2.67804 0
M  V30 10991 N 1047.97 1.13488 -1.09353 0
M  V30 10992 C 1049.22 1.85022 -0.830354 0
M  V30 10993 C 1049.55 1.83266 0.64242 0
M  V30 10994 O 1048.83 1.27024 1.47293 0
M  V30 10995 C 1049.11 3.33218 -1.36521 0
M  V30 10996 C 1048.96 3.43491 -2.90404 0
M  V30 10997 C 1050.28 4.28626 -0.998381 0
M  V30 10998 H 1047.4 0.671786 -0.303105 0
M  V30 10999 H 1050.04 1.33211 -1.3548 0
M  V30 11000 H 1048.19 3.77471 -0.919117 0
M  V30 11001 H 1049.86 3.07954 -3.43456 0
M  V30 11002 H 1048.11 2.84391 -3.27573 0
M  V30 11003 H 1048.78 4.47702 -3.22905 0
M  V30 11004 H 1051.25 3.9244 -1.38311 0
M  V30 11005 H 1050.13 5.30754 -1.39968 0
M  V30 11006 H 1050.39 4.42001 0.093517 0
M  V30 11007 N 1049.45 0.880621 1.30701 0
M  V30 11008 C 1050.68 0.511682 2.00473 0
M  V30 11009 C 1051.09 -0.898684 1.6604 0
M  V30 11010 O 1050.45 -1.59035 0.895218 0
M  V30 11011 C 1050.5 0.671723 3.55204 0
M  V30 11012 O 1050.22 2.02656 3.8841 0
M  V30 11013 C 1051.72 0.3052 4.42248 0
M  V30 11014 H 1048.94 0.198231 0.64105 0
M  V30 11015 H 1051.49 1.18472 1.66687 0
M  V30 11016 H 1049.64 0.0461066 3.87373 0
M  V30 11017 H 1050.06 2.04202 4.83117 0
M  V30 11018 H 1051.53 0.468095 5.50012 0
M  V30 11019 H 1052.01 -0.756456 4.32637 0
M  V30 11020 H 1052.61 0.906959 4.15517 0
M  V30 11021 N 1050.93 -1.4397 0.641131 0
M  V30 11022 C 1051.88 -2.2786 -0.079879 0
M  V30 11023 C 1052.86 -1.39227 -0.80651 0
M  V30 11024 O 1054.06 -1.62956 -0.690969 0
M  V30 11025 C 1051.18 -3.26722 -1.05394 0
M  V30 11026 C 1050.27 -4.22842 -0.326411 0
M  V30 11027 N 1050.66 -5.016 0.650464 0
M  V30 11028 C 1048.96 -4.42349 -0.569507 0
M  V30 11029 C 1049.66 -5.71563 1.08121 0
M  V30 11030 N 1048.64 -5.41991 0.417932 0
M  V30 11031 H 1052.44 -2.86163 0.669906 0
M  V30 11032 H 1049.95 -1.55528 0.467433 0
M  V30 11033 H 1051.95 -3.85588 -1.58517 0
M  V30 11034 H 1050.61 -2.69979 -1.80392 0
M  V30 11035 H 1051.62 -5.07581 1.0287 0
M  V30 11036 H 1048.3 -3.96693 -1.30159 0
M  V30 11037 H 1049.69 -6.44805 1.88883 0
M  V30 11038 N 1052.41 -0.382291 -1.52893 0
M  V30 11039 C 1053.63 0.204961 -2.06385 0
M  V30 11040 C 1054.06 1.40316 -1.25271 0
M  V30 11041 O 1053.42 1.79187 -0.275969 0
M  V30 11042 C 1053.46 0.560205 -3.56222 0
M  V30 11043 O 1052.57 1.65515 -3.77728 0
M  V30 11044 H 1051.91 0.0258798 -0.663495 0
M  V30 11045 H 1054.44 -0.547733 -1.97132 0
M  V30 11046 H 1054.45 0.826501 -3.99541 0
M  V30 11047 H 1053.12 -0.31584 -4.14699 0
M  V30 11048 H 1051.7 1.38311 -3.46301 0
M  V30 11049 N 1053.89 1.57202 -0.111913 0
M  V30 11050 C 1054.83 2.14936 0.840908 0
M  V30 11051 C 1055.8 1.07242 1.2684 0
M  V30 11052 O 1056.99 1.35114 1.34718 0
M  V30 11053 C 1054.13 2.74743 2.0883 0
M  V30 11054 C 1053.24 3.96723 1.70982 0
M  V30 11055 C 1052.38 4.4464 2.90634 0
M  V30 11056 C 1051.41 5.59169 2.48992 0
M  V30 11057 N 1050.55 6.01862 3.61534 0
M  V30 11058 H 1055.39 2.96034 0.341735 0
M  V30 11059 H 1052.93 1.4626 0.156993 0
M  V30 11060 H 1054.89 3.07546 2.81907 0
M  V30 11061 H 1053.52 1.96346 2.56218 0
M  V30 11062 H 1052.57 3.70127 0.878072 0
M  V30 11063 H 1053.88 4.79795 1.36373 0
M  V30 11064 H 1053.03 4.79315 3.71944 0
M  V30 11065 H 1051.77 3.60503 3.28464 0
M  V30 11066 H 1050.78 5.24106 1.66113 0
M  V30 11067 H 1052 6.45067 2.12287 0
M  V30 11068 H 1049.95 5.20667 3.99051 0
M  V30 11069 H 1049.87 6.79772 3.30827 0
M  V30 11070 H 1051.13 6.41172 4.43305 0
M  V30 11071 N 1055.36 -0.161842 1.56767 0
M  V30 11072 C 1056.61 -0.875192 1.82167 0
M  V30 11073 C 1056.93 -1.82367 0.690444 0
M  V30 11074 O 1056.2 -1.93756 -0.289023 0
M  V30 11075 H 1054.78 -0.326178 0.672024 0
M  V30 11076 H 1057.44 -0.159392 1.94247 0
M  V30 11077 H 1056.54 -1.44639 2.76561 0
M  V30 11078 N 1056.84 -1.516 -0.430713 0
M  V30 11079 C 1057.77 -1.76342 -1.53054 0
M  V30 11080 C 1058.75 -0.61349 -1.58652 0
M  V30 11081 O 1059.94 -0.856888 -1.74273 0
M  V30 11082 C 1057.07 -1.8945 -2.91077 0
M  V30 11083 C 1056.02 -3.04928 -3.00339 0
M  V30 11084 C 1055.35 -3.03228 -4.40405 0
M  V30 11085 C 1056.65 -4.44777 -2.73808 0
M  V30 11086 H 1058.34 -2.68435 -1.326 0
M  V30 11087 H 1055.89 -1.29171 -0.636466 0
M  V30 11088 H 1057.84 -2.05343 -3.67984 0
M  V30 11089 H 1056.56 -0.940114 -3.12777 0
M  V30 11090 H 1055.22 -2.88751 -2.25872 0
M  V30 11091 H 1054.87 -2.05553 -4.59083 0
M  V30 11092 H 1054.57 -3.80776 -4.47531 0
M  V30 11093 H 1056.1 -3.21222 -5.19277 0
M  V30 11094 H 1057.51 -4.6127 -3.40445 0
M  V30 11095 H 1055.91 -5.2408 -2.92335 0
M  V30 11096 H 1056.98 -4.54358 -1.69372 0
M  V30 11097 N 1058.32 0.686584 -1.41858 0
M  V30 11098 C 1059.55 1.47305 -1.44862 0
M  V30 11099 C 1059.96 1.8912 -0.0549286 0
M  V30 11100 O 1059.3 1.57941 0.938101 0
M  V30 11101 C 1059.36 2.76107 -2.30229 0
M  V30 11102 C 1059.03 2.5644 -3.78269 0
M  V30 11103 C 1060.02 2.21803 -4.70212 0
M  V30 11104 C 1057.71 2.71801 -4.22409 0
M  V30 11105 C 1059.7 2.02778 -6.04284 0
M  V30 11106 C 1057.39 2.52392 -5.56544 0
M  V30 11107 C 1058.39 2.17933 -6.47298 0
M  V30 11108 O 1058.08 1.98701 -7.78956 0
M  V30 11109 H 1057.81 0.460174 -0.495193 0
M  V30 11110 H 1060.36 0.852069 -1.86893 0
M  V30 11111 H 1058.59 3.40644 -1.83026 0
M  V30 11112 H 1060.28 3.37947 -2.24826 0
M  V30 11113 H 1061.05 2.09542 -4.37398 0
M  V30 11114 H 1056.93 2.97605 -3.52069 0
M  V30 11115 H 1060.47 1.75805 -6.75084 0
M  V30 11116 H 1056.37 2.64246 -5.88935 0
M  V30 11117 H 1057.13 2.13393 -7.90193 0
M  V30 11118 N 1059.8 1.27835 0.921735 0
M  V30 11119 C 1061.21 1.05369 1.19873 0
M  V30 11120 C 1061.41 -0.208997 2.00413 0
M  V30 11121 O 1060.47 -0.912861 2.35421 0
M  V30 11122 C 1061.78 2.29658 1.94108 0
M  V30 11123 C 1063.33 2.34756 2.07023 0
M  V30 11124 C 1063.81 3.5879 2.84664 0
M  V30 11125 N 1065.3 3.59383 2.9223 0
M  V30 11126 C 1066.03 4.52029 3.52785 0
M  V30 11127 N 1065.53 5.54986 4.14683 0
M  V30 11128 N 1067.32 4.39641 3.50246 0
M  V30 11129 H 1059.47 2.08903 0.383819 0
M  V30 11130 H 1061.73 0.919065 0.232429 0
M  V30 11131 H 1061.44 3.21604 1.4235 0
M  V30 11132 H 1061.31 2.35444 2.94696 0
M  V30 11133 H 1063.7 1.43312 2.57965 0
M  V30 11134 H 1063.78 2.32969 1.05636 0
M  V30 11135 H 1063.43 4.50574 2.34404 0
M  V30 11136 H 1063.36 3.57829 3.86349 0
M  V30 11137 H 1065.85 2.84927 2.48244 0
M  V30 11138 H 1066.16 6.21837 4.58845 0
M  V30 11139 H 1064.51 5.58822 4.13211 0
M  V30 11140 H 1067.7 3.58413 3.01094 0
M  V30 11141 H 1067.87 5.12033 3.97148 0
M  V30 11142 N 1061.28 -1.12907 1.09954 0
M  V30 11143 C 1062.22 -2.18485 0.743848 0
M  V30 11144 C 1063.19 -1.63766 -0.277494 0
M  V30 11145 O 1064.38 -1.90146 -0.157899 0
M  V30 11146 C 1061.52 -3.44649 0.176437 0
M  V30 11147 C 1060.63 -4.13445 1.25248 0
M  V30 11148 C 1059.77 -5.27242 0.647242 0
M  V30 11149 C 1058.8 -5.87897 1.70421 0
M  V30 11150 N 1057.94 -6.93116 1.1196 0
M  V30 11151 H 1062.78 -2.48257 1.64841 0
M  V30 11152 H 1060.32 -1.21891 0.823471 0
M  V30 11153 H 1062.28 -4.16852 -0.170384 0
M  V30 11154 H 1060.91 -3.15309 -0.69137 0
M  V30 11155 H 1059.96 -3.39471 1.7165 0
M  V30 11156 H 1061.27 -4.54601 2.05279 0
M  V30 11157 H 1060.42 -6.06186 0.249579 0
M  V30 11158 H 1059.16 -4.87351 -0.184556 0
M  V30 11159 H 1058.17 -5.07643 2.11136 0
M  V30 11160 H 1059.39 -6.2986 2.53877 0
M  V30 11161 H 1057.34 -6.55271 0.309181 0
M  V30 11162 H 1057.26 -7.32843 1.85681 0
M  V30 11163 H 1058.52 -7.759 0.748326 0
M  V30 11164 N 1062.75 -0.88754 -1.30232 0
M  V30 11165 C 1063.99 -0.514017 -1.97831 0
M  V30 11166 C 1064.36 0.920151 -1.68515 0
M  V30 11167 O 1065.56 1.39993 -2.29468 0
M  V30 11168 C 1063.83 -0.784155 -3.48692 0
M  V30 11169 S 1065.39 -0.513119 -4.3579 0
M  V30 11170 H 1062.21 -0.191157 -0.684821 0
M  V30 11171 H 1064.81 -1.14736 -1.58291 0
M  V30 11172 H 1063.51 -1.82639 -3.6752 0
M  V30 11173 H 1063.04 -0.138468 -3.93156 0
M  V30 11174 H 1065.06 0.647155 -4.91962 0
M  V30 11175 N 1064.23 1.43628 -0.648757 0
M  V30 11176 C 1065.48 2.02163 -0.160574 0
M  V30 11177 C 1065.81 1.51037 1.22072 0
M  V30 11178 O 1065.09 0.701633 1.81404 0
M  V30 11179 C 1065.37 3.59715 -0.166528 0
M  V30 11180 C 1065.22 4.21083 -1.58142 0
M  V30 11181 C 1066.54 4.37256 0.499485 0
M  V30 11182 H 1063.66 0.734568 -0.0598238 0
M  V30 11183 H 1066.3 1.70981 -0.828592 0
M  V30 11184 H 1064.45 3.86411 0.402302 0
M  V30 11185 H 1066.12 4.05433 -2.2005 0
M  V30 11186 H 1064.37 3.77904 -2.13005 0
M  V30 11187 H 1065.04 5.30156 -1.53748 0
M  V30 11188 H 1067.51 4.16097 0.0155561 0
M  V30 11189 H 1066.39 5.4693 0.464574 0
M  V30 11190 H 1066.65 4.13175 1.57286 0
M  V30 11191 N 1065.71 0.390394 1.52688 0
M  V30 11192 C 1066.66 -0.444229 2.26485 0
M  V30 11193 C 1067.63 -1.05688 1.28138 0
M  V30 11194 O 1068.81 -1.0847 1.56968 0
M  V30 11195 C 1065.95 -1.56501 3.07574 0
M  V30 11196 C 1065.07 -0.975111 4.20851 0
M  V30 11197 C 1064.2 -2.06704 4.89333 0
M  V30 11198 C 1063.24 -1.45309 5.94602 0
M  V30 11199 N 1062.38 -2.48437 6.56676 0
M  V30 11200 H 1067.22 0.191535 2.97384 0
M  V30 11201 H 1064.75 0.106287 1.46716 0
M  V30 11202 H 1066.71 -2.22558 3.52879 0
M  V30 11203 H 1065.34 -2.17107 2.38881 0
M  V30 11204 H 1064.39 -0.204109 3.79852 0
M  V30 11205 H 1065.71 -0.486465 4.96422 0
M  V30 11206 H 1064.86 -2.80528 5.37949 0
M  V30 11207 H 1063.6 -2.58928 4.13289 0
M  V30 11208 H 1062.6 -0.700091 5.45324 0
M  V30 11209 H 1063.83 -0.938775 6.7258 0
M  V30 11210 H 1061.77 -2.99829 5.83471 0
M  V30 11211 H 1061.69 -2.04331 7.27863 0
M  V30 11212 H 1062.96 -3.21888 7.09935 0
M  V30 11213 N 1067.19 -1.57141 0.120249 0
M  V30 11214 C 1068.41 -2.00017 -0.548454 0
M  V30 11215 C 1068.84 -0.999433 -1.59352 0
M  V30 11216 O 1068.2 0.0286978 -1.81277 0
M  V30 11217 C 1068.24 -3.41766 -1.15015 0
M  V30 11218 O 1067.35 -3.44589 -2.26566 0
M  V30 11219 H 1066.69 -0.649739 -0.136875 0
M  V30 11220 H 1069.22 -2.03529 0.209092 0
M  V30 11221 H 1069.23 -3.80001 -1.48537 0
M  V30 11222 H 1067.9 -4.14117 -0.384681 0
M  V30 11223 H 1066.48 -3.18174 -1.94473 0
M  V30 11224 N 1068.67 0.153526 -1.5685 0
M  V30 11225 C 1070.08 0.505939 -1.51368 0
M  V30 11226 C 1070.28 1.83721 -0.82757 0
M  V30 11227 O 1069.34 2.49385 -0.395364 0
M  V30 11228 C 1070.65 0.522269 -2.9613 0
M  V30 11229 C 1072.2 0.608238 -3.07033 0
M  V30 11230 C 1072.67 0.655292 -4.53288 0
M  V30 11231 N 1074.17 0.717695 -4.57606 0
M  V30 11232 C 1074.9 0.774977 -5.68139 0
M  V30 11233 N 1074.4 0.792003 -6.88258 0
M  V30 11234 N 1076.19 0.81536 -5.56155 0
M  V30 11235 H 1068.34 -0.71919 -1.99853 0
M  V30 11236 H 1070.6 -0.261466 -0.91123 0
M  V30 11237 H 1070.31 -0.387595 -3.49558 0
M  V30 11238 H 1070.18 1.3625 -3.51733 0
M  V30 11239 H 1072.57 1.50852 -2.53629 0
M  V30 11240 H 1072.65 -0.259014 -2.54485 0
M  V30 11241 H 1072.3 -0.240809 -5.07329 0
M  V30 11242 H 1072.23 1.53894 -5.03611 0
M  V30 11243 H 1074.72 0.7121 -3.7113 0
M  V30 11244 H 1075.03 0.837378 -7.6825 0
M  V30 11245 H 1073.37 0.759986 -6.90832 0
M  V30 11246 H 1076.57 0.799183 -4.61227 0
M  V30 11247 H 1076.74 0.856537 -6.42314 0
M  V30 11248 N 1070.14 1.51827 0.422667 0
M  V30 11249 C 1071.05 1.77066 1.53899 0
M  V30 11250 C 1072.07 0.655541 1.61179 0
M  V30 11251 O 1073.25 0.939448 1.78147 0
M  V30 11252 C 1070.31 1.90372 2.89758 0
M  V30 11253 C 1069.37 3.14256 2.92475 0
M  V30 11254 C 1068.61 3.26918 4.21853 0
M  V30 11255 O 1068.83 2.45164 5.15025 0
M  V30 11256 O 1067.76 4.19989 4.31153 0
M  V30 11257 H 1071.59 2.71791 1.35511 0
M  V30 11258 H 1069.17 1.36506 0.607165 0
M  V30 11259 H 1071.06 2.01024 3.70361 0
M  V30 11260 H 1069.73 0.988347 3.08242 0
M  V30 11261 H 1068.64 3.09072 2.10773 0
M  V30 11262 H 1069.97 4.0553 2.78937 0
M  V30 11263 N 1071.62 -0.679052 1.4222 0
M  V30 11264 C 1072.53 -1.82221 1.47759 0
M  V30 11265 C 1073.55 -1.70092 0.3667 0
M  V30 11266 O 1074.72 -1.91718 0.616957 0
M  V30 11267 C 1071.79 -3.18332 1.37351 0
M  V30 11268 C 1070.85 -3.42449 2.58896 0
M  V30 11269 C 1070.08 -4.72067 2.48976 0
M  V30 11270 O 1070.31 -5.49683 1.5233 0
M  V30 11271 O 1069.24 -4.97333 3.39033 0
M  V30 11272 H 1073.07 -1.80504 2.44238 0
M  V30 11273 H 1070.65 -0.834251 1.23938 0
M  V30 11274 H 1072.53 -3.99563 1.33893 0
M  V30 11275 H 1071.21 -3.20696 0.439965 0
M  V30 11276 H 1070.12 -2.61083 2.6793 0
M  V30 11277 H 1071.45 -3.44912 3.51136 0
M  V30 11278 N 1073.1 -1.28322 -0.914942 0
M  V30 11279 C 1074.33 -1.18254 -1.69775 0
M  V30 11280 C 1074.74 0.258978 -1.87015 0
M  V30 11281 O 1074.1 1.17514 -1.3963 0
M  V30 11282 C 1074.15 -1.8753 -3.09054 0
M  V30 11283 O 1073.87 -3.26051 -2.92613 0
M  V30 11284 C 1075.37 -1.83749 -4.03424 0
M  V30 11285 H 1072.59 -0.41055 -0.530744 0
M  V30 11286 H 1075.14 -1.69425 -1.14523 0
M  V30 11287 H 1073.29 -1.40233 -3.61128 0
M  V30 11288 H 1073.71 -3.60729 -3.80756 0
M  V30 11289 H 1075.18 -2.36813 -4.98622 0
M  V30 11290 H 1075.66 -0.809601 -4.31674 0
M  V30 11291 H 1076.26 -2.3072 -3.57279 0
M  V30 11292 N 1074.58 1.12322 -1.10551 0
M  V30 11293 C 1075.83 1.83495 -0.846998 0
M  V30 11294 C 1076.15 1.8457 0.629205 0
M  V30 11295 O 1075.42 1.30968 1.45686 0
M  V30 11296 H 1074 0.679479 -0.310351 0
M  V30 11297 H 1076.66 1.36004 -1.39602 0
M  V30 11298 H 1075.76 2.87651 -1.21092 0
M  V30 11299 N 1076.06 0.894434 1.2976 0
M  V30 11300 C 1076.99 0.3847 2.30309 0
M  V30 11301 C 1077.97 -0.537486 1.61385 0
M  V30 11302 O 1079.15 -0.449332 1.8893 0
M  V30 11303 C 1076.28 -0.393311 3.45066 0
M  V30 11304 C 1075.24 0.437968 4.25753 0
M  V30 11305 C 1074.56 -0.467221 5.32655 0
M  V30 11306 C 1075.86 1.6851 4.9437 0
M  V30 11307 H 1077.56 1.22496 2.73194 0
M  V30 11308 H 1075.1 0.590471 1.31337 0
M  V30 11309 H 1077.06 -0.760614 4.14479 0
M  V30 11310 H 1075.78 -1.2673 3.0101 0
M  V30 11311 H 1074.44 0.787533 3.58041 0
M  V30 11312 H 1074.09 -1.33919 4.84845 0
M  V30 11313 H 1073.79 0.0852482 5.87538 0
M  V30 11314 H 1075.31 -0.830833 6.04921 0
M  V30 11315 H 1076.72 1.38784 5.56248 0
M  V30 11316 H 1075.12 2.17849 5.59162 0
M  V30 11317 H 1076.19 2.42412 4.19958 0
M  V30 11318 N 1077.53 -1.43282 0.656365 0
M  V30 11319 C 1078.46 -2.33492 -0.0196962 0
M  V30 11320 C 1079.45 -1.49647 -0.80868 0
M  V30 11321 O 1080.63 -1.78303 -0.769529 0
M  V30 11322 C 1077.76 -3.33052 -0.984574 0
M  V30 11323 C 1076.71 -4.26908 -0.305483 0
M  V30 11324 C 1076.04 -5.16531 -1.38202 0
M  V30 11325 C 1077.34 -5.16073 0.804081 0
M  V30 11326 H 1079.03 -2.90272 0.733661 0
M  V30 11327 H 1076.58 -1.39574 0.354259 0
M  V30 11328 H 1078.53 -3.9506 -1.46647 0
M  V30 11329 H 1077.26 -2.74535 -1.76913 0
M  V30 11330 H 1075.92 -3.66268 0.155995 0
M  V30 11331 H 1075.56 -4.54351 -2.1581 0
M  V30 11332 H 1075.26 -5.80148 -0.932878 0
M  V30 11333 H 1076.79 -5.81414 -1.86522 0
M  V30 11334 H 1078.2 -5.71873 0.404212 0
M  V30 11335 H 1076.6 -5.88427 1.17789 0
M  V30 11336 H 1077.67 -4.55574 1.66073 0
M  V30 11337 N 1079.01 -0.398486 -1.52479 0
M  V30 11338 C 1079.95 0.476551 -2.23169 0
M  V30 11339 C 1080.92 1.05665 -1.23587 0
M  V30 11340 O 1082.11 1.10654 -1.52604 0
M  V30 11341 C 1079.24 1.66048 -2.95204 0
M  V30 11342 C 1078.28 1.20478 -4.0913 0
M  V30 11343 S 1079.11 0.178711 -5.35202 0
M  V30 11344 C 1080.27 1.36821 -6.10762 0
M  V30 11345 H 1080.5 -0.123704 -2.97043 0
M  V30 11346 H 1078.04 -0.182722 -1.53315 0
M  V30 11347 H 1079.99 2.33942 -3.37315 0
M  V30 11348 H 1078.66 2.23206 -2.20993 0
M  V30 11349 H 1077.85 2.08901 -4.58668 0
M  V30 11350 H 1077.45 0.604632 -3.6908 0
M  V30 11351 H 1079.74 2.2937 -6.37492 0
M  V30 11352 H 1080.69 0.913579 -7.02182 0
M  V30 11353 H 1081.09 1.58919 -5.41669 0
M  V30 11354 N 1080.49 1.57075 -0.12858 0
M  V30 11355 C 1081.9 1.82468 0.39526 0
M  V30 11356 C 1082.25 1.0463 1.65973 0
M  V30 11357 O 1081.38 0.285835 2.14504 0
M  V30 11358 C 1081.97 3.30976 0.723889 0
M  V30 11359 C 1080.53 3.57016 1.19232 0
M  V30 11360 C 1079.68 2.76534 0.205907 0
M  V30 11361 H 1082.63 1.54711 -0.353571 0
M  V30 11362 H 1082.65 3.46127 1.58039 0
M  V30 11363 H 1082.16 3.87602 -0.196595 0
M  V30 11364 H 1080.26 3.05758 2.12938 0
M  V30 11365 H 1080.38 4.65558 1.13103 0
M  V30 11366 H 1078.74 2.45038 0.694872 0
M  V30 11367 H 1079.52 3.35923 -0.707842 0
M  V30 11368 N 1081.97 -0.145205 1.5693 0
M  V30 11369 C 1082.9 -1.18096 2.01434 0
M  V30 11370 C 1083.88 -1.447 0.894204 0
M  V30 11371 O 1085.07 -1.55589 1.16214 0
M  V30 11372 C 1082.2 -2.51369 2.39647 0
M  V30 11373 C 1081.15 -2.39283 3.54863 0
M  V30 11374 C 1080.48 -3.77283 3.78895 0
M  V30 11375 C 1081.78 -1.8754 4.87469 0
M  V30 11376 H 1083.47 -0.810897 2.8821 0
M  V30 11377 H 1081.02 -0.388624 1.38657 0
M  V30 11378 H 1082.97 -3.24054 2.69382 0
M  V30 11379 H 1081.69 -2.90214 1.49811 0
M  V30 11380 H 1080.35 -1.6905 3.25296 0
M  V30 11381 H 1080 -4.13567 2.86307 0
M  V30 11382 H 1079.7 -3.70057 4.56433 0
M  V30 11383 H 1081.22 -4.51514 4.11057 0
M  V30 11384 H 1082.64 -2.50019 5.1591 0
M  V30 11385 H 1081.03 -1.912 5.68826 0
M  V30 11386 H 1082.1 -0.831194 4.77723 0
M  V30 11387 N 1083.45 -1.52049 -0.414609 0
M  V30 11388 C 1084.39 -1.74998 -1.5048 0
M  V30 11389 C 1085.36 -0.592251 -1.55182 0
M  V30 11390 O 1086.55 -0.829203 -1.7184 0
M  V30 11391 C 1083.69 -1.90157 -2.87983 0
M  V30 11392 C 1082.8 -3.17789 -2.92633 0
M  V30 11393 C 1081.94 -3.23411 -4.21401 0
M  V30 11394 C 1080.98 -4.45267 -4.20004 0
M  V30 11395 N 1080.11 -4.48312 -5.40334 0
M  V30 11396 H 1084.95 -2.68046 -1.30212 0
M  V30 11397 H 1082.49 -1.32824 -0.632154 0
M  V30 11398 H 1084.45 -1.96929 -3.67797 0
M  V30 11399 H 1083.08 -1.00496 -3.06758 0
M  V30 11400 H 1082.13 -3.20216 -2.05343 0
M  V30 11401 H 1083.44 -4.07634 -2.87465 0
M  V30 11402 H 1082.6 -3.29224 -5.09604 0
M  V30 11403 H 1081.34 -2.31495 -4.29257 0
M  V30 11404 H 1080.34 -4.39606 -3.30192 0
M  V30 11405 H 1081.57 -5.38472 -4.13793 0
M  V30 11406 H 1079.51 -3.59277 -5.48868 0
M  V30 11407 H 1079.43 -5.31994 -5.37139 0
M  V30 11408 H 1080.7 -4.58347 -6.30506 0
M  V30 11409 N 1084.93 0.6715 -1.42579 0
M  V30 11410 C 1085.89 1.76676 -1.46008 0
M  V30 11411 C 1086.89 1.57007 -0.347213 0
M  V30 11412 O 1088.08 1.63238 -0.608185 0
M  V30 11413 C 1085.21 3.15348 -1.29494 0
M  V30 11414 H 1086.4 1.75021 -2.43531 0
M  V30 11415 H 1083.96 0.881444 -1.29075 0
M  V30 11416 H 1084.69 3.22626 -0.32906 0
M  V30 11417 H 1084.48 3.31028 -2.10149 0
M  V30 11418 H 1085.97 3.95251 -1.34784 0
M  V30 11419 N 1086.4 1.28806 0.908124 0
M  V30 11420 C 1087.81 1.14719 1.47297 0
M  V30 11421 C 1088.17 -0.260763 1.94459 0
M  V30 11422 O 1087.29 -1.15553 1.82966 0
M  V30 11423 C 1087.89 2.07643 2.67712 0
M  V30 11424 C 1086.44 1.97605 3.20358 0
M  V30 11425 C 1085.59 1.99058 1.93058 0
M  V30 11426 H 1088.54 1.41413 0.720283 0
M  V30 11427 H 1088.56 1.64372 3.43165 0
M  V30 11428 H 1088.08 3.10108 2.33355 0
M  V30 11429 H 1086.18 0.981982 3.59427 0
M  V30 11430 H 1086.29 2.84846 3.85226 0
M  V30 11431 H 1084.65 1.43541 2.104 0
M  V30 11432 H 1085.44 3.03212 1.60989 0
M  V30 11433 N 1087.88 -1.11734 1.11145 0
M  V30 11434 C 1088.83 -2.17683 0.766979 0
M  V30 11435 C 1089.8 -1.64051 -0.260108 0
M  V30 11436 O 1090.98 -1.90302 -0.137723 0
M  V30 11437 C 1088.12 -3.44442 0.212982 0
M  V30 11438 C 1087.24 -4.12094 1.29626 0
M  V30 11439 C 1086.37 -5.26526 0.703127 0
M  V30 11440 C 1085.41 -5.86057 1.76647 0
M  V30 11441 N 1084.55 -6.91889 1.19306 0
M  V30 11442 H 1089.39 -2.46495 1.67465 0
M  V30 11443 H 1086.92 -1.21011 0.836353 0
M  V30 11444 H 1088.88 -4.17009 -0.126162 0
M  V30 11445 H 1087.51 -3.16025 -0.657888 0
M  V30 11446 H 1086.56 -3.37631 1.75241 0
M  V30 11447 H 1087.88 -4.52398 2.10089 0
M  V30 11448 H 1087.03 -6.05888 0.313859 0
M  V30 11449 H 1085.77 -4.87519 -0.132856 0
M  V30 11450 H 1084.77 -5.05375 2.16508 0
M  V30 11451 H 1086 -6.27132 2.60543 0
M  V30 11452 H 1083.95 -6.54906 0.378664 0
M  V30 11453 H 1083.86 -7.30832 1.93443 0
M  V30 11454 H 1085.13 -7.75062 0.830578 0
M  V30 11455 N 1089.36 -0.901303 -1.29284 0
M  V30 11456 C 1090.27 -0.3849 -2.31421 0
M  V30 11457 C 1091.29 0.521163 -1.66012 0
M  V30 11458 O 1092.46 0.410356 -1.97175 0
M  V30 11459 C 1089.53 0.377804 -3.44635 0
M  V30 11460 C 1088.59 -0.559974 -4.25632 0
M  V30 11461 C 1087.82 0.166425 -5.3344 0
M  V30 11462 O 1088.04 1.39012 -5.53202 0
M  V30 11463 O 1086.98 -0.491875 -5.99887 0
M  V30 11464 H 1090.8 -1.2323 -2.77575 0
M  V30 11465 H 1088.39 -0.665683 -1.3375 0
M  V30 11466 H 1090.27 0.809041 -4.13561 0
M  V30 11467 H 1088.95 1.20124 -3.00586 0
M  V30 11468 H 1087.85 -1.04036 -3.59343 0
M  V30 11469 H 1089.19 -1.34987 -4.73328 0
M  V30 11470 N 1090.84 1.42931 -0.663954 0
M  V30 11471 C 1092.09 2.00904 -0.179011 0
M  V30 11472 C 1092.4 1.53056 1.21791 0
M  V30 11473 O 1093.61 2.03374 1.79865 0
M  V30 11474 C 1092.06 3.58892 -0.269198 0
M  V30 11475 C 1091.67 4.15731 -1.66949 0
M  V30 11476 C 1093.41 4.24207 0.157589 0
M  V30 11477 C 1091.32 5.66047 -1.71303 0
M  V30 11478 H 1090.25 0.75135 -0.0631623 0
M  V30 11479 H 1092.9 1.6378 -0.827556 0
M  V30 11480 H 1091.28 3.93469 0.447048 0
M  V30 11481 H 1092.46 3.92634 -2.41195 0
M  V30 11482 H 1090.77 3.62826 -2.04318 0
M  V30 11483 H 1093.37 5.34503 0.145057 0
M  V30 11484 H 1093.71 3.98901 1.19095 0
M  V30 11485 H 1094.25 3.94552 -0.507274 0
M  V30 11486 H 1090.98 5.96136 -2.72584 0
M  V30 11487 H 1090.5 5.91167 -1.01398 0
M  V30 11488 H 1092.18 6.30275 -1.46158 0
M  V30 11489 N 1092.32 0.406567 1.52266 0
M  V30 11490 C 1093.56 -0.171391 2.00971 0
M  V30 11491 C 1093.88 -1.46443 1.29668 0
M  V30 11492 O 1095.08 -2.12348 1.69176 0
M  V30 11493 C 1093.54 -0.35599 3.58135 0
M  V30 11494 C 1093.15 0.924803 4.38351 0
M  V30 11495 C 1094.89 -0.889378 4.15079 0
M  V30 11496 C 1092.8 0.707534 5.87152 0
M  V30 11497 H 1091.73 -0.0678253 0.750943 0
M  V30 11498 H 1094.38 0.531619 1.7563 0
M  V30 11499 H 1092.76 -1.12127 3.79794 0
M  V30 11500 H 1093.94 1.69603 4.28452 0
M  V30 11501 H 1092.25 1.38442 3.92712 0
M  V30 11502 H 1094.85 -1.06792 5.23927 0
M  V30 11503 H 1095.19 -1.86334 3.7227 0
M  V30 11504 H 1095.72 -0.183224 3.97378 0
M  V30 11505 H 1092.46 1.65299 6.34316 0
M  V30 11506 H 1091.98 -0.024446 5.99795 0
M  V30 11507 H 1093.66 0.348721 6.4606 0
M  V30 11508 N 1093.79 -1.57004 0.136909 0
M  V30 11509 C 1095.04 -1.95797 -0.516711 0
M  V30 11510 C 1095.37 -1.02123 -1.65533 0
M  V30 11511 O 1094.62 -0.0484835 -1.9564 0
M  V30 11512 C 1094.92 -3.40903 -1.07331 0
M  V30 11513 C 1094.59 -4.50867 -0.0541941 0
M  V30 11514 C 1093.25 -4.80669 0.225988 0
M  V30 11515 C 1095.6 -5.17264 0.639361 0
M  V30 11516 C 1092.93 -5.74177 1.2057 0
M  V30 11517 C 1095.28 -6.11827 1.60783 0
M  V30 11518 C 1093.95 -6.40012 1.89581 0
M  V30 11519 H 1093.22 -0.716471 -0.189078 0
M  V30 11520 H 1095.86 -1.90213 0.221605 0
M  V30 11521 H 1094.17 -3.43268 -1.88876 0
M  V30 11522 H 1095.87 -3.6824 -1.58745 0
M  V30 11523 H 1092.46 -4.27666 -0.282754 0
M  V30 11524 H 1096.64 -4.9438 0.436085 0
M  V30 11525 H 1091.9 -5.94312 1.43538 0
M  V30 11526 H 1096.07 -6.62354 2.15081 0
M  V30 11527 H 1093.7 -7.12274 2.65649 0
M  V30 11528 N 1095.27 0.136881 -1.57004 0
M  V30 11529 C 1096.2 1.17026 -2.02057 0
M  V30 11530 C 1097.18 1.44223 -0.901866 0
M  V30 11531 O 1098.37 1.54971 -1.17037 0
M  V30 11532 C 1095.5 2.50095 -2.40977 0
M  V30 11533 C 1094.45 2.37398 -3.56127 0
M  V30 11534 C 1093.78 3.75268 -3.80891 0
M  V30 11535 C 1095.08 1.84952 -4.88457 0
M  V30 11536 H 1096.77 0.795601 -2.88636 0
M  V30 11537 H 1094.32 0.381266 -1.38861 0
M  V30 11538 H 1096.27 3.22621 -2.71097 0
M  V30 11539 H 1095 2.89416 -1.51348 0
M  V30 11540 H 1093.65 1.67322 -3.26188 0
M  V30 11541 H 1093.3 4.12043 -2.88496 0
M  V30 11542 H 1093 3.67631 -4.5839 0
M  V30 11543 H 1094.53 4.49327 -4.13446 0
M  V30 11544 H 1095.94 2.4728 -5.17229 0
M  V30 11545 H 1094.34 1.88181 -5.69832 0
M  V30 11546 H 1095.41 0.805848 -4.78157 0
M  V30 11547 N 1096.75 1.52266 0.40654 0
M  V30 11548 C 1097.66 1.78688 1.52012 0
M  V30 11549 C 1098.68 0.6726 1.60475 0
M  V30 11550 O 1099.85 0.95829 1.77141 0
M  V30 11551 C 1096.92 1.93434 2.87722 0
M  V30 11552 C 1095.98 3.17341 2.89125 0
M  V30 11553 C 1095.21 3.31374 4.18362 0
M  V30 11554 O 1095.43 2.50613 5.12396 0
M  V30 11555 O 1094.37 4.24539 4.26674 0
M  V30 11556 H 1098.19 2.73213 1.3262 0
M  V30 11557 H 1095.78 1.37142 0.592653 0
M  V30 11558 H 1097.66 2.04941 3.68208 0
M  V30 11559 H 1096.34 1.02099 3.07177 0
M  V30 11560 H 1095.24 3.1129 2.07483 0
M  V30 11561 H 1096.58 4.08466 2.7462 0
M  V30 11562 N 1098.23 -0.663929 1.42933 0
M  V30 11563 C 1099.48 -1.42111 1.43697 0
M  V30 11564 C 1099.8 -1.94913 0.0583858 0
M  V30 11565 O 1099.07 -1.73757 -0.904719 0
M  V30 11566 H 1097.65 -0.527391 0.529026 0
M  V30 11567 H 1100.31 -0.783766 1.78446 0
M  V30 11568 H 1099.41 -2.26877 2.1432 0
M  V30 11569 N 1099.71 -1.29285 -0.901281 0
M  V30 11570 C 1100.62 -1.16161 -2.03823 0
M  V30 11571 C 1101.63 -0.0852298 -1.73791 0
M  V30 11572 O 1102.81 -0.29699 -1.99198 0
M  V30 11573 C 1099.87 -0.837586 -3.3643 0
M  V30 11574 C 1098.93 -1.99764 -3.7999 0
M  V30 11575 C 1098.17 -1.68898 -5.0627 0
M  V30 11576 O 1098.39 -0.609177 -5.67138 0
M  V30 11577 O 1097.32 -2.53648 -5.45845 0
M  V30 11578 H 1101.15 -2.11635 -2.17817 0
M  V30 11579 H 1098.74 -1.08722 -1.02468 0
M  V30 11580 H 1100.62 -0.671376 -4.16017 0
M  V30 11581 H 1099.29 0.0873811 -3.23582 0
M  V30 11582 H 1098.2 -2.21908 -3.01177 0
M  V30 11583 H 1099.53 -2.90376 -3.9742 0
M  V30 11584 N 1101.18 1.11143 -1.11736 0
M  V30 11585 C 1102.41 1.86745 -0.890727 0
M  V30 11586 C 1102.83 1.80315 0.55964 0
M  V30 11587 O 1102.18 1.18663 1.38656 0
M  V30 11588 C 1102.24 3.35436 -1.34779 0
M  V30 11589 O 1101.96 3.41738 -2.74129 0
M  V30 11590 C 1103.46 4.27935 -1.15702 0
M  V30 11591 H 1100.68 0.59044 -0.318781 0
M  V30 11592 H 1103.22 1.40549 -1.48547 0
M  V30 11593 H 1101.38 3.79125 -0.796425 0
M  V30 11594 H 1101.79 4.34347 -2.94012 0
M  V30 11595 H 1103.26 5.30494 -1.52579 0
M  V30 11596 H 1103.74 4.39093 -0.0968735 0
M  V30 11597 H 1104.35 3.90042 -1.69551 0
M  V30 11598 N 1102.66 0.908147 1.28804 0
M  V30 11599 C 1103.59 0.409106 2.29888 0
M  V30 11600 C 1104.57 -0.520338 1.61946 0
M  V30 11601 O 1105.76 -0.429268 1.89396 0
M  V30 11602 C 1102.89 -0.35669 3.45463 0
M  V30 11603 C 1101.84 0.4831 4.25265 0
M  V30 11604 C 1101.17 -0.4107 5.3312 0
M  V30 11605 C 1102.47 1.73744 4.92555 0
M  V30 11606 H 1104.16 1.25386 2.7188 0
M  V30 11607 H 1101.71 0.604368 1.30703 0
M  V30 11608 H 1103.66 -0.71661 4.15262 0
M  V30 11609 H 1102.39 -1.2353 3.02337 0
M  V30 11610 H 1101.04 0.825464 3.57186 0
M  V30 11611 H 1100.69 -1.28769 4.86238 0
M  V30 11612 H 1100.39 0.14756 5.87415 0
M  V30 11613 H 1101.92 -0.766626 6.05768 0
M  V30 11614 H 1103.33 1.44676 5.54745 0
M  V30 11615 H 1101.73 2.23767 5.5682 0
M  V30 11616 H 1102.8 2.46853 4.17363 0
M  V30 11617 N 1104.14 -1.42577 0.671525 0
M  V30 11618 C 1105.55 -1.84736 0.270084 0
M  V30 11619 C 1105.9 -1.56212 -1.18711 0
M  V30 11620 O 1105.03 -1.02028 -1.90838 0
M  V30 11621 C 1105.62 -3.35334 0.483409 0
M  V30 11622 C 1104.18 -3.76154 0.136119 0
M  V30 11623 C 1103.33 -2.66179 0.777444 0
M  V30 11624 H 1106.28 -1.3247 0.873919 0
M  V30 11625 H 1106.3 -3.79573 -0.265483 0
M  V30 11626 H 1105.81 -3.56063 1.54405 0
M  V30 11627 H 1103.91 -3.61033 -0.921209 0
M  V30 11628 H 1104.03 -4.75645 0.574356 0
M  V30 11629 H 1102.39 -2.53841 0.209055 0
M  V30 11630 H 1103.17 -2.89732 1.84148 0
M  V30 11631 N 1105.62 -0.414636 -1.52048 0
M  V30 11632 C 1106.85 0.158686 -2.06291 0
M  V30 11633 C 1107.26 1.38397 -1.2842 0
M  V30 11634 O 1106.62 1.79351 -0.337539 0
M  V30 11635 C 1106.67 0.503634 -3.57975 0
M  V30 11636 O 1106.39 -0.672996 -4.329 0
M  V30 11637 C 1107.89 1.13009 -4.28653 0
M  V30 11638 H 1105.11 0.0179622 -0.67076 0
M  V30 11639 H 1107.66 -0.587177 -1.95889 0
M  V30 11640 H 1105.81 1.19939 -3.68366 0
M  V30 11641 H 1106.22 -0.383735 -5.23094 0
M  V30 11642 H 1107.7 1.32162 -5.35945 0
M  V30 11643 H 1108.18 2.10476 -3.85482 0
M  V30 11644 H 1108.78 0.474379 -4.22646 0
M  V30 11645 N 1107.1 1.56929 -0.145233 0
M  V30 11646 C 1108.01 2.20238 0.808219 0
M  V30 11647 C 1109.02 1.18615 1.27304 0
M  V30 11648 O 1110.2 1.51186 1.3306 0
M  V30 11649 C 1107.26 2.81016 2.03055 0
M  V30 11650 C 1106.32 3.97759 1.61512 0
M  V30 11651 C 1105.56 4.55628 2.77918 0
M  V30 11652 O 1105.78 4.12378 3.94082 0
M  V30 11653 O 1104.71 5.45917 2.53492 0
M  V30 11654 H 1108.54 3.02221 0.299314 0
M  V30 11655 H 1106.13 1.49176 0.0817051 0
M  V30 11656 H 1108.01 3.19652 2.74592 0
M  V30 11657 H 1106.68 2.02047 2.52901 0
M  V30 11658 H 1105.59 3.63842 0.870033 0
M  V30 11659 H 1106.92 4.78242 1.16383 0
M  V30 11660 N 1108.58 -0.128553 1.57075 0
M  V30 11661 C 1109.82 -0.839252 1.8462 0
M  V30 11662 C 1110.15 -1.79974 0.729582 0
M  V30 11663 O 1109.43 -1.92681 -0.265369 0
M  V30 11664 C 1109.71 -1.59756 3.22723 0
M  V30 11665 C 1109.57 -0.657313 4.44971 0
M  V30 11666 C 1110.88 -2.55592 3.58275 0
M  V30 11667 H 1108 -0.303652 0.671539 0
M  V30 11668 H 1110.65 -0.103802 1.89716 0
M  V30 11669 H 1108.8 -2.22451 3.18509 0
M  V30 11670 H 1110.47 -0.0399471 4.61283 0
M  V30 11671 H 1108.71 0.0318416 4.33788 0
M  V30 11672 H 1109.38 -1.22433 5.38251 0
M  V30 11673 H 1111.86 -2.03007 3.63218 0
M  V30 11674 H 1110.73 -3.05687 4.55902 0
M  V30 11675 H 1110.99 -3.37813 2.85193 0
M  V30 11676 N 1110.05 -1.5248 -0.398459 0
M  V30 11677 C 1110.98 -1.79549 -1.49279 0
M  V30 11678 C 1111.96 -0.647004 -1.57315 0
M  V30 11679 O 1113.15 -0.893661 -1.72416 0
M  V30 11680 C 1110.28 -1.95582 -2.86993 0
M  V30 11681 C 1109.23 -3.1123 -2.93803 0
M  V30 11682 C 1108.56 -3.12501 -4.33874 0
M  V30 11683 C 1109.86 -4.50485 -2.64312 0
M  V30 11684 H 1111.55 -2.71187 -1.26877 0
M  V30 11685 H 1109.1 -1.30492 -0.608924 0
M  V30 11686 H 1111.05 -2.13102 -3.63546 0
M  V30 11687 H 1109.78 -1.00625 -3.10712 0
M  V30 11688 H 1108.44 -2.93477 -2.19697 0
M  V30 11689 H 1108.08 -2.15245 -4.54619 0
M  V30 11690 H 1107.78 -3.90183 -4.39353 0
M  V30 11691 H 1109.31 -3.32164 -5.12347 0
M  V30 11692 H 1110.72 -4.68387 -3.30585 0
M  V30 11693 H 1109.12 -5.30163 -2.81153 0
M  V30 11694 H 1110.19 -4.57848 -1.59696 0
M  V30 11695 N 1111.53 0.65634 -1.43283 0
M  V30 11696 C 1112.76 1.44408 -1.48168 0
M  V30 11697 C 1113.17 1.88542 -0.0986016 0
M  V30 11698 O 1112.53 1.59298 0.890527 0
M  V30 11699 C 1112.58 2.68111 -2.42484 0
M  V30 11700 O 1112.3 2.25824 -3.75413 0
M  V30 11701 C 1113.8 3.61499 -2.56579 0
M  V30 11702 H 1111.02 0.443731 -0.503333 0
M  V30 11703 H 1113.57 0.804917 -1.87993 0
M  V30 11704 H 1111.72 3.28175 -2.05863 0
M  V30 11705 H 1112.14 3.05839 -4.26102 0
M  V30 11706 H 1113.61 4.44972 -3.26655 0
M  V30 11707 H 1114.09 4.08639 -1.60969 0
M  V30 11708 H 1114.69 3.07319 -2.93998 0
M  V30 11709 N 1113.01 1.29761 0.894412 0
M  V30 11710 C 1113.92 1.1724 2.03204 0
M  V30 11711 C 1114.94 0.0944452 1.73743 0
M  V30 11712 O 1116.11 0.307549 1.99038 0
M  V30 11713 C 1113.18 0.855416 3.35981 0
M  V30 11714 C 1112.24 2.01777 3.78926 0
M  V30 11715 C 1111.47 1.71581 5.05367 0
M  V30 11716 O 1111.69 0.639245 5.66807 0
M  V30 11717 O 1110.63 2.56539 5.44492 0
M  V30 11718 H 1114.45 2.12787 2.16692 0
M  V30 11719 H 1112.04 1.09264 1.0189 0
M  V30 11720 H 1113.92 0.693429 4.15656 0
M  V30 11721 H 1112.6 -0.0702195 3.23624 0
M  V30 11722 H 1111.5 2.23502 2.99996 0
M  V30 11723 H 1112.84 2.92479 3.95875 0
M  V30 11724 N 1114.49 -1.10549 1.12324 0
M  V30 11725 C 1115.4 -2.20428 0.803032 0
M  V30 11726 C 1116.41 -1.72756 -0.207674 0
M  V30 11727 O 1117.59 -2.01357 -0.0415623 0
M  V30 11728 C 1114.65 -3.45716 0.261032 0
M  V30 11729 C 1113.72 -4.08129 1.33152 0
M  V30 11730 C 1112.95 -5.27436 0.815288 0
M  V30 11731 O 1113.17 -5.69317 -0.351361 0
M  V30 11732 O 1112.11 -5.80674 1.58434 0
M  V30 11733 H 1115.93 -2.50249 1.72073 0
M  V30 11734 H 1113.52 -1.19263 0.899815 0
M  V30 11735 H 1115.4 -4.21384 -0.0364007 0
M  V30 11736 H 1114.07 -3.17525 -0.629249 0
M  V30 11737 H 1112.98 -3.3415 1.6821 0
M  V30 11738 H 1114.31 -4.4052 2.19552 0
M  V30 11739 N 1115.97 -0.914965 -1.28321 0
M  V30 11740 C 1117.21 -0.549562 -1.95212 0
M  V30 11741 C 1117.54 0.904658 -1.71842 0
M  V30 11742 O 1116.82 1.64354 -1.04009 0
M  V30 11743 C 1117.1 -0.860927 -3.49657 0
M  V30 11744 C 1116.96 -2.36797 -3.82423 0
M  V30 11745 C 1118.27 -0.357926 -4.38642 0
M  V30 11746 H 1115.39 -0.201136 -0.709023 0
M  V30 11747 H 1118.04 -1.14443 -1.51667 0
M  V30 11748 H 1116.19 -0.354665 -3.86878 0
M  V30 11749 H 1117.86 -2.94494 -3.55065 0
M  V30 11750 H 1116.1 -2.82245 -3.29424 0
M  V30 11751 H 1116.77 -2.53637 -4.90278 0
M  V30 11752 H 1119.25 -0.791636 -4.085 0
M  V30 11753 H 1118.12 -0.604855 -5.45557 0
M  V30 11754 H 1118.38 0.741775 -4.35833 0
M  V30 11755 N 1117.44 1.42219 -0.679077 0
M  V30 11756 C 1118.69 2.01777 -0.20342 0
M  V30 11757 C 1119.02 1.53592 1.18841 0
M  V30 11758 O 1118.3 0.739954 1.79875 0
M  V30 11759 C 1118.58 3.59281 -0.242791 0
M  V30 11760 C 1118.43 4.17634 -1.67038 0
M  V30 11761 C 1119.75 4.38218 0.406624 0
M  V30 11762 H 1116.87 0.733134 -0.0753916 0
M  V30 11763 H 1119.51 1.69185 -0.864673 0
M  V30 11764 H 1117.66 3.87178 0.320248 0
M  V30 11765 H 1119.34 4.00674 -2.286 0
M  V30 11766 H 1117.58 3.73301 -2.20973 0
M  V30 11767 H 1118.25 5.26776 -1.64958 0
M  V30 11768 H 1120.73 4.16036 -0.0727077 0
M  V30 11769 H 1119.6 5.47793 0.348457 0
M  V30 11770 H 1119.86 4.16418 1.48487 0
M  V30 11771 N 1118.92 0.422693 1.51826 0
M  V30 11772 C 1119.85 -0.386913 2.30272 0
M  V30 11773 C 1120.83 -1.03411 1.35056 0
M  V30 11774 O 1122.02 -1.04055 1.6397 0
M  V30 11775 C 1119.15 -1.49645 3.13407 0
M  V30 11776 C 1118.1 -0.973532 4.16781 0
M  V30 11777 C 1117.43 -2.1777 4.88344 0
M  V30 11778 C 1118.73 -0.0181194 5.22297 0
M  V30 11779 H 1120.42 0.267697 2.98201 0
M  V30 11780 H 1117.97 0.130186 1.4341 0
M  V30 11781 H 1119.92 -2.06993 3.67059 0
M  V30 11782 H 1118.64 -2.17914 2.43272 0
M  V30 11783 H 1117.3 -0.42237 3.64159 0
M  V30 11784 H 1116.95 -2.84625 4.14726 0
M  V30 11785 H 1116.65 -1.83427 5.58237 0
M  V30 11786 H 1118.18 -2.75699 5.44814 0
M  V30 11787 H 1119.59 -0.500822 5.71108 0
M  V30 11788 H 1117.99 0.237163 5.99631 0
M  V30 11789 H 1119.06 0.923065 4.76033 0
M  V30 11790 N 1120.4 -1.5685 0.153553 0
M  V30 11791 C 1121.35 -2.1709 -0.783626 0
M  V30 11792 C 1122.32 -1.10567 -1.23952 0
M  V30 11793 O 1123.5 -1.38638 -1.31088 0
M  V30 11794 C 1120.64 -2.80183 -2.01473 0
M  V30 11795 C 1119.75 -4.01117 -1.60403 0
M  V30 11796 C 1118.89 -4.5219 -2.78743 0
M  V30 11797 C 1117.93 -5.65574 -2.34079 0
M  V30 11798 N 1117.07 -6.11235 -3.4545 0
M  V30 11799 H 1121.91 -2.96836 -0.263127 0
M  V30 11800 H 1119.44 -1.46625 -0.11816 0
M  V30 11801 H 1121.4 -3.14912 -2.73654 0
M  V30 11802 H 1120.03 -2.03071 -2.50923 0
M  V30 11803 H 1119.08 -3.72325 -0.779631 0
M  V30 11804 H 1120.39 -4.83243 -1.23605 0
M  V30 11805 H 1119.55 -4.89008 -3.59105 0
M  V30 11806 H 1118.29 -3.69085 -3.18791 0
M  V30 11807 H 1117.29 -5.28326 -1.52158 0
M  V30 11808 H 1118.52 -6.50468 -1.95109 0
M  V30 11809 H 1116.46 -5.31064 -3.85106 0
M  V30 11810 H 1116.38 -6.88304 -3.12687 0
M  V30 11811 H 1117.65 -6.527 -4.26149 0
M  V30 11812 N 1121.88 0.120221 -1.57141 0
M  V30 11813 C 1123.11 0.842441 -1.88972 0
M  V30 11814 C 1123.52 1.73494 -0.744671 0
M  V30 11815 O 1122.88 1.80268 0.284557 0
M  V30 11816 C 1122.93 1.67688 -3.20254 0
M  V30 11817 O 1122.65 0.820319 -4.30351 0
M  V30 11818 C 1124.15 2.50436 -3.65782 0
M  V30 11819 H 1121.37 0.242241 -0.625748 0
M  V30 11820 H 1123.91 0.104978 -2.0423 0
M  V30 11821 H 1122.07 2.36712 -3.0667 0
M  V30 11822 H 1122.48 1.39575 -5.05588 0
M  V30 11823 H 1123.96 3.04518 -4.60405 0
M  V30 11824 H 1124.43 3.27737 -2.92378 0
M  V30 11825 H 1125.04 1.86657 -3.82151 0
M  V30 11826 N 1123.36 1.52689 0.390367 0
M  V30 11827 C 1124.6 1.67335 1.13329 0
M  V30 11828 C 1124.93 0.415068 1.90531 0
M  V30 11829 O 1124.2 -0.570504 1.87409 0
M  V30 11830 H 1122.78 0.616821 0.421356 0
M  V30 11831 H 1125.44 1.89799 0.443 0
M  V30 11832 H 1124.53 2.52314 1.83696 0
M  V30 11833 N 1124.83 -0.648732 1.43629 0
M  V30 11834 C 1126.11 -1.4062 1.35961 0
M  V30 11835 C 1126.49 -2.11098 0.00961023 0
M  V30 11836 O 1125.84 -2.05107 -1.00714 0
M  V30 11837 C 1126.05 -2.38719 2.54586 0
M  V30 11838 C 1127.4 -3.02584 2.97873 0
M  V30 11839 O 1128.42 -2.49046 2.54665 0
M  V30 11840 O 1127.28 -3.99662 3.72736 0
M  V30 11841 H 1124.37 -0.628483 0.53753 0
M  V30 11842 H 1126.92 -0.675263 1.55687 0
M  V30 11843 H 1125.69 -1.85619 3.44472 0
M  V30 11844 H 1125.32 -3.19257 2.36983 0
M  V30 11845 N 1126.31 -1.30234 -0.887518 0
M  V30 11846 C 1127.24 -1.18969 -2.00919 0
M  V30 11847 C 1128.22 -0.080952 -1.69907 0
M  V30 11848 O 1129.41 -0.262546 -1.92417 0
M  V30 11849 C 1126.54 -0.878094 -3.36016 0
M  V30 11850 C 1125.49 -1.94449 -3.81279 0
M  V30 11851 C 1124.82 -1.48594 -5.13638 0
M  V30 11852 C 1126.12 -3.35519 -4.00281 0
M  V30 11853 H 1127.81 -2.12808 -2.10602 0
M  V30 11854 H 1125.36 -1.02454 -1.01189 0
M  V30 11855 H 1127.31 -0.785954 -4.14006 0
M  V30 11856 H 1126.04 0.0959779 -3.26459 0
M  V30 11857 H 1124.69 -2.02622 -3.05516 0
M  V30 11858 H 1124.34 -0.500204 -5.00507 0
M  V30 11859 H 1124.04 -2.19921 -5.44893 0
M  V30 11860 H 1125.57 -1.40754 -5.94156 0
M  V30 11861 H 1126.98 -3.30119 -4.68716 0
M  V30 11862 H 1125.38 -4.0491 -4.42909 0
M  V30 11863 H 1126.45 -3.77597 -3.04218 0
M  V30 11864 N 1127.79 1.09952 -1.12909 0
M  V30 11865 C 1128.72 2.16257 -0.759305 0
M  V30 11866 C 1129.74 1.61355 0.216427 0
M  V30 11867 O 1130.92 1.785 -0.00297224 0
M  V30 11868 C 1128.02 3.38741 -0.103908 0
M  V30 11869 C 1127.2 4.23072 -1.11037 0
M  V30 11870 C 1126.26 5.23991 -0.481667 0
M  V30 11871 O 1125.28 5.57665 -1.14011 0
M  V30 11872 N 1126.48 5.75652 0.748698 0
M  V30 11873 H 1129.25 2.48588 -1.67405 0
M  V30 11874 H 1126.81 1.25617 -1.02137 0
M  V30 11875 H 1128.8 4.03362 0.328799 0
M  V30 11876 H 1127.37 3.04344 0.713677 0
M  V30 11877 H 1126.59 3.5467 -1.72054 0
M  V30 11878 H 1127.88 4.76244 -1.79078 0
M  V30 11879 H 1127.28 5.505 1.30253 0
M  V30 11880 H 1125.84 6.42033 1.12415 0
M  V30 11881 N 1129.27 0.921757 1.27833 0
M  V30 11882 C 1130.68 0.604496 1.76643 0
M  V30 11883 C 1131.03 -0.880294 1.75343 0
M  V30 11884 O 1130.16 -1.68875 1.35315 0
M  V30 11885 C 1130.75 1.09055 3.20768 0
M  V30 11886 C 1129.31 0.824066 3.67268 0
M  V30 11887 C 1128.46 1.25269 2.47392 0
M  V30 11888 H 1131.41 1.10217 1.14184 0
M  V30 11889 H 1131.43 0.435558 3.77999 0
M  V30 11890 H 1130.94 2.17122 3.21682 0
M  V30 11891 H 1129.04 -0.243055 3.71806 0
M  V30 11892 H 1129.15 1.43743 4.57028 0
M  V30 11893 H 1127.52 0.671313 2.45694 0
M  V30 11894 H 1128.3 2.34188 2.5102 0
M  V30 11895 N 1130.75 -1.41857 0.686609 0
M  V30 11896 C 1131.68 -2.33481 0.0298353 0
M  V30 11897 C 1132.66 -1.51329 -0.776756 0
M  V30 11898 O 1133.84 -1.79895 -0.731535 0
M  V30 11899 C 1130.97 -3.35065 -0.913707 0
M  V30 11900 C 1129.93 -4.2746 -0.214861 0
M  V30 11901 C 1129.25 -5.19346 -1.27215 0
M  V30 11902 C 1130.55 -5.14252 0.913367 0
M  V30 11903 H 1132.25 -2.8865 0.795067 0
M  V30 11904 H 1129.79 -1.38792 0.383785 0
M  V30 11905 H 1131.75 -3.98082 -1.38234 0
M  V30 11906 H 1130.47 -2.78226 -1.7105 0
M  V30 11907 H 1129.13 -3.65855 0.233651 0
M  V30 11908 H 1128.78 -4.58827 -2.06124 0
M  V30 11909 H 1128.48 -5.81996 -0.80961 0
M  V30 11910 H 1130 -5.85239 -1.74147 0
M  V30 11911 H 1131.41 -5.70887 0.525424 0
M  V30 11912 H 1129.81 -5.85796 1.30244 0
M  V30 11913 H 1130.88 -4.51949 1.75699 0
M  V30 11914 N 1132.22 -0.430739 -1.51599 0
M  V30 11915 C 1133.13 0.390347 -2.3133 0
M  V30 11916 C 1134.15 1.03376 -1.39962 0
M  V30 11917 O 1135.33 1.03057 -1.73035 0
M  V30 11918 C 1132.39 1.48039 -3.13505 0
M  V30 11919 C 1131.45 0.857792 -4.20643 0
M  V30 11920 C 1130.69 1.89589 -4.9889 0
M  V30 11921 O 1130.91 3.11717 -4.77691 0
M  V30 11922 O 1129.84 1.49009 -5.83164 0
M  V30 11923 H 1133.67 -0.260358 -3.02582 0
M  V30 11924 H 1131.25 -0.193428 -1.48143 0
M  V30 11925 H 1133.14 2.11272 -3.64612 0
M  V30 11926 H 1131.81 2.1153 -2.45024 0
M  V30 11927 H 1130.72 0.187592 -3.73629 0
M  V30 11928 H 1132.05 0.266474 -4.91478 0
M  V30 11929 N 1133.7 1.56767 -0.161869 0
M  V30 11930 C 1134.63 2.1466 0.803356 0
M  V30 11931 C 1135.65 1.09977 1.20037 0
M  V30 11932 O 1136.84 1.37199 1.14187 0
M  V30 11933 C 1133.94 2.66663 2.09151 0
M  V30 11934 C 1133.11 3.95904 1.85953 0
M  V30 11935 C 1132.17 4.33067 2.98897 0
M  V30 11936 O 1131.19 5.01119 2.69942 0
M  V30 11937 N 1132.4 3.93856 4.26448 0
M  V30 11938 H 1135.16 2.98108 0.308472 0
M  V30 11939 H 1132.72 1.61886 0.0212238 0
M  V30 11940 H 1134.71 2.88528 2.83784 0
M  V30 11941 H 1133.28 1.87856 2.49857 0
M  V30 11942 H 1132.5 3.82513 0.952751 0
M  V30 11943 H 1133.79 4.8033 1.67811 0
M  V30 11944 H 1133.19 3.39051 4.52836 0
M  V30 11945 H 1131.75 4.20741 4.97815 0
M  V30 11946 N 1135.18 -0.111886 1.57202 0
M  V30 11947 C 1136.59 -0.668261 1.74331 0
M  V30 11948 C 1136.94 -1.79959 0.781609 0
M  V30 11949 O 1136.07 -2.16356 -0.043833 0
M  V30 11950 C 1136.66 -1.219 3.1611 0
M  V30 11951 C 1135.22 -1.7216 3.34721 0
M  V30 11952 C 1134.37 -0.624223 2.70183 0
M  V30 11953 H 1137.32 0.114081 1.58289 0
M  V30 11954 H 1137.34 -2.08858 3.18054 0
M  V30 11955 H 1136.85 -0.395381 3.86081 0
M  V30 11956 H 1134.95 -2.56976 2.69803 0
M  V30 11957 H 1135.07 -1.82615 4.42932 0
M  V30 11958 H 1133.43 -1.05958 2.31614 0
M  V30 11959 H 1134.21 0.188537 3.42782 0
M  V30 11960 N 1136.66 -1.52894 -0.382264 0
M  V30 11961 C 1137.89 -1.72152 -1.14766 0
M  V30 11962 C 1138.3 -0.442911 -1.83531 0
M  V30 11963 O 1137.66 0.583085 -1.72935 0
M  V30 11964 C 1137.71 -2.87566 -2.19062 0
M  V30 11965 O 1137.43 -4.10478 -1.53099 0
M  V30 11966 C 1138.93 -3.18559 -3.08277 0
M  V30 11967 H 1136.15 -0.576212 -0.343832 0
M  V30 11968 H 1138.7 -1.99571 -0.446273 0
M  V30 11969 H 1136.85 -2.62589 -2.84826 0
M  V30 11970 H 1137.26 -4.74989 -2.22454 0
M  V30 11971 H 1138.74 -4.02763 -3.77473 0
M  V30 11972 H 1139.22 -2.33222 -3.72161 0
M  V30 11973 H 1139.82 -3.454 -2.48151 0
M  V30 11974 N 1138.14 0.641106 -1.43971 0
M  V30 11975 C 1139.36 1.43324 -1.4991 0
M  V30 11976 C 1139.79 1.87705 -0.121908 0
M  V30 11977 O 1139.15 1.58127 0.886875 0
M  V30 11978 C 1139.19 2.63637 -2.46025 0
M  V30 11979 O 1138.3 3.63123 -1.95488 0
M  V30 11980 H 1137.64 0.429252 -0.506595 0
M  V30 11981 H 1140.17 0.783427 -1.89007 0
M  V30 11982 H 1140.18 3.11304 -2.63731 0
M  V30 11983 H 1138.85 2.30678 -3.46064 0
M  V30 11984 H 1137.43 3.22332 -1.87501 0
M  V30 11985 N 1139.62 1.30703 0.880598 0
M  V30 11986 C 1140.53 1.19389 2.01949 0
M  V30 11987 C 1141.54 0.112868 1.73634 0
M  V30 11988 O 1142.72 0.328643 1.98701 0
M  V30 11989 C 1139.78 0.891004 3.35055 0
M  V30 11990 C 1138.84 2.05784 3.76764 0
M  V30 11991 C 1138.08 1.76931 5.03519 0
M  V30 11992 O 1138.3 0.699326 5.66097 0
M  V30 11993 O 1137.23 2.623 5.4174 0
M  V30 11994 H 1141.06 2.15073 2.14423 0
M  V30 11995 H 1138.64 1.10339 1.00726 0
M  V30 11996 H 1140.53 0.737476 4.14897 0
M  V30 11997 H 1139.2 -0.0358909 3.2368 0
M  V30 11998 H 1138.11 2.26672 2.97608 0
M  V30 11999 H 1139.44 2.96661 3.9275 0
M  V30 12000 N 1141.09 -1.09351 1.1349 0
M  V30 12001 C 1142.06 -2.14185 0.815919 0
M  V30 12002 C 1143.06 -1.59845 -0.174976 0
M  V30 12003 O 1144.25 -1.74122 0.0521971 0
M  V30 12004 C 1141.38 -3.40224 0.214517 0
M  V30 12005 H 1142.57 -2.43913 1.74489 0
M  V30 12006 H 1140.12 -1.24902 0.939634 0
M  V30 12007 H 1140.86 -3.16123 -0.723634 0
M  V30 12008 H 1140.64 -3.80958 0.928102 0
M  V30 12009 H 1142.13 -4.17599 0.00821999 0
M  V30 12010 N 1142.57 -0.928524 -1.27343 0
M  V30 12011 C 1143.82 -0.570235 -1.94618 0
M  V30 12012 C 1144.15 0.886381 -1.72792 0
M  V30 12013 O 1143.43 1.63242 -1.05747 0
M  V30 12014 C 1143.71 -0.897964 -3.48724 0
M  V30 12015 C 1143.56 -2.40839 -3.7989 0
M  V30 12016 C 1144.88 -0.404429 -4.38238 0
M  V30 12017 H 1142 -0.208645 -0.70685 0
M  V30 12018 H 1144.64 -1.16045 -1.50444 0
M  V30 12019 H 1142.79 -0.395679 -3.8648 0
M  V30 12020 H 1144.46 -2.98243 -3.51921 0
M  V30 12021 H 1142.71 -2.85723 -3.26412 0
M  V30 12022 H 1143.38 -2.58823 -4.8756 0
M  V30 12023 H 1145.85 -0.834918 -4.07637 0
M  V30 12024 H 1144.73 -0.662684 -5.44885 0
M  V30 12025 H 1144.99 0.695507 -4.36595 0
M  V30 12026 N 1144.05 1.41491 -0.694123 0
M  V30 12027 C 1144.96 2.34583 -0.0283414 0
M  V30 12028 C 1145.98 1.5615 0.767662 0
M  V30 12029 O 1147.15 1.88637 0.705556 0
M  V30 12030 C 1144.22 3.34876 0.897726 0
M  V30 12031 C 1143.28 4.29197 0.0940905 0
M  V30 12032 C 1142.51 5.24699 0.976051 0
M  V30 12033 O 1142.73 5.25613 2.21556 0
M  V30 12034 O 1141.67 6.00387 0.426503 0
M  V30 12035 H 1145.49 2.93092 -0.795656 0
M  V30 12036 H 1143.08 1.4232 -0.45445 0
M  V30 12037 H 1144.96 3.96438 1.4288 0
M  V30 12038 H 1143.64 2.78812 1.64456 0
M  V30 12039 H 1142.54 3.70988 -0.481552 0
M  V30 12040 H 1143.88 4.88355 -0.614045 0
M  V30 12041 N 1145.53 0.438773 1.51369 0
M  V30 12042 C 1146.49 -0.36032 2.2635 0
M  V30 12043 C 1147.49 -0.948465 1.29849 0
M  V30 12044 O 1148.68 -0.822692 1.53549 0
M  V30 12045 C 1145.81 -1.50994 3.05636 0
M  V30 12046 H 1147.01 0.296826 2.98427 0
M  V30 12047 H 1144.56 0.191978 1.55117 0
M  V30 12048 H 1145.29 -2.2031 2.37979 0
M  V30 12049 H 1145.08 -1.09437 3.76518 0
M  V30 12050 H 1146.57 -2.07447 3.6243 0
M  V30 12051 N 1147.01 -1.56678 0.170181 0
M  V30 12052 C 1148.42 -1.83452 -0.346742 0
M  V30 12053 C 1148.77 -1.08993 -1.63141 0
M  V30 12054 O 1147.89 -0.342607 -2.13671 0
M  V30 12055 C 1148.49 -3.32779 -0.635882 0
M  V30 12056 C 1147.05 -3.60052 -1.09725 0
M  V30 12057 C 1146.19 -2.76983 -0.132516 0
M  V30 12058 H 1149.14 -1.53719 0.394465 0
M  V30 12059 H 1149.17 -3.50195 -1.48806 0
M  V30 12060 H 1148.68 -3.86944 0.299291 0
M  V30 12061 H 1146.78 -3.11297 -2.04756 0
M  V30 12062 H 1146.89 -4.68393 -1.00719 0
M  V30 12063 H 1145.26 -2.46794 -0.62966 0
M  V30 12064 H 1146.04 -3.33929 0.796658 0
M  V30 12065 N 1148.48 0.103547 -1.57259 0
M  V30 12066 C 1149.41 1.12714 -2.04494 0
M  V30 12067 C 1150.39 1.42278 -0.932255 0
M  V30 12068 O 1151.58 1.52453 -1.20298 0
M  V30 12069 C 1148.71 2.44927 -2.46228 0
M  V30 12070 C 1147.66 2.2979 -3.61082 0
M  V30 12071 C 1146.99 3.67105 -3.88765 0
M  V30 12072 C 1148.29 1.7455 -4.9227 0
M  V30 12073 H 1149.98 0.734198 -2.90258 0
M  V30 12074 H 1147.53 0.351725 -1.39638 0
M  V30 12075 H 1149.48 3.16798 -2.77879 0
M  V30 12076 H 1148.21 2.8614 -1.57453 0
M  V30 12077 H 1146.87 1.60366 -3.29664 0
M  V30 12078 H 1146.51 4.05831 -2.97171 0
M  V30 12079 H 1146.21 3.57825 -4.66084 0
M  V30 12080 H 1147.74 4.40456 -4.22884 0
M  V30 12081 H 1149.15 2.36253 -5.22358 0
M  V30 12082 H 1147.55 1.76051 -5.73695 0
M  V30 12083 H 1148.62 0.704242 -4.79759 0
M  V30 12084 N 1149.96 1.53094 0.37415 0
M  V30 12085 C 1151.21 1.69111 1.11934 0
M  V30 12086 C 1151.54 0.437252 1.89213 0
M  V30 12087 O 1150.82 -0.565298 1.86104 0
M  V30 12088 C 1151.1 2.93559 2.08554 0
M  V30 12089 C 1150.95 4.29082 1.3494 0
M  V30 12090 C 1152.27 3.13586 3.08791 0
M  V30 12091 H 1149.39 0.615383 0.405553 0
M  V30 12092 H 1152.03 1.85719 0.401078 0
M  V30 12093 H 1150.18 2.79531 2.69805 0
M  V30 12094 H 1151.85 4.54906 0.765402 0
M  V30 12095 H 1150.1 4.28884 0.651238 0
M  V30 12096 H 1150.77 5.12275 2.05616 0
M  V30 12097 H 1153.24 3.26743 2.57639 0
M  V30 12098 H 1152.12 4.02112 3.73627 0
M  V30 12099 H 1152.38 2.28475 3.78486 0
M  V30 12100 N 1151.44 -0.633461 1.44309 0
M  V30 12101 C 1152.69 -1.39031 1.46679 0
M  V30 12102 C 1153.01 -1.94745 0.0997165 0
M  V30 12103 O 1152.28 -1.75637 -0.867659 0
M  V30 12104 H 1150.86 -0.516051 0.540093 0
M  V30 12105 H 1153.52 -0.745739 1.80069 0
M  V30 12106 H 1152.62 -2.2228 2.19085 0
M  V30 12107 N 1152.92 -1.31168 -0.873655 0
M  V30 12108 C 1154.15 -1.23595 -1.65927 0
M  V30 12109 C 1154.56 0.199349 -1.87745 0
M  V30 12110 O 1153.92 1.13013 -1.43298 0
M  V30 12111 C 1153.97 -1.97268 -3.02932 0
M  V30 12112 O 1153.69 -3.35196 -2.82091 0
M  V30 12113 C 1155.19 -1.9649 -3.97374 0
M  V30 12114 H 1152.41 -0.427228 -0.517414 0
M  V30 12115 H 1154.96 -1.72983 -1.09074 0
M  V30 12116 H 1153.11 -1.51651 -3.56484 0
M  V30 12117 H 1153.52 -3.7266 -3.69087 0
M  V30 12118 H 1155 -2.52557 -4.90835 0
M  V30 12119 H 1155.48 -0.946525 -4.28879 0
M  V30 12120 H 1156.08 -2.4197 -3.49758 0
M  V30 12121 N 1154.4 1.08748 -1.14068 0
M  V30 12122 C 1155.81 1.62551 -0.918379 0
M  V30 12123 C 1156.16 1.8852 0.543583 0
M  V30 12124 O 1155.28 1.64007 1.41176 0
M  V30 12125 C 1155.88 2.95309 -1.66066 0
M  V30 12126 C 1154.44 3.4591 -1.48403 0
M  V30 12127 C 1153.58 2.20204 -1.6854 0
M  V30 12128 H 1156.54 0.920196 -1.29298 0
M  V30 12129 H 1156.56 3.63587 -1.12181 0
M  V30 12130 H 1156.07 2.76377 -2.72465 0
M  V30 12131 H 1154.17 3.69953 -0.443353 0
M  V30 12132 H 1154.28 4.2289 -2.25169 0
M  V30 12133 H 1152.65 2.29203 -1.11077 0
M  V30 12134 H 1153.43 2.03783 -2.76274 0
M  V30 12135 N 1155.87 0.935264 1.26849 0
M  V30 12136 C 1157.12 0.580548 1.94313 0
M  V30 12137 C 1157.45 -0.877205 1.73259 0
M  V30 12138 O 1156.73 -1.62679 1.06611 0
M  V30 12139 C 1157.01 0.916445 3.48243 0
M  V30 12140 C 1156.86 2.42851 3.78607 0
M  V30 12141 C 1158.18 0.427665 4.38017 0
M  V30 12142 H 1155.3 0.21239 0.705733 0
M  V30 12143 H 1157.94 1.16841 1.49827 0
M  V30 12144 H 1156.09 0.416169 3.86265 0
M  V30 12145 H 1157.77 3.00106 3.50335 0
M  V30 12146 H 1156.01 2.8745 3.24892 0
M  V30 12147 H 1156.68 2.61405 4.8618 0
M  V30 12148 H 1159.16 0.856525 4.07189 0
M  V30 12149 H 1158.03 0.691571 5.44526 0
M  V30 12150 H 1158.29 -0.672344 4.36958 0
M  V30 12151 N 1157.35 -1.41121 0.701616 0
M  V30 12152 C 1158.59 -2.02993 0.239383 0
M  V30 12153 C 1158.96 -1.5439 -1.1414 0
M  V30 12154 O 1160.16 -2.08229 -1.69982 0
M  V30 12155 C 1158.43 -3.56128 0.301232 0
M  V30 12156 S 1159.99 -4.38716 -0.0860681 0
M  V30 12157 H 1156.81 -0.704494 0.0959645 0
M  V30 12158 H 1159.41 -1.72461 0.920736 0
M  V30 12159 H 1158.11 -3.88996 1.30805 0
M  V30 12160 H 1157.64 -3.91371 -0.399069 0
M  V30 12161 H 1159.66 -4.78537 -1.31212 0
M  V30 12162 N 1158.83 -0.446794 -1.51134 0
M  V30 12163 C 1160.08 0.118047 -2.01354 0
M  V30 12164 C 1160.39 1.42953 -1.33505 0
M  V30 12165 O 1161.6 2.07788 -1.74747 0
M  V30 12166 C 1160.05 0.260912 -3.58953 0
M  V30 12167 C 1159.66 -1.0407 -4.35745 0
M  V30 12168 C 1161.41 0.779014 -4.17291 0
M  V30 12169 C 1159.31 -0.862958 -5.8507 0
M  V30 12170 H 1158.24 0.0478915 -0.752478 0
M  V30 12171 H 1160.89 -0.577997 -1.74159 0
M  V30 12172 H 1159.28 1.02018 -3.82633 0
M  V30 12173 H 1160.45 -1.80903 -4.23805 0
M  V30 12174 H 1158.77 -1.48805 -3.88904 0
M  V30 12175 H 1161.36 0.928636 -5.26574 0
M  V30 12176 H 1161.71 1.76399 -3.7708 0
M  V30 12177 H 1162.24 0.0778022 -3.97724 0
M  V30 12178 H 1158.98 -1.82059 -6.2971 0
M  V30 12179 H 1158.5 -0.134588 -5.99649 0
M  V30 12180 H 1160.18 -0.51989 -6.44908 0
M  V30 12181 N 1160.31 1.56586 -0.178487 0
M  V30 12182 C 1161.26 2.19631 0.765822 0
M  V30 12183 C 1162.25 1.16247 1.23219 0
M  V30 12184 O 1163.46 1.34431 1.19701 0
M  V30 12185 H 1159.83 0.703661 0.265264 0
M  V30 12186 H 1161.8 2.97659 0.210207 0
M  V30 12187 C 1160.55 2.85686 1.98188 0
M  V30 12188 H 1159.87 3.64971 1.63206 0
M  V30 12189 H 1161.31 3.33259 2.62134 0
M  V30 12190 C 1159.77 1.85837 2.81009 0
M  V30 12191 O 1160.3 1.3483 3.78396 0
M  V30 12192 N 1158.51 1.54435 2.46167 0
M  V30 12193 H 1158.06 1.96107 1.67032 0
M  V30 12194 H 1158.01 0.878808 3.01868 0
M  V30 12195 N 1161.79 -0.095206 1.57312 0
M  V30 12196 C 1163.03 -0.797142 1.85715 0
M  V30 12197 C 1163.36 -1.79275 0.767171 0
M  V30 12198 O 1162.63 -1.94808 -0.206584 0
M  V30 12199 H 1161.21 -0.297382 0.685254 0
M  V30 12200 H 1163.87 -0.0768617 1.94748 0
M  V30 12201 H 1162.96 -1.32779 2.82447 0
M  V30 12202 N 1163.26 -1.53291 -0.366026 0
M  V30 12203 C 1164.19 -1.82675 -1.45437 0
M  V30 12204 C 1165.18 -0.680227 -1.55907 0
M  V30 12205 O 1166.36 -0.930032 -1.70482 0
M  V30 12206 C 1163.49 -2.01626 -2.8278 0
M  V30 12207 C 1162.44 -3.17391 -2.87135 0
M  V30 12208 C 1161.77 -3.21634 -4.27148 0
M  V30 12209 C 1163.07 -4.5599 -2.54697 0
M  V30 12210 H 1164.76 -2.73818 -1.21096 0
M  V30 12211 H 1162.31 -1.31754 -0.581108 0
M  V30 12212 H 1164.26 -2.20765 -3.58944 0
M  V30 12213 H 1162.99 -1.07193 -3.08508 0
M  V30 12214 H 1161.65 -2.98071 -2.13422 0
M  V30 12215 H 1161.29 -2.2484 -4.49951 0
M  V30 12216 H 1160.99 -3.99414 -4.30978 0
M  V30 12217 H 1162.52 -3.42957 -5.05186 0
M  V30 12218 H 1163.93 -4.75294 -3.20575 0
M  V30 12219 H 1162.33 -5.36008 -2.69844 0
M  V30 12220 H 1163.4 -4.61133 -1.49949 0
M  V30 12221 N 1164.74 0.6258 -1.44643 0
M  V30 12222 C 1165.68 1.75056 -1.46392 0
M  V30 12223 C 1166.65 1.59376 -0.322179 0
M  V30 12224 O 1167.84 1.81187 -0.519956 0
M  V30 12225 C 1164.96 3.12689 -1.30166 0
M  V30 12226 C 1164.01 3.47005 -2.47972 0
M  V30 12227 S 1164.84 3.43885 -4.10491 0
M  V30 12228 C 1166 4.84129 -3.96698 0
M  V30 12229 H 1166.23 1.73306 -2.41562 0
M  V30 12230 H 1163.77 0.800879 -1.32005 0
M  V30 12231 H 1165.72 3.9211 -1.21492 0
M  V30 12232 H 1164.38 3.11972 -0.364982 0
M  V30 12233 H 1163.58 4.47171 -2.32496 0
M  V30 12234 H 1163.18 2.75059 -2.53414 0
M  V30 12235 H 1165.47 5.73488 -3.60718 0
M  V30 12236 H 1166.41 5.0466 -4.96713 0
M  V30 12237 H 1166.82 4.58954 -3.28666 0
M  V30 12238 N 1166.22 1.31629 0.866686 0
M  V30 12239 C 1167.15 1.22151 1.99001 0
M  V30 12240 C 1168.13 0.107972 1.69757 0
M  V30 12241 O 1169.32 0.293125 1.91975 0
M  V30 12242 C 1166.45 0.93144 3.34577 0
M  V30 12243 C 1165.4 2.0049 3.78137 0
M  V30 12244 C 1164.73 1.56747 5.11209 0
M  V30 12245 C 1166.03 3.41844 3.94892 0
M  V30 12246 H 1167.72 2.16132 2.0719 0
M  V30 12247 H 1165.27 1.04051 0.995463 0
M  V30 12248 H 1167.22 0.851719 4.12703 0
M  V30 12249 H 1165.94 -0.0440289 3.2657 0
M  V30 12250 H 1164.6 2.07457 3.02253 0
M  V30 12251 H 1164.25 0.579767 4.99648 0
M  V30 12252 H 1163.95 2.28562 5.41326 0
M  V30 12253 H 1165.47 1.50188 5.91841 0
M  V30 12254 H 1166.89 3.37534 4.63405 0
M  V30 12255 H 1165.29 4.11905 4.36411 0
M  V30 12256 H 1166.36 3.82389 2.98172 0
M  V30 12257 N 1167.7 -1.08142 1.14644 0
M  V30 12258 C 1168.63 -2.17139 0.858667 0
M  V30 12259 C 1169.61 -1.69064 -0.187452 0
M  V30 12260 O 1170.8 -1.94151 -0.0435458 0
M  V30 12261 C 1167.93 -3.45648 0.33834 0
M  V30 12262 C 1166.88 -4.07129 1.32021 0
M  V30 12263 C 1166.21 -5.30623 0.659075 0
M  V30 12264 C 1167.51 -4.48095 2.68343 0
M  V30 12265 H 1169.2 -2.41468 1.77012 0
M  V30 12266 H 1166.75 -1.16052 0.852523 0
M  V30 12267 H 1168.7 -4.21216 0.124611 0
M  V30 12268 H 1167.42 -3.2088 -0.608553 0
M  V30 12269 H 1166.08 -3.33596 1.52016 0
M  V30 12270 H 1165.73 -5.02142 -0.293711 0
M  V30 12271 H 1165.43 -5.72714 1.31427 0
M  V30 12272 H 1166.95 -6.08903 0.454933 0
M  V30 12273 H 1168.37 -5.14828 2.5224 0
M  V30 12274 H 1166.76 -5.01113 3.30161 0
M  V30 12275 H 1167.83 -3.59852 3.25015 0
M  V30 12276 N 1169.18 -0.941978 -1.26351 0
M  V30 12277 C 1170.09 -0.45833 -2.30079 0
M  V30 12278 C 1171.1 0.468084 -1.67586 0
M  V30 12279 O 1172.28 0.347418 -1.98381 0
M  V30 12280 C 1169.34 0.26797 -3.45663 0
M  V30 12281 C 1168.41 -0.695102 -4.23635 0
M  V30 12282 C 1167.64 -0.003369 -5.337 0
M  V30 12283 O 1167.86 1.21342 -5.57344 0
M  V30 12284 O 1166.8 -0.682476 -5.98018 0
M  V30 12285 H 1170.62 -1.31998 -2.73514 0
M  V30 12286 H 1168.21 -0.707897 -1.31564 0
M  V30 12287 H 1170.09 0.677061 -4.15925 0
M  V30 12288 H 1168.76 1.105 -3.04256 0
M  V30 12289 H 1167.67 -1.15415 -3.55851 0
M  V30 12290 H 1169 -1.49977 -4.68794 0
M  V30 12291 N 1170.66 1.40747 -0.709091 0
M  V30 12292 C 1171.9 2.00233 -0.242836 0
M  V30 12293 C 1172.22 1.56853 1.1686 0
M  V30 12294 O 1173.42 2.08993 1.73304 0
M  V30 12295 C 1171.88 3.57854 -0.383241 0
M  V30 12296 C 1171.49 4.10209 -1.80091 0
M  V30 12297 C 1173.23 4.24494 0.0225511 0
M  V30 12298 C 1171.14 5.60311 -1.89225 0
M  V30 12299 H 1170.07 0.74896 -0.087034 0
M  V30 12300 H 1172.72 1.61064 -0.879243 0
M  V30 12301 H 1171.1 3.94692 0.321642 0
M  V30 12302 H 1172.28 3.84762 -2.53564 0
M  V30 12303 H 1170.59 3.56142 -2.15758 0
M  V30 12304 H 1173.19 5.34694 -0.0250644 0
M  V30 12305 H 1173.53 4.02488 1.06344 0
M  V30 12306 H 1174.06 3.92739 -0.632541 0
M  V30 12307 H 1170.8 5.87162 -2.91412 0
M  V30 12308 H 1170.32 5.87642 -1.20154 0
M  V30 12309 H 1172 6.25306 -1.66136 0
M  V30 12310 N 1172.13 0.454803 1.50895 0
M  V30 12311 C 1173.08 -0.347769 2.28165 0
M  V30 12312 C 1174.05 -1.00158 1.32505 0
M  V30 12313 O 1175.24 -1.01715 1.61427 0
M  V30 12314 C 1172.38 -1.43315 3.13934 0
M  V30 12315 C 1171.49 -0.795736 4.24608 0
M  V30 12316 C 1170.62 -1.85763 4.9766 0
M  V30 12317 C 1169.66 -1.19959 6.0023 0
M  V30 12318 N 1168.8 -2.20361 6.66622 0
M  V30 12319 H 1173.64 0.317493 2.96304 0
M  V30 12320 H 1171.18 0.168418 1.46133 0
M  V30 12321 H 1173.13 -2.07391 3.62001 0
M  V30 12322 H 1171.76 -2.0678 2.47875 0
M  V30 12323 H 1170.82 -0.0428173 3.80376 0
M  V30 12324 H 1172.13 -0.275477 4.98039 0
M  V30 12325 H 1171.28 -2.5746 5.49363 0
M  V30 12326 H 1170.02 -2.41166 4.23899 0
M  V30 12327 H 1169.03 -0.46817 5.47803 0
M  V30 12328 H 1170.25 -0.652666 6.75956 0
M  V30 12329 H 1168.2 -2.74812 5.95663 0
M  V30 12330 H 1168.11 -1.73275 7.35875 0
M  V30 12331 H 1169.38 -2.91488 7.22949 0
M  V30 12332 N 1173.61 -1.56489 0.186789 0
M  V30 12333 C 1174.89 -1.89066 -0.501337 0
M  V30 12334 C 1175.27 -1.09906 -1.80233 0
M  V30 12335 O 1174.62 -0.197626 -2.27644 0
M  V30 12336 C 1174.83 -3.41318 -0.728207 0
M  V30 12337 C 1176.17 -4.11379 -1.0513 0
M  V30 12338 O 1177.2 -3.46722 -0.816216 0
M  V30 12339 O 1176.06 -5.25638 -1.49557 0
M  V30 12340 H 1173.15 -0.784966 -0.260303 0
M  V30 12341 H 1175.7 -1.68183 0.226382 0
M  V30 12342 H 1174.47 -3.90834 0.19088 0
M  V30 12343 H 1174.09 -3.67865 -1.50869 0
M  V30 12344 N 1175.09 0.086862 -1.5736 0
M  V30 12345 C 1176.32 0.802167 -1.90717 0
M  V30 12346 C 1176.73 1.71875 -0.781304 0
M  V30 12347 O 1176.09 1.80831 0.246255 0
M  V30 12348 C 1176.14 1.60858 -3.23739 0
M  V30 12349 O 1175.86 0.728851 -4.31995 0
M  V30 12350 C 1177.36 2.42621 -3.71012 0
M  V30 12351 H 1174.58 0.228914 -0.630745 0
M  V30 12352 H 1177.13 0.061634 -2.04407 0
M  V30 12353 H 1175.28 2.30153 -3.11622 0
M  V30 12354 H 1175.7 1.2882 -5.08435 0
M  V30 12355 H 1177.17 2.94683 -4.66761 0
M  V30 12356 H 1177.65 3.21462 -2.99264 0
M  V30 12357 H 1178.25 1.78509 -3.86024 0
M  V30 12358 N 1176.57 1.53483 0.357892 0
M  V30 12359 C 1177.48 1.83434 1.4625 0
M  V30 12360 C 1178.49 0.723313 1.58254 0
M  V30 12361 O 1179.67 1.01416 1.74002 0
M  V30 12362 C 1176.73 2.0249 2.81423 0
M  V30 12363 C 1175.8 3.26378 2.78883 0
M  V30 12364 C 1175.03 3.44516 4.07608 0
M  V30 12365 O 1175.25 2.66787 5.04163 0
M  V30 12366 O 1174.19 4.37898 4.12952 0
M  V30 12367 H 1178.01 2.77294 1.23861 0
M  V30 12368 H 1175.6 1.38958 0.548722 0
M  V30 12369 H 1177.48 2.16552 3.61501 0
M  V30 12370 H 1176.15 1.11819 3.03773 0
M  V30 12371 H 1175.06 3.17733 1.97475 0
M  V30 12372 H 1176.39 4.16996 2.61486 0
M  V30 12373 N 1178.05 -0.61812 1.44973 0
M  V30 12374 C 1178.99 -1.72942 1.52838 0
M  V30 12375 C 1179.96 -1.6181 0.375056 0
M  V30 12376 O 1181.15 -1.81544 0.587075 0
M  V30 12377 C 1178.29 -3.11228 1.49101 0
M  V30 12378 C 1177.4 -3.33243 2.74906 0
M  V30 12379 C 1176.54 -4.61574 2.62912 0
M  V30 12380 C 1175.57 -4.76811 3.8382 0
M  V30 12381 N 1174.71 -5.96432 3.70424 0
M  V30 12382 H 1179.55 -1.65556 2.47781 0
M  V30 12383 H 1177.09 -0.807411 1.2296 0
M  V30 12384 H 1179.05 -3.9122 1.44923 0
M  V30 12385 H 1177.68 -3.17598 0.577163 0
M  V30 12386 H 1176.73 -2.471 2.89216 0
M  V30 12387 H 1178.04 -3.40377 3.64616 0
M  V30 12388 H 1177.19 -5.49746 2.56641 0
M  V30 12389 H 1175.93 -4.5682 1.70784 0
M  V30 12390 H 1174.94 -3.87066 3.90461 0
M  V30 12391 H 1176.16 -4.83371 4.77001 0
M  V30 12392 H 1174.11 -5.92742 2.81057 0
M  V30 12393 H 1174.03 -6.0468 4.5376 0
M  V30 12394 H 1175.29 -6.8713 3.68067 0
M  V30 12395 N 1179.52 -1.32087 -0.859693 0
M  V30 12396 C 1180.75 -1.25167 -1.64368 0
M  V30 12397 C 1181.16 0.183572 -1.88307 0
M  V30 12398 O 1180.5 1.12945 -1.44876 0
M  V30 12399 C 1180.57 -1.93641 -3.02892 0
M  V30 12400 C 1180.23 -3.4298 -3.02017 0
M  V30 12401 C 1181.23 -4.38551 -2.79229 0
M  V30 12402 C 1178.91 -3.84835 -3.22812 0
M  V30 12403 C 1180.91 -5.73952 -2.77232 0
M  V30 12404 C 1178.59 -5.20346 -3.20442 0
M  V30 12405 C 1179.59 -6.14716 -2.97681 0
M  V30 12406 O 1179.28 -7.47748 -2.95175 0
M  V30 12407 H 1179.01 -0.433327 -0.518848 0
M  V30 12408 H 1181.57 -1.7468 -1.08055 0
M  V30 12409 H 1179.8 -1.3869 -3.60974 0
M  V30 12410 H 1181.48 -1.80497 -3.63559 0
M  V30 12411 H 1182.25 -4.07542 -2.62935 0
M  V30 12412 H 1178.13 -3.11806 -3.39555 0
M  V30 12413 H 1181.67 -6.47584 -2.59385 0
M  V30 12414 H 1177.57 -5.50987 -3.36279 0
M  V30 12415 H 1178.34 -7.57046 -3.11165 0
M  V30 12416 N 1181 1.07532 -1.15215 0
M  V30 12417 C 1182.24 1.81689 -0.936396 0
M  V30 12418 C 1182.61 1.84622 0.527136 0
M  V30 12419 O 1183.81 2.54632 0.861159 0
M  V30 12420 C 1182.08 3.22919 -1.53161 0
M  V30 12421 S 1183.64 4.13845 -1.4587 0
M  V30 12422 H 1180.45 0.626036 -0.337045 0
M  V30 12423 H 1183.06 1.29191 -1.4673 0
M  V30 12424 H 1181.76 3.18372 -2.58974 0
M  V30 12425 H 1181.29 3.80492 -0.999482 0
M  V30 12426 H 1183.31 4.94152 -0.450317 0
M  V30 12427 N 1182.48 0.948665 1.2585 0
M  V30 12428 C 1183.44 0.468673 2.24357 0
M  V30 12429 C 1184.44 -0.424355 1.551 0
M  V30 12430 O 1185.63 -0.222481 1.72773 0
M  V30 12431 C 1182.77 -0.32359 3.39361 0
M  V30 12432 H 1183.96 1.33928 2.68334 0
M  V30 12433 H 1181.51 0.731357 1.38133 0
M  V30 12434 H 1182.25 -1.21212 3.00796 0
M  V30 12435 H 1182.03 0.316998 3.90816 0
M  V30 12436 H 1183.52 -0.649087 4.12525 0
M  V30 12437 N 1183.96 -1.40369 0.716545 0
M  V30 12438 C 1184.89 -2.33365 0.0793533 0
M  V30 12439 C 1185.87 -1.52943 -0.744482 0
M  V30 12440 O 1187.05 -1.81406 -0.693212 0
M  V30 12441 C 1184.18 -3.36928 -0.842429 0
M  V30 12442 C 1183.14 -4.2782 -0.124142 0
M  V30 12443 C 1182.46 -5.21928 -1.1617 0
M  V30 12444 C 1183.76 -5.12199 1.02224 0
M  V30 12445 H 1185.46 -2.86899 0.856115 0
M  V30 12446 H 1183 -1.37946 0.413138 0
M  V30 12447 H 1184.96 -4.00925 -1.29759 0
M  V30 12448 H 1183.68 -2.81791 -1.6511 0
M  V30 12449 H 1182.34 -3.65277 0.311201 0
M  V30 12450 H 1181.99 -4.63096 -1.96345 0
M  V30 12451 H 1181.69 -5.83582 -0.685978 0
M  V30 12452 H 1183.21 -5.88802 -1.61694 0
M  V30 12453 H 1184.63 -5.69644 0.646399 0
M  V30 12454 H 1183.02 -5.82901 1.4264 0
M  V30 12455 H 1184.09 -4.4812 1.85246 0
M  V30 12456 N 1185.44 -0.462799 -1.50652 0
M  V30 12457 C 1186.4 0.324264 -2.26895 0
M  V30 12458 C 1187.4 0.927687 -1.31342 0
M  V30 12459 O 1188.59 0.798159 -1.54839 0
M  V30 12460 C 1185.72 1.46113 -3.08 0
M  V30 12461 H 1186.91 -0.344266 -2.97917 0
M  V30 12462 H 1184.47 -0.216631 -1.54791 0
M  V30 12463 H 1185.2 2.16496 -2.41454 0
M  V30 12464 H 1184.99 1.03433 -3.78212 0
M  V30 12465 H 1186.48 2.01655 -3.65684 0
M  V30 12466 N 1186.91 1.56388 -0.195085 0
M  V30 12467 C 1188.33 1.8398 0.317513 0
M  V30 12468 C 1188.68 1.11575 1.61386 0
M  V30 12469 O 1187.8 0.376557 2.13099 0
M  V30 12470 C 1188.4 3.33749 0.582859 0
M  V30 12471 C 1186.96 3.61752 1.03983 0
M  V30 12472 C 1186.1 2.77159 0.088434 0
M  V30 12473 H 1189.05 1.53072 -0.418871 0
M  V30 12474 H 1189.07 3.52519 1.43216 0
M  V30 12475 H 1188.59 3.86419 -0.360813 0
M  V30 12476 H 1186.69 3.14515 1.99778 0
M  V30 12477 H 1186.8 4.69937 0.932549 0
M  V30 12478 H 1185.16 2.47765 0.590317 0
M  V30 12479 H 1185.95 3.32619 -0.849682 0
M  V30 12480 N 1188.39 -0.0785156 1.57404 0
M  V30 12481 C 1189.34 -1.11278 2.04255 0
M  V30 12482 C 1190.33 -1.40482 0.946633 0
M  V30 12483 O 1191.54 -1.39968 1.13177 0
M  V30 12484 H 1187.92 -0.376157 0.65116 0
M  V30 12485 H 1189.89 -0.691437 2.90279 0
M  V30 12486 C 1188.64 -2.42006 2.49656 0
M  V30 12487 H 1187.96 -2.20383 3.33574 0
M  V30 12488 H 1189.4 -3.12837 2.86197 0
M  V30 12489 C 1187.86 -3.07488 1.37669 0
M  V30 12490 O 1188.39 -3.95285 0.715036 0
M  V30 12491 N 1186.59 -2.68004 1.1235 0
M  V30 12492 H 1186.14 -1.96698 1.66336 0
M  V30 12493 H 1186.1 -3.12141 0.376238 0
M  V30 12494 N 1189.87 -1.5367 -0.349747 0
M  V30 12495 C 1190.8 -1.7603 -1.4522 0
M  V30 12496 C 1191.78 -0.609171 -1.50758 0
M  V30 12497 O 1192.97 -0.843613 -1.68569 0
M  V30 12498 C 1190.09 -1.85336 -2.83493 0
M  V30 12499 C 1189.14 -3.07438 -2.95608 0
M  V30 12500 S 1189.97 -4.66625 -2.62719 0
M  V30 12501 C 1191.13 -4.78802 -4.03112 0
M  V30 12502 H 1191.36 -2.69263 -1.26035 0
M  V30 12503 H 1188.89 -1.4446 -0.545044 0
M  V30 12504 H 1190.85 -1.91383 -3.63157 0
M  V30 12505 H 1189.51 -0.931267 -2.99977 0
M  V30 12506 H 1188.71 -3.10606 -3.96913 0
M  V30 12507 H 1188.31 -2.99585 -2.23886 0
M  V30 12508 H 1190.6 -4.5983 -4.97557 0
M  V30 12509 H 1191.54 -5.80886 -4.04941 0
M  V30 12510 H 1191.95 -4.07305 -3.90849 0
M  V30 12511 N 1191.35 0.610423 -1.45298 0
M  V30 12512 C 1192.28 1.73493 -1.48241 0
M  V30 12513 C 1193.26 1.59025 -0.339065 0
M  V30 12514 O 1194.44 1.80625 -0.539144 0
M  V30 12515 C 1191.57 3.11291 -1.33476 0
M  V30 12516 C 1190.62 3.44355 -2.51638 0
M  V30 12517 S 1191.45 3.39512 -4.14116 0
M  V30 12518 C 1192.61 4.79895 -4.01811 0
M  V30 12519 H 1192.84 1.70734 -2.43387 0
M  V30 12520 H 1190.37 0.786833 -1.32847 0
M  V30 12521 H 1192.33 3.90799 -1.25644 0
M  V30 12522 H 1190.99 3.11568 -0.39805 0
M  V30 12523 H 1190.18 4.44679 -2.37226 0
M  V30 12524 H 1189.79 2.72356 -2.56317 0
M  V30 12525 H 1192.08 5.6963 -3.6678 0
M  V30 12526 H 1193.02 4.99363 -5.02038 0
M  V30 12527 H 1193.43 4.55443 -3.33515 0
M  V30 12528 N 1192.83 1.32541 0.852676 0
M  V30 12529 C 1194.07 1.23397 1.60938 0
M  V30 12530 C 1194.41 -0.203294 1.93133 0
M  V30 12531 O 1193.68 -1.14097 1.57519 0
M  V30 12532 C 1193.96 2.0956 2.92842 0
M  V30 12533 C 1193.82 3.61675 2.67416 0
M  V30 12534 C 1195.14 1.95825 3.94133 0
M  V30 12535 H 1192.25 0.449608 0.583971 0
M  V30 12536 H 1194.9 1.62507 0.98446 0
M  V30 12537 H 1193.05 1.76336 3.46176 0
M  V30 12538 H 1194.72 4.05122 2.20621 0
M  V30 12539 H 1192.96 3.84242 2.01347 0
M  V30 12540 H 1193.63 4.17292 3.61347 0
M  V30 12541 H 1196.11 2.24935 3.50062 0
M  V30 12542 H 1194.98 2.58387 4.8428 0
M  V30 12543 H 1195.25 0.926466 4.32284 0
M  V30 12544 N 1194.3 -1.0692 1.15784 0
M  V30 12545 C 1195.53 -1.8331 0.959422 0
M  V30 12546 C 1195.95 -1.82268 -0.492332 0
M  V30 12547 O 1195.3 -1.23727 -1.34156 0
M  V30 12548 C 1195.36 -3.30202 1.47135 0
M  V30 12549 O 1195.08 -3.31328 2.86624 0
M  V30 12550 C 1196.58 -4.23346 1.31504 0
M  V30 12551 H 1193.8 -0.578202 0.340475 0
M  V30 12552 H 1196.34 -1.34939 1.53661 0
M  V30 12553 H 1194.5 -3.75908 0.936587 0
M  V30 12554 H 1194.91 -4.23135 3.0993 0
M  V30 12555 H 1196.38 -5.24465 1.72163 0
M  V30 12556 H 1196.86 -4.38431 0.259773 0
M  V30 12557 H 1197.47 -3.8348 1.83911 0
M  V30 12558 N 1195.78 -0.955326 -1.25345 0
M  V30 12559 C 1196.73 -0.467205 -2.2786 0
M  V30 12560 C 1197.72 0.462873 -1.62954 0
M  V30 12561 O 1198.93 0.339526 -1.76769 0
M  V30 12562 H 1195.31 -0.132586 -0.74022 0
M  V30 12563 H 1197.28 -1.34406 -2.66416 0
M  V30 12564 C 1196.03 0.238898 -3.46878 0
M  V30 12565 H 1195.35 -0.467644 -3.97056 0
M  V30 12566 H 1196.79 0.544444 -4.2049 0
M  V30 12567 C 1195.25 1.46164 -3.03542 0
M  V30 12568 O 1195.78 2.55933 -3.09615 0
M  V30 12569 N 1193.98 1.32324 -2.58725 0
M  V30 12570 H 1193.53 0.430131 -2.53984 0
M  V30 12571 H 1193.49 2.14253 -2.30094 0
M  V30 12572 N 1197.26 1.39987 -0.723979 0
M  V30 12573 C 1198.21 2.32507 -0.0658033 0
M  V30 12574 C 1199.2 1.52484 0.737908 0
M  V30 12575 O 1200.41 1.68225 0.640332 0
M  V30 12576 H 1196.78 0.751996 -0.00247717 0
M  V30 12577 H 1198.76 2.85657 -0.862696 0
M  V30 12578 C 1197.5 3.37509 0.835628 0
M  V30 12579 H 1196.83 3.99157 0.226589 0
M  V30 12580 H 1198.27 4.04722 1.26396 0
M  V30 12581 C 1196.73 2.73665 1.96492 0
M  V30 12582 O 1197.26 2.60649 3.05655 0
M  V30 12583 N 1195.46 2.3192 1.75104 0
M  V30 12584 H 1195.01 2.42707 0.863204 0
M  V30 12585 H 1194.97 1.89542 2.50841 0
M  V30 12586 N 1198.74 0.470782 1.50404 0
M  V30 12587 C 1199.97 -0.0820134 2.06737 0
M  V30 12588 C 1200.38 -1.33535 1.33468 0
M  V30 12589 O 1199.74 -1.77975 0.403872 0
M  V30 12590 C 1199.79 -0.370427 3.59597 0
M  V30 12591 O 1199.51 0.8332 4.30104 0
M  V30 12592 C 1201.01 -0.970222 4.32552 0
M  V30 12593 H 1198.23 0.00694502 0.670964 0
M  V30 12594 H 1200.78 0.659476 1.93575 0
M  V30 12595 H 1198.93 -1.06185 3.72563 0
M  V30 12596 H 1199.35 0.577614 5.2131 0
M  V30 12597 H 1200.82 -1.1218 5.40481 0
M  V30 12598 H 1201.3 -1.96024 3.93028 0
M  V30 12599 H 1201.9 -0.31719 4.24116 0
M  V30 12600 N 1200.22 -1.56282 0.203376 0
M  V30 12601 C 1201.46 -1.97812 -0.433202 0
M  V30 12602 C 1201.79 -1.09052 -1.61053 0
M  V30 12603 O 1201.05 -0.131417 -1.95258 0
M  V30 12604 C 1201.35 -3.45148 -0.927759 0
M  V30 12605 C 1201.01 -4.50692 0.137083 0
M  V30 12606 C 1199.67 -4.79278 0.429652 0
M  V30 12607 C 1202.03 -5.14086 0.858174 0
M  V30 12608 C 1199.35 -5.68547 1.44815 0
M  V30 12609 C 1201.71 -6.04457 1.86588 0
M  V30 12610 C 1200.37 -6.31395 2.16556 0
M  V30 12611 H 1199.64 -0.723846 -0.15852 0
M  V30 12612 H 1202.29 -1.89102 0.302082 0
M  V30 12613 H 1200.59 -3.5097 -1.74147 0
M  V30 12614 H 1202.29 -3.74642 -1.42984 0
M  V30 12615 H 1198.88 -4.28481 -0.101111 0
M  V30 12616 H 1203.06 -4.92086 0.645376 0
M  V30 12617 H 1198.32 -5.87689 1.68615 0
M  V30 12618 H 1202.49 -6.52636 2.4298 0
M  V30 12619 H 1200.12 -7.00366 2.9562 0
M  V30 12620 N 1201.7 0.070167 -1.57444 0
M  V30 12621 C 1202.92 0.781894 -1.91557 0
M  V30 12622 C 1203.34 1.71037 -0.799489 0
M  V30 12623 O 1202.7 1.81082 0.227062 0
M  V30 12624 C 1202.75 1.57415 -3.25427 0
M  V30 12625 O 1202.47 0.682991 -4.32743 0
M  V30 12626 C 1203.97 2.38673 -3.73564 0
M  V30 12627 H 1201.19 0.222211 -0.633138 0
M  V30 12628 H 1203.73 0.0399504 -2.04461 0
M  V30 12629 H 1201.89 2.26835 -3.14045 0
M  V30 12630 H 1202.3 1.2342 -5.09772 0
M  V30 12631 H 1203.78 2.89716 -4.6986 0
M  V30 12632 H 1204.25 3.18269 -3.02657 0
M  V30 12633 H 1204.86 1.74405 -3.87896 0
M  V30 12634 N 1203.17 1.53854 0.341593 0
M  V30 12635 C 1204.1 1.84966 1.42513 0
M  V30 12636 C 1205.08 0.704944 1.54805 0
M  V30 12637 O 1206.27 0.957036 1.68981 0
M  V30 12638 C 1203.4 2.06099 2.79536 0
M  V30 12639 C 1202.35 3.21919 2.82049 0
M  V30 12640 C 1201.68 3.28389 4.21977 0
M  V30 12641 C 1202.98 4.59984 2.4741 0
M  V30 12642 H 1204.67 2.7571 1.16724 0
M  V30 12643 H 1202.22 1.32662 0.560073 0
M  V30 12644 H 1204.17 2.26448 3.55386 0
M  V30 12645 H 1202.9 1.12087 3.06764 0
M  V30 12646 H 1201.56 3.01429 2.08653 0
M  V30 12647 H 1201.2 2.3197 4.46317 0
M  V30 12648 H 1200.9 4.0622 4.24569 0
M  V30 12649 H 1202.43 3.50951 4.99666 0
M  V30 12650 H 1203.84 4.80334 3.12973 0
M  V30 12651 H 1202.24 5.40233 2.61282 0
M  V30 12652 H 1203.31 4.6346 1.42594 0
M  V30 12653 N 1204.65 -0.602709 1.4562 0
M  V30 12654 C 1205.6 -1.71312 1.54664 0
M  V30 12655 C 1206.57 -1.61403 0.392197 0
M  V30 12656 O 1207.75 -1.80911 0.606297 0
M  V30 12657 C 1204.89 -3.09629 1.52393 0
M  V30 12658 C 1204.01 -3.30308 2.78425 0
M  V30 12659 C 1203.14 -4.5876 2.67793 0
M  V30 12660 C 1202.18 -4.72713 3.88855 0
M  V30 12661 N 1201.32 -5.92469 3.76729 0
M  V30 12662 H 1206.16 -1.62918 2.49523 0
M  V30 12663 H 1203.69 -0.794324 1.2381 0
M  V30 12664 H 1205.65 -3.89661 1.49064 0
M  V30 12665 H 1204.28 -3.16968 0.610816 0
M  V30 12666 H 1203.33 -2.44018 2.9182 0
M  V30 12667 H 1204.65 -3.36491 3.68205 0
M  V30 12668 H 1203.8 -5.46993 2.62457 0
M  V30 12669 H 1202.54 -4.54983 1.75619 0
M  V30 12670 H 1201.54 -3.82903 3.94545 0
M  V30 12671 H 1202.77 -4.78284 4.82101 0
M  V30 12672 H 1200.72 -5.89728 2.87328 0
M  V30 12673 H 1200.63 -5.99833 4.60148 0
M  V30 12674 H 1201.9 -6.83187 3.75334 0
M  V30 12675 N 1206.13 -1.32992 -0.845635 0
M  V30 12676 C 1207.38 -1.2382 -1.59728 0
M  V30 12677 C 1207.7 0.197724 -1.93995 0
M  V30 12678 O 1206.97 1.12477 -1.60392 0
M  V30 12679 H 1205.55 -0.455296 -0.592212 0
M  V30 12680 H 1208.21 -1.66627 -1.01101 0
M  V30 12681 H 1207.31 -1.82717 -2.53023 0
M  V30 12682 N 1207.61 1.06304 -1.1635 0
M  V30 12683 C 1208.86 1.78747 -0.943074 0
M  V30 12684 C 1209.18 1.87646 0.530483 0
M  V30 12685 O 1208.45 1.38506 1.38538 0
M  V30 12686 H 1207.03 0.662072 -0.345932 0
M  V30 12687 H 1209.69 1.28413 -1.46615 0
M  V30 12688 H 1208.78 2.80828 -1.3617 0
M  V30 12689 N 1209.09 0.96196 1.24836 0
M  V30 12690 C 1210.05 0.492443 2.23847 0
M  V30 12691 C 1211.05 -0.40788 1.55541 0
M  V30 12692 O 1212.24 -0.204143 1.73 0
M  V30 12693 C 1209.37 -0.287578 3.39685 0
M  V30 12694 H 1210.56 1.36767 2.66899 0
M  V30 12695 H 1208.12 0.745967 1.3735 0
M  V30 12696 H 1208.85 -1.18015 3.02064 0
M  V30 12697 H 1208.64 0.358431 3.90458 0
M  V30 12698 H 1210.13 -0.605297 4.1319 0
M  V30 12699 N 1210.56 -1.39601 0.731392 0
M  V30 12700 C 1211.97 -1.83424 0.348194 0
M  V30 12701 C 1212.33 -1.61106 -1.11979 0
M  V30 12702 O 1211.45 -1.1003 -1.86339 0
M  V30 12703 C 1212.05 -3.32982 0.6252 0
M  V30 12704 C 1210.6 -3.75238 0.295536 0
M  V30 12705 C 1209.75 -2.62642 0.88964 0
M  V30 12706 H 1212.7 -1.28644 0.929318 0
M  V30 12707 H 1212.72 -3.80357 -0.104254 0
M  V30 12708 H 1212.24 -3.49193 1.69368 0
M  V30 12709 H 1210.34 -3.64615 -0.767254 0
M  V30 12710 H 1210.45 -4.72781 0.775576 0
M  V30 12711 H 1208.81 -2.52726 0.316529 0
M  V30 12712 H 1209.6 -2.81661 1.96271 0
M  V30 12713 N 1212.04 -0.478751 -1.50152 0
M  V30 12714 C 1213.27 0.0710485 -2.06778 0
M  V30 12715 C 1213.69 1.32826 -1.34174 0
M  V30 12716 O 1213.04 1.77758 -0.413304 0
M  V30 12717 C 1213.09 0.351351 -3.59789 0
M  V30 12718 O 1212.81 -0.855998 -4.29656 0
M  V30 12719 C 1214.32 0.947269 -4.33061 0
M  V30 12720 H 1211.54 -0.0105032 -0.670918 0
M  V30 12721 H 1214.08 -0.669732 -1.93222 0
M  V30 12722 H 1212.23 1.04207 -3.73121 0
M  V30 12723 H 1212.65 -0.605252 -5.20996 0
M  V30 12724 H 1214.12 1.09312 -5.41068 0
M  V30 12725 H 1214.6 1.93937 -3.94062 0
M  V30 12726 H 1215.21 0.294693 -4.24278 0
M  V30 12727 N 1213.52 1.56172 -0.211661 0
M  V30 12728 C 1214.47 2.19849 0.702515 0
M  V30 12729 C 1215.44 1.15091 1.19763 0
M  V30 12730 O 1216.62 1.43408 1.25852 0
M  V30 12731 C 1213.76 2.87468 1.90935 0
M  V30 12732 C 1212.88 4.06794 1.45406 0
M  V30 12733 C 1212.01 4.62224 2.61769 0
M  V30 12734 C 1211.05 5.73872 2.12926 0
M  V30 12735 N 1210.19 6.23635 3.22526 0
M  V30 12736 H 1215.03 2.97608 0.152777 0
M  V30 12737 H 1212.56 1.46962 0.0636596 0
M  V30 12738 H 1214.52 3.24851 2.61777 0
M  V30 12739 H 1213.15 2.12244 2.43213 0
M  V30 12740 H 1212.2 3.74962 0.640907 0
M  V30 12741 H 1213.52 4.87497 1.05584 0
M  V30 12742 H 1212.67 5.01999 3.40709 0
M  V30 12743 H 1211.41 3.80662 3.04873 0
M  V30 12744 H 1210.41 5.33609 1.32445 0
M  V30 12745 H 1211.64 6.57262 1.70833 0
M  V30 12746 H 1209.58 5.44991 3.65131 0
M  V30 12747 H 1209.5 6.99435 2.86926 0
M  V30 12748 H 1210.77 6.68066 4.01631 0
M  V30 12749 N 1215 -0.0618163 1.57479 0
M  V30 12750 C 1216.24 -0.760193 1.88013 0
M  V30 12751 C 1216.58 -1.76718 0.805258 0
M  V30 12752 O 1215.85 -1.93633 -0.183408 0
M  V30 12753 C 1216.14 -1.45924 3.29208 0
M  V30 12754 C 1215.99 -0.467994 4.47359 0
M  V30 12755 C 1217.31 -2.40166 3.68793 0
M  V30 12756 H 1214.43 -0.274896 0.683814 0
M  V30 12757 H 1217.07 -0.0232433 1.89986 0
M  V30 12758 H 1215.22 -2.08741 3.27657 0
M  V30 12759 H 1216.89 0.155735 4.61037 0
M  V30 12760 H 1215.13 0.215797 4.33263 0
M  V30 12761 H 1215.8 -0.994942 5.42959 0
M  V30 12762 H 1218.28 -1.87419 3.71501 0
M  V30 12763 H 1217.16 -2.86076 4.68457 0
M  V30 12764 H 1217.42 -3.25413 2.99264 0
M  V30 12765 N 1216.48 -1.54033 -0.333429 0
M  V30 12766 C 1217.7 -1.75716 -1.09232 0
M  V30 12767 C 1218.12 -0.501076 -1.82029 0
M  V30 12768 O 1217.48 0.527772 -1.74702 0
M  V30 12769 C 1217.53 -2.9439 -2.09802 0
M  V30 12770 O 1217.25 -4.15141 -1.39963 0
M  V30 12771 C 1218.75 -3.28206 -2.97987 0
M  V30 12772 H 1215.97 -0.586859 -0.325326 0
M  V30 12773 H 1218.51 -2.0089 -0.382555 0
M  V30 12774 H 1216.67 -2.71518 -2.76327 0
M  V30 12775 H 1217.08 -4.81826 -2.0723 0
M  V30 12776 H 1218.56 -4.14568 -3.64469 0
M  V30 12777 H 1219.03 -2.44944 -3.64553 0
M  V30 12778 H 1219.64 -3.5312 -2.37036 0
M  V30 12779 N 1217.95 0.594978 -1.45938 0
M  V30 12780 C 1219.2 1.35361 -1.50611 0
M  V30 12781 C 1219.53 1.93898 -0.152866 0
M  V30 12782 O 1218.78 1.76275 0.850037 0
M  V30 12783 C 1219.08 2.51129 -2.54301 0
M  V30 12784 C 1218.75 2.1066 -3.98664 0
M  V30 12785 C 1217.41 1.99338 -4.3797 0
M  V30 12786 C 1219.76 1.79267 -4.894 0
M  V30 12787 C 1217.09 1.54863 -5.65893 0
M  V30 12788 C 1219.44 1.36274 -6.17748 0
M  V30 12789 C 1218.11 1.2352 -6.55972 0
M  V30 12790 H 1217.38 0.49532 -0.551125 0
M  V30 12791 H 1220.02 0.671236 -1.79351 0
M  V30 12792 H 1218.33 3.24759 -2.19177 0
M  V30 12793 H 1220.03 3.09353 -2.55151 0
M  V30 12794 H 1216.62 2.20403 -3.67587 0
M  V30 12795 H 1220.8 1.86906 -4.59761 0
M  V30 12796 H 1216.06 1.43621 -5.94292 0
M  V30 12797 H 1220.23 1.11032 -6.87492 0
M  V30 12798 H 1217.86 0.88832 -7.54992 0
M  V30 12799 N 1219.43 1.33438 0.838571 0
M  V30 12800 C 1220.68 1.24665 1.59069 0
M  V30 12801 C 1221 -0.187433 1.94097 0
M  V30 12802 O 1220.27 -1.11625 1.60987 0
M  V30 12803 H 1218.85 0.45843 0.589789 0
M  V30 12804 H 1221.51 1.67161 1.00216 0
M  V30 12805 H 1220.61 1.84057 2.52051 0
M  V30 12806 N 1220.91 -1.05686 1.16912 0
M  V30 12807 C 1222.19 -1.7546 0.864483 0
M  V30 12808 C 1222.57 -2.0128 -0.636359 0
M  V30 12809 O 1221.92 -1.64485 -1.58609 0
M  V30 12810 C 1222.13 -3.05134 1.69395 0
M  V30 12811 C 1223.47 -3.79176 1.91079 0
M  V30 12812 O 1224.5 -3.1499 1.66312 0
M  V30 12813 O 1223.36 -4.94496 2.32671 0
M  V30 12814 H 1220.45 -0.762748 0.319601 0
M  V30 12815 H 1223 -1.11899 1.27581 0
M  V30 12816 H 1221.77 -2.82063 2.71212 0
M  V30 12817 H 1221.39 -3.76431 1.28007 0
M  V30 12818 N 1222.39 -0.968567 -1.24324 0
M  V30 12819 C 1223.67 -0.547774 -1.87773 0
M  V30 12820 C 1224.05 0.975107 -1.87229 0
M  V30 12821 O 1223.39 1.84683 -1.34553 0
M  V30 12822 C 1223.6 -1.1403 -3.29846 0
M  V30 12823 C 1224.95 -1.22572 -4.06523 0
M  V30 12824 O 1225.98 -1.09287 -3.3902 0
M  V30 12825 O 1224.83 -1.43579 -5.27302 0
M  V30 12826 H 1221.93 -0.182771 -0.806551 0
M  V30 12827 H 1224.47 -1.06289 -1.3229 0
M  V30 12828 H 1223.25 -2.18303 -3.24745 0
M  V30 12829 H 1222.87 -0.609275 -3.92904 0
M  V30 12830 N 1223.87 1.39211 -0.738786 0
M  V30 12831 C 1225.09 2.04732 -0.298751 0
M  V30 12832 C 1225.51 1.55706 1.06776 0
M  V30 12833 O 1224.87 0.723605 1.67542 0
M  V30 12834 C 1224.92 3.60288 -0.29574 0
M  V30 12835 O 1224.64 4.07511 -1.60831 0
M  V30 12836 C 1226.14 4.43011 0.159994 0
M  V30 12837 H 1223.36 0.658296 -0.129952 0
M  V30 12838 H 1225.9 1.78186 -1.0035 0
M  V30 12839 H 1224.06 3.85722 0.360146 0
M  V30 12840 H 1224.47 5.01858 -1.52443 0
M  V30 12841 H 1225.95 5.51889 0.110941 0
M  V30 12842 H 1226.42 4.22325 1.20573 0
M  V30 12843 H 1227.03 4.22734 -0.466467 0
M  V30 12844 N 1225.34 0.486708 1.49896 0
M  V30 12845 C 1226.59 -0.0629451 2.02702 0
M  V30 12846 C 1226.92 -1.37956 1.36681 0
M  V30 12847 O 1226.2 -1.88025 0.497678 0
M  V30 12848 C 1226.48 -0.230461 3.59362 0
M  V30 12849 C 1226.33 1.10828 4.35933 0
M  V30 12850 C 1227.65 -0.977785 4.29101 0
M  V30 12851 H 1224.77 -0.0214017 0.736689 0
M  V30 12852 H 1227.41 0.635339 1.79063 0
M  V30 12853 H 1225.56 -0.825222 3.79634 0
M  V30 12854 H 1227.24 1.74082 4.27192 0
M  V30 12855 H 1225.48 1.7011 3.99055 0
M  V30 12856 H 1226.15 0.944532 5.43859 0
M  V30 12857 H 1228.63 -0.473505 4.13397 0
M  V30 12858 H 1227.5 -1.06382 5.38492 0
M  V30 12859 H 1227.76 -2.01813 3.9335 0
M  V30 12860 N 1226.82 -1.56058 0.219941 0
M  V30 12861 C 1228.07 -1.97436 -0.412543 0
M  V30 12862 C 1228.39 -1.11058 -1.61014 0
M  V30 12863 O 1229.59 -1.42328 -2.31203 0
M  V30 12864 C 1228.05 -3.51227 -0.785362 0
M  V30 12865 C 1227.66 -4.46305 0.389328 0
M  V30 12866 C 1229.4 -4.01321 -1.38354 0
M  V30 12867 C 1227.31 -5.914 -0.00583531 0
M  V30 12868 H 1226.24 -0.73728 -0.157906 0
M  V30 12869 H 1228.89 -1.8076 0.315898 0
M  V30 12870 H 1227.27 -3.63497 -1.57118 0
M  V30 12871 H 1228.44 -4.45781 1.16686 0
M  V30 12872 H 1226.76 -4.06543 0.900633 0
M  V30 12873 H 1229.36 -5.07221 -1.69207 0
M  V30 12874 H 1229.7 -3.47077 -2.29876 0
M  V30 12875 H 1230.23 -3.92267 -0.66119 0
M  V30 12876 H 1226.97 -6.49623 0.87583 0
M  V30 12877 H 1226.49 -5.95121 -0.74772 0
M  V30 12878 H 1228.17 -6.45549 -0.43308 0
M  V30 12879 N 1228.3 0.053464 -1.57509 0
M  V30 12880 C 1229.21 1.07902 -2.08313 0
M  V30 12881 C 1230.23 1.41223 -1.01647 0
M  V30 12882 O 1231.4 1.51032 -1.33233 0
M  V30 12883 C 1228.47 2.36813 -2.5322 0
M  V30 12884 C 1227.53 2.10297 -3.74264 0
M  V30 12885 C 1226.76 3.33062 -4.1702 0
M  V30 12886 O 1226.99 4.42857 -3.59491 0
M  V30 12887 O 1225.92 3.20195 -5.09665 0
M  V30 12888 H 1229.75 0.677368 -2.9605 0
M  V30 12889 H 1227.33 0.268838 -1.46961 0
M  V30 12890 H 1229.21 3.12645 -2.82544 0
M  V30 12891 H 1227.89 2.76323 -1.68605 0
M  V30 12892 H 1226.79 1.32111 -3.49996 0
M  V30 12893 H 1228.13 1.75658 -4.59788 0
M  V30 12894 N 1229.78 1.54207 0.325255 0
M  V30 12895 C 1231.03 1.72587 1.06497 0
M  V30 12896 C 1231.36 0.497228 1.87727 0
M  V30 12897 O 1230.63 -0.505804 1.87808 0
M  V30 12898 C 1230.92 3.00046 1.99109 0
M  V30 12899 C 1230.77 4.33158 1.21221 0
M  V30 12900 C 1232.09 3.23251 2.98658 0
M  V30 12901 H 1229.21 0.627974 0.38577 0
M  V30 12902 H 1231.85 1.869 0.34179 0
M  V30 12903 H 1230 2.87973 2.60775 0
M  V30 12904 H 1231.67 4.57111 0.620289 0
M  V30 12905 H 1229.91 4.30739 0.514462 0
M  V30 12906 H 1230.59 5.18558 1.89214 0
M  V30 12907 H 1233.06 3.34774 2.47114 0
M  V30 12908 H 1231.94 4.13796 3.60645 0
M  V30 12909 H 1232.2 2.40401 3.71026 0
M  V30 12910 N 1231.26 -0.58723 1.46251 0
M  V30 12911 C 1232.19 -1.71103 1.52501 0
M  V30 12912 C 1233.2 -1.57454 0.413772 0
M  V30 12913 O 1234.39 -1.64962 0.681902 0
M  V30 12914 C 1231.49 -3.0931 1.38493 0
M  V30 12915 C 1230.66 -3.49005 2.63655 0
M  V30 12916 C 1229.72 -4.66255 2.43911 0
M  V30 12917 O 1228.75 -4.72344 3.17616 0
M  V30 12918 N 1229.95 -5.60843 1.49784 0
M  V30 12919 H 1232.72 -1.66198 2.49396 0
M  V30 12920 H 1230.28 -0.773087 1.4225 0
M  V30 12921 H 1232.27 -3.85535 1.23064 0
M  V30 12922 H 1230.84 -3.08608 0.497963 0
M  V30 12923 H 1230.06 -2.62533 2.94058 0
M  V30 12924 H 1231.35 -3.72291 3.4681 0
M  V30 12925 H 1230.75 -5.58656 0.889972 0
M  V30 12926 H 1229.3 -6.36517 1.4032 0
M  V30 12927 N 1232.74 -1.33881 -0.831482 0
M  V30 12928 C 1233.98 -1.25507 -1.58406 0
M  V30 12929 C 1234.3 0.177137 -1.94194 0
M  V30 12930 O 1233.57 1.10769 -1.61576 0
M  V30 12931 H 1232.15 -0.461551 -0.587349 0
M  V30 12932 H 1234.82 -1.6769 -0.99328 0
M  V30 12933 H 1233.91 -1.85391 -2.51071 0
M  V30 12934 N 1234.21 1.05064 -1.1747 0
M  V30 12935 C 1235.44 1.81497 -0.987031 0
M  V30 12936 C 1235.85 1.83323 0.467921 0
M  V30 12937 O 1235.19 1.26006 1.33672 0
M  V30 12938 C 1235.26 3.28826 -1.45306 0
M  V30 12939 C 1234.92 3.50681 -2.93039 0
M  V30 12940 C 1235.92 3.42699 -3.90965 0
M  V30 12941 C 1233.6 3.77602 -3.31243 0
M  V30 12942 C 1235.6 3.61325 -5.25093 0
M  V30 12943 C 1233.28 3.95876 -4.65538 0
M  V30 12944 C 1234.28 3.87737 -5.62271 0
M  V30 12945 O 1233.97 4.055 -6.94136 0
M  V30 12946 H 1233.7 0.578734 -0.349347 0
M  V30 12947 H 1236.26 1.33373 -1.56208 0
M  V30 12948 H 1234.49 3.77872 -0.821581 0
M  V30 12949 H 1236.17 3.86788 -1.23085 0
M  V30 12950 H 1236.94 3.21877 -3.62795 0
M  V30 12951 H 1232.82 3.8304 -2.56517 0
M  V30 12952 H 1236.36 3.54888 -6.00583 0
M  V30 12953 H 1232.26 4.16191 -4.93412 0
M  V30 12954 H 1233.03 4.22718 -7.00894 0
M  V30 12955 N 1235.69 0.975146 1.23809 0
M  V30 12956 C 1236.64 0.510761 2.25077 0
M  V30 12957 C 1237.61 -0.447605 1.59955 0
M  V30 12958 O 1238.79 -0.356318 1.87443 0
M  V30 12959 C 1235.93 -0.185755 3.446 0
M  V30 12960 C 1235.05 0.812254 4.24295 0
M  V30 12961 C 1234.18 0.0910835 5.31122 0
M  V30 12962 C 1233.22 1.07866 6.02521 0
M  V30 12963 N 1232.36 0.386995 7.01033 0
M  V30 12964 H 1237.2 1.37913 2.64166 0
M  V30 12965 H 1234.73 0.691184 1.2985 0
M  V30 12966 H 1236.69 -0.606341 4.1277 0
M  V30 12967 H 1235.32 -1.01803 3.06327 0
M  V30 12968 H 1234.37 1.35125 3.55592 0
M  V30 12969 H 1235.69 1.56502 4.73612 0
M  V30 12970 H 1234.84 -0.387129 6.05464 0
M  V30 12971 H 1233.58 -0.694324 4.82732 0
M  V30 12972 H 1232.58 1.56767 5.26976 0
M  V30 12973 H 1233.81 1.86464 6.52999 0
M  V30 12974 H 1231.76 -0.3793 6.54903 0
M  V30 12975 H 1231.67 1.0785 7.48268 0
M  V30 12976 H 1232.94 -0.0690036 7.79469 0
M  V30 12977 N 1237.17 -1.38817 0.746158 0
M  V30 12978 C 1238.39 -2.05096 0.308302 0
M  V30 12979 C 1238.82 -1.55902 -1.05244 0
M  V30 12980 O 1238.18 -0.707685 -1.66918 0
M  V30 12981 C 1238.23 -3.59068 0.332016 0
M  V30 12982 O 1237.33 -4.06813 -0.676547 0
M  V30 12983 H 1236.67 -0.649523 0.1379 0
M  V30 12984 H 1239.2 -1.77637 1.0152 0
M  V30 12985 H 1239.21 -4.07601 0.180293 0
M  V30 12986 H 1237.89 -3.94234 1.32487 0
M  V30 12987 H 1236.46 -3.69666 -0.490046 0
M  V30 12988 N 1238.65 -0.49465 -1.49636 0
M  V30 12989 C 1239.89 0.0521945 -2.02733 0
M  V30 12990 C 1240.23 1.3723 -1.37411 0
M  V30 12991 O 1239.5 1.87758 -0.507642 0
M  V30 12992 C 1239.78 0.2114 -3.59479 0
M  V30 12993 C 1239.64 -1.13138 -4.35339 0
M  V30 12994 C 1240.96 0.955015 -4.29613 0
M  V30 12995 H 1238.08 0.0174946 -0.736792 0
M  V30 12996 H 1240.72 -0.644827 -1.78723 0
M  V30 12997 H 1238.87 0.805078 -3.80067 0
M  V30 12998 H 1240.54 -1.76345 -4.26263 0
M  V30 12999 H 1238.78 -1.72224 -3.98147 0
M  V30 13000 H 1239.45 -0.97336 -5.4335 0
M  V30 13001 H 1241.93 0.451575 -4.13642 0
M  V30 13002 H 1240.81 1.03524 -5.39049 0
M  V30 13003 H 1241.07 1.99724 -3.94414 0
M  V30 13004 N 1240.13 1.55939 -0.228214 0
M  V30 13005 C 1241.07 2.21957 0.69556 0
M  V30 13006 C 1242.07 1.20109 1.19458 0
M  V30 13007 O 1243.27 1.38171 1.15364 0
M  V30 13008 H 1239.65 0.711744 0.242744 0
M  V30 13009 H 1241.62 2.98177 0.115403 0
M  V30 13010 C 1240.37 2.91847 1.88999 0
M  V30 13011 H 1239.69 3.69978 1.51512 0
M  V30 13012 H 1241.13 3.4143 2.51399 0
M  V30 13013 C 1239.59 1.94683 2.74954 0
M  V30 13014 O 1240.12 1.468 3.73915 0
M  V30 13015 N 1238.33 1.62188 2.41129 0
M  V30 13016 H 1237.87 2.01322 1.60709 0
M  V30 13017 H 1237.83 0.9744 2.98919 0
M  V30 13018 N 1241.6 -0.0451101 1.57535 0
M  V30 13019 C 1242.85 -0.738072 1.87711 0
M  V30 13020 C 1243.17 -1.7737 0.824579 0
M  V30 13021 O 1244.37 -2.51812 1.01503 0
M  V30 13022 C 1242.83 -1.36373 3.33062 0
M  V30 13023 C 1242.44 -0.365283 4.46508 0
M  V30 13024 C 1244.18 -2.0375 3.72406 0
M  V30 13025 C 1242.09 -0.998371 5.82912 0
M  V30 13026 H 1241.02 -0.279413 0.700317 0
M  V30 13027 H 1243.67 0.00802425 1.83498 0
M  V30 13028 H 1242.05 -2.15899 3.31969 0
M  V30 13029 H 1243.22 0.402102 4.59042 0
M  V30 13030 H 1241.54 0.205505 4.15893 0
M  V30 13031 H 1244.14 -2.51939 4.71625 0
M  V30 13032 H 1244.48 -2.84869 3.03571 0
M  V30 13033 H 1245.01 -1.3102 3.75604 0
M  V30 13034 H 1241.75 -0.226935 6.55107 0
M  V30 13035 H 1241.27 -1.73598 5.74129 0
M  V30 13036 H 1242.95 -1.51044 6.29122 0
M  V30 13037 N 1243.08 -1.54377 -0.317073 0
M  V30 13038 C 1244.31 -1.76865 -1.07362 0
M  V30 13039 C 1244.73 -0.520354 -1.81488 0
M  V30 13040 O 1244.08 0.509213 -1.75252 0
M  V30 13041 C 1244.13 -2.96598 -2.06668 0
M  V30 13042 O 1243.85 -4.16602 -1.35552 0
M  V30 13043 C 1245.36 -3.31348 -2.94489 0
M  V30 13044 H 1242.58 -0.590277 -0.319083 0
M  V30 13045 H 1245.12 -2.01284 -0.361227 0
M  V30 13046 H 1243.27 -2.74433 -2.73432 0
M  V30 13047 H 1243.69 -4.83996 -2.02108 0
M  V30 13048 H 1245.16 -4.1841 -3.60051 0
M  V30 13049 H 1245.64 -2.48797 -3.61935 0
M  V30 13050 H 1246.25 -3.55614 -2.33278 0
M  V30 13051 N 1244.56 0.579466 -1.4656 0
M  V30 13052 C 1245.81 1.33756 -1.52038 0
M  V30 13053 C 1246.14 1.93725 -0.173423 0
M  V30 13054 O 1245.39 1.77167 0.831293 0
M  V30 13055 C 1245.69 2.48417 -2.56951 0
M  V30 13056 C 1245.36 2.0642 -4.00876 0
M  V30 13057 C 1244.02 1.94682 -4.4006 0
M  V30 13058 C 1246.37 1.74066 -4.91274 0
M  V30 13059 C 1243.7 1.48852 -5.67503 0
M  V30 13060 C 1246.05 1.29714 -6.19158 0
M  V30 13061 C 1244.71 1.16555 -6.57245 0
M  V30 13062 H 1243.98 0.489447 -0.556347 0
M  V30 13063 H 1246.63 0.652176 -1.80053 0
M  V30 13064 H 1244.94 3.22416 -2.2261 0
M  V30 13065 H 1246.63 3.06629 -2.58418 0
M  V30 13066 H 1243.22 2.16492 -3.69904 0
M  V30 13067 H 1247.41 1.82019 -4.61717 0
M  V30 13068 H 1242.66 1.3731 -5.95782 0
M  V30 13069 H 1246.84 1.03734 -6.88631 0
M  V30 13070 H 1244.46 0.808193 -7.55892 0
M  V30 13071 N 1246.04 1.3432 0.824371 0
M  V30 13072 C 1246.95 1.27847 1.96704 0
M  V30 13073 C 1247.96 0.18641 1.72999 0
M  V30 13074 O 1249.14 0.412623 1.97128 0
M  V30 13075 C 1246.21 1.03231 3.30975 0
M  V30 13076 C 1245.27 2.21579 3.67697 0
M  V30 13077 C 1244.5 1.98128 4.95561 0
M  V30 13078 O 1244.72 0.938798 5.62621 0
M  V30 13079 O 1243.66 2.85041 5.30128 0
M  V30 13080 H 1247.48 2.23974 2.05108 0
M  V30 13081 H 1245.07 1.14512 0.959554 0
M  V30 13082 H 1246.95 0.912784 4.11395 0
M  V30 13083 H 1245.62 0.101425 3.23541 0
M  V30 13084 H 1244.53 2.3909 2.87727 0
M  V30 13085 H 1245.86 3.13052 3.79815 0
M  V30 13086 N 1247.52 -1.0444 1.18026 0
M  V30 13087 C 1248.45 -2.14297 0.927314 0
M  V30 13088 C 1249.43 -1.69575 -0.13357 0
M  V30 13089 O 1250.61 -1.94191 0.0182439 0
M  V30 13090 C 1247.74 -3.44397 0.448134 0
M  V30 13091 C 1246.7 -4.02723 1.44907 0
M  V30 13092 C 1246.02 -5.28257 0.827555 0
M  V30 13093 C 1247.32 -4.39331 2.82463 0
M  V30 13094 H 1249.02 -2.35715 1.84605 0
M  V30 13095 H 1246.56 -1.13281 0.889012 0
M  V30 13096 H 1248.52 -4.20606 0.258554 0
M  V30 13097 H 1247.24 -3.22654 -0.506159 0
M  V30 13098 H 1245.9 -3.28591 1.62552 0
M  V30 13099 H 1245.55 -5.02822 -0.13381 0
M  V30 13100 H 1245.25 -5.68242 1.49581 0
M  V30 13101 H 1246.77 -6.07147 0.64842 0
M  V30 13102 H 1248.18 -5.06543 2.68491 0
M  V30 13103 H 1246.58 -4.90355 3.45936 0
M  V30 13104 H 1247.65 -3.4933 3.36299 0
M  V30 13105 N 1248.99 -0.981699 -1.2329 0
M  V30 13106 C 1250.27 -0.567659 -1.87182 0
M  V30 13107 C 1250.65 0.955194 -1.88253 0
M  V30 13108 O 1250 1.83245 -1.36504 0
M  V30 13109 C 1250.21 -1.17522 -3.28618 0
M  V30 13110 C 1251.56 -1.26877 -4.052 0
M  V30 13111 O 1252.58 -1.12877 -3.37842 0
M  V30 13112 O 1251.44 -1.49163 -5.2575 0
M  V30 13113 H 1248.53 -0.191315 -0.804567 0
M  V30 13114 H 1251.08 -1.07686 -1.31155 0
M  V30 13115 H 1249.85 -2.21735 -3.22411 0
M  V30 13116 H 1249.48 -0.650913 -3.92236 0
M  V30 13117 N 1250.47 1.3842 -0.753509 0
M  V30 13118 C 1251.38 2.34252 -0.127811 0
M  V30 13119 C 1252.4 1.59266 0.700743 0
M  V30 13120 O 1253.57 1.9146 0.624914 0
M  V30 13121 C 1250.64 3.38382 0.754886 0
M  V30 13122 C 1249.7 4.2921 -0.0880312 0
M  V30 13123 C 1248.93 5.28367 0.75263 0
M  V30 13124 O 1249.16 5.34537 1.99064 0
M  V30 13125 O 1248.09 6.01656 0.171475 0
M  V30 13126 H 1251.92 2.89454 -0.91925 0
M  V30 13127 H 1249.5 1.40265 -0.514404 0
M  V30 13128 H 1251.38 4.02141 1.25938 0
M  V30 13129 H 1250.06 2.85536 1.52482 0
M  V30 13130 H 1248.97 3.68611 -0.638468 0
M  V30 13131 H 1250.3 4.85311 -0.82062 0
M  V30 13132 N 1251.95 0.502579 1.49372 0
M  V30 13133 C 1253.37 0.158641 1.5881 0
M  V30 13134 C 1253.57 -1.33688 1.50764 0
M  V30 13135 O 1252.62 -2.11295 1.38241 0
M  V30 13136 C 1253.94 0.736843 2.91532 0
M  V30 13137 C 1255.48 0.703093 3.05001 0
M  V30 13138 C 1255.96 1.25938 4.40345 0
M  V30 13139 N 1257.45 1.22015 4.46841 0
M  V30 13140 C 1258.18 1.62076 5.50017 0
M  V30 13141 N 1257.68 2.09736 6.6029 0
M  V30 13142 N 1259.47 1.53482 5.4074 0
M  V30 13143 H 1251.62 1.47487 1.52844 0
M  V30 13144 H 1253.89 0.611851 0.724115 0
M  V30 13145 H 1253.59 1.78573 3.02992 0
M  V30 13146 H 1253.47 0.198178 3.76679 0
M  V30 13147 H 1255.85 -0.336965 2.9317 0
M  V30 13148 H 1255.94 1.27892 2.21534 0
M  V30 13149 H 1255.58 2.29823 4.52928 0
M  V30 13150 H 1255.51 0.659481 5.22454 0
M  V30 13151 H 1258 0.870957 3.67726 0
M  V30 13152 H 1258.31 2.3837 7.35119 0
M  V30 13153 H 1256.66 2.13712 6.61326 0
M  V30 13154 H 1259.85 1.16065 4.53483 0
M  V30 13155 H 1260.02 1.85026 6.21023 0
M  V30 13156 N 1253.43 -1.55816 0.23648 0
M  V30 13157 C 1254.68 -1.97862 -0.391579 0
M  V30 13158 C 1254.99 -1.1276 -1.59827 0
M  V30 13159 O 1256.2 -1.44772 -2.29681 0
M  V30 13160 C 1254.65 -3.5204 -0.748065 0
M  V30 13161 C 1254.26 -4.45867 0.436643 0
M  V30 13162 C 1256 -4.02766 -1.3409 0
M  V30 13163 C 1253.91 -5.91373 0.0568909 0
M  V30 13164 H 1252.84 -0.738913 -0.150078 0
M  V30 13165 H 1255.49 -1.80415 0.335052 0
M  V30 13166 H 1253.87 -3.65143 -1.53254 0
M  V30 13167 H 1255.05 -4.44519 1.21408 0
M  V30 13168 H 1253.36 -4.05565 0.943702 0
M  V30 13169 H 1255.96 -5.08987 -1.63817 0
M  V30 13170 H 1256.3 -3.49496 -2.26182 0
M  V30 13171 H 1256.84 -3.92946 -0.619548 0
M  V30 13172 H 1253.58 -6.48657 0.944682 0
M  V30 13173 H 1253.1 -5.95881 -0.684557 0
M  V30 13174 H 1254.77 -6.45972 -0.364586 0
M  V30 13175 N 1254.91 0.036755 -1.57557 0
M  V30 13176 C 1256.18 0.764087 -1.80059 0
M  V30 13177 C 1256.56 1.93983 -0.83269 0
M  V30 13178 O 1255.91 2.28148 0.126815 0
M  V30 13179 C 1256.12 1.20433 -3.27562 0
M  V30 13180 C 1257.47 1.6234 -3.9234 0
M  V30 13181 O 1258.49 1.29911 -3.31665 0
M  V30 13182 O 1257.35 2.22504 -4.99154 0
M  V30 13183 H 1254.45 0.368866 -0.74018 0
M  V30 13184 H 1256.99 0.0141254 -1.69694 0
M  V30 13185 H 1255.76 0.364646 -3.89597 0
M  V30 13186 H 1255.39 2.01454 -3.42786 0
M  V30 13187 N 1256.39 1.54543 0.308881 0
M  V30 13188 C 1257.33 1.84949 1.38067 0
M  V30 13189 C 1258.3 0.697746 1.50734 0
M  V30 13190 O 1259.49 0.94561 1.65719 0
M  V30 13191 C 1256.63 2.09544 2.74199 0
M  V30 13192 C 1255.74 3.37193 2.70046 0
M  V30 13193 C 1254.88 3.51672 3.98121 0
M  V30 13194 C 1253.91 4.73143 3.88333 0
M  V30 13195 N 1253.05 4.84469 5.08167 0
M  V30 13196 H 1257.89 2.76379 1.11438 0
M  V30 13197 H 1255.43 1.36863 0.539153 0
M  V30 13198 H 1257.39 2.21798 3.53358 0
M  V30 13199 H 1256.02 1.21389 2.99106 0
M  V30 13200 H 1255.07 3.33601 1.82796 0
M  V30 13201 H 1256.38 4.26468 2.58701 0
M  V30 13202 H 1255.53 3.63548 4.85714 0
M  V30 13203 H 1254.27 2.60516 4.1229 0
M  V30 13204 H 1253.28 4.61308 2.99124 0
M  V30 13205 H 1254.5 5.65698 3.75716 0
M  V30 13206 H 1252.45 3.96234 5.22814 0
M  V30 13207 H 1252.37 5.67733 4.99215 0
M  V30 13208 H 1253.63 5.00693 5.97434 0
M  V30 13209 N 1257.86 -0.571685 1.46866 0
M  V30 13210 C 1259.11 -1.33145 1.52972 0
M  V30 13211 C 1259.44 -1.93314 0.185344 0
M  V30 13212 O 1258.72 -1.77083 -0.80447 0
M  V30 13213 C 1259 -2.4525 2.63675 0
M  V30 13214 C 1258.85 -1.90044 4.0768 0
M  V30 13215 C 1260.17 -3.47247 2.70384 0
M  V30 13216 H 1257.29 -0.482751 0.556885 0
M  V30 13217 H 1259.93 -0.641163 1.78855 0
M  V30 13218 H 1258.08 -3.04132 2.41735 0
M  V30 13219 H 1259.76 -1.35535 4.4094 0
M  V30 13220 H 1258 -1.20805 4.1664 0
M  V30 13221 H 1258.67 -2.71019 4.80887 0
M  V30 13222 H 1261.15 -2.98263 2.90135 0
M  V30 13223 H 1260.02 -4.23132 3.49643 0
M  V30 13224 H 1260.28 -4.05179 1.76868 0
M  V30 13225 N 1259.34 -1.34755 -0.817236 0
M  V30 13226 C 1260.27 -1.29452 -1.94331 0
M  V30 13227 C 1261.25 -0.170902 -1.69239 0
M  V30 13228 O 1262.44 -0.364173 -1.90755 0
M  V30 13229 C 1259.57 -1.05497 -3.30889 0
M  V30 13230 C 1258.52 -2.14386 -3.70436 0
M  V30 13231 C 1257.85 -1.75612 -5.05039 0
M  V30 13232 C 1259.15 -3.56265 -3.81933 0
M  V30 13233 H 1260.84 -2.23672 -1.99025 0
M  V30 13234 H 1258.39 -1.07674 -0.956159 0
M  V30 13235 H 1260.34 -1.0043 -4.09257 0
M  V30 13236 H 1259.06 -0.0772059 -3.26509 0
M  V30 13237 H 1257.72 -2.18532 -2.94345 0
M  V30 13238 H 1257.37 -0.764809 -4.97152 0
M  V30 13239 H 1257.07 -2.48495 -5.3247 0
M  V30 13240 H 1258.6 -1.72051 -5.85859 0
M  V30 13241 H 1260.01 -3.545 -4.50558 0
M  V30 13242 H 1258.41 -4.27818 -4.20822 0
M  V30 13243 H 1259.48 -3.93192 -2.83775 0
M  V30 13244 N 1260.82 1.03812 -1.18578 0
M  V30 13245 C 1261.77 2.13994 -0.911563 0
M  V30 13246 C 1262.76 1.68907 0.129131 0
M  V30 13247 O 1263.97 1.7999 -0.0192557 0
M  V30 13248 H 1260.34 0.698996 -0.277324 0
M  V30 13249 H 1262.31 2.34318 -1.84763 0
M  V30 13250 C 1261.06 3.44689 -0.456591 0
M  V30 13251 H 1260.39 3.79793 -1.2489 0
M  V30 13252 H 1261.83 4.22911 -0.303738 0
M  V30 13253 C 1260.28 3.26568 0.827961 0
M  V30 13254 O 1260.81 3.54376 1.89158 0
M  V30 13255 N 1259.02 2.79893 0.781567 0
M  V30 13256 H 1258.57 2.57462 -0.0842145 0
M  V30 13257 H 1258.53 2.68148 1.64146 0
M  V30 13258 N 1262.3 0.988223 1.22768 0
M  V30 13259 C 1263.21 0.543407 2.2822 0
M  V30 13260 C 1264.22 -0.405563 1.69208 0
M  V30 13261 O 1265.4 -0.273551 1.99534 0
M  V30 13262 C 1262.46 -0.139495 3.46419 0
M  V30 13263 C 1261.53 0.851853 4.20764 0
M  V30 13264 C 1260.76 0.201446 5.3332 0
M  V30 13265 O 1260.98 -1.00573 5.61464 0
M  V30 13266 O 1259.92 0.903956 5.95073 0
M  V30 13267 H 1263.74 1.42059 2.68427 0
M  V30 13268 H 1261.33 0.756239 1.28846 0
M  V30 13269 H 1263.21 -0.522226 4.18152 0
M  V30 13270 H 1261.88 -0.991315 3.08147 0
M  V30 13271 H 1260.79 1.28543 3.51322 0
M  V30 13272 H 1262.12 1.67273 4.62905 0
M  V30 13273 N 1263.78 -1.38018 0.760839 0
M  V30 13274 C 1264.72 -2.30387 0.13796 0
M  V30 13275 C 1265.69 -1.50548 -0.701754 0
M  V30 13276 O 1266.88 -1.79154 -0.656381 0
M  V30 13277 C 1264.02 -3.36993 -0.743642 0
M  V30 13278 C 1263.13 -4.31856 0.111489 0
M  V30 13279 C 1262.27 -5.25534 -0.773796 0
M  V30 13280 C 1261.3 -6.12042 0.0845311 0
M  V30 13281 N 1260.44 -6.97995 -0.758118 0
M  V30 13282 H 1265.28 -2.83077 0.931212 0
M  V30 13283 H 1262.82 -1.39361 0.470833 0
M  V30 13284 H 1264.78 -3.97417 -1.26948 0
M  V30 13285 H 1263.41 -2.85695 -1.50261 0
M  V30 13286 H 1262.46 -3.72832 0.755031 0
M  V30 13287 H 1263.77 -4.92758 0.774042 0
M  V30 13288 H 1262.92 -5.9111 -1.36653 0
M  V30 13289 H 1261.66 -4.65017 -1.47006 0
M  V30 13290 H 1260.67 -5.45455 0.689883 0
M  V30 13291 H 1261.89 -6.74629 0.777966 0
M  V30 13292 H 1259.84 -6.40018 -1.4392 0
M  V30 13293 H 1259.76 -7.55846 -0.152623 0
M  V30 13294 H 1261.02 -7.67973 -1.33559 0
M  V30 13295 N 1265.25 -0.510493 -1.49103 0
M  V30 13296 C 1266.49 0.0288873 -2.0438 0
M  V30 13297 C 1266.86 1.334 -1.38088 0
M  V30 13298 O 1268.06 1.95821 -1.8414 0
M  V30 13299 C 1266.33 0.168392 -3.57003 0
M  V30 13300 S 1267.89 0.660651 -4.33798 0
M  V30 13301 H 1264.71 -0.00274928 -0.710995 0
M  V30 13302 H 1267.31 -0.686622 -1.83046 0
M  V30 13303 H 1266.01 -0.786627 -4.02791 0
M  V30 13304 H 1265.54 0.908861 -3.82757 0
M  V30 13305 H 1267.56 1.92833 -4.57198 0
M  V30 13306 N 1266.73 1.55688 -0.24474 0
M  V30 13307 C 1267.96 2.03743 0.387776 0
M  V30 13308 C 1268.38 1.1229 1.50906 0
M  V30 13309 O 1267.74 0.115445 1.80932 0
M  V30 13310 C 1267.79 3.49825 0.874927 0
M  V30 13311 O 1266.89 3.61504 1.98466 0
M  V30 13312 H 1266.23 0.658561 0.0848107 0
M  V30 13313 H 1268.76 2.01224 -0.370165 0
M  V30 13314 H 1268.77 3.90603 1.17871 0
M  V30 13315 H 1267.45 4.15864 0.0543852 0
M  V30 13316 H 1266.02 3.32622 1.68574 0
M  V30 13317 N 1268.21 -0.0283989 1.57574 0
M  V30 13318 C 1269.17 -1.01346 2.05576 0
M  V30 13319 C 1270.17 -1.28999 0.960001 0
M  V30 13320 O 1271.36 -1.23991 1.2236 0
M  V30 13321 C 1268.49 -2.34611 2.47327 0
M  V30 13322 H 1269.69 -0.598809 2.93861 0
M  V30 13323 H 1267.24 -0.27524 1.53857 0
M  V30 13324 H 1267.98 -2.80823 1.622 0
M  V30 13325 H 1267.76 -2.1587 3.27326 0
M  V30 13326 H 1269.25 -3.05332 2.84889 0
M  V30 13327 N 1269.69 -1.54705 -0.300681 0
M  V30 13328 C 1270.92 -1.77735 -1.05327 0
M  V30 13329 C 1271.33 -0.53709 -1.81417 0
M  V30 13330 O 1270.67 0.502663 -1.76689 0
M  V30 13331 C 1270.73 -2.93222 -2.07993 0
M  V30 13332 C 1270.39 -4.313 -1.51095 0
M  V30 13333 C 1271.39 -5.11317 -0.94082 0
M  V30 13334 C 1269.08 -4.77901 -1.54648 0
M  V30 13335 C 1271.07 -6.36055 -0.413791 0
M  V30 13336 C 1268.76 -6.02602 -1.01558 0
M  V30 13337 C 1269.76 -6.81515 -0.450209 0
M  V30 13338 O 1269.44 -8.03867 0.0726375 0
M  V30 13339 H 1269.18 -0.596468 -0.318122 0
M  V30 13340 H 1271.73 -2.02475 -0.345404 0
M  V30 13341 H 1269.96 -2.64108 -2.82461 0
M  V30 13342 H 1271.65 -3.03826 -2.69156 0
M  V30 13343 H 1272.41 -4.76458 -0.906268 0
M  V30 13344 H 1268.29 -4.16507 -1.97594 0
M  V30 13345 H 1271.84 -6.97594 0.0281534 0
M  V30 13346 H 1267.73 -6.36948 -1.04728 0
M  V30 13347 H 1268.5 -8.1849 -0.0406321 0
M  V30 13348 N 1271.17 0.563888 -1.47167 0
M  V30 13349 C 1272.39 1.34693 -1.57052 0
M  V30 13350 C 1272.81 1.87534 -0.218308 0
M  V30 13351 O 1272.17 1.64639 0.787416 0
M  V30 13352 C 1272.22 2.52148 -2.59044 0
M  V30 13353 O 1271.94 2.01492 -3.89015 0
M  V30 13354 C 1273.44 3.4445 -2.7905 0
M  V30 13355 H 1270.66 0.410822 -0.530534 0
M  V30 13356 H 1273.2 0.683731 -1.92731 0
M  V30 13357 H 1271.36 3.14419 -2.26317 0
M  V30 13358 H 1271.77 2.78122 -4.44689 0
M  V30 13359 H 1273.25 4.23297 -3.54293 0
M  V30 13360 H 1273.72 3.97575 -1.86631 0
M  V30 13361 H 1274.33 2.88 -3.12948 0
M  V30 13362 N 1272.64 1.35187 0.810078 0
M  V30 13363 C 1273.89 1.28454 1.56931 0
M  V30 13364 C 1274.22 -0.141747 1.93682 0
M  V30 13365 O 1273.5 -1.09028 1.61069 0
M  V30 13366 C 1273.78 2.18771 2.86027 0
M  V30 13367 C 1273.63 3.69999 2.55774 0
M  V30 13368 C 1274.95 2.08265 3.87703 0
M  V30 13369 H 1272.07 0.467959 0.569371 0
M  V30 13370 H 1274.71 1.65556 0.932262 0
M  V30 13371 H 1272.86 1.8726 3.40391 0
M  V30 13372 H 1274.54 4.11936 2.07621 0
M  V30 13373 H 1272.78 3.90453 1.89021 0
M  V30 13374 H 1273.45 4.28577 3.47888 0
M  V30 13375 H 1275.93 2.35958 3.42729 0
M  V30 13376 H 1274.8 2.73663 4.75815 0
M  V30 13377 H 1275.06 1.06352 4.29117 0
M  V30 13378 N 1274.12 -1.03182 1.19127 0
M  V30 13379 C 1275.03 -2.14875 0.94159 0
M  V30 13380 C 1276.05 -1.73727 -0.0973872 0
M  V30 13381 O 1277.22 -2.01214 0.0865775 0
M  V30 13382 C 1274.29 -3.43356 0.480366 0
M  V30 13383 C 1273.35 -3.98835 1.58838 0
M  V30 13384 C 1272.58 -5.21183 1.14907 0
M  V30 13385 O 1272.81 -5.70399 0.0114141 0
M  V30 13386 O 1271.74 -5.69423 1.95042 0
M  V30 13387 H 1275.57 -2.38799 1.8764 0
M  V30 13388 H 1273.15 -1.13299 0.973841 0
M  V30 13389 H 1275.03 -4.20763 0.231658 0
M  V30 13390 H 1273.71 -3.20884 -0.426041 0
M  V30 13391 H 1272.62 -3.22776 1.8912 0
M  V30 13392 H 1273.95 -4.25665 2.47123 0
M  V30 13393 N 1275.6 -0.99472 -1.22242 0
M  V30 13394 C 1276.53 -0.566499 -2.26524 0
M  V30 13395 C 1277.51 0.407541 -1.65146 0
M  V30 13396 O 1278.7 0.297777 -1.91903 0
M  V30 13397 C 1275.83 0.11786 -3.471 0
M  V30 13398 C 1274.78 -0.774908 -4.20927 0
M  V30 13399 C 1274.11 0.0424687 -5.34683 0
M  V30 13400 C 1275.41 -2.07263 -4.79416 0
M  V30 13401 H 1277.1 -1.43818 -2.62596 0
M  V30 13402 H 1274.65 -0.692971 -1.2623 0
M  V30 13403 H 1276.6 0.428842 -4.19212 0
M  V30 13404 H 1275.32 1.0241 -3.10129 0
M  V30 13405 H 1273.98 -1.06956 -3.50651 0
M  V30 13406 H 1273.63 0.949677 -4.93954 0
M  V30 13407 H 1273.33 -0.551867 -5.85003 0
M  V30 13408 H 1274.85 0.347504 -6.0961 0
M  V30 13409 H 1276.27 -1.82548 -5.4346 0
M  V30 13410 H 1274.67 -2.61594 -5.40082 0
M  V30 13411 H 1275.74 -2.75017 -3.99366 0
M  V30 13412 N 1277.08 1.37613 -0.768148 0
M  V30 13413 C 1278.33 1.99384 -0.330187 0
M  V30 13414 C 1278.65 1.61283 1.09604 0
M  V30 13415 O 1277.92 0.876551 1.75195 0
M  V30 13416 H 1276.5 0.737445 -0.119095 0
M  V30 13417 H 1279.16 1.6815 -0.985476 0
M  V30 13418 H 1278.26 3.09462 -0.40494 0
M  V30 13419 N 1278.56 0.518393 1.4883 0
M  V30 13420 C 1279.78 -0.0162 2.06894 0
M  V30 13421 C 1280.2 -1.29222 1.37649 0
M  V30 13422 O 1279.56 -1.766 0.460288 0
M  V30 13423 C 1279.61 -0.255836 3.60594 0
M  V30 13424 O 1279.33 0.969612 4.27235 0
M  V30 13425 C 1280.83 -0.832117 4.3542 0
M  V30 13426 H 1278.05 0.0282877 0.670403 0
M  V30 13427 H 1280.59 0.720726 1.91379 0
M  V30 13428 H 1278.75 -0.942782 3.75753 0
M  V30 13429 H 1279.16 0.743172 5.19208 0
M  V30 13430 H 1280.64 -0.949279 5.43776 0
M  V30 13431 H 1281.11 -1.83421 3.99066 0
M  V30 13432 H 1281.72 -0.1821 4.2491 0
M  V30 13433 N 1280.03 -1.55556 0.252993 0
M  V30 13434 C 1280.94 -2.25283 -0.654581 0
M  V30 13435 C 1281.96 -1.27103 -1.18831 0
M  V30 13436 O 1283.14 -1.59993 -1.22329 0
M  V30 13437 C 1280.2 -2.94336 -1.83214 0
M  V30 13438 C 1279.26 -4.0794 -1.33728 0
M  V30 13439 C 1278.5 -4.73691 -2.45871 0
M  V30 13440 O 1278.72 -4.38545 -3.64738 0
M  V30 13441 O 1277.65 -5.62083 -2.15283 0
M  V30 13442 H 1281.48 -3.03565 -0.0904091 0
M  V30 13443 H 1279.06 -1.49385 0.0212535 0
M  V30 13444 H 1280.95 -3.37808 -2.5192 0
M  V30 13445 H 1279.62 -2.18989 -2.38381 0
M  V30 13446 H 1278.53 -3.68971 -0.617323 0
M  V30 13447 H 1279.86 -4.85124 -0.831617 0
M  V30 13448 N 1281.51 0.0200419 -1.57587 0
M  V30 13449 C 1282.76 0.710078 -1.89962 0
M  V30 13450 C 1283.09 1.74521 -0.851829 0
M  V30 13451 O 1282.37 1.94052 0.132005 0
M  V30 13452 C 1282.65 1.37145 -3.32961 0
M  V30 13453 C 1282.5 0.349221 -4.48442 0
M  V30 13454 C 1283.82 2.30304 -3.75031 0
M  V30 13455 H 1280.94 0.25667 -0.690862 0
M  V30 13456 H 1283.58 -0.0271362 -1.89981 0
M  V30 13457 H 1281.73 1.99981 -3.33076 0
M  V30 13458 H 1283.4 -0.277916 -4.60462 0
M  V30 13459 H 1281.65 -0.330594 -4.32538 0
M  V30 13460 H 1282.32 0.850636 -5.45406 0
M  V30 13461 H 1284.79 1.77503 -3.7634 0
M  V30 13462 H 1283.67 2.73555 -4.75877 0
M  V30 13463 H 1283.93 3.17364 -3.07786 0
M  V30 13464 N 1282.99 1.54862 0.292472 0
M  V30 13465 C 1283.94 1.87168 1.38097 0
M  V30 13466 C 1284.93 0.746176 1.52081 0
M  V30 13467 O 1286.14 0.930281 1.54097 0
M  V30 13468 H 1282.51 0.593769 0.461456 0
M  V30 13469 H 1284.48 2.78135 1.0809 0
M  V30 13470 C 1283.23 2.14315 2.73796 0
M  V30 13471 H 1282.56 3.00398 2.63821 0
M  V30 13472 H 1284 2.40853 3.48949 0
M  V30 13473 C 1282.46 0.944424 3.23392 0
M  V30 13474 O 1282.99 0.169208 4.01343 0
M  V30 13475 N 1281.19 0.747456 2.80823 0
M  V30 13476 H 1280.74 1.37953 2.17547 0
M  V30 13477 H 1280.7 -0.0530199 3.14355 0
M  V30 13478 N 1284.47 -0.556076 1.47464 0
M  V30 13479 C 1285.38 -1.69043 1.62671 0
M  V30 13480 C 1286.39 -1.66372 0.509535 0
M  V30 13481 O 1287.57 -1.85799 0.777218 0
M  V30 13482 C 1284.64 -3.05546 1.63836 0
M  V30 13483 C 1283.7 -3.19275 2.86988 0
M  V30 13484 C 1282.93 -4.49267 2.88088 0
M  V30 13485 O 1283.15 -5.34796 1.98368 0
M  V30 13486 O 1282.09 -4.66811 3.79962 0
M  V30 13487 H 1285.91 -1.59155 2.58657 0
M  V30 13488 H 1283.5 -0.726211 1.30562 0
M  V30 13489 H 1285.38 -3.86778 1.67275 0
M  V30 13490 H 1284.05 -3.15814 0.710173 0
M  V30 13491 H 1282.96 -2.37437 2.89093 0
M  V30 13492 H 1284.29 -3.13912 3.79104 0
M  V30 13493 N 1285.95 -1.35615 -0.802897 0
M  V30 13494 C 1287.19 -1.29094 -1.56016 0
M  V30 13495 C 1287.52 0.133617 -1.9404 0
M  V30 13496 O 1286.78 1.09975 -1.61876 0
M  V30 13497 C 1287.08 -2.14653 -2.8576 0
M  V30 13498 C 1286.74 -3.63395 -2.66936 0
M  V30 13499 C 1285.4 -4.03937 -2.61511 0
M  V30 13500 C 1287.76 -4.57758 -2.49212 0
M  V30 13501 C 1285.08 -5.37006 -2.36309 0
M  V30 13502 C 1287.44 -5.91029 -2.25539 0
M  V30 13503 C 1286.1 -6.30712 -2.18538 0
M  V30 13504 H 1285.37 -0.472387 -0.570904 0
M  V30 13505 H 1288.02 -1.67545 -0.92741 0
M  V30 13506 H 1286.32 -1.69095 -3.53432 0
M  V30 13507 H 1288.02 -2.06941 -3.43477 0
M  V30 13508 H 1284.61 -3.31224 -2.72009 0
M  V30 13509 H 1288.79 -4.27318 -2.52414 0
M  V30 13510 H 1284.05 -5.66748 -2.29361 0
M  V30 13511 H 1288.22 -6.63724 -2.10816 0
M  V30 13512 H 1285.85 -7.33753 -1.98772 0
M  V30 13513 N 1287.43 1.02549 -1.19673 0
M  V30 13514 C 1288.39 2.09064 -0.939407 0
M  V30 13515 C 1289.39 1.60593 0.0814837 0
M  V30 13516 O 1290.58 1.73521 -0.153626 0
M  V30 13517 C 1287.71 3.38395 -0.412513 0
M  V30 13518 H 1288.9 2.33325 -1.88413 0
M  V30 13519 H 1286.46 1.19211 -1.01086 0
M  V30 13520 H 1287.19 3.19805 0.538094 0
M  V30 13521 H 1286.98 3.74898 -1.14863 0
M  V30 13522 H 1288.47 4.16841 -0.251678 0
M  V30 13523 N 1288.9 1.00119 1.21713 0
M  V30 13524 C 1290.14 0.690044 1.924 0
M  V30 13525 C 1290.51 -0.764695 1.76115 0
M  V30 13526 O 1291.71 -1.18764 2.4114 0
M  V30 13527 C 1289.98 1.09491 3.40215 0
M  V30 13528 S 1291.54 0.903392 4.294 0
M  V30 13529 H 1288.36 0.252037 0.66483 0
M  V30 13530 H 1290.96 1.28521 1.47318 0
M  V30 13531 H 1289.66 2.14987 3.49584 0
M  V30 13532 H 1289.19 0.491878 3.90313 0
M  V30 13533 H 1291.21 -0.201597 4.9579 0
M  V30 13534 N 1290.38 -1.37203 0.775435 0
M  V30 13535 C 1291.63 -1.99897 0.341936 0
M  V30 13536 C 1291.96 -1.61414 -1.07978 0
M  V30 13537 O 1291.24 -0.862108 -1.7435 0
M  V30 13538 C 1291.52 -3.56755 0.489715 0
M  V30 13539 C 1291.37 -4.05135 1.95411 0
M  V30 13540 C 1292.69 -4.39978 -0.103779 0
M  V30 13541 H 1289.81 -0.726199 0.125717 0
M  V30 13542 H 1292.45 -1.62826 0.979167 0
M  V30 13543 H 1290.6 -3.88464 -0.0527684 0
M  V30 13544 H 1292.27 -3.83975 2.55658 0
M  V30 13545 H 1290.52 -3.57192 2.46164 0
M  V30 13546 H 1291.19 -5.14161 2.00855 0
M  V30 13547 H 1293.66 -4.14547 0.359134 0
M  V30 13548 H 1292.54 -5.48892 0.0297337 0
M  V30 13549 H 1292.8 -4.25658 -1.19448 0
M  V30 13550 N 1291.86 -0.526279 -1.48553 0
M  V30 13551 C 1293.11 0.00918008 -2.02798 0
M  V30 13552 C 1293.44 1.34284 -1.4029 0
M  V30 13553 O 1292.71 1.86639 -0.547355 0
M  V30 13554 C 1293 0.135102 -3.59846 0
M  V30 13555 C 1292.85 -1.22347 -4.32841 0
M  V30 13556 C 1294.17 0.863673 -4.31542 0
M  V30 13557 H 1291.29 0.00186216 -0.736998 0
M  V30 13558 H 1293.93 -0.682591 -1.77315 0
M  V30 13559 H 1292.08 0.724279 -3.81689 0
M  V30 13560 H 1293.75 -1.85347 -4.22427 0
M  V30 13561 H 1291.99 -1.80631 -3.94405 0
M  V30 13562 H 1292.67 -1.08839 -5.41164 0
M  V30 13563 H 1295.14 0.363734 -4.14507 0
M  V30 13564 H 1294.02 0.92067 -5.41124 0
M  V30 13565 H 1294.28 1.91313 -3.98562 0
M  V30 13566 N 1293.34 1.5542 -0.261239 0
M  V30 13567 C 1294.3 2.20683 0.619011 0
M  V30 13568 C 1295.3 1.18042 1.09192 0
M  V30 13569 O 1296.49 1.43035 0.99432 0
M  V30 13570 C 1293.62 2.86179 1.85242 0
M  V30 13571 H 1294.82 2.99859 0.0493924 0
M  V30 13572 H 1292.37 1.56296 -0.0117687 0
M  V30 13573 H 1293.1 2.10978 2.4629 0
M  V30 13574 H 1292.89 3.61381 1.52138 0
M  V30 13575 H 1294.38 3.36081 2.47869 0
M  V30 13576 N 1294.82 -0.0116844 1.57596 0
M  V30 13577 C 1296.09 -0.735344 1.81251 0
M  V30 13578 C 1296.47 -1.92634 0.863446 0
M  V30 13579 O 1295.82 -2.28321 -0.0905028 0
M  V30 13580 C 1296.03 -1.15206 3.29437 0
M  V30 13581 C 1297.38 -1.56078 3.94873 0
M  V30 13582 O 1298.4 -1.24618 3.3369 0
M  V30 13583 O 1297.26 -2.14534 5.0263 0
M  V30 13584 H 1294.36 -0.357044 0.745955 0
M  V30 13585 H 1296.9 0.0128733 1.69695 0
M  V30 13586 H 1295.67 -0.302619 3.90128 0
M  V30 13587 H 1295.3 -1.95975 3.45947 0
M  V30 13588 N 1296.29 -1.55015 -0.284256 0
M  V30 13589 C 1297.26 -1.8636 -1.33426 0
M  V30 13590 C 1298.26 -0.737457 -1.42892 0
M  V30 13591 O 1299.45 -1.00569 -1.42238 0
M  V30 13592 C 1296.58 -2.05884 -2.71707 0
M  V30 13593 H 1297.77 -2.80212 -1.06869 0
M  V30 13594 H 1295.32 -1.47334 -0.521767 0
M  V30 13595 H 1296.06 -1.14376 -3.03461 0
M  V30 13596 H 1295.84 -2.87867 -2.66224 0
M  V30 13597 H 1297.33 -2.31447 -3.47595 0
M  V30 13598 N 1297.77 0.548248 -1.47757 0
M  V30 13599 C 1299.02 1.30694 -1.55071 0
M  V30 13600 C 1299.35 1.92994 -0.216075 0
M  V30 13601 O 1298.63 1.78341 0.776196 0
M  V30 13602 C 1298.91 2.41024 -2.67543 0
M  V30 13603 C 1298.76 1.83534 -4.10652 0
M  V30 13604 C 1300.08 3.42902 -2.75874 0
M  V30 13605 H 1297.2 0.47383 -0.564494 0
M  V30 13606 H 1299.84 0.612628 -1.79852 0
M  V30 13607 H 1297.99 3.00248 -2.46543 0
M  V30 13608 H 1299.66 1.28503 -4.4304 0
M  V30 13609 H 1297.91 1.14161 -4.18509 0
M  V30 13610 H 1298.58 2.63335 -4.85138 0
M  V30 13611 H 1301.05 2.9361 -2.94843 0
M  V30 13612 H 1299.93 4.17516 -3.5633 0
M  V30 13613 H 1300.19 4.02314 -1.83291 0
M  V30 13614 N 1299.25 1.36039 0.795694 0
M  V30 13615 C 1300.5 1.29251 1.54845 0
M  V30 13616 C 1300.81 -0.127926 1.95181 0
M  V30 13617 O 1302.02 -0.318141 2.6963 0
M  V30 13618 C 1300.47 2.26736 2.79497 0
M  V30 13619 C 1300.08 3.74183 2.46355 0
M  V30 13620 C 1301.83 2.28913 3.5749 0
M  V30 13621 C 1299.73 4.63462 3.67365 0
M  V30 13622 H 1298.66 0.48027 0.581255 0
M  V30 13623 H 1301.31 1.61366 0.873693 0
M  V30 13624 H 1299.7 1.87608 3.4874 0
M  V30 13625 H 1300.87 4.22011 1.8505 0
M  V30 13626 H 1299.18 3.7472 1.81586 0
M  V30 13627 H 1301.78 2.92828 4.47388 0
M  V30 13628 H 1302.12 1.2959 3.95616 0
M  V30 13629 H 1302.66 2.66627 2.9522 0
M  V30 13630 H 1299.4 5.63824 3.34339 0
M  V30 13631 H 1298.92 4.20354 4.27858 0
M  V30 13632 H 1300.6 4.79424 4.34467 0
M  V30 13633 N 1300.73 -1.01913 1.20215 0
M  V30 13634 C 1301.68 -2.104 0.948708 0
M  V30 13635 C 1302.65 -1.65665 -0.120139 0
M  V30 13636 O 1303.83 -1.90785 0.0240547 0
M  V30 13637 C 1300.97 -3.41398 0.504132 0
M  V30 13638 C 1300.08 -3.99625 1.64085 0
M  V30 13639 C 1299.22 -5.18673 1.14683 0
M  V30 13640 C 1298.26 -5.68977 2.2568 0
M  V30 13641 N 1297.39 -6.79289 1.77514 0
M  V30 13642 H 1302.23 -2.31415 1.87753 0
M  V30 13643 H 1299.77 -1.13487 0.935901 0
M  V30 13644 H 1301.73 -4.16578 0.22771 0
M  V30 13645 H 1300.36 -3.20463 -0.387689 0
M  V30 13646 H 1299.41 -3.21565 2.03225 0
M  V30 13647 H 1300.72 -4.32965 2.47674 0
M  V30 13648 H 1299.88 -6.01048 0.826223 0
M  V30 13649 H 1298.62 -4.86891 0.280797 0
M  V30 13650 H 1297.62 -4.85208 2.5856 0
M  V30 13651 H 1298.85 -6.02794 3.12755 0
M  V30 13652 H 1296.79 -6.49341 0.932338 0
M  V30 13653 H 1296.71 -7.11808 2.54686 0
M  V30 13654 H 1297.98 -7.65235 1.48446 0
M  V30 13655 N 1302.21 -1.00763 -1.2118 0
M  V30 13656 C 1303.43 -0.710746 -1.94309 0
M  V30 13657 C 1303.85 0.727103 -1.74237 0
M  V30 13658 O 1303.21 1.49223 -1.05065 0
M  V30 13659 C 1303.26 -1.02562 -3.46646 0
M  V30 13660 O 1302.98 -2.40699 -3.66054 0
M  V30 13661 C 1304.48 -0.748517 -4.36935 0
M  V30 13662 H 1301.7 -0.26171 -0.617858 0
M  V30 13663 H 1304.24 -1.34639 -1.53924 0
M  V30 13664 H 1302.4 -0.435537 -3.84944 0
M  V30 13665 H 1302.81 -2.51764 -4.60125 0
M  V30 13666 H 1304.29 -1.01899 -5.42513 0
M  V30 13667 H 1304.76 0.317423 -4.38051 0
M  V30 13668 H 1305.37 -1.32033 -4.04286 0
M  V30 13669 N 1303.68 1.3679 -0.7827 0
M  V30 13670 C 1304.61 2.32721 -0.190604 0
M  V30 13671 C 1305.6 1.56321 0.670663 0
M  V30 13672 O 1306.78 1.84507 0.605871 0
M  V30 13673 C 1303.91 3.40564 0.680717 0
M  V30 13674 C 1302.86 4.27925 -0.080118 0
M  V30 13675 C 1302.19 5.26876 0.911361 0
M  V30 13676 C 1303.49 5.06738 -1.26545 0
M  V30 13677 H 1305.18 2.82488 -0.992023 0
M  V30 13678 H 1302.73 1.35818 -0.478484 0
M  V30 13679 H 1304.68 4.06659 1.10482 0
M  V30 13680 H 1303.41 2.89348 1.51477 0
M  V30 13681 H 1302.07 3.63376 -0.485125 0
M  V30 13682 H 1301.71 4.71936 1.74026 0
M  V30 13683 H 1301.41 5.8619 0.406762 0
M  V30 13684 H 1302.94 5.95846 1.33418 0
M  V30 13685 H 1304.35 5.65911 -0.917448 0
M  V30 13686 H 1302.75 5.75432 -1.70289 0
M  V30 13687 H 1303.82 4.38772 -2.06415 0
M  V30 13688 N 1305.16 0.53415 1.48272 0
M  V30 13689 C 1306.09 -0.263508 2.2768 0
M  V30 13690 C 1307.11 -0.90064 1.35618 0
M  V30 13691 O 1308.3 -0.778379 1.60635 0
M  V30 13692 C 1305.4 -1.38878 3.09138 0
M  V30 13693 C 1304.57 -0.852784 4.29006 0
M  V30 13694 C 1303.63 -1.85969 4.92242 0
M  V30 13695 O 1302.65 -1.41497 5.51332 0
M  V30 13696 N 1303.86 -3.19207 4.84858 0
M  V30 13697 H 1306.62 0.417548 2.96777 0
M  V30 13698 H 1304.18 0.368743 1.57645 0
M  V30 13699 H 1306.17 -2.06062 3.48311 0
M  V30 13700 H 1304.74 -1.97343 2.42434 0
M  V30 13701 H 1303.96 -0.0048227 3.942 0
M  V30 13702 H 1305.25 -0.473634 5.06591 0
M  V30 13703 H 1304.65 -3.58001 4.38009 0
M  V30 13704 H 1303.21 -3.82013 5.28119 0
M  V30 13705 N 1306.64 -1.55279 0.269478 0
M  V30 13706 C 1308.05 -1.85286 -0.229372 0
M  V30 13707 C 1308.4 -1.19148 -1.55879 0
M  V30 13708 O 1307.53 -0.4778 -2.11059 0
M  V30 13709 C 1308.12 -3.3615 -0.42296 0
M  V30 13710 C 1306.68 -3.66301 -0.866047 0
M  V30 13711 C 1305.83 -2.77265 0.0439028 0
M  V30 13712 H 1308.78 -1.509 0.491427 0
M  V30 13713 H 1308.8 -3.5895 -1.26234 0
M  V30 13714 H 1308.31 -3.84258 0.544768 0
M  V30 13715 H 1306.41 -3.23688 -1.84545 0
M  V30 13716 H 1306.53 -4.73851 -0.707274 0
M  V30 13717 H 1304.89 -2.50299 -0.471433 0
M  V30 13718 H 1305.67 -3.28186 1.00741 0
M  V30 13719 N 1308.12 0.00332656 -1.576 0
M  V30 13720 C 1309.36 0.68989 -1.90705 0
M  V30 13721 C 1309.7 1.73608 -0.870291 0
M  V30 13722 O 1308.97 1.94181 0.111416 0
M  V30 13723 C 1309.26 1.33605 -3.34397 0
M  V30 13724 C 1309.11 0.301638 -4.48787 0
M  V30 13725 C 1310.43 2.26313 -3.77453 0
M  V30 13726 H 1307.55 0.249328 -0.693545 0
M  V30 13727 H 1310.19 -0.0472847 -1.89941 0
M  V30 13728 H 1308.34 1.96437 -3.35179 0
M  V30 13729 H 1310.01 -0.326738 -4.60141 0
M  V30 13730 H 1308.25 -0.376451 -4.32163 0
M  V30 13731 H 1308.92 0.792741 -5.46278 0
M  V30 13732 H 1311.4 1.73502 -3.78201 0
M  V30 13733 H 1310.28 2.68492 -4.78752 0
M  V30 13734 H 1310.54 3.14082 -3.11135 0
M  V30 13735 N 1309.6 1.55164 0.276031 0
M  V30 13736 C 1310.82 1.7998 1.03063 0
M  V30 13737 C 1311.25 0.569769 1.79263 0
M  V30 13738 O 1310.6 -0.48054 1.74816 0
M  V30 13739 C 1310.65 3.02209 1.96728 0
M  V30 13740 O 1309.76 2.77083 3.05449 0
M  V30 13741 H 1309.1 0.594963 0.294814 0
M  V30 13742 H 1311.63 2.02301 0.305861 0
M  V30 13743 H 1311.64 3.3086 2.38738 0
M  V30 13744 H 1310.31 3.91386 1.40677 0
M  V30 13745 H 1308.89 2.5952 2.67776 0
M  V30 13746 N 1311.07 -0.540404 1.48045 0
M  V30 13747 C 1311.98 -1.67308 1.64455 0
M  V30 13748 C 1313 -1.65823 0.527152 0
M  V30 13749 O 1314.18 -1.84964 0.796881 0
M  V30 13750 C 1311.24 -3.03792 1.67068 0
M  V30 13751 C 1310.3 -3.16213 2.90358 0
M  V30 13752 C 1309.54 -4.46187 2.92837 0
M  V30 13753 O 1309.76 -5.32662 2.04029 0
M  V30 13754 O 1308.69 -4.62754 3.84892 0
M  V30 13755 H 1312.52 -1.56403 2.6033 0
M  V30 13756 H 1310.1 -0.712323 1.31325 0
M  V30 13757 H 1311.99 -3.84982 1.71368 0
M  V30 13758 H 1310.66 -3.15043 0.74363 0
M  V30 13759 H 1309.57 -2.34357 2.91595 0
M  V30 13760 H 1310.9 -3.09874 3.82412 0
M  V30 13761 N 1312.55 -1.36459 -0.788468 0
M  V30 13762 C 1313.48 -1.33545 -1.91541 0
M  V30 13763 C 1314.46 -0.206762 -1.68839 0
M  V30 13764 O 1315.65 -0.404553 -1.89939 0
M  V30 13765 C 1312.78 -1.12492 -3.28577 0
M  V30 13766 C 1311.73 -2.22196 -3.65805 0
M  V30 13767 C 1311.06 -1.86285 -5.01201 0
M  V30 13768 C 1312.36 -3.64286 -3.7429 0
M  V30 13769 H 1314.05 -2.27844 -1.94236 0
M  V30 13770 H 1311.6 -1.09677 -0.933105 0
M  V30 13771 H 1313.55 -1.09089 -4.07035 0
M  V30 13772 H 1312.28 -0.146446 -3.26272 0
M  V30 13773 H 1310.93 -2.24727 -2.89644 0
M  V30 13774 H 1310.58 -0.87009 -4.95417 0
M  V30 13775 H 1310.28 -2.59734 -5.27079 0
M  V30 13776 H 1311.81 -1.84439 -5.82078 0
M  V30 13777 H 1313.22 -3.63977 -4.42937 0
M  V30 13778 H 1311.62 -4.36648 -4.11653 0
M  V30 13779 H 1312.69 -3.99123 -2.75371 0
M  V30 13780 N 1314.03 1.01274 -1.20754 0
M  V30 13781 C 1314.96 2.11763 -0.983805 0
M  V30 13782 C 1315.94 1.69869 0.0885635 0
M  V30 13783 O 1317.13 1.94075 -0.0697239 0
M  V30 13784 C 1314.26 3.43087 -0.539287 0
M  V30 13785 C 1313.21 3.9874 -1.55534 0
M  V30 13786 C 1312.54 5.25877 -0.967322 0
M  V30 13787 C 1313.84 4.31688 -2.94012 0
M  V30 13788 H 1315.53 2.30737 -1.90789 0
M  V30 13789 H 1313.08 1.10884 -0.918734 0
M  V30 13790 H 1315.03 4.19773 -0.369979 0
M  V30 13791 H 1313.75 3.23883 0.420435 0
M  V30 13792 H 1312.41 3.24166 -1.71207 0
M  V30 13793 H 1312.06 5.03 0.000448307 0
M  V30 13794 H 1311.76 5.64077 -1.64594 0
M  V30 13795 H 1313.28 6.05215 -0.809167 0
M  V30 13796 H 1314.7 4.99246 -2.81827 0
M  V30 13797 H 1313.1 4.81011 -3.58815 0
M  V30 13798 H 1314.17 3.4029 -3.45442 0
M  V30 13799 N 1315.51 1.01404 1.20644 0
M  V30 13800 C 1316.74 0.72104 1.93929 0
M  V30 13801 C 1317.15 -0.717853 1.7462 0
M  V30 13802 O 1316.51 -1.48664 1.05855 0
M  V30 13803 C 1316.56 1.04399 3.46097 0
M  V30 13804 O 1316.28 2.42637 3.64773 0
M  V30 13805 C 1317.78 0.771678 4.36532 0
M  V30 13806 H 1315 0.264983 0.616462 0
M  V30 13807 H 1317.55 1.35453 1.53208 0
M  V30 13808 H 1315.7 0.455946 3.84708 0
M  V30 13809 H 1316.12 2.54201 4.58783 0
M  V30 13810 H 1317.59 1.04774 5.41965 0
M  V30 13811 H 1318.07 -0.294188 4.38214 0
M  V30 13812 H 1318.67 1.34176 4.0358 0
M  V30 13813 N 1316.99 -1.36373 0.789944 0
M  V30 13814 C 1318.4 -1.81783 0.425677 0
M  V30 13815 C 1318.75 -1.65711 -1.05045 0
M  V30 13816 O 1317.87 -1.17835 -1.81505 0
M  V30 13817 C 1318.47 -3.3003 0.765866 0
M  V30 13818 C 1317.03 -3.73647 0.454421 0
M  V30 13819 C 1316.18 -2.58632 1.00023 0
M  V30 13820 H 1319.13 -1.24587 0.983044 0
M  V30 13821 H 1319.15 -3.80457 0.0571624 0
M  V30 13822 H 1318.66 -3.41696 1.84026 0
M  V30 13823 H 1316.76 -3.67541 -0.611918 0
M  V30 13824 H 1316.87 -4.69066 0.975401 0
M  V30 13825 H 1315.24 -2.51156 0.423434 0
M  V30 13826 H 1316.02 -2.73083 2.0804 0
M  V30 13827 N 1318.47 -0.542005 -1.47987 0
M  V30 13828 C 1319.4 0.202703 -2.32618 0
M  V30 13829 C 1320.38 0.923521 -1.42846 0
M  V30 13830 O 1321.56 0.906957 -1.7172 0
M  V30 13831 C 1318.69 1.24267 -3.24307 0
M  V30 13832 C 1317.65 0.639257 -4.23199 0
M  V30 13833 C 1316.97 1.78275 -5.04105 0
M  V30 13834 C 1318.27 -0.396982 -5.20789 0
M  V30 13835 H 1319.97 -0.503817 -2.95131 0
M  V30 13836 H 1317.51 -0.243736 -1.41922 0
M  V30 13837 H 1319.46 1.7717 -3.82347 0
M  V30 13838 H 1318.19 1.97893 -2.59819 0
M  V30 13839 H 1316.85 0.131655 -3.66364 0
M  V30 13840 H 1316.5 2.50768 -4.36032 0
M  V30 13841 H 1316.2 1.38487 -5.71047 0
M  V30 13842 H 1317.72 2.31533 -5.65 0
M  V30 13843 H 1319.13 0.0454057 -5.73282 0
M  V30 13844 H 1317.53 -0.712911 -5.9585 0
M  V30 13845 H 1318.6 -1.29843 -4.67193 0
M  V30 13846 N 1319.94 1.55134 -0.277709 0
M  V30 13847 C 1321.19 1.99259 0.337662 0
M  V30 13848 C 1321.51 1.16755 1.56183 0
M  V30 13849 O 1320.78 0.257707 1.94198 0
M  V30 13850 H 1319.36 0.735995 0.127751 0
M  V30 13851 H 1322.02 1.91087 -0.383646 0
M  V30 13852 H 1321.12 3.05763 0.625747 0
M  V30 13853 N 1321.42 0.00503138 1.57599 0
M  V30 13854 C 1322.67 -0.677979 1.89964 0
M  V30 13855 C 1322.98 -1.74657 0.88059 0
M  V30 13856 O 1324.19 -2.48455 1.09463 0
M  V30 13857 C 1322.65 -1.25708 3.37232 0
M  V30 13858 C 1322.25 -0.223045 4.47444 0
M  V30 13859 C 1324 -1.91799 3.787 0
M  V30 13860 C 1321.9 -0.812416 5.85793 0
M  V30 13861 H 1320.83 -0.256991 0.708852 0
M  V30 13862 H 1323.49 0.0663988 1.8338 0
M  V30 13863 H 1321.87 -2.05228 3.3867 0
M  V30 13864 H 1323.04 0.54794 4.57531 0
M  V30 13865 H 1321.36 0.337714 4.15028 0
M  V30 13866 H 1323.95 -2.36808 4.79402 0
M  V30 13867 H 1324.3 -2.75067 3.1248 0
M  V30 13868 H 1324.83 -1.19004 3.79583 0
M  V30 13869 H 1321.57 -0.0184031 6.55497 0
M  V30 13870 H 1321.09 -1.55244 5.79361 0
M  V30 13871 H 1322.77 -1.30952 6.33609 0
M  V30 13872 N 1322.9 -1.55308 -0.267798 0
M  V30 13873 C 1324.18 -1.66881 -1.02029 0
M  V30 13874 C 1324.56 -0.538708 -2.04111 0
M  V30 13875 O 1323.9 0.460575 -2.2381 0
M  V30 13876 C 1324.11 -3.06318 -1.67243 0
M  V30 13877 C 1325.46 -3.64237 -2.18212 0
M  V30 13878 O 1326.49 -3.08984 -1.77221 0
M  V30 13879 O 1325.35 -4.61055 -2.93413 0
M  V30 13880 H 1322.44 -0.677967 -0.473593 0
M  V30 13881 H 1324.99 -1.67646 -0.263242 0
M  V30 13882 H 1323.76 -3.80015 -0.932985 0
M  V30 13883 H 1323.38 -3.09475 -2.49622 0
M  V30 13884 N 1324.38 0.532545 -1.4833 0
M  V30 13885 C 1325.31 1.64662 -1.65555 0
M  V30 13886 C 1326.29 1.62447 -0.50447 0
M  V30 13887 O 1327.47 1.79684 -0.736712 0
M  V30 13888 C 1324.6 3.03256 -1.69272 0
M  V30 13889 C 1323.56 3.20329 -2.83854 0
M  V30 13890 C 1322.88 4.59958 -2.72659 0
M  V30 13891 C 1324.18 3.03345 -4.25181 0
M  V30 13892 H 1325.88 1.50502 -2.58823 0
M  V30 13893 H 1323.42 0.722612 -1.24556 0
M  V30 13894 H 1325.38 3.81064 -1.79911 0
M  V30 13895 H 1324.1 3.18433 -0.725805 0
M  V30 13896 H 1322.76 2.44937 -2.72766 0
M  V30 13897 H 1322.41 4.71967 -1.73942 0
M  V30 13898 H 1322.11 4.72327 -3.49544 0
M  V30 13899 H 1323.63 5.39869 -2.85262 0
M  V30 13900 H 1325.05 3.70948 -4.37116 0
M  V30 13901 H 1323.44 3.27208 -5.03045 0
M  V30 13902 H 1324.51 1.998 -4.41824 0
M  V30 13903 N 1325.86 1.36875 0.78122 0
M  V30 13904 C 1327.13 1.22101 1.52809 0
M  V30 13905 C 1327.51 -0.189402 2.10249 0
M  V30 13906 O 1326.86 -1.19598 1.94701 0
M  V30 13907 C 1327.07 2.30953 2.61652 0
M  V30 13908 C 1328.42 2.68027 3.29313 0
M  V30 13909 O 1329.44 2.30058 2.71941 0
M  V30 13910 O 1328.3 3.33407 4.33015 0
M  V30 13911 H 1325.4 0.4759 0.676349 0
M  V30 13912 H 1327.94 1.48629 0.818998 0
M  V30 13913 H 1326.71 3.25443 2.17261 0
M  V30 13914 H 1326.34 2.05837 3.40172 0
M  V30 13915 N 1327.33 -1.00632 1.21289 0
M  V30 13916 C 1328.24 -2.12829 0.986957 0
M  V30 13917 C 1329.26 -1.73895 -0.0605152 0
M  V30 13918 O 1330.44 -2.00985 0.129238 0
M  V30 13919 C 1327.5 -3.4226 0.553089 0
M  V30 13920 C 1326.56 -3.95376 1.67262 0
M  V30 13921 C 1325.79 -5.18629 1.25936 0
M  V30 13922 O 1326.02 -5.70246 0.132402 0
M  V30 13923 O 1324.95 -5.65157 2.07077 0
M  V30 13924 H 1328.78 -2.34765 1.92663 0
M  V30 13925 H 1326.36 -1.11208 0.997654 0
M  V30 13926 H 1328.24 -4.20177 0.320856 0
M  V30 13927 H 1326.92 -3.21716 -0.357881 0
M  V30 13928 H 1325.83 -3.18692 1.95924 0
M  V30 13929 H 1327.16 -4.20328 2.56097 0
M  V30 13930 N 1328.81 -1.02043 -1.20104 0
M  V30 13931 C 1330.06 -0.722748 -1.90126 0
M  V30 13932 C 1330.41 0.739891 -1.77605 0
M  V30 13933 O 1329.71 1.531 -1.152 0
M  V30 13934 C 1329.9 -1.098 -3.40116 0
M  V30 13935 C 1329.73 -2.59558 -3.67233 0
M  V30 13936 C 1328.5 -3.264 -3.85735 0
M  V30 13937 C 1330.7 -3.57753 -3.69483 0
M  V30 13938 N 1328.68 -4.65348 -4.00406 0
M  V30 13939 C 1330.05 -4.8228 -3.89623 0
M  V30 13940 C 1332.1 -3.51671 -3.52465 0
M  V30 13941 C 1330.81 -6.0146 -3.9451 0
M  V30 13942 C 1332.83 -4.70257 -3.58625 0
M  V30 13943 C 1332.2 -5.93595 -3.79242 0
M  V30 13944 H 1328.29 -0.316203 -0.71522 0
M  V30 13945 H 1330.88 -1.30602 -1.44399 0
M  V30 13946 H 1329.05 -0.543026 -3.84585 0
M  V30 13947 H 1330.78 -0.753461 -3.97624 0
M  V30 13948 H 1327.54 -2.76822 -3.84274 0
M  V30 13949 H 1327.96 -5.37501 -4.11609 0
M  V30 13950 H 1332.6 -2.57308 -3.35488 0
M  V30 13951 H 1330.32 -6.962 -4.10281 0
M  V30 13952 H 1333.91 -4.67171 -3.4676 0
M  V30 13953 H 1332.79 -6.83821 -3.83872 0
M  V30 13954 N 1330.29 1.35952 -0.797165 0
M  V30 13955 C 1331.52 2.0381 -0.38421 0
M  V30 13956 C 1331.94 1.597 0.993854 0
M  V30 13957 O 1331.3 0.769148 1.64176 0
M  V30 13958 C 1331.35 3.57589 -0.465054 0
M  V30 13959 O 1330.45 4.09043 0.525095 0
M  V30 13960 H 1329.79 0.643957 -0.161912 0
M  V30 13961 H 1332.32 1.73746 -1.08043 0
M  V30 13962 H 1332.33 4.06651 -0.331448 0
M  V30 13963 H 1331.01 3.89045 -1.47027 0
M  V30 13964 H 1329.58 3.7123 0.352509 0
M  V30 13965 N 1331.77 0.549846 1.47697 0
M  V30 13966 C 1332.7 -0.249645 2.2683 0
M  V30 13967 C 1333.68 -0.926968 1.33589 0
M  V30 13968 O 1334.86 -0.947423 1.62961 0
M  V30 13969 C 1331.99 -1.35511 3.1041 0
M  V30 13970 C 1331.04 -0.787118 4.19174 0
M  V30 13971 S 1331.87 0.360564 5.34285 0
M  V30 13972 C 1333.03 -0.746898 6.21428 0
M  V30 13973 H 1333.26 0.421876 2.94292 0
M  V30 13974 H 1330.79 0.336017 1.50699 0
M  V30 13975 H 1332.75 -1.98825 3.59137 0
M  V30 13976 H 1331.41 -1.99844 2.42325 0
M  V30 13977 H 1330.6 -1.61704 4.77355 0
M  V30 13978 H 1330.21 -0.230301 3.7329 0
M  V30 13979 H 1332.5 -1.6408 6.57331 0
M  V30 13980 H 1333.44 -0.202608 7.0781 0
M  V30 13981 H 1333.85 -1.03625 5.54907 0
M  V30 13982 N 1333.25 -1.54984 0.285932 0
M  V30 13983 C 1334.21 -2.2164 -0.583824 0
M  V30 13984 C 1335.21 -1.19764 -1.073 0
M  V30 13985 O 1336.4 -1.44598 -0.971439 0
M  V30 13986 C 1333.53 -2.8909 -1.80665 0
M  V30 13987 H 1334.72 -2.999 -0.00168109 0
M  V30 13988 H 1332.28 -1.56257 0.0366325 0
M  V30 13989 H 1333.01 -2.14869 -2.42903 0
M  V30 13990 H 1332.8 -3.63756 -1.4637 0
M  V30 13991 H 1334.29 -3.39982 -2.42491 0
M  V30 13992 N 1334.72 -0.0133892 -1.57594 0
M  V30 13993 C 1335.95 0.679255 -1.95432 0
M  V30 13994 C 1336.37 1.66558 -0.889028 0
M  V30 13995 O 1335.72 1.82031 0.130755 0
M  V30 13996 C 1335.78 1.39943 -3.33314 0
M  V30 13997 O 1335.5 0.452643 -4.35755 0
M  V30 13998 C 1337 2.18535 -3.85691 0
M  V30 13999 H 1334.22 0.188337 -0.644026 0
M  V30 14000 H 1336.76 -0.0684861 -2.04385 0
M  V30 14001 H 1334.92 2.0987 -3.25628 0
M  V30 14002 H 1335.33 0.962243 -5.15598 0
M  V30 14003 H 1336.8 2.64403 -4.84557 0
M  V30 14004 H 1337.28 3.01779 -3.19102 0
M  V30 14005 H 1337.89 1.53598 -3.96595 0
M  V30 14006 N 1336.2 1.55448 0.259558 0
M  V30 14007 C 1337.43 1.80465 1.00577 0
M  V30 14008 C 1337.84 0.585001 1.79929 0
M  V30 14009 O 1337.18 -0.455641 1.7796 0
M  V30 14010 C 1337.25 2.98634 2.00146 0
M  V30 14011 C 1336.91 4.35154 1.39607 0
M  V30 14012 C 1337.91 5.13631 0.804923 0
M  V30 14013 C 1335.59 4.81833 1.41923 0
M  V30 14014 C 1337.59 6.36929 0.245007 0
M  V30 14015 C 1335.27 6.05083 0.855458 0
M  V30 14016 C 1336.27 6.82469 0.269359 0
M  V30 14017 O 1335.96 8.03392 -0.285743 0
M  V30 14018 H 1335.69 0.604693 0.302196 0
M  V30 14019 H 1338.24 2.0332 0.291599 0
M  V30 14020 H 1336.47 2.71504 2.75359 0
M  V30 14021 H 1338.16 3.10855 2.61006 0
M  V30 14022 H 1338.93 4.78693 0.779625 0
M  V30 14023 H 1334.81 4.21599 1.86481 0
M  V30 14024 H 1338.35 6.97274 -0.213098 0
M  V30 14025 H 1334.25 6.395 0.878041 0
M  V30 14026 H 1335.02 8.1831 -0.17639 0
M  V30 14027 N 1337.68 -0.524672 1.4861 0
M  V30 14028 C 1338.91 -1.30292 1.60335 0
M  V30 14029 C 1339.32 -1.87338 0.264774 0
M  V30 14030 O 1338.66 -1.67388 -0.756756 0
M  V30 14031 C 1338.72 -2.48809 2.59488 0
M  V30 14032 C 1338.39 -2.12811 4.04426 0
M  V30 14033 C 1339.38 -1.68171 4.9195 0
M  V30 14034 C 1337.07 -2.23171 4.5 0
M  V30 14035 C 1339.06 -1.34363 6.23077 0
M  V30 14036 C 1336.75 -1.88975 5.81147 0
M  V30 14037 C 1337.75 -1.44643 6.67508 0
M  V30 14038 O 1337.44 -1.10898 7.96214 0
M  V30 14039 H 1337.17 -0.402288 0.543268 0
M  V30 14040 H 1339.72 -0.63908 1.95205 0
M  V30 14041 H 1337.95 -3.18192 2.19751 0
M  V30 14042 H 1339.64 -3.10866 2.60992 0
M  V30 14043 H 1340.41 -1.59632 4.57977 0
M  V30 14044 H 1336.29 -2.56632 3.82963 0
M  V30 14045 H 1339.83 -0.996875 6.90441 0
M  V30 14046 H 1335.73 -1.97156 6.14654 0
M  V30 14047 H 1336.5 -1.2425 8.09014 0
M  V30 14048 N 1339.16 -1.37287 -0.77395 0
M  V30 14049 C 1340.09 -1.35569 -1.90114 0
M  V30 14050 C 1341.07 -0.224658 -1.6861 0
M  V30 14051 O 1342.25 -0.424676 -1.895 0
M  V30 14052 C 1339.38 -1.15971 -3.27365 0
M  V30 14053 C 1338.34 -2.26063 -3.63427 0
M  V30 14054 C 1337.66 -1.9159 -4.99197 0
M  V30 14055 C 1338.96 -3.68236 -3.70405 0
M  V30 14056 H 1340.66 -2.29891 -1.91808 0
M  V30 14057 H 1338.2 -1.10661 -0.92142 0
M  V30 14058 H 1340.16 -1.134 -4.05855 0
M  V30 14059 H 1338.88 -0.181043 -3.26098 0
M  V30 14060 H 1337.54 -2.27786 -2.87244 0
M  V30 14061 H 1337.19 -0.922586 -4.94467 0
M  V30 14062 H 1336.89 -2.65309 -5.24294 0
M  V30 14063 H 1338.41 -1.90602 -5.80089 0
M  V30 14064 H 1339.83 -3.68655 -4.39052 0
M  V30 14065 H 1338.22 -4.4099 -4.06999 0
M  V30 14066 H 1339.29 -4.02021 -2.71122 0
M  V30 14067 N 1340.64 0.999871 -1.21821 0
M  V30 14068 C 1341.88 1.7384 -1.03855 0
M  V30 14069 C 1342.21 1.89749 0.42727 0
M  V30 14070 O 1341.47 1.43261 1.33323 0
M  V30 14071 C 1341.77 3.1509 -1.6868 0
M  V30 14072 C 1341.43 3.19115 -3.18554 0
M  V30 14073 C 1340.09 3.19921 -3.5945 0
M  V30 14074 C 1342.45 3.15954 -4.14515 0
M  V30 14075 C 1339.77 3.15257 -4.94803 0
M  V30 14076 C 1342.13 3.12831 -5.49836 0
M  V30 14077 C 1340.79 3.11949 -5.90122 0
M  V30 14078 H 1340.06 0.636126 -0.380032 0
M  V30 14079 H 1342.71 1.17151 -1.51485 0
M  V30 14080 H 1341.01 3.75044 -1.13356 0
M  V30 14081 H 1342.71 3.70962 -1.52277 0
M  V30 14082 H 1339.3 3.19234 -2.85986 0
M  V30 14083 H 1343.48 3.14487 -3.83942 0
M  V30 14084 H 1338.74 3.12915 -5.25256 0
M  V30 14085 H 1342.91 3.09339 -6.23925 0
M  V30 14086 H 1340.54 3.0809 -6.94971 0
M  V30 14087 N 1342.11 1.02678 1.19562 0
M  V30 14088 C 1343.39 0.63674 1.84946 0
M  V30 14089 C 1343.77 -0.884667 1.91669 0
M  V30 14090 O 1343.12 -1.78053 1.43211 0
M  V30 14091 C 1343.33 1.29637 3.2403 0
M  V30 14092 C 1344.68 1.41828 4.00212 0
M  V30 14093 O 1345.7 1.25338 3.3342 0
M  V30 14094 O 1344.56 1.68573 5.19851 0
M  V30 14095 H 1341.65 0.221044 0.796912 0
M  V30 14096 H 1344.2 1.1248 1.27068 0
M  V30 14097 H 1342.97 2.33549 3.1396 0
M  V30 14098 H 1342.6 0.796041 3.8955 0
M  V30 14099 N 1343.59 -1.35528 0.804364 0
M  V30 14100 C 1344.5 -2.33616 0.214663 0
M  V30 14101 C 1345.52 -1.61757 -0.64115 0
M  V30 14102 O 1346.69 -1.93647 -0.553424 0
M  V30 14103 C 1343.76 -3.40951 -0.628778 0
M  V30 14104 C 1342.82 -4.28587 0.247269 0
M  V30 14105 C 1342.05 -5.30796 -0.556012 0
M  V30 14106 O 1342.28 -5.41557 -1.79088 0
M  V30 14107 O 1341.21 -6.01878 0.0519437 0
M  V30 14108 H 1345.04 -2.85843 1.02605 0
M  V30 14109 H 1342.62 -1.38259 0.566108 0
M  V30 14110 H 1344.5 -4.06538 -1.10926 0
M  V30 14111 H 1343.18 -2.90999 -1.4178 0
M  V30 14112 H 1342.09 -3.65988 0.774835 0
M  V30 14113 H 1343.42 -4.81931 1.00017 0
M  V30 14114 N 1345.07 -0.557671 -1.47404 0
M  V30 14115 C 1346.3 -0.0366797 -2.07368 0
M  V30 14116 C 1346.72 1.2478 -1.40754 0
M  V30 14117 O 1346.08 1.74757 -0.48268 0
M  V30 14118 C 1346.13 0.141728 -3.60321 0
M  V30 14119 O 1345.23 1.20419 -3.94427 0
M  V30 14120 H 1344.57 -0.0515319 -0.661997 0
M  V30 14121 H 1347.1 -0.773485 -1.89416 0
M  V30 14122 H 1347.11 0.355787 -4.06446 0
M  V30 14123 H 1345.79 -0.796433 -4.08203 0
M  V30 14124 H 1344.36 0.970589 -3.60047 0
M  V30 14125 N 1346.55 1.54831 -0.294147 0
M  V30 14126 C 1347.8 1.99606 0.316509 0
M  V30 14127 C 1348.12 1.18405 1.54936 0
M  V30 14128 O 1347.39 0.278289 1.93913 0
M  V30 14129 H 1345.97 0.737309 0.119938 0
M  V30 14130 H 1348.63 1.90669 -0.403891 0
M  V30 14131 H 1347.73 3.06409 0.593282 0
M  V30 14132 N 1348.03 0.0217466 1.57585 0
M  V30 14133 C 1348.94 -0.978407 2.13224 0
M  V30 14134 C 1349.95 -1.36212 1.08269 0
M  V30 14135 O 1351.13 -1.44504 1.40288 0
M  V30 14136 C 1348.19 -2.24462 2.6423 0
M  V30 14137 C 1347.26 -1.92201 3.83871 0
M  V30 14138 C 1346.49 -3.12786 4.32436 0
M  V30 14139 O 1346.71 -4.25201 3.8021 0
M  V30 14140 O 1345.65 -2.95514 5.24362 0
M  V30 14141 H 1349.47 -0.535347 2.98944 0
M  V30 14142 H 1347.06 -0.198414 1.48077 0
M  V30 14143 H 1348.94 -2.98809 2.97138 0
M  V30 14144 H 1347.61 -2.67964 1.81596 0
M  V30 14145 H 1346.52 -1.15262 3.55901 0
M  V30 14146 H 1347.85 -1.53521 4.67645 0
M  V30 14147 N 1349.51 -1.55583 -0.251311 0
M  V30 14148 C 1350.75 -1.77209 -0.979966 0
M  V30 14149 C 1351.08 -0.585279 -1.85485 0
M  V30 14150 O 1350.34 0.431559 -1.90882 0
M  V30 14151 C 1350.63 -3.04291 -1.87461 0
M  V30 14152 C 1350.3 -4.35844 -1.15545 0
M  V30 14153 C 1348.96 -4.71594 -0.956679 0
M  V30 14154 C 1351.31 -5.17189 -0.645381 0
M  V30 14155 C 1348.64 -5.86227 -0.235465 0
M  V30 14156 C 1350.99 -6.32569 0.0623441 0
M  V30 14157 C 1349.66 -6.66943 0.272634 0
M  V30 14158 H 1348.93 -0.648452 -0.358595 0
M  V30 14159 H 1351.58 -1.89856 -0.250423 0
M  V30 14160 H 1349.88 -2.86637 -2.67108 0
M  V30 14161 H 1351.58 -3.18221 -2.44001 0
M  V30 14162 H 1348.17 -4.07757 -1.32031 0
M  V30 14163 H 1352.35 -4.90028 -0.786505 0
M  V30 14164 H 1347.61 -6.11369 -0.0620232 0
M  V30 14165 H 1351.78 -6.94844 0.465234 0
M  V30 14166 H 1349.41 -7.55617 0.833442 0
M  V30 14167 N 1350.98 0.516783 -1.48886 0
M  V30 14168 C 1351.93 1.62003 -1.64389 0
M  V30 14169 C 1352.9 1.58842 -0.485633 0
M  V30 14170 O 1354.09 1.77068 -0.710742 0
M  V30 14171 C 1351.23 3.00218 -1.70186 0
M  V30 14172 C 1350.34 3.13513 -2.97209 0
M  V30 14173 C 1349.47 4.42366 -2.94084 0
M  V30 14174 C 1348.51 4.49238 -4.15754 0
M  V30 14175 N 1347.65 5.69497 -4.10631 0
M  V30 14176 H 1352.49 1.48093 -2.58597 0
M  V30 14177 H 1350.03 0.720788 -1.2823 0
M  V30 14178 H 1351.98 3.80307 -1.71529 0
M  V30 14179 H 1350.61 3.12868 -0.794578 0
M  V30 14180 H 1349.67 2.26589 -3.05551 0
M  V30 14181 H 1350.98 3.14451 -3.87197 0
M  V30 14182 H 1350.13 5.3076 -2.93902 0
M  V30 14183 H 1348.87 4.43969 -2.01847 0
M  V30 14184 H 1347.88 3.59248 -4.16198 0
M  V30 14185 H 1349.1 4.49363 -5.09166 0
M  V30 14186 H 1347.05 5.71973 -3.21222 0
M  V30 14187 H 1346.96 5.71985 -4.94337 0
M  V30 14188 H 1348.23 6.60142 -4.14527 0
M  V30 14189 N 1352.46 1.37696 0.766659 0
M  V30 14190 C 1353.39 1.36576 1.89392 0
M  V30 14191 C 1354.37 0.233597 1.68488 0
M  V30 14192 O 1355.56 0.434719 1.89272 0
M  V30 14193 C 1352.69 1.17705 3.26746 0
M  V30 14194 C 1351.64 2.27987 3.62224 0
M  V30 14195 C 1350.97 1.94235 4.98174 0
M  V30 14196 C 1352.27 3.70195 3.68447 0
M  V30 14197 H 1353.96 2.30905 1.90587 0
M  V30 14198 H 1351.51 1.11148 0.915538 0
M  V30 14199 H 1353.46 1.15551 4.05248 0
M  V30 14200 H 1352.18 0.198334 3.25997 0
M  V30 14201 H 1350.84 2.29306 2.86032 0
M  V30 14202 H 1350.49 0.948796 4.93971 0
M  V30 14203 H 1350.19 2.68086 5.2288 0
M  V30 14204 H 1351.72 1.93676 5.7907 0
M  V30 14205 H 1353.13 3.70978 4.37091 0
M  V30 14206 H 1351.53 4.43142 4.04654 0
M  V30 14207 H 1352.6 4.03453 2.68986 0
M  V30 14208 N 1353.94 -0.993397 1.22349 0
M  V30 14209 C 1354.9 -2.065 0.994506 0
M  V30 14210 C 1355.9 -1.60753 -0.0388766 0
M  V30 14211 O 1357.09 -1.73053 0.199578 0
M  V30 14212 C 1354.22 -3.37182 0.502088 0
M  V30 14213 H 1355.42 -2.28248 1.94533 0
M  V30 14214 H 1352.97 -1.16489 1.04211 0
M  V30 14215 H 1353.71 -3.21119 -0.453114 0
M  V30 14216 H 1353.49 -3.71721 1.24763 0
M  V30 14217 H 1354.98 -4.16027 0.362108 0
M  V30 14218 N 1355.42 -1.03311 -1.19015 0
M  V30 14219 C 1356.64 -0.751686 -1.93299 0
M  V30 14220 C 1357.07 0.68392 -1.75226 0
M  V30 14221 O 1356.43 1.47274 -1.05736 0
M  V30 14222 C 1356.47 -1.11335 -3.42982 0
M  V30 14223 O 1355.58 -0.234434 -4.11733 0
M  V30 14224 H 1354.92 -0.277331 -0.60331 0
M  V30 14225 H 1357.45 -1.38092 -1.5097 0
M  V30 14226 H 1357.46 -1.07204 -3.93664 0
M  V30 14227 H 1356.13 -2.15922 -3.55458 0
M  V30 14228 H 1354.71 -0.3347 -3.71395 0
M  V30 14229 N 1356.9 1.35099 -0.81154 0
M  V30 14230 C 1357.85 2.27139 -0.197958 0
M  V30 14231 C 1358.83 1.48006 0.631116 0
M  V30 14232 O 1360.02 1.70152 0.487562 0
M  V30 14233 C 1357.15 3.37118 0.648577 0
M  V30 14234 C 1356.24 4.23672 -0.190498 0
M  V30 14235 N 1356.63 4.89959 -1.25594 0
M  V30 14236 C 1354.93 4.45992 0.0270572 0
M  V30 14237 C 1355.63 5.54161 -1.76862 0
M  V30 14238 N 1354.6 5.32879 -1.07428 0
M  V30 14239 H 1358.4 2.75886 -1.01311 0
M  V30 14240 H 1355.92 1.48685 -0.653195 0
M  V30 14241 H 1357.92 4.0201 1.10423 0
M  V30 14242 H 1356.58 2.89922 1.46202 0
M  V30 14243 H 1357.59 4.91293 -1.63864 0
M  V30 14244 H 1354.26 4.09582 0.809248 0
M  V30 14245 H 1355.65 6.17032 -2.65935 0
M  V30 14246 N 1358.37 0.56548 1.47106 0
M  V30 14247 C 1359.31 -0.225573 2.27082 0
M  V30 14248 C 1360.28 -0.912747 1.34565 0
M  V30 14249 O 1361.47 -0.930085 1.63956 0
M  V30 14250 C 1358.6 -1.32211 3.1183 0
M  V30 14251 C 1357.64 -0.742615 4.19985 0
M  V30 14252 S 1358.47 0.417211 5.33872 0
M  V30 14253 C 1359.63 -0.680945 6.22185 0
M  V30 14254 H 1359.86 0.453066 2.93828 0
M  V30 14255 H 1357.4 0.351982 1.50334 0
M  V30 14256 H 1359.35 -1.95004 3.61225 0
M  V30 14257 H 1358.02 -1.97262 2.44431 0
M  V30 14258 H 1357.21 -1.56632 4.79043 0
M  V30 14259 H 1356.81 -0.190696 3.73514 0
M  V30 14260 H 1359.1 -1.57099 6.59034 0
M  V30 14261 H 1360.05 -0.127524 7.07985 0
M  V30 14262 H 1360.45 -0.977339 5.55975 0
M  V30 14263 N 1359.85 -1.54672 0.302354 0
M  V30 14264 C 1361.08 -2.04282 -0.308645 0
M  V30 14265 C 1361.49 -1.17912 -1.47965 0
M  V30 14266 O 1360.83 -0.197723 -1.82633 0
M  V30 14267 C 1360.9 -3.49872 -0.826417 0
M  V30 14268 C 1360.56 -4.56473 0.219486 0
M  V30 14269 C 1361.56 -5.0922 1.0484 0
M  V30 14270 C 1359.24 -5.00997 0.361574 0
M  V30 14271 C 1361.24 -6.05033 2.00533 0
M  V30 14272 C 1358.92 -5.9663 1.32195 0
M  V30 14273 C 1359.92 -6.48532 2.1423 0
M  V30 14274 O 1359.61 -7.42292 3.08639 0
M  V30 14275 H 1359.34 -0.67228 -0.0708187 0
M  V30 14276 H 1361.89 -2.00625 0.440314 0
M  V30 14277 H 1360.12 -3.50857 -1.62593 0
M  V30 14278 H 1361.81 -3.8267 -1.35345 0
M  V30 14279 H 1362.58 -4.75615 0.949501 0
M  V30 14280 H 1358.46 -4.60226 -0.267018 0
M  V30 14281 H 1362 -6.45469 2.64604 0
M  V30 14282 H 1357.9 -6.29652 1.42156 0
M  V30 14283 H 1358.67 -7.60098 3.03633 0
M  V30 14284 N 1361.33 -0.0301034 -1.57571 0
M  V30 14285 C 1362.57 0.652469 -1.93706 0
M  V30 14286 C 1362.93 1.69236 -0.906817 0
M  V30 14287 O 1364.14 2.42749 -1.1544 0
M  V30 14288 C 1362.41 1.25199 -3.34753 0
M  V30 14289 S 1363.97 1.9555 -3.92817 0
M  V30 14290 H 1360.78 0.214795 -0.677779 0
M  V30 14291 H 1363.39 -0.0940038 -1.95274 0
M  V30 14292 H 1362.09 0.482732 -4.07551 0
M  V30 14293 H 1361.62 2.03575 -3.36632 0
M  V30 14294 H 1363.64 3.23401 -3.76332 0
M  V30 14295 N 1362.81 1.55714 0.243056 0
M  V30 14296 C 1364.03 1.82126 0.992219 0
M  V30 14297 C 1364.46 0.607665 1.78014 0
M  V30 14298 O 1363.82 -0.443351 1.75796 0
M  V30 14299 C 1363.86 3.06314 1.90274 0
M  V30 14300 O 1362.97 2.83499 2.99503 0
M  V30 14301 H 1362.31 0.601082 0.282128 0
M  V30 14302 H 1364.84 2.02904 0.262881 0
M  V30 14303 H 1364.85 3.35849 2.31666 0
M  V30 14304 H 1363.52 3.94282 1.32344 0
M  V30 14305 H 1362.1 2.65141 2.62211 0
M  V30 14306 N 1364.29 -0.50888 1.49158 0
M  V30 14307 C 1365.53 -1.2635 1.58247 0
M  V30 14308 C 1365.86 -1.92677 0.265654 0
M  V30 14309 O 1365.12 -1.80931 -0.745818 0
M  V30 14310 C 1365.42 -2.35875 2.6851 0
M  V30 14311 C 1365.08 -1.87059 4.10268 0
M  V30 14312 C 1363.74 -1.73464 4.48847 0
M  V30 14313 C 1366.1 -1.50429 4.9902 0
M  V30 14314 C 1363.42 -1.21606 5.73959 0
M  V30 14315 C 1365.78 -1.00026 6.24642 0
M  V30 14316 C 1364.44 -0.850646 6.62058 0
M  V30 14317 H 1363.71 -0.462346 0.579066 0
M  V30 14318 H 1366.36 -0.565528 1.82959 0
M  V30 14319 H 1364.66 -3.11428 2.37739 0
M  V30 14320 H 1366.36 -2.9395 2.72753 0
M  V30 14321 H 1362.95 -1.98597 3.79812 0
M  V30 14322 H 1367.13 -1.59782 4.69876 0
M  V30 14323 H 1362.39 -1.08728 6.01655 0
M  V30 14324 H 1366.56 -0.707608 6.92796 0
M  V30 14325 H 1364.19 -0.446627 7.58887 0
M  V30 14326 N 1365.76 -1.381 -0.759346 0
M  V30 14327 C 1366.99 -1.37014 -1.54631 0
M  V30 14328 C 1367.4 0.0433843 -1.8915 0
M  V30 14329 O 1366.75 1.01888 -1.52855 0
M  V30 14330 C 1366.81 -2.15575 -2.87693 0
M  V30 14331 C 1366.47 -3.64438 -2.75743 0
M  V30 14332 C 1367.47 -4.58055 -2.45929 0
M  V30 14333 C 1365.15 -4.0772 -2.93376 0
M  V30 14334 C 1367.15 -5.92935 -2.33894 0
M  V30 14335 C 1364.83 -5.42682 -2.80961 0
M  V30 14336 C 1365.83 -6.35103 -2.51262 0
M  V30 14337 O 1365.52 -7.67583 -2.38896 0
M  V30 14338 H 1365.25 -0.47062 -0.485276 0
M  V30 14339 H 1367.81 -1.82214 -0.948 0
M  V30 14340 H 1366.04 -1.65084 -3.49691 0
M  V30 14341 H 1367.73 -2.06968 -3.49169 0
M  V30 14342 H 1368.49 -4.25923 -2.3198 0
M  V30 14343 H 1364.37 -3.36135 -3.15491 0
M  V30 14344 H 1367.91 -6.65041 -2.10634 0
M  V30 14345 H 1363.81 -5.74413 -2.94482 0
M  V30 14346 H 1364.58 -7.78042 -2.54152 0
M  V30 14347 N 1367.24 0.986894 -1.22875 0
M  V30 14348 C 1368.65 1.54182 -1.05284 0
M  V30 14349 C 1369 1.92448 0.381856 0
M  V30 14350 O 1368.13 1.75381 1.26769 0
M  V30 14351 C 1368.72 2.80173 -1.90496 0
M  V30 14352 C 1367.28 3.32088 -1.77185 0
M  V30 14353 C 1366.43 2.05128 -1.86596 0
M  V30 14354 H 1369.38 0.807304 -1.36632 0
M  V30 14355 H 1369.4 3.52772 -1.42591 0
M  V30 14356 H 1368.91 2.52291 -2.94908 0
M  V30 14357 H 1367.02 3.64864 -0.755295 0
M  V30 14358 H 1367.13 4.02285 -2.60199 0
M  V30 14359 H 1365.49 2.18964 -1.30103 0
M  V30 14360 H 1366.28 1.79635 -2.92551 0
M  V30 14361 N 1368.72 1.0394 1.18466 0
M  V30 14362 C 1370.13 0.77011 1.70077 0
M  V30 14363 C 1370.48 -0.70916 1.82935 0
M  V30 14364 O 1369.61 -1.55209 1.50795 0
M  V30 14365 C 1370.2 1.39132 3.08914 0
M  V30 14366 C 1368.76 1.17037 3.57742 0
M  V30 14367 C 1367.91 1.48279 2.34326 0
M  V30 14368 H 1370.86 1.20598 1.03159 0
M  V30 14369 H 1370.88 0.793861 3.72126 0
M  V30 14370 H 1370.39 2.46795 2.99523 0
M  V30 14371 H 1368.49 0.112435 3.7243 0
M  V30 14372 H 1368.61 1.8665 4.41247 0
M  V30 14373 H 1366.97 0.902438 2.38177 0
M  V30 14374 H 1367.75 2.57047 2.27556 0
M  V30 14375 N 1370.2 -1.34667 0.818693 0
M  V30 14376 C 1371.48 -1.92838 0.327521 0
M  V30 14377 C 1371.86 -1.74732 -1.18457 0
M  V30 14378 O 1371.2 -1.12352 -1.98971 0
M  V30 14379 C 1371.41 -3.40797 0.752207 0
M  V30 14380 C 1372.76 -4.17948 0.748613 0
M  V30 14381 O 1373.79 -3.49364 0.694517 0
M  V30 14382 O 1372.64 -5.40344 0.817958 0
M  V30 14383 H 1369.74 -0.822249 0.0885148 0
M  V30 14384 H 1372.28 -1.43668 0.9032 0
M  V30 14385 H 1371.06 -3.47759 1.79387 0
M  V30 14386 H 1370.68 -3.97309 0.151992 0
M  V30 14387 N 1371.68 -0.573274 -1.46804 0
M  V30 14388 C 1372.59 0.168081 -2.33997 0
M  V30 14389 C 1373.6 0.895652 -1.49178 0
M  V30 14390 O 1374.78 0.860951 -1.8207 0
M  V30 14391 C 1371.84 1.17483 -3.26188 0
M  V30 14392 C 1370.9 0.452956 -4.26904 0
M  V30 14393 C 1370.14 1.41175 -5.1469 0
M  V30 14394 O 1370.36 2.64767 -5.05227 0
M  V30 14395 O 1369.29 0.927472 -5.94711 0
M  V30 14396 H 1373.12 -0.547576 -2.98723 0
M  V30 14397 H 1370.71 -0.333747 -1.45624 0
M  V30 14398 H 1372.59 1.75557 -3.8309 0
M  V30 14399 H 1371.26 1.87213 -2.6407 0
M  V30 14400 H 1370.17 -0.169383 -3.73716 0
M  V30 14401 H 1371.5 -0.203186 -4.9178 0
M  V30 14402 N 1373.15 1.5451 -0.310553 0
M  V30 14403 C 1374.43 1.92452 0.34951 0
M  V30 14404 C 1374.81 1.23881 1.70929 0
M  V30 14405 O 1374.16 0.377898 2.25353 0
M  V30 14406 C 1374.37 3.46026 0.454675 0
M  V30 14407 C 1375.72 4.18432 0.721071 0
M  V30 14408 O 1376.74 3.52112 0.538112 0
M  V30 14409 O 1375.6 5.3586 1.07314 0
M  V30 14410 H 1372.69 0.803168 0.197103 0
M  V30 14411 H 1375.24 1.65852 -0.359313 0
M  V30 14412 H 1374.01 3.88081 -0.500853 0
M  V30 14413 H 1373.64 3.7869 1.21159 0
M  V30 14414 N 1374.63 0.0384594 1.57553 0
M  V30 14415 C 1375.54 -0.955737 2.14249 0
M  V30 14416 C 1376.56 -1.35056 1.09708 0
M  V30 14417 O 1377.74 -1.43008 1.41812 0
M  V30 14418 C 1374.8 -2.21647 2.66596 0
M  V30 14419 C 1373.86 -1.88119 3.85888 0
M  V30 14420 C 1373.09 -3.08182 4.35729 0
M  V30 14421 O 1373.32 -4.21145 3.84699 0
M  V30 14422 O 1372.25 -2.89936 5.27467 0
M  V30 14423 H 1376.08 -0.50361 2.99495 0
M  V30 14424 H 1373.66 -0.182698 1.48279 0
M  V30 14425 H 1375.54 -2.9564 3.00291 0
M  V30 14426 H 1374.22 -2.66022 1.84428 0
M  V30 14427 H 1373.13 -1.11481 3.57103 0
M  V30 14428 H 1374.46 -1.48553 4.69247 0
M  V30 14429 N 1376.11 -1.55841 -0.234795 0
M  V30 14430 C 1377.02 -1.94476 -1.31211 0
M  V30 14431 C 1378.04 -0.846782 -1.52005 0
M  V30 14432 O 1379.21 -1.14922 -1.65393 0
M  V30 14433 C 1376.28 -2.24213 -2.64442 0
M  V30 14434 C 1375.34 -3.47508 -2.52065 0
M  V30 14435 C 1374.57 -3.75817 -3.78942 0
M  V30 14436 O 1374.8 -3.06007 -4.81369 0
M  V30 14437 O 1373.73 -4.69328 -3.76848 0
M  V30 14438 H 1377.56 -2.8626 -1.01434 0
M  V30 14439 H 1375.14 -1.42879 -0.436563 0
M  V30 14440 H 1377.02 -2.44594 -3.4315 0
M  V30 14441 H 1375.7 -1.35605 -2.93927 0
M  V30 14442 H 1374.6 -3.32421 -1.71602 0
M  V30 14443 H 1375.94 -4.36457 -2.27523 0
M  V30 14444 N 1377.59 0.500963 -1.49426 0
M  V30 14445 C 1378.5 1.62889 -1.68833 0
M  V30 14446 C 1379.52 1.64367 -0.570932 0
M  V30 14447 O 1380.69 1.82786 -0.845641 0
M  V30 14448 C 1377.76 2.99255 -1.75063 0
M  V30 14449 C 1376.82 3.08404 -2.9864 0
M  V30 14450 C 1376.05 4.38266 -3.04564 0
M  V30 14451 O 1376.27 5.27065 -2.1808 0
M  V30 14452 O 1375.21 4.52387 -3.97026 0
M  V30 14453 H 1379.03 1.49446 -2.64385 0
M  V30 14454 H 1376.62 0.677254 -1.33168 0
M  V30 14455 H 1378.5 3.80303 -1.81515 0
M  V30 14456 H 1377.18 3.1296 -0.826896 0
M  V30 14457 H 1376.08 2.26544 -2.97706 0
M  V30 14458 H 1377.42 2.99626 -3.90494 0
M  V30 14459 N 1379.07 1.38501 0.752011 0
M  V30 14460 C 1380.32 1.34529 1.50819 0
M  V30 14461 C 1380.64 -0.0636155 1.94896 0
M  V30 14462 O 1379.91 -1.01161 1.6776 0
M  V30 14463 H 1378.49 0.49501 0.559441 0
M  V30 14464 H 1381.15 1.73196 0.893822 0
M  V30 14465 H 1380.24 1.99713 2.39835 0
M  V30 14466 N 1380.55 -0.980364 1.23396 0
M  V30 14467 C 1381.82 -1.69607 0.974319 0
M  V30 14468 C 1382.2 -2.0492 -0.507064 0
M  V30 14469 O 1381.55 -1.74239 -1.47827 0
M  V30 14470 C 1381.76 -2.93743 1.88457 0
M  V30 14471 C 1383.11 -3.66256 2.14806 0
M  V30 14472 O 1384.13 -3.03776 1.86007 0
M  V30 14473 O 1382.99 -4.78698 2.63648 0
M  V30 14474 H 1380.09 -0.740878 0.367462 0
M  V30 14475 H 1382.63 -1.03558 1.34439 0
M  V30 14476 H 1381.4 -2.64244 2.88601 0
M  V30 14477 H 1381.03 -3.67528 1.51688 0
M  V30 14478 N 1382.02 -1.04567 -1.17913 0
M  V30 14479 C 1383.26 -0.760977 -1.89706 0
M  V30 14480 C 1383.63 0.698804 -1.78832 0
M  V30 14481 O 1384.83 1.09733 -2.45382 0
M  V30 14482 C 1383.1 -1.22042 -3.35917 0
M  V30 14483 S 1384.66 -1.06214 -4.25751 0
M  V30 14484 H 1381.48 -0.276538 -0.655017 0
M  V30 14485 H 1384.08 -1.339 -1.42446 0
M  V30 14486 H 1382.78 -2.27813 -3.41364 0
M  V30 14487 H 1382.31 -0.636401 -3.88218 0
M  V30 14488 H 1384.33 0.0174486 -4.96197 0
M  V30 14489 N 1383.5 1.34231 -0.825823 0
M  V30 14490 C 1384.41 2.33245 -0.251803 0
M  V30 14491 C 1385.43 1.62756 0.615334 0
M  V30 14492 O 1386.6 1.94503 0.522547 0
M  V30 14493 C 1383.67 3.41908 0.574456 0
M  V30 14494 C 1382.73 4.2814 -0.315422 0
M  V30 14495 C 1381.96 5.31613 0.471496 0
M  V30 14496 O 1382.19 5.44337 1.70449 0
M  V30 14497 O 1381.12 6.01719 -0.147691 0
M  V30 14498 H 1384.95 2.84174 -1.07139 0
M  V30 14499 H 1382.53 1.37341 -0.588032 0
M  V30 14500 H 1384.41 4.08252 1.04444 0
M  V30 14501 H 1383.09 2.93217 1.37132 0
M  V30 14502 H 1381.99 3.64709 -0.832963 0
M  V30 14503 H 1383.33 4.80279 -1.07672 0
M  V30 14504 N 1384.98 0.581051 1.46498 0
M  V30 14505 C 1385.89 -0.155669 2.34083 0
M  V30 14506 C 1386.91 -0.887728 1.49651 0
M  V30 14507 O 1388.08 -0.851284 1.82524 0
M  V30 14508 C 1385.15 -1.15752 3.26806 0
M  V30 14509 C 1384.21 -0.43031 4.27138 0
M  V30 14510 C 1383.44 -1.38443 5.15431 0
M  V30 14511 O 1383.66 -2.62084 5.06624 0
M  V30 14512 O 1382.6 -0.89592 5.95195 0
M  V30 14513 H 1386.42 0.56341 2.98428 0
M  V30 14514 H 1384.01 0.341466 1.45445 0
M  V30 14515 H 1385.89 -1.73523 3.84015 0
M  V30 14516 H 1384.57 -1.85809 2.65059 0
M  V30 14517 H 1383.47 0.1892 3.73621 0
M  V30 14518 H 1384.81 0.229263 4.91666 0
M  V30 14519 N 1386.46 -1.54343 0.318742 0
M  V30 14520 C 1387.37 -2.27856 -0.558442 0
M  V30 14521 C 1388.38 -1.32029 -1.13333 0
M  V30 14522 O 1389.56 -1.65037 -1.15433 0
M  V30 14523 C 1386.62 -3.01842 -1.70565 0
M  V30 14524 C 1385.69 -4.13245 -1.16305 0
M  V30 14525 C 1384.92 -4.83693 -2.25559 0
M  V30 14526 O 1385.14 -4.53621 -3.4581 0
M  V30 14527 O 1384.08 -5.70708 -1.91249 0
M  V30 14528 H 1387.9 -3.03676 0.0384247 0
M  V30 14529 H 1385.49 -1.4916 0.0845936 0
M  V30 14530 H 1387.37 -3.48189 -2.37365 0
M  V30 14531 H 1386.04 -2.28902 -2.28879 0
M  V30 14532 H 1384.95 -3.71258 -0.460274 0
M  V30 14533 H 1386.28 -4.88214 -0.625111 0
M  V30 14534 N 1387.94 -0.0468143 -1.5753 0
M  V30 14535 C 1388.85 0.944362 -2.14753 0
M  V30 14536 C 1389.86 1.34473 -1.10422 0
M  V30 14537 O 1391.04 1.42254 -1.42569 0
M  V30 14538 C 1388.1 2.2023 -2.67768 0
M  V30 14539 C 1387.16 1.8607 -3.8688 0
M  V30 14540 C 1386.4 3.05867 -4.37357 0
M  V30 14541 O 1386.62 4.19099 -3.86927 0
M  V30 14542 O 1385.55 2.87134 -5.28997 0
M  V30 14543 H 1389.38 0.48772 -2.99758 0
M  V30 14544 H 1386.96 0.174831 -1.48374 0
M  V30 14545 H 1388.85 2.94044 -3.01855 0
M  V30 14546 H 1387.52 2.65041 -1.85836 0
M  V30 14547 H 1386.43 1.09586 -3.5769 0
M  V30 14548 H 1387.76 1.46062 -4.70028 0
M  V30 14549 N 1389.41 1.55964 0.226527 0
M  V30 14550 C 1390.66 1.78745 0.95165 0
M  V30 14551 C 1390.99 0.614714 1.84531 0
M  V30 14552 O 1390.24 -0.401137 1.91545 0
M  V30 14553 C 1390.54 3.07235 1.82597 0
M  V30 14554 C 1390.21 4.37627 1.08596 0
M  V30 14555 C 1388.87 4.73057 0.881531 0
M  V30 14556 C 1391.22 5.1815 0.563019 0
M  V30 14557 C 1388.55 5.86528 0.142172 0
M  V30 14558 C 1390.9 6.3239 -0.162972 0
M  V30 14559 C 1389.57 6.66425 -0.378704 0
M  V30 14560 H 1388.84 0.654075 0.348233 0
M  V30 14561 H 1391.48 1.9023 0.220187 0
M  V30 14562 H 1389.79 2.9085 2.62514 0
M  V30 14563 H 1391.49 3.22063 2.38907 0
M  V30 14564 H 1388.08 4.09806 1.25527 0
M  V30 14565 H 1392.26 4.91218 0.708446 0
M  V30 14566 H 1387.52 6.1139 -0.0352481 0
M  V30 14567 H 1391.69 6.94016 -0.575719 0
M  V30 14568 H 1389.32 7.54196 -0.953549 0
M  V30 14569 N 1390.89 -0.493031 1.4969 0
M  V30 14570 C 1391.8 -1.61991 1.69694 0
M  V30 14571 C 1392.82 -1.64061 0.579641 0
M  V30 14572 O 1393.99 -1.82335 0.855323 0
M  V30 14573 C 1391.06 -2.98323 1.76648 0
M  V30 14574 C 1390.12 -3.06816 3.00271 0
M  V30 14575 C 1389.35 -4.36644 3.06883 0
M  V30 14576 O 1389.58 -5.25901 2.20872 0
M  V30 14577 O 1388.51 -4.50275 3.99419 0
M  V30 14578 H 1392.34 -1.48042 2.65174 0
M  V30 14579 H 1389.92 -0.670182 1.33525 0
M  V30 14580 H 1391.8 -3.79335 1.83529 0
M  V30 14581 H 1390.48 -3.12517 0.843482 0
M  V30 14582 H 1389.39 -2.24962 2.98903 0
M  V30 14583 H 1390.72 -2.97551 3.92077 0
M  V30 14584 N 1392.37 -1.38898 -0.744656 0
M  V30 14585 C 1393.78 -1.31789 -1.32244 0
M  V30 14586 C 1394.13 0.0222208 -1.96187 0
M  V30 14587 O 1393.26 0.924328 -1.95666 0
M  V30 14588 C 1393.85 -2.38674 -2.40458 0
M  V30 14589 C 1392.41 -2.35116 -2.93935 0
M  V30 14590 C 1391.56 -2.21069 -1.67403 0
M  V30 14591 H 1394.51 -1.49126 -0.54287 0
M  V30 14592 H 1394.53 -2.04905 -3.20615 0
M  V30 14593 H 1394.04 -3.36197 -1.9389 0
M  V30 14594 H 1392.14 -1.41201 -3.44809 0
M  V30 14595 H 1392.26 -3.29602 -3.47706 0
M  V30 14596 H 1390.62 -1.68074 -1.91372 0
M  V30 14597 H 1391.4 -3.20547 -1.229 0
M  V30 14598 N 1393.85 0.973806 -1.23914 0
M  V30 14599 C 1395.07 1.7564 -1.10296 0
M  V30 14600 C 1395.5 1.84984 0.340954 0
M  V30 14601 O 1394.86 1.31629 1.24674 0
M  V30 14602 C 1394.9 3.15809 -1.7406 0
M  V30 14603 O 1394.01 3.99911 -1.00722 0
M  V30 14604 H 1393.35 0.540133 -0.386202 0
M  V30 14605 H 1395.88 1.22197 -1.64101 0
M  V30 14606 H 1395.89 3.66359 -1.79568 0
M  V30 14607 H 1394.56 3.08324 -2.79122 0
M  V30 14608 H 1393.14 3.58405 -1.02956 0
M  V30 14609 N 1395.33 1.05191 1.17357 0
M  V30 14610 C 1396.55 0.782373 1.91537 0
M  V30 14611 C 1396.97 -0.661935 1.76816 0
M  V30 14612 O 1396.33 -1.45221 1.10531 0
M  V30 14613 C 1396.38 1.15357 3.426 0
M  V30 14614 O 1396.1 2.54119 3.56869 0
M  V30 14615 C 1397.6 0.910167 4.33856 0
M  V30 14616 H 1394.82 0.284461 0.607719 0
M  V30 14617 H 1397.36 1.40259 1.48821 0
M  V30 14618 H 1395.52 0.578107 3.83062 0
M  V30 14619 H 1395.93 2.68668 4.50464 0
M  V30 14620 H 1397.41 1.21964 5.38358 0
M  V30 14621 H 1397.88 -0.154624 4.38928 0
M  V30 14622 H 1398.49 1.46947 3.99107 0
M  V30 14623 N 1396.8 -1.33791 0.83293 0
M  V30 14624 C 1397.74 -2.28148 0.219336 0
M  V30 14625 C 1398.75 -1.51477 -0.596529 0
M  V30 14626 O 1399.94 -1.73377 -0.424571 0
M  V30 14627 C 1397.04 -3.31373 -0.710305 0
M  V30 14628 C 1396.21 -4.37352 0.0649215 0
M  V30 14629 C 1395.27 -5.20279 -0.78716 0
M  V30 14630 O 1394.3 -5.68741 -0.228511 0
M  V30 14631 N 1395.5 -5.40973 -2.10544 0
M  V30 14632 H 1398.26 -2.81443 1.03004 0
M  V30 14633 H 1395.82 -1.46421 0.690831 0
M  V30 14634 H 1397.82 -3.83752 -1.28517 0
M  V30 14635 H 1396.39 -2.78398 -1.42173 0
M  V30 14636 H 1395.61 -3.85553 0.821144 0
M  V30 14637 H 1396.89 -5.05271 0.598199 0
M  V30 14638 H 1396.29 -5.03291 -2.58292 0
M  V30 14639 H 1394.85 -5.96432 -2.62893 0
M  V30 14640 N 1398.28 -0.588812 -1.46187 0
M  V30 14641 C 1399.51 -0.0824104 -2.06436 0
M  V30 14642 C 1399.92 1.23054 -1.43716 0
M  V30 14643 O 1399.26 1.7562 -0.538825 0
M  V30 14644 C 1399.33 0.151307 -3.59181 0
M  V30 14645 C 1398.99 -1.07697 -4.44129 0
M  V30 14646 C 1399.99 -1.99053 -4.80285 0
M  V30 14647 C 1397.67 -1.30053 -4.85172 0
M  V30 14648 C 1399.67 -3.11108 -5.56319 0
M  V30 14649 C 1397.35 -2.42412 -5.60963 0
M  V30 14650 C 1398.35 -3.32769 -5.96451 0
M  V30 14651 O 1398.04 -4.43175 -6.70709 0
M  V30 14652 H 1397.77 -0.0573231 -0.673565 0
M  V30 14653 H 1400.32 -0.811012 -1.88711 0
M  V30 14654 H 1398.55 0.934591 -3.75236 0
M  V30 14655 H 1400.24 0.606973 -4.01336 0
M  V30 14656 H 1401.01 -1.83 -4.4915 0
M  V30 14657 H 1396.89 -0.606295 -4.56996 0
M  V30 14658 H 1400.43 -3.81659 -5.83937 0
M  V30 14659 H 1396.33 -2.58426 -5.91512 0
M  V30 14660 H 1397.1 -4.4162 -6.8914 0
M  V30 14661 N 1399.76 1.54172 -0.326923 0
M  V30 14662 C 1400.67 2.28149 0.546351 0
M  V30 14663 C 1401.69 1.32628 1.12631 0
M  V30 14664 O 1402.86 1.65647 1.14556 0
M  V30 14665 C 1399.93 3.02742 1.68962 0
M  V30 14666 C 1398.99 4.13856 1.14112 0
M  V30 14667 C 1398.22 4.84882 2.2299 0
M  V30 14668 O 1398.44 4.55448 3.43399 0
M  V30 14669 O 1397.38 5.71714 1.8822 0
M  V30 14670 H 1401.2 3.03651 -0.0545288 0
M  V30 14671 H 1398.79 1.49113 -0.0925027 0
M  V30 14672 H 1400.67 3.49443 2.35515 0
M  V30 14673 H 1399.35 2.30113 2.27662 0
M  V30 14674 H 1398.25 3.71497 0.440579 0
M  V30 14675 H 1399.59 4.88539 0.599211 0
M  V30 14676 N 1401.24 0.0551678 1.57503 0
M  V30 14677 C 1402.47 -0.626291 1.96879 0
M  V30 14678 C 1402.88 -1.64677 0.93156 0
M  V30 14679 O 1402.22 -1.83469 -0.0921632 0
M  V30 14680 C 1402.28 -1.36674 3.32506 0
M  V30 14681 C 1401.95 -0.501632 4.54239 0
M  V30 14682 C 1402.94 0.233939 5.19373 0
M  V30 14683 C 1400.63 -0.431385 5.00444 0
M  V30 14684 C 1402.62 1.02815 6.29053 0
M  V30 14685 C 1400.31 0.366514 6.1 0
M  V30 14686 C 1401.31 1.09497 6.74166 0
M  V30 14687 O 1400.99 1.87974 7.81614 0
M  V30 14688 H 1400.73 -0.175738 0.652757 0
M  V30 14689 H 1403.28 0.11909 2.05054 0
M  V30 14690 H 1401.51 -2.15783 3.20896 0
M  V30 14691 H 1403.2 -1.93882 3.56602 0
M  V30 14692 H 1403.97 0.189161 4.84631 0
M  V30 14693 H 1399.84 -0.98798 4.50289 0
M  V30 14694 H 1403.39 1.59724 6.79068 0
M  V30 14695 H 1399.29 0.412916 6.44178 0
M  V30 14696 H 1400.05 1.80228 7.98411 0
M  V30 14697 N 1402.72 -1.56081 -0.218252 0
M  V30 14698 C 1403.96 -1.78893 -0.940296 0
M  V30 14699 C 1404.29 -0.62425 -1.84738 0
M  V30 14700 O 1403.56 0.358686 -1.92588 0
M  V30 14701 H 1402.14 -0.659828 -0.350193 0
M  V30 14702 H 1404.8 -1.93546 -0.229316 0
M  V30 14703 H 1403.89 -2.71167 -1.54516 0
M  V30 14704 N 1404.2 0.485086 -1.49949 0
M  V30 14705 C 1405.42 1.26179 -1.63971 0
M  V30 14706 C 1405.84 1.86113 -0.317408 0
M  V30 14707 O 1405.2 1.68581 0.699038 0
M  V30 14708 C 1405.25 2.38062 -2.72046 0
M  V30 14709 O 1404.97 1.80588 -3.99149 0
M  V30 14710 C 1406.47 3.29174 -2.96916 0
M  V30 14711 H 1403.69 0.382122 -0.551565 0
M  V30 14712 H 1406.23 0.580607 -1.96085 0
M  V30 14713 H 1404.39 3.0198 -2.42666 0
M  V30 14714 H 1404.8 2.54159 -4.58807 0
M  V30 14715 H 1406.28 4.03922 -3.76233 0
M  V30 14716 H 1406.75 3.87123 -2.07443 0
M  V30 14717 H 1407.36 2.71006 -3.27774 0
M  V30 14718 N 1405.67 1.39291 0.737279 0
M  V30 14719 C 1406.58 1.40098 1.88175 0
M  V30 14720 C 1407.6 0.296053 1.71463 0
M  V30 14721 O 1408.78 0.537153 1.94105 0
M  V30 14722 C 1405.84 1.24071 3.2374 0
M  V30 14723 C 1404.9 2.44515 3.52861 0
M  V30 14724 C 1404.13 2.29243 4.81958 0
M  V30 14725 O 1404.36 1.2947 5.55512 0
M  V30 14726 O 1403.29 3.18178 5.10927 0
M  V30 14727 H 1407.12 2.36565 1.90449 0
M  V30 14728 H 1404.7 1.20382 0.884786 0
M  V30 14729 H 1406.58 1.17257 4.04758 0
M  V30 14730 H 1405.26 0.30698 3.22241 0
M  V30 14731 H 1404.17 2.56905 2.71939 0
M  V30 14732 H 1405.5 3.36573 3.59137 0
M  V30 14733 N 1407.15 -0.967221 1.24429 0
M  V30 14734 C 1408.43 -1.68564 0.992253 0
M  V30 14735 C 1408.81 -2.05446 -0.485301 0
M  V30 14736 O 1408.16 -1.75798 -1.45971 0
M  V30 14737 C 1408.37 -2.91728 1.91562 0
M  V30 14738 C 1409.71 -3.63957 2.18678 0
M  V30 14739 O 1410.74 -3.01786 1.89219 0
M  V30 14740 O 1409.6 -4.75875 2.68711 0
M  V30 14741 H 1406.69 -0.736939 0.375299 0
M  V30 14742 H 1409.24 -1.02127 1.35529 0
M  V30 14743 H 1408.01 -2.61168 2.91388 0
M  V30 14744 H 1407.63 -3.65898 1.55577 0
M  V30 14745 N 1408.63 -1.05812 -1.16797 0
M  V30 14746 C 1409.91 -0.685551 -1.83193 0
M  V30 14747 C 1410.29 0.833539 -1.93947 0
M  V30 14748 O 1409.63 1.74193 -1.47882 0
M  V30 14749 C 1409.84 -1.38183 -3.20479 0
M  V30 14750 C 1411.19 -1.52389 -3.96311 0
M  V30 14751 O 1412.22 -1.34134 -3.2998 0
M  V30 14752 O 1411.08 -1.82297 -5.15199 0
M  V30 14753 H 1408.17 -0.242095 -0.790771 0
M  V30 14754 H 1410.72 -1.15809 -1.24041 0
M  V30 14755 H 1409.49 -2.41791 -3.07657 0
M  V30 14756 H 1409.11 -0.899043 -3.87302 0
M  V30 14757 N 1410.11 1.33347 -0.840014 0
M  V30 14758 C 1411.34 2.01659 -0.449141 0
M  V30 14759 C 1411.75 1.63353 0.954597 0
M  V30 14760 O 1411.09 0.843303 1.632 0
M  V30 14761 C 1411.15 3.56124 -0.491497 0
M  V30 14762 C 1410.81 4.17812 -1.85155 0
M  V30 14763 C 1411.81 4.37101 -2.81494 0
M  V30 14764 C 1409.5 4.54211 -2.1447 0
M  V30 14765 C 1411.49 4.91938 -4.05309 0
M  V30 14766 C 1409.18 5.08756 -3.38542 0
M  V30 14767 C 1410.18 5.27566 -4.33778 0
M  V30 14768 O 1409.86 5.8095 -5.55655 0
M  V30 14769 H 1409.6 0.652553 -0.176494 0
M  V30 14770 H 1412.15 1.71228 -1.13447 0
M  V30 14771 H 1410.38 3.85887 0.250613 0
M  V30 14772 H 1412.07 4.05728 -0.118288 0
M  V30 14773 H 1412.83 4.09328 -2.60146 0
M  V30 14774 H 1408.71 4.38864 -1.41135 0
M  V30 14775 H 1412.26 5.06536 -4.79654 0
M  V30 14776 H 1408.15 5.3596 -3.59746 0
M  V30 14777 H 1408.92 5.99363 -5.5741 0
M  V30 14778 N 1411.59 0.596556 1.45873 0
M  V30 14779 C 1412.52 -0.166704 2.28593 0
M  V30 14780 C 1413.53 -0.84231 1.39316 0
M  V30 14781 O 1414.72 -0.709548 1.63792 0
M  V30 14782 C 1411.82 -1.25641 3.1475 0
M  V30 14783 C 1410.99 -0.67006 4.32237 0
M  V30 14784 C 1410.05 -1.64924 4.99686 0
M  V30 14785 O 1409.08 -1.17986 5.56838 0
M  V30 14786 N 1410.28 -2.98355 4.9796 0
M  V30 14787 H 1413.04 0.543045 2.94739 0
M  V30 14788 H 1410.61 0.435274 1.55939 0
M  V30 14789 H 1412.6 -1.91104 3.56737 0
M  V30 14790 H 1411.17 -1.86883 2.50586 0
M  V30 14791 H 1410.39 0.162375 3.93865 0
M  V30 14792 H 1411.68 -0.258345 5.08144 0
M  V30 14793 H 1411.07 -3.39101 4.52799 0
M  V30 14794 H 1409.63 -3.5927 5.43846 0
M  V30 14795 N 1413.06 -1.53996 0.335095 0
M  V30 14796 C 1414.31 -2.00375 -0.263475 0
M  V30 14797 C 1414.63 -1.22471 -1.51742 0
M  V30 14798 O 1413.9 -0.329604 -1.93107 0
M  V30 14799 H 1412.48 -0.740229 -0.100347 0
M  V30 14800 H 1415.14 -1.89531 0.454302 0
M  V30 14801 H 1414.24 -3.07874 -0.511834 0
M  V30 14802 N 1414.54 -0.0635198 -1.57472 0
M  V30 14803 C 1415.49 0.906604 -2.12248 0
M  V30 14804 C 1416.46 1.30078 -1.0329 0
M  V30 14805 O 1417.64 1.38809 -1.30907 0
M  V30 14806 C 1414.78 2.1718 -2.68192 0
M  V30 14807 C 1413.9 1.831 -3.91278 0
M  V30 14808 C 1413.03 3.0417 -4.35493 0
M  V30 14809 C 1412.07 2.66069 -5.51248 0
M  V30 14810 N 1411.21 3.79871 -5.9046 0
M  V30 14811 H 1416.05 0.432606 -2.94843 0
M  V30 14812 H 1413.58 0.201895 -1.45708 0
M  V30 14813 H 1415.54 2.91231 -2.98732 0
M  V30 14814 H 1414.17 2.62135 -1.88375 0
M  V30 14815 H 1413.22 0.991473 -3.67252 0
M  V30 14816 H 1414.54 1.51063 -4.75375 0
M  V30 14817 H 1413.69 3.86507 -4.6765 0
M  V30 14818 H 1412.43 3.39395 -3.50232 0
M  V30 14819 H 1411.43 1.82151 -5.1875 0
M  V30 14820 H 1412.66 2.32023 -6.38234 0
M  V30 14821 H 1410.61 4.14873 -5.0815 0
M  V30 14822 H 1410.52 3.51573 -6.69277 0
M  V30 14823 H 1411.79 4.62811 -6.27237 0
M  V30 14824 N 1416.02 1.56195 0.209972 0
M  V30 14825 C 1417.43 1.69811 0.775969 0
M  V30 14826 C 1417.78 0.667543 1.84495 0
M  V30 14827 O 1416.91 -0.179043 2.15658 0
M  V30 14828 C 1417.5 3.07869 1.41429 0
M  V30 14829 C 1416.06 3.233 1.92755 0
M  V30 14830 C 1415.21 2.6575 0.791958 0
M  V30 14831 H 1418.16 1.58693 -0.0148727 0
M  V30 14832 H 1418.18 3.04371 2.28339 0
M  V30 14833 H 1417.69 3.82853 0.63604 0
M  V30 14834 H 1415.79 2.53206 2.73345 0
M  V30 14835 H 1415.91 4.30645 2.09956 0
M  V30 14836 H 1414.27 2.24535 1.20234 0
M  V30 14837 H 1415.05 3.4329 0.0261877 0
M  V30 14838 N 1417.5 -0.477127 1.50204 0
M  V30 14839 C 1418.43 -1.58405 1.71552 0
M  V30 14840 C 1419.41 -1.60463 0.564413 0
M  V30 14841 O 1420.59 -1.76826 0.802893 0
M  V30 14842 C 1417.72 -2.96765 1.8041 0
M  V30 14843 C 1416.68 -3.09573 2.95548 0
M  V30 14844 C 1416 -4.49522 2.89542 0
M  V30 14845 C 1417.3 -2.87356 4.36147 0
M  V30 14846 H 1419 -1.40792 2.64231 0
M  V30 14847 H 1416.54 -0.675886 1.27153 0
M  V30 14848 H 1418.5 -3.74125 1.9393 0
M  V30 14849 H 1417.22 -3.1552 0.843489 0
M  V30 14850 H 1415.88 -2.34645 2.81669 0
M  V30 14851 H 1415.53 -4.65186 1.91339 0
M  V30 14852 H 1415.23 -4.59028 3.66834 0
M  V30 14853 H 1416.75 -5.28909 3.05102 0
M  V30 14854 H 1418.17 -3.54469 4.50583 0
M  V30 14855 H 1416.56 -3.08313 5.14843 0
M  V30 14856 H 1417.63 -1.83264 4.48935 0
M  V30 14857 N 1418.98 -1.3968 -0.729882 0
M  V30 14858 C 1419.89 -1.41094 -1.87429 0
M  V30 14859 C 1420.9 -0.305142 -1.71303 0
M  V30 14860 O 1422.08 -0.54744 -1.93817 0
M  V30 14861 C 1419.14 -1.25786 -3.23077 0
M  V30 14862 C 1418.2 -2.46382 -3.5156 0
M  V30 14863 C 1417.44 -2.31795 -4.80735 0
M  V30 14864 O 1417.66 -1.32415 -5.54818 0
M  V30 14865 O 1416.59 -3.20883 -5.09232 0
M  V30 14866 H 1420.42 -2.37571 -1.89192 0
M  V30 14867 H 1418.01 -1.2085 -0.878389 0
M  V30 14868 H 1419.89 -1.19402 -4.0413 0
M  V30 14869 H 1418.56 -0.324065 -3.22074 0
M  V30 14870 H 1417.47 -2.58343 -2.70573 0
M  V30 14871 H 1418.8 -3.38473 -3.57347 0
M  V30 14872 N 1420.45 0.960609 -1.2494 0
M  V30 14873 C 1421.7 1.70448 -1.09333 0
M  V30 14874 C 1422.03 1.91012 0.366687 0
M  V30 14875 O 1421.28 1.4743 1.28697 0
M  V30 14876 C 1421.58 3.09564 -1.78619 0
M  V30 14877 C 1421.25 3.08819 -3.28545 0
M  V30 14878 C 1419.91 3.08323 -3.69446 0
M  V30 14879 C 1422.26 3.02606 -4.24357 0
M  V30 14880 C 1419.59 2.99356 -5.04582 0
M  V30 14881 C 1421.94 2.9518 -5.5951 0
M  V30 14882 C 1420.61 2.93017 -5.99748 0
M  V30 14883 H 1419.88 0.623714 -0.400078 0
M  V30 14884 H 1422.52 1.12273 -1.55136 0
M  V30 14885 H 1420.83 3.71247 -1.2523 0
M  V30 14886 H 1422.53 3.6593 -1.64001 0
M  V30 14887 H 1419.12 3.09974 -2.95997 0
M  V30 14888 H 1423.3 3.02113 -3.93753 0
M  V30 14889 H 1418.56 2.96046 -5.34946 0
M  V30 14890 H 1422.73 2.89333 -6.3345 0
M  V30 14891 H 1420.36 2.85824 -7.04421 0
M  V30 14892 N 1421.93 1.0643 1.16234 0
M  V30 14893 C 1423.18 0.780296 1.86429 0
M  V30 14894 C 1423.5 -0.695335 1.82181 0
M  V30 14895 O 1422.77 -1.50312 1.2563 0
M  V30 14896 H 1421.35 0.285654 0.690225 0
M  V30 14897 H 1424.01 1.34609 1.40949 0
M  V30 14898 H 1423.11 1.10644 2.91829 0
M  V30 14899 N 1423.41 -1.329 0.847073 0
M  V30 14900 C 1424.37 -2.27341 0.291324 0
M  V30 14901 C 1425.37 -1.51295 -0.544653 0
M  V30 14902 O 1426.56 -1.70497 -0.357258 0
M  V30 14903 C 1423.7 -3.35779 -0.588668 0
M  V30 14904 H 1424.89 -2.78009 1.12477 0
M  V30 14905 H 1422.44 -1.43442 0.620803 0
M  V30 14906 H 1423.18 -2.90366 -1.44423 0
M  V30 14907 H 1422.96 -3.92099 0.00960515 0
M  V30 14908 H 1424.45 -4.06166 -0.970526 0
M  V30 14909 N 1424.89 -0.604284 -1.45555 0
M  V30 14910 C 1426.12 -0.104452 -2.06636 0
M  V30 14911 C 1426.53 1.20976 -1.44949 0
M  V30 14912 O 1425.89 1.73616 -0.562468 0
M  V30 14913 C 1425.94 0.0451646 -3.61472 0
M  V30 14914 O 1425.66 -1.21705 -4.20856 0
M  V30 14915 C 1427.16 0.57684 -4.39531 0
M  V30 14916 H 1424.38 -0.067326 -0.667614 0
M  V30 14917 H 1426.93 -0.831079 -1.86851 0
M  V30 14918 H 1425.08 0.722104 -3.80611 0
M  V30 14919 H 1425.49 -1.04462 -5.13992 0
M  V30 14920 H 1426.97 0.630627 -5.48386 0
M  V30 14921 H 1427.45 1.59842 -4.09081 0
M  V30 14922 H 1428.05 -0.0659444 -4.25249 0
M  V30 14923 N 1426.37 1.53816 -0.343257 0
M  V30 14924 C 1427.59 2.05796 0.257418 0
M  V30 14925 C 1428.02 1.2166 1.43459 0
M  V30 14926 O 1427.37 0.230278 1.79832 0
M  V30 14927 C 1427.42 3.54681 0.65068 0
M  V30 14928 O 1426.53 3.73394 1.75074 0
M  V30 14929 H 1425.87 0.662622 0.042757 0
M  V30 14930 H 1428.4 1.98462 -0.497386 0
M  V30 14931 H 1428.41 3.97308 0.927914 0
M  V30 14932 H 1427.08 4.15368 -0.210199 0
M  V30 14933 H 1425.66 3.42669 1.4708 0
M  V30 14934 N 1427.84 0.0718701 1.57436 0
M  V30 14935 C 1428.81 -0.880671 2.11605 0
M  V30 14936 C 1429.81 -1.22632 1.0401 0
M  V30 14937 O 1431 -1.15958 1.29997 0
M  V30 14938 C 1428.13 -2.18407 2.61746 0
M  V30 14939 H 1429.32 -0.410712 2.97074 0
M  V30 14940 H 1426.88 -0.176836 1.55296 0
M  V30 14941 H 1427.61 -2.6994 1.79731 0
M  V30 14942 H 1427.4 -1.94616 3.40392 0
M  V30 14943 H 1428.89 -2.86596 3.03731 0
M  V30 14944 N 1429.32 -1.56304 -0.201686 0
M  V30 14945 C 1430.29 -1.93171 -1.2336 0
M  V30 14946 C 1431.29 -0.812164 -1.38782 0
M  V30 14947 O 1432.48 -1.07967 -1.36707 0
M  V30 14948 C 1429.61 -2.19997 -2.60411 0
M  V30 14949 H 1430.8 -2.85483 -0.918654 0
M  V30 14950 H 1428.35 -1.49893 -0.442935 0
M  V30 14951 H 1429.09 -1.30301 -2.96972 0
M  V30 14952 H 1428.87 -3.01574 -2.5059 0
M  V30 14953 H 1430.36 -2.49547 -3.34838 0
M  V30 14954 N 1430.8 0.469154 -1.50455 0
M  V30 14955 C 1431.73 1.57493 -1.7239 0
M  V30 14956 C 1432.71 1.60161 -0.572915 0
M  V30 14957 O 1433.9 1.76397 -0.812259 0
M  V30 14958 C 1431.03 2.95804 -1.81981 0
M  V30 14959 C 1429.98 3.08001 -2.97185 0
M  V30 14960 C 1429.31 4.4798 -2.91922 0
M  V30 14961 C 1430.61 2.85039 -4.37665 0
M  V30 14962 H 1432.3 1.39389 -2.64974 0
M  V30 14963 H 1429.85 0.669133 -1.27509 0
M  V30 14964 H 1431.8 3.73091 -1.95911 0
M  V30 14965 H 1430.52 3.15068 -0.86021 0
M  V30 14966 H 1429.18 2.33148 -2.82909 0
M  V30 14967 H 1428.83 4.64165 -1.93803 0
M  V30 14968 H 1428.53 4.57076 -3.69263 0
M  V30 14969 H 1430.05 5.27284 -3.07903 0
M  V30 14970 H 1431.47 3.52074 -4.52456 0
M  V30 14971 H 1429.87 3.05578 -5.16471 0
M  V30 14972 H 1430.94 1.8088 -4.499 0
M  V30 14973 N 1432.28 1.40065 0.722464 0
M  V30 14974 C 1433.21 1.35695 1.84715 0
M  V30 14975 C 1434.22 0.263522 1.60653 0
M  V30 14976 O 1435.41 0.523382 1.70655 0
M  V30 14977 C 1432.51 1.08722 3.20987 0
M  V30 14978 C 1431.69 2.29586 3.72302 0
M  V30 14979 C 1430.74 1.98879 4.87169 0
M  V30 14980 O 1429.77 2.71681 5.00178 0
M  V30 14981 N 1430.97 0.962554 5.72464 0
M  V30 14982 H 1433.74 2.32621 1.88964 0
M  V30 14983 H 1431.3 1.3433 0.903723 0
M  V30 14984 H 1433.29 0.861772 3.95418 0
M  V30 14985 H 1431.86 0.204869 3.11928 0
M  V30 14986 H 1431.08 2.68004 2.8908 0
M  V30 14987 H 1432.37 3.10176 4.03322 0
M  V30 14988 H 1431.77 0.359452 5.64557 0
M  V30 14989 H 1430.32 0.797003 6.46909 0
M  V30 14990 N 1433.76 -0.95397 1.25448 0
M  V30 14991 C 1435.17 -1.51337 1.09335 0
M  V30 14992 C 1435.52 -1.93393 -0.330698 0
M  V30 14993 O 1434.64 -1.78681 -1.22074 0
M  V30 14994 C 1435.24 -2.75024 1.97857 0
M  V30 14995 C 1433.8 -3.27274 1.85927 0
M  V30 14996 C 1432.95 -2.00108 1.91969 0
M  V30 14997 H 1435.9 -0.770795 1.38724 0
M  V30 14998 H 1435.92 -3.48867 1.51894 0
M  V30 14999 H 1435.43 -2.44383 3.01494 0
M  V30 15000 H 1433.53 -3.62734 0.851767 0
M  V30 15001 H 1433.64 -3.95245 2.70773 0
M  V30 15002 H 1432.01 -2.15438 1.35862 0
M  V30 15003 H 1432.79 -1.71816 2.97211 0
M  V30 15004 N 1435.24 -1.07045 -1.15668 0
M  V30 15005 C 1436.15 -0.699332 -2.23934 0
M  V30 15006 C 1437.16 0.288036 -1.71599 0
M  V30 15007 O 1438.34 0.135447 -2.00944 0
M  V30 15008 C 1435.4 -0.0994775 -3.46557 0
M  V30 15009 C 1434.46 -1.13968 -4.13896 0
M  V30 15010 C 1433.7 -0.56836 -5.30665 0
M  V30 15011 O 1433.92 0.616556 -5.67058 0
M  V30 15012 O 1432.85 -1.31174 -5.87432 0
M  V30 15013 H 1436.68 -1.60212 -2.58003 0
M  V30 15014 H 1434.26 -0.843202 -1.23331 0
M  V30 15015 H 1436.15 0.23293 -4.20756 0
M  V30 15016 H 1434.82 0.776684 -3.14244 0
M  V30 15017 H 1433.73 -1.5244 -3.41633 0
M  V30 15018 H 1435.06 -1.98764 -4.50282 0
M  V30 15019 N 1436.71 1.32449 -0.85411 0
M  V30 15020 C 1437.62 2.32658 -0.301221 0
M  V30 15021 C 1438.64 1.64025 0.580673 0
M  V30 15022 O 1439.82 1.95568 0.481172 0
M  V30 15023 C 1436.88 3.43049 0.501803 0
M  V30 15024 C 1435.94 4.27374 -0.406166 0
M  V30 15025 C 1435.17 5.32494 0.358627 0
M  V30 15026 O 1435.4 5.4783 1.58865 0
M  V30 15027 O 1434.33 6.0127 -0.275291 0
M  V30 15028 H 1438.16 2.81838 -1.13143 0
M  V30 15029 H 1435.74 1.36063 -0.617032 0
M  V30 15030 H 1437.62 4.10375 0.957608 0
M  V30 15031 H 1436.3 2.9606 1.30882 0
M  V30 15032 H 1435.21 3.6286 -0.910136 0
M  V30 15033 H 1436.54 4.77887 -1.17835 0
M  V30 15034 N 1438.19 0.611994 1.45232 0
M  V30 15035 C 1439.1 -0.105981 2.3436 0
M  V30 15036 C 1440.12 -0.855785 1.515 0
M  V30 15037 O 1441.29 -0.812376 1.84289 0
M  V30 15038 C 1438.36 -1.08794 3.29188 0
M  V30 15039 C 1437.42 -0.339611 4.27955 0
M  V30 15040 C 1436.65 -1.27479 5.18252 0
M  V30 15041 O 1436.88 -2.51279 5.12069 0
M  V30 15042 O 1435.81 -0.769469 5.96961 0
M  V30 15043 H 1439.64 0.626584 2.97166 0
M  V30 15044 H 1437.22 0.37224 1.44688 0
M  V30 15045 H 1439.1 -1.65338 3.8761 0
M  V30 15046 H 1437.78 -1.80145 2.68941 0
M  V30 15047 H 1436.68 0.268408 3.73136 0
M  V30 15048 H 1438.02 0.333501 4.91069 0
M  V30 15049 N 1439.67 -1.53632 0.351409 0
M  V30 15050 C 1440.6 -2.2284 -0.536204 0
M  V30 15051 C 1441.61 -1.23765 -1.05764 0
M  V30 15052 O 1442.8 -1.50073 -0.966449 0
M  V30 15053 C 1439.9 -2.9013 -1.75151 0
M  V30 15054 C 1439.08 -4.15588 -1.36401 0
M  V30 15055 C 1438.14 -4.66217 -2.43984 0
M  V30 15056 O 1437.16 -5.3024 -2.06964 0
M  V30 15057 N 1438.36 -4.42817 -3.75358 0
M  V30 15058 H 1441.13 -2.99647 0.0565368 0
M  V30 15059 H 1438.69 -1.60942 0.175905 0
M  V30 15060 H 1440.68 -3.20913 -2.4657 0
M  V30 15061 H 1439.25 -2.16862 -2.25144 0
M  V30 15062 H 1438.47 -3.91264 -0.480258 0
M  V30 15063 H 1439.76 -4.97179 -1.08121 0
M  V30 15064 H 1439.16 -3.9163 -4.08218 0
M  V30 15065 H 1437.71 -4.78186 -4.42924 0
M  V30 15066 N 1441.15 -0.0802183 -1.57396 0
M  V30 15067 C 1442.06 0.898597 -2.16708 0
M  V30 15068 C 1443.07 1.321 -1.1325 0
M  V30 15069 O 1444.25 1.39197 -1.45554 0
M  V30 15070 C 1441.31 2.14501 -2.72379 0
M  V30 15071 C 1440.38 1.77822 -3.9074 0
M  V30 15072 C 1439.61 2.96521 -4.43747 0
M  V30 15073 O 1439.83 4.10797 -3.9573 0
M  V30 15074 O 1438.77 2.75849 -5.34968 0
M  V30 15075 H 1442.59 0.424027 -3.00725 0
M  V30 15076 H 1440.18 0.14332 -1.48711 0
M  V30 15077 H 1442.06 2.87575 -3.08024 0
M  V30 15078 H 1440.73 2.61039 -1.91416 0
M  V30 15079 H 1439.64 1.01974 -3.59934 0
M  V30 15080 H 1440.97 1.36059 -4.73021 0
M  V30 15081 N 1442.63 1.56409 0.193394 0
M  V30 15082 C 1443.54 1.97886 1.26009 0
M  V30 15083 C 1444.55 0.886786 1.49707 0
M  V30 15084 O 1445.73 1.19267 1.62288 0
M  V30 15085 C 1442.79 2.31145 2.58404 0
M  V30 15086 C 1441.85 3.54069 2.42763 0
M  V30 15087 C 1441.09 3.85732 3.68845 0
M  V30 15088 O 1441.31 3.18662 4.73086 0
M  V30 15089 O 1440.24 4.79155 3.64272 0
M  V30 15090 H 1444.07 2.88849 0.938087 0
M  V30 15091 H 1441.65 1.43987 0.398528 0
M  V30 15092 H 1443.54 2.53606 3.36544 0
M  V30 15093 H 1442.21 1.4335 2.90228 0
M  V30 15094 H 1441.12 3.36854 1.62728 0
M  V30 15095 H 1442.45 4.42335 2.15871 0
M  V30 15096 N 1444.1 -0.461169 1.50702 0
M  V30 15097 C 1445.38 -1.22225 1.52711 0
M  V30 15098 C 1445.76 -2.09268 0.27749 0
M  V30 15099 O 1445.11 -2.16232 -0.738642 0
M  V30 15100 C 1445.32 -2.04472 2.82829 0
M  V30 15101 C 1446.67 -2.62326 3.33872 0
M  V30 15102 O 1447.69 -2.14706 2.84218 0
M  V30 15103 O 1446.55 -3.49116 4.20453 0
M  V30 15104 H 1443.64 -0.555168 0.612958 0
M  V30 15105 H 1446.19 -0.47218 1.62999 0
M  V30 15106 H 1444.96 -1.40392 3.65247 0
M  V30 15107 H 1444.58 -2.86593 2.75591 0
M  V30 15108 N 1445.58 -1.40446 -0.715026 0
M  V30 15109 C 1446.83 -1.39962 -1.47587 0
M  V30 15110 C 1447.18 -0.00170702 -1.924 0
M  V30 15111 O 1446.48 0.968788 -1.65303 0
M  V30 15112 C 1446.67 -2.32392 -2.7153 0
M  V30 15113 C 1446.5 -3.81032 -2.3884 0
M  V30 15114 C 1445.27 -4.49842 -2.30153 0
M  V30 15115 C 1447.47 -4.7251 -2.03073 0
M  V30 15116 N 1445.45 -5.83711 -1.90143 0
M  V30 15117 C 1446.82 -5.9518 -1.73668 0
M  V30 15118 C 1448.87 -4.6034 -1.89714 0
M  V30 15119 C 1447.58 -7.07038 -1.32248 0
M  V30 15120 C 1449.6 -5.7214 -1.49698 0
M  V30 15121 C 1448.97 -6.93896 -1.21191 0
M  V30 15122 H 1445.06 -0.567409 -0.538118 0
M  V30 15123 H 1447.65 -1.76163 -0.829144 0
M  V30 15124 H 1445.82 -1.98319 -3.33953 0
M  V30 15125 H 1447.55 -2.22762 -3.37875 0
M  V30 15126 H 1444.31 -4.0353 -2.47912 0
M  V30 15127 H 1444.73 -6.54608 -1.72675 0
M  V30 15128 H 1449.37 -3.66723 -2.10414 0
M  V30 15129 H 1447.09 -8.00538 -1.10291 0
M  V30 15130 H 1450.68 -5.6472 -1.39939 0
M  V30 15131 H 1449.56 -7.78938 -0.906925 0
M  V30 15132 N 1447.06 0.947303 -1.25952 0
M  V30 15133 C 1447.99 2.0625 -1.09467 0
M  V30 15134 C 1448.97 1.701 -0.00160498 0
M  V30 15135 O 1450.16 1.93432 -0.172501 0
M  V30 15136 C 1447.29 3.39746 -0.720392 0
M  V30 15137 C 1446.24 3.89935 -1.76451 0
M  V30 15138 C 1445.57 5.2001 -1.24472 0
M  V30 15139 C 1446.87 4.15496 -3.16481 0
M  V30 15140 H 1448.56 2.203 -2.02752 0
M  V30 15141 H 1446.11 1.05858 -0.97622 0
M  V30 15142 H 1448.06 4.17221 -0.591972 0
M  V30 15143 H 1446.78 3.25656 0.248161 0
M  V30 15144 H 1445.44 3.14635 -1.8815 0
M  V30 15145 H 1445.09 5.02295 -0.266182 0
M  V30 15146 H 1444.79 5.54559 -1.94263 0
M  V30 15147 H 1446.31 6.00075 -1.12884 0
M  V30 15148 H 1447.73 4.83605 -3.07894 0
M  V30 15149 H 1446.12 4.61315 -3.83808 0
M  V30 15150 H 1447.19 3.21501 -3.62995 0
M  V30 15151 N 1448.54 1.07657 1.15099 0
M  V30 15152 C 1449.82 0.714608 1.82079 0
M  V30 15153 C 1450.2 -0.802578 1.95248 0
M  V30 15154 O 1449.54 -1.71818 1.50634 0
M  V30 15155 C 1449.75 1.43264 3.1824 0
M  V30 15156 C 1451.1 1.58675 3.93837 0
M  V30 15157 O 1452.13 1.39367 3.27804 0
M  V30 15158 O 1450.98 1.9047 5.12234 0
M  V30 15159 H 1448.08 0.254645 0.786819 0
M  V30 15160 H 1450.62 1.17768 1.22183 0
M  V30 15161 H 1449.4 2.46655 3.03772 0
M  V30 15162 H 1449.02 0.960546 3.85823 0
M  V30 15163 N 1450.02 -1.31994 0.861122 0
M  V30 15164 C 1451.29 -1.91699 0.388705 0
M  V30 15165 C 1451.67 -1.78412 -1.12838 0
M  V30 15166 O 1451.02 -1.18625 -1.95296 0
M  V30 15167 C 1451.23 -3.38232 0.860248 0
M  V30 15168 C 1452.58 -4.15355 0.881201 0
M  V30 15169 O 1453.6 -3.46977 0.805313 0
M  V30 15170 O 1452.46 -5.37468 0.98945 0
M  V30 15171 H 1449.56 -0.819017 0.114629 0
M  V30 15172 H 1452.1 -1.40721 0.94845 0
M  V30 15173 H 1450.87 -3.41876 1.9036 0
M  V30 15174 H 1450.5 -3.96625 0.278316 0
M  V30 15175 N 1451.49 -0.619688 -1.44906 0
M  V30 15176 C 1452.77 -0.0510703 -1.95533 0
M  V30 15177 C 1453.15 1.42013 -1.56191 0
M  V30 15178 O 1452.5 2.12879 -0.830356 0
M  V30 15179 C 1452.71 -0.261896 -3.48016 0
M  V30 15180 C 1454.06 -0.149057 -4.24338 0
M  V30 15181 O 1455.08 -0.192655 -3.55679 0
M  V30 15182 O 1453.94 -0.0443345 -5.46482 0
M  V30 15183 H 1451.03 0.0288461 -0.826497 0
M  V30 15184 H 1453.58 -0.690594 -1.55013 0
M  V30 15185 H 1452.35 -1.28319 -3.69662 0
M  V30 15186 H 1451.98 0.412314 -3.95456 0
M  V30 15187 N 1452.97 1.53444 -0.359552 0
M  V30 15188 C 1454.2 2.06058 0.235576 0
M  V30 15189 C 1454.62 1.23175 1.42161 0
M  V30 15190 O 1453.98 0.249338 1.79577 0
M  V30 15191 C 1454.03 3.55351 0.613025 0
M  V30 15192 O 1453.13 3.75229 1.71104 0
M  V30 15193 H 1452.47 0.663038 0.0357266 0
M  V30 15194 H 1455 1.97923 -0.518408 0
M  V30 15195 H 1455.01 3.9827 0.885722 0
M  V30 15196 H 1453.69 4.15122 -0.254243 0
M  V30 15197 H 1452.27 3.4421 1.43437 0
M  V30 15198 N 1454.45 0.0885642 1.57351 0
M  V30 15199 C 1455.38 -0.902617 2.10679 0
M  V30 15200 C 1456.4 -1.25037 1.04257 0
M  V30 15201 O 1457.58 -1.20462 1.31723 0
M  V30 15202 C 1454.68 -2.21362 2.56616 0
M  V30 15203 C 1453.86 -2.04219 3.86799 0
M  V30 15204 C 1452.92 -3.18774 4.18652 0
M  V30 15205 O 1451.94 -2.93024 4.87981 0
M  V30 15206 N 1453.14 -4.44357 3.73534 0
M  V30 15207 H 1455.91 -0.447199 2.96345 0
M  V30 15208 H 1453.47 -0.0967178 1.61611 0
M  V30 15209 H 1455.46 -2.96935 2.74976 0
M  V30 15210 H 1454.03 -2.58349 1.75996 0
M  V30 15211 H 1453.25 -1.13015 3.77652 0
M  V30 15212 H 1454.54 -1.90035 4.71979 0
M  V30 15213 H 1453.94 -4.68159 3.17558 0
M  V30 15214 H 1452.5 -5.169 3.97061 0
M  V30 15215 N 1455.93 -1.56509 -0.185096 0
M  V30 15216 C 1456.86 -1.91878 -1.25361 0
M  V30 15217 C 1457.87 -0.810443 -1.41194 0
M  V30 15218 O 1459.06 -1.08887 -1.41442 0
M  V30 15219 C 1456.16 -2.14433 -2.62434 0
M  V30 15220 C 1455.34 -3.45618 -2.6808 0
M  V30 15221 C 1454.39 -3.57165 -3.86419 0
M  V30 15222 O 1453.42 -4.29904 -3.73056 0
M  V30 15223 N 1454.62 -2.90993 -5.02298 0
M  V30 15224 H 1457.39 -2.84133 -0.953328 0
M  V30 15225 H 1454.95 -1.57498 -0.374955 0
M  V30 15226 H 1456.94 -2.19437 -3.40044 0
M  V30 15227 H 1455.51 -1.28629 -2.84909 0
M  V30 15228 H 1454.73 -3.52394 -1.76669 0
M  V30 15229 H 1456.02 -4.31968 -2.68851 0
M  V30 15230 H 1455.42 -2.31743 -5.16054 0
M  V30 15231 H 1453.97 -3.01611 -5.77819 0
M  V30 15232 N 1457.41 0.45317 -1.50944 0
M  V30 15233 C 1458.63 1.22672 -1.66611 0
M  V30 15234 C 1459.05 1.85398 -0.356814 0
M  V30 15235 O 1458.41 1.70026 0.663122 0
M  V30 15236 C 1458.46 2.32238 -2.77034 0
M  V30 15237 O 1458.18 1.72081 -4.02889 0
M  V30 15238 C 1459.68 3.22802 -3.03832 0
M  V30 15239 H 1456.9 0.370337 -0.559546 0
M  V30 15240 H 1459.44 0.538884 -1.97272 0
M  V30 15241 H 1457.6 2.96765 -2.49017 0
M  V30 15242 H 1458.01 2.4437 -4.64095 0
M  V30 15243 H 1459.49 3.95851 -3.84716 0
M  V30 15244 H 1459.96 3.82636 -2.15608 0
M  V30 15245 H 1460.57 2.63993 -3.33449 0
M  V30 15246 N 1458.88 1.40823 0.707568 0
M  V30 15247 C 1460.13 1.39741 1.4697 0
M  V30 15248 C 1460.46 0.00231194 1.942 0
M  V30 15249 O 1459.74 -0.967798 1.68713 0
M  V30 15250 C 1460.02 2.39385 2.69011 0
M  V30 15251 C 1459.87 3.87953 2.27624 0
M  V30 15252 C 1461.19 2.3645 3.71186 0
M  V30 15253 H 1458.31 0.508904 0.533091 0
M  V30 15254 H 1460.95 1.72015 0.806888 0
M  V30 15255 H 1459.1 2.11993 3.25563 0
M  V30 15256 H 1460.78 4.26202 1.76492 0
M  V30 15257 H 1459.02 4.03399 1.59537 0
M  V30 15258 H 1459.69 4.53201 3.15139 0
M  V30 15259 H 1462.17 2.60731 3.24282 0
M  V30 15260 H 1461.04 3.08204 4.54204 0
M  V30 15261 H 1461.3 1.3789 4.20046 0
M  V30 15262 N 1460.36 -0.94061 1.26453 0
M  V30 15263 C 1461.61 -1.68354 1.11809 0
M  V30 15264 C 1461.93 -1.9203 -0.339037 0
M  V30 15265 O 1461.2 -1.51739 -1.23903 0
M  V30 15266 H 1459.78 -0.623916 0.410777 0
M  V30 15267 H 1462.44 -1.13014 1.58789 0
M  V30 15268 H 1461.54 -2.65706 1.63728 0
M  V30 15269 N 1461.84 -1.08266 -1.14527 0
M  V30 15270 C 1462.77 -0.669233 -2.19212 0
M  V30 15271 C 1463.79 0.282962 -1.60322 0
M  V30 15272 O 1464.97 0.0708403 -1.78359 0
M  V30 15273 C 1462.07 0.0362509 -3.38881 0
M  V30 15274 C 1461.25 -0.934477 -4.27301 0
M  V30 15275 C 1460.31 -0.264584 -5.25534 0
M  V30 15276 O 1459.33 -0.908543 -5.61902 0
M  V30 15277 N 1460.53 0.98609 -5.72063 0
M  V30 15278 H 1463.3 -1.56982 -2.55297 0
M  V30 15279 H 1460.86 -0.968551 -1.29733 0
M  V30 15280 H 1462.85 0.495309 -4.01658 0
M  V30 15281 H 1461.42 0.838913 -3.01133 0
M  V30 15282 H 1460.64 -1.57241 -3.61481 0
M  V30 15283 H 1461.93 -1.59232 -4.83242 0
M  V30 15284 H 1461.33 1.52904 -5.44644 0
M  V30 15285 H 1459.89 1.38867 -6.36835 0
M  V30 15286 N 1463.32 1.31536 -0.86811 0
M  V30 15287 C 1464.25 2.27486 -0.279749 0
M  V30 15288 C 1465.26 1.53006 0.556158 0
M  V30 15289 O 1466.45 1.74442 0.378454 0
M  V30 15290 C 1463.55 3.33139 0.622197 0
M  V30 15291 C 1462.73 4.37026 -0.180855 0
M  V30 15292 C 1461.79 5.22183 0.64894 0
M  V30 15293 O 1460.81 5.69147 0.0776395 0
M  V30 15294 N 1462.01 5.46365 1.96127 0
M  V30 15295 H 1464.78 2.78613 -1.1043 0
M  V30 15296 H 1462.34 1.44538 -0.729409 0
M  V30 15297 H 1464.33 3.87024 1.18297 0
M  V30 15298 H 1462.9 2.8207 1.34742 0
M  V30 15299 H 1462.12 3.8324 -0.923078 0
M  V30 15300 H 1463.41 5.03508 -0.731953 0
M  V30 15301 H 1462.81 5.09962 2.44857 0
M  V30 15302 H 1461.36 6.03192 2.46987 0
M  V30 15303 N 1464.8 0.627364 1.44575 0
M  V30 15304 C 1466.07 0.0614392 1.95503 0
M  V30 15305 C 1466.45 -1.41182 1.56942 0
M  V30 15306 O 1465.8 -2.12435 0.841634 0
M  V30 15307 C 1466.01 0.280349 3.47872 0
M  V30 15308 C 1467.36 0.171559 4.24253 0
M  V30 15309 O 1468.38 0.211515 3.55571 0
M  V30 15310 O 1467.24 0.0733152 5.46451 0
M  V30 15311 H 1464.34 -0.0244626 0.826638 0
M  V30 15312 H 1466.88 0.698805 1.54644 0
M  V30 15313 H 1465.66 1.30278 3.68976 0
M  V30 15314 H 1465.28 -0.391336 3.95669 0
M  V30 15315 N 1466.28 -1.53251 0.367684 0
M  V30 15316 C 1467.52 -2.00889 -0.220914 0
M  V30 15317 C 1467.84 -1.25662 -1.4911 0
M  V30 15318 O 1467.11 -0.370491 -1.92365 0
M  V30 15319 H 1465.69 -0.742191 -0.0846233 0
M  V30 15320 H 1468.36 -1.88525 0.494402 0
M  V30 15321 H 1467.45 -3.08891 -0.446414 0
M  V30 15322 N 1467.75 -0.0969077 -1.57302 0
M  V30 15323 C 1468.98 0.578086 -1.99181 0
M  V30 15324 C 1469.4 1.60818 -0.975667 0
M  V30 15325 O 1468.76 1.81215 0.0556054 0
M  V30 15326 C 1468.81 1.20076 -3.40021 0
M  V30 15327 O 1467.91 2.31656 -3.41188 0
M  V30 15328 H 1467.25 0.146506 -0.647636 0
M  V30 15329 H 1469.78 -0.178855 -2.03817 0
M  V30 15330 H 1469.79 1.54162 -3.77754 0
M  V30 15331 H 1468.47 0.446114 -4.135 0
M  V30 15332 H 1467.05 1.99175 -3.15252 0
M  V30 15333 N 1469.23 1.56605 0.176793 0
M  V30 15334 C 1470.14 1.99211 1.23903 0
M  V30 15335 C 1471.16 0.902614 1.48758 0
M  V30 15336 O 1472.33 1.20982 1.61014 0
M  V30 15337 C 1469.4 2.33873 2.55938 0
M  V30 15338 C 1468.46 3.56624 2.38994 0
M  V30 15339 C 1467.69 3.89623 3.64733 0
M  V30 15340 O 1467.92 3.23662 4.6968 0
M  V30 15341 O 1466.85 4.82992 3.5917 0
M  V30 15342 H 1470.68 2.89827 0.907398 0
M  V30 15343 H 1468.26 1.44401 0.383234 0
M  V30 15344 H 1470.14 2.57161 3.33836 0
M  V30 15345 H 1468.82 1.46421 2.88691 0
M  V30 15346 H 1467.72 3.38561 1.59146 0
M  V30 15347 H 1469.06 4.446 2.11167 0
M  V30 15348 N 1470.71 -0.445159 1.51182 0
M  V30 15349 C 1471.99 -1.20598 1.53998 0
M  V30 15350 C 1472.37 -2.08962 0.29967 0
M  V30 15351 O 1471.71 -2.17003 -0.715666 0
M  V30 15352 C 1471.92 -2.01461 2.84982 0
M  V30 15353 C 1473.27 -2.5877 3.36635 0
M  V30 15354 O 1474.3 -2.11679 2.86479 0
M  V30 15355 O 1473.16 -3.44637 4.24132 0
M  V30 15356 H 1470.25 -0.548635 0.618812 0
M  V30 15357 H 1472.8 -0.454865 1.6349 0
M  V30 15358 H 1471.57 -1.36511 3.66716 0
M  V30 15359 H 1471.19 -2.83654 2.78615 0
M  V30 15360 N 1472.19 -1.41197 -0.700089 0
M  V30 15361 C 1473.14 -1.42885 -1.83539 0
M  V30 15362 C 1474.13 -0.307431 -1.66587 0
M  V30 15363 O 1475.34 -0.479238 -1.73503 0
M  V30 15364 H 1471.71 -0.446973 -0.604747 0
M  V30 15365 H 1473.68 -2.38576 -1.79231 0
M  V30 15366 C 1472.43 -1.3235 -3.21526 0
M  V30 15367 H 1471.75 -2.17926 -3.35184 0
M  V30 15368 H 1473.19 -1.37592 -4.01054 0
M  V30 15369 C 1471.65 -0.0353528 -3.36881 0
M  V30 15370 O 1472.18 0.921676 -3.90983 0
M  V30 15371 N 1470.39 0.0392479 -2.90573 0
M  V30 15372 H 1469.94 -0.740299 -2.46733 0
M  V30 15373 H 1469.89 0.900559 -3.01226 0
M  V30 15374 N 1473.67 0.933891 -1.2695 0
M  V30 15375 C 1474.6 2.03768 -1.04934 0
M  V30 15376 C 1475.61 1.62798 -0.00740752 0
M  V30 15377 O 1476.8 1.76765 -0.248289 0
M  V30 15378 C 1473.9 3.34097 -0.568515 0
M  V30 15379 C 1473.07 4.03794 -1.68133 0
M  V30 15380 C 1472.13 5.12397 -1.19731 0
M  V30 15381 O 1471.16 5.36701 -1.89579 0
M  V30 15382 N 1472.36 5.80479 -0.0496327 0
M  V30 15383 H 1475.12 2.23219 -1.99984 0
M  V30 15384 H 1472.69 1.10386 -1.18433 0
M  V30 15385 H 1474.68 4.04053 -0.228736 0
M  V30 15386 H 1473.25 3.11265 0.288587 0
M  V30 15387 H 1472.47 3.27655 -2.1917 0
M  V30 15388 H 1473.76 4.4711 -2.42837 0
M  V30 15389 H 1473.15 5.63179 0.533509 0
M  V30 15390 H 1471.71 6.5139 0.231014 0
M  V30 15391 N 1475.14 1.08871 1.13951 0
M  V30 15392 C 1476.37 0.842913 1.88951 0
M  V30 15393 C 1476.79 -0.605348 1.78832 0
M  V30 15394 O 1476.14 -1.41631 1.15095 0
M  V30 15395 C 1476.19 1.26198 3.38757 0
M  V30 15396 O 1475.92 2.65344 3.48603 0
M  V30 15397 C 1477.42 1.04773 4.30741 0
M  V30 15398 H 1474.64 0.303651 0.598362 0
M  V30 15399 H 1477.18 1.44922 1.44284 0
M  V30 15400 H 1475.34 0.699682 3.81029 0
M  V30 15401 H 1475.75 2.82863 4.41688 0
M  V30 15402 H 1477.22 1.39029 5.34205 0
M  V30 15403 H 1477.7 -0.0149046 4.39197 0
M  V30 15404 H 1478.31 1.5957 3.9423 0
M  V30 15405 N 1476.62 -1.31073 0.875073 0
M  V30 15406 C 1477.85 -2.00688 0.503179 0
M  V30 15407 C 1478.26 -1.65657 -0.905714 0
M  V30 15408 O 1477.62 -0.888468 -1.59413 0
M  V30 15409 C 1477.67 -3.55486 0.65666 0
M  V30 15410 O 1477.39 -3.89265 2.01007 0
M  V30 15411 C 1478.89 -4.42374 0.28645 0
M  V30 15412 H 1476.11 -0.641885 0.195512 0
M  V30 15413 H 1478.66 -1.67188 1.17765 0
M  V30 15414 H 1476.81 -3.87389 0.0296852 0
M  V30 15415 H 1477.23 -4.83978 2.02153 0
M  V30 15416 H 1478.7 -5.50205 0.444776 0
M  V30 15417 H 1479.18 -4.32312 -0.774789 0
M  V30 15418 H 1479.78 -4.15898 0.889336 0
M  V30 15419 N 1478.1 -0.635022 -1.4424 0
M  V30 15420 C 1479.33 -0.14826 -2.06368 0
M  V30 15421 C 1479.74 1.17875 -1.47482 0
M  V30 15422 O 1479.1 1.72384 -0.599168 0
M  V30 15423 C 1479.15 -0.031519 -3.61486 0
M  V30 15424 O 1478.87 -1.30605 -4.18179 0
M  V30 15425 C 1480.37 0.483479 -4.40656 0
M  V30 15426 H 1477.59 -0.081472 -0.666036 0
M  V30 15427 H 1480.14 -0.870526 -1.85046 0
M  V30 15428 H 1478.29 0.641208 -3.82057 0
M  V30 15429 H 1478.71 -1.15341 -5.11661 0
M  V30 15430 H 1480.18 0.514164 -5.496 0
M  V30 15431 H 1480.66 1.51129 -4.12379 0
M  V30 15432 H 1481.26 -0.156131 -4.25013 0
M  V30 15433 N 1479.58 1.53054 -0.375806 0
M  V30 15434 C 1480.83 2.00584 0.211847 0
M  V30 15435 C 1481.14 1.26692 1.49025 0
M  V30 15436 O 1482.35 1.64863 2.15713 0
M  V30 15437 C 1480.8 3.57345 0.428074 0
M  V30 15438 C 1480.41 4.40125 -0.836299 0
M  V30 15439 C 1482.15 4.13203 0.972825 0
M  V30 15440 C 1480.06 5.88459 -0.589093 0
M  V30 15441 H 1478.99 0.749424 0.0829412 0
M  V30 15442 H 1481.64 1.76666 -0.496126 0
M  V30 15443 H 1480.02 3.77458 1.19756 0
M  V30 15444 H 1481.2 4.31782 -1.60936 0
M  V30 15445 H 1479.51 3.95422 -1.30501 0
M  V30 15446 H 1482.11 5.21669 1.17326 0
M  V30 15447 H 1482.45 3.68441 1.93797 0
M  V30 15448 H 1482.99 3.96928 0.263249 0
M  V30 15449 H 1479.73 6.37517 -1.52485 0
M  V30 15450 H 1479.25 5.99624 0.145285 0
M  V30 15451 H 1480.92 6.46631 -0.218485 0
M  V30 15452 N 1481.06 0.105248 1.57248 0
M  V30 15453 C 1481.99 -0.880221 2.11624 0
M  V30 15454 C 1483 -1.23924 1.05578 0
M  V30 15455 O 1484.19 -1.19059 1.32994 0
M  V30 15456 C 1481.29 -2.18628 2.5895 0
M  V30 15457 C 1480.46 -2.00105 3.88943 0
M  V30 15458 C 1479.52 -3.14315 4.2201 0
M  V30 15459 O 1478.55 -2.87832 4.91061 0
M  V30 15460 N 1479.75 -4.4037 3.78226 0
M  V30 15461 H 1482.52 -0.415742 2.96802 0
M  V30 15462 H 1480.08 -0.0795714 1.61704 0
M  V30 15463 H 1482.07 -2.94002 2.7811 0
M  V30 15464 H 1480.64 -2.56467 1.78727 0
M  V30 15465 H 1479.86 -1.09003 3.7883 0
M  V30 15466 H 1481.15 -1.85018 4.73968 0
M  V30 15467 H 1480.54 -4.64765 3.22506 0
M  V30 15468 H 1479.1 -5.1266 4.02521 0
M  V30 15469 N 1482.53 -1.56697 -0.168486 0
M  V30 15470 C 1483.76 -1.86292 -0.900152 0
M  V30 15471 C 1484.18 -0.690968 -1.75702 0
M  V30 15472 O 1483.53 0.339855 -1.79308 0
M  V30 15473 C 1483.59 -3.14946 -1.77457 0
M  V30 15474 O 1483.31 -4.27625 -0.952267 0
M  V30 15475 C 1484.81 -3.57908 -2.61566 0
M  V30 15476 H 1482.03 -0.618003 -0.261369 0
M  V30 15477 H 1484.57 -2.03811 -0.16773 0
M  V30 15478 H 1482.73 -2.99246 -2.4603 0
M  V30 15479 H 1483.14 -5.01057 -1.55056 0
M  V30 15480 H 1484.61 -4.50823 -3.18532 0
M  V30 15481 H 1485.09 -2.82162 -3.36573 0
M  V30 15482 H 1485.7 -3.7623 -1.98321 0
M  V30 15483 N 1484.01 0.437135 -1.51416 0
M  V30 15484 C 1485.26 1.1835 -1.63328 0
M  V30 15485 C 1485.57 1.92343 -0.355455 0
M  V30 15486 O 1486.78 2.69183 -0.353951 0
M  V30 15487 C 1485.24 2.15235 -2.88447 0
M  V30 15488 C 1484.84 1.46889 -4.23235 0
M  V30 15489 C 1486.59 2.90303 -3.09716 0
M  V30 15490 C 1484.5 2.42259 -5.39504 0
M  V30 15491 H 1483.43 0.445467 -0.608338 0
M  V30 15492 H 1486.08 0.450528 -1.77883 0
M  V30 15493 H 1484.46 2.91968 -2.67527 0
M  V30 15494 H 1485.63 0.757128 -4.54537 0
M  V30 15495 H 1483.95 0.839725 -4.07845 0
M  V30 15496 H 1486.54 3.61747 -3.93756 0
M  V30 15497 H 1486.89 3.5166 -2.22802 0
M  V30 15498 H 1487.42 2.20677 -3.30978 0
M  V30 15499 H 1484.16 1.85591 -6.28678 0
M  V30 15500 H 1483.68 3.11488 -5.12577 0
M  V30 15501 H 1485.36 3.03384 -5.7146 0
M  V30 15502 N 1485.49 1.41566 0.692592 0
M  V30 15503 C 1486.74 1.41292 1.4548 0
M  V30 15504 C 1487.07 0.0229093 1.94186 0
M  V30 15505 O 1486.34 -0.949849 1.6973 0
M  V30 15506 C 1486.63 2.42225 2.66457 0
M  V30 15507 C 1486.48 3.90345 2.23496 0
M  V30 15508 C 1487.8 2.40374 3.68658 0
M  V30 15509 H 1484.92 0.51453 0.527663 0
M  V30 15510 H 1487.56 1.72862 0.788598 0
M  V30 15511 H 1485.71 2.15435 3.23296 0
M  V30 15512 H 1487.38 4.2805 1.71962 0
M  V30 15513 H 1485.63 4.05068 1.55249 0
M  V30 15514 H 1486.3 4.56518 3.10314 0
M  V30 15515 H 1488.77 2.64156 3.21498 0
M  V30 15516 H 1487.65 3.13004 4.5091 0
M  V30 15517 H 1487.91 1.42338 4.1856 0
M  V30 15518 N 1486.97 -0.927146 1.27443 0
M  V30 15519 C 1487.88 -2.06122 1.12031 0
M  V30 15520 C 1488.89 -1.73928 0.0501979 0
M  V30 15521 O 1490.07 -1.99756 0.256796 0
M  V30 15522 C 1487.14 -3.3805 0.769634 0
M  V30 15523 C 1486.2 -3.83938 1.92068 0
M  V30 15524 C 1485.43 -5.0957 1.58664 0
M  V30 15525 O 1485.65 -5.6825 0.494789 0
M  V30 15526 O 1484.59 -5.50844 2.42599 0
M  V30 15527 H 1488.41 -2.22037 2.07203 0
M  V30 15528 H 1486 -1.04638 1.06636 0
M  V30 15529 H 1487.88 -4.17286 0.587423 0
M  V30 15530 H 1486.55 -3.2334 -0.152557 0
M  V30 15531 H 1485.46 -3.05587 2.15795 0
M  V30 15532 H 1486.79 -4.0319 2.8231 0
M  V30 15533 N 1488.45 -1.09474 -1.13372 0
M  V30 15534 C 1489.69 -0.832323 -1.84933 0
M  V30 15535 C 1490.03 0.640469 -1.83335 0
M  V30 15536 O 1489.3 1.47158 -1.2718 0
M  V30 15537 C 1489.58 -1.36876 -3.33072 0
M  V30 15538 C 1489.44 -2.90769 -3.43181 0
M  V30 15539 C 1490.76 -1.00294 -4.2852 0
M  V30 15540 H 1487.87 -0.30382 -0.671463 0
M  V30 15541 H 1490.52 -1.35622 -1.33066 0
M  V30 15542 H 1488.67 -0.923134 -3.77373 0
M  V30 15543 H 1490.34 -3.43784 -3.07588 0
M  V30 15544 H 1488.58 -3.27876 -2.84042 0
M  V30 15545 H 1489.25 -3.23381 -4.47358 0
M  V30 15546 H 1491.73 -1.38729 -3.92293 0
M  V30 15547 H 1490.6 -1.40533 -5.30605 0
M  V30 15548 H 1490.87 0.0888133 -4.42011 0
M  V30 15549 N 1489.92 1.30607 -0.882012 0
M  V30 15550 C 1490.86 2.27177 -0.303861 0
M  V30 15551 C 1491.87 1.53587 0.539898 0
M  V30 15552 O 1493.06 1.74833 0.359931 0
M  V30 15553 C 1490.16 3.33781 0.586828 0
M  V30 15554 C 1489.33 4.3681 -0.227197 0
M  V30 15555 C 1488.39 5.22842 0.593519 0
M  V30 15556 O 1487.42 5.69197 0.0172694 0
M  V30 15557 N 1488.62 5.48414 1.90321 0
M  V30 15558 H 1491.38 2.77426 -1.13378 0
M  V30 15559 H 1488.94 1.43756 -0.744698 0
M  V30 15560 H 1490.94 3.88257 1.14186 0
M  V30 15561 H 1489.51 2.83483 1.31743 0
M  V30 15562 H 1488.73 3.82239 -0.963674 0
M  V30 15563 H 1490.01 5.02703 -0.785315 0
M  V30 15564 H 1489.41 5.1253 2.39435 0
M  V30 15565 H 1487.97 6.05778 2.40575 0
M  V30 15566 N 1491.4 0.642663 1.43901 0
M  V30 15567 C 1492.81 0.232809 1.85243 0
M  V30 15568 C 1493.16 -1.21834 1.53789 0
M  V30 15569 O 1492.29 -1.92855 0.981625 0
M  V30 15570 C 1492.88 0.415749 3.36239 0
M  V30 15571 C 1491.44 0.0603055 3.76352 0
M  V30 15572 C 1490.59 0.723658 2.67691 0
M  V30 15573 H 1493.54 0.847052 1.34204 0
M  V30 15574 H 1493.56 -0.341903 3.78961 0
M  V30 15575 H 1493.07 1.472 3.59101 0
M  V30 15576 H 1491.18 -0.993761 3.59103 0
M  V30 15577 H 1491.29 0.478408 4.76705 0
M  V30 15578 H 1489.65 0.15787 2.5421 0
M  V30 15579 H 1490.44 1.78273 2.93383 0
M  V30 15580 N 1492.88 -1.52852 0.383918 0
M  V30 15581 C 1493.81 -2.23927 -0.488816 0
M  V30 15582 C 1494.83 -1.2598 -1.03115 0
M  V30 15583 O 1496.02 -1.5209 -0.934398 0
M  V30 15584 C 1493.12 -2.9378 -1.68957 0
M  V30 15585 C 1492.29 -4.18388 -1.27555 0
M  V30 15586 C 1491.35 -4.71287 -2.3404 0
M  V30 15587 O 1490.37 -5.34511 -1.9567 0
M  V30 15588 N 1491.58 -4.50679 -3.65881 0
M  V30 15589 H 1494.34 -2.99459 0.120084 0
M  V30 15590 H 1491.9 -1.60532 0.210004 0
M  V30 15591 H 1493.89 -3.26071 -2.39707 0
M  V30 15592 H 1492.46 -2.21588 -2.20493 0
M  V30 15593 H 1491.68 -3.92194 -0.397157 0
M  V30 15594 H 1492.97 -4.99361 -0.975506 0
M  V30 15595 H 1492.37 -4.00201 -3.9982 0
M  V30 15596 H 1490.93 -4.87473 -4.32681 0
M  V30 15597 N 1494.36 -0.113586 -1.5719 0
M  V30 15598 C 1495.29 0.835363 -2.18046 0
M  V30 15599 C 1496.27 1.28114 -1.11897 0
M  V30 15600 O 1497.46 1.34472 -1.40111 0
M  V30 15601 C 1494.59 2.08759 -2.77556 0
M  V30 15602 C 1493.54 1.77979 -3.8924 0
M  V30 15603 C 1492.87 3.10185 -4.35533 0
M  V30 15604 C 1494.17 1.05231 -5.11589 0
M  V30 15605 H 1495.86 0.328275 -2.97595 0
M  V30 15606 H 1493.41 0.156456 -1.43148 0
M  V30 15607 H 1495.36 2.75597 -3.18785 0
M  V30 15608 H 1494.08 2.61783 -1.95288 0
M  V30 15609 H 1492.74 1.13532 -3.48577 0
M  V30 15610 H 1492.39 3.61133 -3.50131 0
M  V30 15611 H 1492.09 2.90367 -5.10843 0
M  V30 15612 H 1493.61 3.78151 -4.7941 0
M  V30 15613 H 1495.03 1.62213 -5.49872 0
M  V30 15614 H 1493.42 0.955269 -5.92448 0
M  V30 15615 H 1494.49 0.038137 -4.84885 0
M  V30 15616 N 1495.84 1.56784 0.160173 0
M  V30 15617 C 1496.75 2.00514 1.21783 0
M  V30 15618 C 1497.76 0.918341 1.47792 0
M  V30 15619 O 1498.94 1.22683 1.59721 0
M  V30 15620 C 1496 2.36575 2.53443 0
M  V30 15621 C 1495.07 3.59138 2.35198 0
M  V30 15622 C 1494.3 3.93469 3.6058 0
M  V30 15623 O 1494.52 3.28625 4.6622 0
M  V30 15624 O 1493.46 4.86774 3.54027 0
M  V30 15625 H 1497.28 2.90774 0.876607 0
M  V30 15626 H 1494.87 1.44799 0.367897 0
M  V30 15627 H 1496.75 2.60687 3.31089 0
M  V30 15628 H 1495.42 1.49474 2.87122 0
M  V30 15629 H 1494.33 3.4023 1.55546 0
M  V30 15630 H 1495.66 4.46815 2.0644 0
M  V30 15631 N 1497.32 -0.429099 1.51646 0
M  V30 15632 C 1498.25 -1.54168 1.68249 0
M  V30 15633 C 1499.23 -1.53718 0.530037 0
M  V30 15634 O 1500.41 -1.72723 0.754911 0
M  V30 15635 C 1497.54 -2.92738 1.7036 0
M  V30 15636 C 1496.58 -3.11179 2.91668 0
M  V30 15637 S 1497.42 -2.86603 4.52348 0
M  V30 15638 C 1498.57 -4.2744 4.57216 0
M  V30 15639 H 1498.81 -1.39852 2.62352 0
M  V30 15640 H 1496.34 -0.619348 1.41434 0
M  V30 15641 H 1498.3 -3.72608 1.7226 0
M  V30 15642 H 1496.96 -3.0441 0.774186 0
M  V30 15643 H 1496.15 -4.12512 2.89569 0
M  V30 15644 H 1495.75 -2.39146 2.87551 0
M  V30 15645 H 1498.04 -5.20771 4.33363 0
M  V30 15646 H 1498.99 -4.34569 5.59067 0
M  V30 15647 H 1499.4 -4.11479 3.86452 0
M  V30 15648 N 1498.79 -1.41931 -0.685074 0
M  V30 15649 C 1499.7 -1.46985 -1.82846 0
M  V30 15650 C 1500.72 -0.359487 -1.70246 0
M  V30 15651 O 1501.9 -0.608824 -1.91977 0
M  V30 15652 C 1498.96 -1.36001 -3.18912 0
M  V30 15653 C 1498.02 -2.57442 -3.43543 0
M  V30 15654 C 1497.25 -2.46972 -4.73118 0
M  V30 15655 O 1497.48 -1.49999 -5.50324 0
M  V30 15656 O 1496.41 -3.36922 -4.98766 0
M  V30 15657 H 1500.24 -2.4347 -1.81538 0
M  V30 15658 H 1497.82 -1.23583 -0.839497 0
M  V30 15659 H 1499.7 -1.32198 -4.00127 0
M  V30 15660 H 1498.38 -0.426366 -3.2088 0
M  V30 15661 H 1497.29 -2.66821 -2.62217 0
M  V30 15662 H 1498.62 -3.49671 -3.46398 0
M  V30 15663 N 1500.27 0.920374 -1.27933 0
M  V30 15664 C 1501.2 2.03882 -1.13817 0
M  V30 15665 C 1502.18 1.70058 -0.0376853 0
M  V30 15666 O 1503.37 1.93023 -0.213492 0
M  V30 15667 C 1500.5 3.38142 -0.792296 0
M  V30 15668 C 1499.45 3.86104 -1.84683 0
M  V30 15669 C 1498.78 5.17253 -1.35474 0
M  V30 15670 C 1500.08 4.0869 -3.25223 0
M  V30 15671 H 1501.77 2.15949 -2.07379 0
M  V30 15672 H 1499.32 1.03764 -0.998454 0
M  V30 15673 H 1501.27 4.15872 -0.680337 0
M  V30 15674 H 1499.99 3.26109 0.179029 0
M  V30 15675 H 1498.65 3.10573 -1.94782 0
M  V30 15676 H 1498.3 5.01618 -0.372666 0
M  V30 15677 H 1498 5.50314 -2.05982 0
M  V30 15678 H 1499.53 5.97545 -1.25587 0
M  V30 15679 H 1500.94 4.76965 -3.18083 0
M  V30 15680 H 1499.34 4.5307 -3.93507 0
M  V30 15681 H 1500.41 3.13729 -3.69733 0
M  V30 15682 N 1501.75 1.10074 1.1279 0
M  V30 15683 C 1502.98 0.862906 1.88047 0
M  V30 15684 C 1503.39 -0.586346 1.79464 0
M  V30 15685 O 1502.75 -1.40402 1.16591 0
M  V30 15686 C 1502.8 1.29784 3.37399 0
M  V30 15687 O 1502.52 2.69026 3.4577 0
M  V30 15688 C 1504.02 1.09336 4.29605 0
M  V30 15689 H 1501.24 0.309981 0.595108 0
M  V30 15690 H 1503.79 1.46444 1.42738 0
M  V30 15691 H 1501.94 0.740056 3.80266 0
M  V30 15692 H 1502.36 2.87532 4.38663 0
M  V30 15693 H 1503.83 1.44687 5.327 0
M  V30 15694 H 1504.31 0.031679 4.39189 0
M  V30 15695 H 1504.91 1.63743 3.92516 0
M  V30 15696 N 1503.23 -1.30138 0.888926 0
M  V30 15697 C 1504.64 -1.78124 0.559346 0
M  V30 15698 C 1504.99 -1.73046 -0.924633 0
M  V30 15699 O 1504.11 -1.30974 -1.72264 0
M  V30 15700 C 1504.71 -3.2344 1.00856 0
M  V30 15701 C 1503.27 -3.69247 0.730332 0
M  V30 15702 C 1502.42 -2.505 1.18933 0
M  V30 15703 H 1505.37 -1.16952 1.07275 0
M  V30 15704 H 1505.39 -3.78985 0.339219 0
M  V30 15705 H 1504.9 -3.27104 2.08865 0
M  V30 15706 H 1503 -3.71067 -0.337599 0
M  V30 15707 H 1503.11 -4.60538 1.32066 0
M  V30 15708 H 1501.48 -2.47323 0.608568 0
M  V30 15709 H 1502.26 -2.56899 2.27724 0
M  V30 15710 N 1504.71 -0.650285 -1.43559 0
M  V30 15711 C 1505.95 -0.162725 -2.02146 0
M  V30 15712 C 1506.28 1.21911 -1.51166 0
M  V30 15713 O 1505.56 1.81329 -0.703563 0
M  V30 15714 C 1505.84 -0.170356 -3.59697 0
M  V30 15715 C 1505.7 -1.5859 -4.20915 0
M  V30 15716 C 1507.01 0.494831 -4.37309 0
M  V30 15717 H 1504.13 -0.0606055 -0.734504 0
M  V30 15718 H 1506.78 -0.830411 -1.70892 0
M  V30 15719 H 1504.93 0.39819 -3.86454 0
M  V30 15720 H 1506.6 -2.20481 -4.05199 0
M  V30 15721 H 1504.84 -2.13407 -3.77677 0
M  V30 15722 H 1505.51 -1.54312 -5.29992 0
M  V30 15723 H 1507.99 0.0111281 -4.16099 0
M  V30 15724 H 1506.86 0.458753 -5.4698 0
M  V30 15725 H 1507.12 1.56846 -4.13342 0
M  V30 15726 N 1506.18 1.52647 -0.392018 0
M  V30 15727 C 1507.43 2.01912 0.18958 0
M  V30 15728 C 1507.76 1.27786 1.46234 0
M  V30 15729 O 1507.04 0.379124 1.90769 0
M  V30 15730 C 1507.32 3.57217 0.454734 0
M  V30 15731 C 1507.17 4.4201 -0.833501 0
M  V30 15732 C 1508.49 4.22146 1.24421 0
M  V30 15733 H 1505.61 0.733909 0.0674281 0
M  V30 15734 H 1508.25 1.82685 -0.52212 0
M  V30 15735 H 1506.4 3.73731 1.06101 0
M  V30 15736 H 1508.08 4.37242 -1.47027 0
M  V30 15737 H 1506.32 4.08912 -1.44823 0
M  V30 15738 H 1506.99 5.48701 -0.602585 0
M  V30 15739 H 1509.47 4.09627 0.731093 0
M  V30 15740 H 1508.34 5.30786 1.39848 0
M  V30 15741 H 1508.6 3.7996 2.26016 0
M  V30 15742 N 1507.66 0.121921 1.57128 0
M  V30 15743 C 1508.59 -0.857725 2.12546 0
M  V30 15744 C 1509.61 -1.22797 1.06886 0
M  V30 15745 O 1510.8 -1.17641 1.34249 0
M  V30 15746 C 1507.9 -2.15869 2.61254 0
M  V30 15747 C 1507.07 -1.95969 3.91043 0
M  V30 15748 C 1506.13 -3.09822 4.2532 0
M  V30 15749 O 1505.15 -2.82608 4.94087 0
M  V30 15750 N 1506.36 -4.36333 3.82875 0
M  V30 15751 H 1509.12 -0.384239 2.97227 0
M  V30 15752 H 1506.68 -0.062416 1.6178 0
M  V30 15753 H 1508.67 -2.91035 2.81213 0
M  V30 15754 H 1507.24 -2.54557 1.81437 0
M  V30 15755 H 1506.46 -1.04979 3.79965 0
M  V30 15756 H 1507.75 -1.79981 4.75904 0
M  V30 15757 H 1507.15 -4.61318 3.27417 0
M  V30 15758 H 1505.71 -5.08362 4.07936 0
M  V30 15759 N 1509.14 -1.56867 -0.151857 0
M  V30 15760 C 1510.37 -1.87237 -0.880343 0
M  V30 15761 C 1510.78 -0.709565 -1.74959 0
M  V30 15762 O 1510.14 0.320818 -1.79658 0
M  V30 15763 C 1510.19 -3.16811 -1.74107 0
M  V30 15764 O 1509.91 -4.28611 -0.906858 0
M  V30 15765 C 1511.41 -3.60662 -2.57755 0
M  V30 15766 H 1508.63 -0.62074 -0.254799 0
M  V30 15767 H 1511.18 -2.03977 -0.146104 0
M  V30 15768 H 1509.33 -3.01838 -2.42842 0
M  V30 15769 H 1509.75 -5.02673 -1.49733 0
M  V30 15770 H 1511.22 -4.54176 -3.13732 0
M  V30 15771 H 1511.7 -2.85716 -3.33561 0
M  V30 15772 H 1512.3 -3.78312 -1.94319 0
M  V30 15773 N 1510.62 0.421051 -1.51871 0
M  V30 15774 C 1511.87 1.16611 -1.64574 0
M  V30 15775 C 1512.18 1.91955 -0.375835 0
M  V30 15776 O 1513.39 2.68792 -0.382481 0
M  V30 15777 C 1511.84 2.12164 -2.90714 0
M  V30 15778 C 1511.45 1.42392 -4.24769 0
M  V30 15779 C 1513.19 2.87002 -3.12778 0
M  V30 15780 C 1511.1 2.36523 -5.42043 0
M  V30 15781 H 1510.03 0.438989 -0.613029 0
M  V30 15782 H 1512.68 0.431636 -1.78351 0
M  V30 15783 H 1511.06 2.89114 -2.70608 0
M  V30 15784 H 1512.24 0.708875 -4.55315 0
M  V30 15785 H 1510.55 0.796421 -4.08713 0
M  V30 15786 H 1513.15 3.5755 -3.9757 0
M  V30 15787 H 1513.49 3.49277 -2.2652 0
M  V30 15788 H 1514.03 2.17154 -3.333 0
M  V30 15789 H 1510.77 1.78913 -6.30611 0
M  V30 15790 H 1510.29 3.06034 -5.15852 0
M  V30 15791 H 1511.96 2.97306 -5.74646 0
M  V30 15792 N 1512.1 1.42293 0.677538 0
M  V30 15793 C 1513.01 1.47953 1.82063 0
M  V30 15794 C 1514.02 0.36851 1.70053 0
M  V30 15795 O 1515.2 0.618996 1.91652 0
M  V30 15796 C 1512.26 1.3769 3.18186 0
M  V30 15797 C 1511.32 2.59261 3.42173 0
M  V30 15798 C 1510.56 2.49478 4.71801 0
M  V30 15799 O 1510.78 1.52915 5.49521 0
M  V30 15800 O 1509.71 3.39562 4.96972 0
M  V30 15801 H 1513.54 2.4443 1.80244 0
M  V30 15802 H 1511.13 1.24027 0.832932 0
M  V30 15803 H 1513.01 1.34319 3.9942 0
M  V30 15804 H 1511.68 0.443377 3.20649 0
M  V30 15805 H 1510.59 2.68207 2.60798 0
M  V30 15806 H 1511.92 3.51503 3.44538 0
M  V30 15807 N 1513.57 -0.913576 1.28419 0
M  V30 15808 C 1514.82 -1.66519 1.15755 0
M  V30 15809 C 1515.15 -1.91974 -0.293166 0
M  V30 15810 O 1514.43 -1.52025 -1.21321 0
M  V30 15811 C 1514.71 -3.02299 1.95672 0
M  V30 15812 C 1514.56 -2.83996 3.48807 0
M  V30 15813 C 1515.88 -4.02838 1.77226 0
M  V30 15814 H 1513 -0.604309 0.421877 0
M  V30 15815 H 1515.64 -1.05919 1.57737 0
M  V30 15816 H 1513.79 -3.54025 1.59995 0
M  V30 15817 H 1515.47 -2.39279 3.9439 0
M  V30 15818 H 1513.71 -2.19052 3.74431 0
M  V30 15819 H 1514.38 -3.80419 3.99982 0
M  V30 15820 H 1516.86 -3.60174 2.0836 0
M  V30 15821 H 1515.73 -4.95806 2.35515 0
M  V30 15822 H 1515.99 -4.36135 0.723804 0
M  V30 15823 N 1515.05 -1.1067 -1.12204 0
M  V30 15824 C 1516 -0.752659 -2.20086 0
M  V30 15825 C 1516.99 0.252284 -1.67511 0
M  V30 15826 O 1518.2 0.112398 -1.79649 0
M  V30 15827 H 1514.58 -0.225473 -0.717402 0
M  V30 15828 H 1516.55 -1.67136 -2.472 0
M  V30 15829 C 1515.3 -0.203345 -3.47105 0
M  V30 15830 H 1514.62 -0.967864 -3.87908 0
M  V30 15831 H 1516.06 0.00629123 -4.24 0
M  V30 15832 C 1514.52 1.06452 -3.1964 0
M  V30 15833 O 1515.05 2.14562 -3.39597 0
M  V30 15834 N 1513.25 0.984122 -2.73429 0
M  V30 15835 H 1512.8 0.104258 -2.57389 0
M  V30 15836 H 1512.76 1.83312 -2.55429 0
M  V30 15837 N 1516.53 1.29665 -0.895815 0
M  V30 15838 C 1517.76 2.00399 -0.534333 0
M  V30 15839 C 1518.18 1.66632 0.872654 0
M  V30 15840 O 1517.54 0.888811 1.58018 0
M  V30 15841 C 1517.59 3.53154 -0.729023 0
M  V30 15842 O 1516.69 4.11812 0.22023 0
M  V30 15843 H 1516.03 0.630173 -0.209233 0
M  V30 15844 H 1518.56 1.65253 -1.20634 0
M  V30 15845 H 1518.57 4.03073 -0.632179 0
M  V30 15846 H 1517.25 3.77067 -1.75481 0
M  V30 15847 H 1515.82 3.72822 0.0761687 0
M  V30 15848 N 1518.01 0.657889 1.43212 0
M  V30 15849 C 1519.26 0.173187 2.01758 0
M  V30 15850 C 1519.58 -1.21447 1.51924 0
M  V30 15851 O 1518.84 -1.82568 0.704807 0
M  V30 15852 C 1519.14 0.138025 3.57133 0
M  V30 15853 C 1518.8 1.46806 4.26332 0
M  V30 15854 C 1517.47 1.83227 4.44951 0
M  V30 15855 C 1519.82 2.34476 4.65478 0
M  V30 15856 C 1517.15 3.06975 4.99983 0
M  V30 15857 C 1519.5 3.57521 5.21883 0
M  V30 15858 C 1518.16 3.94132 5.38717 0
M  V30 15859 H 1517.43 0.0633735 0.738285 0
M  V30 15860 H 1520.08 0.849524 1.71626 0
M  V30 15861 H 1518.38 -0.621776 3.86835 0
M  V30 15862 H 1520.08 -0.253948 4.00195 0
M  V30 15863 H 1516.67 1.17469 4.12188 0
M  V30 15864 H 1520.85 2.07628 4.50782 0
M  V30 15865 H 1516.11 3.35383 5.11202 0
M  V30 15866 H 1520.28 4.25669 5.51161 0
M  V30 15867 H 1517.91 4.901 5.81125 0
M  V30 15868 N 1519.49 -1.52437 0.400108 0
M  V30 15869 C 1520.71 -2.0661 -0.180861 0
M  V30 15870 C 1521.14 -1.269 -1.38845 0
M  V30 15871 O 1520.49 -0.296862 -1.78853 0
M  V30 15872 C 1520.54 -3.56851 -0.518595 0
M  V30 15873 O 1519.65 -3.79634 -1.61095 0
M  V30 15874 H 1518.99 -0.663752 -0.0181348 0
M  V30 15875 H 1521.52 -1.96479 0.570702 0
M  V30 15876 H 1521.53 -4.00478 -0.779817 0
M  V30 15877 H 1520.2 -4.14302 0.364216 0
M  V30 15878 H 1518.78 -3.47892 -1.3426 0
M  V30 15879 N 1520.96 -0.130252 -1.57061 0
M  V30 15880 C 1522.21 0.523969 -1.9519 0
M  V30 15881 C 1522.53 1.66493 -1.01514 0
M  V30 15882 O 1521.8 1.95762 -0.0735194 0
M  V30 15883 H 1520.38 0.196553 -0.720677 0
M  V30 15884 H 1523.05 -0.20183 -1.93852 0
M  V30 15885 H 1522.14 0.911156 -2.98504 0
M  V30 15886 N 1522.44 1.56945 0.143535 0
M  V30 15887 C 1523.67 1.87429 0.869139 0
M  V30 15888 C 1524.08 0.716856 1.75094 0
M  V30 15889 O 1523.42 -0.322379 1.80849 0
M  V30 15890 C 1523.49 3.12657 1.77442 0
M  V30 15891 C 1523.15 4.44311 1.06943 0
M  V30 15892 C 1524.15 5.18187 0.421706 0
M  V30 15893 C 1521.83 4.91033 1.05791 0
M  V30 15894 C 1523.83 6.36992 -0.228127 0
M  V30 15895 C 1521.51 6.09761 0.404266 0
M  V30 15896 C 1522.51 6.82587 -0.237621 0
M  V30 15897 O 1522.2 7.99059 -0.880893 0
M  V30 15898 H 1521.93 0.625443 0.256508 0
M  V30 15899 H 1524.49 2.04922 0.139979 0
M  V30 15900 H 1522.72 2.91181 2.54461 0
M  V30 15901 H 1524.4 3.29359 2.37228 0
M  V30 15902 H 1525.17 4.83157 0.422395 0
M  V30 15903 H 1521.05 4.3427 1.54694 0
M  V30 15904 H 1524.59 6.93773 -0.729732 0
M  V30 15905 H 1520.49 6.44252 0.401256 0
M  V30 15906 H 1521.26 8.14747 -0.782907 0
M  V30 15907 N 1523.92 -0.412991 1.52093 0
M  V30 15908 C 1524.85 -1.50986 1.78117 0
M  V30 15909 C 1525.83 -1.57925 0.631963 0
M  V30 15910 O 1527.02 -1.73261 0.877168 0
M  V30 15911 C 1524.15 -2.88846 1.92835 0
M  V30 15912 C 1523.1 -2.96759 3.08412 0
M  V30 15913 C 1522.43 -4.36837 3.08347 0
M  V30 15914 C 1523.73 -2.68599 4.47942 0
M  V30 15915 H 1525.42 -1.29459 2.69964 0
M  V30 15916 H 1522.97 -0.621348 1.29905 0
M  V30 15917 H 1524.92 -3.65563 2.09623 0
M  V30 15918 H 1523.64 -3.11658 0.976553 0
M  V30 15919 H 1522.3 -2.22487 2.91368 0
M  V30 15920 H 1521.95 -4.56652 2.10897 0
M  V30 15921 H 1521.65 -4.43056 3.85973 0
M  V30 15922 H 1523.18 -5.15493 3.2726 0
M  V30 15923 H 1524.59 -3.35039 4.65212 0
M  V30 15924 H 1522.99 -2.86199 5.27456 0
M  V30 15925 H 1524.06 -1.64058 4.56304 0
M  V30 15926 N 1525.4 -1.4265 -0.669982 0
M  V30 15927 C 1526.35 -1.46504 -1.7834 0
M  V30 15928 C 1527.32 -0.316478 -1.63057 0
M  V30 15929 O 1528.5 -0.521245 -1.83542 0
M  V30 15930 C 1525.64 -1.37784 -3.16401 0
M  V30 15931 C 1524.75 -2.62714 -3.42937 0
M  V30 15932 C 1523.89 -2.46101 -4.70752 0
M  V30 15933 C 1522.93 -3.66381 -4.90338 0
M  V30 15934 N 1522.07 -3.48681 -6.09398 0
M  V30 15935 H 1526.91 -2.41651 -1.74381 0
M  V30 15936 H 1524.44 -1.1997 -0.851215 0
M  V30 15937 H 1526.4 -1.30725 -3.9619 0
M  V30 15938 H 1525.03 -0.462291 -3.19473 0
M  V30 15939 H 1524.08 -2.8012 -2.57366 0
M  V30 15940 H 1525.39 -3.52108 -3.53301 0
M  V30 15941 H 1524.55 -2.36655 -5.58641 0
M  V30 15942 H 1523.29 -1.54204 -4.6268 0
M  V30 15943 H 1522.29 -3.76254 -4.00891 0
M  V30 15944 H 1523.52 -4.59265 -5.00253 0
M  V30 15945 H 1521.46 -2.59505 -6.02489 0
M  V30 15946 H 1521.38 -4.31666 -6.20645 0
M  V30 15947 H 1522.65 -3.43056 -6.99952 0
M  V30 15948 N 1526.88 0.906753 -1.28902 0
M  V30 15949 C 1527.81 2.02663 -1.15974 0
M  V30 15950 C 1528.79 1.70009 -0.0557202 0
M  V30 15951 O 1529.97 1.92786 -0.233952 0
M  V30 15952 C 1527.1 3.37283 -0.828115 0
M  V30 15953 C 1526.06 3.84123 -1.88767 0
M  V30 15954 C 1525.38 5.15787 -1.40953 0
M  V30 15955 C 1526.68 4.05217 -3.2954 0
M  V30 15956 H 1528.38 2.13738 -2.09658 0
M  V30 15957 H 1525.92 1.02699 -1.0094 0
M  V30 15958 H 1527.88 4.15127 -0.724408 0
M  V30 15959 H 1526.6 3.2628 0.14443 0
M  V30 15960 H 1525.26 3.0849 -1.98065 0
M  V30 15961 H 1524.91 5.01194 -0.425848 0
M  V30 15962 H 1524.61 5.48098 -2.11807 0
M  V30 15963 H 1526.13 5.9618 -1.31918 0
M  V30 15964 H 1527.55 4.73565 -3.23124 0
M  V30 15965 H 1525.94 4.48871 -3.9829 0
M  V30 15966 H 1527.01 3.0979 -3.73039 0
M  V30 15967 N 1528.36 1.11264 1.11616 0
M  V30 15968 C 1529.58 0.882802 1.87121 0
M  V30 15969 C 1530 -0.567279 1.80076 0
M  V30 15970 O 1529.36 -1.39158 1.18074 0
M  V30 15971 C 1529.41 1.33355 3.36004 0
M  V30 15972 O 1529.13 2.72678 3.42897 0
M  V30 15973 C 1530.63 1.13886 4.28421 0
M  V30 15974 H 1527.85 0.316275 0.591786 0
M  V30 15975 H 1530.39 1.4795 1.41177 0
M  V30 15976 H 1528.55 0.780347 3.79459 0
M  V30 15977 H 1528.96 2.92168 4.35589 0
M  V30 15978 H 1530.44 1.50329 5.31136 0
M  V30 15979 H 1530.91 0.078259 4.3913 0
M  V30 15980 H 1531.52 1.67896 3.90757 0
M  V30 15981 N 1529.83 -1.29188 0.902679 0
M  V30 15982 C 1531.11 -1.90365 0.449496 0
M  V30 15983 C 1531.49 -1.81911 -1.07105 0
M  V30 15984 O 1530.84 -1.24778 -1.91423 0
M  V30 15985 C 1531.05 -3.35324 0.967418 0
M  V30 15986 C 1532.4 -4.12342 1.0129 0
M  V30 15987 O 1533.42 -3.44239 0.915293 0
M  V30 15988 O 1532.28 -5.34048 1.15994 0
M  V30 15989 H 1529.37 -0.814956 0.140628 0
M  V30 15990 H 1531.92 -1.37633 0.992739 0
M  V30 15991 H 1530.69 -3.35646 2.0114 0
M  V30 15992 H 1530.31 -3.95539 0.404358 0
M  V30 15993 N 1531.31 -0.665475 -1.42861 0
M  V30 15994 C 1532.26 0.030395 -2.3258 0
M  V30 15995 C 1533.25 0.800329 -1.49302 0
M  V30 15996 O 1534.46 0.709346 -1.65434 0
M  V30 15997 H 1530.83 0.0286201 -0.751455 0
M  V30 15998 H 1532.81 -0.743838 -2.8898 0
M  V30 15999 C 1531.55 0.974474 -3.33765 0
M  V30 16000 H 1530.88 0.391447 -3.97879 0
M  V30 16001 H 1532.32 1.43023 -3.99149 0
M  V30 16002 C 1530.78 2.0764 -2.65306 0
M  V30 16003 O 1531.31 3.16172 -2.47787 0
M  V30 16004 N 1529.51 1.84544 -2.24481 0
M  V30 16005 H 1529.06 0.962826 -2.3893 0
M  V30 16006 H 1529.02 2.58464 -1.79007 0
M  V30 16007 N 1532.79 1.52222 -0.408187 0
M  V30 16008 C 1534.04 2.02102 0.168154 0
M  V30 16009 C 1534.37 1.2933 1.4487 0
M  V30 16010 O 1533.64 0.399336 1.90356 0
M  V30 16011 C 1533.93 3.57679 0.416821 0
M  V30 16012 C 1533.78 4.41101 -0.880335 0
M  V30 16013 C 1535.1 4.23442 1.19936 0
M  V30 16014 H 1532.22 0.734583 0.0596402 0
M  V30 16015 H 1534.86 1.82121 -0.541467 0
M  V30 16016 H 1533.01 3.74835 1.02131 0
M  V30 16017 H 1534.68 4.35658 -1.51656 0
M  V30 16018 H 1532.92 4.07353 -1.49152 0
M  V30 16019 H 1533.6 5.48031 -0.660748 0
M  V30 16020 H 1536.07 4.10379 0.687605 0
M  V30 16021 H 1534.95 5.32239 1.3421 0
M  V30 16022 H 1535.21 3.82335 2.21973 0
M  V30 16023 N 1534.27 0.138579 1.5699 0
M  V30 16024 C 1535.5 -0.521049 1.99922 0
M  V30 16025 C 1535.91 -1.59508 1.01754 0
M  V30 16026 O 1535.25 -1.83699 0.00521913 0
M  V30 16027 C 1535.31 -1.18856 3.39284 0
M  V30 16028 C 1534.97 -0.260145 4.56259 0
M  V30 16029 C 1535.97 0.508919 5.17403 0
M  V30 16030 C 1533.66 -0.165504 5.02027 0
M  V30 16031 C 1535.65 1.36016 6.22719 0
M  V30 16032 C 1533.34 0.689346 6.07199 0
M  V30 16033 C 1534.34 1.45079 6.67414 0
M  V30 16034 O 1534.02 2.29141 7.70551 0
M  V30 16035 H 1533.76 -0.140889 0.661155 0
M  V30 16036 H 1536.31 0.227618 2.04135 0
M  V30 16037 H 1534.54 -1.9847 3.31883 0
M  V30 16038 H 1536.23 -1.74706 3.66377 0
M  V30 16039 H 1536.99 0.445787 4.82947 0
M  V30 16040 H 1532.87 -0.747903 4.54893 0
M  V30 16041 H 1536.42 1.95496 6.69647 0
M  V30 16042 H 1532.31 0.7538 6.41084 0
M  V30 16043 H 1533.08 2.22296 7.87735 0
M  V30 16044 N 1535.75 -1.57019 -0.13521 0
M  V30 16045 C 1536.99 -1.83178 -0.844308 0
M  V30 16046 C 1537.31 -0.7217 -1.81799 0
M  V30 16047 O 1538.51 -0.869232 -2.57209 0
M  V30 16048 C 1536.97 -3.2471 -1.55214 0
M  V30 16049 C 1536.58 -4.43685 -0.620268 0
M  V30 16050 C 1538.32 -3.60133 -2.24732 0
M  V30 16051 C 1536.23 -5.76242 -1.3304 0
M  V30 16052 H 1535.16 -0.683175 -0.319041 0
M  V30 16053 H 1537.81 -1.83243 -0.0970242 0
M  V30 16054 H 1536.19 -3.19067 -2.34547 0
M  V30 16055 H 1537.37 -4.60591 0.138685 0
M  V30 16056 H 1535.68 -4.16387 -0.0328906 0
M  V30 16057 H 1538.28 -4.56431 -2.78522 0
M  V30 16058 H 1538.62 -2.86767 -3.01779 0
M  V30 16059 H 1539.15 -3.67489 -1.52305 0
M  V30 16060 H 1535.89 -6.52734 -0.60155 0
M  V30 16061 H 1535.41 -5.63251 -2.06176 0
M  V30 16062 H 1537.09 -6.19445 -1.86808 0
M  V30 16063 N 1537.22 0.404919 -1.52309 0
M  V30 16064 C 1538.17 1.49363 -1.75953 0
M  V30 16065 C 1539.14 1.54802 -0.60212 0
M  V30 16066 O 1540.33 1.71308 -0.840128 0
M  V30 16067 C 1537.47 2.86767 -1.91987 0
M  V30 16068 C 1536.58 2.90603 -3.19646 0
M  V30 16069 C 1535.71 4.19333 -3.26088 0
M  V30 16070 C 1534.75 4.17161 -4.47932 0
M  V30 16071 N 1533.89 5.37469 -4.51743 0
M  V30 16072 H 1538.73 1.28503 -2.6887 0
M  V30 16073 H 1536.27 0.623684 -1.33224 0
M  V30 16074 H 1538.23 3.66536 -1.99267 0
M  V30 16075 H 1536.86 3.06112 -1.02447 0
M  V30 16076 H 1535.91 2.033 -3.21517 0
M  V30 16077 H 1537.22 2.84864 -4.09456 0
M  V30 16078 H 1536.37 5.07497 -3.32463 0
M  V30 16079 H 1535.11 4.27774 -2.34224 0
M  V30 16080 H 1534.12 3.27386 -4.417 0
M  V30 16081 H 1535.34 4.10356 -5.41096 0
M  V30 16082 H 1533.29 5.46569 -3.62764 0
M  V30 16083 H 1533.21 5.3374 -5.35404 0
M  V30 16084 H 1534.47 6.27575 -4.62353 0
M  V30 16085 N 1538.7 1.43003 0.662408 0
M  V30 16086 C 1539.65 1.47701 1.79686 0
M  V30 16087 C 1540.64 0.351491 1.65713 0
M  V30 16088 O 1541.85 0.525071 1.72171 0
M  V30 16089 H 1538.23 0.46285 0.592684 0
M  V30 16090 H 1540.2 2.43245 1.72843 0
M  V30 16091 C 1538.95 1.40828 3.17904 0
M  V30 16092 H 1538.27 2.26736 3.29288 0
M  V30 16093 H 1539.71 1.48177 3.97265 0
M  V30 16094 C 1538.17 0.124659 3.36669 0
M  V30 16095 O 1538.7 -0.81769 3.9329 0
M  V30 16096 N 1536.9 0.0378063 2.90575 0
M  V30 16097 H 1536.45 0.805456 2.44684 0
M  V30 16098 H 1536.41 -0.820377 3.03508 0
M  V30 16099 N 1540.18 -0.899904 1.29381 0
M  V30 16100 C 1541.14 -1.98554 1.14494 0
M  V30 16101 C 1542.14 -1.60599 0.0804732 0
M  V30 16102 O 1543.33 -1.71096 0.327395 0
M  V30 16103 C 1540.47 -3.32529 0.750818 0
M  V30 16104 H 1541.66 -2.13189 2.10928 0
M  V30 16105 H 1539.21 -1.08438 1.12565 0
M  V30 16106 H 1539.95 -3.23595 -0.213668 0
M  V30 16107 H 1539.73 -3.61443 1.51992 0
M  V30 16108 H 1541.22 -4.12195 0.669709 0
M  V30 16109 N 1541.66 -1.11854 -1.11024 0
M  V30 16110 C 1542.94 -0.781693 -1.79301 0
M  V30 16111 C 1543.32 0.72956 -1.98092 0
M  V30 16112 O 1542.66 1.66109 -1.56908 0
M  V30 16113 C 1542.87 -1.54976 -3.12703 0
M  V30 16114 C 1544.22 -1.73183 -3.87676 0
M  V30 16115 O 1545.25 -1.51437 -3.22406 0
M  V30 16116 O 1544.1 -2.0935 -5.04812 0
M  V30 16117 H 1541.2 -0.283672 -0.776826 0
M  V30 16118 H 1543.74 -1.22222 -1.17728 0
M  V30 16119 H 1542.52 -2.57759 -2.94408 0
M  V30 16120 H 1542.14 -1.10308 -3.81992 0
M  V30 16121 N 1543.14 1.28707 -0.909517 0
M  V30 16122 C 1544.39 1.94437 -0.536401 0
M  V30 16123 C 1544.7 1.72416 0.923685 0
M  V30 16124 O 1545.9 2.32333 1.40477 0
M  V30 16125 C 1544.36 3.48246 -0.908455 0
M  V30 16126 C 1543.97 3.79051 -2.38798 0
M  V30 16127 C 1545.71 4.20156 -0.605721 0
M  V30 16128 C 1543.62 5.2615 -2.70038 0
M  V30 16129 H 1542.55 0.727842 -0.196882 0
M  V30 16130 H 1545.2 1.46283 -1.10786 0
M  V30 16131 H 1543.58 3.95107 -0.265829 0
M  V30 16132 H 1544.76 3.43014 -3.07698 0
M  V30 16133 H 1543.07 3.20303 -2.66074 0
M  V30 16134 H 1545.67 5.28439 -0.815849 0
M  V30 16135 H 1546.01 4.13792 0.456266 0
M  V30 16136 H 1546.54 3.79059 -1.20662 0
M  V30 16137 H 1543.28 5.37587 -3.75073 0
M  V30 16138 H 1542.8 5.63399 -2.05771 0
M  V30 16139 H 1544.48 5.93846 -2.56819 0
M  V30 16140 N 1544.61 0.673042 1.42506 0
M  V30 16141 C 1545.86 0.194864 2.01862 0
M  V30 16142 C 1546.19 -1.19491 1.53087 0
M  V30 16143 O 1545.47 -1.80187 0.732322 0
M  V30 16144 C 1545.75 0.227559 3.5938 0
M  V30 16145 C 1545.6 1.65266 4.18338 0
M  V30 16146 C 1546.92 -0.425197 4.38041 0
M  V30 16147 H 1544.04 0.0722831 0.733447 0
M  V30 16148 H 1546.68 0.857493 1.6955 0
M  V30 16149 H 1544.83 -0.336658 3.87039 0
M  V30 16150 H 1546.51 2.26899 4.0164 0
M  V30 16151 H 1544.75 2.19388 3.74234 0
M  V30 16152 H 1545.42 1.62724 5.2747 0
M  V30 16153 H 1547.9 0.0550709 4.16064 0
M  V30 16154 H 1546.77 -0.371675 5.4764 0
M  V30 16155 H 1547.03 -1.50251 4.15785 0
M  V30 16156 N 1546.09 -1.52004 0.416254 0
M  V30 16157 C 1547 -2.30947 -0.412403 0
M  V30 16158 C 1548.02 -1.38969 -1.04707 0
M  V30 16159 O 1549.19 -1.72044 -1.04703 0
M  V30 16160 C 1546.26 -3.12078 -1.51024 0
M  V30 16161 C 1545.32 -4.19805 -0.897892 0
M  V30 16162 C 1544.55 -4.97059 -1.94341 0
M  V30 16163 O 1544.78 -4.74695 -3.16261 0
M  V30 16164 O 1543.71 -5.81715 -1.54567 0
M  V30 16165 H 1547.54 -3.02817 0.231473 0
M  V30 16166 H 1545.12 -1.4832 0.179283 0
M  V30 16167 H 1547 -3.6258 -2.14741 0
M  V30 16168 H 1545.68 -2.42995 -2.13858 0
M  V30 16169 H 1544.59 -3.73433 -0.223236 0
M  V30 16170 H 1545.92 -4.91201 -0.31336 0
M  V30 16171 N 1547.57 -0.146903 -1.56914 0
M  V30 16172 C 1548.48 0.805875 -2.20324 0
M  V30 16173 C 1549.5 1.27178 -1.18751 0
M  V30 16174 O 1550.67 1.32899 -1.51327 0
M  V30 16175 C 1547.74 2.02755 -2.81232 0
M  V30 16176 C 1546.8 1.61089 -3.97931 0
M  V30 16177 C 1546.03 2.77433 -4.55924 0
M  V30 16178 O 1546.25 3.93643 -4.12797 0
M  V30 16179 O 1545.19 2.52911 -5.46187 0
M  V30 16180 H 1549.01 0.296098 -3.02253 0
M  V30 16181 H 1546.6 0.0801175 -1.49185 0
M  V30 16182 H 1548.48 2.74252 -3.19944 0
M  V30 16183 H 1547.16 2.52686 -2.02316 0
M  V30 16184 H 1546.06 0.86616 -3.63935 0
M  V30 16185 H 1547.4 1.15874 -4.78366 0
M  V30 16186 N 1549.05 1.57088 0.126881 0
M  V30 16187 C 1550.01 1.98836 1.14003 0
M  V30 16188 C 1551.01 0.877454 1.34749 0
M  V30 16189 O 1552.2 1.14366 1.314 0
M  V30 16190 C 1549.33 2.32171 2.49618 0
M  V30 16191 H 1550.53 2.89541 0.7814 0
M  V30 16192 H 1548.08 1.51835 0.370915 0
M  V30 16193 H 1548.81 1.44321 2.90417 0
M  V30 16194 H 1548.6 3.13187 2.35916 0
M  V30 16195 H 1550.09 2.65238 3.2255 0
M  V30 16196 N 1550.53 -0.396836 1.52522 0
M  V30 16197 C 1551.47 -1.48427 1.76743 0
M  V30 16198 C 1552.44 -1.54481 0.610321 0
M  V30 16199 O 1553.63 -1.7086 0.849201 0
M  V30 16200 C 1550.77 -2.85744 1.93505 0
M  V30 16201 C 1549.88 -2.88904 3.21183 0
M  V30 16202 C 1549.02 -4.17598 3.28307 0
M  V30 16203 C 1548.06 -4.14779 4.50138 0
M  V30 16204 N 1547.19 -5.35065 4.54587 0
M  V30 16205 H 1552.03 -1.27075 2.69548 0
M  V30 16206 H 1549.57 -0.61661 1.33553 0
M  V30 16207 H 1551.53 -3.65474 2.01208 0
M  V30 16208 H 1550.16 -3.05564 1.04069 0
M  V30 16209 H 1549.21 -2.01592 3.22591 0
M  V30 16210 H 1550.52 -2.82688 4.10961 0
M  V30 16211 H 1549.68 -5.05727 3.35149 0
M  V30 16212 H 1548.41 -4.26526 2.36489 0
M  V30 16213 H 1547.42 -3.25039 4.4343 0
M  V30 16214 H 1548.64 -4.07481 5.43264 0
M  V30 16215 H 1546.59 -5.44638 3.65658 0
M  V30 16216 H 1546.51 -5.30894 5.38227 0
M  V30 16217 H 1547.78 -6.25114 4.65675 0
M  V30 16218 N 1552.01 -1.43353 -0.654814 0
M  V30 16219 C 1552.95 -1.48387 -1.76776 0
M  V30 16220 C 1553.92 -0.333755 -1.62712 0
M  V30 16221 O 1555.11 -0.540683 -1.82979 0
M  V30 16222 C 1552.25 -1.41132 -3.14922 0
M  V30 16223 C 1551.36 -2.66336 -3.40131 0
M  V30 16224 C 1550.5 -2.5108 -4.68116 0
M  V30 16225 C 1549.53 -3.71561 -4.86425 0
M  V30 16226 N 1548.67 -3.55125 -6.05666 0
M  V30 16227 H 1553.51 -2.43487 -1.71808 0
M  V30 16228 H 1551.05 -1.20866 -0.838442 0
M  V30 16229 H 1553.01 -1.3492 -3.94782 0
M  V30 16230 H 1551.64 -0.496149 -3.18964 0
M  V30 16231 H 1550.69 -2.82834 -2.5438 0
M  V30 16232 H 1552 -3.55835 -3.49546 0
M  V30 16233 H 1551.15 -2.42567 -5.56099 0
M  V30 16234 H 1549.89 -1.59103 -4.61018 0
M  V30 16235 H 1548.9 -3.80484 -3.96877 0
M  V30 16236 H 1550.12 -4.64545 -4.95353 0
M  V30 16237 H 1548.07 -2.65881 -5.99703 0
M  V30 16238 H 1547.99 -4.38224 -6.16032 0
M  V30 16239 H 1549.25 -3.5046 -6.96274 0
M  V30 16240 N 1553.48 0.89303 -1.29857 0
M  V30 16241 C 1554.73 1.64657 -1.18389 0
M  V30 16242 C 1555.06 1.92417 0.262587 0
M  V30 16243 O 1554.34 1.53936 1.18887 0
M  V30 16244 C 1554.62 2.99148 -2.00456 0
M  V30 16245 C 1554.47 2.78411 -3.53281 0
M  V30 16246 C 1555.79 3.99968 -1.83613 0
M  V30 16247 H 1552.91 0.59752 -0.431438 0
M  V30 16248 H 1555.55 1.03397 -1.59402 0
M  V30 16249 H 1553.7 3.51435 -1.65607 0
M  V30 16250 H 1555.38 2.32974 -3.98147 0
M  V30 16251 H 1553.62 2.13067 -3.77869 0
M  V30 16252 H 1554.29 3.74008 -4.05983 0
M  V30 16253 H 1556.77 3.56813 -2.14064 0
M  V30 16254 H 1555.64 4.91997 -2.43373 0
M  V30 16255 H 1555.9 4.34928 -0.793098 0
M  V30 16256 N 1554.96 1.12442 1.10429 0
M  V30 16257 C 1555.91 0.792332 2.16773 0
M  V30 16258 C 1556.88 -0.240945 1.64343 0
M  V30 16259 O 1558.06 -0.115504 1.9045 0
M  V30 16260 C 1555.2 0.253166 3.4417 0
M  V30 16261 C 1554.32 1.34426 4.10553 0
M  V30 16262 C 1553.45 0.764527 5.2567 0
M  V30 16263 C 1552.49 1.83474 5.83955 0
M  V30 16264 N 1551.63 1.27372 6.9045 0
M  V30 16265 H 1556.47 1.7033 2.44524 0
M  V30 16266 H 1554 0.850418 1.20026 0
M  V30 16267 H 1555.96 -0.0774862 4.17128 0
M  V30 16268 H 1554.59 -0.620962 3.16771 0
M  V30 16269 H 1553.64 1.79169 3.35563 0
M  V30 16270 H 1554.96 2.15354 4.49916 0
M  V30 16271 H 1554.11 0.384548 6.0548 0
M  V30 16272 H 1552.85 -0.0759512 4.87641 0
M  V30 16273 H 1551.85 2.22391 5.02814 0
M  V30 16274 H 1553.08 2.67844 6.24048 0
M  V30 16275 H 1551.03 0.455069 6.5442 0
M  V30 16276 H 1550.94 2.01959 7.28525 0
M  V30 16277 H 1552.21 0.920975 7.7404 0
M  V30 16278 N 1556.44 -1.28223 0.91633 0
M  V30 16279 C 1557.85 -1.76898 0.597003 0
M  V30 16280 C 1558.2 -1.74969 -0.887719 0
M  V30 16281 O 1557.33 -1.34598 -1.69447 0
M  V30 16282 C 1557.92 -3.21228 1.07694 0
M  V30 16283 C 1556.48 -3.67614 0.80849 0
M  V30 16284 C 1555.63 -2.47921 1.24219 0
M  V30 16285 H 1558.58 -1.1465 1.09732 0
M  V30 16286 H 1558.6 -3.7818 0.419531 0
M  V30 16287 H 1558.11 -3.226 2.15757 0
M  V30 16288 H 1556.21 -3.717 -0.258814 0
M  V30 16289 H 1556.33 -4.57633 1.41804 0
M  V30 16290 H 1554.69 -2.45976 0.660892 0
M  V30 16291 H 1555.47 -2.5201 2.33122 0
M  V30 16292 N 1557.92 -0.68059 -1.42147 0
M  V30 16293 C 1559.15 -0.213839 -2.05792 0
M  V30 16294 C 1559.56 1.13123 -1.51158 0
M  V30 16295 O 1558.92 1.7039 -0.653708 0
M  V30 16296 C 1558.97 -0.146507 -3.61203 0
M  V30 16297 O 1558.69 -1.43843 -4.13813 0
M  V30 16298 C 1560.19 0.343043 -4.41971 0
M  V30 16299 H 1557.41 -0.10262 -0.663106 0
M  V30 16300 H 1559.95 -0.928957 -1.82183 0
M  V30 16301 H 1558.11 0.519335 -3.83903 0
M  V30 16302 H 1558.52 -1.31561 -5.07732 0
M  V30 16303 H 1560 0.339053 -5.50958 0
M  V30 16304 H 1560.47 1.37933 -4.16979 0
M  V30 16305 H 1561.08 -0.291267 -4.24301 0
M  V30 16306 N 1559.4 1.51781 -0.424309 0
M  V30 16307 C 1560.64 2.02269 0.146709 0
M  V30 16308 C 1560.97 1.30859 1.4349 0
M  V30 16309 O 1560.25 0.419504 1.89922 0
M  V30 16310 C 1560.53 3.58101 0.378861 0
M  V30 16311 C 1560.39 4.40143 -0.92707 0
M  V30 16312 C 1561.7 4.2469 1.15438 0
M  V30 16313 H 1558.82 0.735174 0.0518456 0
M  V30 16314 H 1561.47 1.81537 -0.560753 0
M  V30 16315 H 1559.62 3.75897 0.981496 0
M  V30 16316 H 1561.29 4.34025 -1.56268 0
M  V30 16317 H 1559.53 4.05748 -1.53464 0
M  V30 16318 H 1560.2 5.47299 -0.718837 0
M  V30 16319 H 1562.68 4.11086 0.644041 0
M  V30 16320 H 1561.55 5.33633 1.28557 0
M  V30 16321 H 1561.81 3.84668 2.17905 0
M  V30 16322 N 1560.87 0.155222 1.56834 0
M  V30 16323 C 1562.12 -0.494557 1.96677 0
M  V30 16324 C 1562.45 -1.63973 1.04051 0
M  V30 16325 O 1561.73 -1.94316 0.0844791 0
M  V30 16326 C 1562.01 -0.992902 3.46141 0
M  V30 16327 C 1561.86 0.151335 4.49545 0
M  V30 16328 C 1563.18 -1.87197 3.98303 0
M  V30 16329 H 1560.3 -0.178298 0.715107 0
M  V30 16330 H 1562.94 0.23811 1.88502 0
M  V30 16331 H 1561.09 -1.61724 3.53239 0
M  V30 16332 H 1562.77 0.787945 4.54521 0
M  V30 16333 H 1561.01 0.809262 4.26185 0
M  V30 16334 H 1561.68 -0.23921 5.51481 0
M  V30 16335 H 1564.16 -1.34578 3.93736 0
M  V30 16336 H 1563.03 -2.18972 5.03331 0
M  V30 16337 H 1563.29 -2.81191 3.41151 0
M  V30 16338 N 1562.35 -1.57153 -0.118549 0
M  V30 16339 C 1563.6 -1.8515 -0.82748 0
M  V30 16340 C 1563.93 -0.741026 -1.79506 0
M  V30 16341 O 1563.21 0.253095 -1.92846 0
M  V30 16342 C 1563.49 -3.23734 -1.57698 0
M  V30 16343 C 1563.34 -4.45381 -0.628967 0
M  V30 16344 C 1564.66 -3.59895 -2.53305 0
M  V30 16345 H 1561.78 -0.673459 -0.29937 0
M  V30 16346 H 1564.42 -1.89778 -0.0917198 0
M  V30 16347 H 1562.57 -3.19919 -2.20418 0
M  V30 16348 H 1564.24 -4.61299 -0.0105746 0
M  V30 16349 H 1562.49 -4.33759 0.059462 0
M  V30 16350 H 1563.16 -5.3902 -1.19004 0
M  V30 16351 H 1565.63 -3.64503 -2.0069 0
M  V30 16352 H 1564.51 -4.57839 -3.02778 0
M  V30 16353 H 1564.77 -2.87338 -3.3599 0
M  V30 16354 N 1563.83 0.388742 -1.5273 0
M  V30 16355 C 1564.78 1.49531 -1.78166 0
M  V30 16356 C 1565.77 1.56449 -0.649613 0
M  V30 16357 O 1566.98 1.59612 -0.832097 0
M  V30 16358 H 1563.35 0.497684 -0.56375 0
M  V30 16359 H 1565.32 1.25271 -2.70831 0
M  V30 16360 C 1564.07 2.86663 -1.96774 0
M  V30 16361 H 1563.4 2.82089 -2.83312 0
M  V30 16362 H 1564.84 3.63328 -2.18561 0
M  V30 16363 C 1563.29 3.28665 -0.740345 0
M  V30 16364 O 1563.82 4.01616 0.0821005 0
M  V30 16365 N 1562.03 2.84947 -0.570383 0
M  V30 16366 H 1561.58 2.25748 -1.24078 0
M  V30 16367 H 1561.54 3.13408 0.249496 0
M  V30 16368 N 1565.31 1.43698 0.647203 0
M  V30 16369 C 1566.27 1.48986 1.74172 0
M  V30 16370 C 1567.27 0.373812 1.56395 0
M  V30 16371 O 1568.46 0.635804 1.62183 0
M  V30 16372 C 1565.59 1.34827 3.13104 0
M  V30 16373 H 1566.79 2.46467 1.70863 0
M  V30 16374 H 1564.34 1.30552 0.859409 0
M  V30 16375 H 1565.07 0.383772 3.22021 0
M  V30 16376 H 1564.86 2.15738 3.27414 0
M  V30 16377 H 1566.35 1.41473 3.92906 0
M  V30 16378 N 1566.79 -0.886131 1.30328 0
M  V30 16379 C 1567.75 -1.97328 1.16594 0
M  V30 16380 C 1568.75 -1.60504 0.0975023 0
M  V30 16381 O 1569.94 -1.70739 0.345524 0
M  V30 16382 C 1567.07 -3.31714 0.786045 0
M  V30 16383 H 1568.26 -2.1094 2.13177 0
M  V30 16384 H 1565.82 -1.07238 1.13708 0
M  V30 16385 H 1566.55 -3.23804 -0.179334 0
M  V30 16386 H 1566.34 -3.5981 1.55817 0
M  V30 16387 H 1567.83 -4.11461 0.71339 0
M  V30 16388 N 1568.26 -1.13026 -1.09832 0
M  V30 16389 C 1569.21 -0.799174 -2.1844 0
M  V30 16390 C 1570.21 0.216695 -1.68008 0
M  V30 16391 O 1571.41 0.0742662 -1.79847 0
M  V30 16392 H 1567.79 -0.24064 -0.712458 0
M  V30 16393 H 1569.76 -1.72342 -2.436 0
M  V30 16394 C 1568.51 -0.276925 -3.46595 0
M  V30 16395 H 1567.83 -1.04993 -3.85768 0
M  V30 16396 H 1569.27 -0.0836468 -4.23917 0
M  V30 16397 C 1567.73 0.996479 -3.21826 0
M  V30 16398 O 1568.26 2.0731 -3.44072 0
M  V30 16399 N 1566.47 0.925903 -2.75455 0
M  V30 16400 H 1566.01 0.0496383 -2.57552 0
M  V30 16401 H 1565.97 1.77853 -2.5926 0
M  V30 16402 N 1569.74 1.27735 -0.923117 0
M  V30 16403 C 1570.99 1.94858 -0.56198 0
M  V30 16404 C 1571.32 1.72414 0.893698 0
M  V30 16405 O 1570.6 1.05054 1.63689 0
M  V30 16406 C 1570.88 3.49102 -0.883173 0
M  V30 16407 C 1570.73 3.80908 -2.39227 0
M  V30 16408 C 1572.05 4.38405 -0.385848 0
M  V30 16409 H 1569.17 0.707728 -0.205646 0
M  V30 16410 H 1571.81 1.50935 -1.15406 0
M  V30 16411 H 1569.96 3.86644 -0.379292 0
M  V30 16412 H 1571.63 3.53182 -2.96749 0
M  V30 16413 H 1569.88 3.2762 -2.84337 0
M  V30 16414 H 1570.55 4.88653 -2.56754 0
M  V30 16415 H 1573.02 4.07988 -0.817631 0
M  V30 16416 H 1571.9 5.45161 -0.63958 0
M  V30 16417 H 1572.16 4.36296 0.714009 0
M  V30 16418 N 1571.22 0.688118 1.41784 0
M  V30 16419 C 1572.45 0.224424 2.05377 0
M  V30 16420 C 1572.86 -1.12862 1.51852 0
M  V30 16421 O 1572.2 -1.71491 0.658526 0
M  V30 16422 C 1572.26 0.0964852 3.5937 0
M  V30 16423 C 1571.93 1.38037 4.35655 0
M  V30 16424 C 1572.92 2.31666 4.65432 0
M  V30 16425 C 1570.61 1.63167 4.7506 0
M  V30 16426 C 1572.6 3.48693 5.33565 0
M  V30 16427 C 1570.29 2.8048 5.42931 0
M  V30 16428 C 1571.29 3.73067 5.7211 0
M  V30 16429 O 1570.98 4.88326 6.38587 0
M  V30 16430 H 1570.71 0.103587 0.668016 0
M  V30 16431 H 1573.26 0.939084 1.82676 0
M  V30 16432 H 1571.49 -0.673878 3.80783 0
M  V30 16433 H 1573.18 -0.329059 4.04564 0
M  V30 16434 H 1573.95 2.13506 4.35477 0
M  V30 16435 H 1569.83 0.919669 4.51733 0
M  V30 16436 H 1573.37 4.20979 5.56258 0
M  V30 16437 H 1569.27 2.9856 5.72304 0
M  V30 16438 H 1570.04 4.88044 6.57081 0
M  V30 16439 N 1572.7 -1.51554 0.432352 0
M  V30 16440 C 1573.63 -2.30514 -0.372243 0
M  V30 16441 C 1574.61 -1.35712 -1.02549 0
M  V30 16442 O 1575.79 -1.6463 -1.03009 0
M  V30 16443 C 1572.92 -3.14353 -1.47646 0
M  V30 16444 C 1571.88 -4.17392 -0.946974 0
M  V30 16445 C 1571.2 -4.89721 -2.14656 0
M  V30 16446 C 1572.5 -5.22298 0.0151377 0
M  V30 16447 H 1574.2 -2.98024 0.28668 0
M  V30 16448 H 1571.74 -1.43325 0.139315 0
M  V30 16449 H 1573.7 -3.68369 -2.04651 0
M  V30 16450 H 1572.42 -2.44654 -2.1636 0
M  V30 16451 H 1571.08 -3.6442 -0.399174 0
M  V30 16452 H 1570.73 -4.1653 -2.81978 0
M  V30 16453 H 1570.43 -5.59393 -1.79869 0
M  V30 16454 H 1571.95 -5.46559 -2.72224 0
M  V30 16455 H 1573.37 -5.71416 -0.464447 0
M  V30 16456 H 1571.76 -5.99468 0.275339 0
M  V30 16457 H 1572.83 -4.75436 0.953357 0
M  V30 16458 N 1574.18 -0.163538 -1.56749 0
M  V30 16459 C 1575.12 0.769787 -2.17584 0
M  V30 16460 C 1576.09 1.23246 -1.11354 0
M  V30 16461 O 1577.28 1.30203 -1.3947 0
M  V30 16462 C 1574.42 1.99685 -2.81461 0
M  V30 16463 C 1573.53 1.57846 -4.0213 0
M  V30 16464 C 1572.67 2.75858 -4.53955 0
M  V30 16465 C 1571.71 2.30473 -5.67053 0
M  V30 16466 N 1570.84 3.41551 -6.13423 0
M  V30 16467 H 1575.68 0.244221 -2.96998 0
M  V30 16468 H 1573.22 0.108821 -1.46697 0
M  V30 16469 H 1575.18 2.71643 -3.16648 0
M  V30 16470 H 1573.81 2.49624 -2.04664 0
M  V30 16471 H 1572.86 0.755907 -3.72814 0
M  V30 16472 H 1574.17 1.20525 -4.8402 0
M  V30 16473 H 1573.33 3.55984 -4.91284 0
M  V30 16474 H 1572.06 3.16434 -3.71107 0
M  V30 16475 H 1571.07 1.48791 -5.29284 0
M  V30 16476 H 1572.29 1.90964 -6.51698 0
M  V30 16477 H 1570.24 3.81717 -5.33506 0
M  V30 16478 H 1570.16 3.08298 -6.90281 0
M  V30 16479 H 1571.43 4.21985 -6.554 0
M  V30 16480 N 1575.65 1.57214 0.110213 0
M  V30 16481 C 1576.6 1.97409 1.14077 0
M  V30 16482 C 1577.59 0.850322 1.36596 0
M  V30 16483 O 1578.78 1.11407 1.3754 0
M  V30 16484 C 1575.91 2.38936 2.46505 0
M  V30 16485 C 1575 3.57965 2.27424 0
M  V30 16486 N 1575.39 4.73379 1.78175 0
M  V30 16487 C 1573.68 3.63768 2.58048 0
M  V30 16488 C 1574.39 5.55376 1.73009 0
M  V30 16489 N 1573.36 4.98115 2.17675 0
M  V30 16490 H 1577.16 2.84098 0.752688 0
M  V30 16491 H 1574.68 1.59259 0.317845 0
M  V30 16492 H 1576.67 2.65953 3.21052 0
M  V30 16493 H 1575.33 1.53616 2.86063 0
M  V30 16494 H 1576.35 4.96424 1.47593 0
M  V30 16495 H 1573.02 2.89076 3.01233 0
M  V30 16496 H 1574.41 6.57969 1.36112 0
M  V30 16497 N 1577.13 -0.380637 1.52934 0
M  V30 16498 C 1578.38 -1.12261 1.68053 0
M  V30 16499 C 1578.7 -1.90263 0.427191 0
M  V30 16500 O 1577.97 -1.87768 -0.558559 0
M  V30 16501 H 1576.55 -0.41742 0.619491 0
M  V30 16502 H 1579.21 -0.430906 1.90077 0
M  V30 16503 H 1578.31 -1.82085 2.53479 0
M  V30 16504 N 1578.61 -1.44039 -0.639573 0
M  V30 16505 C 1579.86 -1.46088 -1.39652 0
M  V30 16506 C 1580.18 -0.0914602 -1.94785 0
M  V30 16507 O 1579.45 0.875097 -1.75268 0
M  V30 16508 H 1578.03 -0.537901 -0.518335 0
M  V30 16509 H 1580.69 -1.79751 -0.753365 0
M  V30 16510 H 1579.79 -2.1814 -2.23207 0
M  V30 16511 N 1580.09 0.879207 -1.30796 0
M  V30 16512 C 1581.34 1.62828 -1.19715 0
M  V30 16513 C 1581.66 1.93429 0.247031 0
M  V30 16514 O 1580.93 1.57478 1.16522 0
M  V30 16515 H 1579.51 0.603607 -0.440077 0
M  V30 16516 H 1582.17 1.05309 -1.64 0
M  V30 16517 H 1581.27 2.57591 -1.76219 0
M  V30 16518 N 1581.57 1.13606 1.09231 0
M  V30 16519 C 1582.81 0.900386 1.81717 0
M  V30 16520 C 1583.15 -0.571984 1.85586 0
M  V30 16521 O 1582.42 -1.42336 1.32554 0
M  V30 16522 C 1582.7 1.49143 3.27763 0
M  V30 16523 C 1582.56 3.03306 3.32153 0
M  V30 16524 C 1583.88 1.16129 4.24502 0
M  V30 16525 H 1581 0.328531 0.659724 0
M  V30 16526 H 1583.64 1.40467 1.27941 0
M  V30 16527 H 1581.79 1.06256 3.73687 0
M  V30 16528 H 1583.46 3.54963 2.94617 0
M  V30 16529 H 1581.7 3.38192 2.71677 0
M  V30 16530 H 1582.37 3.39761 4.35047 0
M  V30 16531 H 1584.85 1.53193 3.86874 0
M  V30 16532 H 1583.73 1.60129 5.25024 0
M  V30 16533 H 1583.99 0.0752973 4.42036 0
M  V30 16534 N 1583.05 -1.27244 0.929878 0
M  V30 16535 C 1584.01 -2.25028 0.435315 0
M  V30 16536 C 1585.01 -1.54453 -0.447332 0
M  V30 16537 O 1586.2 -1.72424 -0.248105 0
M  V30 16538 C 1583.33 -3.38843 -0.373933 0
M  V30 16539 H 1584.52 -2.70293 1.2993 0
M  V30 16540 H 1582.08 -1.39204 0.710771 0
M  V30 16541 H 1582.81 -2.98963 -1.25664 0
M  V30 16542 H 1582.6 -3.91244 0.258946 0
M  V30 16543 H 1584.09 -4.11516 -0.710255 0
M  V30 16544 N 1584.52 -0.695628 -1.41417 0
M  V30 16545 C 1585.77 -0.226171 -2.0083 0
M  V30 16546 C 1586.09 1.17833 -1.55371 0
M  V30 16547 O 1585.36 1.79512 -0.784362 0
M  V30 16548 H 1583.94 -0.0806271 -0.742636 0
M  V30 16549 H 1586.6 -0.8968 -1.73042 0
M  V30 16550 H 1585.7 -0.243643 -3.11148 0
M  V30 16551 N 1586 1.51322 -0.440383 0
M  V30 16552 C 1586.96 2.26388 0.357911 0
M  V30 16553 C 1587.96 1.2995 0.947083 0
M  V30 16554 O 1589.15 1.53637 0.821057 0
M  V30 16555 C 1586.29 3.05797 1.50669 0
M  V30 16556 H 1587.48 2.98396 -0.300002 0
M  V30 16557 H 1585.03 1.55096 -0.193628 0
M  V30 16558 H 1585.77 2.38213 2.20057 0
M  V30 16559 H 1585.55 3.76634 1.09037 0
M  V30 16560 H 1587.04 3.6265 2.07062 0
M  V30 16561 N 1587.48 0.171848 1.5666 0
M  V30 16562 C 1588.41 -0.753861 2.20996 0
M  V30 16563 C 1589.39 -1.23873 1.16574 0
M  V30 16564 O 1590.58 -1.29179 1.45005 0
M  V30 16565 C 1587.71 -1.98314 2.85112 0
M  V30 16566 C 1586.66 -1.6341 3.95577 0
M  V30 16567 C 1585.99 -2.93807 4.46745 0
M  V30 16568 C 1587.29 -0.861713 5.15142 0
M  V30 16569 H 1588.98 -0.217598 2.98608 0
M  V30 16570 H 1586.53 -0.10322 1.4363 0
M  V30 16571 H 1588.48 -2.63576 3.28794 0
M  V30 16572 H 1587.2 -2.54354 2.04869 0
M  V30 16573 H 1585.86 -1.00516 3.52551 0
M  V30 16574 H 1585.51 -3.47889 3.63293 0
M  V30 16575 H 1585.21 -2.71207 5.21268 0
M  V30 16576 H 1586.73 -3.60098 4.93114 0
M  V30 16577 H 1588.15 -1.41693 5.55514 0
M  V30 16578 H 1586.54 -0.734727 5.95585 0
M  V30 16579 H 1587.61 0.141851 4.84692 0
M  V30 16580 N 1588.96 -1.5727 -0.101874 0
M  V30 16581 C 1589.91 -2.0258 -1.14297 0
M  V30 16582 C 1590.9 -0.925674 -1.41872 0
M  V30 16583 O 1592.11 -1.11086 -1.41633 0
M  V30 16584 H 1588.48 -0.645504 -0.385782 0
M  V30 16585 H 1590.45 -2.8922 -0.734453 0
M  V30 16586 C 1589.2 -2.46036 -2.45686 0
M  V30 16587 H 1588.52 -3.30266 -2.2531 0
M  V30 16588 H 1589.96 -2.81522 -3.17051 0
M  V30 16589 C 1588.42 -1.33089 -3.09498 0
M  V30 16590 O 1588.95 -0.656277 -3.96303 0
M  V30 16591 N 1587.16 -1.08359 -2.69642 0
M  V30 16592 H 1586.71 -1.63397 -1.99146 0
M  V30 16593 H 1586.66 -0.329859 -3.12665 0
M  V30 16594 N 1590.44 0.372521 -1.53134 0
M  V30 16595 C 1591.38 1.45597 -1.79082 0
M  V30 16596 C 1592.35 1.5349 -0.63482 0
M  V30 16597 O 1593.54 1.69488 -0.876276 0
M  V30 16598 C 1590.68 2.8263 -1.98026 0
M  V30 16599 C 1589.79 2.83758 -3.25738 0
M  V30 16600 C 1588.93 4.12322 -3.34909 0
M  V30 16601 C 1587.96 4.07565 -4.5668 0
M  V30 16602 N 1587.1 5.27766 -4.63042 0
M  V30 16603 H 1591.94 1.22771 -2.71535 0
M  V30 16604 H 1589.48 0.595285 -1.34517 0
M  V30 16605 H 1591.44 3.62227 -2.06997 0
M  V30 16606 H 1590.07 3.0387 -1.08917 0
M  V30 16607 H 1589.12 1.96435 -3.25757 0
M  V30 16608 H 1590.43 2.76114 -4.15406 0
M  V30 16609 H 1589.58 5.00331 -3.43153 0
M  V30 16610 H 1588.32 4.22709 -2.43245 0
M  V30 16611 H 1587.33 3.17943 -4.48545 0
M  V30 16612 H 1588.55 3.98786 -5.49678 0
M  V30 16613 H 1586.5 5.38752 -3.74276 0
M  V30 16614 H 1586.42 5.22264 -5.46605 0
M  V30 16615 H 1587.68 6.17626 -4.75561 0
M  V30 16616 N 1591.91 1.44376 0.631925 0
M  V30 16617 C 1592.88 1.50825 1.72582 0
M  V30 16618 C 1593.88 0.390379 1.55989 0
M  V30 16619 O 1595.07 0.65297 1.61499 0
M  V30 16620 C 1592.2 1.38141 3.11657 0
M  V30 16621 H 1593.39 2.48265 1.68239 0
M  V30 16622 H 1590.94 1.31456 0.845514 0
M  V30 16623 H 1591.68 0.417905 3.21596 0
M  V30 16624 H 1591.46 2.19198 3.25107 0
M  V30 16625 H 1592.95 1.45633 3.91383 0
M  V30 16626 N 1593.39 -0.872258 1.31261 0
M  V30 16627 C 1594.62 -1.65795 1.23772 0
M  V30 16628 C 1595.03 -1.87766 -0.197351 0
M  V30 16629 O 1594.39 -1.43418 -1.1286 0
M  V30 16630 C 1594.44 -3.02722 1.9759 0
M  V30 16631 O 1594.16 -2.81734 3.35496 0
M  V30 16632 C 1595.66 -3.97165 1.96913 0
M  V30 16633 H 1592.88 -0.516959 0.427778 0
M  V30 16634 H 1595.43 -1.0889 1.73099 0
M  V30 16635 H 1593.58 -3.56322 1.5203 0
M  V30 16636 H 1594 -3.6869 3.73052 0
M  V30 16637 H 1595.47 -4.90566 2.53079 0
M  V30 16638 H 1595.95 -4.28778 0.951089 0
M  V30 16639 H 1596.55 -3.495 2.42342 0
M  V30 16640 N 1594.87 -1.14184 -1.08627 0
M  V30 16641 C 1595.82 -0.822297 -2.1758 0
M  V30 16642 C 1596.81 0.198863 -1.68229 0
M  V30 16643 O 1598.02 0.0551869 -1.79915 0
M  V30 16644 H 1594.39 -0.248183 -0.709866 0
M  V30 16645 H 1596.36 -1.74916 -2.41758 0
M  V30 16646 C 1595.11 -0.313671 -3.46282 0
M  V30 16647 H 1594.44 -1.09078 -3.84632 0
M  V30 16648 H 1595.88 -0.128604 -4.23805 0
M  V30 16649 C 1594.33 0.962289 -3.22865 0
M  V30 16650 O 1594.86 2.03649 -3.46251 0
M  V30 16651 N 1593.07 0.896635 -2.76421 0
M  V30 16652 H 1592.62 0.0223186 -2.5759 0
M  V30 16653 H 1592.58 1.75093 -2.61132 0
M  V30 16654 N 1596.35 1.26749 -0.936613 0
M  V30 16655 C 1597.3 2.28528 -0.433328 0
M  V30 16656 C 1598.29 1.62248 0.487012 0
M  V30 16657 O 1599.5 1.76245 0.36573 0
M  V30 16658 H 1595.87 0.742106 -0.121583 0
M  V30 16659 H 1597.84 2.68382 -1.30436 0
M  V30 16660 C 1596.59 3.46485 0.290366 0
M  V30 16661 H 1595.91 3.97706 -0.408649 0
M  V30 16662 H 1597.35 4.19635 0.606807 0
M  V30 16663 C 1595.81 3.01339 1.50654 0
M  V30 16664 O 1596.34 3.05781 2.60501 0
M  V30 16665 N 1594.55 2.56732 1.3615 0
M  V30 16666 H 1594.1 2.53317 0.467788 0
M  V30 16667 H 1594.05 2.26888 2.17645 0
M  V30 16668 N 1597.83 0.703118 1.41046 0
M  V30 16669 C 1598.79 0.0514476 2.29142 0
M  V30 16670 C 1599.79 -0.700223 1.44753 0
M  V30 16671 O 1600.98 -0.533985 1.65814 0
M  V30 16672 C 1598.11 -0.93735 3.2776 0
M  V30 16673 H 1599.3 0.827201 2.88266 0
M  V30 16674 H 1596.86 0.467045 1.49159 0
M  V30 16675 H 1597.59 -1.7406 2.7363 0
M  V30 16676 H 1597.38 -0.4014 3.9004 0
M  V30 16677 H 1598.87 -1.39088 3.93757 0
M  V30 16678 N 1599.3 -1.51086 0.448402 0
M  V30 16679 C 1600.24 -2.24615 -0.402921 0
M  V30 16680 C 1601.22 -1.26994 -1.01544 0
M  V30 16681 O 1602.4 -1.56159 -1.05577 0
M  V30 16682 C 1599.53 -3.00504 -1.56253 0
M  V30 16683 C 1598.57 -4.1287 -1.06961 0
M  V30 16684 S 1599.41 -5.355 -0.00265176 0
M  V30 16685 C 1600.56 -6.14931 -1.16667 0
M  V30 16686 H 1600.79 -2.96475 0.221298 0
M  V30 16687 H 1598.33 -1.52631 0.23303 0
M  V30 16688 H 1600.29 -3.44824 -2.22726 0
M  V30 16689 H 1598.95 -2.28212 -2.15819 0
M  V30 16690 H 1598.14 -4.65288 -1.93708 0
M  V30 16691 H 1597.74 -3.70869 -0.48296 0
M  V30 16692 H 1600.03 -6.44688 -2.08286 0
M  V30 16693 H 1600.98 -7.04806 -0.682223 0
M  V30 16694 H 1601.38 -5.46601 -1.41024 0
M  V30 16695 N 1600.78 -0.180154 -1.56567 0
M  V30 16696 C 1601.71 0.77825 -2.15583 0
M  V30 16697 C 1602.73 1.18746 -1.1137 0
M  V30 16698 O 1603.92 1.12578 -1.38523 0
M  V30 16699 C 1601.02 2.06024 -2.69086 0
M  V30 16700 C 1600.19 1.8132 -3.98047 0
M  V30 16701 C 1599.25 2.93823 -4.36526 0
M  V30 16702 O 1598.27 2.64075 -5.04235 0
M  V30 16703 N 1599.48 4.21823 -3.98806 0
M  V30 16704 H 1602.24 0.273661 -2.98448 0
M  V30 16705 H 1599.8 0.00232952 -1.619 0
M  V30 16706 H 1601.79 2.80398 -2.9182 0
M  V30 16707 H 1600.36 2.47648 -1.9076 0
M  V30 16708 H 1599.58 0.908046 -3.83599 0
M  V30 16709 H 1600.87 1.62194 -4.82256 0
M  V30 16710 H 1600.27 4.48849 -3.44313 0
M  V30 16711 H 1598.83 4.92871 -4.26522 0
M  V30 16712 N 1602.26 1.57322 0.0935319 0
M  V30 16713 C 1603.51 1.86443 0.797919 0
M  V30 16714 C 1603.84 0.769491 1.78304 0
M  V30 16715 O 1603.11 -0.222383 1.93225 0
M  V30 16716 C 1603.4 3.26201 1.52528 0
M  V30 16717 C 1603.25 4.46325 0.558031 0
M  V30 16718 C 1604.57 3.63879 2.47548 0
M  V30 16719 H 1601.69 0.678136 0.288618 0
M  V30 16720 H 1604.33 1.899 0.0615161 0
M  V30 16721 H 1602.48 3.23385 2.15301 0
M  V30 16722 H 1604.15 4.61257 -0.0628154 0
M  V30 16723 H 1602.4 4.3361 -0.128462 0
M  V30 16724 H 1603.07 5.40845 1.10413 0
M  V30 16725 H 1605.54 3.6765 1.94866 0
M  V30 16726 H 1604.42 4.62598 2.95456 0
M  V30 16727 H 1604.68 2.92647 3.31376 0
M  V30 16728 N 1603.74 -0.364395 1.53329 0
M  V30 16729 C 1604.65 -1.47027 1.82812 0
M  V30 16730 C 1605.66 -1.58559 0.716598 0
M  V30 16731 O 1606.84 -1.7443 1.00678 0
M  V30 16732 C 1603.91 -2.82278 2.01295 0
M  V30 16733 C 1602.97 -2.80264 3.25193 0
M  V30 16734 C 1602.2 -4.09065 3.42785 0
M  V30 16735 O 1602.42 -5.0529 2.64648 0
M  V30 16736 O 1601.36 -4.14804 4.36144 0
M  V30 16737 H 1605.18 -1.25035 2.76767 0
M  V30 16738 H 1602.77 -0.554608 1.38724 0
M  V30 16739 H 1604.65 -3.62416 2.15017 0
M  V30 16740 H 1603.32 -3.04244 1.10531 0
M  V30 16741 H 1602.23 -1.9882 3.16893 0
M  V30 16742 H 1603.56 -2.63252 4.15884 0
M  V30 16743 N 1605.22 -1.44709 -0.62426 0
M  V30 16744 C 1606.44 -1.51573 -1.41564 0
M  V30 16745 C 1606.87 -0.143806 -1.87549 0
M  V30 16746 O 1606.22 0.868361 -1.59151 0
M  V30 16747 C 1606.27 -2.49085 -2.60747 0
M  V30 16748 O 1605.38 -1.99712 -3.60817 0
M  V30 16749 H 1604.72 -0.51157 -0.423311 0
M  V30 16750 H 1607.25 -1.89908 -0.761316 0
M  V30 16751 H 1607.26 -2.67346 -3.08205 0
M  V30 16752 H 1605.93 -3.48733 -2.26624 0
M  V30 16753 H 1604.51 -1.9125 -3.20122 0
M  V30 16754 N 1606.69 0.865285 -1.31722 0
M  V30 16755 C 1607.97 1.60146 -1.12306 0
M  V30 16756 C 1608.35 2.08653 0.320508 0
M  V30 16757 O 1607.7 1.86841 1.31539 0
M  V30 16758 C 1607.91 2.75583 -2.14138 0
M  V30 16759 C 1609.26 3.45429 -2.46909 0
M  V30 16760 O 1610.28 2.85795 -2.12602 0
M  V30 16761 O 1609.14 4.53017 -3.05676 0
M  V30 16762 H 1606.23 0.704786 -0.432673 0
M  V30 16763 H 1608.78 0.910339 -1.43216 0
M  V30 16764 H 1607.55 2.37187 -3.1122 0
M  V30 16765 H 1607.18 3.52378 -1.84161 0
M  V30 16766 N 1608.17 1.14759 1.0802 0
M  V30 16767 C 1609.45 0.828957 1.77166 0
M  V30 16768 C 1609.83 -0.676783 1.99957 0
M  V30 16769 O 1609.18 -1.61891 1.61256 0
M  V30 16770 C 1609.39 1.63213 3.08484 0
M  V30 16771 C 1610.74 1.834 3.82948 0
M  V30 16772 O 1611.76 1.59932 3.18277 0
M  V30 16773 O 1610.62 2.22661 4.99083 0
M  V30 16774 H 1607.71 0.304168 0.769032 0
M  V30 16775 H 1610.26 1.253 1.14446 0
M  V30 16776 H 1609.03 2.65474 2.8747 0
M  V30 16777 H 1608.65 1.20397 3.78933 0
M  V30 16778 N 1609.65 -1.26251 0.943322 0
M  V30 16779 C 1610.88 -1.97452 0.607969 0
M  V30 16780 C 1611.29 -1.70422 -0.82177 0
M  V30 16781 O 1610.63 -0.970323 -1.55982 0
M  V30 16782 C 1610.69 -3.51092 0.772938 0
M  V30 16783 C 1610.36 -4.01777 2.17771 0
M  V30 16784 C 1611.35 -4.1335 3.15338 0
M  V30 16785 C 1609.04 -4.35732 2.49886 0
M  V30 16786 C 1611.03 -4.58175 4.43119 0
M  V30 16787 C 1608.72 -4.80245 3.779 0
M  V30 16788 C 1609.72 -4.91427 4.74329 0
M  V30 16789 O 1609.41 -5.34958 6.00063 0
M  V30 16790 H 1609.14 -0.636465 0.227791 0
M  V30 16791 H 1611.69 -1.61671 1.26695 0
M  V30 16792 H 1609.92 -3.86658 0.0568252 0
M  V30 16793 H 1611.61 -4.03505 0.440326 0
M  V30 16794 H 1612.38 -3.87361 2.91851 0
M  V30 16795 H 1608.26 -4.26261 1.75563 0
M  V30 16796 H 1611.8 -4.66818 5.18389 0
M  V30 16797 H 1607.7 -5.05678 4.01198 0
M  V30 16798 H 1608.47 -5.53173 6.03276 0
M  V30 16799 N 1611.13 -0.710588 -1.40671 0
M  V30 16800 C 1612.38 -0.244967 -2.00207 0
M  V30 16801 C 1612.69 1.16693 -1.56978 0
M  V30 16802 O 1613.9 1.73081 -2.09177 0
M  V30 16803 C 1612.35 -0.387049 -3.57813 0
M  V30 16804 C 1611.96 -1.80527 -4.10017 0
M  V30 16805 C 1613.71 0.0180338 -4.24496 0
M  V30 16806 C 1611.61 -1.89821 -5.60109 0
M  V30 16807 H 1610.54 -0.087831 -0.748867 0
M  V30 16808 H 1613.19 -0.880956 -1.6097 0
M  V30 16809 H 1611.58 0.317442 -3.94726 0
M  V30 16810 H 1612.75 -2.53974 -3.84492 0
M  V30 16811 H 1611.06 -2.16137 -3.55913 0
M  V30 16812 H 1613.66 -0.0307544 -5.34691 0
M  V30 16813 H 1614 1.05915 -4.02601 0
M  V30 16814 H 1614.54 -0.63672 -3.92671 0
M  V30 16815 H 1611.28 -2.92036 -5.86852 0
M  V30 16816 H 1610.8 -1.20779 -5.87514 0
M  V30 16817 H 1612.48 -1.66801 -6.25129 0
M  V30 16818 N 1612.61 1.50847 -0.456408 0
M  V30 16819 C 1613.57 2.26755 0.33388 0
M  V30 16820 C 1614.57 1.30947 0.933247 0
M  V30 16821 O 1615.76 1.54499 0.804716 0
M  V30 16822 C 1612.89 3.07378 1.47417 0
M  V30 16823 H 1614.09 2.98061 -0.331634 0
M  V30 16824 H 1611.64 1.54882 -0.210067 0
M  V30 16825 H 1612.37 2.40534 2.17518 0
M  V30 16826 H 1612.16 3.7777 1.05036 0
M  V30 16827 H 1613.65 3.64826 2.03204 0
M  V30 16828 N 1614.09 0.188454 1.56469 0
M  V30 16829 C 1615.31 -0.457846 2.01771 0
M  V30 16830 C 1615.73 -1.55646 1.06863 0
M  V30 16831 O 1615.09 -1.82356 0.0723619 0
M  V30 16832 C 1615.14 -1.02032 3.46802 0
M  V30 16833 O 1614.86 0.0344536 4.38086 0
M  V30 16834 C 1616.36 -1.74316 4.07589 0
M  V30 16835 H 1613.58 -0.115594 0.660968 0
M  V30 16836 H 1616.12 0.295213 2.02358 0
M  V30 16837 H 1614.28 -1.7238 3.46935 0
M  V30 16838 H 1614.69 -0.383254 5.23098 0
M  V30 16839 H 1616.17 -2.08912 5.1094 0
M  V30 16840 H 1616.64 -2.64445 3.50665 0
M  V30 16841 H 1617.25 -1.0857 4.11209 0
M  V30 16842 N 1615.56 -1.5737 -0.0851874 0
M  V30 16843 C 1616.51 -2.03781 -1.12142 0
M  V30 16844 C 1617.51 -0.940669 -1.40882 0
M  V30 16845 O 1618.71 -1.12582 -1.40447 0
M  V30 16846 H 1615.09 -0.64956 -0.378914 0
M  V30 16847 H 1617.06 -2.89983 -0.703736 0
M  V30 16848 C 1615.81 -2.48628 -2.43062 0
M  V30 16849 H 1615.13 -3.32637 -2.21795 0
M  V30 16850 H 1616.57 -2.84869 -3.14048 0
M  V30 16851 C 1615.03 -1.36364 -3.08069 0
M  V30 16852 O 1615.56 -0.698273 -3.95584 0
M  V30 16853 N 1613.76 -1.11213 -2.68477 0
M  V30 16854 H 1613.31 -1.655 -1.97402 0
M  V30 16855 H 1613.27 -0.363003 -3.12297 0
M  V30 16856 N 1617.04 0.356258 -1.53521 0
M  V30 16857 C 1618.29 1.09573 -1.69818 0
M  V30 16858 C 1618.61 1.89559 -0.457406 0
M  V30 16859 O 1617.88 1.88633 0.528616 0
M  V30 16860 H 1616.46 0.407512 -0.626054 0
M  V30 16861 H 1619.12 0.400612 -1.90738 0
M  V30 16862 H 1618.22 1.7803 -2.56343 0
M  V30 16863 N 1618.52 1.45038 0.616577 0
M  V30 16864 C 1619.93 1.4316 1.19842 0
M  V30 16865 C 1620.28 0.154504 1.95591 0
M  V30 16866 O 1619.41 -0.744409 2.03193 0
M  V30 16867 C 1620 2.59354 2.17993 0
M  V30 16868 C 1618.56 2.60625 2.71573 0
M  V30 16869 C 1617.71 2.35243 1.4682 0
M  V30 16870 H 1620.66 1.53408 0.406402 0
M  V30 16871 H 1620.68 2.32939 3.00865 0
M  V30 16872 H 1620.19 3.52288 1.62833 0
M  V30 16873 H 1618.29 1.71672 3.30695 0
M  V30 16874 H 1618.41 3.59568 3.16619 0
M  V30 16875 H 1616.77 1.84622 1.75462 0
M  V30 16876 H 1617.55 3.3031 0.935414 0
M  V30 16877 N 1620 -0.858287 1.32179 0
M  V30 16878 C 1620.93 -1.98219 1.23415 0
M  V30 16879 C 1621.91 -1.69685 0.118779 0
M  V30 16880 O 1623.09 -1.91785 0.305342 0
M  V30 16881 C 1620.22 -3.33977 0.952725 0
M  V30 16882 C 1619.18 -3.76853 2.02894 0
M  V30 16883 C 1618.5 -5.10201 1.59999 0
M  V30 16884 C 1619.8 -3.92707 3.44352 0
M  V30 16885 H 1621.5 -2.05809 2.17446 0
M  V30 16886 H 1619.04 -0.988817 1.04682 0
M  V30 16887 H 1621 -4.12152 0.87798 0
M  V30 16888 H 1619.72 -3.26592 -0.023234 0
M  V30 16889 H 1618.38 -3.00926 2.09378 0
M  V30 16890 H 1618.03 -4.99268 0.61157 0
M  V30 16891 H 1617.73 -5.39859 2.32004 0
M  V30 16892 H 1619.25 -5.90873 1.53954 0
M  V30 16893 H 1620.67 -4.61246 3.40477 0
M  V30 16894 H 1619.06 -4.33779 4.14675 0
M  V30 16895 H 1620.13 -2.95731 3.8428 0
M  V30 16896 N 1621.48 -1.1533 -1.07409 0
M  V30 16897 C 1622.42 -0.849527 -2.14597 0
M  V30 16898 C 1623.39 0.197288 -1.64924 0
M  V30 16899 O 1624.58 0.0649694 -1.90689 0
M  V30 16900 C 1621.72 -0.344327 -3.43378 0
M  V30 16901 C 1620.83 -1.45264 -4.06844 0
M  V30 16902 C 1619.97 -0.90363 -5.23458 0
M  V30 16903 C 1619 -1.98892 -5.78885 0
M  V30 16904 N 1618.14 -1.45633 -6.8683 0
M  V30 16905 H 1622.98 -1.76753 -2.39922 0
M  V30 16906 H 1620.52 -0.881942 -1.17729 0
M  V30 16907 H 1622.48 -0.0331352 -4.17187 0
M  V30 16908 H 1621.11 0.536757 -3.18306 0
M  V30 16909 H 1620.16 -1.88003 -3.30695 0
M  V30 16910 H 1621.47 -2.27207 -4.44048 0
M  V30 16911 H 1620.62 -0.544945 -6.04248 0
M  V30 16912 H 1619.36 -0.0533648 -4.87671 0
M  V30 16913 H 1618.37 -2.35644 -4.96741 0
M  V30 16914 H 1619.59 -2.84295 -6.16728 0
M  V30 16915 H 1617.54 -0.628417 -6.52983 0
M  V30 16916 H 1617.46 -2.21204 -7.22914 0
M  V30 16917 H 1618.72 -1.12587 -7.71326 0
M  V30 16918 N 1622.95 1.25748 -0.950004 0
M  V30 16919 C 1624.2 1.93622 -0.603186 0
M  V30 16920 C 1624.53 1.74271 0.856925 0
M  V30 16921 O 1623.81 1.08502 1.61423 0
M  V30 16922 C 1624.09 3.4715 -0.957024 0
M  V30 16923 C 1623.94 3.75747 -2.47253 0
M  V30 16924 C 1625.26 4.37488 -0.478754 0
M  V30 16925 H 1622.38 0.703206 -0.220612 0
M  V30 16926 H 1625.02 1.48453 -1.18582 0
M  V30 16927 H 1623.17 3.85753 -0.46122 0
M  V30 16928 H 1624.85 3.46808 -3.04174 0
M  V30 16929 H 1623.09 3.21516 -2.91222 0
M  V30 16930 H 1623.76 4.83097 -2.67061 0
M  V30 16931 H 1626.24 4.06162 -0.903987 0
M  V30 16932 H 1625.11 5.43682 -0.755073 0
M  V30 16933 H 1625.37 4.37712 0.621303 0
M  V30 16934 N 1624.43 0.718038 1.40292 0
M  V30 16935 C 1625.68 0.258092 2.00445 0
M  V30 16936 C 1626 -1.15347 1.57226 0
M  V30 16937 O 1625.27 -1.78241 0.812822 0
M  V30 16938 H 1623.85 0.0924316 0.741259 0
M  V30 16939 H 1626.51 0.924216 1.71593 0
M  V30 16940 H 1625.61 0.293113 3.10721 0
M  V30 16941 N 1625.91 -1.50602 0.464402 0
M  V30 16942 C 1627.16 -2.01887 -0.0927084 0
M  V30 16943 C 1627.48 -1.34891 -1.40817 0
M  V30 16944 O 1626.75 -0.492078 -1.89619 0
M  V30 16945 H 1625.33 -0.746071 -0.0372514 0
M  V30 16946 H 1627.99 -1.84999 0.613296 0
M  V30 16947 H 1627.09 -3.11105 -0.249067 0
M  V30 16948 N 1627.39 -0.19675 -1.56367 0
M  V30 16949 C 1628.61 0.450245 -2.02454 0
M  V30 16950 C 1629.04 1.54287 -1.07597 0
M  V30 16951 O 1628.4 1.81202 -0.0597529 0
M  V30 16952 C 1628.44 0.982087 -3.46969 0
M  V30 16953 O 1627.55 2.09489 -3.5523 0
M  V30 16954 H 1626.89 0.105022 -0.655642 0
M  V30 16955 H 1629.42 -0.308112 -2.02267 0
M  V30 16956 H 1629.43 1.29826 -3.86793 0
M  V30 16957 H 1628.1 0.18224 -4.15501 0
M  V30 16958 H 1626.68 1.78723 -3.27281 0
M  V30 16959 N 1628.87 1.57413 0.0768405 0
M  V30 16960 C 1630.11 1.88835 0.78235 0
M  V30 16961 C 1630.47 0.789942 1.74997 0
M  V30 16962 O 1631.67 0.987092 2.5002 0
M  V30 16963 C 1629.94 3.25491 1.47616 0
M  V30 16964 S 1631.5 3.78649 2.21743 0
M  V30 16965 H 1628.32 0.661649 0.260272 0
M  V30 16966 H 1630.92 1.95462 0.0386596 0
M  V30 16967 H 1629.63 4.03338 0.758047 0
M  V30 16968 H 1629.16 3.22049 2.25938 0
M  V30 16969 H 1631.17 3.53531 3.48182 0
M  V30 16970 N 1630.34 -0.348112 1.53707 0
M  V30 16971 C 1631.59 -1.09048 1.70987 0
M  V30 16972 C 1631.92 -1.88444 0.469305 0
M  V30 16973 O 1631.2 -1.87037 -0.533629 0
M  V30 16974 C 1631.48 -2.03542 2.97057 0
M  V30 16975 C 1631.33 -1.27638 4.3131 0
M  V30 16976 C 1632.65 -3.03424 3.18782 0
M  V30 16977 H 1629.77 -0.395049 0.622178 0
M  V30 16978 H 1632.41 -0.369498 1.86373 0
M  V30 16979 H 1630.56 -2.65021 2.8407 0
M  V30 16980 H 1632.24 -0.688079 4.56139 0
M  V30 16981 H 1630.48 -0.578349 4.29927 0
M  V30 16982 H 1631.15 -1.96891 5.15692 0
M  V30 16983 H 1633.63 -2.52056 3.31069 0
M  V30 16984 H 1632.5 -3.66748 4.08396 0
M  V30 16985 H 1632.76 -3.74553 2.34866 0
M  V30 16986 N 1631.82 -1.45363 -0.608876 0
M  V30 16987 C 1632.75 -1.56778 -1.7304 0
M  V30 16988 C 1633.73 -0.419405 -1.64848 0
M  V30 16989 O 1634.92 -0.64238 -1.83268 0
M  V30 16990 C 1632.05 -1.5329 -3.1164 0
M  V30 16991 C 1631 -2.66832 -3.34641 0
M  V30 16992 C 1630.33 -2.48398 -4.735 0
M  V30 16993 C 1631.63 -4.0885 -3.25021 0
M  V30 16994 H 1633.32 -2.50656 -1.63743 0
M  V30 16995 H 1630.87 -1.20635 -0.786338 0
M  V30 16996 H 1632.82 -1.59873 -3.89895 0
M  V30 16997 H 1631.55 -0.559414 -3.21773 0
M  V30 16998 H 1630.2 -2.59675 -2.58775 0
M  V30 16999 H 1629.85 -1.49191 -4.80366 0
M  V30 17000 H 1629.55 -3.24537 -4.89846 0
M  V30 17001 H 1631.08 -2.56833 -5.53958 0
M  V30 17002 H 1632.49 -4.17257 -3.93153 0
M  V30 17003 H 1630.89 -4.85369 -3.52897 0
M  V30 17004 H 1631.96 -4.30849 -2.2248 0
M  V30 17005 N 1633.3 0.851265 -1.32632 0
M  V30 17006 C 1634.53 1.64328 -1.26535 0
M  V30 17007 C 1634.95 1.87392 0.163086 0
M  V30 17008 O 1634.31 1.42913 1.1156 0
M  V30 17009 C 1634.36 2.97781 -2.03369 0
M  V30 17010 O 1633.46 3.8849 -1.38381 0
M  V30 17011 H 1632.8 0.500864 -0.435926 0
M  V30 17012 H 1635.33 1.06 -1.75001 0
M  V30 17013 H 1635.34 3.47576 -2.1367 0
M  V30 17014 H 1634.02 2.80316 -3.07239 0
M  V30 17015 H 1632.59 3.4696 -1.36649 0
M  V30 17016 N 1634.78 1.15898 1.06796 0
M  V30 17017 C 1636.03 0.935488 1.79145 0
M  V30 17018 C 1636.35 -0.538433 1.87419 0
M  V30 17019 O 1635.62 -1.39124 1.37917 0
M  V30 17020 H 1634.2 0.343123 0.663533 0
M  V30 17021 H 1636.86 1.4607 1.29034 0
M  V30 17022 H 1635.96 1.34978 2.81402 0
M  V30 17023 N 1636.26 -1.25243 0.956659 0
M  V30 17024 C 1637.21 -2.23532 0.449171 0
M  V30 17025 C 1638.19 -1.54103 -0.462715 0
M  V30 17026 O 1639.38 -1.74517 -0.295436 0
M  V30 17027 C 1636.51 -3.42237 -0.269892 0
M  V30 17028 C 1635.6 -4.1893 0.660181 0
M  V30 17029 N 1635.99 -4.72965 1.7927 0
M  V30 17030 C 1634.29 -4.4353 0.468779 0
M  V30 17031 C 1634.99 -5.31072 2.37355 0
M  V30 17032 N 1633.96 -5.17638 1.65986 0
M  V30 17033 H 1637.77 -2.62918 1.31345 0
M  V30 17034 H 1635.28 -1.40504 0.814394 0
M  V30 17035 H 1637.28 -4.11792 -0.650604 0
M  V30 17036 H 1635.94 -3.04375 -1.13075 0
M  V30 17037 H 1636.95 -4.70038 2.17451 0
M  V30 17038 H 1633.62 -4.16038 -0.349031 0
M  V30 17039 H 1635.01 -5.83654 3.32863 0
M  V30 17040 N 1637.73 -0.725468 -1.3991 0
M  V30 17041 C 1638.68 -0.0682776 -2.325 0
M  V30 17042 C 1639.68 0.736285 -1.52562 0
M  V30 17043 O 1640.88 0.638542 -1.68293 0
M  V30 17044 H 1637.26 -0.00327742 -0.751993 0
M  V30 17045 H 1639.23 -0.865735 -2.85565 0
M  V30 17046 C 1637.98 0.832036 -3.37598 0
M  V30 17047 H 1637.3 0.222341 -3.99181 0
M  V30 17048 H 1638.74 1.25965 -4.04856 0
M  V30 17049 C 1637.2 1.96201 -2.73874 0
M  V30 17050 O 1637.73 3.05378 -2.60974 0
M  V30 17051 N 1635.94 1.74857 -2.32106 0
M  V30 17052 H 1635.48 0.860621 -2.42798 0
M  V30 17053 H 1635.44 2.50639 -1.89808 0
M  V30 17054 N 1639.21 1.50354 -0.472382 0
M  V30 17055 C 1640.14 2.3142 0.310995 0
M  V30 17056 C 1641.12 1.38383 0.989151 0
M  V30 17057 O 1642.31 1.67303 0.986074 0
M  V30 17058 C 1639.44 3.18157 1.3926 0
M  V30 17059 C 1638.39 4.19756 0.835977 0
M  V30 17060 C 1637.72 4.9524 2.01597 0
M  V30 17061 C 1639.02 5.22074 -0.15361 0
M  V30 17062 H 1640.71 2.97159 -0.365595 0
M  V30 17063 H 1638.26 1.42905 -0.177266 0
M  V30 17064 H 1640.21 3.73666 1.94813 0
M  V30 17065 H 1638.94 2.50305 2.09798 0
M  V30 17066 H 1637.59 3.65351 0.302414 0
M  V30 17067 H 1637.24 4.2386 2.70836 0
M  V30 17068 H 1636.94 5.63966 1.64974 0
M  V30 17069 H 1638.47 5.53584 2.57637 0
M  V30 17070 H 1639.88 5.72446 0.312783 0
M  V30 17071 H 1638.28 5.98527 -0.43418 0
M  V30 17072 H 1639.35 4.72741 -1.07908 0
M  V30 17073 N 1640.69 0.205039 1.56261 0
M  V30 17074 C 1641.65 -0.698166 2.18308 0
M  V30 17075 C 1642.65 -1.13376 1.14029 0
M  V30 17076 O 1643.84 -1.04524 1.39357 0
M  V30 17077 C 1640.98 -1.95438 2.79315 0
M  V30 17078 H 1642.17 -0.157462 2.99486 0
M  V30 17079 H 1639.72 -0.0445849 1.56236 0
M  V30 17080 H 1640.46 -2.53736 2.01962 0
M  V30 17081 H 1640.24 -1.65068 3.55662 0
M  V30 17082 H 1641.73 -2.59824 3.26927 0
M  V30 17083 N 1642.17 -1.57451 -0.0684915 0
M  V30 17084 C 1643.12 -2.03916 -1.08105 0
M  V30 17085 C 1644.09 -0.920418 -1.38266 0
M  V30 17086 O 1645.27 -1.18831 -1.49277 0
M  V30 17087 C 1642.41 -2.49075 -2.38863 0
M  V30 17088 C 1641.52 -3.74581 -2.15204 0
M  V30 17089 C 1640.66 -4.08509 -3.39549 0
M  V30 17090 C 1639.7 -5.27046 -3.11269 0
M  V30 17091 N 1638.84 -5.56597 -4.27954 0
M  V30 17092 H 1643.68 -2.90188 -0.677843 0
M  V30 17093 H 1641.21 -1.43507 -0.32313 0
M  V30 17094 H 1643.17 -2.7331 -3.1521 0
M  V30 17095 H 1641.8 -1.65776 -2.76981 0
M  V30 17096 H 1640.85 -3.57666 -1.29535 0
M  V30 17097 H 1642.16 -4.61065 -1.90317 0
M  V30 17098 H 1641.32 -4.33663 -4.24289 0
M  V30 17099 H 1640.06 -3.20599 -3.67515 0
M  V30 17100 H 1639.06 -5.01686 -2.24926 0
M  V30 17101 H 1640.29 -6.16577 -2.84622 0
M  V30 17102 H 1638.23 -4.71646 -4.55945 0
M  V30 17103 H 1638.15 -6.37506 -4.06352 0
M  V30 17104 H 1639.42 -5.86303 -5.13681 0
M  V30 17105 N 1643.65 0.339955 -1.5389 0
M  V30 17106 C 1644.6 1.41838 -1.78511 0
M  V30 17107 C 1645.58 1.47604 -0.640447 0
M  V30 17108 O 1646.77 1.52414 -0.899951 0
M  V30 17109 C 1643.9 2.78929 -2.00134 0
M  V30 17110 C 1642.99 2.7754 -3.20675 0
M  V30 17111 N 1643.38 2.45779 -4.42071 0
M  V30 17112 C 1641.68 3.08684 -3.21917 0
M  V30 17113 C 1642.38 2.52714 -5.23938 0
M  V30 17114 N 1641.35 2.88484 -4.60736 0
M  V30 17115 H 1645.16 1.16185 -2.6996 0
M  V30 17116 H 1642.67 0.548339 -1.52863 0
M  V30 17117 H 1644.67 3.56637 -2.15907 0
M  V30 17118 H 1643.33 3.05525 -1.09929 0
M  V30 17119 H 1644.34 2.18913 -4.69358 0
M  V30 17120 H 1641.02 3.40429 -2.41691 0
M  V30 17121 H 1642.41 2.31287 -6.30838 0
M  V30 17122 N 1645.13 1.45684 0.601159 0
M  V30 17123 C 1646.37 1.51581 1.37123 0
M  V30 17124 C 1646.73 0.156185 1.91364 0
M  V30 17125 O 1647.93 0.0898599 2.6865 0
M  V30 17126 C 1646.2 2.56989 2.48378 0
M  V30 17127 S 1647.76 2.82158 3.36054 0
M  V30 17128 H 1644.58 0.53577 0.46741 0
M  V30 17129 H 1647.18 1.82805 0.693012 0
M  V30 17130 H 1645.88 3.54436 2.0689 0
M  V30 17131 H 1645.42 2.27437 3.20992 0
M  V30 17132 H 1647.43 2.16025 4.46708 0
M  V30 17133 N 1646.6 -0.84422 1.33082 0
M  V30 17134 C 1647.53 -1.96899 1.25511 0
M  V30 17135 C 1648.51 -1.69549 0.13677 0
M  V30 17136 O 1649.7 -1.9145 0.325667 0
M  V30 17137 C 1646.83 -3.32947 0.988094 0
M  V30 17138 C 1645.78 -3.7468 2.06879 0
M  V30 17139 C 1645.11 -5.08475 1.65401 0
M  V30 17140 C 1646.41 -3.89033 3.48498 0
M  V30 17141 H 1648.1 -2.03491 2.19617 0
M  V30 17142 H 1645.65 -0.977659 1.05725 0
M  V30 17143 H 1647.6 -4.11198 0.921645 0
M  V30 17144 H 1646.33 -3.26598 0.0114067 0
M  V30 17145 H 1644.99 -2.98689 2.12557 0
M  V30 17146 H 1644.63 -4.98592 0.66449 0
M  V30 17147 H 1644.33 -5.37368 2.37717 0
M  V30 17148 H 1645.86 -5.89207 1.60212 0
M  V30 17149 H 1647.27 -4.57609 3.4535 0
M  V30 17150 H 1645.67 -4.29357 4.19253 0
M  V30 17151 H 1646.74 -2.91639 3.87395 0
M  V30 17152 N 1648.08 -1.16463 -1.0618 0
M  V30 17153 C 1649.03 -0.840506 -2.11942 0
M  V30 17154 C 1650.02 0.180553 -1.59884 0
M  V30 17155 O 1651.21 -0.0204411 -1.76988 0
M  V30 17156 C 1648.34 -0.344603 -3.41566 0
M  V30 17157 C 1647.42 -1.39651 -4.00448 0
M  V30 17158 N 1647.81 -2.60722 -4.33426 0
M  V30 17159 C 1646.11 -1.25203 -4.28066 0
M  V30 17160 C 1646.81 -3.28236 -4.80246 0
M  V30 17161 N 1645.79 -2.55616 -4.79751 0
M  V30 17162 H 1649.59 -1.76116 -2.35288 0
M  V30 17163 H 1647.1 -1.05185 -1.23733 0
M  V30 17164 H 1649.1 -0.0939984 -4.16794 0
M  V30 17165 H 1647.76 0.569968 -3.19658 0
M  V30 17166 H 1648.77 -2.97769 -4.23738 0
M  V30 17167 H 1645.45 -0.39831 -4.15596 0
M  V30 17168 H 1646.84 -4.31589 -5.14957 0
M  V30 17169 N 1649.56 1.24734 -0.963288 0
M  V30 17170 C 1650.81 1.92971 -0.623688 0
M  V30 17171 C 1651.14 1.7517 0.838393 0
M  V30 17172 O 1650.41 1.10208 1.60264 0
M  V30 17173 C 1650.7 3.46115 -0.99379 0
M  V30 17174 C 1650.55 3.73104 -2.51224 0
M  V30 17175 C 1651.87 4.36956 -0.525128 0
M  V30 17176 H 1648.99 0.700827 -0.228058 0
M  V30 17177 H 1651.63 1.47187 -1.2015 0
M  V30 17178 H 1649.78 3.85242 -0.502108 0
M  V30 17179 H 1651.45 3.43563 -3.07835 0
M  V30 17180 H 1649.69 3.18409 -2.94616 0
M  V30 17181 H 1650.37 4.80237 -2.7217 0
M  V30 17182 H 1652.84 4.0518 -0.947015 0
M  V30 17183 H 1651.72 5.4285 -0.812695 0
M  V30 17184 H 1651.98 4.38347 0.574843 0
M  V30 17185 N 1651.04 0.732878 1.39523 0
M  V30 17186 C 1652.28 0.280305 2.00854 0
M  V30 17187 C 1652.62 -1.12891 1.58017 0
M  V30 17188 O 1651.89 -1.76919 0.808086 0
M  V30 17189 C 1652.17 0.37978 3.58092 0
M  V30 17190 C 1652.03 1.82861 4.10953 0
M  V30 17191 C 1653.35 -0.239026 4.3945 0
M  V30 17192 H 1650.47 0.103326 0.729721 0
M  V30 17193 H 1653.11 0.928634 1.6576 0
M  V30 17194 H 1651.26 -0.172198 3.88118 0
M  V30 17195 H 1652.93 2.4373 3.91655 0
M  V30 17196 H 1651.17 2.35064 3.64592 0
M  V30 17197 H 1651.84 1.84949 5.20094 0
M  V30 17198 H 1654.32 0.231488 4.15456 0
M  V30 17199 H 1653.2 -0.139068 5.48724 0
M  V30 17200 H 1653.46 -1.32481 4.21783 0
M  V30 17201 N 1652.52 -1.50101 0.480349 0
M  V30 17202 C 1653.76 -2.01974 -0.0712904 0
M  V30 17203 C 1654.08 -1.36377 -1.39378 0
M  V30 17204 O 1653.35 -0.512162 -1.89087 0
M  V30 17205 H 1651.93 -0.746424 -0.0293362 0
M  V30 17206 H 1654.6 -1.84338 0.632883 0
M  V30 17207 H 1653.69 -3.11351 -0.216057 0
M  V30 17208 N 1653.99 -0.213323 -1.5615 0
M  V30 17209 C 1655.4 0.29602 -1.84338 0
M  V30 17210 C 1655.76 1.60073 -1.13451 0
M  V30 17211 O 1654.88 2.12645 -0.4014 0
M  V30 17212 C 1655.48 0.54387 -3.34406 0
M  V30 17213 C 1654.03 0.997539 -3.62941 0
M  V30 17214 C 1653.18 0.0560823 -2.77243 0
M  V30 17215 H 1656.13 -0.436707 -1.52573 0
M  V30 17216 H 1656.15 1.39093 -3.54166 0
M  V30 17217 H 1655.67 -0.405885 -3.85972 0
M  V30 17218 H 1653.77 1.96094 -3.16825 0
M  V30 17219 H 1653.88 0.877642 -4.70993 0
M  V30 17220 H 1652.24 0.561362 -2.48437 0
M  V30 17221 H 1653.03 -0.888442 -3.31605 0
M  V30 17222 N 1655.47 1.57485 0.0601405 0
M  V30 17223 C 1656.42 2.0554 1.08886 0
M  V30 17224 C 1657.41 0.962963 1.39368 0
M  V30 17225 O 1658.62 1.14802 1.38638 0
M  V30 17226 H 1655 0.655506 0.368532 0
M  V30 17227 H 1656.97 2.91066 0.657513 0
M  V30 17228 C 1655.72 2.52464 2.39076 0
M  V30 17229 H 1655.04 3.36123 2.16475 0
M  V30 17230 H 1656.48 2.89829 3.09476 0
M  V30 17231 C 1654.94 1.41248 3.05861 0
M  V30 17232 O 1655.47 0.761119 3.94423 0
M  V30 17233 N 1653.67 1.1547 2.66674 0
M  V30 17234 H 1653.22 1.6862 1.94744 0
M  V30 17235 H 1653.18 0.412641 3.1168 0
M  V30 17236 N 1656.95 -0.331789 1.54068 0
M  V30 17237 C 1658.2 -1.07228 1.72134 0
M  V30 17238 C 1658.53 -1.87936 0.489265 0
M  V30 17239 O 1657.8 -1.87592 -0.513761 0
M  V30 17240 C 1658.09 -2.00379 2.99199 0
M  V30 17241 C 1657.94 -1.23056 4.3264 0
M  V30 17242 C 1659.26 -3.00026 3.21982 0
M  V30 17243 H 1656.38 -0.388428 0.626333 0
M  V30 17244 H 1659.02 -0.34971 1.86754 0
M  V30 17245 H 1657.17 -2.61993 2.86865 0
M  V30 17246 H 1658.84 -0.639661 4.56844 0
M  V30 17247 H 1657.09 -0.532717 4.30517 0
M  V30 17248 H 1657.76 -1.91411 5.17751 0
M  V30 17249 H 1660.23 -2.48531 3.33724 0
M  V30 17250 H 1659.11 -3.62395 4.12263 0
M  V30 17251 H 1659.37 -3.72041 2.38826 0
M  V30 17252 N 1658.43 -1.46001 -0.593424 0
M  V30 17253 C 1659.38 -1.56106 -1.72434 0
M  V30 17254 C 1660.37 -0.430155 -1.63848 0
M  V30 17255 O 1661.58 -0.606618 -1.6947 0
M  V30 17256 H 1657.95 -0.490601 -0.569925 0
M  V30 17257 H 1659.92 -2.51214 -1.6104 0
M  V30 17258 C 1658.67 -1.55836 -3.10822 0
M  V30 17259 H 1657.99 -2.42189 -3.18095 0
M  V30 17260 H 1659.43 -1.66962 -3.89743 0
M  V30 17261 C 1657.89 -0.285146 -3.35691 0
M  V30 17262 O 1658.42 0.629115 -3.96743 0
M  V30 17263 N 1656.63 -0.176401 -2.90064 0
M  V30 17264 H 1656.18 -0.921281 -2.40562 0
M  V30 17265 H 1656.13 0.674636 -3.07077 0
M  V30 17266 N 1659.91 0.83715 -1.33527 0
M  V30 17267 C 1660.85 1.94709 -1.23924 0
M  V30 17268 C 1661.82 1.65684 -0.117494 0
M  V30 17269 O 1663.01 1.88489 -0.296057 0
M  V30 17270 C 1660.15 3.3071 -0.986146 0
M  V30 17271 C 1659.26 3.72121 -2.19432 0
M  V30 17272 C 1658.4 4.96999 -1.87524 0
M  V30 17273 C 1657.44 5.3095 -3.04563 0
M  V30 17274 N 1656.57 6.47006 -2.72632 0
M  V30 17275 H 1661.41 2.02255 -2.18854 0
M  V30 17276 H 1658.95 0.989703 -1.08827 0
M  V30 17277 H 1660.91 4.09065 -0.819834 0
M  V30 17278 H 1659.54 3.22716 -0.0735786 0
M  V30 17279 H 1658.59 2.89274 -2.47032 0
M  V30 17280 H 1659.9 3.93192 -3.06923 0
M  V30 17281 H 1659.06 5.83107 -1.67546 0
M  V30 17282 H 1657.79 4.77901 -0.972714 0
M  V30 17283 H 1656.8 4.43346 -3.25153 0
M  V30 17284 H 1658.02 5.51995 -3.95573 0
M  V30 17285 H 1655.97 6.29391 -1.8494 0
M  V30 17286 H 1655.89 6.6818 -3.53654 0
M  V30 17287 H 1657.16 7.3622 -2.56125 0
M  V30 17288 N 1661.38 1.17024 1.05561 0
M  V30 17289 C 1662.63 0.954436 1.78143 0
M  V30 17290 C 1662.95 -0.518525 1.8798 0
M  V30 17291 O 1662.22 -1.37654 1.39385 0
M  V30 17292 H 1660.8 0.350141 0.659856 0
M  V30 17293 H 1663.47 1.4743 1.27477 0
M  V30 17294 H 1662.56 1.37955 2.79955 0
M  V30 17295 N 1662.86 -1.24221 0.969889 0
M  V30 17296 C 1663.77 -2.29001 0.509467 0
M  V30 17297 C 1664.79 -1.68587 -0.430637 0
M  V30 17298 O 1665.96 -1.99106 -0.303142 0
M  V30 17299 C 1663.03 -3.46174 -0.190906 0
M  V30 17300 C 1662.09 -4.21982 0.789296 0
M  V30 17301 C 1661.32 -5.3356 0.122252 0
M  V30 17302 O 1661.55 -5.59909 -1.08896 0
M  V30 17303 O 1660.48 -5.9635 0.815517 0
M  V30 17304 H 1664.31 -2.70506 1.38058 0
M  V30 17305 H 1661.89 -1.29955 0.737028 0
M  V30 17306 H 1663.77 -4.1733 -0.584244 0
M  V30 17307 H 1662.45 -3.06642 -1.03695 0
M  V30 17308 H 1661.36 -3.53192 1.23313 0
M  V30 17309 H 1662.69 -4.65337 1.60382 0
M  V30 17310 N 1664.34 -0.740267 -1.39132 0
M  V30 17311 C 1665.62 -0.216602 -1.94397 0
M  V30 17312 C 1666 1.28264 -1.67665 0
M  V30 17313 O 1665.35 2.05075 -1.00778 0
M  V30 17314 C 1665.56 -0.555899 -3.44544 0
M  V30 17315 C 1666.9 -0.50815 -4.21548 0
M  V30 17316 O 1667.93 -0.493401 -3.52766 0
M  V30 17317 O 1666.79 -0.507321 -5.4414 0
M  V30 17318 H 1663.88 -0.0413037 -0.825968 0
M  V30 17319 H 1666.43 -0.819483 -1.48602 0
M  V30 17320 H 1665.2 -1.59187 -3.57457 0
M  V30 17321 H 1664.82 0.0756793 -3.97528 0
M  V30 17322 N 1665.82 1.49844 -0.488302 0
M  V30 17323 C 1667.07 2.01603 0.0624744 0
M  V30 17324 C 1667.38 1.37397 1.39217 0
M  V30 17325 O 1668.59 1.8041 2.0289 0
M  V30 17326 C 1667.04 3.59536 0.161824 0
M  V30 17327 C 1666.65 4.32709 -1.16047 0
M  V30 17328 C 1668.39 4.1928 0.663642 0
M  V30 17329 C 1666.3 5.82468 -1.02397 0
M  V30 17330 H 1665.23 0.753512 0.0271222 0
M  V30 17331 H 1667.88 1.72499 -0.625805 0
M  V30 17332 H 1666.26 3.85301 0.914273 0
M  V30 17333 H 1667.44 4.18655 -1.92522 0
M  V30 17334 H 1665.75 3.84652 -1.59473 0
M  V30 17335 H 1668.35 5.28935 0.783069 0
M  V30 17336 H 1668.69 3.81801 1.65933 0
M  V30 17337 H 1669.23 3.97787 -0.0319078 0
M  V30 17338 H 1665.97 6.2445 -1.99355 0
M  V30 17339 H 1665.49 5.9905 -0.299902 0
M  V30 17340 H 1667.16 6.43229 -0.697538 0
M  V30 17341 N 1667.3 0.221601 1.56034 0
M  V30 17342 C 1668.23 -0.720818 2.1757 0
M  V30 17343 C 1669.24 -1.15751 1.14479 0
M  V30 17344 O 1670.43 -1.08865 1.41459 0
M  V30 17345 C 1667.53 -1.98817 2.74454 0
M  V30 17346 C 1666.7 -1.70703 4.02715 0
M  V30 17347 C 1665.76 -2.82146 4.44162 0
M  V30 17348 O 1664.79 -2.50614 5.11059 0
M  V30 17349 N 1665.99 -4.11101 4.09849 0
M  V30 17350 H 1668.76 -0.194436 2.99069 0
M  V30 17351 H 1666.32 0.0405962 1.61849 0
M  V30 17352 H 1668.31 -2.72562 2.99152 0
M  V30 17353 H 1666.88 -2.42503 1.97258 0
M  V30 17354 H 1666.1 -0.806022 3.85872 0
M  V30 17355 H 1667.39 -1.49351 4.86387 0
M  V30 17356 H 1666.78 -4.39562 3.56092 0
M  V30 17357 H 1665.34 -4.81389 4.3944 0
M  V30 17358 N 1668.77 -1.57515 -0.0517878 0
M  V30 17359 C 1669.7 -2.0809 -1.05929 0
M  V30 17360 C 1670.69 -0.978529 -1.39136 0
M  V30 17361 O 1671.87 -1.25245 -1.48416 0
M  V30 17362 C 1669 -2.54147 -2.36699 0
M  V30 17363 C 1667.95 -3.68442 -2.17794 0
M  V30 17364 C 1667.28 -4.00624 -3.54125 0
M  V30 17365 C 1668.58 -4.97743 -1.5827 0
M  V30 17366 H 1670.27 -2.92515 -0.638371 0
M  V30 17367 H 1667.82 -1.40719 -0.305625 0
M  V30 17368 H 1669.77 -2.88145 -3.07491 0
M  V30 17369 H 1668.5 -1.66775 -2.80809 0
M  V30 17370 H 1667.16 -3.34758 -1.4944 0
M  V30 17371 H 1666.8 -3.10353 -3.95841 0
M  V30 17372 H 1666.5 -4.77597 -3.42308 0
M  V30 17373 H 1668.03 -4.37136 -4.26315 0
M  V30 17374 H 1669.44 -5.29843 -2.18951 0
M  V30 17375 H 1667.84 -5.79173 -1.57094 0
M  V30 17376 H 1668.91 -4.81815 -0.546127 0
M  V30 17377 N 1670.25 0.323614 -1.54242 0
M  V30 17378 C 1671.18 1.40344 -1.86616 0
M  V30 17379 C 1672.16 1.53972 -0.722963 0
M  V30 17380 O 1673.35 1.67852 -0.976692 0
M  V30 17381 C 1670.48 2.77112 -2.09347 0
M  V30 17382 C 1669.43 2.78273 -3.25189 0
M  V30 17383 C 1668.76 4.18116 -3.33291 0
M  V30 17384 C 1670.06 2.42025 -4.6284 0
M  V30 17385 H 1671.75 1.13499 -2.77053 0
M  V30 17386 H 1669.3 0.544553 -1.33306 0
M  V30 17387 H 1671.25 3.52719 -2.3058 0
M  V30 17388 H 1669.98 3.05435 -1.1566 0
M  V30 17389 H 1668.64 2.05121 -3.03844 0
M  V30 17390 H 1668.28 4.4358 -2.37163 0
M  V30 17391 H 1667.98 4.19799 -4.11147 0
M  V30 17392 H 1669.51 4.95536 -3.56758 0
M  V30 17393 H 1670.92 3.07346 -4.83954 0
M  V30 17394 H 1669.32 2.5496 -5.43245 0
M  V30 17395 H 1670.39 1.37175 -4.65092 0
M  V30 17396 N 1671.73 1.46313 0.585673 0
M  V30 17397 C 1672.68 1.56653 1.69495 0
M  V30 17398 C 1673.65 0.411007 1.60935 0
M  V30 17399 O 1674.83 0.627369 1.80191 0
M  V30 17400 C 1671.97 1.55996 3.0783 0
M  V30 17401 C 1671.09 2.82261 3.27036 0
M  V30 17402 C 1670.22 2.73129 4.55603 0
M  V30 17403 C 1669.26 3.94346 4.68143 0
M  V30 17404 N 1668.4 3.83617 5.88032 0
M  V30 17405 H 1673.24 2.51407 1.59995 0
M  V30 17406 H 1670.77 1.24729 0.779821 0
M  V30 17407 H 1672.73 1.53602 3.87895 0
M  V30 17408 H 1671.36 0.647766 3.16234 0
M  V30 17409 H 1670.41 2.94648 2.40596 0
M  V30 17410 H 1671.73 3.72107 3.32171 0
M  V30 17411 H 1670.88 2.68823 5.43893 0
M  V30 17412 H 1669.62 1.80917 4.52902 0
M  V30 17413 H 1668.62 3.98987 3.78272 0
M  V30 17414 H 1669.85 4.8765 4.72625 0
M  V30 17415 H 1667.8 2.9419 5.86334 0
M  V30 17416 H 1667.71 4.67117 5.94422 0
M  V30 17417 H 1668.98 3.83281 6.7876 0
M  V30 17418 N 1673.21 -0.830057 1.33969 0
M  V30 17419 C 1674.43 -1.62294 1.29133 0
M  V30 17420 C 1674.86 -1.87627 -0.133253 0
M  V30 17421 O 1674.22 -1.44669 -1.09272 0
M  V30 17422 C 1674.27 -2.94508 2.0808 0
M  V30 17423 O 1673.37 -3.86239 1.44544 0
M  V30 17424 H 1672.71 -0.493865 0.443839 0
M  V30 17425 H 1675.24 -1.03202 1.76665 0
M  V30 17426 H 1675.25 -3.44133 2.19173 0
M  V30 17427 H 1673.93 -2.75392 3.1166 0
M  V30 17428 H 1672.5 -3.44743 1.42151 0
M  V30 17429 N 1674.69 -1.17582 -1.04939 0
M  V30 17430 C 1675.65 -0.897095 -2.10914 0
M  V30 17431 C 1676.65 0.113823 -1.60397 0
M  V30 17432 O 1677.84 -0.118635 -1.73796 0
M  V30 17433 C 1674.97 -0.344251 -3.39157 0
M  V30 17434 H 1676.17 -1.83674 -2.37074 0
M  V30 17435 H 1673.72 -0.986634 -1.21224 0
M  V30 17436 H 1674.45 0.602417 -3.18656 0
M  V30 17437 H 1674.24 -1.07287 -3.77137 0
M  V30 17438 H 1675.73 -0.167644 -4.17263 0
M  V30 17439 N 1676.17 1.23705 -0.976463 0
M  V30 17440 C 1677.4 1.95771 -0.660107 0
M  V30 17441 C 1677.8 1.72541 0.776297 0
M  V30 17442 O 1677.15 1.01134 1.53355 0
M  V30 17443 C 1677.21 3.4892 -0.865752 0
M  V30 17444 C 1676.87 3.95862 -2.28347 0
M  V30 17445 C 1677.87 4.04844 -3.26186 0
M  V30 17446 C 1675.55 4.28953 -2.61351 0
M  V30 17447 C 1677.55 4.46265 -4.55111 0
M  V30 17448 C 1675.24 4.70057 -3.905 0
M  V30 17449 C 1676.23 4.78679 -4.87192 0
M  V30 17450 O 1675.92 5.1886 -6.14035 0
M  V30 17451 H 1675.65 0.630202 -0.244585 0
M  V30 17452 H 1678.21 1.58255 -1.30937 0
M  V30 17453 H 1676.44 3.86372 -0.159321 0
M  V30 17454 H 1678.13 4.02195 -0.547154 0
M  V30 17455 H 1678.89 3.79486 -3.02018 0
M  V30 17456 H 1674.77 4.21456 -1.86803 0
M  V30 17457 H 1678.32 4.5291 -5.30583 0
M  V30 17458 H 1674.21 4.94863 -4.14464 0
M  V30 17459 H 1674.98 5.36984 -6.1773 0
M  V30 17460 N 1677.64 0.747635 1.38738 0
M  V30 17461 C 1678.55 0.117879 2.34304 0
M  V30 17462 C 1679.57 -0.707488 1.58967 0
M  V30 17463 O 1680.75 -0.633025 1.91193 0
M  V30 17464 C 1677.81 -0.769223 3.38059 0
M  V30 17465 C 1676.87 0.0698358 4.29243 0
M  V30 17466 C 1676.1 -0.775021 5.28043 0
M  V30 17467 O 1676.33 -2.01328 5.33688 0
M  V30 17468 O 1675.26 -0.196978 6.01578 0
M  V30 17469 H 1679.09 0.906972 2.89841 0
M  V30 17470 H 1676.67 0.508453 1.40482 0
M  V30 17471 H 1678.55 -1.27641 4.01604 0
M  V30 17472 H 1677.23 -1.53691 2.84887 0
M  V30 17473 H 1676.14 0.622836 3.68879 0
M  V30 17474 H 1677.47 0.80004 4.85654 0
M  V30 17475 N 1679.12 -1.49583 0.496242 0
M  V30 17476 C 1680.07 -2.30677 -0.298474 0
M  V30 17477 C 1681.06 -1.39074 -0.967207 0
M  V30 17478 O 1682.27 -1.56147 -0.895439 0
M  V30 17479 H 1678.64 -0.743138 -0.11511 0
M  V30 17480 H 1680.62 -2.95632 0.405533 0
M  V30 17481 C 1679.36 -3.20297 -1.35297 0
M  V30 17482 H 1678.69 -3.90708 -0.847789 0
M  V30 17483 H 1680.13 -3.79987 -1.88111 0
M  V30 17484 C 1678.59 -2.39584 -2.36857 0
M  V30 17485 O 1679.12 -2.09662 -3.42644 0
M  V30 17486 N 1677.32 -2.01695 -2.09206 0
M  V30 17487 H 1676.87 -2.26229 -1.23201 0
M  V30 17488 H 1676.83 -1.47998 -2.77388 0
M  V30 17489 N 1680.6 -0.229873 -1.55915 0
M  V30 17490 C 1681.85 0.399565 -1.98519 0
M  V30 17491 C 1682.17 1.59179 -1.1177 0
M  V30 17492 O 1681.43 1.95007 -0.16454 0
M  V30 17493 C 1681.73 0.869043 -3.46673 0
M  V30 17494 C 1681.39 -0.21356 -4.50394 0
M  V30 17495 C 1680.06 -0.510939 -4.7848 0
M  V30 17496 C 1682.41 -0.945307 -5.12556 0
M  V30 17497 C 1679.74 -1.54444 -5.66007 0
M  V30 17498 C 1682.09 -1.9682 -6.01203 0
M  V30 17499 C 1680.75 -2.27241 -6.27629 0
M  V30 17500 H 1680.02 0.146211 -0.726432 0
M  V30 17501 H 1682.67 -0.334135 -1.88562 0
M  V30 17502 H 1680.97 1.68165 -3.53875 0
M  V30 17503 H 1682.67 1.36605 -3.77015 0
M  V30 17504 H 1679.26 0.0283699 -4.28591 0
M  V30 17505 H 1683.45 -0.728806 -4.9092 0
M  V30 17506 H 1678.7 -1.78566 -5.84743 0
M  V30 17507 H 1682.88 -2.54023 -6.48418 0
M  V30 17508 H 1680.5 -3.07465 -6.95248 0
M  V30 17509 N 1682.08 1.5754 0.0434337 0
M  V30 17510 C 1683.03 2.06683 1.067 0
M  V30 17511 C 1684.02 0.977691 1.38339 0
M  V30 17512 O 1685.23 1.16266 1.37412 0
M  V30 17513 H 1681.6 0.659378 0.361559 0
M  V30 17514 H 1683.57 2.91747 0.626605 0
M  V30 17515 C 1682.32 2.54985 2.36385 0
M  V30 17516 H 1681.64 3.384 2.12897 0
M  V30 17517 H 1683.08 2.93095 3.06384 0
M  V30 17518 C 1681.54 1.44484 3.04345 0
M  V30 17519 O 1682.07 0.80291 3.93594 0
M  V30 17520 N 1680.28 1.18292 2.65434 0
M  V30 17521 H 1679.83 1.70676 1.92944 0
M  V30 17522 H 1679.78 0.445676 3.11225 0
M  V30 17523 N 1683.56 -0.31543 1.54411 0
M  V30 17524 C 1684.49 -1.4098 1.80713 0
M  V30 17525 C 1685.5 -1.47481 0.689435 0
M  V30 17526 O 1686.69 -1.50058 0.966682 0
M  V30 17527 C 1683.79 -2.79459 1.91718 0
M  V30 17528 C 1682.96 -2.96064 3.2197 0
M  V30 17529 C 1682.02 -4.14954 3.23573 0
M  V30 17530 O 1681.05 -4.07726 3.97175 0
M  V30 17531 N 1682.25 -5.24889 2.47935 0
M  V30 17532 H 1685.01 -1.18778 2.75158 0
M  V30 17533 H 1682.58 -0.50545 1.53808 0
M  V30 17534 H 1684.57 -3.57215 1.90209 0
M  V30 17535 H 1683.14 -2.94675 1.04333 0
M  V30 17536 H 1682.36 -2.05541 3.36372 0
M  V30 17537 H 1683.65 -3.0406 4.07952 0
M  V30 17538 H 1683.04 -5.33638 1.87741 0
M  V30 17539 H 1681.6 -6.01033 2.52195 0
M  V30 17540 N 1685.03 -1.46622 -0.577906 0
M  V30 17541 C 1685.98 -1.53964 -1.68164 0
M  V30 17542 C 1686.97 -0.400171 -1.55844 0
M  V30 17543 O 1688.16 -0.648872 -1.64677 0
M  V30 17544 C 1685.29 -1.53743 -3.0695 0
M  V30 17545 C 1684.38 -2.73001 -3.24548 0
M  V30 17546 N 1684.77 -3.97882 -3.12288 0
M  V30 17547 C 1683.06 -2.69326 -3.55499 0
M  V30 17548 C 1683.77 -4.77637 -3.3202 0
M  V30 17549 N 1682.74 -4.09594 -3.57398 0
M  V30 17550 H 1686.54 -2.48311 -1.57222 0
M  V30 17551 H 1684.06 -1.42328 -0.782077 0
M  V30 17552 H 1686.05 -1.57091 -3.86171 0
M  V30 17553 H 1684.71 -0.60476 -3.19018 0
M  V30 17554 H 1685.73 -4.29058 -2.90052 0
M  V30 17555 H 1682.4 -1.85104 -3.74223 0
M  V30 17556 H 1683.79 -5.86577 -3.27684 0
M  V30 17557 N 1686.51 0.822941 -1.34408 0
M  V30 17558 C 1687.42 1.96567 -1.28056 0
M  V30 17559 C 1688.44 1.72979 -0.188251 0
M  V30 17560 O 1689.61 1.97084 -0.41472 0
M  V30 17561 C 1686.68 3.30865 -1.03583 0
M  V30 17562 C 1685.74 3.67461 -2.2197 0
M  V30 17563 C 1684.97 4.9535 -1.98655 0
M  V30 17564 O 1685.2 5.62521 -0.944785 0
M  V30 17565 O 1684.13 5.29824 -2.85605 0
M  V30 17566 H 1687.96 2.0487 -2.24192 0
M  V30 17567 H 1685.54 0.958334 -1.14614 0
M  V30 17568 H 1687.42 4.11298 -0.917162 0
M  V30 17569 H 1686.1 3.2353 -0.104868 0
M  V30 17570 H 1685.01 2.87472 -2.39396 0
M  V30 17571 H 1686.34 3.79481 -3.13456 0
M  V30 17572 N 1687.99 1.18137 1.04314 0
M  V30 17573 C 1689.24 0.976648 1.77734 0
M  V30 17574 C 1689.57 -0.492756 1.87844 0
M  V30 17575 O 1688.84 -1.36586 1.38472 0
M  V30 17576 C 1689.13 1.62911 3.21142 0
M  V30 17577 C 1688.98 3.1712 3.1899 0
M  V30 17578 C 1690.3 1.34029 4.19195 0
M  V30 17579 H 1687.42 0.356217 0.645197 0
M  V30 17580 H 1690.06 1.45767 1.21868 0
M  V30 17581 H 1688.21 1.22009 3.68844 0
M  V30 17582 H 1689.88 3.67139 2.79296 0
M  V30 17583 H 1688.13 3.4941 2.57089 0
M  V30 17584 H 1688.8 3.57907 4.20245 0
M  V30 17585 H 1691.27 1.69463 3.80028 0
M  V30 17586 H 1690.15 1.82253 5.1776 0
M  V30 17587 H 1690.41 0.262712 4.41319 0
M  V30 17588 N 1689.47 -1.23186 0.98301 0
M  V30 17589 C 1690.4 -2.27054 0.544858 0
M  V30 17590 C 1691.38 -1.64749 -0.423281 0
M  V30 17591 O 1692.56 -1.91611 -0.316075 0
M  V30 17592 C 1689.69 -3.46972 -0.150976 0
M  V30 17593 C 1688.65 -4.21647 0.734707 0
M  V30 17594 C 1687.97 -5.34618 -0.0934874 0
M  V30 17595 C 1689.27 -4.81372 2.02679 0
M  V30 17596 H 1690.97 -2.63957 1.41305 0
M  V30 17597 H 1688.51 -1.26885 0.680895 0
M  V30 17598 H 1690.47 -4.18784 -0.468825 0
M  V30 17599 H 1689.19 -3.09137 -1.05364 0
M  V30 17600 H 1687.85 -3.51655 1.03605 0
M  V30 17601 H 1687.5 -4.93025 -0.996768 0
M  V30 17602 H 1687.2 -5.85503 0.496019 0
M  V30 17603 H 1688.72 -6.09251 -0.405658 0
M  V30 17604 H 1690.14 -5.45178 1.77353 0
M  V30 17605 H 1688.53 -5.42554 2.56429 0
M  V30 17606 H 1689.6 -4.01972 2.71194 0
M  V30 17607 N 1690.95 -0.754982 -1.38339 0
M  V30 17608 C 1691.88 -0.143678 -2.33058 0
M  V30 17609 C 1692.86 0.702022 -1.54938 0
M  V30 17610 O 1694.04 0.642922 -1.83249 0
M  V30 17611 C 1691.17 0.749194 -3.39123 0
M  V30 17612 C 1690.13 0.00611459 -4.28 0
M  V30 17613 C 1689.45 1.01733 -5.24933 0
M  V30 17614 C 1690.75 -1.1631 -5.09185 0
M  V30 17615 H 1692.45 -0.934907 -2.84429 0
M  V30 17616 H 1689.99 -0.451023 -1.36754 0
M  V30 17617 H 1691.95 1.18653 -4.04351 0
M  V30 17618 H 1690.67 1.57276 -2.86237 0
M  V30 17619 H 1689.33 -0.411816 -3.6428 0
M  V30 17620 H 1688.98 1.83499 -4.68334 0
M  V30 17621 H 1688.68 0.524783 -5.85252 0
M  V30 17622 H 1690.2 1.45395 -5.93037 0
M  V30 17623 H 1691.61 -0.803244 -5.67645 0
M  V30 17624 H 1690.01 -1.5866 -5.78746 0
M  V30 17625 H 1691.08 -1.97533 -4.42842 0
M  V30 17626 N 1692.42 1.49318 -0.504168 0
M  V30 17627 C 1693.39 2.27703 0.26157 0
M  V30 17628 C 1694.39 1.3385 0.891114 0
M  V30 17629 O 1695.58 1.56981 0.755156 0
M  V30 17630 C 1692.71 3.11912 1.37564 0
M  V30 17631 H 1693.9 2.96855 -0.426292 0
M  V30 17632 H 1691.46 1.54135 -0.259236 0
M  V30 17633 H 1692.19 2.47332 2.09755 0
M  V30 17634 H 1691.98 3.8092 0.929641 0
M  V30 17635 H 1693.47 3.71106 1.91494 0
M  V30 17636 N 1693.9 0.238138 1.5579 0
M  V30 17637 C 1695.31 -0.266656 1.84786 0
M  V30 17638 C 1695.66 -1.58248 1.15983 0
M  V30 17639 O 1694.79 -2.11979 0.43518 0
M  V30 17640 C 1695.38 -0.4906 3.35229 0
M  V30 17641 C 1693.94 -0.939672 3.64482 0
M  V30 17642 C 1693.09 -0.0119682 2.77297 0
M  V30 17643 H 1696.04 0.460924 1.51859 0
M  V30 17644 H 1696.06 -1.3344 3.56334 0
M  V30 17645 H 1695.57 0.467239 3.85277 0
M  V30 17646 H 1693.68 -1.91029 3.19904 0
M  V30 17647 H 1693.79 -0.8026 4.72329 0
M  V30 17648 H 1692.15 -0.521767 2.49298 0
M  V30 17649 H 1692.94 0.941085 3.30149 0
M  V30 17650 N 1695.38 -1.57561 -0.0350783 0
M  V30 17651 C 1696.31 -2.09201 -1.03716 0
M  V30 17652 C 1697.29 -0.993231 -1.3809 0
M  V30 17653 O 1698.48 -1.26812 -1.47079 0
M  V30 17654 C 1695.61 -2.56643 -2.3399 0
M  V30 17655 C 1694.56 -3.70731 -2.13874 0
M  V30 17656 C 1693.89 -4.04358 -3.49855 0
M  V30 17657 C 1695.19 -4.99393 -1.52982 0
M  V30 17658 H 1696.88 -2.93176 -0.60731 0
M  V30 17659 H 1694.43 -1.41036 -0.290683 0
M  V30 17660 H 1696.38 -2.9139 -3.04417 0
M  V30 17661 H 1695.1 -1.69744 -2.79024 0
M  V30 17662 H 1693.76 -3.36325 -1.45881 0
M  V30 17663 H 1693.41 -3.14534 -3.92527 0
M  V30 17664 H 1693.11 -4.81201 -3.37223 0
M  V30 17665 H 1694.63 -4.41633 -4.21654 0
M  V30 17666 H 1696.05 -5.32135 -2.13319 0
M  V30 17667 H 1694.45 -5.80807 -1.50943 0
M  V30 17668 H 1695.52 -4.82367 -0.494993 0
M  V30 17669 N 1696.86 0.307236 -1.54576 0
M  V30 17670 C 1697.79 1.38357 -1.88095 0
M  V30 17671 C 1698.77 1.53196 -0.739253 0
M  V30 17672 O 1699.95 1.66807 -0.99444 0
M  V30 17673 C 1697.08 2.74876 -2.12274 0
M  V30 17674 C 1696.04 2.74809 -3.28122 0
M  V30 17675 C 1695.36 4.14557 -3.37707 0
M  V30 17676 C 1696.66 2.37103 -4.65381 0
M  V30 17677 H 1698.36 1.10554 -2.78241 0
M  V30 17678 H 1695.9 0.530383 -1.33877 0
M  V30 17679 H 1697.86 3.50254 -2.34308 0
M  V30 17680 H 1696.58 3.04191 -1.18893 0
M  V30 17681 H 1695.24 2.01887 -3.06002 0
M  V30 17682 H 1694.89 4.41039 -2.41854 0
M  V30 17683 H 1694.59 4.15415 -4.15577 0
M  V30 17684 H 1696.11 4.91724 -3.61994 0
M  V30 17685 H 1697.53 3.02196 -4.87186 0
M  V30 17686 H 1695.92 2.49184 -5.45919 0
M  V30 17687 H 1696.99 1.32235 -4.66521 0
M  V30 17688 N 1698.34 1.46926 0.570122 0
M  V30 17689 C 1699.56 1.56722 1.35841 0
M  V30 17690 C 1699.99 0.213314 1.86887 0
M  V30 17691 O 1699.34 -0.808694 1.62265 0
M  V30 17692 C 1699.39 2.5859 2.51323 0
M  V30 17693 O 1698.5 2.12966 3.53156 0
M  V30 17694 H 1697.84 0.526929 0.404032 0
M  V30 17695 H 1700.37 1.92603 0.690308 0
M  V30 17696 H 1700.38 2.78601 2.9807 0
M  V30 17697 H 1699.05 3.56903 2.13525 0
M  V30 17698 H 1697.63 2.02999 3.12803 0
M  V30 17699 N 1699.82 -0.815801 1.34842 0
M  V30 17700 C 1700.78 -1.90871 1.2689 0
M  V30 17701 C 1701.78 -1.59762 0.182445 0
M  V30 17702 O 1702.97 -1.68667 0.435543 0
M  V30 17703 C 1700.1 -3.27081 0.960774 0
M  V30 17704 H 1701.29 -1.99343 2.24059 0
M  V30 17705 H 1698.85 -1.0106 1.19233 0
M  V30 17706 H 1699.58 -3.24299 -0.00744059 0
M  V30 17707 H 1699.37 -3.51045 1.74671 0
M  V30 17708 H 1700.86 -4.07101 0.930494 0
M  V30 17709 N 1701.29 -1.18689 -1.03686 0
M  V30 17710 C 1702.54 -0.982656 -1.76602 0
M  V30 17711 C 1702.86 0.488553 -1.88781 0
M  V30 17712 O 1702.13 1.35419 -1.41558 0
M  V30 17713 H 1700.71 -0.360595 -0.654202 0
M  V30 17714 H 1703.37 -1.49439 -1.25115 0
M  V30 17715 H 1702.47 -1.42392 -2.77725 0
M  V30 17716 N 1702.77 1.22662 -0.989529 0
M  V30 17717 C 1704.02 1.90632 -0.65897 0
M  V30 17718 C 1704.33 1.77942 0.812165 0
M  V30 17719 O 1705.54 2.40796 1.25417 0
M  V30 17720 C 1704 3.41763 -1.12809 0
M  V30 17721 C 1703.6 3.63097 -2.62421 0
M  V30 17722 C 1705.35 4.15454 -0.871698 0
M  V30 17723 C 1703.25 5.07911 -3.02953 0
M  V30 17724 H 1702.18 0.713847 -0.242772 0
M  V30 17725 H 1704.84 1.38942 -1.19864 0
M  V30 17726 H 1703.22 3.92616 -0.516564 0
M  V30 17727 H 1704.39 3.22751 -3.2889 0
M  V30 17728 H 1702.71 3.02733 -2.85905 0
M  V30 17729 H 1705.3 5.22181 -1.15027 0
M  V30 17730 H 1705.65 4.15856 0.192186 0
M  V30 17731 H 1706.18 3.70618 -1.44525 0
M  V30 17732 H 1702.92 5.12646 -4.08503 0
M  V30 17733 H 1702.44 5.49172 -2.41185 0
M  V30 17734 H 1704.12 5.76311 -2.94066 0
M  V30 17735 N 1704.25 0.762308 1.37937 0
M  V30 17736 C 1705.5 0.322369 1.99918 0
M  V30 17737 C 1705.82 -1.09843 1.60514 0
M  V30 17738 O 1705.08 -1.76837 0.83829 0
M  V30 17739 C 1705.38 0.402558 3.55126 0
M  V30 17740 C 1705.04 1.78025 4.14268 0
M  V30 17741 C 1703.71 2.15727 4.30134 0
M  V30 17742 C 1706.06 2.68359 4.46803 0
M  V30 17743 C 1703.39 3.43217 4.75835 0
M  V30 17744 C 1705.74 3.95248 4.93925 0
M  V30 17745 C 1704.4 4.33007 5.07997 0
M  V30 17746 H 1703.67 0.117963 0.73155 0
M  V30 17747 H 1706.32 0.974491 1.64851 0
M  V30 17748 H 1704.62 -0.333119 3.90381 0
M  V30 17749 H 1706.32 0.0436064 4.00976 0
M  V30 17750 H 1702.91 1.4772 4.02339 0
M  V30 17751 H 1707.1 2.40493 4.34139 0
M  V30 17752 H 1702.35 3.72379 4.84916 0
M  V30 17753 H 1706.53 4.6538 5.18068 0
M  V30 17754 H 1704.15 5.31856 5.4317 0
M  V30 17755 N 1705.73 -1.49049 0.51208 0
M  V30 17756 C 1706.98 -2.0208 -0.0284326 0
M  V30 17757 C 1707.3 -1.39303 -1.36454 0
M  V30 17758 O 1706.57 -0.552155 -1.87958 0
M  V30 17759 H 1705.15 -0.746878 -0.0134968 0
M  V30 17760 H 1707.81 -1.82954 0.671842 0
M  V30 17761 H 1706.9 -3.11739 -0.149966 0
M  V30 17762 N 1707.21 -0.246397 -1.55662 0
M  V30 17763 C 1708.17 0.640041 -2.20082 0
M  V30 17764 C 1709.17 1.10313 -1.16994 0
M  V30 17765 O 1710.36 1.00792 -1.42079 0
M  V30 17766 C 1707.49 1.87964 -2.84398 0
M  V30 17767 H 1708.68 0.0780034 -2.99799 0
M  V30 17768 H 1706.24 0.00314588 -1.563 0
M  V30 17769 H 1706.97 2.48292 -2.08618 0
M  V30 17770 H 1706.76 1.5558 -3.59913 0
M  V30 17771 H 1708.25 2.51065 -3.33701 0
M  V30 17772 N 1708.68 1.57577 0.026722 0
M  V30 17773 C 1709.96 1.80541 0.752606 0
M  V30 17774 C 1710.34 0.845025 1.93449 0
M  V30 17775 O 1709.69 -0.112286 2.28224 0
M  V30 17776 C 1709.9 3.28322 1.18345 0
M  V30 17777 C 1711.25 3.93366 1.59839 0
M  V30 17778 O 1712.27 3.32486 1.27796 0
M  V30 17779 O 1711.13 5.0056 2.19321 0
M  V30 17780 H 1708.22 0.742514 0.364146 0
M  V30 17781 H 1710.77 1.697 0.00332 0
M  V30 17782 H 1709.54 3.89822 0.339832 0
M  V30 17783 H 1709.16 3.44061 1.99267 0
M  V30 17784 N 1710.16 -0.299034 1.54737 0
M  V30 17785 C 1711.57 -0.871897 1.6509 0
M  V30 17786 C 1711.92 -1.88013 0.560843 0
M  V30 17787 O 1711.05 -2.1428 -0.302194 0
M  V30 17788 C 1711.64 -1.5882 2.99269 0
M  V30 17789 C 1710.2 -2.10944 3.11736 0
M  V30 17790 C 1709.35 -0.942776 2.60782 0
M  V30 17791 H 1712.3 -0.0759883 1.58518 0
M  V30 17792 H 1712.32 -2.45387 2.90802 0
M  V30 17793 H 1711.83 -0.854144 3.78584 0
M  V30 17794 H 1709.93 -2.87391 2.37144 0
M  V30 17795 H 1710.05 -2.34262 4.17921 0
M  V30 17796 H 1708.41 -1.3289 2.17284 0
M  V30 17797 H 1709.19 -0.222646 3.42577 0
M  V30 17798 N 1711.64 -1.47227 -0.562322 0
M  V30 17799 C 1712.89 -1.52851 -1.31604 0
M  V30 17800 C 1713.2 -0.193236 -1.94643 0
M  V30 17801 O 1714.41 -0.127429 -2.71201 0
M  V30 17802 C 1712.86 -2.69422 -2.3862 0
M  V30 17803 C 1712.47 -4.09457 -1.81794 0
M  V30 17804 C 1714.22 -2.84334 -3.15205 0
M  V30 17805 C 1712.12 -5.17337 -2.8656 0
M  V30 17806 H 1711.05 -0.568923 -0.494816 0
M  V30 17807 H 1713.7 -1.73489 -0.597819 0
M  V30 17808 H 1712.09 -2.42153 -3.13333 0
M  V30 17809 H 1713.26 -4.46606 -1.13487 0
M  V30 17810 H 1711.57 -3.99387 -1.17811 0
M  V30 17811 H 1714.17 -3.621 -3.93431 0
M  V30 17812 H 1714.51 -1.9259 -3.69073 0
M  V30 17813 H 1715.05 -3.11348 -2.47603 0
M  V30 17814 H 1711.79 -6.1094 -2.37554 0
M  V30 17815 H 1711.31 -4.8471 -3.53293 0
M  V30 17816 H 1712.99 -5.44065 -3.50146 0
M  V30 17817 N 1713.12 0.808639 -1.35273 0
M  V30 17818 C 1714.07 1.90962 -1.24569 0
M  V30 17819 C 1715.05 1.60277 -0.141424 0
M  V30 17820 O 1716.24 1.73037 -0.372451 0
M  V30 17821 C 1713.37 3.27864 -1.01783 0
M  V30 17822 C 1712.46 3.64622 -2.16592 0
M  V30 17823 N 1712.85 3.72831 -3.41805 0
M  V30 17824 C 1711.15 3.94563 -2.07932 0
M  V30 17825 C 1711.85 4.05271 -4.1729 0
M  V30 17826 N 1710.82 4.19246 -3.46025 0
M  V30 17827 H 1714.63 1.95508 -2.1944 0
M  V30 17828 H 1712.14 1.00311 -1.27716 0
M  V30 17829 H 1714.14 4.06576 -0.922037 0
M  V30 17830 H 1712.8 3.24606 -0.0779494 0
M  V30 17831 H 1713.81 3.55961 -3.76181 0
M  V30 17832 H 1710.49 3.99342 -1.21787 0
M  V30 17833 H 1711.88 4.18707 -5.25485 0
M  V30 17834 N 1714.6 1.19237 1.03055 0
M  V30 17835 C 1715.82 1.01983 1.80594 0
M  V30 17836 C 1716.25 -0.426875 1.83192 0
M  V30 17837 O 1715.6 -1.30678 1.2567 0
M  V30 17838 C 1715.65 1.59139 3.23585 0
M  V30 17839 O 1714.76 0.819576 4.04174 0
M  V30 17840 H 1714.1 0.360585 0.557561 0
M  V30 17841 H 1716.63 1.58222 1.29719 0
M  V30 17842 H 1716.64 1.62283 3.74337 0
M  V30 17843 H 1715.31 2.64436 3.21009 0
M  V30 17844 H 1713.89 0.861253 3.62818 0
M  V30 17845 N 1716.07 -1.22136 0.99602 0
M  V30 17846 C 1717 -2.26463 0.568909 0
M  V30 17847 C 1717.99 -1.65189 -0.405783 0
M  V30 17848 O 1719.17 -1.91935 -0.295735 0
M  V30 17849 C 1716.3 -3.47112 -0.114166 0
M  V30 17850 C 1715.25 -4.20844 0.779387 0
M  V30 17851 C 1714.58 -5.34687 -0.0367787 0
M  V30 17852 C 1715.88 -4.79195 2.07773 0
M  V30 17853 H 1717.57 -2.62443 1.44097 0
M  V30 17854 H 1715.12 -1.26156 0.694314 0
M  V30 17855 H 1717.07 -4.19258 -0.424381 0
M  V30 17856 H 1715.8 -3.10238 -1.02079 0
M  V30 17857 H 1714.46 -3.50537 1.07329 0
M  V30 17858 H 1714.1 -4.94054 -0.94442 0
M  V30 17859 H 1713.8 -5.84944 0.558092 0
M  V30 17860 H 1715.33 -6.09647 -0.341016 0
M  V30 17861 H 1716.74 -5.43266 1.83126 0
M  V30 17862 H 1715.14 -5.39803 2.62169 0
M  V30 17863 H 1716.21 -3.99073 2.75442 0
M  V30 17864 N 1717.55 -0.769612 -1.37531 0
M  V30 17865 C 1718.97 -0.449 -1.53154 0
M  V30 17866 C 1719.17 1.03568 -1.72847 0
M  V30 17867 O 1718.22 1.82154 -1.74861 0
M  V30 17868 C 1719.54 -1.26221 -2.72926 0
M  V30 17869 C 1721.09 -1.2539 -2.86786 0
M  V30 17870 C 1721.56 -2.05041 -4.09539 0
M  V30 17871 N 1723.05 -2.02384 -4.16647 0
M  V30 17872 C 1723.79 -2.60798 -5.10658 0
M  V30 17873 N 1723.28 -3.27991 -6.10241 0
M  V30 17874 N 1725.08 -2.5064 -5.03126 0
M  V30 17875 H 1717.23 -1.73161 -1.23 0
M  V30 17876 H 1719.49 -0.734977 -0.598759 0
M  V30 17877 H 1719.2 -2.31423 -2.64832 0
M  V30 17878 H 1719.07 -0.889937 -3.66551 0
M  V30 17879 H 1721.46 -0.209869 -2.94353 0
M  V30 17880 H 1721.54 -1.6658 -1.94126 0
M  V30 17881 H 1721.18 -3.09464 -4.02734 0
M  V30 17882 H 1721.11 -1.61234 -5.01309 0
M  V30 17883 H 1723.6 -1.53464 -3.45337 0
M  V30 17884 H 1723.92 -3.69942 -6.785 0
M  V30 17885 H 1722.26 -3.32089 -6.10526 0
M  V30 17886 H 1725.45 -1.97762 -4.24273 0
M  V30 17887 H 1725.62 -2.96458 -5.76209 0
M  V30 17888 N 1719.03 1.48775 -0.519977 0
M  V30 17889 C 1720.28 2.02792 0.0177768 0
M  V30 17890 C 1720.61 1.3972 1.34878 0
M  V30 17891 O 1719.88 0.539438 1.8687 0
M  V30 17892 C 1720.17 3.59786 0.150355 0
M  V30 17893 C 1720.02 4.33356 -1.20511 0
M  V30 17894 C 1721.34 4.31172 0.881959 0
M  V30 17895 H 1718.46 0.736983 0.00498634 0
M  V30 17896 H 1721.1 1.77603 -0.675069 0
M  V30 17897 H 1719.25 3.81378 0.740452 0
M  V30 17898 H 1720.92 4.23209 -1.83554 0
M  V30 17899 H 1719.17 3.95167 -1.78957 0
M  V30 17900 H 1719.84 5.4162 -1.06544 0
M  V30 17901 H 1722.31 4.14349 0.381302 0
M  V30 17902 H 1721.19 5.40729 0.943601 0
M  V30 17903 H 1721.45 3.97747 1.93001 0
M  V30 17904 N 1720.51 0.254649 1.55529 0
M  V30 17905 C 1721.75 -0.369374 2.01035 0
M  V30 17906 C 1722.11 -1.54564 1.13904 0
M  V30 17907 O 1723.31 -2.23792 1.48899 0
M  V30 17908 C 1721.58 -0.761489 3.49194 0
M  V30 17909 S 1723.14 -1.37494 4.16702 0
M  V30 17910 H 1719.96 -0.115878 0.701494 0
M  V30 17911 H 1722.56 0.371696 1.91934 0
M  V30 17912 H 1721.27 0.103781 4.10269 0
M  V30 17913 H 1720.8 -1.53454 3.62237 0
M  V30 17914 H 1722.81 -2.66389 4.1863 0
M  V30 17915 N 1721.99 -1.57589 -0.0183649 0
M  V30 17916 C 1723.23 -1.90038 -0.708056 0
M  V30 17917 C 1723.57 -0.853686 -1.7443 0
M  V30 17918 O 1722.84 0.12994 -1.94065 0
M  V30 17919 C 1723.12 -3.33107 -1.3679 0
M  V30 17920 C 1722.98 -4.48479 -0.344448 0
M  V30 17921 C 1724.3 -3.75276 -2.29904 0
M  V30 17922 H 1721.41 -0.691134 -0.255934 0
M  V30 17923 H 1724.06 -1.89978 0.0291579 0
M  V30 17924 H 1722.21 -3.33289 -1.99626 0
M  V30 17925 H 1723.88 -4.60432 0.282816 0
M  V30 17926 H 1722.12 -4.32503 0.335196 0
M  V30 17927 H 1722.79 -5.45497 -0.844832 0
M  V30 17928 H 1725.27 -3.76529 -1.77103 0
M  V30 17929 H 1724.14 -4.76168 -2.73049 0
M  V30 17930 H 1724.41 -3.08124 -3.17036 0
M  V30 17931 N 1723.46 0.290824 -1.54893 0
M  V30 17932 C 1724.74 1.04495 -1.65348 0
M  V30 17933 C 1725.12 2.04888 -0.508348 0
M  V30 17934 O 1724.47 2.23102 0.493749 0
M  V30 17935 C 1724.68 1.71772 -3.03801 0
M  V30 17936 C 1726.03 2.23595 -3.60958 0
M  V30 17937 O 1727.05 1.81788 -3.06319 0
M  V30 17938 O 1725.91 3.00225 -4.56648 0
M  V30 17939 H 1723 0.483605 -0.670862 0
M  V30 17940 H 1725.55 0.288101 -1.67237 0
M  V30 17941 H 1724.32 0.989296 -3.78588 0
M  V30 17942 H 1723.95 2.54188 -3.05735 0
M  V30 17943 N 1724.94 1.47523 0.554506 0
M  V30 17944 C 1726.17 1.57907 1.3369 0
M  V30 17945 C 1726.59 0.230244 1.87391 0
M  V30 17946 O 1725.94 -0.776917 1.65137 0
M  V30 17947 C 1725.99 2.60644 2.50493 0
M  V30 17948 O 1725.71 3.9029 1.99011 0
M  V30 17949 C 1727.22 2.81238 3.42666 0
M  V30 17950 H 1724.44 0.533139 0.407436 0
M  V30 17951 H 1726.98 1.93163 0.671445 0
M  V30 17952 H 1725.13 2.28315 3.12971 0
M  V30 17953 H 1725.55 4.46451 2.75285 0
M  V30 17954 H 1727.02 3.56981 4.21033 0
M  V30 17955 H 1727.5 1.89159 3.96378 0
M  V30 17956 H 1728.11 3.14775 2.86001 0
M  V30 17957 N 1726.42 -0.801453 1.357 0
M  V30 17958 C 1727.67 -1.5611 1.29451 0
M  V30 17959 C 1728 -1.93768 -0.129412 0
M  V30 17960 O 1727.27 -1.6176 -1.08 0
M  V30 17961 C 1727.56 -2.84628 2.20588 0
M  V30 17962 C 1727.41 -2.53413 3.71621 0
M  V30 17963 C 1728.73 -3.86369 2.10729 0
M  V30 17964 H 1725.85 -0.56638 0.471575 0
M  V30 17965 H 1728.49 -0.921701 1.66147 0
M  V30 17966 H 1726.64 -3.39192 1.89424 0
M  V30 17967 H 1728.31 -2.04993 4.1325 0
M  V30 17968 H 1726.56 -1.86531 3.91649 0
M  V30 17969 H 1727.23 -3.45152 4.30783 0
M  V30 17970 H 1729.7 -3.41219 2.38136 0
M  V30 17971 H 1728.58 -4.74062 2.76688 0
M  V30 17972 H 1728.84 -4.28431 1.09083 0
M  V30 17973 N 1727.9 -1.19782 -1.02421 0
M  V30 17974 C 1729.31 -0.951034 -1.2817 0
M  V30 17975 C 1729.51 0.373883 -1.98001 0
M  V30 17976 O 1728.57 1.10427 -2.27073 0
M  V30 17977 C 1729.88 -2.12833 -2.12421 0
M  V30 17978 C 1731.43 -2.16847 -2.25713 0
M  V30 17979 C 1731.91 -3.34041 -3.13337 0
M  V30 17980 N 1733.4 -3.34007 -3.20926 0
M  V30 17981 C 1734.13 -4.21333 -3.88929 0
M  V30 17982 N 1733.63 -5.18823 -4.59123 0
M  V30 17983 N 1735.42 -4.09197 -3.85376 0
M  V30 17984 H 1727.57 -2.05017 -0.555122 0
M  V30 17985 H 1729.84 -0.896717 -0.307576 0
M  V30 17986 H 1729.54 -3.08742 -1.68437 0
M  V30 17987 H 1729.42 -2.10288 -3.13143 0
M  V30 17988 H 1731.8 -1.21506 -2.68924 0
M  V30 17989 H 1731.88 -2.23444 -1.24525 0
M  V30 17990 H 1731.53 -4.29665 -2.70833 0
M  V30 17991 H 1731.46 -3.24682 -4.14595 0
M  V30 17992 H 1733.95 -2.63441 -2.70938 0
M  V30 17993 H 1734.26 -5.81796 -5.08658 0
M  V30 17994 H 1732.61 -5.22767 -4.57973 0
M  V30 17995 H 1735.8 -3.32308 -3.2968 0
M  V30 17996 H 1735.97 -4.77465 -4.38099 0
M  V30 17997 N 1729.38 1.21606 -1.00248 0
M  V30 17998 C 1730.61 1.94609 -0.702502 0
M  V30 17999 C 1731.02 1.73928 0.734483 0
M  V30 18000 O 1730.38 1.04432 1.49667 0
M  V30 18001 C 1730.43 3.47077 -1.01092 0
M  V30 18002 O 1730.15 3.67071 -2.39145 0
M  V30 18003 C 1731.65 4.37248 -0.729988 0
M  V30 18004 H 1728.87 0.618962 -0.259088 0
M  V30 18005 H 1731.41 1.54494 -1.33985 0
M  V30 18006 H 1729.57 3.85125 -0.419215 0
M  V30 18007 H 1729.98 4.61188 -2.49811 0
M  V30 18008 H 1731.46 5.4294 -0.99598 0
M  V30 18009 H 1731.93 4.37913 0.33599 0
M  V30 18010 H 1732.54 4.04842 -1.30318 0
M  V30 18011 N 1730.86 0.776895 1.37121 0
M  V30 18012 C 1731.8 0.154521 2.32086 0
M  V30 18013 C 1732.8 -0.679155 1.5519 0
M  V30 18014 O 1734 -0.575641 1.70547 0
M  V30 18015 H 1730.38 0.0311849 0.751353 0
M  V30 18016 H 1732.35 0.971125 2.82156 0
M  V30 18017 C 1731.1 -0.706165 3.40454 0
M  V30 18018 H 1730.42 -0.0740341 3.99731 0
M  V30 18019 H 1731.86 -1.10853 4.09253 0
M  V30 18020 C 1730.32 -1.85901 2.80967 0
M  V30 18021 O 1730.85 -2.95482 2.72128 0
M  V30 18022 N 1729.06 -1.66122 2.38436 0
M  V30 18023 H 1728.6 -0.769915 2.45825 0
M  V30 18024 H 1728.56 -2.43422 1.9898 0
M  V30 18025 N 1732.33 -1.48497 0.527859 0
M  V30 18026 C 1733.58 -2.02799 -0.00702196 0
M  V30 18027 C 1733.91 -1.40433 -1.34135 0
M  V30 18028 O 1733.19 -0.54934 -1.86581 0
M  V30 18029 C 1733.47 -3.59861 -0.131272 0
M  V30 18030 C 1733.32 -4.32711 1.22807 0
M  V30 18031 C 1734.64 -4.31634 -0.85908 0
M  V30 18032 H 1731.76 -0.736999 -0.00107787 0
M  V30 18033 H 1734.4 -1.77242 0.684478 0
M  V30 18034 H 1732.55 -3.81766 -0.720216 0
M  V30 18035 H 1734.23 -4.22229 1.85796 0
M  V30 18036 H 1732.47 -3.94212 1.8105 0
M  V30 18037 H 1733.14 -5.41047 1.09415 0
M  V30 18038 H 1735.62 -4.14546 -0.359322 0
M  V30 18039 H 1734.49 -5.41221 -0.914911 0
M  V30 18040 H 1734.75 -3.98765 -1.90889 0
M  V30 18041 N 1733.81 -0.262893 -1.55392 0
M  V30 18042 C 1735.04 0.360534 -2.0343 0
M  V30 18043 C 1735.45 1.50917 -1.14108 0
M  V30 18044 O 1734.79 1.83077 -0.15118 0
M  V30 18045 C 1734.85 0.91519 -3.47656 0
M  V30 18046 C 1734.52 -0.103245 -4.56883 0
M  V30 18047 C 1735.52 -0.918464 -5.11723 0
M  V30 18048 C 1733.2 -0.233956 -5.01755 0
M  V30 18049 C 1735.19 -1.8507 -6.09941 0
M  V30 18050 C 1732.88 -1.16968 -5.99801 0
M  V30 18051 C 1733.88 -1.97656 -6.53774 0
M  V30 18052 O 1733.57 -2.89648 -7.49906 0
M  V30 18053 H 1733.3 0.0879049 -0.67026 0
M  V30 18054 H 1735.85 -0.389114 -2.01681 0
M  V30 18055 H 1734.08 1.71469 -3.46605 0
M  V30 18056 H 1735.77 1.4504 -3.79102 0
M  V30 18057 H 1736.54 -0.828152 -4.77877 0
M  V30 18058 H 1732.42 0.384057 -4.59397 0
M  V30 18059 H 1735.96 -2.48091 -6.51994 0
M  V30 18060 H 1731.86 -1.26085 -6.33066 0
M  V30 18061 H 1732.63 -2.84191 -7.67579 0
M  V30 18062 N 1735.29 1.57597 0.0100073 0
M  V30 18063 C 1736.22 2.10825 1.00375 0
M  V30 18064 C 1737.2 1.01507 1.36493 0
M  V30 18065 O 1738.39 1.29136 1.45043 0
M  V30 18066 C 1735.52 2.60334 2.29878 0
M  V30 18067 C 1734.47 3.74087 2.07949 0
M  V30 18068 C 1733.8 4.09873 3.43378 0
M  V30 18069 C 1735.1 5.01764 1.45018 0
M  V30 18070 H 1736.79 2.94105 0.560591 0
M  V30 18071 H 1734.34 1.4148 0.268208 0
M  V30 18072 H 1736.29 2.96196 2.99743 0
M  V30 18073 H 1735.01 1.74162 2.76288 0
M  V30 18074 H 1733.67 3.38603 1.40512 0
M  V30 18075 H 1733.32 3.20739 3.87473 0
M  V30 18076 H 1733.02 4.86505 3.29525 0
M  V30 18077 H 1734.54 4.48285 4.14575 0
M  V30 18078 H 1735.96 5.35462 2.04826 0
M  V30 18079 H 1734.35 5.83135 1.41683 0
M  V30 18080 H 1735.42 4.83093 0.41819 0
M  V30 18081 N 1736.77 -0.282606 1.55045 0
M  V30 18082 C 1737.73 -1.33228 1.86502 0
M  V30 18083 C 1738.73 -1.42814 0.738977 0
M  V30 18084 O 1739.92 -1.42131 1.0072 0
M  V30 18085 C 1737.05 -2.71488 2.06173 0
M  V30 18086 H 1738.25 -1.06571 2.80326 0
M  V30 18087 H 1735.8 -0.520199 1.47389 0
M  V30 18088 H 1736.53 -3.03339 1.14699 0
M  V30 18089 H 1736.32 -2.65917 2.8815 0
M  V30 18090 H 1737.81 -3.47348 2.31817 0
M  V30 18091 N 1738.25 -1.47815 -0.546675 0
M  V30 18092 C 1739.49 -1.5521 -1.30529 0
M  V30 18093 C 1739.82 -0.218129 -1.92971 0
M  V30 18094 O 1739.1 0.774298 -1.78423 0
M  V30 18095 C 1739.38 -2.67799 -2.40739 0
M  V30 18096 C 1739.24 -4.10847 -1.83097 0
M  V30 18097 C 1740.55 -2.76238 -3.42608 0
M  V30 18098 H 1737.67 -0.564998 -0.473229 0
M  V30 18099 H 1740.32 -1.79917 -0.610713 0
M  V30 18100 H 1738.47 -2.46863 -2.99985 0
M  V30 18101 H 1740.14 -4.43177 -1.28031 0
M  V30 18102 H 1738.38 -4.1863 -1.13716 0
M  V30 18103 H 1739.05 -4.85418 -2.62818 0
M  V30 18104 H 1741.53 -2.95156 -2.93296 0
M  V30 18105 H 1740.4 -3.56774 -4.17137 0
M  V30 18106 H 1740.66 -1.83719 -4.02119 0
M  V30 18107 N 1739.72 0.794246 -1.36123 0
M  V30 18108 C 1740.97 1.55191 -1.30084 0
M  V30 18109 C 1741.3 1.94122 0.121259 0
M  V30 18110 O 1740.55 1.62573 1.08942 0
M  V30 18111 C 1740.85 2.84387 -2.16469 0
M  V30 18112 C 1740.52 2.64617 -3.65087 0
M  V30 18113 C 1739.18 2.58934 -4.05594 0
M  V30 18114 C 1741.53 2.46293 -4.59336 0
M  V30 18115 C 1738.86 2.32885 -5.38499 0
M  V30 18116 C 1741.21 2.21771 -5.92453 0
M  V30 18117 C 1739.88 2.14518 -6.32091 0
M  V30 18118 H 1739.15 0.567885 -0.476013 0
M  V30 18119 H 1741.79 0.916723 -1.68132 0
M  V30 18120 H 1740.1 3.52348 -1.71342 0
M  V30 18121 H 1741.8 3.42152 -2.09124 0
M  V30 18122 H 1738.39 2.69894 -3.32949 0
M  V30 18123 H 1742.57 2.49688 -4.28917 0
M  V30 18124 H 1737.83 2.25748 -5.68197 0
M  V30 18125 H 1742 2.06586 -6.65053 0
M  V30 18126 H 1739.63 1.94096 -7.35004 0
M  V30 18127 N 1741.2 1.20323 1.01785 0
M  V30 18128 C 1742.48 0.921703 1.72522 0
M  V30 18129 C 1742.86 -0.569838 2.03264 0
M  V30 18130 O 1742.21 -1.53115 1.69611 0
M  V30 18131 C 1742.42 1.79335 2.99399 0
M  V30 18132 C 1743.76 2.03442 3.72688 0
M  V30 18133 O 1744.79 1.76578 3.09352 0
M  V30 18134 O 1743.65 2.48803 4.86579 0
M  V30 18135 H 1740.74 0.344505 0.751828 0
M  V30 18136 H 1743.29 1.31191 1.07644 0
M  V30 18137 H 1742.06 2.80339 2.72994 0
M  V30 18138 H 1741.68 1.40314 3.72018 0
M  V30 18139 N 1742.68 -1.21073 1.00892 0
M  V30 18140 C 1743.63 -2.23583 0.572636 0
M  V30 18141 C 1744.6 -1.61129 -0.403324 0
M  V30 18142 O 1745.78 -1.88355 -0.304491 0
M  V30 18143 C 1742.92 -3.44981 -0.0906539 0
M  V30 18144 C 1742.03 -4.21894 0.928953 0
M  V30 18145 C 1741.17 -5.30669 0.237516 0
M  V30 18146 C 1740.21 -5.99317 1.24441 0
M  V30 18147 N 1739.35 -6.99699 0.580172 0
M  V30 18148 H 1744.19 -2.60263 1.45146 0
M  V30 18149 H 1741.72 -1.27895 0.72673 0
M  V30 18150 H 1743.68 -4.14285 -0.492281 0
M  V30 18151 H 1742.31 -3.09017 -0.933169 0
M  V30 18152 H 1741.36 -3.5173 1.4488 0
M  V30 18153 H 1742.67 -4.69116 1.69503 0
M  V30 18154 H 1741.83 -6.06301 -0.220013 0
M  V30 18155 H 1740.57 -4.84463 -0.560937 0
M  V30 18156 H 1739.57 -5.22453 1.7124 0
M  V30 18157 H 1740.8 -6.47609 2.04401 0
M  V30 18158 H 1738.74 -6.55699 -0.198553 0
M  V30 18159 H 1738.66 -7.45009 1.28444 0
M  V30 18160 H 1739.93 -7.79363 0.145977 0
M  V30 18161 N 1744.16 -0.784156 -1.36707 0
M  V30 18162 C 1745.11 -0.166827 -2.32001 0
M  V30 18163 C 1746.1 0.670916 -1.55548 0
M  V30 18164 O 1747.31 0.566588 -1.7085 0
M  V30 18165 H 1743.68 -0.0351691 -0.751177 0
M  V30 18166 H 1745.65 -0.986074 -2.81637 0
M  V30 18167 C 1744.4 0.6881 -3.40823 0
M  V30 18168 H 1743.72 0.0528343 -3.99765 0
M  V30 18169 H 1745.16 1.08681 -4.09835 0
M  V30 18170 C 1743.62 1.84408 -2.81949 0
M  V30 18171 O 1744.15 2.94034 -2.73691 0
M  V30 18172 N 1742.36 1.64855 -2.39314 0
M  V30 18173 H 1741.91 0.756867 -2.4623 0
M  V30 18174 H 1741.86 2.42363 -2.00268 0
M  V30 18175 N 1745.64 1.48215 -0.535727 0
M  V30 18176 C 1746.57 2.3253 0.212562 0
M  V30 18177 C 1747.55 1.42454 0.929568 0
M  V30 18178 O 1748.73 1.71334 0.914228 0
M  V30 18179 C 1745.86 3.23777 1.25641 0
M  V30 18180 C 1744.82 4.22924 0.657191 0
M  V30 18181 C 1744.14 5.03345 1.80411 0
M  V30 18182 C 1745.44 5.20953 -0.374902 0
M  V30 18183 H 1747.14 2.95341 -0.491301 0
M  V30 18184 H 1744.68 1.42024 -0.237718 0
M  V30 18185 H 1746.64 3.81592 1.78789 0
M  V30 18186 H 1745.36 2.58978 1.98993 0
M  V30 18187 H 1744.02 3.66304 0.147184 0
M  V30 18188 H 1743.67 4.34965 2.52615 0
M  V30 18189 H 1743.37 5.70455 1.40906 0
M  V30 18190 H 1744.89 5.64013 2.33926 0
M  V30 18191 H 1746.3 5.73258 0.0697072 0
M  V30 18192 H 1744.7 5.96147 -0.687646 0
M  V30 18193 H 1745.77 4.67739 -1.27861 0
M  V30 18194 N 1747.11 0.27113 1.5525 0
M  V30 18195 C 1748.34 -0.34974 2.03618 0
M  V30 18196 C 1748.75 -1.5031 1.14907 0
M  V30 18197 O 1748.1 -1.82994 0.160886 0
M  V30 18198 C 1748.16 -0.89674 3.48136 0
M  V30 18199 C 1747.82 0.127473 4.56822 0
M  V30 18200 C 1748.82 0.945589 5.11229 0
M  V30 18201 C 1746.5 0.260562 5.01624 0
M  V30 18202 C 1748.5 1.88302 6.08951 0
M  V30 18203 C 1746.18 1.20147 5.99173 0
M  V30 18204 C 1747.18 2.01121 6.52717 0
M  V30 18205 O 1746.87 2.93621 7.48359 0
M  V30 18206 H 1746.6 -0.0843491 0.670717 0
M  V30 18207 H 1749.16 0.399804 2.01471 0
M  V30 18208 H 1747.39 -1.69628 3.4751 0
M  V30 18209 H 1749.08 -1.43027 3.79866 0
M  V30 18210 H 1749.84 0.853483 4.77431 0
M  V30 18211 H 1745.72 -0.359689 4.59595 0
M  V30 18212 H 1749.26 2.51545 6.50669 0
M  V30 18213 H 1745.16 1.29441 6.32389 0
M  V30 18214 H 1745.93 2.88258 7.66061 0
M  V30 18215 N 1748.59 -1.576 -0.00164943 0
M  V30 18216 C 1749.87 -1.81716 -0.723788 0
M  V30 18217 C 1750.25 -0.875694 -1.9208 0
M  V30 18218 O 1749.6 0.0759629 -2.28374 0
M  V30 18219 C 1749.81 -3.30164 -1.13106 0
M  V30 18220 C 1751.16 -3.95859 -1.5356 0
M  V30 18221 O 1752.18 -3.34477 -1.2249 0
M  V30 18222 O 1751.04 -5.03986 -2.1133 0
M  V30 18223 H 1748.13 -0.748213 -0.352287 0
M  V30 18224 H 1750.68 -1.69683 0.0236782 0
M  V30 18225 H 1749.45 -3.90313 -0.277771 0
M  V30 18226 H 1749.07 -3.47188 -1.93768 0
M  V30 18227 N 1750.07 0.274379 -1.55193 0
M  V30 18228 C 1751.02 1.33913 -1.87978 0
M  V30 18229 C 1751.99 1.49142 -0.731149 0
M  V30 18230 O 1753.17 1.63572 -0.98229 0
M  V30 18231 C 1750.31 2.69464 -2.156 0
M  V30 18232 C 1749.43 2.62468 -3.43125 0
M  V30 18233 C 1748.56 3.90188 -3.60453 0
M  V30 18234 C 1747.6 3.77697 -4.81675 0
M  V30 18235 N 1746.74 4.97249 -4.95669 0
M  V30 18236 H 1751.58 1.05254 -2.78793 0
M  V30 18237 H 1749.11 0.508532 -1.3803 0
M  V30 18238 H 1751.07 3.48329 -2.29614 0
M  V30 18239 H 1749.7 2.96328 -1.28021 0
M  V30 18240 H 1748.75 1.7532 -3.3759 0
M  V30 18241 H 1750.07 2.49137 -4.32125 0
M  V30 18242 H 1749.22 4.77495 -3.74277 0
M  V30 18243 H 1747.96 4.06384 -2.69635 0
M  V30 18244 H 1746.96 2.88774 -4.67857 0
M  V30 18245 H 1748.19 3.63022 -5.73927 0
M  V30 18246 H 1746.13 5.13858 -4.07781 0
M  V30 18247 H 1746.05 4.86444 -5.78712 0
M  V30 18248 H 1747.32 5.86132 -5.13877 0
M  V30 18249 N 1751.55 1.48103 0.538828 0
M  V30 18250 C 1752.48 1.64856 1.65363 0
M  V30 18251 C 1753.46 0.497579 1.6266 0
M  V30 18252 O 1754.64 0.729088 1.79994 0
M  V30 18253 C 1751.77 1.67984 3.03971 0
M  V30 18254 C 1750.73 2.82494 3.21529 0
M  V30 18255 C 1750.05 2.70706 4.6111 0
M  V30 18256 C 1751.35 4.23892 3.05145 0
M  V30 18257 H 1753.05 2.58183 1.51598 0
M  V30 18258 H 1750.59 1.24249 0.727886 0
M  V30 18259 H 1752.55 1.78294 3.81824 0
M  V30 18260 H 1751.27 0.712299 3.18738 0
M  V30 18261 H 1749.93 2.71725 2.46091 0
M  V30 18262 H 1749.58 1.7194 4.727 0
M  V30 18263 H 1749.28 3.47539 4.73804 0
M  V30 18264 H 1750.8 2.82971 5.41073 0
M  V30 18265 H 1752.22 4.3554 3.72797 0
M  V30 18266 H 1750.61 5.01654 3.29338 0
M  V30 18267 H 1751.68 4.40973 2.01671 0
M  V30 18268 N 1753.03 -0.787016 1.36542 0
M  V30 18269 C 1754.27 -1.54728 1.311 0
M  V30 18270 C 1754.61 -1.93895 -0.108853 0
M  V30 18271 O 1753.88 -1.62896 -1.06278 0
M  V30 18272 C 1754.16 -2.82272 2.23594 0
M  V30 18273 C 1754.02 -2.49457 3.74287 0
M  V30 18274 C 1755.34 -3.84112 2.14816 0
M  V30 18275 H 1752.45 -0.561347 0.477555 0
M  V30 18276 H 1755.1 -0.904027 1.67115 0
M  V30 18277 H 1753.25 -3.37163 1.93011 0
M  V30 18278 H 1754.92 -2.00599 4.15401 0
M  V30 18279 H 1753.16 -1.82366 3.93605 0
M  V30 18280 H 1753.83 -3.40563 4.3442 0
M  V30 18281 H 1756.31 -3.38674 2.41741 0
M  V30 18282 H 1755.18 -4.71101 2.817 0
M  V30 18283 H 1755.45 -4.2725 1.13621 0
M  V30 18284 N 1754.5 -1.20861 -1.01145 0
M  V30 18285 C 1755.73 -1.04843 -1.78949 0
M  V30 18286 C 1756.15 0.397676 -1.83848 0
M  V30 18287 O 1755.51 1.28663 -1.27733 0
M  V30 18288 C 1755.56 -1.64267 -3.21012 0
M  V30 18289 O 1754.66 -0.883773 -4.02819 0
M  V30 18290 H 1754.01 -0.36941 -0.551754 0
M  V30 18291 H 1756.54 -1.60266 -1.27185 0
M  V30 18292 H 1756.55 -1.68218 -3.71708 0
M  V30 18293 H 1755.22 -2.69509 -3.16761 0
M  V30 18294 H 1753.8 -0.918866 -3.61402 0
M  V30 18295 N 1755.98 1.20536 -1.01532 0
M  V30 18296 C 1757.21 1.94393 -0.722908 0
M  V30 18297 C 1757.63 1.74191 0.709857 0
M  V30 18298 O 1756.99 1.03538 1.48827 0
M  V30 18299 C 1757.04 3.44597 -1.06231 0
M  V30 18300 O 1756.14 4.12036 -0.173286 0
M  V30 18301 H 1755.48 0.607361 -0.268345 0
M  V30 18302 H 1758.01 1.53003 -1.35835 0
M  V30 18303 H 1758.02 3.95212 -1.01348 0
M  V30 18304 H 1756.7 3.58624 -2.10621 0
M  V30 18305 H 1755.28 3.71851 -0.27953 0
M  V30 18306 N 1757.46 0.791395 1.36289 0
M  V30 18307 C 1758.71 0.364702 1.99189 0
M  V30 18308 C 1759.04 -1.06414 1.62808 0
M  V30 18309 O 1758.29 -1.75019 0.875611 0
M  V30 18310 C 1758.59 0.477795 3.54192 0
M  V30 18311 C 1758.26 1.86773 4.10398 0
M  V30 18312 C 1756.92 2.24802 4.25461 0
M  V30 18313 C 1759.27 2.77776 4.4101 0
M  V30 18314 C 1756.6 3.53233 4.68448 0
M  V30 18315 C 1758.95 4.05636 4.8543 0
M  V30 18316 C 1757.61 4.43685 4.98698 0
M  V30 18317 H 1756.88 0.133454 0.728883 0
M  V30 18318 H 1759.53 1.00924 1.62747 0
M  V30 18319 H 1757.84 -0.250238 3.91 0
M  V30 18320 H 1759.53 0.12865 4.00794 0
M  V30 18321 H 1756.12 1.56221 3.99115 0
M  V30 18322 H 1760.31 2.49648 4.2894 0
M  V30 18323 H 1755.56 3.82581 4.76908 0
M  V30 18324 H 1759.74 4.76264 5.0808 0
M  V30 18325 H 1757.36 5.43258 5.31766 0
M  V30 18326 N 1758.94 -1.47929 0.54358 0
M  V30 18327 C 1759.87 -2.3264 -0.200228 0
M  V30 18328 C 1760.85 -1.42945 -0.922 0
M  V30 18329 O 1762.04 -1.71817 -0.905129 0
M  V30 18330 C 1759.17 -3.24439 -1.23922 0
M  V30 18331 C 1758.12 -4.23267 -0.634753 0
M  V30 18332 C 1757.45 -5.04295 -1.77739 0
M  V30 18333 C 1758.75 -5.20747 0.402524 0
M  V30 18334 H 1760.44 -2.95077 0.506957 0
M  V30 18335 H 1757.99 -1.41896 0.245246 0
M  V30 18336 H 1759.94 -3.82535 -1.76763 0
M  V30 18337 H 1758.66 -2.60029 -1.97616 0
M  V30 18338 H 1757.32 -3.66377 -0.127756 0
M  V30 18339 H 1756.97 -4.36299 -2.50304 0
M  V30 18340 H 1756.67 -5.71195 -1.37879 0
M  V30 18341 H 1758.19 -5.65246 -2.30932 0
M  V30 18342 H 1759.61 -5.73287 -0.039305 0
M  V30 18343 H 1758 -5.95774 0.719251 0
M  V30 18344 H 1759.07 -4.67054 1.3034 0
M  V30 18345 N 1760.42 -0.27936 -1.55104 0
M  V30 18346 C 1761.33 0.616249 -2.26361 0
M  V30 18347 C 1762.34 1.16656 -1.29102 0
M  V30 18348 O 1763.52 1.19596 -1.62046 0
M  V30 18349 C 1760.58 1.78191 -2.97403 0
M  V30 18350 C 1759.65 1.26785 -4.10151 0
M  V30 18351 C 1758.88 2.37795 -4.77796 0
M  V30 18352 O 1759.1 3.57242 -4.44673 0
M  V30 18353 O 1758.04 2.05711 -5.65656 0
M  V30 18354 H 1761.86 0.0388715 -3.03675 0
M  V30 18355 H 1759.45 -0.0466058 -1.49327 0
M  V30 18356 H 1761.33 2.4615 -3.42036 0
M  V30 18357 H 1760 2.3463 -2.23003 0
M  V30 18358 H 1758.91 0.554608 -3.69966 0
M  V30 18359 H 1760.24 0.749157 -4.86465 0
M  V30 18360 N 1761.9 1.57599 -0.0067085 0
M  V30 18361 C 1762.83 2.04302 1.01665 0
M  V30 18362 C 1763.81 0.934217 1.33083 0
M  V30 18363 O 1764.99 1.20285 1.45133 0
M  V30 18364 C 1762.12 2.44627 2.34255 0
M  V30 18365 C 1761.16 3.66307 2.18453 0
M  V30 18366 S 1762 5.13937 1.50428 0
M  V30 18367 C 1763.15 5.57538 2.84434 0
M  V30 18368 H 1763.39 2.90784 0.619005 0
M  V30 18369 H 1760.92 1.53042 0.204354 0
M  V30 18370 H 1762.88 2.68527 3.10489 0
M  V30 18371 H 1761.54 1.58531 2.71158 0
M  V30 18372 H 1760.73 3.92295 3.16419 0
M  V30 18373 H 1760.33 3.42443 1.50363 0
M  V30 18374 H 1762.62 5.60408 3.80722 0
M  V30 18375 H 1763.57 6.57392 2.63138 0
M  V30 18376 H 1763.98 4.85119 2.88651 0
M  V30 18377 N 1763.37 -0.266145 1.55336 0
M  V30 18378 C 1764.32 -1.32914 1.88686 0
M  V30 18379 C 1765.29 -1.48752 0.739048 0
M  V30 18380 O 1766.48 -1.63048 0.990951 0
M  V30 18381 C 1763.62 -2.68317 2.17026 0
M  V30 18382 C 1762.73 -2.60644 3.44512 0
M  V30 18383 C 1761.86 -3.88271 3.62517 0
M  V30 18384 C 1760.9 -3.75137 4.83672 0
M  V30 18385 N 1760.04 -4.94614 4.98299 0
M  V30 18386 H 1764.88 -1.03774 2.79347 0
M  V30 18387 H 1762.42 -0.501205 1.38298 0
M  V30 18388 H 1764.37 -3.47107 2.31458 0
M  V30 18389 H 1763 -2.95645 1.29591 0
M  V30 18390 H 1762.06 -1.73527 3.38515 0
M  V30 18391 H 1763.37 -2.46842 4.3344 0
M  V30 18392 H 1762.52 -4.75503 3.76804 0
M  V30 18393 H 1761.26 -4.04949 2.71787 0
M  V30 18394 H 1760.27 -2.86289 4.69381 0
M  V30 18395 H 1761.49 -3.59973 5.75844 0
M  V30 18396 H 1759.44 -5.11689 4.10501 0
M  V30 18397 H 1759.35 -4.83369 5.81284 0
M  V30 18398 H 1760.62 -5.83399 5.16978 0
M  V30 18399 N 1764.85 -1.48386 -0.530967 0
M  V30 18400 C 1766.08 -1.60269 -1.31638 0
M  V30 18401 C 1766.5 -0.262789 -1.86255 0
M  V30 18402 O 1765.86 0.765389 -1.64352 0
M  V30 18403 C 1765.91 -2.65163 -2.44379 0
M  V30 18404 O 1765.01 -2.22254 -3.47386 0
M  V30 18405 H 1764.35 -0.537456 -0.38992 0
M  V30 18406 H 1766.88 -1.94366 -0.639 0
M  V30 18407 H 1766.89 -2.86405 -2.90579 0
M  V30 18408 H 1765.57 -3.62439 -2.03987 0
M  V30 18409 H 1764.14 -2.11221 -3.07311 0
M  V30 18410 N 1766.33 0.779763 -1.36958 0
M  V30 18411 C 1767.24 1.92394 -1.34245 0
M  V30 18412 C 1768.26 1.72292 -0.243187 0
M  V30 18413 O 1769.43 1.95665 -0.477211 0
M  V30 18414 C 1766.5 3.27402 -1.14057 0
M  V30 18415 C 1765.56 3.60213 -2.33548 0
M  V30 18416 C 1764.79 4.88779 -2.14314 0
M  V30 18417 O 1765.01 5.59231 -1.12327 0
M  V30 18418 O 1763.95 5.20469 -3.02316 0
M  V30 18419 H 1767.77 1.97633 -2.30596 0
M  V30 18420 H 1765.36 0.921386 -1.17605 0
M  V30 18421 H 1767.24 4.08172 -1.04755 0
M  V30 18422 H 1765.92 3.23033 -0.207744 0
M  V30 18423 H 1764.82 2.7971 -2.48421 0
M  V30 18424 H 1766.16 3.69317 -3.25371 0
M  V30 18425 N 1767.81 1.21396 1.00503 0
M  V30 18426 C 1768.75 0.973198 2.09279 0
M  V30 18427 C 1769.72 -0.100797 1.65794 0
M  V30 18428 O 1770.91 0.0463185 1.90744 0
M  V30 18429 C 1768.05 0.543941 3.40786 0
M  V30 18430 C 1767.16 1.68737 3.97683 0
M  V30 18431 C 1766.3 1.20728 5.17299 0
M  V30 18432 C 1765.34 2.32305 5.66305 0
M  V30 18433 N 1764.47 1.8543 6.77171 0
M  V30 18434 H 1769.31 1.90441 2.29208 0
M  V30 18435 H 1766.85 0.949082 1.12387 0
M  V30 18436 H 1768.81 0.276311 4.16284 0
M  V30 18437 H 1767.44 -0.350263 3.20894 0
M  V30 18438 H 1766.49 2.06964 3.19171 0
M  V30 18439 H 1767.8 2.5271 4.30045 0
M  V30 18440 H 1766.96 0.896312 6.00043 0
M  V30 18441 H 1765.7 0.3376 4.8653 0
M  V30 18442 H 1764.7 2.64205 4.82158 0
M  V30 18443 H 1765.93 3.19769 5.99103 0
M  V30 18444 H 1763.87 1.00806 6.48208 0
M  V30 18445 H 1763.79 2.62976 7.08788 0
M  V30 18446 H 1765.06 1.57366 7.6345 0
M  V30 18447 N 1769.29 -1.19996 1.0217 0
M  V30 18448 C 1770.22 -2.22392 0.55446 0
M  V30 18449 C 1771.23 -1.58636 -0.36586 0
M  V30 18450 O 1772.42 -1.77751 -0.163394 0
M  V30 18451 C 1769.52 -3.38235 -0.212234 0
M  V30 18452 C 1768.69 -4.31578 0.711253 0
M  V30 18453 C 1767.75 -5.26199 -0.00876314 0
M  V30 18454 O 1766.78 -5.65863 0.615435 0
M  V30 18455 N 1767.98 -5.66169 -1.28192 0
M  V30 18456 H 1770.74 -2.63107 1.43509 0
M  V30 18457 H 1768.31 -1.34589 0.899853 0
M  V30 18458 H 1770.3 -3.98542 -0.703282 0
M  V30 18459 H 1768.87 -2.96369 -0.994205 0
M  V30 18460 H 1768.09 -3.69161 1.38252 0
M  V30 18461 H 1769.38 -4.90861 1.33915 0
M  V30 18462 H 1768.77 -5.35966 -1.8099 0
M  V30 18463 H 1767.33 -6.28762 -1.7176 0
M  V30 18464 N 1770.76 -0.798611 -1.35867 0
M  V30 18465 C 1772.01 -0.375816 -1.99287 0
M  V30 18466 C 1772.34 1.05223 -1.63223 0
M  V30 18467 O 1771.62 1.72862 -0.891576 0
M  V30 18468 C 1771.9 -0.550197 -3.55872 0
M  V30 18469 C 1771.75 -2.0226 -4.0176 0
M  V30 18470 C 1773.07 0.0290862 -4.4009 0
M  V30 18471 H 1770.19 -0.138024 -0.72396 0
M  V30 18472 H 1772.83 -1.00666 -1.61141 0
M  V30 18473 H 1770.98 -0.0131739 -3.88498 0
M  V30 18474 H 1772.66 -2.62139 -3.7958 0
M  V30 18475 H 1770.9 -2.52191 -3.52962 0
M  V30 18476 H 1771.57 -2.09553 -5.10678 0
M  V30 18477 H 1774.05 -0.429444 -4.13878 0
M  V30 18478 H 1772.92 -0.122894 -5.48762 0
M  V30 18479 H 1773.18 1.12206 -4.27624 0
M  V30 18480 N 1772.24 1.47639 -0.551417 0
M  V30 18481 C 1773.15 2.33722 0.202799 0
M  V30 18482 C 1774.17 1.47832 0.917699 0
M  V30 18483 O 1775.34 1.80772 0.887885 0
M  V30 18484 C 1772.41 3.24408 1.22313 0
M  V30 18485 C 1771.47 4.26184 0.51628 0
M  V30 18486 C 1770.7 5.12537 1.488 0
M  V30 18487 O 1770.93 5.01241 2.72238 0
M  V30 18488 O 1769.86 5.93269 1.01566 0
M  V30 18489 H 1773.69 2.99503 -0.50317 0
M  V30 18490 H 1771.27 1.46104 -0.312093 0
M  V30 18491 H 1773.15 3.80441 1.81225 0
M  V30 18492 H 1771.83 2.61262 1.91112 0
M  V30 18493 H 1770.73 3.73927 -0.113886 0
M  V30 18494 H 1772.07 4.92028 -0.130158 0
M  V30 18495 N 1773.72 0.287581 1.54954 0
M  V30 18496 C 1774.65 -0.62789 2.20432 0
M  V30 18497 C 1775.67 -1.10792 1.19286 0
M  V30 18498 O 1776.85 -1.02768 1.45949 0
M  V30 18499 C 1773.95 -1.86998 2.82639 0
M  V30 18500 C 1773.13 -1.53469 4.09592 0
M  V30 18501 C 1772.19 -2.63053 4.5573 0
M  V30 18502 O 1771.21 -2.28712 5.21229 0
M  V30 18503 N 1772.41 -3.93348 4.26917 0
M  V30 18504 H 1775.18 -0.067416 2.99624 0
M  V30 18505 H 1772.74 0.109205 1.61531 0
M  V30 18506 H 1774.73 -2.59629 3.10443 0
M  V30 18507 H 1773.3 -2.33919 2.07366 0
M  V30 18508 H 1772.52 -0.641635 3.88943 0
M  V30 18509 H 1773.81 -1.28587 4.92283 0
M  V30 18510 H 1773.21 -4.24063 3.74415 0
M  V30 18511 H 1771.77 -4.62318 4.59462 0
M  V30 18512 N 1775.2 -1.57593 0.0150662 0
M  V30 18513 C 1776.15 -2.0936 -0.971443 0
M  V30 18514 C 1777.12 -0.992416 -1.33193 0
M  V30 18515 O 1778.3 -1.26577 -1.42769 0
M  V30 18516 C 1775.44 -2.61386 -2.25324 0
M  V30 18517 C 1774.55 -3.85462 -1.95046 0
M  V30 18518 C 1773.69 -4.25934 -3.17418 0
M  V30 18519 C 1772.73 -5.42805 -2.82894 0
M  V30 18520 N 1771.86 -5.78499 -3.97848 0
M  V30 18521 H 1776.7 -2.93373 -0.523068 0
M  V30 18522 H 1774.24 -1.45018 -0.246605 0
M  V30 18523 H 1776.2 -2.89635 -3.00279 0
M  V30 18524 H 1774.83 -1.80225 -2.67804 0
M  V30 18525 H 1773.88 -3.64029 -1.10394 0
M  V30 18526 H 1775.19 -4.70505 -1.6561 0
M  V30 18527 H 1774.35 -4.55544 -4.00705 0
M  V30 18528 H 1773.09 -3.3963 -3.50004 0
M  V30 18529 H 1772.09 -5.12903 -1.98016 0
M  V30 18530 H 1773.32 -6.30797 -2.51539 0
M  V30 18531 H 1771.26 -4.95152 -4.30303 0
M  V30 18532 H 1771.18 -6.5815 -3.71988 0
M  V30 18533 H 1772.45 -6.12708 -4.8188 0
M  V30 18534 N 1776.68 0.257904 -1.55475 0
M  V30 18535 C 1777.93 0.985329 -1.75995 0
M  V30 18536 C 1778.24 1.86898 -0.57694 0
M  V30 18537 O 1779.44 2.63233 -0.664893 0
M  V30 18538 C 1777.9 1.80195 -3.11541 0
M  V30 18539 C 1777.51 0.966227 -4.37456 0
M  V30 18540 C 1779.25 2.52277 -3.41404 0
M  V30 18541 C 1777.16 1.7781 -5.64037 0
M  V30 18542 H 1776.09 0.371623 -0.656058 0
M  V30 18543 H 1778.74 0.240396 -1.81919 0
M  V30 18544 H 1777.12 2.58841 -2.99695 0
M  V30 18545 H 1778.3 0.222865 -4.60261 0
M  V30 18546 H 1776.61 0.359255 -4.14847 0
M  V30 18547 H 1779.21 3.13451 -4.33189 0
M  V30 18548 H 1779.55 3.23333 -2.62224 0
M  V30 18549 H 1780.08 1.80649 -3.54416 0
M  V30 18550 H 1776.82 1.11147 -6.46008 0
M  V30 18551 H 1776.34 2.49703 -5.45352 0
M  V30 18552 H 1778.02 2.348 -6.02891 0
M  V30 18553 N 1778.15 1.48666 0.52309 0
M  V30 18554 C 1779.12 1.63211 1.60919 0
M  V30 18555 C 1780.12 0.505012 1.52664 0
M  V30 18556 O 1781.31 0.770967 1.56211 0
M  V30 18557 C 1778.44 1.60878 3.00551 0
M  V30 18558 H 1779.63 2.60061 1.4936 0
M  V30 18559 H 1777.19 1.37366 0.745674 0
M  V30 18560 H 1777.92 0.655306 3.1761 0
M  V30 18561 H 1777.71 2.4271 3.07952 0
M  V30 18562 H 1779.2 1.74263 3.79502 0
M  V30 18563 N 1779.63 -0.772489 1.37369 0
M  V30 18564 C 1780.54 -1.91679 1.35263 0
M  V30 18565 C 1781.56 -1.72161 0.252321 0
M  V30 18566 O 1782.73 -1.95409 0.487581 0
M  V30 18567 C 1779.8 -3.26792 1.15792 0
M  V30 18568 C 1778.86 -3.5897 2.35455 0
M  V30 18569 C 1778.09 -4.87636 2.16903 0
M  V30 18570 O 1778.32 -5.58627 1.15291 0
M  V30 18571 O 1777.25 -5.18859 3.05072 0
M  V30 18572 H 1781.08 -1.96408 2.31641 0
M  V30 18573 H 1778.66 -0.915136 1.18092 0
M  V30 18574 H 1780.54 -4.07611 1.06918 0
M  V30 18575 H 1779.22 -3.22918 0.224872 0
M  V30 18576 H 1778.13 -2.78389 2.49901 0
M  V30 18577 H 1779.46 -3.67586 3.27325 0
M  V30 18578 N 1781.11 -1.21927 -0.998575 0
M  V30 18579 C 1782.36 -1.03456 -1.73147 0
M  V30 18580 C 1782.67 0.431472 -1.90782 0
M  V30 18581 O 1783.88 0.73573 -2.61341 0
M  V30 18582 C 1782.33 -1.80256 -3.11506 0
M  V30 18583 C 1781.94 -3.31071 -3.01821 0
M  V30 18584 C 1783.69 -1.70214 -3.8888 0
M  V30 18585 C 1781.59 -4.00335 -4.35299 0
M  V30 18586 H 1780.52 -0.3835 -0.649187 0
M  V30 18587 H 1783.17 -1.45724 -1.11521 0
M  V30 18588 H 1781.56 -1.30784 -3.7378 0
M  V30 18589 H 1782.73 -3.87895 -2.48746 0
M  V30 18590 H 1781.05 -3.41727 -2.37932 0
M  V30 18591 H 1783.64 -2.19289 -4.87664 0
M  V30 18592 H 1783.99 -0.661522 -4.1101 0
M  V30 18593 H 1784.52 -2.17199 -3.33271 0
M  V30 18594 H 1781.26 -5.04626 -4.18369 0
M  V30 18595 H 1780.78 -3.48301 -4.8831 0
M  V30 18596 H 1782.46 -4.05611 -5.04072 0
M  V30 18597 N 1782.59 1.19452 -1.02805 0
M  V30 18598 C 1784 1.70804 -0.753845 0
M  V30 18599 C 1784.35 1.8225 0.726584 0
M  V30 18600 O 1783.48 1.49307 1.56641 0
M  V30 18601 C 1784.07 3.10227 -1.36178 0
M  V30 18602 C 1782.63 3.58842 -1.13618 0
M  V30 18603 C 1781.78 2.3573 -1.46036 0
M  V30 18604 H 1784.73 1.04305 -1.19608 0
M  V30 18605 H 1784.75 3.72867 -0.758315 0
M  V30 18606 H 1784.26 3.01864 -2.43925 0
M  V30 18607 H 1782.36 3.72521 -0.0768914 0
M  V30 18608 H 1782.47 4.43008 -1.82431 0
M  V30 18609 H 1780.84 2.39027 -0.879669 0
M  V30 18610 H 1781.62 2.29998 -2.54864 0
M  V30 18611 N 1784.07 0.805805 1.35442 0
M  V30 18612 C 1785.01 0.213632 2.29809 0
M  V30 18613 C 1785.98 -0.651878 1.52774 0
M  V30 18614 O 1787.17 -0.597124 1.81216 0
M  V30 18615 C 1784.31 -0.632444 3.39255 0
M  V30 18616 C 1783.42 0.253414 4.31256 0
M  V30 18617 C 1782.56 -0.600593 5.27794 0
M  V30 18618 C 1781.6 0.285712 6.11433 0
M  V30 18619 N 1780.73 -0.528222 7.0011 0
M  V30 18620 H 1785.57 1.02378 2.79862 0
M  V30 18621 H 1783.11 0.516397 1.37738 0
M  V30 18622 H 1785.07 -1.13814 4.01376 0
M  V30 18623 H 1783.7 -1.40786 2.90481 0
M  V30 18624 H 1782.75 0.877202 3.70148 0
M  V30 18625 H 1784.06 0.935631 4.89946 0
M  V30 18626 H 1783.22 -1.17145 5.95283 0
M  V30 18627 H 1781.95 -1.31638 4.69598 0
M  V30 18628 H 1780.96 0.868843 5.42891 0
M  V30 18629 H 1782.18 0.999349 6.71707 0
M  V30 18630 H 1780.13 -1.228 6.44404 0
M  V30 18631 H 1780.05 0.0959658 7.55939 0
M  V30 18632 H 1781.32 -1.08238 7.71949 0
M  V30 18633 N 1785.54 -1.47344 0.559239 0
M  V30 18634 C 1786.45 -2.33826 -0.190402 0
M  V30 18635 C 1787.47 -1.48317 -0.909846 0
M  V30 18636 O 1788.65 -1.8124 -0.878286 0
M  V30 18637 C 1785.71 -3.25052 -1.20591 0
M  V30 18638 C 1784.77 -4.26452 -0.493671 0
M  V30 18639 C 1784.01 -5.13319 -1.4608 0
M  V30 18640 O 1784.23 -5.02678 -2.69576 0
M  V30 18641 O 1783.16 -5.93799 -0.984178 0
M  V30 18642 H 1786.99 -2.99232 0.519046 0
M  V30 18643 H 1784.57 -1.45936 0.319836 0
M  V30 18644 H 1786.46 -3.81397 -1.79205 0
M  V30 18645 H 1785.13 -2.62272 -1.89724 0
M  V30 18646 H 1784.04 -3.73861 0.133714 0
M  V30 18647 H 1785.37 -4.91952 0.15625 0
M  V30 18648 N 1787.02 -0.295795 -1.54799 0
M  V30 18649 C 1787.93 0.592206 -2.27002 0
M  V30 18650 C 1788.95 1.1528 -1.30332 0
M  V30 18651 O 1790.12 1.1787 -1.63305 0
M  V30 18652 C 1787.19 1.75027 -2.99277 0
M  V30 18653 C 1786.25 1.22427 -4.11473 0
M  V30 18654 C 1785.48 2.32714 -4.80291 0
M  V30 18655 O 1785.71 3.52506 -4.48437 0
M  V30 18656 O 1784.64 1.997 -5.67806 0
M  V30 18657 H 1788.47 0.00666048 -3.03699 0
M  V30 18658 H 1786.05 -0.0624413 -1.49269 0
M  V30 18659 H 1787.93 2.42508 -3.44627 0
M  V30 18660 H 1786.61 2.32252 -2.25479 0
M  V30 18661 H 1785.52 0.515337 -3.70534 0
M  V30 18662 H 1786.85 0.697518 -4.87233 0
M  V30 18663 N 1788.5 1.57583 -0.0234236 0
M  V30 18664 C 1789.75 1.91848 0.657422 0
M  V30 18665 C 1790.08 0.899633 1.72105 0
M  V30 18666 O 1789.36 -0.0784409 1.94342 0
M  V30 18667 C 1789.64 3.36617 1.2791 0
M  V30 18668 C 1789.49 4.49235 0.225421 0
M  V30 18669 C 1790.81 3.81239 2.19874 0
M  V30 18670 H 1787.93 0.697677 0.23752 0
M  V30 18671 H 1790.57 1.89834 -0.0795169 0
M  V30 18672 H 1788.72 3.38465 1.90719 0
M  V30 18673 H 1790.39 4.59521 -0.404792 0
M  V30 18674 H 1788.64 4.31462 -0.449749 0
M  V30 18675 H 1789.31 5.47545 0.699906 0
M  V30 18676 H 1791.78 3.81092 1.67058 0
M  V30 18677 H 1790.66 4.8324 2.60328 0
M  V30 18678 H 1790.92 3.16421 3.08755 0
M  V30 18679 N 1789.98 -0.249655 1.5561 0
M  V30 18680 C 1790.93 -1.30906 1.90085 0
M  V30 18681 C 1791.9 -1.4796 0.754784 0
M  V30 18682 O 1793.08 -1.61988 1.00819 0
M  V30 18683 C 1790.22 -2.66 2.19859 0
M  V30 18684 C 1789.33 -2.56976 3.47257 0
M  V30 18685 C 1788.47 -3.84404 3.66615 0
M  V30 18686 C 1787.51 -3.69986 4.87623 0
M  V30 18687 N 1786.65 -4.89301 5.03517 0
M  V30 18688 H 1791.49 -1.00805 2.80432 0
M  V30 18689 H 1789.02 -0.486509 1.38822 0
M  V30 18690 H 1790.98 -3.44632 2.35126 0
M  V30 18691 H 1789.61 -2.94254 1.32719 0
M  V30 18692 H 1788.66 -1.69927 3.40337 0
M  V30 18693 H 1789.97 -2.42231 4.36034 0
M  V30 18694 H 1789.13 -4.7148 3.81826 0
M  V30 18695 H 1787.87 -4.02043 2.76066 0
M  V30 18696 H 1786.87 -2.81294 4.72391 0
M  V30 18697 H 1788.1 -3.53845 5.7963 0
M  V30 18698 H 1786.04 -5.07306 4.15905 0
M  V30 18699 H 1785.96 -4.77176 5.86378 0
M  V30 18700 H 1787.23 -5.77883 5.23137 0
M  V30 18701 N 1791.46 -1.48941 -0.515198 0
M  V30 18702 C 1792.87 -1.51076 -1.09695 0
M  V30 18703 C 1793.22 -0.288875 -1.94062 0
M  V30 18704 O 1792.34 0.602665 -2.07839 0
M  V30 18705 C 1792.94 -2.73755 -1.99609 0
M  V30 18706 C 1791.5 -2.78714 -2.52974 0
M  V30 18707 C 1790.65 -2.44798 -1.30266 0
M  V30 18708 H 1793.6 -1.55843 -0.299757 0
M  V30 18709 H 1793.62 -2.53112 -2.84103 0
M  V30 18710 H 1793.13 -3.62668 -1.38178 0
M  V30 18711 H 1791.23 -1.94045 -3.18084 0
M  V30 18712 H 1791.34 -3.80525 -2.91097 0
M  V30 18713 H 1789.71 -1.9627 -1.62327 0
M  V30 18714 H 1790.49 -3.35969 -0.705648 0
M  V30 18715 N 1792.94 0.765193 -1.37777 0
M  V30 18716 C 1794.18 1.52397 -1.33347 0
M  V30 18717 C 1794.51 1.94335 0.0800559 0
M  V30 18718 O 1793.77 1.64847 1.05469 0
M  V30 18719 C 1794.06 2.79732 -2.22452 0
M  V30 18720 C 1793.73 2.56814 -3.70618 0
M  V30 18721 C 1792.39 2.50272 -4.10996 0
M  V30 18722 C 1794.74 2.36494 -4.64457 0
M  V30 18723 C 1792.07 2.2141 -5.43318 0
M  V30 18724 C 1794.42 2.09155 -5.97024 0
M  V30 18725 C 1793.09 2.01062 -6.36499 0
M  V30 18726 H 1792.36 0.55766 -0.487951 0
M  V30 18727 H 1795.01 0.880853 -1.70039 0
M  V30 18728 H 1793.31 3.48635 -1.78777 0
M  V30 18729 H 1795.01 3.37639 -2.16335 0
M  V30 18730 H 1791.6 2.62771 -3.38599 0
M  V30 18731 H 1795.78 2.40534 -4.34117 0
M  V30 18732 H 1791.04 2.13644 -5.72858 0
M  V30 18733 H 1795.21 1.92433 -6.69285 0
M  V30 18734 H 1792.84 1.78462 -7.38956 0
M  V30 18735 N 1794.41 1.22455 0.992094 0
M  V30 18736 C 1795.66 1.04373 1.72596 0
M  V30 18737 C 1795.98 -0.421349 1.91008 0
M  V30 18738 O 1797.18 -0.72186 2.61728 0
M  V30 18739 C 1795.64 1.81906 3.10545 0
M  V30 18740 C 1795.25 3.32667 3.00061 0
M  V30 18741 C 1796.99 1.72274 3.87972 0
M  V30 18742 C 1794.9 4.02638 4.3317 0
M  V30 18743 H 1793.83 0.386937 0.647144 0
M  V30 18744 H 1796.48 1.46313 1.10746 0
M  V30 18745 H 1794.86 1.32764 3.73081 0
M  V30 18746 H 1796.03 3.89208 2.46685 0
M  V30 18747 H 1794.35 3.42984 2.36117 0
M  V30 18748 H 1796.95 2.21872 4.86494 0
M  V30 18749 H 1797.29 0.68331 4.10654 0
M  V30 18750 H 1797.82 2.18963 3.32115 0
M  V30 18751 H 1794.56 5.06838 4.15687 0
M  V30 18752 H 1794.08 3.50885 4.86456 0
M  V30 18753 H 1795.76 4.08279 5.01914 0
M  V30 18754 N 1795.89 -1.18905 1.03437 0
M  V30 18755 C 1797.12 -1.92678 0.753853 0
M  V30 18756 C 1797.53 -1.75814 -0.688111 0
M  V30 18757 O 1796.89 -1.08363 -1.46846 0
M  V30 18758 C 1796.94 -3.44275 1.10258 0
M  V30 18759 O 1796.66 -3.60602 2.48793 0
M  V30 18760 C 1798.16 -4.35159 0.84566 0
M  V30 18761 H 1795.38 -0.611875 0.275408 0
M  V30 18762 H 1797.93 -1.50887 1.38034 0
M  V30 18763 H 1796.08 -3.83878 0.521177 0
M  V30 18764 H 1796.5 -4.54403 2.61951 0
M  V30 18765 H 1797.97 -5.40109 1.13958 0
M  V30 18766 H 1798.45 -4.3865 -0.219767 0
M  V30 18767 H 1799.05 -4.01245 1.41006 0
M  V30 18768 N 1797.37 -0.812977 -1.35013 0
M  V30 18769 C 1798.28 -0.229534 -2.33474 0
M  V30 18770 C 1799.3 0.630837 -1.62162 0
M  V30 18771 O 1800.47 0.541083 -1.93995 0
M  V30 18772 C 1797.54 0.607055 -3.41344 0
M  V30 18773 C 1796.6 -0.274554 -4.28421 0
M  V30 18774 C 1795.83 0.522202 -5.31139 0
M  V30 18775 O 1796.05 1.75636 -5.42686 0
M  V30 18776 O 1794.99 -0.0902666 -6.01832 0
M  V30 18777 H 1798.81 -1.04423 -2.85183 0
M  V30 18778 H 1796.4 -0.5749 -1.37896 0
M  V30 18779 H 1798.28 1.08335 -4.07236 0
M  V30 18780 H 1796.96 1.39924 -2.91895 0
M  V30 18781 H 1795.86 -0.798124 -3.65487 0
M  V30 18782 H 1797.2 -1.03084 -4.81284 0
M  V30 18783 N 1798.85 1.47045 -0.567045 0
M  V30 18784 C 1800.07 2.0734 -0.0498828 0
M  V30 18785 C 1800.5 1.41545 1.23881 0
M  V30 18786 O 1799.86 0.493798 1.74446 0
M  V30 18787 C 1799.9 3.60404 0.118782 0
M  V30 18788 O 1799.01 3.95186 1.17905 0
M  V30 18789 H 1798.35 0.661656 -0.055746 0
M  V30 18790 H 1800.88 1.8892 -0.78553 0
M  V30 18791 H 1800.89 4.06664 0.3299 0
M  V30 18792 H 1799.56 4.07688 -0.822409 0
M  V30 18793 H 1798.14 3.60658 0.947644 0
M  V30 18794 N 1800.33 0.304 1.5464 0
M  V30 18795 C 1801.27 -0.570762 2.23631 0
M  V30 18796 C 1802.24 -1.1272 1.21998 0
M  V30 18797 O 1803.43 -1.17117 1.50626 0
M  V30 18798 C 1800.57 -1.73533 2.98296 0
M  V30 18799 C 1799.68 -1.21 4.14708 0
M  V30 18800 C 1798.82 -2.33867 4.76948 0
M  V30 18801 C 1797.85 -1.78483 5.855 0
M  V30 18802 N 1796.99 -2.84935 6.41682 0
M  V30 18803 H 1801.83 0.024168 2.9799 0
M  V30 18804 H 1799.37 0.023697 1.47081 0
M  V30 18805 H 1801.33 -2.42031 3.39819 0
M  V30 18806 H 1799.96 -2.30184 2.26308 0
M  V30 18807 H 1799.01 -0.41718 3.78105 0
M  V30 18808 H 1800.32 -0.764576 4.92905 0
M  V30 18809 H 1799.47 -3.10306 5.21339 0
M  V30 18810 H 1798.21 -2.81737 3.9809 0
M  V30 18811 H 1797.22 -1.00534 5.4053 0
M  V30 18812 H 1798.44 -1.31513 6.66244 0
M  V30 18813 H 1796.39 -3.32133 5.65706 0
M  V30 18814 H 1796.31 -2.44898 7.15235 0
M  V30 18815 H 1797.57 -3.61263 6.90731 0
M  V30 18816 N 1801.8 -1.57568 0.0317802 0
M  V30 18817 C 1803.21 -1.79693 -0.506679 0
M  V30 18818 C 1803.57 -0.94229 -1.72091 0
M  V30 18819 O 1802.69 -0.153435 -2.15855 0
M  V30 18820 C 1803.29 -3.259 -0.925978 0
M  V30 18821 C 1801.84 -3.49012 -1.40953 0
M  V30 18822 C 1800.99 -2.74746 -0.375509 0
M  V30 18823 H 1803.94 -1.56592 0.257798 0
M  V30 18824 H 1803.96 -3.35757 -1.79017 0
M  V30 18825 H 1803.48 -3.88077 -0.0420441 0
M  V30 18826 H 1801.58 -2.9209 -2.31331 0
M  V30 18827 H 1801.69 -4.57725 -1.41508 0
M  V30 18828 H 1800.05 -2.40303 -0.844187 0
M  V30 18829 H 1800.84 -3.39639 0.500005 0
M  V30 18830 N 1803.28 0.241399 -1.5574 0
M  V30 18831 C 1804.51 0.99028 -1.82231 0
M  V30 18832 C 1804.93 1.77949 -0.609559 0
M  V30 18833 O 1804.29 1.75843 0.44148 0
M  V30 18834 C 1804.34 1.89947 -3.06516 0
M  V30 18835 O 1803.44 2.99201 -2.83818 0
M  V30 18836 H 1802.78 0.281488 -0.601382 0
M  V30 18837 H 1805.31 0.260721 -2.02932 0
M  V30 18838 H 1805.32 2.31308 -3.36096 0
M  V30 18839 H 1804 1.31924 -3.94422 0
M  V30 18840 H 1802.58 2.61929 -2.6542 0
M  V30 18841 N 1804.76 1.49212 0.507292 0
M  V30 18842 C 1806.01 1.58616 1.26368 0
M  V30 18843 C 1806.34 0.269215 1.92325 0
M  V30 18844 O 1805.61 -0.72672 1.80414 0
M  V30 18845 C 1805.9 2.74088 2.33555 0
M  V30 18846 C 1805.75 4.15557 1.7214 0
M  V30 18847 C 1807.07 2.85225 3.35164 0
M  V30 18848 H 1804.19 0.577347 0.458083 0
M  V30 18849 H 1806.83 1.81473 0.562797 0
M  V30 18850 H 1804.98 2.5473 2.93335 0
M  V30 18851 H 1806.65 4.46416 1.16236 0
M  V30 18852 H 1804.9 4.21498 1.02576 0
M  V30 18853 H 1805.57 4.92215 2.49856 0
M  V30 18854 H 1808.04 3.02828 2.85367 0
M  V30 18855 H 1806.92 3.67709 4.07531 0
M  V30 18856 H 1807.18 1.94316 3.97107 0
M  V30 18857 N 1806.24 -0.757876 1.38181 0
M  V30 18858 C 1807.15 -1.90234 1.37289 0
M  V30 18859 C 1808.16 -1.71883 0.270567 0
M  V30 18860 O 1809.34 -1.94881 0.508279 0
M  V30 18861 C 1806.41 -3.25546 1.19251 0
M  V30 18862 C 1805.47 -3.56452 2.39249 0
M  V30 18863 C 1804.7 -4.85308 2.22063 0
M  V30 18864 O 1804.92 -5.57373 1.2121 0
M  V30 18865 O 1803.86 -5.15594 3.10558 0
M  V30 18866 H 1807.68 -1.9394 2.33711 0
M  V30 18867 H 1805.27 -0.902559 1.19056 0
M  V30 18868 H 1807.15 -4.06454 1.11235 0
M  V30 18869 H 1805.82 -3.22661 0.259109 0
M  V30 18870 H 1804.73 -2.75723 2.52839 0
M  V30 18871 H 1806.06 -3.64094 3.31205 0
M  V30 18872 N 1807.72 -1.22979 -0.985586 0
M  V30 18873 C 1808.65 -0.964185 -2.07933 0
M  V30 18874 C 1809.66 0.0599162 -1.6269 0
M  V30 18875 O 1810.85 -0.174984 -1.7764 0
M  V30 18876 C 1807.95 -0.429879 -3.36163 0
M  V30 18877 C 1807.12 -1.51293 -4.10401 0
M  V30 18878 C 1806.18 -0.984411 -5.1691 0
M  V30 18879 O 1805.21 -1.67225 -5.44081 0
M  V30 18880 N 1806.41 0.190439 -5.80188 0
M  V30 18881 H 1809.18 -1.90582 -2.31297 0
M  V30 18882 H 1806.74 -1.13767 -1.15189 0
M  V30 18883 H 1808.73 -0.0614639 -4.04653 0
M  V30 18884 H 1807.3 0.417049 -3.09806 0
M  V30 18885 H 1806.52 -2.05434 -3.36438 0
M  V30 18886 H 1807.81 -2.24141 -4.56769 0
M  V30 18887 H 1807.2 0.765928 -5.60491 0
M  V30 18888 H 1805.76 0.500168 -6.49878 0
M  V30 18889 N 1809.19 1.18355 -1.04066 0
M  V30 18890 C 1810.61 1.40349 -0.759898 0
M  V30 18891 C 1810.81 1.90709 0.650574 0
M  V30 18892 O 1809.87 2.09142 1.41477 0
M  V30 18893 C 1811.18 2.40426 -1.80599 0
M  V30 18894 C 1812.73 2.54153 -1.8269 0
M  V30 18895 C 1813.2 3.57494 -2.8629 0
M  V30 18896 N 1814.69 3.65001 -2.85181 0
M  V30 18897 C 1815.43 4.44688 -3.61995 0
M  V30 18898 N 1814.92 5.27984 -4.48559 0
M  V30 18899 N 1816.72 4.39451 -3.50484 0
M  V30 18900 H 1808.87 0.839924 -1.95087 0
M  V30 18901 H 1811.13 0.431492 -0.844108 0
M  V30 18902 H 1810.84 2.10471 -2.81771 0
M  V30 18903 H 1810.71 3.39773 -1.63812 0
M  V30 18904 H 1813.1 2.83424 -0.821889 0
M  V30 18905 H 1813.18 1.54919 -2.03553 0
M  V30 18906 H 1812.82 3.28963 -3.8697 0
M  V30 18907 H 1812.75 4.56405 -2.62682 0
M  V30 18908 H 1815.24 3.05522 -2.22407 0
M  V30 18909 H 1815.56 5.85939 -5.0388 0
M  V30 18910 H 1813.9 5.27404 -4.52626 0
M  V30 18911 H 1817.09 3.73426 -2.8226 0
M  V30 18912 H 1817.27 5.01313 -4.10596 0
M  V30 18913 N 1810.67 0.820125 1.3458 0
M  V30 18914 C 1811.62 0.237994 2.2957 0
M  V30 18915 C 1812.59 -0.635637 1.53456 0
M  V30 18916 O 1813.77 -0.57787 1.81839 0
M  V30 18917 C 1810.91 -0.596426 3.39907 0
M  V30 18918 C 1810.03 0.29914 4.30963 0
M  V30 18919 C 1809.16 -0.54458 5.28401 0
M  V30 18920 C 1808.2 0.350546 6.11095 0
M  V30 18921 N 1807.34 -0.453936 7.00631 0
M  V30 18922 H 1812.18 1.0534 2.7876 0
M  V30 18923 H 1809.72 0.530977 1.37183 0
M  V30 18924 H 1811.67 -1.0955 4.0256 0
M  V30 18925 H 1810.3 -1.37697 2.91958 0
M  V30 18926 H 1809.36 0.916412 3.69196 0
M  V30 18927 H 1810.67 0.987544 4.88926 0
M  V30 18928 H 1809.82 -1.10825 5.96492 0
M  V30 18929 H 1808.56 -1.2665 4.70968 0
M  V30 18930 H 1807.57 0.926375 5.41939 0
M  V30 18931 H 1808.79 1.07054 6.70609 0
M  V30 18932 H 1806.74 -1.15958 6.4567 0
M  V30 18933 H 1806.65 0.176138 7.55795 0
M  V30 18934 H 1807.92 -1.00044 7.73053 0
M  V30 18935 N 1812.15 -1.46743 0.574835 0
M  V30 18936 C 1813.08 -2.2832 -0.20062 0
M  V30 18937 C 1814.1 -1.3805 -0.862898 0
M  V30 18938 O 1815.28 -1.6272 -0.733785 0
M  V30 18939 C 1812.38 -3.1285 -1.303 0
M  V30 18940 C 1811.56 -4.31195 -0.734153 0
M  V30 18941 C 1810.62 -4.97183 -1.72324 0
M  V30 18942 O 1809.64 -5.55025 -1.26239 0
M  V30 18943 N 1810.84 -4.93476 -3.05714 0
M  V30 18944 H 1813.61 -2.95513 0.499231 0
M  V30 18945 H 1811.17 -1.56568 0.412077 0
M  V30 18946 H 1813.16 -3.53861 -1.96378 0
M  V30 18947 H 1811.73 -2.47784 -1.90583 0
M  V30 18948 H 1810.95 -3.94063 0.103888 0
M  V30 18949 H 1812.24 -5.07704 -0.333751 0
M  V30 18950 H 1811.64 -4.47715 -3.45786 0
M  V30 18951 H 1810.2 -5.38453 -3.67304 0
M  V30 18952 N 1813.63 -0.312197 -1.54477 0
M  V30 18953 C 1814.91 0.347462 -1.92489 0
M  V30 18954 C 1815.29 1.70797 -1.24063 0
M  V30 18955 O 1814.63 2.25313 -0.380296 0
M  V30 18956 C 1814.84 0.450992 -3.46074 0
M  V30 18957 C 1816.19 0.716618 -4.18509 0
M  V30 18958 O 1817.22 0.534364 -3.52169 0
M  V30 18959 O 1816.07 1.06744 -5.35974 0
M  V30 18960 H 1813.17 0.196248 -0.803378 0
M  V30 18961 H 1815.71 -0.361078 -1.65814 0
M  V30 18962 H 1814.49 -0.504982 -3.88028 0
M  V30 18963 H 1814.11 1.20756 -3.78819 0
M  V30 18964 N 1815.11 1.57549 -0.040136 0
M  V30 18965 C 1816.38 1.83571 0.675355 0
M  V30 18966 C 1816.76 0.926313 1.89691 0
M  V30 18967 O 1816.11 -0.0153869 2.28495 0
M  V30 18968 C 1816.32 3.33046 1.04313 0
M  V30 18969 C 1817.67 3.99791 1.43011 0
M  V30 18970 O 1818.69 3.37607 1.13579 0
M  V30 18971 O 1817.55 5.09412 1.97893 0
M  V30 18972 H 1814.65 0.75729 0.332325 0
M  V30 18973 H 1817.19 1.69561 -0.0686584 0
M  V30 18974 H 1815.96 3.90912 0.174189 0
M  V30 18975 H 1815.59 3.52203 1.84495 0
M  V30 18976 N 1816.58 -0.233136 1.55866 0
M  V30 18977 C 1817.53 -1.28882 1.91463 0
M  V30 18978 C 1818.5 -1.47151 0.770435 0
M  V30 18979 O 1819.69 -1.6091 1.02531 0
M  V30 18980 C 1816.83 -2.63653 2.22668 0
M  V30 18981 C 1815.94 -2.53278 3.49963 0
M  V30 18982 C 1815.07 -3.80494 3.70672 0
M  V30 18983 C 1814.11 -3.64794 4.9152 0
M  V30 18984 N 1813.25 -4.83933 5.08678 0
M  V30 18985 H 1818.09 -0.978251 2.81486 0
M  V30 18986 H 1815.63 -0.471757 1.3933 0
M  V30 18987 H 1817.59 -3.42119 2.38769 0
M  V30 18988 H 1816.22 -2.9283 1.35833 0
M  V30 18989 H 1815.27 -1.66308 3.4212 0
M  V30 18990 H 1816.58 -2.37592 4.38579 0
M  V30 18991 H 1815.73 -4.67404 3.86806 0
M  V30 18992 H 1814.47 -3.99092 2.80315 0
M  V30 18993 H 1813.48 -2.76268 4.75348 0
M  V30 18994 H 1814.7 -3.47677 5.8335 0
M  V30 18995 H 1812.65 -5.02866 4.21262 0
M  V30 18996 H 1812.57 -4.7093 5.91406 0
M  V30 18997 H 1813.83 -5.72302 5.29236 0
M  V30 18998 N 1818.06 -1.49479 -0.499372 0
M  V30 18999 C 1819.01 -1.66268 -1.60073 0
M  V30 19000 C 1819.98 -0.504137 -1.58265 0
M  V30 19001 O 1821.17 -0.731358 -1.76227 0
M  V30 19002 C 1818.31 -1.73678 -2.98211 0
M  V30 19003 C 1817.42 -3.00848 -3.10023 0
M  V30 19004 C 1816.55 -2.99227 -4.38904 0
M  V30 19005 C 1815.59 -4.20969 -4.44355 0
M  V30 19006 N 1814.73 -4.17249 -5.64666 0
M  V30 19007 H 1819.57 -2.60308 -1.45065 0
M  V30 19008 H 1817.11 -1.29063 -0.705774 0
M  V30 19009 H 1819.06 -1.75956 -3.7828 0
M  V30 19010 H 1817.69 -0.831037 -3.11919 0
M  V30 19011 H 1816.75 -3.08175 -2.23008 0
M  V30 19012 H 1818.06 -3.90841 -3.09911 0
M  V30 19013 H 1817.21 -3.00076 -5.27294 0
M  V30 19014 H 1815.95 -2.07015 -4.41584 0
M  V30 19015 H 1814.96 -4.20362 -3.54366 0
M  V30 19016 H 1816.18 -5.14376 -4.4339 0
M  V30 19017 H 1814.13 -3.27875 -5.68185 0
M  V30 19018 H 1814.04 -5.00979 -5.66177 0
M  V30 19019 H 1815.31 -4.22203 -6.55259 0
M  V30 19020 N 1819.54 0.750537 -1.38581 0
M  V30 19021 C 1820.79 1.50512 -1.34272 0
M  V30 19022 C 1821.1 1.95496 0.0636858 0
M  V30 19023 O 1822.31 2.7053 0.22932 0
M  V30 19024 C 1820.77 2.71891 -2.35803 0
M  V30 19025 C 1820.37 2.3392 -3.8208 0
M  V30 19026 C 1822.12 3.4977 -2.40543 0
M  V30 19027 C 1820.02 3.51928 -4.7529 0
M  V30 19028 H 1818.95 0.56515 -0.49912 0
M  V30 19029 H 1821.61 0.820167 -1.64151 0
M  V30 19030 H 1819.99 3.42383 -1.98972 0
M  V30 19031 H 1821.16 1.71075 -4.27867 0
M  V30 19032 H 1819.48 1.69168 -3.80488 0
M  V30 19033 H 1822.07 4.37519 -3.07379 0
M  V30 19034 H 1822.42 3.91141 -1.42527 0
M  V30 19035 H 1822.95 2.86294 -2.76189 0
M  V30 19036 H 1819.69 3.15621 -5.74512 0
M  V30 19037 H 1819.21 4.13807 -4.34194 0
M  V30 19038 H 1820.89 4.1847 -4.93449 0
M  V30 19039 N 1821.02 1.235 0.979051 0
M  V30 19040 C 1821.97 1.01737 2.07167 0
M  V30 19041 C 1822.94 -0.0656067 1.6597 0
M  V30 19042 O 1824.12 0.0867676 1.90603 0
M  V30 19043 C 1821.26 0.616104 3.39556 0
M  V30 19044 C 1820.37 1.77135 3.94014 0
M  V30 19045 C 1819.51 1.31674 5.14622 0
M  V30 19046 C 1818.55 2.44265 5.6125 0
M  V30 19047 N 1817.69 1.99752 6.73085 0
M  V30 19048 H 1822.53 1.9526 2.25117 0
M  V30 19049 H 1820.06 0.972707 1.10349 0
M  V30 19050 H 1822.02 0.364549 4.15604 0
M  V30 19051 H 1820.65 -0.282117 3.21565 0
M  V30 19052 H 1819.7 2.13687 3.14709 0
M  V30 19053 H 1821.01 2.61775 4.24588 0
M  V30 19054 H 1820.17 1.02339 5.98006 0
M  V30 19055 H 1818.91 0.440724 4.85705 0
M  V30 19056 H 1817.91 2.74373 4.76445 0
M  V30 19057 H 1819.14 3.32405 5.92186 0
M  V30 19058 H 1817.08 1.14532 6.45924 0
M  V30 19059 H 1817 2.77951 7.0305 0
M  V30 19060 H 1818.27 1.73525 7.5994 0
M  V30 19061 N 1822.5 -1.17802 1.04693 0
M  V30 19062 C 1823.46 -2.19854 0.647816 0
M  V30 19063 C 1824.46 -1.58013 -0.298081 0
M  V30 19064 O 1825.65 -1.74004 -0.0826309 0
M  V30 19065 C 1822.78 -3.40864 -0.0492661 0
M  V30 19066 H 1823.98 -2.56678 1.55101 0
M  V30 19067 H 1821.53 -1.31796 0.840215 0
M  V30 19068 H 1822.26 -3.0958 -0.965967 0
M  V30 19069 H 1822.05 -3.86995 0.630677 0
M  V30 19070 H 1823.54 -4.16412 -0.31479 0
M  V30 19071 N 1823.98 -0.827251 -1.34143 0
M  V30 19072 C 1825.22 -0.423301 -1.99969 0
M  V30 19073 C 1825.58 0.996013 -1.64145 0
M  V30 19074 O 1826.78 1.50307 -2.22848 0
M  V30 19075 C 1825.05 -0.624388 -3.51904 0
M  V30 19076 S 1826.61 -0.31393 -4.37676 0
M  V30 19077 H 1823.43 -0.15974 -0.692823 0
M  V30 19078 H 1826.03 -1.07401 -1.63356 0
M  V30 19079 H 1824.73 -1.65696 -3.75464 0
M  V30 19080 H 1824.27 0.040897 -3.93379 0
M  V30 19081 H 1826.28 0.870745 -4.885 0
M  V30 19082 N 1825.45 1.46436 -0.582609 0
M  V30 19083 C 1826.7 2.02685 -0.0682503 0
M  V30 19084 C 1827.03 1.45315 1.2883 0
M  V30 19085 O 1826.31 0.61821 1.84414 0
M  V30 19086 C 1826.59 3.601 -0.00237797 0
M  V30 19087 C 1826.44 4.27855 -1.38782 0
M  V30 19088 C 1827.76 4.34525 0.69829 0
M  V30 19089 H 1824.88 0.736531 -0.0262761 0
M  V30 19090 H 1827.52 1.7458 -0.749789 0
M  V30 19091 H 1825.67 3.84176 0.57803 0
M  V30 19092 H 1827.35 4.15043 -2.01339 0
M  V30 19093 H 1825.59 3.87221 -1.95557 0
M  V30 19094 H 1826.26 5.36614 -1.2942 0
M  V30 19095 H 1828.74 4.15594 0.205219 0
M  V30 19096 H 1827.61 5.44244 0.71341 0
M  V30 19097 H 1827.87 4.05575 1.75957 0
M  V30 19098 N 1826.93 0.320385 1.54309 0
M  V30 19099 C 1827.84 -0.556017 2.27916 0
M  V30 19100 C 1828.86 -1.13192 1.32149 0
M  V30 19101 O 1830.03 -1.15257 1.6516 0
M  V30 19102 C 1827.1 -1.70244 3.02023 0
M  V30 19103 C 1826.16 -1.15866 4.13369 0
M  V30 19104 C 1825.39 -2.25044 4.83933 0
M  V30 19105 O 1825.62 -3.45327 4.53988 0
M  V30 19106 O 1824.55 -1.90642 5.70911 0
M  V30 19107 H 1828.38 0.0416563 3.03671 0
M  V30 19108 H 1825.96 0.0861809 1.49151 0
M  V30 19109 H 1827.84 -2.36995 3.48442 0
M  V30 19110 H 1826.52 -2.28635 2.29146 0
M  V30 19111 H 1825.42 -0.456323 3.71306 0
M  V30 19112 H 1826.76 -0.619916 4.88281 0
M  V30 19113 N 1828.41 -1.57525 0.0484906 0
M  V30 19114 C 1829.32 -2.14854 -0.942076 0
M  V30 19115 C 1830.34 -1.10565 -1.34355 0
M  V30 19116 O 1831.51 -1.4272 -1.42102 0
M  V30 19117 C 1828.58 -2.68002 -2.19945 0
M  V30 19118 C 1827.64 -3.87078 -1.85658 0
M  V30 19119 C 1826.87 -4.37682 -3.05401 0
M  V30 19120 O 1827.09 -3.87373 -4.18687 0
M  V30 19121 O 1826.03 -5.29302 -2.86571 0
M  V30 19122 H 1829.85 -2.9981 -0.48453 0
M  V30 19123 H 1827.44 -1.48392 -0.173252 0
M  V30 19124 H 1829.32 -3.02167 -2.93722 0
M  V30 19125 H 1828 -1.86118 -2.64843 0
M  V30 19126 H 1826.9 -3.57806 -1.09205 0
M  V30 19127 H 1828.24 -4.70184 -1.45562 0
M  V30 19128 N 1829.89 0.224867 -1.55988 0
M  V30 19129 C 1831.13 0.951154 -1.79111 0
M  V30 19130 C 1831.47 1.84119 -0.617568 0
M  V30 19131 O 1830.74 1.90686 0.383312 0
M  V30 19132 C 1831.02 1.79292 -3.12292 0
M  V30 19133 C 1830.88 0.929603 -4.40089 0
M  V30 19134 C 1832.2 2.77132 -3.41886 0
M  V30 19135 H 1829.32 0.344359 -0.651603 0
M  V30 19136 H 1831.96 0.220228 -1.88719 0
M  V30 19137 H 1830.11 2.41609 -3.04232 0
M  V30 19138 H 1831.78 0.323432 -4.60165 0
M  V30 19139 H 1830.02 0.234877 -4.33164 0
M  V30 19140 H 1830.69 1.55289 -5.29707 0
M  V30 19141 H 1833.17 2.24951 -3.50052 0
M  V30 19142 H 1832.05 3.33135 -4.36248 0
M  V30 19143 H 1832.31 3.54705 -2.63887 0
M  V30 19144 N 1831.37 1.49742 0.491438 0
M  V30 19145 C 1832.59 1.63435 1.26873 0
M  V30 19146 C 1833.01 0.309516 1.86246 0
M  V30 19147 O 1832.37 -0.706178 1.68284 0
M  V30 19148 C 1832.42 2.71034 2.39213 0
M  V30 19149 O 1832.14 3.98379 1.82278 0
M  V30 19150 C 1833.64 2.95518 3.3043 0
M  V30 19151 H 1830.86 0.54994 0.384457 0
M  V30 19152 H 1833.4 1.95837 0.588914 0
M  V30 19153 H 1831.56 2.41384 3.03006 0
M  V30 19154 H 1831.97 4.57725 2.56101 0
M  V30 19155 H 1833.45 3.74517 4.05513 0
M  V30 19156 H 1833.92 2.058 3.87999 0
M  V30 19157 H 1834.53 3.26622 2.72393 0
M  V30 19158 N 1832.84 -0.743177 1.38977 0
M  V30 19159 C 1834.07 -1.53243 1.39011 0
M  V30 19160 C 1834.49 -1.88792 -0.0174858 0
M  V30 19161 O 1833.84 -1.53523 -0.986766 0
M  V30 19162 C 1833.9 -2.8251 2.25544 0
M  V30 19163 O 1833.62 -2.48474 3.60821 0
M  V30 19164 C 1835.12 -3.76588 2.33872 0
M  V30 19165 H 1832.34 -0.473832 0.475104 0
M  V30 19166 H 1834.88 -0.918958 1.82689 0
M  V30 19167 H 1833.04 -3.4021 1.853 0
M  V30 19168 H 1833.45 -3.31454 4.06495 0
M  V30 19169 H 1834.92 -4.64211 2.98684 0
M  V30 19170 H 1835.4 -4.17761 1.35544 0
M  V30 19171 H 1836.01 -3.24811 2.74551 0
M  V30 19172 N 1834.32 -1.24018 -0.972487 0
M  V30 19173 C 1835.55 -1.10392 -1.74989 0
M  V30 19174 C 1835.97 0.34396 -1.8564 0
M  V30 19175 O 1835.32 1.23757 -1.34128 0
M  V30 19176 C 1835.37 -1.73247 -3.17282 0
M  V30 19177 O 1835.09 -3.12374 -3.07171 0
M  V30 19178 C 1836.6 -1.65168 -4.11381 0
M  V30 19179 H 1833.82 -0.38593 -0.548907 0
M  V30 19180 H 1836.36 -1.64028 -1.22127 0
M  V30 19181 H 1834.51 -1.23625 -3.67145 0
M  V30 19182 H 1834.93 -3.42997 -3.96804 0
M  V30 19183 H 1836.4 -2.13837 -5.08898 0
M  V30 19184 H 1836.88 -0.61198 -4.34915 0
M  V30 19185 H 1837.49 -2.14194 -3.67425 0
M  V30 19186 N 1835.8 1.17245 -1.05316 0
M  V30 19187 C 1836.73 2.23491 -0.67631 0
M  V30 19188 C 1837.71 1.66937 0.326507 0
M  V30 19189 O 1838.9 1.93127 0.203823 0
M  V30 19190 C 1836.03 3.47262 -0.0515755 0
M  V30 19191 C 1834.98 4.16646 -0.97929 0
M  V30 19192 C 1834.31 5.34254 -0.218369 0
M  V30 19193 C 1835.61 4.68736 -2.30399 0
M  V30 19194 H 1837.3 2.55269 -1.56455 0
M  V30 19195 H 1834.85 1.22699 -0.753714 0
M  V30 19196 H 1836.8 4.20805 0.223865 0
M  V30 19197 H 1835.52 3.14755 0.871614 0
M  V30 19198 H 1834.18 3.45017 -1.23931 0
M  V30 19199 H 1833.83 4.97998 0.707624 0
M  V30 19200 H 1833.53 5.81615 -0.83654 0
M  V30 19201 H 1835.05 6.1058 0.0497574 0
M  V30 19202 H 1836.47 5.3391 -2.08837 0
M  V30 19203 H 1834.87 5.2668 -2.87625 0
M  V30 19204 H 1835.94 3.85477 -2.94169 0
M  V30 19205 N 1837.28 0.834353 1.33702 0
M  V30 19206 C 1838.19 0.266649 2.3308 0
M  V30 19207 C 1839.2 -0.604958 1.63145 0
M  V30 19208 O 1840.38 -0.510151 1.94832 0
M  V30 19209 C 1837.45 -0.552673 3.42267 0
M  V30 19210 C 1836.51 0.342677 4.2793 0
M  V30 19211 C 1835.74 -0.437637 5.31903 0
M  V30 19212 O 1835.96 -1.6698 5.45412 0
M  V30 19213 O 1834.9 0.186001 6.01613 0
M  V30 19214 H 1838.72 1.08946 2.83486 0
M  V30 19215 H 1836.31 0.596765 1.36964 0
M  V30 19216 H 1838.19 -1.01842 4.08908 0
M  V30 19217 H 1836.86 -1.35263 2.94085 0
M  V30 19218 H 1835.77 0.856168 3.64171 0
M  V30 19219 H 1837.1 1.10728 4.79583 0
M  V30 19220 N 1838.76 -1.46125 0.590367 0
M  V30 19221 C 1839.67 -2.34177 -0.140761 0
M  V30 19222 C 1840.68 -1.50213 -0.878181 0
M  V30 19223 O 1841.86 -1.83063 -0.839644 0
M  V30 19224 C 1838.92 -3.27537 -1.13669 0
M  V30 19225 C 1837.98 -4.27403 -0.403103 0
M  V30 19226 C 1837.22 -5.16302 -1.35159 0
M  V30 19227 O 1837.44 -5.08283 -2.58853 0
M  V30 19228 O 1836.37 -5.95753 -0.858003 0
M  V30 19229 H 1840.2 -2.98063 0.582401 0
M  V30 19230 H 1837.79 -1.45225 0.35072 0
M  V30 19231 H 1839.67 -3.85112 -1.71074 0
M  V30 19232 H 1838.34 -2.66237 -1.84118 0
M  V30 19233 H 1837.25 -3.73493 0.212986 0
M  V30 19234 H 1838.58 -4.9151 0.260565 0
M  V30 19235 N 1840.23 -0.328564 -1.54137 0
M  V30 19236 C 1841.46 0.274326 -2.05073 0
M  V30 19237 C 1841.88 1.45393 -1.20442 0
M  V30 19238 O 1841.23 1.80964 -0.23625 0
M  V30 19239 C 1841.29 0.703941 -3.5458 0
M  V30 19240 O 1841.01 -0.428738 -4.35997 0
M  V30 19241 C 1842.51 1.36912 -4.21628 0
M  V30 19242 H 1839.73 0.0556157 -0.668691 0
M  V30 19243 H 1842.27 -0.476204 -1.98878 0
M  V30 19244 H 1840.43 1.40444 -3.61046 0
M  V30 19245 H 1840.84 -0.0892654 -5.24424 0
M  V30 19246 H 1842.31 1.62062 -5.27674 0
M  V30 19247 H 1842.79 2.31799 -3.73049 0
M  V30 19248 H 1843.4 0.711064 -4.19314 0
M  V30 19249 N 1841.71 1.57497 -0.0568439 0
M  V30 19250 C 1842.66 2.11862 0.915593 0
M  V30 19251 C 1843.63 1.02738 1.30515 0
M  V30 19252 O 1844.81 1.30318 1.39362 0
M  V30 19253 C 1841.95 2.67269 2.18315 0
M  V30 19254 C 1841.07 3.90498 1.84757 0
M  V30 19255 C 1840.2 4.342 3.06013 0
M  V30 19256 C 1839.24 5.50115 2.68403 0
M  V30 19257 N 1838.38 5.88844 3.8237 0
M  V30 19258 H 1843.22 2.94657 0.445101 0
M  V30 19259 H 1840.76 1.45621 0.20807 0
M  V30 19260 H 1842.71 2.97494 2.92494 0
M  V30 19261 H 1841.34 1.87262 2.62931 0
M  V30 19262 H 1840.4 3.66828 1.00703 0
M  V30 19263 H 1841.71 4.7473 1.53077 0
M  V30 19264 H 1840.86 4.66008 3.88486 0
M  V30 19265 H 1839.6 3.4879 3.40876 0
M  V30 19266 H 1838.61 5.17973 1.84348 0
M  V30 19267 H 1839.83 6.37244 2.34726 0
M  V30 19268 H 1837.78 5.06387 4.17024 0
M  V30 19269 H 1837.69 6.67781 3.54407 0
M  V30 19270 H 1838.96 6.25269 4.65466 0
M  V30 19271 N 1843.19 -0.216591 1.56105 0
M  V30 19272 C 1844.44 -0.940249 1.79348 0
M  V30 19273 C 1844.77 -1.84135 0.626451 0
M  V30 19274 O 1844.02 -1.91796 -0.388932 0
M  V30 19275 C 1844.32 -1.80637 3.08391 0
M  V30 19276 C 1843.99 -1.05808 4.3831 0
M  V30 19277 C 1842.65 -0.851392 4.73608 0
M  V30 19278 C 1845 -0.530015 5.18498 0
M  V30 19279 C 1842.33 -0.104822 5.86606 0
M  V30 19280 C 1844.68 0.203236 6.32273 0
M  V30 19281 C 1843.34 0.42113 6.6617 0
M  V30 19282 H 1842.61 -0.344062 0.656279 0
M  V30 19283 H 1845.26 -0.208069 1.90366 0
M  V30 19284 H 1843.57 -2.60656 2.92516 0
M  V30 19285 H 1845.26 -2.36852 3.23577 0
M  V30 19286 H 1841.85 -1.22915 4.10597 0
M  V30 19287 H 1846.04 -0.677154 4.91659 0
M  V30 19288 H 1841.29 0.074177 6.11355 0
M  V30 19289 H 1845.47 0.619898 6.93636 0
M  V30 19290 H 1843.09 1.00155 7.53573 0
M  V30 19291 N 1844.67 -1.5 -0.48349 0
M  V30 19292 C 1845.6 -1.70879 -1.5913 0
M  V30 19293 C 1846.58 -0.557606 -1.60701 0
M  V30 19294 O 1847.76 -0.79539 -1.77164 0
M  V30 19295 C 1844.89 -1.7915 -2.97527 0
M  V30 19296 C 1843.85 -2.94233 -3.10823 0
M  V30 19297 C 1843.17 -2.87634 -4.50745 0
M  V30 19298 C 1844.47 -4.34925 -2.89202 0
M  V30 19299 H 1846.17 -2.63632 -1.41911 0
M  V30 19300 H 1843.71 -1.26865 -0.68127 0
M  V30 19301 H 1845.67 -1.92342 -3.74943 0
M  V30 19302 H 1844.39 -0.830106 -3.15875 0
M  V30 19303 H 1843.05 -2.80672 -2.35837 0
M  V30 19304 H 1842.7 -1.89365 -4.65993 0
M  V30 19305 H 1842.4 -3.64885 -4.60579 0
M  V30 19306 H 1843.92 -3.02857 -5.30198 0
M  V30 19307 H 1845.34 -4.49076 -3.56376 0
M  V30 19308 H 1843.73 -5.13531 -3.10492 0
M  V30 19309 H 1844.8 -4.48154 -1.85165 0
M  V30 19310 N 1846.15 0.735796 -1.39369 0
M  V30 19311 C 1847.37 1.52504 -1.39822 0
M  V30 19312 C 1847.79 1.88799 0.00747346 0
M  V30 19313 O 1847.15 1.54044 0.978611 0
M  V30 19314 C 1847.2 2.8131 -2.27039 0
M  V30 19315 O 1846.92 2.46557 -3.62134 0
M  V30 19316 C 1848.42 3.75343 -2.35866 0
M  V30 19317 H 1845.64 0.471306 -0.47761 0
M  V30 19318 H 1848.18 0.909257 -1.83174 0
M  V30 19319 H 1846.34 3.39222 -1.87102 0
M  V30 19320 H 1846.75 3.29294 -4.08247 0
M  V30 19321 H 1848.23 4.6262 -3.01142 0
M  V30 19322 H 1848.7 4.17036 -1.37758 0
M  V30 19323 H 1849.31 3.2335 -2.7627 0
M  V30 19324 N 1847.63 1.24532 0.965897 0
M  V30 19325 C 1848.54 1.0564 2.09469 0
M  V30 19326 C 1849.55 -0.00330962 1.74 0
M  V30 19327 O 1850.73 0.195248 2.00451 0
M  V30 19328 C 1847.79 0.665318 3.40256 0
M  V30 19329 C 1846.85 1.80171 3.89663 0
M  V30 19330 C 1846.09 1.42919 5.14208 0
M  V30 19331 O 1846.31 0.319815 5.69503 0
M  V30 19332 O 1845.24 2.25546 5.58044 0
M  V30 19333 H 1849.07 2.00277 2.28304 0
M  V30 19334 H 1846.65 1.03368 1.07868 0
M  V30 19335 H 1848.54 0.458827 4.18895 0
M  V30 19336 H 1847.21 -0.251914 3.22718 0
M  V30 19337 H 1846.12 2.06296 3.12078 0
M  V30 19338 H 1847.45 2.69778 4.11681 0
M  V30 19339 N 1849.1 -1.16685 1.05936 0
M  V30 19340 C 1850.05 -2.2301 0.66101 0
M  V30 19341 C 1851.05 -1.66324 -0.321334 0
M  V30 19342 O 1852.25 -1.7903 -0.186587 0
M  V30 19343 H 1848.63 -0.726112 0.195616 0
M  V30 19344 H 1850.6 -2.539 1.56772 0
M  V30 19345 C 1849.35 -3.47649 0.0596424 0
M  V30 19346 H 1848.67 -3.91578 0.806635 0
M  V30 19347 H 1850.11 -4.23611 -0.18161 0
M  V30 19348 C 1848.57 -3.14965 -1.19578 0
M  V30 19349 O 1849.1 -3.30434 -2.28421 0
M  V30 19350 N 1847.3 -2.69126 -1.09634 0
M  V30 19351 H 1846.85 -2.56738 -0.210599 0
M  V30 19352 H 1846.81 -2.4763 -1.93718 0
M  V30 19353 N 1850.58 -0.841432 -1.33258 0
M  V30 19354 C 1851.51 -0.291603 -2.31672 0
M  V30 19355 C 1852.49 0.602066 -1.59089 0
M  V30 19356 O 1853.68 0.525081 -1.86967 0
M  V30 19357 C 1850.81 0.532008 -3.43201 0
M  V30 19358 C 1849.76 -0.26609 -4.27172 0
M  V30 19359 C 1849.09 0.681432 -5.3034 0
M  V30 19360 C 1850.39 -1.48457 -5.00757 0
M  V30 19361 H 1852.08 -1.1139 -2.77908 0
M  V30 19362 H 1849.63 -0.53708 -1.33609 0
M  V30 19363 H 1851.58 0.926977 -4.11078 0
M  V30 19364 H 1850.3 1.38754 -2.9566 0
M  V30 19365 H 1848.96 -0.64265 -3.60923 0
M  V30 19366 H 1848.61 1.53344 -4.79056 0
M  V30 19367 H 1848.31 0.151522 -5.87405 0
M  V30 19368 H 1849.84 1.07386 -6.01083 0
M  V30 19369 H 1851.25 -1.16262 -5.61388 0
M  V30 19370 H 1849.65 -1.95145 -5.67484 0
M  V30 19371 H 1850.72 -2.25296 -4.29383 0
M  V30 19372 N 1852.06 1.4581 -0.598108 0
M  V30 19373 C 1852.99 2.33223 0.113747 0
M  V30 19374 C 1853.97 1.46268 0.868312 0
M  V30 19375 O 1855.16 1.75058 0.840737 0
M  V30 19376 C 1852.29 3.28815 1.11795 0
M  V30 19377 C 1851.24 4.25331 0.477223 0
M  V30 19378 C 1850.57 5.10544 1.589 0
M  V30 19379 C 1851.87 5.18894 -0.595518 0
M  V30 19380 H 1853.56 2.92992 -0.616123 0
M  V30 19381 H 1851.11 1.40888 -0.297741 0
M  V30 19382 H 1853.06 3.88832 1.62443 0
M  V30 19383 H 1851.78 2.67185 1.87829 0
M  V30 19384 H 1850.44 3.66599 -0.00831044 0
M  V30 19385 H 1850.09 4.45288 2.33939 0
M  V30 19386 H 1849.79 5.75918 1.16584 0
M  V30 19387 H 1851.31 5.73427 2.09794 0
M  V30 19388 H 1852.73 5.73037 -0.173494 0
M  V30 19389 H 1851.12 5.92694 -0.939873 0
M  V30 19390 H 1852.19 4.61895 -1.47584 0
M  V30 19391 N 1853.54 0.336733 1.53961 0
M  V30 19392 C 1854.47 -0.515664 2.27735 0
M  V30 19393 C 1855.45 -1.10835 1.29033 0
M  V30 19394 O 1856.63 -1.13102 1.57866 0
M  V30 19395 C 1853.76 -1.67015 3.04505 0
M  V30 19396 C 1852.72 -1.20613 4.10654 0
M  V30 19397 C 1852.04 -2.44861 4.75339 0
M  V30 19398 C 1853.34 -0.311507 5.2137 0
M  V30 19399 H 1855.04 0.0997513 2.99234 0
M  V30 19400 H 1852.58 0.0494157 1.43915 0
M  V30 19401 H 1854.54 -2.27286 3.54851 0
M  V30 19402 H 1853.26 -2.31236 2.30646 0
M  V30 19403 H 1851.92 -0.62628 3.61211 0
M  V30 19404 H 1851.57 -3.07474 3.98081 0
M  V30 19405 H 1851.27 -2.14498 5.47051 0
M  V30 19406 H 1852.79 -3.0587 5.28466 0
M  V30 19407 H 1854.21 -0.820868 5.67393 0
M  V30 19408 H 1852.6 -0.100073 6.00017 0
M  V30 19409 H 1853.67 0.654181 4.80467 0
M  V30 19410 N 1855.02 -1.57465 0.0651956 0
M  V30 19411 C 1856.25 -1.97273 -0.613742 0
M  V30 19412 C 1856.65 -0.942027 -1.64081 0
M  V30 19413 O 1856 0.0804791 -1.83524 0
M  V30 19414 C 1856.06 -3.3337 -1.34554 0
M  V30 19415 C 1855.72 -4.54549 -0.472698 0
M  V30 19416 C 1856.72 -5.19214 0.267005 0
M  V30 19417 C 1854.4 -5.00709 -0.399511 0
M  V30 19418 C 1856.4 -6.28386 1.06819 0
M  V30 19419 C 1854.09 -6.09754 0.405348 0
M  V30 19420 C 1855.08 -6.73455 1.13787 0
M  V30 19421 O 1854.77 -7.80402 1.92947 0
M  V30 19422 H 1854.5 -0.653863 -0.171578 0
M  V30 19423 H 1857.06 -2.04974 0.132144 0
M  V30 19424 H 1855.29 -3.22264 -2.13735 0
M  V30 19425 H 1856.98 -3.57829 -1.91607 0
M  V30 19426 H 1857.74 -4.84501 0.220015 0
M  V30 19427 H 1853.62 -4.50909 -0.959289 0
M  V30 19428 H 1857.17 -6.78038 1.64045 0
M  V30 19429 H 1853.06 -6.43902 0.453925 0
M  V30 19430 H 1853.83 -7.97247 1.85308 0
M  V30 19431 N 1856.49 0.20831 -1.56217 0
M  V30 19432 C 1857.74 0.928839 -1.7904 0
M  V30 19433 C 1858.06 1.84968 -0.636108 0
M  V30 19434 O 1859.26 2.60984 -0.748302 0
M  V30 19435 C 1857.72 1.70192 -3.17116 0
M  V30 19436 C 1857.33 0.826564 -4.40309 0
M  V30 19437 C 1859.07 2.41287 -3.49257 0
M  V30 19438 C 1856.98 1.59775 -5.69408 0
M  V30 19439 H 1855.91 0.350563 -0.667549 0
M  V30 19440 H 1858.56 0.182398 -1.82591 0
M  V30 19441 H 1856.94 2.49176 -3.07778 0
M  V30 19442 H 1858.11 0.076324 -4.60737 0
M  V30 19443 H 1856.43 0.227092 -4.1578 0
M  V30 19444 H 1859.03 2.99511 -4.42942 0
M  V30 19445 H 1859.37 3.14827 -2.72377 0
M  V30 19446 H 1859.9 1.69282 -3.59984 0
M  V30 19447 H 1856.64 0.905384 -6.49217 0
M  V30 19448 H 1856.16 2.32227 -5.5302 0
M  V30 19449 H 1857.84 2.155 -6.10056 0
M  V30 19450 N 1857.97 1.50255 0.475528 0
M  V30 19451 C 1859.25 1.51537 1.23676 0
M  V30 19452 C 1859.63 0.257508 2.09524 0
M  V30 19453 O 1858.98 -0.759242 2.15517 0
M  V30 19454 C 1859.19 2.80865 2.07162 0
M  V30 19455 C 1860.53 3.31353 2.655 0
M  V30 19456 O 1861.56 2.82156 2.17408 0
M  V30 19457 O 1860.42 4.17102 3.53112 0
M  V30 19458 H 1857.51 0.607633 0.560991 0
M  V30 19459 H 1860.06 1.62541 0.487712 0
M  V30 19460 H 1858.83 3.63891 1.43871 0
M  V30 19461 H 1858.45 2.72844 2.89209 0
M  V30 19462 N 1859.45 -0.728395 1.39758 0
M  V30 19463 C 1860.7 -1.48357 1.3665 0
M  V30 19464 C 1861.01 -1.95573 -0.0325759 0
M  V30 19465 O 1862.22 -2.7086 -0.186252 0
M  V30 19466 C 1860.67 -2.68105 2.40099 0
M  V30 19467 C 1860.28 -2.27812 3.85754 0
M  V30 19468 C 1862.03 -3.45899 2.46077 0
M  V30 19469 C 1859.93 -3.44322 4.80828 0
M  V30 19470 H 1858.86 -0.557138 0.508048 0
M  V30 19471 H 1861.51 -0.793948 1.65435 0
M  V30 19472 H 1859.9 -3.39174 2.04394 0
M  V30 19473 H 1861.07 -1.64246 4.30534 0
M  V30 19474 H 1859.38 -1.63094 3.83131 0
M  V30 19475 H 1861.98 -4.32573 3.143 0
M  V30 19476 H 1862.32 -3.88824 1.48732 0
M  V30 19477 H 1862.86 -2.81864 2.80709 0
M  V30 19478 H 1859.6 -3.06441 5.7946 0
M  V30 19479 H 1859.12 -4.06847 4.40722 0
M  V30 19480 H 1860.8 -4.10567 5.00044 0
M  V30 19481 N 1860.93 -1.25042 -0.959279 0
M  V30 19482 C 1861.88 -1.04802 -2.07652 0
M  V30 19483 C 1862.87 0.019648 -1.69389 0
M  V30 19484 O 1864.08 -0.135594 -1.79489 0
M  V30 19485 H 1860.45 -0.321939 -0.679602 0
M  V30 19486 H 1862.42 -1.99527 -2.21882 0
M  V30 19487 C 1861.17 -0.678505 -3.41016 0
M  V30 19488 H 1860.49 -1.49185 -3.70923 0
M  V30 19489 H 1861.93 -0.576549 -4.20062 0
M  V30 19490 C 1860.39 0.615075 -3.31238 0
M  V30 19491 O 1860.92 1.65848 -3.65865 0
M  V30 19492 N 1859.13 0.598958 -2.8436 0
M  V30 19493 H 1858.68 -0.250509 -2.56379 0
M  V30 19494 H 1858.63 1.46464 -2.78201 0
M  V30 19495 N 1862.41 1.16121 -1.06553 0
M  V30 19496 C 1863.65 1.86346 -0.782279 0
M  V30 19497 C 1863.98 1.82255 0.693395 0
M  V30 19498 O 1863.25 1.2579 1.50179 0
M  V30 19499 H 1861.83 0.689921 -0.286388 0
M  V30 19500 H 1864.49 1.40805 -1.34758 0
M  V30 19501 H 1863.58 2.91712 -1.10954 0
M  V30 19502 N 1863.88 0.848487 1.3281 0
M  V30 19503 C 1864.83 0.277328 2.30941 0
M  V30 19504 C 1865.83 -0.595938 1.58572 0
M  V30 19505 O 1867.03 -0.484428 1.73359 0
M  V30 19506 H 1863.41 0.0709686 0.748644 0
M  V30 19507 H 1865.38 1.11932 2.76611 0
M  V30 19508 C 1864.13 -0.524705 3.43718 0
M  V30 19509 H 1863.45 0.137959 3.99562 0
M  V30 19510 H 1864.89 -0.890032 4.14553 0
M  V30 19511 C 1863.35 -1.70746 2.90426 0
M  V30 19512 O 1863.88 -2.80641 2.87408 0
M  V30 19513 N 1862.09 -1.5325 2.46907 0
M  V30 19514 H 1861.63 -0.638526 2.49561 0
M  V30 19515 H 1861.59 -2.32532 2.11603 0
M  V30 19516 N 1865.36 -1.4549 0.605832 0
M  V30 19517 C 1866.29 -2.3328 -0.101377 0
M  V30 19518 C 1867.27 -1.46727 -0.860543 0
M  V30 19519 O 1868.46 -1.75501 -0.831441 0
M  V30 19520 C 1865.59 -3.29403 -1.1005 0
M  V30 19521 C 1864.54 -4.25578 -0.45466 0
M  V30 19522 C 1863.87 -5.11379 -1.5619 0
M  V30 19523 C 1865.17 -5.18571 0.623028 0
M  V30 19524 H 1866.86 -2.92661 0.631653 0
M  V30 19525 H 1864.41 -1.40728 0.305208 0
M  V30 19526 H 1866.36 -3.89688 -1.60379 0
M  V30 19527 H 1865.09 -2.68177 -1.8641 0
M  V30 19528 H 1863.74 -3.66589 0.027752 0
M  V30 19529 H 1863.39 -4.46523 -2.31574 0
M  V30 19530 H 1863.09 -5.76528 -1.13529 0
M  V30 19531 H 1864.62 -5.74532 -2.0675 0
M  V30 19532 H 1866.03 -5.72937 0.203881 0
M  V30 19533 H 1864.43 -5.92187 0.971292 0
M  V30 19534 H 1865.5 -4.61106 1.50032 0
M  V30 19535 N 1866.84 -0.344893 -1.5378 0
M  V30 19536 C 1867.79 0.527275 -2.21819 0
M  V30 19537 C 1868.77 1.06502 -1.20607 0
M  V30 19538 O 1869.97 0.998502 -1.46147 0
M  V30 19539 C 1867.1 1.67703 -2.99551 0
M  V30 19540 C 1866.18 1.15316 -4.08121 0
M  V30 19541 N 1866.57 0.35061 -5.04583 0
M  V30 19542 C 1864.87 1.42992 -4.22456 0
M  V30 19543 C 1865.57 0.0661583 -5.81662 0
M  V30 19544 N 1864.55 0.658168 -5.39601 0
M  V30 19545 H 1868.35 -0.0929348 -2.93753 0
M  V30 19546 H 1865.86 -0.151827 -1.61689 0
M  V30 19547 H 1867.86 2.31383 -3.46796 0
M  V30 19548 H 1866.52 2.30051 -2.29144 0
M  V30 19549 H 1867.53 -0.0084236 -5.17899 0
M  V30 19550 H 1864.21 2.05769 -3.6327 0
M  V30 19551 H 1865.6 -0.581316 -6.69381 0
M  V30 19552 N 1868.32 1.57428 -0.0735454 0
M  V30 19553 C 1869.73 1.80973 0.458858 0
M  V30 19554 C 1870.08 0.987586 1.69532 0
M  V30 19555 O 1869.21 0.210611 2.15373 0
M  V30 19556 C 1869.8 3.28241 0.839246 0
M  V30 19557 C 1868.36 3.52626 1.3165 0
M  V30 19558 C 1867.51 2.75645 0.302533 0
M  V30 19559 H 1870.46 1.55854 -0.299225 0
M  V30 19560 H 1870.48 3.40386 1.70052 0
M  V30 19561 H 1869.99 3.88052 -0.0608625 0
M  V30 19562 H 1868.09 2.98121 2.23505 0
M  V30 19563 H 1868.2 4.61316 1.29322 0
M  V30 19564 H 1866.57 2.42457 0.780179 0
M  V30 19565 H 1867.35 3.38194 -0.589878 0
M  V30 19566 N 1869.8 -0.200022 1.56326 0
M  V30 19567 C 1871.07 -0.946774 1.71159 0
M  V30 19568 C 1871.45 -2.01576 0.626939 0
M  V30 19569 O 1870.8 -2.25601 -0.362834 0
M  V30 19570 C 1871.01 -1.53767 3.13299 0
M  V30 19571 C 1872.36 -2.02169 3.7338 0
M  V30 19572 O 1873.38 -1.6362 3.16397 0
M  V30 19573 O 1872.24 -2.7309 4.73375 0
M  V30 19574 H 1869.34 -0.443669 0.697916 0
M  V30 19575 H 1871.88 -0.190107 1.68632 0
M  V30 19576 H 1870.65 -0.766886 3.83712 0
M  V30 19577 H 1870.28 -2.35931 3.20035 0
M  V30 19578 N 1871.27 -1.50505 -0.467553 0
M  V30 19579 C 1872.5 -1.65708 -1.24722 0
M  V30 19580 C 1872.92 -0.34155 -1.84973 0
M  V30 19581 O 1872.28 0.694993 -1.6745 0
M  V30 19582 C 1872.33 -2.75289 -2.32912 0
M  V30 19583 O 1871.43 -2.36788 -3.37646 0
M  V30 19584 H 1870.78 -0.55351 -0.366774 0
M  V30 19585 H 1873.31 -1.96901 -0.555988 0
M  V30 19586 H 1873.32 -2.98472 -2.7817 0
M  V30 19587 H 1871.99 -3.70765 -1.88431 0
M  V30 19588 H 1870.57 -2.24065 -2.98076 0
M  V30 19589 N 1872.75 0.720973 -1.40142 0
M  V30 19590 C 1873.72 1.81676 -1.39737 0
M  V30 19591 C 1874.72 1.58125 -0.292068 0
M  V30 19592 O 1875.91 1.65266 -0.550699 0
M  V30 19593 C 1873.04 3.19685 -1.18381 0
M  V30 19594 H 1874.23 1.83435 -2.37259 0
M  V30 19595 H 1871.78 0.926064 -1.25912 0
M  V30 19596 H 1872.52 3.2358 -0.21598 0
M  V30 19597 H 1872.3 3.38178 -1.98439 0
M  V30 19598 H 1873.79 3.99724 -1.20873 0
M  V30 19599 N 1874.23 1.25549 0.952634 0
M  V30 19600 C 1875.46 1.13162 1.73211 0
M  V30 19601 C 1875.87 -0.314383 1.86164 0
M  V30 19602 O 1875.23 -1.21608 1.3608 0
M  V30 19603 C 1875.28 1.78273 3.14485 0
M  V30 19604 O 1875 3.17221 3.02163 0
M  V30 19605 C 1876.5 1.71691 4.08702 0
M  V30 19606 H 1873.72 0.394613 0.542698 0
M  V30 19607 H 1876.27 1.65951 1.19502 0
M  V30 19608 H 1874.42 1.2945 3.65132 0
M  V30 19609 H 1874.84 3.49266 3.91297 0
M  V30 19610 H 1876.31 2.21906 5.05432 0
M  V30 19611 H 1876.79 0.681094 4.33887 0
M  V30 19612 H 1877.39 2.20012 3.63971 0
M  V30 19613 N 1875.71 -1.15554 1.07168 0
M  V30 19614 C 1876.64 -2.22387 0.71178 0
M  V30 19615 C 1877.62 -1.67435 -0.299908 0
M  V30 19616 O 1878.8 -1.93427 -0.173073 0
M  V30 19617 C 1875.93 -3.47136 0.106815 0
M  V30 19618 C 1874.89 -4.15035 1.04545 0
M  V30 19619 C 1874.21 -5.33839 0.303337 0
M  V30 19620 C 1875.51 -4.65011 2.37827 0
M  V30 19621 H 1877.21 -2.52748 1.60496 0
M  V30 19622 H 1874.75 -1.21485 0.773139 0
M  V30 19623 H 1876.71 -4.21108 -0.15689 0
M  V30 19624 H 1875.43 -3.16101 -0.821429 0
M  V30 19625 H 1874.09 -3.43001 1.29405 0
M  V30 19626 H 1873.74 -4.9906 -0.628308 0
M  V30 19627 H 1873.44 -5.8021 0.928964 0
M  V30 19628 H 1874.96 -6.10582 0.0473869 0
M  V30 19629 H 1876.38 -5.3052 2.17305 0
M  V30 19630 H 1874.77 -5.22038 2.95967 0
M  V30 19631 H 1875.84 -3.80748 3.00264 0
M  V30 19632 N 1877.19 -0.855519 -1.32358 0
M  V30 19633 C 1878.43 -0.460002 -1.97514 0
M  V30 19634 C 1878.77 0.982052 -1.67539 0
M  V30 19635 O 1878.04 1.68925 -0.964091 0
M  V30 19636 C 1878.32 -0.70064 -3.53218 0
M  V30 19637 C 1878.18 -2.19118 -3.9282 0
M  V30 19638 C 1879.5 -0.157597 -4.39818 0
M  V30 19639 H 1876.62 -0.168606 -0.717455 0
M  V30 19640 H 1879.26 -1.0741 -1.56726 0
M  V30 19641 H 1877.41 -0.177937 -3.88092 0
M  V30 19642 H 1879.08 -2.78002 -3.6812 0
M  V30 19643 H 1877.32 -2.66934 -3.41948 0
M  V30 19644 H 1877.99 -2.31024 -5.0133 0
M  V30 19645 H 1880.47 -0.604597 -4.11684 0
M  V30 19646 H 1879.35 -0.355532 -5.47747 0
M  V30 19647 H 1879.61 0.939679 -4.31998 0
M  V30 19648 N 1878.67 1.45167 -0.61354 0
M  V30 19649 C 1879.89 2.07076 -0.115821 0
M  V30 19650 C 1880.32 1.45415 1.19315 0
M  V30 19651 O 1879.67 0.549046 1.72786 0
M  V30 19652 C 1879.72 3.606 0.00406239 0
M  V30 19653 O 1878.83 3.98737 1.05273 0
M  V30 19654 H 1878.17 0.659547 -0.0767679 0
M  V30 19655 H 1880.7 1.86325 -0.845236 0
M  V30 19656 H 1880.71 4.07508 0.200356 0
M  V30 19657 H 1879.38 4.04865 -0.951695 0
M  V30 19658 H 1877.96 3.6349 0.832424 0
M  V30 19659 N 1880.14 0.353044 1.53595 0
M  V30 19660 C 1881.42 -0.296304 1.93343 0
M  V30 19661 C 1881.8 -1.67448 1.28548 0
M  V30 19662 O 1881.15 -2.24226 0.4399 0
M  V30 19663 C 1881.36 -0.359079 3.47148 0
M  V30 19664 C 1882.71 -0.605406 4.20262 0
M  V30 19665 O 1883.73 -0.440805 3.53462 0
M  V30 19666 O 1882.59 -0.92496 5.38616 0
M  V30 19667 H 1879.68 -0.174879 0.808298 0
M  V30 19668 H 1882.23 0.404914 1.64798 0
M  V30 19669 H 1881 0.607684 3.86553 0
M  V30 19670 H 1880.62 -1.1067 3.81887 0
M  V30 19671 N 1881.62 -1.57387 0.0818932 0
M  V30 19672 C 1882.87 -1.93045 -0.584519 0
M  V30 19673 C 1883.18 -0.96473 -1.70154 0
M  V30 19674 O 1884.39 -1.21451 -2.42821 0
M  V30 19675 C 1882.85 -3.42962 -1.0911 0
M  V30 19676 C 1882.45 -4.48 -0.00454233 0
M  V30 19677 C 1884.2 -3.87604 -1.731 0
M  V30 19678 C 1882.1 -5.89059 -0.525733 0
M  V30 19679 H 1881.03 -0.720543 -0.222112 0
M  V30 19680 H 1883.69 -1.82838 0.155762 0
M  V30 19681 H 1882.07 -3.48277 -1.88466 0
M  V30 19682 H 1883.24 -4.54314 0.770444 0
M  V30 19683 H 1881.56 -4.12887 0.539739 0
M  V30 19684 H 1884.15 -4.90382 -2.13143 0
M  V30 19685 H 1884.5 -3.25524 -2.59499 0
M  V30 19686 H 1885.03 -3.84935 -1.00349 0
M  V30 19687 H 1881.77 -6.54807 0.301333 0
M  V30 19688 H 1881.29 -5.86243 -1.26802 0
M  V30 19689 H 1882.97 -6.39242 -0.998928 0
M  V30 19690 N 1883.1 0.191729 -1.56429 0
M  V30 19691 C 1884.38 0.937684 -1.71659 0
M  V30 19692 C 1884.76 2.0124 -0.63762 0
M  V30 19693 O 1884.1 2.2579 0.350865 0
M  V30 19694 C 1884.31 1.52104 -3.14111 0
M  V30 19695 C 1885.66 2.00186 -3.74447 0
M  V30 19696 O 1886.69 1.61939 -3.1726 0
M  V30 19697 O 1885.55 2.70576 -4.74817 0
M  V30 19698 H 1882.64 0.439962 -0.700259 0
M  V30 19699 H 1885.19 0.181161 -1.6873 0
M  V30 19700 H 1883.96 0.746526 -3.84113 0
M  V30 19701 H 1883.58 2.3423 -3.21282 0
M  V30 19702 N 1884.58 1.50751 0.459565 0
M  V30 19703 C 1885.83 1.61553 1.20762 0
M  V30 19704 C 1886.14 0.326862 1.9285 0
M  V30 19705 O 1887.35 0.313951 2.69679 0
M  V30 19706 C 1885.8 2.8522 2.19494 0
M  V30 19707 C 1885.41 4.21008 1.53156 0
M  V30 19708 C 1887.15 3.05373 2.94869 0
M  V30 19709 C 1885.06 5.35848 2.50241 0
M  V30 19710 H 1883.99 0.601658 0.454448 0
M  V30 19711 H 1886.64 1.77195 0.476886 0
M  V30 19712 H 1885.02 2.63163 2.95908 0
M  V30 19713 H 1886.2 4.53363 0.824521 0
M  V30 19714 H 1884.51 4.06554 0.900178 0
M  V30 19715 H 1887.11 3.88342 3.67552 0
M  V30 19716 H 1887.45 2.17557 3.54929 0
M  V30 19717 H 1887.99 3.27665 2.25566 0
M  V30 19718 H 1884.72 6.25854 1.94904 0
M  V30 19719 H 1884.24 5.07896 3.19063 0
M  V30 19720 H 1885.92 5.66894 3.11834 0
M  V30 19721 N 1886.06 -0.713531 1.40522 0
M  V30 19722 C 1887.28 -1.5026 1.4223 0
M  V30 19723 C 1887.7 -1.88787 0.0225637 0
M  V30 19724 O 1887.06 -1.55581 -0.95398 0
M  V30 19725 C 1887.11 -2.77663 2.31486 0
M  V30 19726 O 1886.83 -2.40765 3.66011 0
M  V30 19727 C 1888.33 -3.71543 2.41807 0
M  V30 19728 H 1885.55 -0.463648 0.485048 0
M  V30 19729 H 1888.09 -0.88 1.84598 0
M  V30 19730 H 1886.25 -3.36203 1.92475 0
M  V30 19731 H 1886.66 -3.22757 4.13434 0
M  V30 19732 H 1888.14 -4.57771 3.08464 0
M  V30 19733 H 1888.61 -4.14792 1.44375 0
M  V30 19734 H 1889.22 -3.18914 2.81379 0
M  V30 19735 N 1887.53 -1.26053 -0.945962 0
M  V30 19736 C 1888.78 -1.11315 -1.69161 0
M  V30 19737 C 1889.11 0.34437 -1.91427 0
M  V30 19738 O 1888.36 1.26968 -1.48921 0
M  V30 19739 C 1888.66 -1.8222 -3.07459 0
M  V30 19740 C 1888.33 -3.32126 -3.04964 0
M  V30 19741 C 1886.99 -3.73019 -3.03991 0
M  V30 19742 C 1889.34 -4.2786 -2.97633 0
M  V30 19743 C 1886.67 -5.08041 -2.93446 0
M  V30 19744 C 1889.02 -5.62917 -2.88631 0
M  V30 19745 C 1887.69 -6.03127 -2.85998 0
M  V30 19746 H 1886.96 -0.407329 -0.619002 0
M  V30 19747 H 1889.6 -1.56435 -1.10454 0
M  V30 19748 H 1887.91 -1.29554 -3.69761 0
M  V30 19749 H 1889.61 -1.68261 -3.63991 0
M  V30 19750 H 1886.2 -2.99594 -3.06498 0
M  V30 19751 H 1890.38 -3.97252 -2.97497 0
M  V30 19752 H 1885.64 -5.38364 -2.89782 0
M  V30 19753 H 1889.81 -6.36784 -2.81921 0
M  V30 19754 H 1887.44 -7.07709 -2.77583 0
M  V30 19755 N 1889.01 1.14984 -1.07779 0
M  V30 19756 C 1889.94 2.22006 -0.723564 0
M  V30 19757 C 1890.92 1.67592 0.291024 0
M  V30 19758 O 1892.11 1.93516 0.162812 0
M  V30 19759 C 1889.24 3.47074 -0.125223 0
M  V30 19760 C 1888.19 4.14475 -1.06745 0
M  V30 19761 C 1887.52 5.33671 -0.331643 0
M  V30 19762 C 1888.82 4.63744 -2.4029 0
M  V30 19763 H 1890.51 2.51893 -1.61834 0
M  V30 19764 H 1888.06 1.21073 -0.779571 0
M  V30 19765 H 1890.01 4.21185 0.134555 0
M  V30 19766 H 1888.73 3.16533 0.804654 0
M  V30 19767 H 1887.39 3.4231 -1.31222 0
M  V30 19768 H 1887.04 4.99387 0.601833 0
M  V30 19769 H 1886.74 5.7971 -0.959721 0
M  V30 19770 H 1888.27 6.10548 -0.0797668 0
M  V30 19771 H 1889.68 5.2936 -2.20115 0
M  V30 19772 H 1888.08 5.20461 -2.98732 0
M  V30 19773 H 1889.15 3.79151 -3.02279 0
M  V30 19774 N 1890.49 0.862526 1.31902 0
M  V30 19775 C 1891.44 0.31091 2.28696 0
M  V30 19776 C 1892.41 -0.586495 1.55401 0
M  V30 19777 O 1893.59 -0.519727 1.83585 0
M  V30 19778 C 1890.73 -0.487986 3.41632 0
M  V30 19779 C 1889.84 0.436096 4.29793 0
M  V30 19780 C 1888.98 -0.376197 5.29866 0
M  V30 19781 C 1888.02 0.544784 6.09671 0
M  V30 19782 N 1887.16 -0.230806 7.01721 0
M  V30 19783 H 1892 1.14156 2.75268 0
M  V30 19784 H 1889.53 0.574352 1.35424 0
M  V30 19785 H 1891.49 -0.966875 4.05842 0
M  V30 19786 H 1890.12 -1.28339 2.96191 0
M  V30 19787 H 1889.17 1.03341 3.66094 0
M  V30 19788 H 1890.48 1.14259 4.85537 0
M  V30 19789 H 1889.64 -0.917915 5.99716 0
M  V30 19790 H 1888.38 -1.11602 4.74759 0
M  V30 19791 H 1887.38 1.09832 5.38718 0
M  V30 19792 H 1888.61 1.28334 6.66864 0
M  V30 19793 H 1886.55 -0.95358 6.49032 0
M  V30 19794 H 1886.47 0.416499 7.54852 0
M  V30 19795 H 1887.74 -0.753996 7.75845 0
M  V30 19796 N 1891.97 -1.4484 0.62123 0
M  V30 19797 C 1892.92 -2.30626 -0.0895817 0
M  V30 19798 C 1893.89 -1.42906 -0.846593 0
M  V30 19799 O 1895.07 -1.7182 -0.829611 0
M  V30 19800 C 1892.21 -3.28032 -1.07188 0
M  V30 19801 C 1891.32 -4.30855 -0.314319 0
M  V30 19802 C 1890.46 -5.1536 -1.28755 0
M  V30 19803 C 1889.5 -6.09899 -0.518581 0
M  V30 19804 N 1888.63 -6.87137 -1.44178 0
M  V30 19805 H 1893.47 -2.90871 0.64793 0
M  V30 19806 H 1891.01 -1.4332 0.33131 0
M  V30 19807 H 1892.97 -3.82984 -1.65467 0
M  V30 19808 H 1891.6 -2.6951 -1.77664 0
M  V30 19809 H 1890.65 -3.78455 0.38422 0
M  V30 19810 H 1891.96 -4.97985 0.285042 0
M  V30 19811 H 1891.12 -5.7478 -1.94198 0
M  V30 19812 H 1889.86 -4.4828 -1.92084 0
M  V30 19813 H 1888.86 -5.49597 0.149399 0
M  V30 19814 H 1890.09 -6.79011 0.109851 0
M  V30 19815 H 1888.03 -6.22735 -2.06246 0
M  V30 19816 H 1887.95 -7.50669 -0.896192 0
M  V30 19817 H 1889.22 -7.51088 -2.08536 0
M  V30 19818 N 1893.45 -0.361184 -1.53405 0
M  V30 19819 C 1894.72 0.286047 -1.93497 0
M  V30 19820 C 1895.1 1.66764 -1.29434 0
M  V30 19821 O 1894.45 2.23989 -0.451785 0
M  V30 19822 C 1894.66 0.340663 -3.47333 0
M  V30 19823 C 1896.01 0.58311 -4.20577 0
M  V30 19824 O 1897.03 0.422054 -3.53691 0
M  V30 19825 O 1895.89 0.896383 -5.39099 0
M  V30 19826 H 1892.99 0.17059 -0.809215 0
M  V30 19827 H 1895.53 -0.413648 -1.64581 0
M  V30 19828 H 1894.3 -0.628175 -3.86225 0
M  V30 19829 H 1893.93 1.08643 -3.82469 0
M  V30 19830 N 1894.92 1.57341 -0.0902386 0
M  V30 19831 C 1895.89 2.12619 0.855916 0
M  V30 19832 C 1896.89 1.05434 1.2141 0
M  V30 19833 O 1898.08 1.31342 1.14433 0
M  V30 19834 C 1895.21 2.64277 2.15338 0
M  V30 19835 H 1896.4 2.97533 0.376014 0
M  V30 19836 H 1893.96 1.55492 0.1587 0
M  V30 19837 H 1894.69 1.82869 2.67824 0
M  V30 19838 H 1894.48 3.4264 1.9063 0
M  V30 19839 H 1895.97 3.07055 2.83032 0
M  V30 19840 N 1896.4 -0.183431 1.56529 0
M  V30 19841 C 1897.81 -0.747035 1.71103 0
M  V30 19842 C 1898.16 -1.83335 0.698762 0
M  V30 19843 O 1897.29 -2.15931 -0.142414 0
M  V30 19844 C 1897.88 -1.36183 3.10225 0
M  V30 19845 C 1896.44 -1.87239 3.26525 0
M  V30 19846 C 1895.59 -0.746737 2.67056 0
M  V30 19847 H 1898.54 0.0418058 1.58645 0
M  V30 19848 H 1898.56 -2.2314 3.08203 0
M  V30 19849 H 1898.07 -0.570966 3.83877 0
M  V30 19850 H 1896.18 -2.69008 2.57809 0
M  V30 19851 H 1896.29 -2.02616 4.34147 0
M  V30 19852 H 1894.65 -1.16406 2.26543 0
M  V30 19853 H 1895.44 0.0320833 3.43285 0
M  V30 19854 N 1897.88 -1.50992 -0.451564 0
M  V30 19855 C 1899.11 -1.66499 -1.22317 0
M  V30 19856 C 1899.52 -0.355831 -1.85824 0
M  V30 19857 O 1898.86 0.674213 -1.7088 0
M  V30 19858 C 1898.92 -2.71315 -2.35857 0
M  V30 19859 C 1898.59 -4.14324 -1.92832 0
M  V30 19860 C 1899.58 -4.99567 -1.43976 0
M  V30 19861 C 1897.27 -4.60349 -2.00957 0
M  V30 19862 C 1899.26 -6.28889 -1.03813 0
M  V30 19863 C 1896.95 -5.89672 -1.60405 0
M  V30 19864 C 1897.95 -6.73769 -1.11913 0
M  V30 19865 O 1897.64 -8.00675 -0.719315 0
M  V30 19866 H 1897.37 -0.562243 -0.375312 0
M  V30 19867 H 1899.92 -1.9809 -0.54311 0
M  V30 19868 H 1898.15 -2.35009 -3.07096 0
M  V30 19869 H 1899.84 -2.75844 -2.97767 0
M  V30 19870 H 1900.61 -4.65217 -1.37105 0
M  V30 19871 H 1896.49 -3.95024 -2.37648 0
M  V30 19872 H 1900.03 -6.94481 -0.658932 0
M  V30 19873 H 1895.93 -6.23539 -1.66942 0
M  V30 19874 H 1896.7 -8.14112 -0.846434 0
M  V30 19875 N 1899.36 0.706069 -1.40899 0
M  V30 19876 C 1900.61 1.46164 -1.38993 0
M  V30 19877 C 1900.92 1.956 0.00145788 0
M  V30 19878 O 1902.13 2.71122 0.143137 0
M  V30 19879 C 1900.58 2.64252 -2.44334 0
M  V30 19880 C 1900.19 2.21646 -3.89329 0
M  V30 19881 C 1901.93 3.41941 -2.51549 0
M  V30 19882 C 1899.84 3.36629 -4.86245 0
M  V30 19883 H 1898.77 0.548985 -0.516847 0
M  V30 19884 H 1901.42 0.767528 -1.66677 0
M  V30 19885 H 1899.8 3.3588 -2.09764 0
M  V30 19886 H 1900.98 1.57376 -4.33093 0
M  V30 19887 H 1899.29 1.56978 -3.85677 0
M  V30 19888 H 1901.89 4.27518 -3.21142 0
M  V30 19889 H 1902.23 3.86409 -1.54899 0
M  V30 19890 H 1902.77 2.77363 -2.85158 0
M  V30 19891 H 1899.51 2.97183 -5.84262 0
M  V30 19892 H 1899.03 3.99784 -4.47139 0
M  V30 19893 H 1900.7 4.02559 -5.06513 0
M  V30 19894 N 1900.84 1.26553 0.939264 0
M  V30 19895 C 1902.08 1.12376 1.68818 0
M  V30 19896 C 1902.42 -0.331784 1.91345 0
M  V30 19897 O 1901.69 -1.24359 1.4955 0
M  V30 19898 C 1901.97 1.89541 3.0618 0
M  V30 19899 C 1901.83 3.43014 2.90966 0
M  V30 19900 C 1903.15 1.69074 4.06327 0
M  V30 19901 H 1900.26 0.409616 0.612686 0
M  V30 19902 H 1902.91 1.55571 1.09076 0
M  V30 19903 H 1901.06 1.5283 3.57177 0
M  V30 19904 H 1902.73 3.89489 2.47176 0
M  V30 19905 H 1900.97 3.69942 2.26551 0
M  V30 19906 H 1901.64 3.92236 3.88401 0
M  V30 19907 H 1904.12 2.01061 3.64299 0
M  V30 19908 H 1902.99 2.25478 5.00451 0
M  V30 19909 H 1903.26 0.635787 4.37504 0
M  V30 19910 N 1902.31 -1.14411 1.08387 0
M  V30 19911 C 1903.56 -1.85078 0.811826 0
M  V30 19912 C 1903.88 -1.83335 -0.664312 0
M  V30 19913 O 1903.15 -1.28164 -1.48158 0
M  V30 19914 H 1901.73 -0.685278 0.297328 0
M  V30 19915 H 1904.4 -1.38644 1.36981 0
M  V30 19916 H 1903.49 -2.89909 1.15581 0
M  V30 19917 N 1903.79 -0.869509 -1.31443 0
M  V30 19918 C 1905.07 -0.400903 -1.91447 0
M  V30 19919 C 1905.45 1.117 -1.79127 0
M  V30 19920 O 1904.8 1.94536 -1.19866 0
M  V30 19921 C 1905.01 -0.881767 -3.37677 0
M  V30 19922 C 1906.36 -0.90763 -4.14786 0
M  V30 19923 O 1907.38 -0.82739 -3.46457 0
M  V30 19924 O 1906.24 -1.02365 -5.36827 0
M  V30 19925 H 1903.33 -0.119842 -0.818271 0
M  V30 19926 H 1905.88 -0.957391 -1.40115 0
M  V30 19927 H 1904.65 -1.92533 -3.40657 0
M  V30 19928 H 1904.27 -0.303565 -3.96439 0
M  V30 19929 N 1905.27 1.44508 -0.628902 0
M  V30 19930 C 1906.52 2.02365 -0.132699 0
M  V30 19931 C 1906.85 1.4934 1.24142 0
M  V30 19932 O 1906.12 0.676567 1.82354 0
M  V30 19933 C 1906.41 3.5991 -0.11694 0
M  V30 19934 C 1906.26 4.23223 -1.52324 0
M  V30 19935 C 1907.58 4.36527 0.559696 0
M  V30 19936 H 1904.7 0.735323 -0.049695 0
M  V30 19937 H 1907.34 1.72106 -0.80495 0
M  V30 19938 H 1905.49 3.8582 0.455515 0
M  V30 19939 H 1907.16 4.08427 -2.14441 0
M  V30 19940 H 1905.41 3.80803 -2.07777 0
M  V30 19941 H 1906.08 5.32225 -1.46427 0
M  V30 19942 H 1908.55 4.16036 0.0728971 0
M  V30 19943 H 1907.43 5.46238 0.539902 0
M  V30 19944 H 1907.69 4.10968 1.62965 0
M  V30 19945 N 1906.75 0.369315 1.53212 0
M  V30 19946 C 1908 -0.219533 2.01608 0
M  V30 19947 C 1908.33 -1.48115 1.25601 0
M  V30 19948 O 1907.6 -1.91311 0.350762 0
M  V30 19949 C 1907.89 -0.507713 3.56503 0
M  V30 19950 C 1907.74 0.767792 4.43199 0
M  V30 19951 C 1909.06 -1.30674 4.20253 0
M  V30 19952 H 1906.18 -0.0783156 0.732827 0
M  V30 19953 H 1908.82 0.494943 1.8344 0
M  V30 19954 H 1906.97 -1.11637 3.72115 0
M  V30 19955 H 1908.64 1.4052 4.39377 0
M  V30 19956 H 1906.88 1.38737 4.11017 0
M  V30 19957 H 1907.56 0.521063 5.49535 0
M  V30 19958 H 1910.03 -0.791822 4.08497 0
M  V30 19959 H 1908.91 -1.47712 5.28652 0
M  V30 19960 H 1909.17 -2.31631 3.76562 0
M  V30 19961 N 1908.23 -1.57291 0.0985816 0
M  V30 19962 C 1909.16 -2.11249 -0.889184 0
M  V30 19963 C 1910.17 -1.05051 -1.24371 0
M  V30 19964 O 1911.36 -1.32488 -1.19621 0
M  V30 19965 C 1908.46 -2.58021 -2.19724 0
M  V30 19966 C 1907.63 -3.88091 -2.01752 0
M  V30 19967 C 1906.69 -4.20674 -3.16101 0
M  V30 19968 O 1905.72 -4.89837 -2.89911 0
M  V30 19969 N 1906.92 -3.76356 -4.41969 0
M  V30 19970 H 1909.69 -2.96624 -0.42832 0
M  V30 19971 H 1907.25 -1.61669 -0.0864254 0
M  V30 19972 H 1909.24 -2.76861 -2.95178 0
M  V30 19973 H 1907.81 -1.77638 -2.57223 0
M  V30 19974 H 1907.03 -3.78364 -1.10608 0
M  V30 19975 H 1908.32 -4.7318 -1.87026 0
M  V30 19976 H 1907.72 -3.20533 -4.66128 0
M  V30 19977 H 1906.27 -4.00344 -5.14361 0
M  V30 19978 N 1909.71 0.175127 -1.56624 0
M  V30 19979 C 1910.62 1.23691 -1.99343 0
M  V30 19980 C 1911.63 1.48662 -0.904197 0
M  V30 19981 O 1912.81 1.60885 -1.21153 0
M  V30 19982 C 1909.87 2.55689 -2.34145 0
M  V30 19983 C 1908.93 2.38614 -3.56878 0
M  V30 19984 C 1908.17 3.64318 -3.9001 0
M  V30 19985 O 1908.39 4.69335 -3.24162 0
M  V30 19986 O 1907.32 3.58655 -4.83373 0
M  V30 19987 H 1911.15 0.904314 -2.89924 0
M  V30 19988 H 1908.73 0.381697 -1.44442 0
M  V30 19989 H 1910.62 3.33562 -2.57516 0
M  V30 19990 H 1909.29 2.88535 -1.46728 0
M  V30 19991 H 1908.2 1.58786 -3.3873 0
M  V30 19992 H 1909.53 2.10694 -4.44825 0
M  V30 19993 N 1911.18 1.5123 0.44355 0
M  V30 19994 C 1912.43 1.63267 1.19114 0
M  V30 19995 C 1912.75 0.348151 1.91867 0
M  V30 19996 O 1912.02 -0.635724 1.85298 0
M  V30 19997 H 1910.6 0.601701 0.442679 0
M  V30 19998 H 1913.26 1.88132 0.509134 0
M  V30 19999 H 1912.36 2.45732 1.92411 0
M  V30 20000 N 1912.66 -0.698586 1.41271 0
M  V30 20001 C 1913.91 -1.46077 1.40674 0
M  V30 20002 C 1914.24 -1.94194 0.0146774 0
M  V30 20003 O 1913.52 -1.69325 -0.957036 0
M  V30 20004 C 1913.8 -2.67481 2.41093 0
M  V30 20005 C 1913.65 -2.25149 3.89394 0
M  V30 20006 C 1914.97 -3.69673 2.38809 0
M  V30 20007 H 1912.09 -0.529839 0.512288 0
M  V30 20008 H 1914.73 -0.795918 1.72526 0
M  V30 20009 H 1912.88 -3.24206 2.14062 0
M  V30 20010 H 1914.55 -1.73775 4.27317 0
M  V30 20011 H 1912.8 -1.56965 4.04406 0
M  V30 20012 H 1913.47 -3.12247 4.55199 0
M  V30 20013 H 1915.94 -3.22615 2.6279 0
M  V30 20014 H 1914.82 -4.52232 3.1109 0
M  V30 20015 H 1915.08 -4.1916 1.40562 0
M  V30 20016 N 1914.14 -1.27049 -0.93254 0
M  V30 20017 C 1915.07 -1.11867 -2.04959 0
M  V30 20018 C 1916.05 -0.0214563 -1.70086 0
M  V30 20019 O 1917.24 -0.195063 -1.93218 0
M  V30 20020 C 1914.37 -0.759993 -3.38883 0
M  V30 20021 C 1913.32 -1.8099 -3.87849 0
M  V30 20022 C 1912.65 -1.30532 -5.18522 0
M  V30 20023 C 1913.95 -3.21309 -4.11774 0
M  V30 20024 H 1915.64 -2.05309 -2.17918 0
M  V30 20025 H 1913.19 -0.988507 -1.04712 0
M  V30 20026 H 1915.14 -0.640623 -4.16502 0
M  V30 20027 H 1913.86 0.210139 -3.25923 0
M  V30 20028 H 1912.52 -1.91809 -3.12418 0
M  V30 20029 H 1912.17 -0.324784 -5.0195 0
M  V30 20030 H 1911.87 -2.00722 -5.52254 0
M  V30 20031 H 1913.39 -1.19879 -5.98716 0
M  V30 20032 H 1914.81 -3.13517 -4.79979 0
M  V30 20033 H 1913.2 -3.89166 -4.56804 0
M  V30 20034 H 1914.27 -3.66722 -3.17243 0
M  V30 20035 N 1915.62 1.13835 -1.08993 0
M  V30 20036 C 1916.85 1.88861 -0.844923 0
M  V30 20037 C 1917.26 1.78897 0.603444 0
M  V30 20038 O 1916.62 1.15246 1.41508 0
M  V30 20039 C 1916.67 3.38622 -1.26559 0
M  V30 20040 O 1916.39 3.48321 -2.65714 0
M  V30 20041 C 1917.89 4.30629 -1.05232 0
M  V30 20042 H 1915.11 0.598038 -0.304288 0
M  V30 20043 H 1917.65 1.44129 -1.45076 0
M  V30 20044 H 1915.81 3.80954 -0.703737 0
M  V30 20045 H 1916.22 4.41387 -2.83333 0
M  V30 20046 H 1917.7 5.34057 -1.39598 0
M  V30 20047 H 1918.17 4.39199 0.0102308 0
M  V30 20048 H 1918.78 3.9406 -1.5999 0
M  V30 20049 N 1917.1 0.876467 1.3098 0
M  V30 20050 C 1918.06 0.341893 2.26636 0
M  V30 20051 C 1919.06 -0.510816 1.52471 0
M  V30 20052 O 1920.25 -0.31919 1.71251 0
M  V30 20053 C 1917.38 -0.513725 3.37007 0
M  V30 20054 H 1918.57 1.18642 2.75434 0
M  V30 20055 H 1916.13 0.652602 1.42024 0
M  V30 20056 H 1916.86 -1.37919 2.93511 0
M  V30 20057 H 1916.65 0.0969443 3.9198 0
M  V30 20058 H 1918.14 -0.87981 4.08227 0
M  V30 20059 N 1918.57 -1.44173 0.636557 0
M  V30 20060 C 1919.82 -2.02292 0.143429 0
M  V30 20061 C 1920.15 -1.49996 -1.23348 0
M  V30 20062 O 1919.43 -0.686228 -1.81992 0
M  V30 20063 C 1919.71 -3.59843 0.136025 0
M  V30 20064 C 1919.56 -4.22409 1.54566 0
M  V30 20065 C 1920.88 -4.36817 -0.536538 0
M  V30 20066 H 1918 -0.735049 0.0535939 0
M  V30 20067 H 1920.64 -1.71677 0.814066 0
M  V30 20068 H 1918.79 -3.86056 -0.435048 0
M  V30 20069 H 1920.47 -4.07284 2.16604 0
M  V30 20070 H 1918.71 -3.79696 2.09793 0
M  V30 20071 H 1919.38 -5.31441 1.49247 0
M  V30 20072 H 1921.86 -4.16069 -0.0508327 0
M  V30 20073 H 1920.73 -5.46517 -0.510926 0
M  V30 20074 H 1920.99 -4.11827 -1.60783 0
M  V30 20075 N 1920.05 -0.377435 -1.53014 0
M  V30 20076 C 1921.3 0.208838 -2.01722 0
M  V30 20077 C 1921.63 1.47446 -1.26385 0
M  V30 20078 O 1920.91 1.91122 -0.360903 0
M  V30 20079 C 1921.19 0.4888 -3.56767 0
M  V30 20080 C 1921.04 -0.791285 -4.42785 0
M  V30 20081 C 1922.36 1.28443 -4.2094 0
M  V30 20082 H 1919.48 0.0744281 -0.733232 0
M  V30 20083 H 1922.12 -0.504664 -1.83175 0
M  V30 20084 H 1920.27 1.09662 -3.72702 0
M  V30 20085 H 1921.94 -1.42848 -4.38625 0
M  V30 20086 H 1920.19 -1.40914 -4.10275 0
M  V30 20087 H 1920.86 -0.550199 -5.49251 0
M  V30 20088 H 1923.33 0.770147 -4.08911 0
M  V30 20089 H 1922.21 1.44906 -5.29427 0
M  V30 20090 H 1922.47 2.29631 -3.77786 0
M  V30 20091 N 1921.53 1.57237 -0.106922 0
M  V30 20092 C 1922.78 1.9395 0.553733 0
M  V30 20093 C 1923.09 0.991678 1.68597 0
M  V30 20094 O 1924.3 1.25299 2.40858 0
M  V30 20095 C 1922.75 3.44655 1.0364 0
M  V30 20096 C 1922.36 4.4795 -0.0667311 0
M  V30 20097 C 1924.11 3.90309 1.66911 0
M  V30 20098 C 1922.01 5.8982 0.431953 0
M  V30 20099 H 1920.94 0.723986 0.21062 0
M  V30 20100 H 1923.59 1.82567 -0.18483 0
M  V30 20101 H 1921.98 3.51231 1.82901 0
M  V30 20102 H 1923.15 4.5303 -0.842624 0
M  V30 20103 H 1921.47 4.11976 -0.605358 0
M  V30 20104 H 1924.06 4.9371 2.05315 0
M  V30 20105 H 1924.41 3.29612 2.54287 0
M  V30 20106 H 1924.94 3.86483 0.942119 0
M  V30 20107 H 1921.68 6.54245 -0.405469 0
M  V30 20108 H 1921.2 5.88187 1.17459 0
M  V30 20109 H 1922.88 6.4075 0.897104 0
M  V30 20110 N 1923.01 -0.166818 1.56715 0
M  V30 20111 C 1924.42 -0.728845 1.71886 0
M  V30 20112 C 1924.77 -1.82584 0.718168 0
M  V30 20113 O 1923.9 -2.1607 -0.119503 0
M  V30 20114 C 1924.49 -1.32885 3.11652 0
M  V30 20115 C 1923.05 -1.83766 3.28492 0
M  V30 20116 C 1922.2 -0.718371 2.67833 0
M  V30 20117 H 1925.15 0.0586298 1.58592 0
M  V30 20118 H 1925.17 -2.19858 3.10552 0
M  V30 20119 H 1924.68 -0.530219 3.84461 0
M  V30 20120 H 1922.78 -2.66259 2.60647 0
M  V30 20121 H 1922.89 -1.98 4.36271 0
M  V30 20122 H 1921.26 -1.13996 2.27765 0
M  V30 20123 H 1922.04 0.0684914 3.43232 0
M  V30 20124 N 1924.49 -1.51463 -0.435524 0
M  V30 20125 C 1925.71 -1.68031 -1.20719 0
M  V30 20126 C 1926.13 -0.378427 -1.84969 0
M  V30 20127 O 1925.49 0.643234 -1.70789 0
M  V30 20128 C 1925.54 -2.79726 -2.28989 0
M  V30 20129 O 1925.26 -4.0487 -1.67367 0
M  V30 20130 C 1926.76 -3.07578 -3.19234 0
M  V30 20131 H 1923.98 -0.56383 -0.363781 0
M  V30 20132 H 1926.52 -1.97888 -0.515825 0
M  V30 20133 H 1924.68 -2.52463 -2.93839 0
M  V30 20134 H 1925.09 -4.66915 -2.38937 0
M  V30 20135 H 1926.57 -3.89309 -3.91334 0
M  V30 20136 H 1927.04 -2.20059 -3.80093 0
M  V30 20137 H 1927.65 -3.36507 -2.60083 0
M  V30 20138 N 1925.96 0.691085 -1.4164 0
M  V30 20139 C 1926.91 1.80495 -1.43841 0
M  V30 20140 C 1927.88 1.63509 -0.292237 0
M  V30 20141 O 1929.07 1.84296 -0.493941 0
M  V30 20142 C 1926.21 3.18412 -1.33072 0
M  V30 20143 C 1925.32 3.46799 -2.57594 0
M  V30 20144 C 1924.45 4.74354 -2.39085 0
M  V30 20145 C 1923.49 4.95723 -3.59061 0
M  V30 20146 N 1922.63 6.14507 -3.39596 0
M  V30 20147 H 1927.47 1.77949 -2.39036 0
M  V30 20148 H 1925.01 0.86893 -1.18693 0
M  V30 20149 H 1926.97 3.98087 -1.24829 0
M  V30 20150 H 1925.6 3.20124 -0.414814 0
M  V30 20151 H 1924.65 2.61496 -2.76268 0
M  V30 20152 H 1925.96 3.58489 -3.46824 0
M  V30 20153 H 1925.11 5.62092 -2.28336 0
M  V30 20154 H 1923.85 4.64918 -1.47319 0
M  V30 20155 H 1922.86 4.06432 -3.70261 0
M  V30 20156 H 1924.08 5.07015 -4.51788 0
M  V30 20157 H 1922.03 6.06275 -2.50532 0
M  V30 20158 H 1921.95 6.26985 -4.22405 0
M  V30 20159 H 1923.21 7.04968 -3.32627 0
M  V30 20160 N 1927.44 1.27542 0.925789 0
M  V30 20161 C 1928.39 1.10432 2.02666 0
M  V30 20162 C 1929.36 0.004846 1.66099 0
M  V30 20163 O 1930.54 0.167531 1.90063 0
M  V30 20164 C 1927.68 0.759567 3.36637 0
M  V30 20165 C 1926.8 1.93687 3.86147 0
M  V30 20166 C 1925.93 1.53382 5.08574 0
M  V30 20167 C 1924.97 2.67849 5.50385 0
M  V30 20168 N 1924.11 2.2812 6.64007 0
M  V30 20169 H 1928.95 2.04632 2.16633 0
M  V30 20170 H 1926.49 1.01863 1.06124 0
M  V30 20171 H 1928.44 0.540492 4.13684 0
M  V30 20172 H 1927.07 -0.145477 3.22472 0
M  V30 20173 H 1926.13 2.26843 3.05363 0
M  V30 20174 H 1927.44 2.79548 4.13104 0
M  V30 20175 H 1926.59 1.2761 5.93128 0
M  V30 20176 H 1925.33 0.646332 4.83398 0
M  V30 20177 H 1924.34 2.94333 4.64379 0
M  V30 20178 H 1925.56 3.57222 5.77554 0
M  V30 20179 H 1923.51 1.41825 6.40485 0
M  V30 20180 H 1923.42 3.07519 6.90629 0
M  V30 20181 H 1924.69 2.056 7.51897 0
M  V30 20182 N 1928.92 -1.13255 1.09595 0
M  V30 20183 C 1929.88 -2.16909 0.740481 0
M  V30 20184 C 1930.88 -1.59135 -0.230794 0
M  V30 20185 O 1932.07 -1.74198 -0.00875551 0
M  V30 20186 C 1929.21 -3.40767 0.0953504 0
M  V30 20187 H 1930.4 -2.49869 1.65848 0
M  V30 20188 H 1927.95 -1.28113 0.895358 0
M  V30 20189 H 1928.69 -3.13398 -0.833794 0
M  V30 20190 H 1928.47 -3.83972 0.794247 0
M  V30 20191 H 1929.96 -4.17372 -0.137892 0
M  V30 20192 N 1930.4 -0.883401 -1.30514 0
M  V30 20193 C 1931.65 -0.500062 -1.95816 0
M  V30 20194 C 1931.97 0.953596 -1.70093 0
M  V30 20195 O 1931.24 1.67027 -1.02365 0
M  V30 20196 H 1929.82 -0.181936 -0.724506 0
M  V30 20197 H 1932.48 -1.12613 -1.59073 0
M  V30 20198 H 1931.58 -0.668998 -3.04846 0
M  V30 20199 N 1931.88 1.43833 -0.644194 0
M  V30 20200 C 1933.12 2.01515 -0.153623 0
M  V30 20201 C 1933.45 1.51022 1.23358 0
M  V30 20202 O 1932.72 0.719137 1.82223 0
M  V30 20203 H 1931.3 0.74506 -0.053802 0
M  V30 20204 H 1933.96 1.76163 -0.833833 0
M  V30 20205 H 1933.05 3.11824 -0.131313 0
M  V30 20206 N 1933.35 0.385544 1.52811 0
M  V30 20207 C 1934.58 -0.198025 2.0595 0
M  V30 20208 C 1935 -1.40822 1.25756 0
M  V30 20209 O 1934.35 -1.79963 0.303251 0
M  V30 20210 C 1934.41 -0.571856 3.56948 0
M  V30 20211 O 1934.13 0.59026 4.34105 0
M  V30 20212 C 1935.63 -1.21169 4.26419 0
M  V30 20213 H 1932.85 -0.0307594 0.670295 0
M  V30 20214 H 1935.39 0.549688 1.96974 0
M  V30 20215 H 1933.55 -1.26947 3.6601 0
M  V30 20216 H 1933.96 0.28384 5.23731 0
M  V30 20217 H 1935.43 -1.42366 5.33325 0
M  V30 20218 H 1935.91 -2.17794 3.81395 0
M  V30 20219 H 1936.52 -0.554949 4.21664 0
M  V30 20220 N 1934.83 -1.57178 0.115259 0
M  V30 20221 C 1936.06 -1.99415 -0.55147 0
M  V30 20222 C 1936.48 -0.994862 -1.60462 0
M  V30 20223 O 1935.83 0.0127831 -1.82496 0
M  V30 20224 C 1935.88 -3.41665 -1.18099 0
M  V30 20225 O 1935.6 -4.3777 -0.169944 0
M  V30 20226 C 1937.11 -3.99014 -1.9314 0
M  V30 20227 H 1934.33 -0.654856 -0.146302 0
M  V30 20228 H 1936.87 -2.03515 0.200495 0
M  V30 20229 H 1935.02 -3.38516 -1.88376 0
M  V30 20230 H 1935.44 -5.20741 -0.626853 0
M  V30 20231 H 1936.91 -5.00639 -2.32519 0
M  V30 20232 H 1937.39 -3.37947 -2.80515 0
M  V30 20233 H 1938 -4.05697 -1.27634 0
M  V30 20234 N 1936.31 0.158505 -1.56801 0
M  V30 20235 C 1937.22 1.2157 -2.00644 0
M  V30 20236 C 1938.24 1.47694 -0.919914 0
M  V30 20237 O 1939.41 1.59591 -1.22853 0
M  V30 20238 C 1936.48 2.53191 -2.36844 0
M  V30 20239 C 1935.54 2.34816 -3.59389 0
M  V30 20240 C 1934.77 3.60161 -3.93853 0
M  V30 20241 O 1935 4.65871 -3.29121 0
M  V30 20242 O 1933.93 3.53508 -4.8715 0
M  V30 20243 H 1937.76 0.873512 -2.90867 0
M  V30 20244 H 1935.34 0.366356 -1.44839 0
M  V30 20245 H 1937.22 3.30812 -2.6104 0
M  V30 20246 H 1935.9 2.86963 -1.4978 0
M  V30 20247 H 1934.8 1.55184 -3.40395 0
M  V30 20248 H 1936.14 2.05964 -4.47034 0
M  V30 20249 N 1937.79 1.51692 0.427485 0
M  V30 20250 C 1938.72 1.68413 1.53988 0
M  V30 20251 C 1939.7 0.531673 1.53662 0
M  V30 20252 O 1940.88 0.756748 1.72643 0
M  V30 20253 C 1938.01 1.70671 2.92556 0
M  V30 20254 C 1937.06 2.91998 3.10868 0
M  V30 20255 S 1937.89 4.52653 2.86122 0
M  V30 20256 C 1939.05 4.5767 4.26953 0
M  V30 20257 H 1939.28 2.62501 1.39573 0
M  V30 20258 H 1936.81 1.41499 0.617842 0
M  V30 20259 H 1938.77 1.72657 3.72424 0
M  V30 20260 H 1937.43 0.777425 3.04327 0
M  V30 20261 H 1936.62 2.90008 4.12203 0
M  V30 20262 H 1936.23 2.87805 2.38839 0
M  V30 20263 H 1938.52 4.33917 5.20309 0
M  V30 20264 H 1939.46 5.59529 4.33974 0
M  V30 20265 H 1939.87 3.8689 4.11067 0
M  V30 20266 N 1939.27 -0.683564 1.42004 0
M  V30 20267 C 1940.2 -1.8095 1.47578 0
M  V30 20268 C 1941.18 -1.66804 0.333208 0
M  V30 20269 O 1942.36 -1.86357 0.546314 0
M  V30 20270 C 1939.49 -3.19182 1.36895 0
M  V30 20271 C 1938.45 -3.4805 2.49089 0
M  V30 20272 C 1937.77 -4.85764 2.23467 0
M  V30 20273 C 1939.07 -3.4582 3.91415 0
M  V30 20274 H 1940.77 -1.76543 2.41812 0
M  V30 20275 H 1938.31 -0.84794 1.16387 0
M  V30 20276 H 1940.27 -3.97674 1.39404 0
M  V30 20277 H 1938.99 -3.24245 0.391513 0
M  V30 20278 H 1937.65 -2.71915 2.45882 0
M  V30 20279 H 1937.3 -4.87467 1.24037 0
M  V30 20280 H 1937 -5.06043 2.98654 0
M  V30 20281 H 1938.52 -5.66551 2.27711 0
M  V30 20282 H 1939.94 -4.14297 3.96272 0
M  V30 20283 H 1938.33 -3.77633 4.66383 0
M  V30 20284 H 1939.4 -2.4456 4.1871 0
M  V30 20285 N 1940.75 -1.28031 -0.919012 0
M  V30 20286 C 1941.71 -1.11534 -2.00232 0
M  V30 20287 C 1942.71 -0.0566233 -1.607 0
M  V30 20288 O 1943.9 -0.30196 -1.71563 0
M  V30 20289 C 1941.03 -0.701371 -3.33607 0
M  V30 20290 H 1942.22 -2.0774 -2.16297 0
M  V30 20291 H 1939.78 -1.10942 -1.10098 0
M  V30 20292 H 1940.51 0.261682 -3.23243 0
M  V30 20293 H 1940.3 -1.4661 -3.63659 0
M  V30 20294 H 1941.79 -0.608444 -4.13144 0
M  V30 20295 N 1942.22 1.12672 -1.10194 0
M  V30 20296 C 1943.17 2.18326 -0.748496 0
M  V30 20297 C 1944.14 1.63824 0.274007 0
M  V30 20298 O 1945.33 1.90179 0.153852 0
M  V30 20299 C 1942.47 3.4461 -0.183772 0
M  V30 20300 C 1941.58 4.13178 -1.26127 0
M  V30 20301 C 1940.71 5.27103 -0.658462 0
M  V30 20302 C 1939.75 5.87533 -1.71672 0
M  V30 20303 N 1938.89 6.92876 -1.13435 0
M  V30 20304 H 1943.73 2.47906 -1.65369 0
M  V30 20305 H 1941.27 1.21715 -0.826064 0
M  V30 20306 H 1943.22 4.16887 0.161511 0
M  V30 20307 H 1941.85 3.15456 0.684657 0
M  V30 20308 H 1940.91 3.39105 -1.72372 0
M  V30 20309 H 1942.22 4.54163 -2.06246 0
M  V30 20310 H 1941.37 6.06132 -0.26248 0
M  V30 20311 H 1940.11 4.87389 0.174183 0
M  V30 20312 H 1939.12 5.07193 -2.12215 0
M  V30 20313 H 1940.34 6.29318 -2.55217 0
M  V30 20314 H 1938.29 6.55204 -0.323127 0
M  V30 20315 H 1938.2 7.32446 -1.8724 0
M  V30 20316 H 1939.47 7.75739 -0.764838 0
M  V30 20317 N 1943.7 0.89031 1.30043 0
M  V30 20318 C 1944.66 0.365912 2.2626 0
M  V30 20319 C 1945.66 -0.494616 1.53004 0
M  V30 20320 O 1946.85 -0.301009 1.7158 0
M  V30 20321 C 1943.99 -0.477952 3.37533 0
M  V30 20322 H 1945.18 1.21557 2.7416 0
M  V30 20323 H 1942.73 0.667628 1.41324 0
M  V30 20324 H 1943.47 -1.34798 2.94958 0
M  V30 20325 H 1943.25 0.138514 3.91855 0
M  V30 20326 H 1944.74 -0.836463 4.09137 0
M  V30 20327 N 1945.18 -1.43489 0.651812 0
M  V30 20328 C 1946.11 -2.33484 -0.0271093 0
M  V30 20329 C 1947.09 -1.4939 -0.813427 0
M  V30 20330 O 1948.28 -1.78058 -0.775186 0
M  V30 20331 C 1945.41 -3.32737 -0.995143 0
M  V30 20332 C 1944.36 -4.26809 -0.319036 0
M  V30 20333 C 1943.69 -5.1609 -1.39842 0
M  V30 20334 C 1944.99 -5.16326 0.787692 0
M  V30 20335 H 1946.68 -2.90503 0.724441 0
M  V30 20336 H 1944.23 -1.39686 0.349826 0
M  V30 20337 H 1946.18 -3.94593 -1.479 0
M  V30 20338 H 1944.9 -2.73972 -1.77784 0
M  V30 20339 H 1943.56 -3.66316 0.144366 0
M  V30 20340 H 1943.21 -4.53664 -2.17251 0
M  V30 20341 H 1942.91 -5.79848 -0.951292 0
M  V30 20342 H 1944.43 -5.80819 -1.88367 0
M  V30 20343 H 1945.85 -5.71999 0.386053 0
M  V30 20344 H 1944.24 -5.88798 1.1592 0
M  V30 20345 H 1945.31 -4.56099 1.64626 0
M  V30 20346 N 1946.66 -0.393643 -1.52605 0
M  V30 20347 C 1948.07 -0.0437985 -1.5954 0
M  V30 20348 C 1948.27 1.44203 -1.4074 0
M  V30 20349 O 1947.33 2.20707 -1.22657 0
M  V30 20350 C 1948.64 -0.524864 -2.96084 0
M  V30 20351 C 1950.19 -0.481497 -3.09274 0
M  V30 20352 C 1950.67 -0.938821 -4.48275 0
M  V30 20353 N 1952.16 -0.895009 -4.54471 0
M  V30 20354 C 1952.89 -1.22023 -5.60266 0
M  V30 20355 N 1952.39 -1.61614 -6.73686 0
M  V30 20356 N 1954.18 -1.1412 -5.50393 0
M  V30 20357 H 1946.33 -1.36091 -1.63074 0
M  V30 20358 H 1948.59 -0.558085 -0.766319 0
M  V30 20359 H 1948.3 -1.56277 -3.15072 0
M  V30 20360 H 1948.17 0.0737526 -3.77128 0
M  V30 20361 H 1950.56 0.547333 -2.8998 0
M  V30 20362 H 1950.64 -1.11597 -2.30173 0
M  V30 20363 H 1950.29 -1.9659 -4.6831 0
M  V30 20364 H 1950.22 -0.281313 -5.25848 0
M  V30 20365 H 1952.71 -0.603728 -3.73046 0
M  V30 20366 H 1953.02 -1.84782 -7.50384 0
M  V30 20367 H 1951.37 -1.65504 -6.75006 0
M  V30 20368 H 1954.56 -0.83088 -4.60667 0
M  V30 20369 H 1954.73 -1.39797 -6.32741 0
M  V30 20370 N 1948.14 1.57115 -0.123593 0
M  V30 20371 C 1949.08 2.15555 0.824912 0
M  V30 20372 C 1950.05 1.08181 1.2604 0
M  V30 20373 O 1951.24 1.36111 1.3371 0
M  V30 20374 C 1948.38 2.76288 2.06783 0
M  V30 20375 C 1947.49 3.97983 1.68029 0
M  V30 20376 C 1946.63 4.46788 2.87322 0
M  V30 20377 C 1945.66 5.61004 2.44829 0
M  V30 20378 N 1944.8 6.04532 3.57052 0
M  V30 20379 H 1949.64 2.9628 0.319726 0
M  V30 20380 H 1947.18 1.46372 0.14612 0
M  V30 20381 H 1949.14 3.09632 2.79613 0
M  V30 20382 H 1947.77 1.98245 2.54752 0
M  V30 20383 H 1946.82 3.70769 0.850542 0
M  V30 20384 H 1948.13 4.80796 1.32804 0
M  V30 20385 H 1947.28 4.82066 3.68372 0
M  V30 20386 H 1946.02 3.62934 3.25776 0
M  V30 20387 H 1945.03 5.25326 1.62213 0
M  V30 20388 H 1946.25 6.46627 2.07487 0
M  V30 20389 H 1944.2 5.23618 3.95171 0
M  V30 20390 H 1944.12 6.82212 3.25766 0
M  V30 20391 H 1945.38 6.44449 4.38527 0
M  V30 20392 N 1949.61 -0.150187 1.56883 0
M  V30 20393 C 1950.86 -0.864615 1.83446 0
M  V30 20394 C 1951.19 -1.80963 0.70471 0
M  V30 20395 O 1950.47 -1.92297 -0.291897 0
M  V30 20396 C 1950.75 -1.64188 3.20491 0
M  V30 20397 C 1950.6 -0.718573 4.44023 0
M  V30 20398 C 1951.92 -2.60505 3.54719 0
M  V30 20399 H 1949.04 -0.312878 0.66729 0
M  V30 20400 H 1951.68 -0.129937 1.89555 0
M  V30 20401 H 1949.83 -2.26819 3.15413 0
M  V30 20402 H 1951.51 -0.103513 4.61184 0
M  V30 20403 H 1949.75 -0.0279419 4.33791 0
M  V30 20404 H 1950.42 -1.29839 5.36513 0
M  V30 20405 H 1952.9 -2.07993 3.60386 0
M  V30 20406 H 1951.77 -3.11941 4.51646 0
M  V30 20407 H 1952.03 -3.41711 2.8051 0
M  V30 20408 N 1951.09 -1.51916 -0.419434 0
M  V30 20409 C 1952.5 -1.57746 -0.998651 0
M  V30 20410 C 1952.85 -0.411706 -1.91832 0
M  V30 20411 O 1951.98 0.469268 -2.11251 0
M  V30 20412 C 1952.57 -2.85895 -1.81795 0
M  V30 20413 C 1951.13 -2.94238 -2.34736 0
M  V30 20414 C 1950.28 -2.52587 -1.14434 0
M  V30 20415 H 1953.23 -1.57434 -0.200039 0
M  V30 20416 H 1953.25 -2.70667 -2.67431 0
M  V30 20417 H 1952.76 -3.70722 -1.14834 0
M  V30 20418 H 1950.87 -2.13881 -3.05099 0
M  V30 20419 H 1950.98 -3.98268 -2.66308 0
M  V30 20420 H 1949.34 -2.06196 -1.49516 0
M  V30 20421 H 1950.13 -3.39777 -0.490555 0
M  V30 20422 N 1952.57 0.676023 -1.42365 0
M  V30 20423 C 1953.8 1.46436 -1.46164 0
M  V30 20424 C 1954.21 1.8866 -0.0726092 0
M  V30 20425 O 1953.57 1.58056 0.912395 0
M  V30 20426 C 1953.62 2.71428 -2.38766 0
M  V30 20427 O 1953.34 2.30976 -3.72266 0
M  V30 20428 C 1954.84 3.65001 -2.51573 0
M  V30 20429 H 1952.06 0.450625 -0.49717 0
M  V30 20430 H 1954.61 0.830748 -1.86866 0
M  V30 20431 H 1952.76 3.30981 -2.01321 0
M  V30 20432 H 1953.18 3.11682 -4.21846 0
M  V30 20433 H 1954.65 4.49432 -3.20492 0
M  V30 20434 H 1955.13 4.10818 -1.55322 0
M  V30 20435 H 1955.73 3.11342 -2.89735 0
M  V30 20436 N 1954.05 1.28517 0.912209 0
M  V30 20437 C 1955.33 1.0646 1.6409 0
M  V30 20438 C 1955.71 -0.395521 2.07362 0
M  V30 20439 O 1955.05 -1.3819 1.81978 0
M  V30 20440 C 1955.26 2.04064 2.83123 0
M  V30 20441 C 1956.61 2.34295 3.54106 0
M  V30 20442 O 1957.64 2.0216 2.93274 0
M  V30 20443 O 1956.49 2.89146 4.63742 0
M  V30 20444 H 1953.59 0.406984 0.719926 0
M  V30 20445 H 1956.13 1.39841 0.961378 0
M  V30 20446 H 1954.91 3.02467 2.48253 0
M  V30 20447 H 1954.53 1.71338 3.58788 0
M  V30 20448 N 1955.53 -1.12086 1.1079 0
M  V30 20449 C 1956.47 -2.20006 0.755001 0
M  V30 20450 C 1957.47 -1.67538 -0.250501 0
M  V30 20451 O 1958.67 -1.79661 -0.110486 0
M  V30 20452 H 1955.05 -0.717162 0.226237 0
M  V30 20453 H 1957.02 -2.47022 1.67399 0
M  V30 20454 C 1955.77 -3.47083 0.207038 0
M  V30 20455 H 1955.09 -3.87805 0.971991 0
M  V30 20456 H 1956.53 -4.24 -0.00177915 0
M  V30 20457 C 1954.99 -3.19753 -1.06112 0
M  V30 20458 O 1955.52 -3.39825 -2.142 0
M  V30 20459 N 1953.73 -2.73534 -0.981212 0
M  V30 20460 H 1953.27 -2.574 -0.101519 0
M  V30 20461 H 1953.23 -2.55624 -1.83041 0
M  V30 20462 N 1957 -0.897194 -1.29569 0
M  V30 20463 C 1958.23 -0.536391 -1.99515 0
M  V30 20464 C 1958.64 0.882674 -1.67348 0
M  V30 20465 O 1957.99 1.59379 -0.913459 0
M  V30 20466 C 1958.05 -0.645863 -3.53651 0
M  V30 20467 C 1957.71 -2.03145 -4.09367 0
M  V30 20468 C 1958.71 -3.00231 -4.24449 0
M  V30 20469 C 1956.39 -2.34015 -4.44457 0
M  V30 20470 C 1958.39 -4.26314 -4.73852 0
M  V30 20471 C 1956.07 -3.60341 -4.93556 0
M  V30 20472 C 1957.07 -4.56304 -5.08208 0
M  V30 20473 O 1956.76 -5.80387 -5.56243 0
M  V30 20474 H 1956.49 -0.204698 -0.644263 0
M  V30 20475 H 1959.05 -1.20784 -1.66134 0
M  V30 20476 H 1957.28 0.0826055 -3.86612 0
M  V30 20477 H 1958.97 -0.294573 -4.0483 0
M  V30 20478 H 1959.73 -2.77696 -3.9763 0
M  V30 20479 H 1955.61 -1.60082 -4.32313 0
M  V30 20480 H 1959.15 -5.01222 -4.85203 0
M  V30 20481 H 1955.05 -3.82707 -5.19813 0
M  V30 20482 H 1955.82 -5.82941 -5.74562 0
M  V30 20483 N 1958.48 1.43142 -0.659413 0
M  V30 20484 C 1959.73 2.0096 -0.172631 0
M  V30 20485 C 1960.04 1.52669 1.22277 0
M  V30 20486 O 1961.25 2.02802 1.8051 0
M  V30 20487 C 1959.71 3.58975 -0.257802 0
M  V30 20488 C 1959.31 4.16259 -1.65628 0
M  V30 20489 C 1961.06 4.24155 0.171057 0
M  V30 20490 C 1958.97 5.66588 -1.69505 0
M  V30 20491 H 1957.9 0.751547 -0.0607765 0
M  V30 20492 H 1960.55 1.64042 -0.822352 0
M  V30 20493 H 1958.93 3.93325 0.459538 0
M  V30 20494 H 1960.1 3.93398 -2.39947 0
M  V30 20495 H 1958.42 3.63473 -2.03165 0
M  V30 20496 H 1961.01 5.34454 0.162026 0
M  V30 20497 H 1961.36 3.98521 1.2036 0
M  V30 20498 H 1961.89 3.94711 -0.494745 0
M  V30 20499 H 1958.63 5.96998 -2.7069 0
M  V30 20500 H 1958.15 5.91486 -0.995201 0
M  V30 20501 H 1959.83 6.30736 -1.44156 0
M  V30 20502 N 1959.96 0.40173 1.52394 0
M  V30 20503 C 1961.19 -0.17617 2.06149 0
M  V30 20504 C 1961.6 -1.39481 1.27242 0
M  V30 20505 O 1960.96 -1.79631 0.322321 0
M  V30 20506 C 1961.01 -0.533965 3.57535 0
M  V30 20507 O 1960.73 0.63627 4.33455 0
M  V30 20508 C 1962.23 -1.16639 4.2768 0
M  V30 20509 H 1959.45 -0.0236483 0.670583 0
M  V30 20510 H 1962 0.570549 1.9638 0
M  V30 20511 H 1960.15 -1.23058 3.67336 0
M  V30 20512 H 1960.57 0.339373 5.23401 0
M  V30 20513 H 1962.04 -1.36701 5.34805 0
M  V30 20514 H 1962.52 -2.13737 3.83684 0
M  V30 20515 H 1963.12 -0.510194 4.22229 0
M  V30 20516 N 1961.44 -1.57047 0.131923 0
M  V30 20517 C 1962.67 -1.99989 -0.530289 0
M  V30 20518 C 1963.08 -1.01182 -1.59397 0
M  V30 20519 O 1962.44 -0.00657368 -1.82499 0
M  V30 20520 C 1962.49 -3.42898 -1.14469 0
M  V30 20521 O 1962.21 -4.37926 -0.123503 0
M  V30 20522 C 1963.71 -4.0104 -1.88897 0
M  V30 20523 H 1960.93 -0.656371 -0.139348 0
M  V30 20524 H 1963.48 -2.03291 0.222069 0
M  V30 20525 H 1961.63 -3.40495 -1.84775 0
M  V30 20526 H 1962.04 -5.21376 -0.571587 0
M  V30 20527 H 1963.52 -5.03077 -2.27196 0
M  V30 20528 H 1964 -3.40903 -2.76915 0
M  V30 20529 H 1964.6 -4.07027 -1.23324 0
M  V30 20530 N 1962.92 0.141865 -1.5696 0
M  V30 20531 C 1964.15 0.867144 -1.87521 0
M  V30 20532 C 1964.55 1.75017 -0.718719 0
M  V30 20533 O 1963.9 1.80883 0.320455 0
M  V30 20534 C 1963.96 1.77109 -3.12846 0
M  V30 20535 C 1963.62 1.06471 -4.44424 0
M  V30 20536 C 1964.62 0.416192 -5.18231 0
M  V30 20537 C 1962.31 1.05268 -4.91145 0
M  V30 20538 C 1964.3 -0.234905 -6.36967 0
M  V30 20539 C 1961.99 0.397777 -6.09804 0
M  V30 20540 C 1962.98 -0.244885 -6.82561 0
M  V30 20541 O 1962.67 -0.889395 -7.98965 0
M  V30 20542 H 1962.4 0.255843 -0.625716 0
M  V30 20543 H 1964.96 0.137798 -2.04937 0
M  V30 20544 H 1963.19 2.54151 -2.91452 0
M  V30 20545 H 1964.88 2.36878 -3.29612 0
M  V30 20546 H 1965.64 0.417253 -4.83202 0
M  V30 20547 H 1961.52 1.54232 -4.34435 0
M  V30 20548 H 1965.07 -0.737115 -6.93695 0
M  V30 20549 H 1960.96 0.3944 -6.44294 0
M  V30 20550 H 1961.73 -0.791577 -8.14663 0
M  V30 20551 N 1964.39 1.52136 0.411372 0
M  V30 20552 C 1965.81 1.58274 0.990272 0
M  V30 20553 C 1966.16 0.421874 1.91611 0
M  V30 20554 O 1965.28 -0.458058 2.11497 0
M  V30 20555 C 1965.88 2.86855 1.80276 0
M  V30 20556 C 1964.44 2.95478 2.33173 0
M  V30 20557 C 1963.58 2.5319 1.13093 0
M  V30 20558 H 1966.53 1.57538 0.191687 0
M  V30 20559 H 1966.55 2.72082 2.65992 0
M  V30 20560 H 1966.07 3.71326 1.12866 0
M  V30 20561 H 1964.17 2.15496 3.03961 0
M  V30 20562 H 1964.28 3.99674 2.64192 0
M  V30 20563 H 1962.64 2.06986 1.48421 0
M  V30 20564 H 1963.43 3.40032 0.472529 0
M  V30 20565 N 1965.87 -0.668464 1.42721 0
M  V30 20566 C 1967.12 -1.42567 1.43245 0
M  V30 20567 C 1967.44 -1.9493 0.0521972 0
M  V30 20568 O 1966.71 -1.73469 -0.910231 0
M  V30 20569 H 1965.29 -0.529068 0.527349 0
M  V30 20570 H 1967.95 -0.789428 1.78197 0
M  V30 20571 H 1967.05 -2.27556 2.13599 0
M  V30 20572 N 1967.35 -1.28999 -0.905381 0
M  V30 20573 C 1968.28 -1.09447 -2.0138 0
M  V30 20574 C 1969.3 -0.0436697 -1.62741 0
M  V30 20575 O 1970.49 -0.287603 -1.76168 0
M  V30 20576 C 1967.59 -0.642796 -3.32748 0
M  V30 20577 C 1966.76 -1.77086 -3.99949 0
M  V30 20578 C 1965.82 -1.31115 -5.09603 0
M  V30 20579 O 1964.84 -2.01488 -5.32345 0
M  V30 20580 N 1966.05 -0.178924 -5.80224 0
M  V30 20581 H 1968.81 -2.04906 -2.18709 0
M  V30 20582 H 1966.37 -1.20863 -1.07721 0
M  V30 20583 H 1968.36 -0.318684 -4.03443 0
M  V30 20584 H 1966.93 0.21918 -3.11831 0
M  V30 20585 H 1966.15 -2.26414 -3.22692 0
M  V30 20586 H 1967.44 -2.52736 -4.4159 0
M  V30 20587 H 1966.84 0.407926 -5.64227 0
M  V30 20588 H 1965.4 0.085857 -6.51743 0
M  V30 20589 N 1968.83 1.11497 -1.11383 0
M  V30 20590 C 1970.08 1.8286 -0.860611 0
M  V30 20591 C 1970.4 1.85032 0.615471 0
M  V30 20592 O 1969.67 1.32047 1.44708 0
M  V30 20593 H 1968.25 0.677153 -0.315392 0
M  V30 20594 H 1970.91 1.34963 -1.40609 0
M  V30 20595 H 1970.01 2.86743 -1.23227 0
M  V30 20596 N 1970.31 0.904053 1.29092 0
M  V30 20597 C 1971.24 0.401805 2.30017 0
M  V30 20598 C 1972.22 -0.525477 1.6178 0
M  V30 20599 O 1973.4 -0.435279 1.89259 0
M  V30 20600 C 1970.53 -0.367656 3.45348 0
M  V30 20601 C 1969.49 0.469596 4.25416 0
M  V30 20602 C 1968.81 -0.427624 5.32987 0
M  V30 20603 C 1970.11 1.7218 4.93104 0
M  V30 20604 H 1971.81 1.24523 2.72276 0
M  V30 20605 H 1969.35 0.600215 1.30895 0
M  V30 20606 H 1971.31 -0.729791 4.15033 0
M  V30 20607 H 1970.03 -1.2449 3.01944 0
M  V30 20608 H 1968.69 0.814119 3.57446 0
M  V30 20609 H 1968.34 -1.30313 4.85827 0
M  V30 20610 H 1968.04 0.128909 5.87459 0
M  V30 20611 H 1969.56 -0.785855 6.05522 0
M  V30 20612 H 1970.98 1.42914 5.55201 0
M  V30 20613 H 1969.37 2.21999 5.57527 0
M  V30 20614 H 1970.44 2.45526 4.18145 0
M  V30 20615 N 1971.79 -1.4279 0.666995 0
M  V30 20616 C 1972.73 -2.32583 -0.0279199 0
M  V30 20617 C 1973.73 -1.49387 -0.79874 0
M  V30 20618 O 1974.93 -1.65509 -0.707585 0
M  V30 20619 H 1971.31 -0.751485 -0.0278204 0
M  V30 20620 H 1973.28 -2.88901 0.746913 0
M  V30 20621 C 1972.03 -3.33869 -0.970921 0
M  V30 20622 H 1971.35 -3.9792 -0.387213 0
M  V30 20623 H 1972.79 -3.99301 -1.42599 0
M  V30 20624 C 1971.25 -2.65527 -2.07358 0
M  V30 20625 O 1971.78 -2.48123 -3.15908 0
M  V30 20626 N 1969.99 -2.24677 -1.84305 0
M  V30 20627 H 1969.53 -2.39032 -0.960283 0
M  V30 20628 H 1969.49 -1.79282 -2.58274 0
M  V30 20629 N 1973.26 -0.409806 -1.52179 0
M  V30 20630 C 1974.51 0.16543 -2.01422 0
M  V30 20631 C 1974.83 1.45588 -1.29727 0
M  V30 20632 O 1974.1 1.9127 -0.423399 0
M  V30 20633 H 1972.68 0.0641237 -0.744243 0
M  V30 20634 H 1975.34 -0.546204 -1.8709 0
M  V30 20635 H 1974.44 0.361061 -3.10004 0
M  V30 20636 N 1974.74 1.56975 -0.14025 0
M  V30 20637 C 1975.97 1.99977 0.518922 0
M  V30 20638 C 1976.38 1.01924 1.59399 0
M  V30 20639 O 1975.72 0.007174 1.83699 0
M  V30 20640 C 1975.78 3.3941 1.18495 0
M  V30 20641 C 1975.45 4.56286 0.255289 0
M  V30 20642 C 1976.45 5.17349 -0.514424 0
M  V30 20643 C 1974.13 5.02045 0.160162 0
M  V30 20644 C 1976.12 6.22574 -1.36678 0
M  V30 20645 C 1973.81 6.07126 -0.695808 0
M  V30 20646 C 1974.81 6.67259 -1.45789 0
M  V30 20647 O 1974.5 7.70307 -2.29961 0
M  V30 20648 H 1974.23 0.661305 0.140186 0
M  V30 20649 H 1976.78 2.04111 -0.22979 0
M  V30 20650 H 1975.01 3.32095 1.98116 0
M  V30 20651 H 1976.7 3.66563 1.74316 0
M  V30 20652 H 1977.47 4.82899 -0.450926 0
M  V30 20653 H 1973.35 4.54972 0.743062 0
M  V30 20654 H 1976.89 6.69439 -1.96208 0
M  V30 20655 H 1972.79 6.41003 -0.760622 0
M  V30 20656 H 1973.56 7.87498 -2.23135 0
M  V30 20657 N 1976.22 -0.133539 1.57033 0
M  V30 20658 C 1977.45 -0.858432 1.88251 0
M  V30 20659 C 1977.86 -1.74119 0.729935 0
M  V30 20660 O 1977.22 -1.8002 -0.29983 0
M  V30 20661 C 1977.27 -1.70397 3.18821 0
M  V30 20662 O 1976.99 -0.856775 4.29641 0
M  V30 20663 C 1978.49 -2.53529 3.63646 0
M  V30 20664 H 1975.71 -0.247538 0.623671 0
M  V30 20665 H 1978.26 -0.122289 2.04134 0
M  V30 20666 H 1976.41 -2.39303 3.04652 0
M  V30 20667 H 1976.83 -1.43857 5.04386 0
M  V30 20668 H 1978.3 -3.0841 4.57807 0
M  V30 20669 H 1978.78 -3.30204 2.89589 0
M  V30 20670 H 1979.38 -1.89891 3.80554 0
M  V30 20671 N 1977.7 -1.52352 -0.403298 0
M  V30 20672 C 1978.94 -1.66944 -1.15141 0
M  V30 20673 C 1979.28 -0.401064 -1.90013 0
M  V30 20674 O 1978.55 0.60071 -1.84991 0
M  V30 20675 C 1978.83 -2.89526 -2.14118 0
M  V30 20676 C 1978.69 -4.26428 -1.43104 0
M  V30 20677 C 1980.01 -3.07636 -3.14719 0
M  V30 20678 H 1977.13 -0.607531 -0.417223 0
M  V30 20679 H 1979.77 -1.84919 -0.436447 0
M  V30 20680 H 1977.92 -2.74332 -2.7509 0
M  V30 20681 H 1979.59 -4.53362 -0.852075 0
M  V30 20682 H 1977.83 -4.27563 -0.732965 0
M  V30 20683 H 1978.5 -5.08258 -2.15355 0
M  V30 20684 H 1980.98 -3.21767 -2.63828 0
M  V30 20685 H 1979.86 -3.94909 -3.81232 0
M  V30 20686 H 1980.12 -2.2121 -3.82777 0
M  V30 20687 N 1979.18 0.660885 -1.43074 0
M  V30 20688 C 1980.09 1.80324 -1.50068 0
M  V30 20689 C 1981.1 1.69611 -0.388331 0
M  V30 20690 O 1982.28 1.90916 -0.641321 0
M  V30 20691 C 1979.34 3.16557 -1.41394 0
M  V30 20692 C 1978.4 3.39124 -2.63236 0
M  V30 20693 C 1977.64 4.68858 -2.54967 0
M  V30 20694 O 1977.86 5.47699 -1.59318 0
M  V30 20695 O 1976.79 4.92975 -3.45339 0
M  V30 20696 H 1980.62 1.77379 -2.46516 0
M  V30 20697 H 1978.2 0.8184 -1.2499 0
M  V30 20698 H 1980.09 3.97825 -1.38971 0
M  V30 20699 H 1978.76 3.2011 -0.480768 0
M  V30 20700 H 1977.67 2.5765 -2.71233 0
M  V30 20701 H 1979 3.40413 -3.555 0
M  V30 20702 N 1980.65 1.29477 0.898527 0
M  V30 20703 C 1981.56 1.16595 2.03575 0
M  V30 20704 C 1982.58 0.0889285 1.73773 0
M  V30 20705 O 1983.76 0.301228 1.99135 0
M  V30 20706 C 1980.82 0.844745 3.36251 0
M  V30 20707 C 1979.88 2.00573 3.79564 0
M  V30 20708 C 1979.12 1.69975 5.05909 0
M  V30 20709 O 1979.34 0.621246 5.67007 0
M  V30 20710 O 1978.27 2.54809 5.45303 0
M  V30 20711 H 1982.1 2.12098 2.17367 0
M  V30 20712 H 1979.68 1.0894 1.02237 0
M  V30 20713 H 1981.57 0.680229 4.15874 0
M  V30 20714 H 1980.24 -0.080494 3.236 0
M  V30 20715 H 1979.15 2.22549 3.00704 0
M  V30 20716 H 1980.48 2.91221 3.96801 0
M  V30 20717 N 1982.13 -1.10905 1.11972 0
M  V30 20718 C 1983.1 -2.1529 0.786324 0
M  V30 20719 C 1984.1 -1.59589 -0.196987 0
M  V30 20720 O 1985.29 -1.74177 0.0281964 0
M  V30 20721 C 1982.42 -3.40488 0.167611 0
M  V30 20722 H 1983.61 -2.46295 1.71111 0
M  V30 20723 H 1981.16 -1.26185 0.922332 0
M  V30 20724 H 1981.9 -3.15096 -0.76713 0
M  V30 20725 H 1981.68 -3.822 0.875514 0
M  V30 20726 H 1983.17 -4.17571 -0.0493303 0
M  V30 20727 N 1983.61 -0.910886 -1.2861 0
M  V30 20728 C 1984.56 -0.395575 -2.27385 0
M  V30 20729 C 1985.53 0.528415 -1.57471 0
M  V30 20730 O 1986.71 0.451232 -1.85388 0
M  V30 20731 C 1983.85 0.360855 -3.43208 0
M  V30 20732 C 1982.97 -0.59531 -4.27879 0
M  V30 20733 C 1982.1 0.179282 -5.30897 0
M  V30 20734 C 1981.14 -0.770684 -6.07229 0
M  V30 20735 N 1980.28 -0.0297918 -7.02094 0
M  V30 20736 H 1985.12 -1.24293 -2.70842 0
M  V30 20737 H 1982.65 -0.624218 -1.33199 0
M  V30 20738 H 1984.61 0.815583 -4.0915 0
M  V30 20739 H 1983.24 1.17258 -3.0075 0
M  V30 20740 H 1982.29 -1.16857 -3.62006 0
M  V30 20741 H 1983.61 -1.32201 -4.80962 0
M  V30 20742 H 1982.76 0.694702 -6.0271 0
M  V30 20743 H 1981.5 0.93905 -4.78574 0
M  V30 20744 H 1980.5 -1.29751 -5.3427 0
M  V30 20745 H 1981.73 -1.52996 -6.61641 0
M  V30 20746 H 1979.67 0.712039 -6.52124 0
M  V30 20747 H 1979.59 -0.69637 -7.52786 0
M  V30 20748 H 1980.86 0.465527 -7.78109 0
M  V30 20749 N 1985.09 1.42434 -0.674558 0
M  V30 20750 C 1986.32 2.05881 -0.205113 0
M  V30 20751 C 1986.73 1.50677 1.13763 0
M  V30 20752 O 1986.09 0.646479 1.70666 0
M  V30 20753 C 1986.14 3.61262 -0.131194 0
M  V30 20754 O 1985.86 4.14419 -1.42087 0
M  V30 20755 C 1987.36 4.41821 0.361775 0
M  V30 20756 H 1984.58 0.663535 -0.0998083 0
M  V30 20757 H 1987.13 1.82575 -0.921226 0
M  V30 20758 H 1985.28 3.8368 0.535604 0
M  V30 20759 H 1985.69 5.08285 -1.29407 0
M  V30 20760 H 1987.17 5.50809 0.362405 0
M  V30 20761 H 1987.65 4.1639 1.39699 0
M  V30 20762 H 1988.25 4.24421 -0.273278 0
M  V30 20763 N 1986.57 0.417871 1.51959 0
M  V30 20764 C 1987.81 -0.155282 2.02205 0
M  V30 20765 C 1988.15 -1.44044 1.3025 0
M  V30 20766 O 1987.42 -1.90098 0.411449 0
M  V30 20767 C 1987.7 -0.394038 3.57938 0
M  V30 20768 C 1987.56 0.908404 4.40532 0
M  V30 20769 C 1988.88 -1.17238 4.24197 0
M  V30 20770 H 1985.99 -0.0549616 0.734948 0
M  V30 20771 H 1988.64 0.553053 1.81773 0
M  V30 20772 H 1986.79 -0.997422 3.75478 0
M  V30 20773 H 1988.46 1.54427 4.34684 0
M  V30 20774 H 1986.7 1.51743 4.06395 0
M  V30 20775 H 1987.37 0.69563 5.47599 0
M  V30 20776 H 1989.85 -0.661461 4.10809 0
M  V30 20777 H 1988.72 -1.30818 5.33083 0
M  V30 20778 H 1988.99 -2.19534 3.83741 0
M  V30 20779 N 1988.04 -1.56898 0.148573 0
M  V30 20780 C 1988.97 -2.19852 -0.786585 0
M  V30 20781 C 1989.96 -1.14723 -1.2559 0
M  V30 20782 O 1991.14 -1.43071 -1.31317 0
M  V30 20783 C 1988.27 -2.82137 -2.02524 0
M  V30 20784 C 1987.22 -3.93108 -1.69264 0
M  V30 20785 C 1986.55 -4.42335 -3.00407 0
M  V30 20786 C 1987.85 -5.13807 -0.938092 0
M  V30 20787 H 1989.54 -2.98252 -0.261903 0
M  V30 20788 H 1987.09 -1.43461 -0.124531 0
M  V30 20789 H 1989.04 -3.24845 -2.68428 0
M  V30 20790 H 1987.77 -2.01071 -2.57368 0
M  V30 20791 H 1986.43 -3.5102 -1.05739 0
M  V30 20792 H 1986.07 -3.58089 -3.53244 0
M  V30 20793 H 1985.77 -5.17185 -2.78915 0
M  V30 20794 H 1987.3 -4.87714 -3.67378 0
M  V30 20795 H 1988.71 -5.53349 -1.49924 0
M  V30 20796 H 1987.11 -5.94429 -0.823062 0
M  V30 20797 H 1988.18 -4.8485 0.0698825 0
M  V30 20798 N 1989.52 0.125209 -1.57102 0
M  V30 20799 C 1990.47 1.15387 -1.99886 0
M  V30 20800 C 1991.44 1.41494 -0.869974 0
M  V30 20801 O 1992.62 1.53464 -1.13372 0
M  V30 20802 C 1989.76 2.47687 -2.40302 0
M  V30 20803 C 1988.88 2.28568 -3.6658 0
M  V30 20804 C 1988.01 3.54056 -3.96003 0
M  V30 20805 C 1987.05 3.30067 -5.15482 0
M  V30 20806 N 1986.19 4.47741 -5.40807 0
M  V30 20807 H 1991.03 0.782018 -2.87556 0
M  V30 20808 H 1988.57 0.374655 -1.42249 0
M  V30 20809 H 1990.52 3.24858 -2.61769 0
M  V30 20810 H 1989.15 2.82777 -1.55683 0
M  V30 20811 H 1988.21 1.42345 -3.52764 0
M  V30 20812 H 1989.52 2.06815 -4.53904 0
M  V30 20813 H 1988.67 4.39647 -4.18085 0
M  V30 20814 H 1987.41 3.78834 -3.07142 0
M  V30 20815 H 1986.42 2.42866 -4.93251 0
M  V30 20816 H 1987.64 3.06666 -6.05915 0
M  V30 20817 H 1985.59 4.72652 -4.54902 0
M  V30 20818 H 1985.5 4.2907 -6.22442 0
M  V30 20819 H 1986.77 5.34484 -5.67404 0
M  V30 20820 N 1991 1.52564 0.395213 0
M  V30 20821 C 1991.95 1.769 1.48239 0
M  V30 20822 C 1992.92 0.611965 1.54416 0
M  V30 20823 O 1994.1 0.851019 1.7077 0
M  V30 20824 C 1991.24 1.93809 2.85538 0
M  V30 20825 C 1990.36 3.2149 2.88562 0
M  V30 20826 C 1989.49 3.28751 4.17248 0
M  V30 20827 C 1988.53 4.5058 4.143 0
M  V30 20828 N 1987.67 4.55156 5.34581 0
M  V30 20829 H 1992.51 2.69683 1.26788 0
M  V30 20830 H 1990.04 1.33618 0.615189 0
M  V30 20831 H 1992 2.01597 3.6526 0
M  V30 20832 H 1990.63 1.04394 3.05453 0
M  V30 20833 H 1989.68 3.22805 2.01249 0
M  V30 20834 H 1991 4.11262 2.82251 0
M  V30 20835 H 1990.15 3.35687 5.0537 0
M  V30 20836 H 1988.89 2.36943 4.26274 0
M  V30 20837 H 1987.89 4.43775 3.24567 0
M  V30 20838 H 1989.12 5.43698 4.06902 0
M  V30 20839 H 1987.06 3.66237 5.44248 0
M  V30 20840 H 1986.98 5.38791 5.30321 0
M  V30 20841 H 1988.25 4.6634 6.24618 0
M  V30 20842 N 1992.48 -0.653289 1.43422 0
M  V30 20843 C 1993.72 -1.42498 1.46539 0
M  V30 20844 C 1994.08 -1.91802 0.087095 0
M  V30 20845 O 1995.28 -2.68799 -0.00704917 0
M  V30 20846 C 1993.55 -2.57481 2.47868 0
M  V30 20847 S 1995.11 -3.46008 2.69859 0
M  V30 20848 H 1991.93 -0.486421 0.518571 0
M  V30 20849 H 1994.53 -0.758465 1.80188 0
M  V30 20850 H 1993.24 -2.19533 3.46747 0
M  V30 20851 H 1992.77 -3.28983 2.15717 0
M  V30 20852 H 1994.78 -4.54205 1.9978 0
M  V30 20853 N 1993.96 -1.29952 -0.891648 0
M  V30 20854 C 1994.9 -1.15767 -1.99667 0
M  V30 20855 C 1995.87 -0.0488826 -1.66028 0
M  V30 20856 O 1997.06 -0.217864 -1.89552 0
M  V30 20857 C 1994.2 -0.848553 -3.34505 0
M  V30 20858 C 1993.31 -2.03857 -3.80876 0
M  V30 20859 C 1992.45 -1.66812 -5.04328 0
M  V30 20860 C 1991.49 -2.82348 -5.4309 0
M  V30 20861 N 1990.62 -2.45645 -6.57726 0
M  V30 20862 H 1995.46 -2.10304 -2.11131 0
M  V30 20863 H 1993 -1.04641 -1.03386 0
M  V30 20864 H 1994.96 -0.649983 -4.12106 0
M  V30 20865 H 1993.59 0.059928 -3.22744 0
M  V30 20866 H 1992.64 -2.34859 -2.99241 0
M  V30 20867 H 1993.95 -2.90402 -4.05547 0
M  V30 20868 H 1993.11 -1.43291 -5.89536 0
M  V30 20869 H 1991.84 -0.774269 -4.81515 0
M  V30 20870 H 1990.85 -3.06542 -4.56412 0
M  V30 20871 H 1992.07 -3.72409 -5.6788 0
M  V30 20872 H 1990.02 -1.58757 -6.365 0
M  V30 20873 H 1989.94 -3.25722 -6.82232 0
M  V30 20874 H 1991.21 -2.25463 -7.46181 0
M  V30 20875 N 1995.44 1.1031 -1.12559 0
M  V30 20876 C 1996.66 1.86618 -0.9049 0
M  V30 20877 C 1997.09 1.80164 0.540597 0
M  V30 20878 O 1996.44 1.17252 1.38281 0
M  V30 20879 C 1996.49 3.32903 -1.38592 0
M  V30 20880 O 1995.6 4.08508 -0.565225 0
M  V30 20881 H 1994.94 0.579019 -0.325013 0
M  V30 20882 H 1997.47 1.39359 -1.498 0
M  V30 20883 H 1997.48 3.83753 -1.38556 0
M  V30 20884 H 1996.15 3.36917 -2.43844 0
M  V30 20885 H 1994.73 3.67494 -0.632682 0
M  V30 20886 N 1996.91 0.917694 1.28125 0
M  V30 20887 C 1997.88 0.413823 2.25433 0
M  V30 20888 C 1998.88 -0.46205 1.54019 0
M  V30 20889 O 2000.07 -0.264546 1.7218 0
M  V30 20890 C 1997.2 -0.406249 3.38471 0
M  V30 20891 H 1998.39 1.27345 2.7152 0
M  V30 20892 H 1995.94 0.697455 1.39876 0
M  V30 20893 H 1996.68 -1.28511 2.97751 0
M  V30 20894 H 1996.46 0.221601 3.91473 0
M  V30 20895 H 1997.95 -0.749491 4.10819 0
M  V30 20896 N 1998.39 -1.42074 0.682102 0
M  V30 20897 C 1999.64 -2.01435 0.207406 0
M  V30 20898 C 1999.97 -1.53963 -1.18851 0
M  V30 20899 O 1999.22 -0.735693 -1.81345 0
M  V30 20900 C 1999.52 -3.56848 0.198622 0
M  V30 20901 C 1999.19 -4.23779 1.54021 0
M  V30 20902 C 1997.85 -4.41777 1.90752 0
M  V30 20903 C 2000.2 -4.61432 2.42343 0
M  V30 20904 C 1997.53 -4.94701 3.15417 0
M  V30 20905 C 1999.88 -5.15739 3.66328 0
M  V30 20906 C 1998.54 -5.3195 4.03219 0
M  V30 20907 H 1997.81 -0.737103 0.0758954 0
M  V30 20908 H 2000.46 -1.70159 0.878532 0
M  V30 20909 H 1998.77 -3.87834 -0.556029 0
M  V30 20910 H 2000.46 -4.00568 -0.185986 0
M  V30 20911 H 1997.05 -4.10135 1.24448 0
M  V30 20912 H 2001.24 -4.47193 2.15249 0
M  V30 20913 H 1996.49 -5.05436 3.44012 0
M  V30 20914 H 2000.67 -5.43857 4.34963 0
M  V30 20915 H 1998.29 -5.72723 4.99893 0
M  V30 20916 N 1999.87 -0.425924 -1.51735 0
M  V30 20917 C 2001.1 0.143143 -2.06104 0
M  V30 20918 C 2001.51 1.37989 -1.29444 0
M  V30 20919 O 2000.85 1.80448 -0.344147 0
M  V30 20920 C 2000.91 0.541996 -3.55391 0
M  V30 20921 C 2000.58 -0.586352 -4.53223 0
M  V30 20922 C 2001.57 -1.45505 -4.99124 0
M  V30 20923 C 1999.26 -0.763832 -4.96458 0
M  V30 20924 C 2001.25 -2.48602 -5.86921 0
M  V30 20925 C 1998.94 -1.79809 -5.84048 0
M  V30 20926 C 1999.94 -2.65758 -6.29175 0
M  V30 20927 O 1999.63 -3.67411 -7.15028 0
M  V30 20928 H 1999.36 0.0164528 -0.6758 0
M  V30 20929 H 2001.91 -0.60044 -1.96428 0
M  V30 20930 H 2000.14 1.33811 -3.6281 0
M  V30 20931 H 2001.83 1.0409 -3.92326 0
M  V30 20932 H 2002.6 -1.32941 -4.66424 0
M  V30 20933 H 1998.48 -0.10445 -4.60882 0
M  V30 20934 H 2002.02 -3.15721 -6.22066 0
M  V30 20935 H 1997.92 -1.92397 -6.1616 0
M  V30 20936 H 1998.68 -3.63855 -7.33179 0
M  V30 20937 N 2001.35 1.56817 -0.156891 0
M  V30 20938 C 2002.6 1.95614 0.491749 0
M  V30 20939 C 2002.91 1.04481 1.65357 0
M  V30 20940 O 2004.12 1.32898 2.36749 0
M  V30 20941 C 2002.57 3.47777 0.926222 0
M  V30 20942 C 2002.18 4.47511 -0.209209 0
M  V30 20943 C 2003.92 3.95421 1.54409 0
M  V30 20944 C 2001.83 5.90896 0.244087 0
M  V30 20945 H 2000.76 0.73032 0.187481 0
M  V30 20946 H 2003.41 1.81886 -0.242819 0
M  V30 20947 H 2001.79 3.56872 1.71634 0
M  V30 20948 H 2002.97 4.5012 -0.986326 0
M  V30 20949 H 2001.28 4.09842 -0.736118 0
M  V30 20950 H 2003.88 4.99992 1.89504 0
M  V30 20951 H 2004.22 3.37535 2.43672 0
M  V30 20952 H 2004.76 3.89284 0.818685 0
M  V30 20953 H 2001.49 6.52624 -0.613406 0
M  V30 20954 H 2001.01 5.91626 0.986869 0
M  V30 20955 H 2002.69 6.4328 0.6928 0
M  V30 20956 N 2002.83 -0.116876 1.57166 0
M  V30 20957 C 2003.76 -1.14443 2.03531 0
M  V30 20958 C 2004.74 -1.43063 0.920159 0
M  V30 20959 O 2005.92 -1.53468 1.19001 0
M  V30 20960 C 2003.05 -2.47006 2.44142 0
M  V30 20961 C 2002.01 -2.32843 3.59121 0
M  V30 20962 C 2001.33 -3.70388 3.85639 0
M  V30 20963 C 2002.63 -1.78717 4.90772 0
M  V30 20964 H 2004.33 -0.75878 2.89625 0
M  V30 20965 H 2001.87 -0.363551 1.39335 0
M  V30 20966 H 2003.82 -3.19143 2.75184 0
M  V30 20967 H 2002.55 -2.87465 1.55021 0
M  V30 20968 H 2001.21 -1.63155 3.28293 0
M  V30 20969 H 2000.86 -4.08335 2.9372 0
M  V30 20970 H 2000.56 -3.61764 4.63034 0
M  V30 20971 H 2002.08 -4.44026 4.19134 0
M  V30 20972 H 2003.49 -2.40673 5.20336 0
M  V30 20973 H 2001.89 -1.80909 5.72182 0
M  V30 20974 H 2002.96 -0.744891 4.79144 0
M  V30 20975 N 2004.3 -1.52772 -0.387116 0
M  V30 20976 C 2005.71 -1.59829 -0.964966 0
M  V30 20977 C 2006.07 -0.452304 -1.90915 0
M  V30 20978 O 2005.19 0.424353 -2.12199 0
M  V30 20979 C 2005.79 -2.89687 -1.7569 0
M  V30 20980 C 2004.34 -2.99151 -2.28442 0
M  V30 20981 C 2003.49 -2.54957 -1.0905 0
M  V30 20982 H 2006.44 -1.57823 -0.1666 0
M  V30 20983 H 2006.46 -2.76279 -2.6163 0
M  V30 20984 H 2005.98 -3.73074 -1.06945 0
M  V30 20985 H 2004.08 -2.20305 -3.00494 0
M  V30 20986 H 2004.19 -4.03827 -2.578 0
M  V30 20987 H 2002.55 -2.09321 -1.45109 0
M  V30 20988 H 2003.34 -3.40741 -0.418373 0
M  V30 20989 N 2005.78 0.645673 -1.43767 0
M  V30 20990 C 2007.01 1.43799 -1.49454 0
M  V30 20991 C 2007.43 1.87742 -0.115948 0
M  V30 20992 O 2006.79 1.57845 0.891891 0
M  V30 20993 C 2006.84 2.64416 -2.45186 0
M  V30 20994 O 2005.94 3.63742 -1.94334 0
M  V30 20995 H 2005.28 0.430858 -0.50523 0
M  V30 20996 H 2007.81 0.789424 -1.88757 0
M  V30 20997 H 2007.82 3.12139 -2.62741 0
M  V30 20998 H 2006.5 2.31776 -3.4533 0
M  V30 20999 H 2005.07 3.22926 -1.86476 0
M  V30 21000 N 2007.26 1.30423 0.884744 0
M  V30 21001 C 2008.51 1.18625 1.63129 0
M  V30 21002 C 2008.82 -0.257953 1.93892 0
M  V30 21003 O 2010.03 -0.497448 2.66904 0
M  V30 21004 C 2008.48 2.0757 2.94011 0
M  V30 21005 C 2008.09 3.569 2.70788 0
M  V30 21006 C 2009.84 2.04535 3.71975 0
M  V30 21007 C 2007.74 4.37901 3.97488 0
M  V30 21008 H 2006.67 0.440391 0.612023 0
M  V30 21009 H 2009.32 1.55172 0.979478 0
M  V30 21010 H 2007.71 1.63905 3.60487 0
M  V30 21011 H 2008.88 4.08715 2.12812 0
M  V30 21012 H 2007.19 3.61761 2.06199 0
M  V30 21013 H 2009.79 2.62305 4.6594 0
M  V30 21014 H 2010.13 1.02888 4.03385 0
M  V30 21015 H 2010.67 2.46322 3.12362 0
M  V30 21016 H 2007.41 5.40244 3.71236 0
M  V30 21017 H 2006.93 3.9085 4.54968 0
M  V30 21018 H 2008.61 4.49347 4.65506 0
M  V30 21019 N 2008.74 -1.09711 1.13142 0
M  V30 21020 C 2009.99 -1.81198 0.886021 0
M  V30 21021 C 2010.3 -1.86501 -0.589624 0
M  V30 21022 O 2011.51 -2.54267 -0.951866 0
M  V30 21023 C 2009.96 -3.25498 1.53554 0
M  V30 21024 C 2009.57 -3.2847 3.0465 0
M  V30 21025 C 2011.31 -4.01761 1.37072 0
M  V30 21026 C 2009.22 -4.67276 3.62501 0
M  V30 21027 H 2008.15 -0.679005 0.327824 0
M  V30 21028 H 2010.8 -1.23325 1.35879 0
M  V30 21029 H 2009.18 -3.83414 0.990434 0
M  V30 21030 H 2010.36 -2.80336 3.65716 0
M  V30 21031 H 2008.67 -2.65697 3.20615 0
M  V30 21032 H 2011.27 -5.04306 1.77707 0
M  V30 21033 H 2011.61 -4.15105 0.315226 0
M  V30 21034 H 2012.15 -3.50279 1.88545 0
M  V30 21035 H 2008.88 -4.59133 4.67843 0
M  V30 21036 H 2008.4 -5.15746 3.06212 0
M  V30 21037 H 2010.08 -5.36249 3.62002 0
M  V30 21038 N 2010.22 -0.924476 -1.27637 0
M  V30 21039 C 2011.44 -0.57884 -1.99159 0
M  V30 21040 C 2011.87 0.83532 -1.68535 0
M  V30 21041 O 2011.22 1.55999 -0.92379 0
M  V30 21042 C 2011.27 -0.807508 -3.51442 0
M  V30 21043 O 2010.38 0.128443 -4.122 0
M  V30 21044 H 2009.72 -0.223218 -0.625356 0
M  V30 21045 H 2012.25 -1.24285 -1.62525 0
M  V30 21046 H 2012.26 -0.721808 -4.01564 0
M  V30 21047 H 2010.93 -1.83836 -3.73064 0
M  V30 21048 H 2009.51 -0.00689785 -3.72899 0
M  V30 21049 N 2011.69 1.41711 -0.689627 0
M  V30 21050 C 2012.64 2.32598 -0.0090856 0
M  V30 21051 C 2013.64 1.50639 0.774873 0
M  V30 21052 O 2014.84 1.66614 0.681165 0
M  V30 21053 H 2011.22 0.751833 0.0158614 0
M  V30 21054 H 2013.19 2.87676 -0.79278 0
M  V30 21055 C 2011.94 3.35371 0.917683 0
M  V30 21056 H 2011.26 3.98486 0.323858 0
M  V30 21057 H 2012.7 4.0152 1.36228 0
M  V30 21058 C 2011.16 2.68792 2.03107 0
M  V30 21059 O 2011.69 2.53118 3.1192 0
M  V30 21060 N 2009.9 2.27581 1.80708 0
M  V30 21061 H 2009.44 2.4053 0.922133 0
M  V30 21062 H 2009.4 1.83368 2.55389 0
M  V30 21063 N 2013.17 0.433965 1.51507 0
M  V30 21064 C 2014.08 -0.385423 2.31412 0
M  V30 21065 C 2015.1 -1.03078 1.40182 0
M  V30 21066 O 2016.27 -1.02688 1.73254 0
M  V30 21067 C 2013.34 -1.47371 3.13819 0
M  V30 21068 C 2012.4 -0.848838 4.20824 0
M  V30 21069 C 2011.63 -1.88527 4.99293 0
M  V30 21070 O 2011.86 -3.107 4.78353 0
M  V30 21071 O 2010.79 -1.47768 5.83479 0
M  V30 21072 H 2014.62 0.266798 3.02526 0
M  V30 21073 H 2012.2 0.19658 1.48101 0
M  V30 21074 H 2014.08 -2.10495 3.65061 0
M  V30 21075 H 2012.76 -2.11008 2.45474 0
M  V30 21076 H 2011.67 -0.179639 3.73668 0
M  V30 21077 H 2013 -0.256013 4.91534 0
M  V30 21078 N 2014.65 -1.56732 0.165206 0
M  V30 21079 C 2015.6 -2.17666 -0.767471 0
M  V30 21080 C 2016.57 -1.11485 -1.23127 0
M  V30 21081 O 2017.75 -1.39609 -1.30054 0
M  V30 21082 C 2014.89 -2.81673 -1.99385 0
M  V30 21083 C 2014.01 -4.02298 -1.57418 0
M  V30 21084 C 2013.14 -4.54249 -2.75375 0
M  V30 21085 C 2012.18 -5.67298 -2.29869 0
M  V30 21086 N 2011.32 -6.13786 -3.40898 0
M  V30 21087 H 2016.16 -2.97023 -0.24106 0
M  V30 21088 H 2013.69 -1.46708 -0.10726 0
M  V30 21089 H 2015.65 -3.16937 -2.71306 0
M  V30 21090 H 2014.28 -2.0493 -2.49407 0
M  V30 21091 H 2013.33 -3.72894 -0.75194 0
M  V30 21092 H 2014.65 -4.84148 -1.2001 0
M  V30 21093 H 2013.8 -4.91663 -3.55461 0
M  V30 21094 H 2012.54 -3.71444 -3.16039 0
M  V30 21095 H 2011.54 -5.29442 -1.48228 0
M  V30 21096 H 2012.77 -6.519 -1.9027 0
M  V30 21097 H 2010.71 -5.33911 -3.81149 0
M  V30 21098 H 2010.63 -6.90609 -3.07563 0
M  V30 21099 H 2011.9 -6.55849 -4.21287 0
M  V30 21100 N 2016.13 0.10854 -1.57226 0
M  V30 21101 C 2017.06 1.15853 -1.97764 0
M  V30 21102 C 2018.07 1.37073 -0.878345 0
M  V30 21103 O 2019.26 1.35963 -1.15657 0
M  V30 21104 C 2016.36 2.51663 -2.26978 0
M  V30 21105 C 2015.54 2.50904 -3.58282 0
M  V30 21106 C 2014.59 3.68538 -3.75588 0
M  V30 21107 O 2013.62 3.51644 -4.47588 0
M  V30 21108 N 2014.82 4.87507 -3.15146 0
M  V30 21109 H 2017.59 0.81361 -2.88445 0
M  V30 21110 H 2015.15 0.29769 -1.5914 0
M  V30 21111 H 2017.14 3.28936 -2.35761 0
M  V30 21112 H 2015.71 2.78297 -1.42372 0
M  V30 21113 H 2014.93 1.59271 -3.60592 0
M  V30 21114 H 2016.22 2.47463 -4.44567 0
M  V30 21115 H 2015.62 5.04137 -2.56637 0
M  V30 21116 H 2014.17 5.6242 -3.29434 0
M  V30 21117 N 2017.61 1.52975 0.379009 0
M  V30 21118 C 2018.52 1.81401 1.48764 0
M  V30 21119 C 2019.53 0.701435 1.59235 0
M  V30 21120 O 2020.71 0.990085 1.75383 0
M  V30 21121 C 2017.77 1.98593 2.84186 0
M  V30 21122 C 2016.83 3.22504 2.83354 0
M  V30 21123 C 2016.07 3.38866 4.12317 0
M  V30 21124 O 2016.29 2.59814 5.07792 0
M  V30 21125 O 2015.22 4.32165 4.18947 0
M  V30 21126 H 2019.05 2.75561 1.27671 0
M  V30 21127 H 2016.64 1.38189 0.56782 0
M  V30 21128 H 2018.52 2.11549 3.64451 0
M  V30 21129 H 2017.19 1.07622 3.05285 0
M  V30 21130 H 2016.1 3.14982 2.01835 0
M  V30 21131 H 2017.43 4.13353 2.67208 0
M  V30 21132 N 2019.08 -0.63804 1.44107 0
M  V30 21133 C 2020.33 -1.39366 1.45808 0
M  V30 21134 C 2020.65 -1.95384 0.091867 0
M  V30 21135 O 2021.85 -2.71497 -0.0136182 0
M  V30 21136 C 2020.31 -2.52293 2.56663 0
M  V30 21137 C 2019.92 -2.02818 3.99461 0
M  V30 21138 C 2021.66 -3.29549 2.67577 0
M  V30 21139 C 2019.57 -3.13047 5.01753 0
M  V30 21140 H 2018.5 -0.5237 0.542452 0
M  V30 21141 H 2021.15 -0.687131 1.70149 0
M  V30 21142 H 2019.53 -3.25489 2.2555 0
M  V30 21143 H 2020.7 -1.36533 4.40108 0
M  V30 21144 H 2019.02 -1.38398 3.92728 0
M  V30 21145 H 2021.62 -4.11709 3.41174 0
M  V30 21146 H 2021.96 -3.78579 1.73159 0
M  V30 21147 H 2022.49 -2.63441 2.98066 0
M  V30 21148 H 2019.23 -2.68969 5.97776 0
M  V30 21149 H 2018.75 -3.77995 4.65704 0
M  V30 21150 H 2020.43 -3.77934 5.25142 0
M  V30 21151 N 2020.56 -1.3089 -0.877815 0
M  V30 21152 C 2021.49 -1.20459 -2.0003 0
M  V30 21153 C 2022.47 -0.0935765 -1.69842 0
M  V30 21154 O 2023.66 -0.276838 -1.92217 0
M  V30 21155 C 2020.79 -0.903041 -3.35354 0
M  V30 21156 C 2019.74 -1.97277 -3.79823 0
M  V30 21157 C 2019.07 -1.52407 -5.12519 0
M  V30 21158 C 2020.37 -3.38484 -3.97776 0
M  V30 21159 H 2022.06 -2.14367 -2.09014 0
M  V30 21160 H 2019.61 -1.03203 -1.00425 0
M  V30 21161 H 2021.56 -0.816699 -4.1341 0
M  V30 21162 H 2020.29 0.0717143 -3.26521 0
M  V30 21163 H 2018.94 -2.04887 -3.04001 0
M  V30 21164 H 2018.59 -0.537386 -5.00121 0
M  V30 21165 H 2018.29 -2.23964 -5.43244 0
M  V30 21166 H 2019.82 -1.45165 -5.93093 0
M  V30 21167 H 2021.23 -3.33593 -4.6625 0
M  V30 21168 H 2019.63 -4.0819 -4.39887 0
M  V30 21169 H 2020.7 -3.79847 -3.01403 0
M  V30 21170 N 2022.04 1.0911 -1.13723 0
M  V30 21171 C 2023.29 1.80994 -0.899205 0
M  V30 21172 C 2023.61 1.86296 0.576084 0
M  V30 21173 O 2022.88 1.35086 1.41875 0
M  V30 21174 H 2021.46 0.670311 -0.329685 0
M  V30 21175 H 2024.12 1.3195 -1.4344 0
M  V30 21176 H 2023.22 2.84065 -1.29281 0
M  V30 21177 N 2023.52 0.931232 1.27145 0
M  V30 21178 C 2024.75 0.589956 1.98311 0
M  V30 21179 C 2025.16 -0.832836 1.69438 0
M  V30 21180 O 2024.52 -1.55399 0.956935 0
M  V30 21181 C 2024.57 0.810592 3.52295 0
M  V30 21182 O 2024.29 2.17741 3.80158 0
M  V30 21183 C 2025.79 0.478508 4.4071 0
M  V30 21184 H 2023.01 0.223234 0.632778 0
M  V30 21185 H 2025.56 1.24922 1.6191 0
M  V30 21186 H 2023.71 0.198081 3.86893 0
M  V30 21187 H 2024.12 2.23003 4.74731 0
M  V30 21188 H 2025.6 0.683566 5.47751 0
M  V30 21189 H 2026.08 -0.586102 4.35272 0
M  V30 21190 H 2026.68 1.06931 4.11638 0
M  V30 21191 N 2025 -1.41343 0.697132 0
M  V30 21192 C 2026.24 -2.01502 0.229099 0
M  V30 21193 C 2026.58 -1.55093 -1.16875 0
M  V30 21194 O 2025.85 -0.7628 -1.78918 0
M  V30 21195 C 2026.13 -3.58942 0.288524 0
M  V30 21196 C 2025.99 -4.15473 1.72343 0
M  V30 21197 C 2027.31 -4.387 -0.350786 0
M  V30 21198 H 2024.43 -0.732114 0.0847216 0
M  V30 21199 H 2027.07 -1.6807 0.886148 0
M  V30 21200 H 2025.22 -3.87554 -0.270916 0
M  V30 21201 H 2026.89 -3.97731 2.33684 0
M  V30 21202 H 2025.13 -3.70456 2.25709 0
M  V30 21203 H 2025.8 -5.24632 1.71653 0
M  V30 21204 H 2028.28 -4.1591 0.125682 0
M  V30 21205 H 2027.16 -5.48192 -0.27867 0
M  V30 21206 H 2027.42 -4.18275 -1.43172 0
M  V30 21207 N 2026.48 -0.441993 -1.51275 0
M  V30 21208 C 2027.7 0.123815 -2.0703 0
M  V30 21209 C 2028.13 1.35293 -1.30681 0
M  V30 21210 O 2027.48 1.77966 -0.346072 0
M  V30 21211 C 2027.53 0.419988 -3.58146 0
M  V30 21212 O 2026.64 1.50565 -3.83932 0
M  V30 21213 H 2025.98 -0.00017643 -0.664 0
M  V30 21214 H 2028.51 -0.624668 -1.94831 0
M  V30 21215 H 2028.52 0.66908 -4.02476 0
M  V30 21216 H 2027.19 -0.478329 -4.1314 0
M  V30 21217 H 2025.77 1.24615 -3.51462 0
M  V30 21218 N 2027.95 1.56642 -0.173515 0
M  V30 21219 C 2029.2 1.98012 0.465049 0
M  V30 21220 C 2029.55 1.0578 1.60712 0
M  V30 21221 O 2028.85 0.0979001 1.9135 0
M  V30 21222 C 2029.04 3.43315 0.993457 0
M  V30 21223 C 2028.87 4.49598 -0.0958779 0
M  V30 21224 C 2027.64 5.02338 -0.546281 0
M  V30 21225 C 2029.84 5.06416 -0.897069 0
M  V30 21226 N 2027.82 5.92257 -1.61569 0
M  V30 21227 C 2029.19 5.92797 -1.81636 0
M  V30 21228 C 2031.25 4.8891 -0.941903 0
M  V30 21229 C 2029.95 6.63545 -2.7767 0
M  V30 21230 C 2031.98 5.6038 -1.8902 0
M  V30 21231 C 2031.34 6.4649 -2.79696 0
M  V30 21232 H 2027.44 0.769689 0.138214 0
M  V30 21233 H 2030.02 1.92759 -0.274239 0
M  V30 21234 H 2028.19 3.4911 1.70226 0
M  V30 21235 H 2029.92 3.71693 1.60083 0
M  V30 21236 H 2026.68 4.73382 -0.143583 0
M  V30 21237 H 2027.1 6.41921 -2.15095 0
M  V30 21238 H 2031.74 4.22031 -0.254887 0
M  V30 21239 H 2029.46 7.29635 -3.47358 0
M  V30 21240 H 2033.05 5.48819 -1.93102 0
M  V30 21241 H 2031.93 7.00822 -3.51879 0
M  V30 21242 N 2029.43 -0.1002 1.57281 0
M  V30 21243 C 2030.38 -1.14082 2.02702 0
M  V30 21244 C 2031.37 -1.41773 0.927183 0
M  V30 21245 O 2032.58 -1.41514 1.11237 0
M  V30 21246 H 2028.95 -0.385095 0.645915 0
M  V30 21247 H 2030.93 -0.731375 2.89298 0
M  V30 21248 C 2029.67 -2.45424 2.46297 0
M  V30 21249 H 2029 -2.24959 3.30505 0
M  V30 21250 H 2030.44 -3.16752 2.81859 0
M  V30 21251 C 2028.9 -3.09356 1.33418 0
M  V30 21252 O 2029.43 -3.96233 0.660494 0
M  V30 21253 N 2027.63 -2.69526 1.08646 0
M  V30 21254 H 2027.18 -1.98972 1.63609 0
M  V30 21255 H 2027.14 -3.1263 0.333186 0
M  V30 21256 N 2030.91 -1.53174 -0.370891 0
M  V30 21257 C 2031.84 -1.82213 -1.46017 0
M  V30 21258 C 2032.82 -0.675274 -1.56122 0
M  V30 21259 O 2034.01 -0.924614 -1.70776 0
M  V30 21260 C 2031.14 -2.00727 -2.83419 0
M  V30 21261 C 2030.09 -3.16478 -2.88141 0
M  V30 21262 C 2029.42 -3.20276 -4.28167 0
M  V30 21263 C 2030.72 -4.55179 -2.56143 0
M  V30 21264 H 2032.41 -2.73432 -1.21965 0
M  V30 21265 H 2029.96 -1.31569 -0.585288 0
M  V30 21266 H 2031.91 -2.19625 -3.59643 0
M  V30 21267 H 2030.63 -1.06213 -3.08847 0
M  V30 21268 H 2029.29 -2.97392 -2.14367 0
M  V30 21269 H 2028.94 -2.2341 -4.50663 0
M  V30 21270 H 2028.64 -3.98044 -4.32244 0
M  V30 21271 H 2030.16 -3.41352 -5.06272 0
M  V30 21272 H 2031.58 -4.74274 -3.22082 0
M  V30 21273 H 2029.97 -5.35148 -2.71544 0
M  V30 21274 H 2031.04 -4.60654 -1.51412 0
M  V30 21275 N 2032.39 0.630389 -1.44443 0
M  V30 21276 C 2033.8 0.948649 -1.28346 0
M  V30 21277 C 2034 2.00298 -0.219776 0
M  V30 21278 O 2033.06 2.49406 0.394082 0
M  V30 21279 C 2034.37 1.41121 -2.65528 0
M  V30 21280 C 2035.92 1.52665 -2.73244 0
M  V30 21281 C 2036.4 2.02305 -4.10897 0
M  V30 21282 N 2037.89 2.09574 -4.13077 0
M  V30 21283 C 2038.62 2.49156 -5.16439 0
M  V30 21284 N 2038.12 2.87869 -6.30161 0
M  V30 21285 N 2039.91 2.49296 -5.03794 0
M  V30 21286 H 2032.06 -0.0668759 -2.12295 0
M  V30 21287 H 2034.32 0.032708 -0.947436 0
M  V30 21288 H 2034.03 0.710811 -3.44442 0
M  V30 21289 H 2033.9 2.38208 -2.92466 0
M  V30 21290 H 2036.29 2.21802 -1.94648 0
M  V30 21291 H 2036.37 0.539516 -2.50046 0
M  V30 21292 H 2036.02 1.33763 -4.89969 0
M  V30 21293 H 2035.95 3.01892 -4.31473 0
M  V30 21294 H 2038.44 1.82338 -3.31001 0
M  V30 21295 H 2038.75 3.16887 -7.04842 0
M  V30 21296 H 2037.1 2.85619 -6.33598 0
M  V30 21297 H 2040.29 2.18443 -4.14005 0
M  V30 21298 H 2040.46 2.79819 -5.8447 0
M  V30 21299 N 2033.87 1.31354 0.870861 0
M  V30 21300 C 2034.78 1.20887 2.01056 0
M  V30 21301 C 2035.79 0.125768 1.73545 0
M  V30 21302 O 2036.97 0.3434 1.98451 0
M  V30 21303 C 2034.03 0.915879 3.34384 0
M  V30 21304 C 2033.09 2.08579 3.75225 0
M  V30 21305 C 2032.33 1.80668 5.0219 0
M  V30 21306 O 2032.55 0.741377 5.65561 0
M  V30 21307 O 2031.48 2.66319 5.39776 0
M  V30 21308 H 2035.31 2.16661 2.12819 0
M  V30 21309 H 2032.89 1.11084 0.999031 0
M  V30 21310 H 2034.78 0.768289 4.14337 0
M  V30 21311 H 2033.45 -0.0118355 3.23698 0
M  V30 21312 H 2032.36 2.28877 2.95916 0
M  V30 21313 H 2033.69 2.99572 3.90535 0
M  V30 21314 N 2035.34 -1.08505 1.143 0
M  V30 21315 C 2036.28 -2.14723 0.772624 0
M  V30 21316 C 2037.25 -1.60735 -0.245558 0
M  V30 21317 O 2038.44 -1.88017 -0.134851 0
M  V30 21318 C 2035.57 -3.38381 0.14695 0
M  V30 21319 C 2034.61 -4.11116 1.13514 0
M  V30 21320 S 2035.44 -4.64077 2.67194 0
M  V30 21321 C 2036.6 -5.91024 2.06013 0
M  V30 21322 H 2036.83 -2.45808 1.6723 0
M  V30 21323 H 2034.37 -1.20599 0.964118 0
M  V30 21324 H 2036.32 -4.09975 -0.207624 0
M  V30 21325 H 2034.99 -3.05496 -0.730138 0
M  V30 21326 H 2034.18 -4.99851 0.645359 0
M  V30 21327 H 2033.78 -3.45431 1.43366 0
M  V30 21328 H 2036.07 -6.62559 1.41497 0
M  V30 21329 H 2037.02 -6.44697 2.92867 0
M  V30 21330 H 2037.42 -5.43988 1.50788 0
M  V30 21331 N 2036.82 -0.937962 -1.26649 0
M  V30 21332 C 2037.75 -0.462649 -2.28871 0
M  V30 21333 C 2038.73 0.4824 -1.63116 0
M  V30 21334 O 2039.92 0.384947 -1.90347 0
M  V30 21335 C 2037.05 0.275964 -3.46202 0
M  V30 21336 C 2036 -0.582222 -4.24021 0
M  V30 21337 C 2035.33 0.286161 -5.33934 0
M  V30 21338 C 2036.63 -1.85193 -4.88365 0
M  V30 21339 H 2038.32 -1.31698 -2.68879 0
M  V30 21340 H 2035.87 -0.634709 -1.29257 0
M  V30 21341 H 2037.82 0.619496 -4.16822 0
M  V30 21342 H 2036.54 1.1644 -3.05138 0
M  V30 21343 H 2035.2 -0.908604 -3.55162 0
M  V30 21344 H 2034.85 1.17386 -4.89111 0
M  V30 21345 H 2034.55 -0.284618 -5.8691 0
M  V30 21346 H 2036.08 0.625035 -6.07393 0
M  V30 21347 H 2037.49 -1.57584 -5.51217 0
M  V30 21348 H 2035.89 -2.36702 -5.51445 0
M  V30 21349 H 2036.96 -2.56526 -4.11488 0
M  V30 21350 N 2038.3 1.40971 -0.704618 0
M  V30 21351 C 2039.26 2.29137 -0.053886 0
M  V30 21352 C 2040.26 1.44828 0.698682 0
M  V30 21353 O 2041.45 1.65871 0.532221 0
M  V30 21354 C 2038.58 3.27859 0.933861 0
M  V30 21355 H 2039.78 2.88178 -0.830268 0
M  V30 21356 H 2037.33 1.49109 -0.468632 0
M  V30 21357 H 2038.07 2.73815 1.73769 0
M  V30 21358 H 2037.85 3.90082 0.397249 0
M  V30 21359 H 2039.34 3.93905 1.38669 0
M  V30 21360 N 2039.78 0.45001 1.51039 0
M  V30 21361 C 2040.73 -0.373216 2.24925 0
M  V30 21362 C 2041.71 -0.979411 1.27657 0
M  V30 21363 O 2042.9 -0.895452 1.52678 0
M  V30 21364 C 2040.03 -1.46669 3.10392 0
M  V30 21365 C 2039.12 -0.869269 4.15096 0
M  V30 21366 N 2039.51 -0.00218012 5.058 0
M  V30 21367 C 2037.81 -1.1355 4.31303 0
M  V30 21368 C 2038.51 0.334694 5.80736 0
M  V30 21369 N 2037.49 -0.284884 5.42853 0
M  V30 21370 H 2041.29 0.295074 2.92415 0
M  V30 21371 H 2038.8 0.262851 1.60259 0
M  V30 21372 H 2040.8 -2.06943 3.61912 0
M  V30 21373 H 2039.46 -2.13719 2.44447 0
M  V30 21374 H 2040.47 0.365173 5.16611 0
M  V30 21375 H 2037.15 -1.80255 3.76582 0
M  V30 21376 H 2038.54 1.04106 6.63786 0
M  V30 21377 N 2041.26 -1.56548 0.18182 0
M  V30 21378 C 2042.22 -2.17247 -0.730497 0
M  V30 21379 C 2043.22 -1.12333 -1.15056 0
M  V30 21380 O 2044.41 -1.3779 -1.06581 0
M  V30 21381 C 2041.54 -2.76383 -1.99563 0
M  V30 21382 H 2042.73 -2.9922 -0.201904 0
M  V30 21383 H 2040.29 -1.56153 -0.0677734 0
M  V30 21384 H 2041.02 -1.98173 -2.56706 0
M  V30 21385 H 2040.81 -3.53172 -1.70329 0
M  V30 21386 H 2042.3 -3.23034 -2.64649 0
M  V30 21387 N 2042.73 0.0918577 -1.57332 0
M  V30 21388 C 2043.64 1.1295 -2.0562 0
M  V30 21389 C 2044.66 1.4366 -0.981728 0
M  V30 21390 O 2045.84 1.54237 -1.29511 0
M  V30 21391 C 2042.9 2.42918 -2.4737 0
M  V30 21392 C 2041.96 2.19361 -3.69024 0
M  V30 21393 C 2041.2 3.43132 -4.08774 0
M  V30 21394 O 2041.42 4.51492 -3.48584 0
M  V30 21395 O 2040.35 3.32529 -5.01705 0
M  V30 21396 H 2044.18 0.74936 -2.9431 0
M  V30 21397 H 2041.76 0.304595 -1.46262 0
M  V30 21398 H 2043.65 3.19442 -2.74835 0
M  V30 21399 H 2042.32 2.80352 -1.61816 0
M  V30 21400 H 2041.23 1.40607 -3.46671 0
M  V30 21401 H 2042.56 1.86818 -4.55368 0
M  V30 21402 N 2044.21 1.53368 0.362763 0
M  V30 21403 C 2045.12 1.82969 1.46832 0
M  V30 21404 C 2046.14 0.718285 1.58482 0
M  V30 21405 O 2047.31 1.00863 1.74323 0
M  V30 21406 C 2044.38 2.01596 2.82064 0
M  V30 21407 C 2043.44 3.25491 2.79918 0
M  V30 21408 C 2042.67 3.4322 4.087 0
M  V30 21409 O 2042.9 2.65185 5.05008 0
M  V30 21410 O 2041.83 4.36585 4.1434 0
M  V30 21411 H 2045.66 2.769 1.24741 0
M  V30 21412 H 2043.24 1.38783 0.553131 0
M  V30 21413 H 2045.12 2.15403 3.62187 0
M  V30 21414 H 2043.8 1.10854 3.04127 0
M  V30 21415 H 2042.71 3.17105 1.98483 0
M  V30 21416 H 2044.04 4.16164 2.62809 0
M  V30 21417 N 2045.69 -0.62272 1.44776 0
M  V30 21418 C 2046.92 -1.40911 1.51498 0
M  V30 21419 C 2047.33 -1.88261 0.142579 0
M  V30 21420 O 2046.69 -1.61333 -0.853105 0
M  V30 21421 C 2046.74 -2.62379 2.48676 0
M  V30 21422 O 2046.46 -2.17001 3.80582 0
M  V30 21423 C 2047.96 -3.55413 2.64947 0
M  V30 21424 H 2045.18 -0.431862 0.513552 0
M  V30 21425 H 2047.73 -0.760822 1.8982 0
M  V30 21426 H 2045.88 -3.23281 2.13467 0
M  V30 21427 H 2046.3 -2.95811 4.33124 0
M  V30 21428 H 2047.77 -4.37227 3.36952 0
M  V30 21429 H 2048.25 -4.04771 1.70462 0
M  V30 21430 H 2048.85 -3.00374 3.01091 0
M  V30 21431 N 2047.17 -1.31814 -0.863883 0
M  V30 21432 C 2048.58 -1.10603 -1.15061 0
M  V30 21433 C 2048.78 0.119526 -2.01145 0
M  V30 21434 O 2047.84 0.807099 -2.39253 0
M  V30 21435 C 2049.15 -2.38075 -1.83686 0
M  V30 21436 C 2050.7 -2.43744 -1.96361 0
M  V30 21437 C 2051.18 -3.71113 -2.68401 0
M  V30 21438 N 2052.67 -3.72042 -2.75933 0
M  V30 21439 C 2053.4 -4.67294 -3.32301 0
M  V30 21440 N 2052.9 -5.72905 -3.89553 0
M  V30 21441 N 2054.69 -4.54804 -3.30317 0
M  V30 21442 H 2046.84 -2.10406 -0.290393 0
M  V30 21443 H 2049.11 -0.928505 -0.191264 0
M  V30 21444 H 2048.81 -3.27625 -1.27885 0
M  V30 21445 H 2048.69 -2.48336 -2.83917 0
M  V30 21446 H 2051.07 -1.54659 -2.51326 0
M  V30 21447 H 2051.15 -2.37443 -0.951544 0
M  V30 21448 H 2050.8 -4.60567 -2.14103 0
M  V30 21449 H 2050.73 -3.74682 -3.70028 0
M  V30 21450 H 2053.22 -2.95701 -2.35307 0
M  V30 21451 H 2053.53 -6.41656 -4.30694 0
M  V30 21452 H 2051.88 -5.76671 -3.87911 0
M  V30 21453 H 2055.07 -3.71468 -2.84832 0
M  V30 21454 H 2055.24 -5.29213 -3.73948 0
M  V30 21455 N 2048.65 1.07897 -1.14873 0
M  V30 21456 C 2049.59 2.14955 -0.840422 0
M  V30 21457 C 2050.56 1.64839 0.204277 0
M  V30 21458 O 2051.75 1.9066 0.0730523 0
M  V30 21459 C 2048.89 3.43521 -0.329768 0
M  V30 21460 C 2048 4.07456 -1.43538 0
M  V30 21461 C 2047.14 5.23836 -0.881432 0
M  V30 21462 C 2046.18 5.79723 -1.96437 0
M  V30 21463 N 2045.31 6.87441 -1.42721 0
M  V30 21464 H 2050.15 2.40669 -1.75734 0
M  V30 21465 H 2047.69 1.18102 -0.876944 0
M  V30 21466 H 2049.65 4.17197 -0.01545 0
M  V30 21467 H 2048.28 3.18076 0.550246 0
M  V30 21468 H 2047.33 3.31489 -1.86599 0
M  V30 21469 H 2048.64 4.45007 -2.25323 0
M  V30 21470 H 2047.8 6.04473 -0.519325 0
M  V30 21471 H 2046.53 4.87689 -0.0326916 0
M  V30 21472 H 2045.54 4.97736 -2.33536 0
M  V30 21473 H 2046.76 6.17927 -2.81678 0
M  V30 21474 H 2044.71 6.53244 -0.600731 0
M  V30 21475 H 2044.63 7.23845 -2.18137 0
M  V30 21476 H 2045.9 7.71797 -1.09317 0
M  V30 21477 N 2050.12 0.944665 1.2615 0
M  V30 21478 C 2051.05 0.47478 2.28622 0
M  V30 21479 C 2052.04 -0.473742 1.6337 0
M  V30 21480 O 2053.22 -0.374847 1.90548 0
M  V30 21481 C 2050.35 -0.2576 3.46343 0
M  V30 21482 C 2049.3 0.604701 4.23707 0
M  V30 21483 C 2048.63 -0.257841 5.34078 0
M  V30 21484 C 2049.93 1.8778 4.87377 0
M  V30 21485 H 2051.62 1.33122 2.68177 0
M  V30 21486 H 2049.17 0.641555 1.28919 0
M  V30 21487 H 2051.12 -0.597382 4.17144 0
M  V30 21488 H 2049.85 -1.14821 3.05751 0
M  V30 21489 H 2048.51 0.927426 3.54675 0
M  V30 21490 H 2048.15 -1.1479 4.89727 0
M  V30 21491 H 2047.85 0.315739 5.86751 0
M  V30 21492 H 2049.38 -0.592815 6.07715 0
M  V30 21493 H 2050.79 1.60505 5.50374 0
M  V30 21494 H 2049.19 2.39623 5.50182 0
M  V30 21495 H 2050.26 2.58705 4.10122 0
M  V30 21496 N 2051.6 -1.40596 0.712085 0
M  V30 21497 C 2052.54 -2.28199 0.00642592 0
M  V30 21498 C 2053.51 -1.43146 -0.771234 0
M  V30 21499 O 2054.7 -1.72561 -0.758605 0
M  V30 21500 C 2051.82 -3.23654 -0.998287 0
M  V30 21501 C 2050.87 -4.25358 -0.311852 0
M  V30 21502 S 2051.7 -5.26866 0.957734 0
M  V30 21503 C 2052.86 -6.25884 -0.0449648 0
M  V30 21504 H 2053.09 -2.877 0.749396 0
M  V30 21505 H 2050.63 -1.45978 0.502974 0
M  V30 21506 H 2052.58 -3.79176 -1.57275 0
M  V30 21507 H 2051.24 -2.63217 -1.71394 0
M  V30 21508 H 2050.44 -4.92484 -1.07125 0
M  V30 21509 H 2050.04 -3.73517 0.18997 0
M  V30 21510 H 2052.33 -6.7159 -0.892942 0
M  V30 21511 H 2053.27 -7.05614 0.592806 0
M  V30 21512 H 2053.68 -5.6303 -0.407125 0
M  V30 21513 N 2053.08 -0.458013 -1.50798 0
M  V30 21514 C 2054.49 0.00023852 -1.867 0
M  V30 21515 C 2054.84 1.40078 -1.37378 0
M  V30 21516 O 2053.97 2.036 -0.733219 0
M  V30 21517 C 2054.56 0.00720883 -3.38799 0
M  V30 21518 C 2053.12 0.409942 -3.74161 0
M  V30 21519 C 2052.27 -0.383856 -2.7463 0
M  V30 21520 H 2055.22 -0.672909 -1.43728 0
M  V30 21521 H 2055.24 0.812262 -3.71729 0
M  V30 21522 H 2054.75 -1.01225 -3.74667 0
M  V30 21523 H 2052.85 1.43423 -3.4389 0
M  V30 21524 H 2052.97 0.120374 -4.78949 0
M  V30 21525 H 2051.33 0.16068 -2.54193 0
M  V30 21526 H 2052.11 -1.40258 -3.13341 0
M  V30 21527 N 2054.56 1.56449 -0.190119 0
M  V30 21528 C 2055.81 1.9773 0.450624 0
M  V30 21529 C 2056.14 1.07678 1.61614 0
M  V30 21530 O 2055.41 0.127743 1.9408 0
M  V30 21531 C 2055.7 3.48267 0.915552 0
M  V30 21532 C 2055.55 4.49097 -0.251436 0
M  V30 21533 C 2056.87 4.02374 1.78278 0
M  V30 21534 H 2053.99 0.718902 0.162325 0
M  V30 21535 H 2056.63 1.87925 -0.28004 0
M  V30 21536 H 2054.78 3.56753 1.53816 0
M  V30 21537 H 2056.45 4.52653 -0.888996 0
M  V30 21538 H 2054.69 4.24276 -0.903996 0
M  V30 21539 H 2055.37 5.51877 0.116306 0
M  V30 21540 H 2057.84 3.96636 1.25774 0
M  V30 21541 H 2056.72 5.08084 2.07706 0
M  V30 21542 H 2056.98 3.4733 2.73522 0
M  V30 21543 N 2056.04 -0.0835127 1.57379 0
M  V30 21544 C 2057.28 -0.790348 1.88502 0
M  V30 21545 C 2057.64 -1.7533 0.782517 0
M  V30 21546 O 2058.84 -2.50436 0.976485 0
M  V30 21547 C 2057.11 -1.48995 3.24862 0
M  V30 21548 S 2058.67 -2.23346 3.77706 0
M  V30 21549 H 2055.49 -0.263074 0.66054 0
M  V30 21550 H 2058.09 -0.046945 1.95444 0
M  V30 21551 H 2056.8 -0.775138 4.03013 0
M  V30 21552 H 2056.33 -2.27302 3.21088 0
M  V30 21553 H 2058.34 -3.49677 3.52051 0
M  V30 21554 N 2057.52 -1.53558 -0.354624 0
M  V30 21555 C 2058.76 -1.70523 -1.09772 0
M  V30 21556 C 2059.09 -0.461312 -1.88641 0
M  V30 21557 O 2058.37 0.541553 -1.86809 0
M  V30 21558 C 2058.65 -2.96191 -2.04799 0
M  V30 21559 C 2058.51 -4.30765 -1.29465 0
M  V30 21560 C 2059.82 -3.17493 -3.04772 0
M  V30 21561 H 2056.94 -0.620497 -0.397683 0
M  V30 21562 H 2059.59 -1.86214 -0.377395 0
M  V30 21563 H 2057.74 -2.82944 -2.66223 0
M  V30 21564 H 2059.41 -4.55844 -0.707409 0
M  V30 21565 H 2057.65 -4.29678 -0.596569 0
M  V30 21566 H 2058.32 -5.14852 -1.99076 0
M  V30 21567 H 2060.8 -3.29998 -2.53458 0
M  V30 21568 H 2059.67 -4.06838 -3.68476 0
M  V30 21569 H 2059.93 -2.33276 -3.75546 0
M  V30 21570 N 2058.99 0.615033 -1.45104 0
M  V30 21571 C 2059.9 1.75459 -1.55728 0
M  V30 21572 C 2060.92 1.6829 -0.442095 0
M  V30 21573 O 2062.1 1.88779 -0.701735 0
M  V30 21574 C 2059.16 3.11899 -1.51394 0
M  V30 21575 C 2058.22 3.30578 -2.73892 0
M  V30 21576 C 2057.45 4.60509 -2.69754 0
M  V30 21577 O 2057.68 5.42353 -1.76662 0
M  V30 21578 O 2056.61 4.81739 -3.60848 0
M  V30 21579 H 2060.44 1.69447 -2.52035 0
M  V30 21580 H 2058.02 0.778221 -1.27531 0
M  V30 21581 H 2059.9 3.93203 -1.51557 0
M  V30 21582 H 2058.58 3.18418 -0.582365 0
M  V30 21583 H 2057.49 2.48891 -2.79292 0
M  V30 21584 H 2058.82 3.2893 -3.6615 0
M  V30 21585 N 2060.47 1.3227 0.85688 0
M  V30 21586 C 2061.7 1.25698 1.6434 0
M  V30 21587 C 2062.11 -0.175425 1.87983 0
M  V30 21588 O 2061.47 -1.11179 1.44726 0
M  V30 21589 C 2061.52 2.0111 3.00395 0
M  V30 21590 O 2061.24 3.38761 2.778 0
M  V30 21591 C 2062.74 2.01535 3.9484 0
M  V30 21592 H 2059.96 0.433782 0.511932 0
M  V30 21593 H 2062.51 1.74358 1.06863 0
M  V30 21594 H 2060.66 1.56178 3.54524 0
M  V30 21595 H 2061.08 3.7733 3.64311 0
M  V30 21596 H 2062.55 2.58787 4.87579 0
M  V30 21597 H 2063.03 1.00106 4.27639 0
M  V30 21598 H 2063.63 2.46404 3.46648 0
M  V30 21599 N 2061.95 -1.07287 1.15444 0
M  V30 21600 C 2062.9 -2.14506 0.85181 0
M  V30 21601 C 2063.87 -1.64945 -0.195533 0
M  V30 21602 O 2065.05 -1.90696 -0.0629401 0
M  V30 21603 C 2062.19 -3.43341 0.347981 0
M  V30 21604 C 2061.3 -4.0669 1.45697 0
M  V30 21605 C 2060.44 -5.23361 0.9092 0
M  V30 21606 C 2059.48 -5.78673 1.99508 0
M  V30 21607 N 2058.62 -6.86675 1.46364 0
M  V30 21608 H 2063.46 -2.39733 1.77008 0
M  V30 21609 H 2060.99 -1.17635 0.883195 0
M  V30 21610 H 2062.95 -4.17183 0.0375747 0
M  V30 21611 H 2061.58 -3.18363 -0.53337 0
M  V30 21612 H 2060.63 -3.30495 1.88355 0
M  V30 21613 H 2061.94 -4.43806 2.2768 0
M  V30 21614 H 2061.1 -6.04189 0.551375 0
M  V30 21615 H 2059.84 -4.87665 0.0585544 0
M  V30 21616 H 2058.84 -4.9649 2.36173 0
M  V30 21617 H 2060.07 -6.16425 2.84952 0
M  V30 21618 H 2058.01 -6.52916 0.635365 0
M  V30 21619 H 2057.93 -7.22678 2.21973 0
M  V30 21620 H 2059.2 -7.71206 1.13408 0
M  V30 21621 N 2063.43 -0.951342 -1.25647 0
M  V30 21622 C 2064.39 -0.473447 -2.24257 0
M  V30 21623 C 2065.39 0.421053 -1.5519 0
M  V30 21624 O 2066.58 0.218803 -1.7282 0
M  V30 21625 C 2063.71 0.316367 -3.39429 0
M  V30 21626 H 2064.91 -1.34499 -2.68049 0
M  V30 21627 H 2062.46 -0.734296 -1.37978 0
M  V30 21628 H 2063.19 1.20572 -3.01053 0
M  V30 21629 H 2062.98 -0.325315 -3.90748 0
M  V30 21630 H 2064.47 0.640306 -4.12662 0
M  V30 21631 N 2064.91 1.40216 -0.719531 0
M  V30 21632 C 2066.15 2.00047 -0.25771 0
M  V30 21633 C 2066.47 1.57718 1.15692 0
M  V30 21634 O 2067.67 2.10275 1.71746 0
M  V30 21635 C 2066.13 3.57559 -0.409824 0
M  V30 21636 C 2065.74 4.08859 -1.83134 0
M  V30 21637 C 2067.48 4.24499 -0.00899594 0
M  V30 21638 C 2065.39 5.58889 -1.93383 0
M  V30 21639 H 2064.32 0.748293 -0.0925975 0
M  V30 21640 H 2066.97 1.60406 -0.891188 0
M  V30 21641 H 2065.35 3.9492 0.292302 0
M  V30 21642 H 2066.53 3.82867 -2.56417 0
M  V30 21643 H 2064.84 3.54529 -2.18399 0
M  V30 21644 H 2067.44 5.34661 -0.0647997 0
M  V30 21645 H 2067.78 4.03267 1.0335 0
M  V30 21646 H 2068.31 3.92258 -0.66171 0
M  V30 21647 H 2065.05 5.8498 -2.95767 0
M  V30 21648 H 2064.57 5.86733 -1.24517 0
M  V30 21649 H 2066.25 6.24054 -1.70778 0
M  V30 21650 N 2066.38 0.466004 1.50553 0
M  V30 21651 C 2067.63 -0.0908736 2.02596 0
M  V30 21652 C 2067.96 -1.39827 1.34767 0
M  V30 21653 O 2067.24 -1.88693 0.471719 0
M  V30 21654 C 2067.52 -0.279963 3.5901 0
M  V30 21655 C 2067.37 1.0481 4.37419 0
M  V30 21656 C 2068.69 -1.03683 4.27712 0
M  V30 21657 H 2065.81 -0.031552 0.736324 0
M  V30 21658 H 2068.45 0.610602 1.79921 0
M  V30 21659 H 2066.6 -0.877461 3.78461 0
M  V30 21660 H 2068.28 1.68178 4.29551 0
M  V30 21661 H 2066.52 1.64595 4.01361 0
M  V30 21662 H 2067.19 0.869493 5.45109 0
M  V30 21663 H 2069.67 -0.53043 4.12705 0
M  V30 21664 H 2068.54 -1.13792 5.36975 0
M  V30 21665 H 2068.8 -2.07215 3.90531 0
M  V30 21666 N 2067.86 -1.56346 0.198413 0
M  V30 21667 C 2069.09 -2.02502 -0.44809 0
M  V30 21668 C 2069.51 -1.07761 -1.54173 0
M  V30 21669 O 2068.87 -0.0616812 -1.81195 0
M  V30 21670 C 2068.92 -3.47073 -0.978394 0
M  V30 21671 O 2068.02 -3.55452 -2.09111 0
M  V30 21672 H 2067.36 -0.655753 -0.104324 0
M  V30 21673 H 2069.89 -2.02234 0.310265 0
M  V30 21674 H 2069.9 -3.86931 -1.29415 0
M  V30 21675 H 2068.58 -4.1552 -0.177819 0
M  V30 21676 H 2067.15 -3.27471 -1.78375 0
M  V30 21677 N 2069.34 0.0751653 -1.57421 0
M  V30 21678 C 2070.57 0.787972 -1.91308 0
M  V30 21679 C 2070.98 1.7129 -0.794055 0
M  V30 21680 O 2070.34 1.81009 0.23281 0
M  V30 21681 C 2070.39 1.58447 -3.24926 0
M  V30 21682 O 2070.11 0.696727 -4.32524 0
M  V30 21683 C 2071.61 2.39857 -3.72805 0
M  V30 21684 H 2068.83 0.22422 -0.632429 0
M  V30 21685 H 2071.38 0.0464417 -2.04447 0
M  V30 21686 H 2069.53 2.27831 -3.13324 0
M  V30 21687 H 2069.95 1.25038 -5.09378 0
M  V30 21688 H 2071.42 2.91207 -4.68938 0
M  V30 21689 H 2071.9 3.19229 -3.01645 0
M  V30 21690 H 2072.5 1.75636 -3.8734 0
M  V30 21691 N 2070.82 1.53744 0.346476 0
M  V30 21692 C 2072.07 1.70066 1.08445 0
M  V30 21693 C 2072.38 0.469013 1.89894 0
M  V30 21694 O 2073.59 0.513127 2.66607 0
M  V30 21695 C 2072.04 3.00716 1.97732 0
M  V30 21696 C 2071.65 4.31208 1.21504 0
M  V30 21697 C 2073.39 3.26404 2.71405 0
M  V30 21698 C 2071.3 5.52934 2.09804 0
M  V30 21699 H 2070.23 0.633711 0.408567 0
M  V30 21700 H 2072.88 1.80244 0.344133 0
M  V30 21701 H 2071.26 2.84388 2.75572 0
M  V30 21702 H 2072.44 4.5823 0.485955 0
M  V30 21703 H 2070.75 4.12111 0.596126 0
M  V30 21704 H 2073.35 4.14536 3.37733 0
M  V30 21705 H 2073.69 2.43286 3.37813 0
M  V30 21706 H 2074.23 3.43495 2.0064 0
M  V30 21707 H 2070.97 6.38587 1.47943 0
M  V30 21708 H 2070.49 5.30164 2.8051 0
M  V30 21709 H 2072.16 5.88463 2.68924 0
M  V30 21710 N 2072.3 -0.607329 1.45428 0
M  V30 21711 C 2073.23 -1.73188 1.50129 0
M  V30 21712 C 2074.24 -1.58009 0.392034 0
M  V30 21713 O 2075.43 -1.65886 0.659103 0
M  V30 21714 C 2072.53 -3.1119 1.34217 0
M  V30 21715 C 2071.7 -3.52606 2.58821 0
M  V30 21716 C 2070.76 -4.69572 2.37463 0
M  V30 21717 O 2069.79 -4.76676 3.11076 0
M  V30 21718 N 2070.99 -5.62854 1.42041 0
M  V30 21719 H 2073.76 -1.69619 2.47082 0
M  V30 21720 H 2071.32 -0.792618 1.41171 0
M  V30 21721 H 2073.31 -3.87195 1.17739 0
M  V30 21722 H 2071.88 -3.09265 0.455386 0
M  V30 21723 H 2071.1 -2.6656 2.90412 0
M  V30 21724 H 2072.39 -3.77035 3.41646 0
M  V30 21725 H 2071.78 -5.59829 0.812899 0
M  V30 21726 H 2070.34 -6.3839 1.31534 0
M  V30 21727 N 2073.77 -1.32722 -0.849853 0
M  V30 21728 C 2075.19 -1.11818 -1.13882 0
M  V30 21729 C 2075.39 0.0981854 -2.01261 0
M  V30 21730 O 2074.45 0.781678 -2.40096 0
M  V30 21731 C 2075.76 -2.4001 -1.81151 0
M  V30 21732 C 2077.31 -2.45813 -1.93765 0
M  V30 21733 C 2077.78 -3.73939 -2.6445 0
M  V30 21734 N 2079.27 -3.74948 -2.71971 0
M  V30 21735 C 2080.01 -4.70792 -3.27326 0
M  V30 21736 N 2079.5 -5.77005 -3.83454 0
M  V30 21737 N 2081.3 -4.58282 -3.25475 0
M  V30 21738 H 2073.45 -2.10702 -0.26806 0
M  V30 21739 H 2075.71 -0.930482 -0.181405 0
M  V30 21740 H 2075.42 -3.28963 -1.24403 0
M  V30 21741 H 2075.29 -2.51333 -2.81267 0
M  V30 21742 H 2077.68 -1.57316 -2.49671 0
M  V30 21743 H 2077.76 -2.38439 -0.926307 0
M  V30 21744 H 2077.4 -4.62812 -2.09206 0
M  V30 21745 H 2077.33 -3.78586 -3.66034 0
M  V30 21746 H 2079.82 -2.9818 -2.32157 0
M  V30 21747 H 2080.14 -6.46188 -4.23864 0
M  V30 21748 H 2078.48 -5.80753 -3.81773 0
M  V30 21749 H 2081.67 -3.74468 -2.80876 0
M  V30 21750 H 2081.85 -5.3315 -3.68314 0
M  V30 21751 N 2075.25 1.06673 -1.16011 0
M  V30 21752 C 2076.2 2.14051 -0.863174 0
M  V30 21753 C 2077.17 1.65046 0.186783 0
M  V30 21754 O 2078.35 1.90727 0.0528262 0
M  V30 21755 C 2075.49 3.43152 -0.366184 0
M  V30 21756 C 2074.61 4.05911 -1.47852 0
M  V30 21757 C 2073.74 5.22872 -0.936942 0
M  V30 21758 C 2072.78 5.77607 -2.02574 0
M  V30 21759 N 2071.92 6.85889 -1.50004 0
M  V30 21760 H 2076.76 2.38791 -1.78277 0
M  V30 21761 H 2074.3 1.17165 -0.889421 0
M  V30 21762 H 2076.25 4.17157 -0.0596984 0
M  V30 21763 H 2074.88 3.18641 0.516479 0
M  V30 21764 H 2073.94 3.29491 -1.90105 0
M  V30 21765 H 2075.25 4.42592 -2.3003 0
M  V30 21766 H 2074.4 6.03888 -0.583409 0
M  V30 21767 H 2073.14 4.87627 -0.0844157 0
M  V30 21768 H 2072.15 4.95231 -2.38802 0
M  V30 21769 H 2073.37 6.14905 -2.88217 0
M  V30 21770 H 2071.32 6.5257 -0.669982 0
M  V30 21771 H 2071.23 7.21491 -2.25802 0
M  V30 21772 H 2072.5 7.70594 -1.17496 0
M  V30 21773 N 2076.73 0.957992 1.25141 0
M  V30 21774 C 2077.96 0.630971 1.96729 0
M  V30 21775 C 2078.37 -0.801825 1.71369 0
M  V30 21776 O 2077.71 -1.54839 0.988461 0
M  V30 21777 C 2077.77 0.813859 3.50167 0
M  V30 21778 C 2077.44 2.22445 3.99208 0
M  V30 21779 C 2078.43 3.2014 4.09642 0
M  V30 21780 C 2076.12 2.54954 4.32786 0
M  V30 21781 C 2078.11 4.48436 4.52972 0
M  V30 21782 C 2075.8 3.83479 4.75802 0
M  V30 21783 C 2076.8 4.80032 4.85858 0
M  V30 21784 O 2076.49 6.06265 5.27918 0
M  V30 21785 H 2076.22 0.235203 0.633763 0
M  V30 21786 H 2078.77 1.28573 1.60182 0
M  V30 21787 H 2077 0.101946 3.86566 0
M  V30 21788 H 2078.69 0.487387 4.02963 0
M  V30 21789 H 2079.46 2.96351 3.83928 0
M  V30 21790 H 2075.34 1.80526 4.24183 0
M  V30 21791 H 2078.88 5.23801 4.60736 0
M  V30 21792 H 2074.78 4.07072 5.00961 0
M  V30 21793 H 2075.55 6.0969 5.46095 0
M  V30 21794 N 2078.21 -1.39832 0.726957 0
M  V30 21795 C 2079.16 -2.30655 0.0817379 0
M  V30 21796 C 2080.13 -1.48792 -0.738257 0
M  V30 21797 O 2081.31 -1.775 -0.699873 0
M  V30 21798 C 2078.45 -3.35079 -0.825599 0
M  V30 21799 C 2077.56 -4.32 0.006145 0
M  V30 21800 C 2076.7 -5.23491 -0.90172 0
M  V30 21801 C 2075.74 -6.12066 -0.064744 0
M  V30 21802 N 2074.87 -6.95939 -0.928103 0
M  V30 21803 H 2079.71 -2.85263 0.861906 0
M  V30 21804 H 2077.25 -1.40468 0.436709 0
M  V30 21805 H 2079.21 -3.94203 -1.36602 0
M  V30 21806 H 2077.84 -2.81946 -1.57183 0
M  V30 21807 H 2076.89 -3.74562 0.66389 0
M  V30 21808 H 2078.2 -4.94499 0.65365 0
M  V30 21809 H 2077.36 -5.87602 -1.51027 0
M  V30 21810 H 2076.1 -4.61294 -1.58302 0
M  V30 21811 H 2075.1 -5.46975 0.556665 0
M  V30 21812 H 2076.33 -6.76326 0.613222 0
M  V30 21813 H 2074.27 -6.36318 -1.59484 0
M  V30 21814 H 2074.19 -7.55249 -0.336895 0
M  V30 21815 H 2075.46 -7.64487 -1.52247 0
M  V30 21816 N 2079.69 -0.473982 -1.50304 0
M  V30 21817 C 2080.93 0.0798516 -2.01942 0
M  V30 21818 C 2081.26 1.39955 -1.35785 0
M  V30 21819 O 2080.53 1.89302 -0.504142 0
M  V30 21820 H 2079.11 0.0325001 -0.746293 0
M  V30 21821 H 2081.77 -0.625063 -1.84605 0
M  V30 21822 H 2080.86 0.229253 -3.11257 0
M  V30 21823 N 2081.16 1.56239 -0.206702 0
M  V30 21824 C 2082.41 1.97079 0.429267 0
M  V30 21825 C 2082.73 1.09689 1.6195 0
M  V30 21826 O 2083.93 1.40363 2.32402 0
M  V30 21827 C 2082.39 3.50548 0.815111 0
M  V30 21828 C 2082 4.46619 -0.351476 0
M  V30 21829 C 2083.74 4.00133 1.41751 0
M  V30 21830 C 2081.65 5.91374 0.0559745 0
M  V30 21831 H 2080.58 0.735915 0.164151 0
M  V30 21832 H 2083.23 1.81022 -0.300562 0
M  V30 21833 H 2081.61 3.62152 1.60194 0
M  V30 21834 H 2082.78 4.46754 -1.12903 0
M  V30 21835 H 2081.1 4.07292 -0.866134 0
M  V30 21836 H 2083.7 5.05768 1.73501 0
M  V30 21837 H 2084.04 3.45116 2.3281 0
M  V30 21838 H 2084.57 3.91692 0.694423 0
M  V30 21839 H 2081.31 6.50342 -0.820723 0
M  V30 21840 H 2080.83 5.94466 0.798148 0
M  V30 21841 H 2082.51 6.45159 0.487795 0
M  V30 21842 N 2082.64 -0.0668159 1.57458 0
M  V30 21843 C 2083.59 -1.07888 2.04031 0
M  V30 21844 C 2084.56 -1.38168 0.921889 0
M  V30 21845 O 2085.74 -1.49151 1.1899 0
M  V30 21846 C 2082.88 -2.38598 2.49329 0
M  V30 21847 C 2082 -2.14805 3.7481 0
M  V30 21848 C 2081.13 -3.39114 4.0887 0
M  V30 21849 C 2080.17 -3.10708 5.27377 0
M  V30 21850 N 2079.31 -4.27361 5.57052 0
M  V30 21851 H 2084.15 -0.674755 2.9026 0
M  V30 21852 H 2081.69 -0.321602 1.43541 0
M  V30 21853 H 2083.64 -3.14919 2.73646 0
M  V30 21854 H 2082.27 -2.76804 1.6607 0
M  V30 21855 H 2081.33 -1.29154 3.57804 0
M  V30 21856 H 2082.64 -1.89826 4.61267 0
M  V30 21857 H 2081.79 -4.23827 4.34114 0
M  V30 21858 H 2080.53 -3.67174 3.2099 0
M  V30 21859 H 2079.54 -2.24392 5.01925 0
M  V30 21860 H 2080.76 -2.83966 6.16879 0
M  V30 21861 H 2078.71 -4.55443 4.72131 0
M  V30 21862 H 2078.62 -4.05673 6.37938 0
M  V30 21863 H 2079.89 -5.13057 5.8685 0
M  V30 21864 N 2084.12 -1.53926 -0.338317 0
M  V30 21865 C 2085.37 -1.70639 -1.07542 0
M  V30 21866 C 2085.68 -0.479077 -1.89642 0
M  V30 21867 O 2086.89 -0.527259 -2.66331 0
M  V30 21868 C 2085.35 -3.0176 -1.96134 0
M  V30 21869 C 2084.95 -4.31847 -1.19216 0
M  V30 21870 C 2086.7 -3.27839 -2.6967 0
M  V30 21871 C 2084.6 -5.54039 -2.06869 0
M  V30 21872 H 2083.53 -0.635868 -0.4052 0
M  V30 21873 H 2086.19 -1.80424 -0.334569 0
M  V30 21874 H 2084.57 -2.85845 -2.7406 0
M  V30 21875 H 2085.74 -4.58482 -0.461647 0
M  V30 21876 H 2084.06 -4.12421 -0.574263 0
M  V30 21877 H 2086.65 -4.16322 -3.3553 0
M  V30 21878 H 2087 -2.45074 -3.36518 0
M  V30 21879 H 2087.53 -3.44554 -1.98815 0
M  V30 21880 H 2084.27 -6.39363 -1.44554 0
M  V30 21881 H 2083.79 -5.31645 -2.77694 0
M  V30 21882 H 2085.47 -5.89881 -2.658 0
M  V30 21883 N 2085.6 0.599608 -1.45748 0
M  V30 21884 C 2086.53 1.72389 -1.51045 0
M  V30 21885 C 2087.54 1.57799 -0.400408 0
M  V30 21886 O 2088.73 1.65534 -0.667891 0
M  V30 21887 C 2085.83 3.10473 -1.35865 0
M  V30 21888 C 2085.01 3.51228 -2.60687 0
M  V30 21889 C 2084.07 4.68306 -2.39949 0
M  V30 21890 O 2083.09 4.7502 -3.136 0
M  V30 21891 N 2084.29 5.62093 -1.45024 0
M  V30 21892 H 2087.06 1.68306 -2.47978 0
M  V30 21893 H 2084.62 0.78512 -1.41589 0
M  V30 21894 H 2086.61 3.86565 -1.1979 0
M  V30 21895 H 2085.18 3.09019 -0.471781 0
M  V30 21896 H 2084.4 2.65016 -2.91822 0
M  V30 21897 H 2085.69 3.75218 -3.43641 0
M  V30 21898 H 2085.09 5.5939 -0.842577 0
M  V30 21899 H 2083.64 6.37684 -1.34918 0
M  V30 21900 N 2087.08 1.33171 0.842803 0
M  V30 21901 C 2087.99 1.25124 1.98447 0
M  V30 21902 C 2089 0.162551 1.73239 0
M  V30 21903 O 2090.18 0.385417 1.97678 0
M  V30 21904 C 2087.24 0.9866 3.32366 0
M  V30 21905 C 2086.31 2.16491 3.70716 0
M  V30 21906 C 2085.54 1.9128 4.98245 0
M  V30 21907 O 2085.76 0.861174 5.63862 0
M  V30 21908 O 2084.7 2.77708 5.34005 0
M  V30 21909 H 2088.52 2.21126 2.08175 0
M  V30 21910 H 2086.11 1.13178 0.975243 0
M  V30 21911 H 2087.99 0.856003 4.12614 0
M  V30 21912 H 2086.66 0.0568283 3.2365 0
M  V30 21913 H 2085.57 2.35103 2.90994 0
M  V30 21914 H 2086.9 3.07788 3.84093 0
M  V30 21915 N 2088.56 -1.06056 1.16576 0
M  V30 21916 C 2089.8 -1.78546 0.946876 0
M  V30 21917 C 2090.12 -1.87758 -0.526489 0
M  V30 21918 O 2089.39 -1.38801 -1.38243 0
M  V30 21919 H 2087.97 -0.661335 0.347341 0
M  V30 21920 H 2090.64 -1.28101 1.46888 0
M  V30 21921 H 2089.73 -2.80537 1.36767 0
M  V30 21922 N 2090.03 -0.964615 -1.24631 0
M  V30 21923 C 2091.28 -0.625742 -1.92905 0
M  V30 21924 C 2091.61 0.836529 -1.75259 0
M  V30 21925 O 2090.89 1.60146 -1.10379 0
M  V30 21926 C 2091.17 -0.997473 -3.46009 0
M  V30 21927 C 2091.02 -2.51621 -3.72836 0
M  V30 21928 C 2092.34 -0.529778 -4.369 0
M  V30 21929 H 2089.46 -0.228804 -0.700584 0
M  V30 21930 H 2092.1 -1.20306 -1.47059 0
M  V30 21931 H 2090.25 -0.506207 -3.85188 0
M  V30 21932 H 2091.93 -3.082 -3.43235 0
M  V30 21933 H 2090.17 -2.94954 -3.18095 0
M  V30 21934 H 2090.84 -2.72681 -4.79947 0
M  V30 21935 H 2093.32 -0.951326 -4.05079 0
M  V30 21936 H 2092.19 -0.818472 -5.42764 0
M  V30 21937 H 2092.45 0.570178 -4.38408 0
M  V30 21938 N 2091.51 1.39445 -0.734362 0
M  V30 21939 C 2092.76 2.00824 -0.282443 0
M  V30 21940 C 2093.09 1.58137 1.12722 0
M  V30 21941 O 2092.37 0.809969 1.76833 0
M  V30 21942 C 2092.65 3.58051 -0.38359 0
M  V30 21943 C 2092.5 4.10758 -1.83298 0
M  V30 21944 C 2093.82 4.39476 0.234349 0
M  V30 21945 H 2090.94 0.729611 -0.104103 0
M  V30 21946 H 2093.58 1.65661 -0.930397 0
M  V30 21947 H 2091.73 3.88136 0.168068 0
M  V30 21948 H 2093.4 3.91395 -2.44147 0
M  V30 21949 H 2091.65 3.64342 -2.35451 0
M  V30 21950 H 2092.32 5.19897 -1.85503 0
M  V30 21951 H 2094.79 4.15431 -0.235909 0
M  V30 21952 H 2093.67 5.48738 0.133228 0
M  V30 21953 H 2093.93 4.21924 1.32032 0
M  V30 21954 N 2092.99 0.481946 1.5005 0
M  V30 21955 C 2094.27 -0.131379 1.95158 0
M  V30 21956 C 2094.65 -1.55951 1.42276 0
M  V30 21957 O 2093.99 -2.19691 0.62835 0
M  V30 21958 C 2094.2 -0.0635771 3.48942 0
M  V30 21959 C 2095.55 -0.247054 4.23881 0
M  V30 21960 O 2096.58 -0.139659 3.55926 0
M  V30 21961 O 2095.44 -0.465153 5.44517 0
M  V30 21962 H 2092.53 -0.105746 0.820211 0
M  V30 21963 H 2095.08 0.543125 1.60774 0
M  V30 21964 H 2093.85 0.933103 3.80012 0
M  V30 21965 H 2093.47 -0.779065 3.89893 0
M  V30 21966 N 2094.47 -1.56127 0.214985 0
M  V30 21967 C 2095.7 -2.02225 -0.422919 0
M  V30 21968 C 2096.11 -1.09413 -1.54355 0
M  V30 21969 O 2095.45 -0.0948108 -1.83455 0
M  V30 21970 C 2095.51 -3.44677 -1.02166 0
M  V30 21971 C 2095.17 -4.56985 -0.0372982 0
M  V30 21972 C 2096.17 -5.14305 0.760672 0
M  V30 21973 C 2093.86 -5.02237 0.0795528 0
M  V30 21974 C 2095.85 -6.15343 1.66226 0
M  V30 21975 C 2093.54 -6.03115 0.984683 0
M  V30 21976 C 2094.54 -6.59543 1.77459 0
M  V30 21977 O 2094.22 -7.58458 2.66451 0
M  V30 21978 H 2093.96 -0.66724 -0.108474 0
M  V30 21979 H 2096.51 -2.02782 0.326912 0
M  V30 21980 H 2094.74 -3.41169 -1.82046 0
M  V30 21981 H 2096.43 -3.74463 -1.56629 0
M  V30 21982 H 2097.19 -4.80198 0.68081 0
M  V30 21983 H 2093.07 -4.57999 -0.525143 0
M  V30 21984 H 2096.62 -6.59315 2.27925 0
M  V30 21985 H 2092.51 -6.36644 1.06559 0
M  V30 21986 H 2093.28 -7.75955 2.60453 0
M  V30 21987 N 2095.95 0.0584645 -1.57492 0
M  V30 21988 C 2097.19 0.75358 -1.87525 0
M  V30 21989 C 2097.51 1.77436 -0.808803 0
M  V30 21990 O 2096.78 1.95237 0.161061 0
M  V30 21991 H 2095.36 0.281308 -0.692008 0
M  V30 21992 H 2098.03 0.0313879 -1.94875 0
M  V30 21993 H 2097.12 1.26151 -2.85469 0
M  V30 21994 N 2097.42 1.54103 0.330149 0
M  V30 21995 C 2098.39 1.82317 1.389 0
M  V30 21996 C 2099.39 0.694711 1.45019 0
M  V30 21997 O 2100.58 0.963016 1.45161 0
M  V30 21998 C 2097.71 1.97727 2.77699 0
M  V30 21999 H 2098.9 2.76916 1.15141 0
M  V30 22000 H 2096.45 1.4572 0.565276 0
M  V30 22001 H 2097.19 1.05316 3.06723 0
M  V30 22002 H 2096.97 2.79837 2.74652 0
M  V30 22003 H 2098.46 2.21026 3.54313 0
M  V30 22004 N 2098.9 -0.59187 1.46064 0
M  V30 22005 C 2100.32 -0.914287 1.30816 0
M  V30 22006 C 2100.52 -1.99645 0.272804 0
M  V30 22007 O 2099.57 -2.50363 -0.327818 0
M  V30 22008 C 2100.89 -1.34032 2.69176 0
M  V30 22009 C 2102.44 -1.45367 2.77196 0
M  V30 22010 C 2102.91 -1.9134 4.16117 0
M  V30 22011 N 2104.4 -1.98548 4.18489 0
M  V30 22012 C 2105.14 -2.35376 5.22863 0
M  V30 22013 N 2104.63 -2.7106 6.37572 0
M  V30 22014 N 2106.43 -2.35851 5.10226 0
M  V30 22015 H 2098.58 0.123139 2.12043 0
M  V30 22016 H 2100.84 -0.00757695 0.94797 0
M  V30 22017 H 2100.55 -0.619238 3.46206 0
M  V30 22018 H 2100.42 -2.3037 2.98679 0
M  V30 22019 H 2102.81 -2.16563 2.0046 0
M  V30 22020 H 2102.89 -0.473031 2.51388 0
M  V30 22021 H 2102.53 -1.20726 4.93343 0
M  V30 22022 H 2102.46 -2.90346 4.39325 0
M  V30 22023 H 2104.95 -1.73498 3.35719 0
M  V30 22024 H 2105.27 -2.98088 7.12996 0
M  V30 22025 H 2103.61 -2.68719 6.40948 0
M  V30 22026 H 2106.8 -2.07389 4.19651 0
M  V30 22027 H 2106.97 -2.64224 5.91684 0
M  V30 22028 N 2100.38 -1.33616 -0.835729 0
M  V30 22029 C 2101.63 -1.25251 -1.59118 0
M  V30 22030 C 2101.96 0.180895 -1.93657 0
M  V30 22031 O 2101.21 1.1389 -1.59146 0
M  V30 22032 C 2101.51 -2.07621 -2.90909 0
M  V30 22033 C 2101.18 -3.56777 -2.75719 0
M  V30 22034 C 2099.84 -3.9744 -2.71283 0
M  V30 22035 C 2102.19 -4.51545 -2.60301 0
M  V30 22036 C 2099.52 -5.31083 -2.49334 0
M  V30 22037 C 2101.87 -5.85353 -2.39885 0
M  V30 22038 C 2100.53 -6.25195 -2.33853 0
M  V30 22039 H 2099.8 -0.458325 -0.582254 0
M  V30 22040 H 2102.45 -1.65234 -0.967991 0
M  V30 22041 H 2100.76 -1.60426 -3.5745 0
M  V30 22042 H 2102.45 -1.98504 -3.48421 0
M  V30 22043 H 2099.04 -3.24492 -2.80005 0
M  V30 22044 H 2103.23 -4.21036 -2.62759 0
M  V30 22045 H 2098.48 -5.60987 -2.43113 0
M  V30 22046 H 2102.66 -6.58386 -2.26939 0
M  V30 22047 H 2100.28 -7.28688 -2.16606 0
M  V30 22048 N 2101.86 1.05436 -1.17136 0
M  V30 22049 C 2103.09 1.8181 -0.981263 0
M  V30 22050 C 2103.5 1.83173 0.473739 0
M  V30 22051 O 2102.84 1.25581 1.34071 0
M  V30 22052 C 2102.9 3.29286 -1.44261 0
M  V30 22053 C 2102.57 3.5161 -2.91924 0
M  V30 22054 C 2103.56 3.43938 -3.89875 0
M  V30 22055 C 2101.25 3.78652 -3.30043 0
M  V30 22056 C 2103.24 3.6299 -5.23944 0
M  V30 22057 C 2100.93 3.97352 -4.64278 0
M  V30 22058 C 2101.93 3.8952 -5.61038 0
M  V30 22059 O 2101.61 4.07702 -6.92845 0
M  V30 22060 H 2101.35 0.57984 -0.347507 0
M  V30 22061 H 2103.9 1.33868 -1.55784 0
M  V30 22062 H 2102.13 3.78131 -0.80958 0
M  V30 22063 H 2103.82 3.87177 -1.21857 0
M  V30 22064 H 2104.59 3.23027 -3.61772 0
M  V30 22065 H 2100.46 3.83853 -2.553 0
M  V30 22066 H 2104.01 3.56793 -5.99454 0
M  V30 22067 H 2099.91 4.17755 -4.92088 0
M  V30 22068 H 2100.67 4.24941 -6.99548 0
M  V30 22069 N 2103.34 0.971211 1.24118 0
M  V30 22070 C 2104.58 0.635022 1.92286 0
M  V30 22071 C 2104.91 -0.83026 1.75889 0
M  V30 22072 O 2104.17 -1.61322 1.10786 0
M  V30 22073 C 2104.47 0.960091 3.44263 0
M  V30 22074 C 2104.13 2.41409 3.80832 0
M  V30 22075 C 2102.79 2.81148 3.90524 0
M  V30 22076 C 2105.15 3.35755 3.98645 0
M  V30 22077 C 2102.47 4.14268 4.15451 0
M  V30 22078 C 2104.83 4.68508 4.25069 0
M  V30 22079 C 2103.49 5.08019 4.32981 0
M  V30 22080 H 2102.76 0.232371 0.703623 0
M  V30 22081 H 2105.41 1.22335 1.47331 0
M  V30 22082 H 2103.71 0.289561 3.90729 0
M  V30 22083 H 2105.41 0.678313 3.95221 0
M  V30 22084 H 2102 2.09597 3.73855 0
M  V30 22085 H 2106.18 3.06236 3.90555 0
M  V30 22086 H 2101.44 4.445 4.19797 0
M  V30 22087 H 2105.61 5.41579 4.37796 0
M  V30 22088 H 2103.24 6.11192 4.52049 0
M  V30 22089 N 2104.81 -1.39054 0.741747 0
M  V30 22090 C 2106.04 -2.04371 0.302669 0
M  V30 22091 C 2106.45 -1.5605 -1.06982 0
M  V30 22092 O 2105.8 -0.723518 -1.68852 0
M  V30 22093 C 2105.86 -3.5874 0.233614 0
M  V30 22094 C 2105.52 -4.30067 1.54568 0
M  V30 22095 C 2106.52 -4.56248 2.49267 0
M  V30 22096 C 2104.2 -4.68484 1.81185 0
M  V30 22097 C 2106.2 -5.19864 3.68809 0
M  V30 22098 C 2103.88 -5.31827 3.01003 0
M  V30 22099 C 2104.88 -5.5745 3.94636 0
M  V30 22100 O 2104.57 -6.19478 5.1235 0
M  V30 22101 H 2104.3 -0.663574 0.129015 0
M  V30 22102 H 2106.86 -1.78957 1.00814 0
M  V30 22103 H 2105.09 -3.83078 -0.528012 0
M  V30 22104 H 2106.78 -4.05525 -0.174366 0
M  V30 22105 H 2107.54 -4.27008 2.29976 0
M  V30 22106 H 2103.42 -4.47893 1.09146 0
M  V30 22107 H 2106.96 -5.3978 4.41908 0
M  V30 22108 H 2102.86 -5.60488 3.20192 0
M  V30 22109 H 2103.63 -6.3797 5.12774 0
M  V30 22110 N 2106.29 -0.489897 -1.49792 0
M  V30 22111 C 2107.52 0.0556798 -2.06825 0
M  V30 22112 C 2107.94 1.31825 -1.35158 0
M  V30 22113 O 2107.29 1.77446 -0.426503 0
M  V30 22114 C 2107.34 0.324604 -3.6004 0
M  V30 22115 O 2107.06 -0.887904 -4.29008 0
M  V30 22116 C 2108.57 0.91506 -4.33753 0
M  V30 22117 H 2105.79 -0.0154889 -0.670821 0
M  V30 22118 H 2108.33 -0.684073 -1.92719 0
M  V30 22119 H 2106.48 1.01432 -3.73885 0
M  V30 22120 H 2106.9 -0.643954 -5.20532 0
M  V30 22121 H 2108.37 1.05288 -5.41866 0
M  V30 22122 H 2108.85 1.91003 -3.95493 0
M  V30 22123 H 2109.46 0.263155 -4.24485 0
M  V30 22124 N 2107.77 1.56011 -0.223262 0
M  V30 22125 C 2109 2.03189 0.415817 0
M  V30 22126 C 2109.42 1.102 1.52439 0
M  V30 22127 O 2108.78 0.0904999 1.81074 0
M  V30 22128 C 2108.83 3.48586 0.923053 0
M  V30 22129 O 2107.93 3.58734 2.03429 0
M  V30 22130 H 2107.27 0.65733 0.0938783 0
M  V30 22131 H 2109.8 2.01715 -0.342399 0
M  V30 22132 H 2109.81 3.88941 1.23243 0
M  V30 22133 H 2108.49 4.1575 0.11169 0
M  V30 22134 H 2107.06 3.30267 1.73142 0
M  V30 22135 N 2109.25 -0.0501116 1.5752 0
M  V30 22136 C 2110.2 -1.05718 2.05164 0
M  V30 22137 C 2111.17 -1.37182 0.936492 0
M  V30 22138 O 2112.35 -1.4788 1.20565 0
M  V30 22139 C 2109.49 -2.3594 2.51846 0
M  V30 22140 C 2108.6 -2.10818 3.77067 0
M  V30 22141 C 2107.74 -3.34759 4.12444 0
M  V30 22142 C 2106.78 -3.05097 5.30643 0
M  V30 22143 N 2105.91 -4.21429 5.61553 0
M  V30 22144 H 2110.75 -0.643931 2.9096 0
M  V30 22145 H 2108.29 -0.30636 1.43874 0
M  V30 22146 H 2110.25 -3.11999 2.7697 0
M  V30 22147 H 2108.88 -2.75027 1.68997 0
M  V30 22148 H 2107.93 -1.25352 3.59153 0
M  V30 22149 H 2109.24 -1.84923 4.63255 0
M  V30 22150 H 2108.4 -4.19199 4.38585 0
M  V30 22151 H 2107.14 -3.63748 3.24867 0
M  V30 22152 H 2106.14 -2.19056 5.04276 0
M  V30 22153 H 2107.37 -2.77407 6.19856 0
M  V30 22154 H 2105.31 -4.5041 4.76935 0
M  V30 22155 H 2105.23 -3.98884 6.42205 0
M  V30 22156 H 2106.5 -5.06804 5.92258 0
M  V30 22157 N 2110.73 -1.54276 -0.321972 0
M  V30 22158 C 2111.95 -1.76523 -1.07923 0
M  V30 22159 C 2112.37 -0.514589 -1.81652 0
M  V30 22160 O 2111.73 0.514775 -1.75089 0
M  V30 22161 C 2111.78 -2.95941 -2.07609 0
M  V30 22162 O 2111.5 -4.1617 -1.36874 0
M  V30 22163 C 2113 -3.30411 -2.95539 0
M  V30 22164 H 2110.22 -0.589261 -0.320956 0
M  V30 22165 H 2112.76 -2.01169 -0.367616 0
M  V30 22166 H 2110.92 -2.73564 -2.74302 0
M  V30 22167 H 2111.33 -4.83352 -2.03644 0
M  V30 22168 H 2112.81 -4.17265 -3.61378 0
M  V30 22169 H 2113.28 -2.47647 -3.62723 0
M  V30 22170 H 2113.89 -3.54872 -2.34405 0
M  V30 22171 N 2112.2 0.584116 -1.46376 0
M  V30 22172 C 2113.43 1.36845 -1.55181 0
M  V30 22173 C 2113.85 1.87817 -0.192443 0
M  V30 22174 O 2113.2 1.63538 0.81003 0
M  V30 22175 C 2113.26 2.55694 -2.55545 0
M  V30 22176 O 2112.98 2.06834 -3.86201 0
M  V30 22177 C 2114.48 3.48263 -2.74277 0
M  V30 22178 H 2111.7 0.418095 -0.524822 0
M  V30 22179 H 2114.24 0.710227 -1.91771 0
M  V30 22180 H 2112.4 3.17508 -2.21963 0
M  V30 22181 H 2112.81 2.84224 -4.40814 0
M  V30 22182 H 2114.28 4.2814 -3.48426 0
M  V30 22183 H 2114.76 4.00109 -1.81134 0
M  V30 22184 H 2115.37 2.92285 -3.08949 0
M  V30 22185 N 2113.68 1.34058 0.828631 0
M  V30 22186 C 2114.93 1.2628 1.58686 0
M  V30 22187 C 2115.26 -0.168425 1.93468 0
M  V30 22188 O 2114.54 -1.11237 1.59551 0
M  V30 22189 C 2114.82 2.14808 2.89015 0
M  V30 22190 C 2114.67 3.66439 2.60849 0
M  V30 22191 C 2115.99 2.02902 3.90536 0
M  V30 22192 H 2113.11 0.460068 0.575766 0
M  V30 22193 H 2115.75 1.64256 0.954988 0
M  V30 22194 H 2113.9 1.82551 3.42939 0
M  V30 22195 H 2115.58 4.09036 2.13278 0
M  V30 22196 H 2113.82 3.87811 1.94384 0
M  V30 22197 H 2114.49 4.23742 3.53761 0
M  V30 22198 H 2116.97 2.31212 3.45948 0
M  V30 22199 H 2115.84 2.6708 4.79541 0
M  V30 22200 H 2116.1 1.00429 4.30542 0
M  V30 22201 N 2115.16 -1.04814 1.17694 0
M  V30 22202 C 2116.12 -2.10819 0.899339 0
M  V30 22203 C 2117.12 -1.60409 -0.112116 0
M  V30 22204 O 2118.31 -1.73783 0.120484 0
M  V30 22205 C 2115.45 -3.39121 0.34786 0
M  V30 22206 H 2116.64 -2.36878 1.83926 0
M  V30 22207 H 2114.19 -1.21119 0.987923 0
M  V30 22208 H 2114.93 -3.1872 -0.599026 0
M  V30 22209 H 2114.71 -3.77022 1.07688 0
M  V30 22210 H 2116.2 -4.17245 0.172084 0
M  V30 22211 N 2116.64 -0.977779 -1.23601 0
M  V30 22212 C 2117.86 -0.662789 -1.96524 0
M  V30 22213 C 2118.29 0.763086 -1.71926 0
M  V30 22214 O 2117.65 1.51941 -0.989123 0
M  V30 22215 C 2117.7 -0.95584 -3.47701 0
M  V30 22216 O 2116.8 -0.046501 -4.12374 0
M  V30 22217 H 2116.14 -0.249541 -0.615325 0
M  V30 22218 H 2118.67 -1.31066 -1.57108 0
M  V30 22219 H 2118.68 -0.891475 -3.98142 0
M  V30 22220 H 2117.36 -1.99494 -3.64932 0
M  V30 22221 H 2115.93 -0.165051 -3.72535 0
M  V30 22222 N 2118.12 1.38658 -0.749111 0
M  V30 22223 C 2119.05 2.33116 -0.133797 0
M  V30 22224 C 2120.03 1.54639 0.708583 0
M  V30 22225 O 2121.21 1.82975 0.650684 0
M  V30 22226 C 2118.34 3.38802 0.763563 0
M  V30 22227 C 2117.3 4.27993 0.0242578 0
M  V30 22228 C 2116.62 5.24497 1.03957 0
M  V30 22229 C 2117.92 5.09673 -1.14151 0
M  V30 22230 H 2119.62 2.84823 -0.922842 0
M  V30 22231 H 2117.16 1.36944 -0.445221 0
M  V30 22232 H 2119.12 4.03844 1.20366 0
M  V30 22233 H 2117.84 2.85568 1.58488 0
M  V30 22234 H 2116.5 3.64451 -0.39637 0
M  V30 22235 H 2116.15 4.67552 1.85483 0
M  V30 22236 H 2115.85 5.85024 0.549587 0
M  V30 22237 H 2117.37 5.92415 1.47908 0
M  V30 22238 H 2118.79 5.6798 -0.779174 0
M  V30 22239 H 2117.18 5.79413 -1.56206 0
M  V30 22240 H 2118.25 4.43675 -1.95654 0
M  V30 22241 N 2119.6 0.497834 1.49531 0
M  V30 22242 C 2120.84 -0.0496362 2.01639 0
M  V30 22243 C 2121.16 -1.3834 1.38281 0
M  V30 22244 O 2122.36 -2.01737 1.81699 0
M  V30 22245 C 2120.82 -0.138928 3.59632 0
M  V30 22246 C 2120.43 1.188 4.31961 0
M  V30 22247 C 2122.17 -0.636931 4.19694 0
M  V30 22248 C 2120.08 1.06104 5.81804 0
M  V30 22249 H 2119.01 -0.0223237 0.753669 0
M  V30 22250 H 2121.66 0.636776 1.72097 0
M  V30 22251 H 2120.04 -0.88972 3.85876 0
M  V30 22252 H 2121.22 1.95184 4.17421 0
M  V30 22253 H 2119.53 1.61919 3.83629 0
M  V30 22254 H 2122.13 -0.749374 5.29423 0
M  V30 22255 H 2122.47 -1.63499 3.8285 0
M  V30 22256 H 2123 0.0572358 3.97759 0
M  V30 22257 H 2119.74 2.03327 6.23168 0
M  V30 22258 H 2119.26 0.33804 5.98847 0
M  V30 22259 H 2120.94 0.738481 6.42772 0
M  V30 22260 N 2121.07 -1.5589 0.231532 0
M  V30 22261 C 2122.02 -2.22104 -0.690835 0
M  V30 22262 C 2123.02 -1.20363 -1.19202 0
M  V30 22263 O 2124.22 -1.38416 -1.1507 0
M  V30 22264 H 2120.6 -0.712259 -0.241228 0
M  V30 22265 H 2122.57 -2.98201 -0.109056 0
M  V30 22266 C 2121.32 -2.92249 -1.88377 0
M  V30 22267 H 2120.64 -3.703 -1.50725 0
M  V30 22268 H 2122.08 -3.41964 -2.50672 0
M  V30 22269 C 2120.54 -1.95268 -2.7454 0
M  V30 22270 O 2121.07 -1.47596 -3.73602 0
M  V30 22271 N 2119.27 -1.62701 -2.40783 0
M  V30 22272 H 2118.82 -2.01663 -1.6028 0
M  V30 22273 H 2118.78 -0.98076 -2.98711 0
M  V30 22274 N 2122.55 0.0417572 -1.57545 0
M  V30 22275 C 2123.78 0.747215 -1.92936 0
M  V30 22276 C 2124.19 1.69567 -0.830209 0
M  V30 22277 O 2123.55 1.81462 0.194363 0
M  V30 22278 C 2123.6 1.51519 -3.28214 0
M  V30 22279 O 2123.32 0.604825 -4.33905 0
M  V30 22280 C 2124.82 2.31896 -3.77809 0
M  V30 22281 H 2122.04 0.210755 -0.637043 0
M  V30 22282 H 2124.59 0.00306497 -2.045 0
M  V30 22283 H 2122.74 2.21134 -3.18086 0
M  V30 22284 H 2123.16 1.14205 -5.11916 0
M  V30 22285 H 2124.63 2.81194 -4.75009 0
M  V30 22286 H 2125.11 3.12759 -3.08348 0
M  V30 22287 H 2125.71 1.6738 -3.90978 0
M  V30 22288 N 2124.03 1.54445 0.313786 0
M  V30 22289 C 2124.96 1.87506 1.39153 0
M  V30 22290 C 2125.94 0.732752 1.53508 0
M  V30 22291 O 2127.13 0.98736 1.67227 0
M  V30 22292 C 2124.26 2.11107 2.75773 0
M  V30 22293 C 2123.21 3.26954 2.76197 0
M  V30 22294 C 2122.54 3.35947 4.15985 0
M  V30 22295 C 2123.84 4.64372 2.39073 0
M  V30 22296 H 2125.53 2.7777 1.11732 0
M  V30 22297 H 2123.08 1.33651 0.536054 0
M  V30 22298 H 2125.03 2.32821 3.51244 0
M  V30 22299 H 2123.75 1.17602 3.04692 0
M  V30 22300 H 2122.41 3.05144 2.03182 0
M  V30 22301 H 2122.06 2.39982 4.42061 0
M  V30 22302 H 2121.76 4.13812 4.17173 0
M  V30 22303 H 2123.28 3.59906 4.93254 0
M  V30 22304 H 2124.7 4.85901 3.04258 0
M  V30 22305 H 2123.09 5.44858 2.51496 0
M  V30 22306 H 2124.16 4.65956 1.34211 0
M  V30 22307 N 2125.51 -0.576345 1.46683 0
M  V30 22308 C 2126.46 -1.70601 1.58108 0
M  V30 22309 C 2127.45 -1.63334 0.449247 0
M  V30 22310 O 2128.66 -1.68751 0.626355 0
M  V30 22311 H 2125.03 -0.564161 0.497218 0
M  V30 22312 H 2127 -1.58098 2.53076 0
M  V30 22313 C 2125.75 -3.08983 1.59452 0
M  V30 22314 H 2125.07 -3.15247 2.45885 0
M  V30 22315 H 2126.51 -3.87768 1.715 0
M  V30 22316 C 2124.97 -3.35335 0.324303 0
M  V30 22317 O 2125.5 -3.9745 -0.58277 0
M  V30 22318 N 2123.71 -2.89838 0.21024 0
M  V30 22319 H 2123.26 -2.39471 0.949293 0
M  V30 22320 H 2123.21 -3.07843 -0.638752 0
M  V30 22321 N 2126.99 -1.34495 -0.82151 0
M  V30 22322 C 2128.26 -1.17511 -1.56367 0
M  V30 22323 C 2128.64 0.251735 -2.09594 0
M  V30 22324 O 2127.99 1.25325 -1.91065 0
M  V30 22325 C 2128.2 -2.23083 -2.68393 0
M  V30 22326 C 2129.55 -2.58132 -3.37124 0
M  V30 22327 O 2130.57 -2.21883 -2.78651 0
M  V30 22328 O 2129.43 -3.20405 -4.42722 0
M  V30 22329 H 2126.53 -0.455611 -0.690179 0
M  V30 22330 H 2129.07 -1.46132 -0.862761 0
M  V30 22331 H 2127.84 -3.1885 -2.26827 0
M  V30 22332 H 2127.47 -1.95647 -3.46133 0
M  V30 22333 N 2128.46 1.04188 -1.18248 0
M  V30 22334 C 2129.39 2.14099 -0.931872 0
M  V30 22335 C 2130.38 1.69603 0.129961 0
M  V30 22336 O 2131.56 1.94187 -0.0223769 0
M  V30 22337 C 2128.69 3.443 -0.455463 0
M  V30 22338 C 2127.64 4.02414 -1.45764 0
M  V30 22339 C 2126.97 5.2808 -0.838796 0
M  V30 22340 C 2128.27 4.38729 -2.83397 0
M  V30 22341 H 2129.96 2.35321 -1.85106 0
M  V30 22342 H 2127.51 1.13091 -0.891421 0
M  V30 22343 H 2129.46 4.2055 -0.267505 0
M  V30 22344 H 2128.19 3.22761 0.499291 0
M  V30 22345 H 2126.85 3.28245 -1.63251 0
M  V30 22346 H 2126.49 5.02849 0.123108 0
M  V30 22347 H 2126.19 5.67923 -1.5079 0
M  V30 22348 H 2127.72 6.07008 -0.661341 0
M  V30 22349 H 2129.13 5.0597 -2.69568 0
M  V30 22350 H 2127.53 4.89618 -3.46979 0
M  V30 22351 H 2128.6 3.48613 -3.37041 0
M  V30 22352 N 2129.94 0.98432 1.23081 0
M  V30 22353 C 2130.89 0.520259 2.26707 0
M  V30 22354 C 2131.88 -0.424715 1.63989 0
M  V30 22355 O 2133.09 -0.298177 1.77513 0
M  V30 22356 H 2129.47 0.149826 0.736923 0
M  V30 22357 H 2131.44 1.40587 2.63207 0
M  V30 22358 C 2130.19 -0.157874 3.47341 0
M  V30 22359 H 2129.51 0.560186 3.95856 0
M  V30 22360 H 2130.95 -0.446157 4.21646 0
M  V30 22361 C 2129.41 -1.3904 3.0687 0
M  V30 22362 O 2129.94 -2.48637 3.15503 0
M  V30 22363 N 2128.14 -1.26249 2.61743 0
M  V30 22364 H 2127.69 -0.370736 2.54918 0
M  V30 22365 H 2127.65 -2.08824 2.35032 0
M  V30 22366 N 2131.42 -1.38259 0.756453 0
M  V30 22367 C 2132.33 -2.34224 0.132796 0
M  V30 22368 C 2133.35 -1.59415 -0.697351 0
M  V30 22369 O 2134.52 -1.91592 -0.620838 0
M  V30 22370 C 2131.59 -3.38542 -0.747682 0
M  V30 22371 C 2130.65 -4.2919 0.097166 0
M  V30 22372 C 2129.88 -5.28526 -0.741383 0
M  V30 22373 O 2130.1 -5.34959 -1.97926 0
M  V30 22374 O 2129.04 -6.01691 -0.158669 0
M  V30 22375 H 2132.86 -2.89257 0.925409 0
M  V30 22376 H 2130.45 -1.40155 0.517388 0
M  V30 22377 H 2132.33 -4.02409 -1.25081 0
M  V30 22378 H 2131.01 -2.8586 -1.51874 0
M  V30 22379 H 2129.91 -3.68475 0.646311 0
M  V30 22380 H 2131.25 -4.85135 0.830947 0
M  V30 22381 N 2132.9 -0.505757 -1.49264 0
M  V30 22382 C 2134.13 0.0337401 -2.06872 0
M  V30 22383 C 2134.54 1.30384 -1.36548 0
M  V30 22384 O 2133.9 1.76984 -0.4453 0
M  V30 22385 C 2133.95 0.286399 -3.60364 0
M  V30 22386 O 2133.67 -0.933356 -4.28042 0
M  V30 22387 C 2135.17 0.869003 -4.34699 0
M  V30 22388 H 2132.39 -0.022603 -0.670619 0
M  V30 22389 H 2134.94 -0.704475 -1.91983 0
M  V30 22390 H 2133.09 0.974605 -3.7494 0
M  V30 22391 H 2133.5 -0.699127 -5.1982 0
M  V30 22392 H 2134.98 0.995347 -5.42952 0
M  V30 22393 H 2135.46 1.86798 -3.97496 0
M  V30 22394 H 2136.06 0.218118 -4.2474 0
M  V30 22395 N 2134.38 1.55765 -0.239796 0
M  V30 22396 C 2135.31 2.24064 0.657067 0
M  V30 22397 C 2136.29 1.2185 1.18687 0
M  V30 22398 O 2137.47 1.50484 1.22753 0
M  V30 22399 C 2134.6 2.93465 1.8573 0
M  V30 22400 C 2133.56 4.02307 1.46057 0
M  V30 22401 C 2132.88 4.59097 2.74106 0
M  V30 22402 C 2134.18 5.18402 0.636932 0
M  V30 22403 H 2135.88 2.99272 0.0875675 0
M  V30 22404 H 2133.42 1.43943 0.0406772 0
M  V30 22405 H 2135.38 3.39943 2.49032 0
M  V30 22406 H 2134.1 2.15734 2.45207 0
M  V30 22407 H 2132.76 3.56588 0.850935 0
M  V30 22408 H 2132.41 3.78075 3.31766 0
M  V30 22409 H 2132.11 5.32566 2.48288 0
M  V30 22410 H 2133.63 5.08304 3.38318 0
M  V30 22411 H 2135.04 5.61149 1.17408 0
M  V30 22412 H 2133.44 5.98216 0.475092 0
M  V30 22413 H 2134.51 4.83617 -0.352445 0
M  V30 22414 N 2135.85 -0.0334016 1.57565 0
M  V30 22415 C 2137.1 -0.726157 1.89354 0
M  V30 22416 C 2137.43 -1.75237 0.837002 0
M  V30 22417 O 2136.71 -1.93933 -0.148452 0
M  V30 22418 C 2136.99 -1.39963 3.31787 0
M  V30 22419 C 2136.84 -0.387227 4.4813 0
M  V30 22420 C 2138.16 -2.33475 3.73065 0
M  V30 22421 H 2135.28 -0.262518 0.688661 0
M  V30 22422 H 2137.92 0.0110285 1.89997 0
M  V30 22423 H 2136.07 -2.02797 3.31369 0
M  V30 22424 H 2137.75 0.238867 4.60681 0
M  V30 22425 H 2135.99 0.293911 4.32803 0
M  V30 22426 H 2136.66 -0.896846 5.44666 0
M  V30 22427 H 2139.14 -1.80688 3.74822 0
M  V30 22428 H 2138.01 -2.7758 4.73541 0
M  V30 22429 H 2138.27 -3.19962 3.05085 0
M  V30 22430 N 2137.33 -1.54609 -0.305591 0
M  V30 22431 C 2138.56 -1.77658 -1.06044 0
M  V30 22432 C 2138.98 -0.533827 -1.81096 0
M  V30 22433 O 2138.33 0.496175 -1.75626 0
M  V30 22434 C 2138.38 -2.98126 -2.04458 0
M  V30 22435 O 2138.1 -4.17598 -1.32452 0
M  V30 22436 C 2139.61 -3.33527 -2.92018 0
M  V30 22437 H 2136.83 -0.592632 -0.314688 0
M  V30 22438 H 2139.37 -2.01547 -0.346258 0
M  V30 22439 H 2137.52 -2.76458 -2.71385 0
M  V30 22440 H 2137.94 -4.85485 -1.98506 0
M  V30 22441 H 2139.41 -4.21074 -3.56932 0
M  V30 22442 H 2139.89 -2.5148 -3.60076 0
M  V30 22443 H 2140.5 -3.57338 -2.30628 0
M  V30 22444 N 2138.81 0.568558 -1.46987 0
M  V30 22445 C 2139.74 1.69177 -1.53149 0
M  V30 22446 C 2140.72 1.57989 -0.384472 0
M  V30 22447 O 2141.91 1.79007 -0.590656 0
M  V30 22448 C 2139.03 3.0734 -1.42336 0
M  V30 22449 C 2138.08 3.37007 -2.61398 0
M  V30 22450 S 2138.91 3.27512 -4.2367 0
M  V30 22451 C 2140.07 4.6819 -4.15391 0
M  V30 22452 H 2140.3 1.63693 -2.48177 0
M  V30 22453 H 2137.83 0.748461 -1.35046 0
M  V30 22454 H 2139.79 3.8704 -1.36786 0
M  V30 22455 H 2138.45 3.103 -0.487122 0
M  V30 22456 H 2137.65 4.37703 -2.49865 0
M  V30 22457 H 2137.25 2.64903 -2.64012 0
M  V30 22458 H 2139.54 5.58892 -3.82944 0
M  V30 22459 H 2140.48 4.8478 -5.16134 0
M  V30 22460 H 2140.89 4.45704 -3.46423 0
M  V30 22461 N 2140.29 1.34929 0.814366 0
M  V30 22462 C 2141.7 1.24889 1.38779 0
M  V30 22463 C 2142.05 -0.122017 1.9582 0
M  V30 22464 O 2141.18 -1.02269 1.90709 0
M  V30 22465 C 2141.77 2.2613 2.52291 0
M  V30 22466 C 2140.33 2.19855 3.05517 0
M  V30 22467 C 2139.48 2.12265 1.78435 0
M  V30 22468 H 2142.43 1.46171 0.618046 0
M  V30 22469 H 2142.45 1.88326 3.30626 0
M  V30 22470 H 2141.96 3.25896 2.10745 0
M  V30 22471 H 2140.06 1.23474 3.51547 0
M  V30 22472 H 2140.17 3.11482 3.64027 0
M  V30 22473 H 2138.54 1.58119 1.99676 0
M  V30 22474 H 2139.32 3.13878 1.39051 0
M  V30 22475 N 2141.77 -1.0356 1.18799 0
M  V30 22476 C 2142.7 -2.13602 0.943213 0
M  V30 22477 C 2143.68 -1.69669 -0.120965 0
M  V30 22478 O 2144.86 -1.94173 0.0326748 0
M  V30 22479 C 2141.99 -3.44054 0.473716 0
M  V30 22480 C 2140.95 -4.01635 1.47896 0
M  V30 22481 C 2140.27 -5.27628 0.866789 0
M  V30 22482 C 2141.57 -4.3722 2.8572 0
M  V30 22483 H 2143.27 -2.34336 1.86351 0
M  V30 22484 H 2140.81 -1.12617 0.897406 0
M  V30 22485 H 2142.77 -4.20402 0.289804 0
M  V30 22486 H 2141.49 -3.23021 -0.482167 0
M  V30 22487 H 2140.15 -3.27374 1.6499 0
M  V30 22488 H 2139.8 -5.02908 -0.0964386 0
M  V30 22489 H 2139.5 -5.67115 1.53799 0
M  V30 22490 H 2141.02 -6.06649 0.693523 0
M  V30 22491 H 2142.43 -5.04533 2.72248 0
M  V30 22492 H 2140.83 -4.87771 3.49571 0
M  V30 22493 H 2141.9 -3.46821 3.38885 0
M  V30 22494 N 2143.25 -0.990834 -1.22557 0
M  V30 22495 C 2144.49 -0.664218 -1.90873 0
M  V30 22496 C 2144.81 0.80601 -1.77563 0
M  V30 22497 O 2144.08 1.57751 -1.16153 0
M  V30 22498 H 2142.66 -0.242684 -0.70648 0
M  V30 22499 H 2145.33 -1.2569 -1.48957 0
M  V30 22500 H 2144.42 -0.924949 -2.98079 0
M  V30 22501 N 2144.72 1.37856 -0.763775 0
M  V30 22502 C 2145.95 2.03864 -0.335144 0
M  V30 22503 C 2146.36 1.57732 1.04486 0
M  V30 22504 O 2145.7 0.750289 1.67679 0
M  V30 22505 C 2145.77 3.58323 -0.290657 0
M  V30 22506 C 2145.43 4.27554 -1.61391 0
M  V30 22507 C 2146.43 4.52225 -2.56494 0
M  V30 22508 C 2144.11 4.65542 -1.88615 0
M  V30 22509 C 2146.11 5.13931 -3.77033 0
M  V30 22510 C 2143.79 5.26971 -3.09426 0
M  V30 22511 C 2144.79 5.51102 -4.03455 0
M  V30 22512 O 2144.48 6.11248 -5.2214 0
M  V30 22513 H 2144.21 0.661438 -0.139556 0
M  V30 22514 H 2146.77 1.77331 -1.03648 0
M  V30 22515 H 2145 3.8387 0.467001 0
M  V30 22516 H 2146.68 4.05751 0.109828 0
M  V30 22517 H 2147.45 4.23296 -2.3674 0
M  V30 22518 H 2143.33 4.461 -1.16258 0
M  V30 22519 H 2146.87 5.32682 -4.5044 0
M  V30 22520 H 2142.77 5.55324 -3.29068 0
M  V30 22521 H 2143.54 6.29731 -5.22859 0
M  V30 22522 N 2146.2 0.513665 1.48994 0
M  V30 22523 C 2147.45 -0.0263732 2.02783 0
M  V30 22524 C 2147.78 -1.35469 1.39147 0
M  V30 22525 O 2147.06 -1.87097 0.531511 0
M  V30 22526 C 2147.34 -0.165605 3.59719 0
M  V30 22527 C 2147.19 1.18673 4.33863 0
M  V30 22528 C 2148.51 -0.900228 4.30794 0
M  V30 22529 H 2145.63 -0.00811043 0.736955 0
M  V30 22530 H 2148.27 0.667534 1.77888 0
M  V30 22531 H 2146.42 -0.756613 3.81061 0
M  V30 22532 H 2148.09 1.81759 4.23983 0
M  V30 22533 H 2146.34 1.77281 3.95922 0
M  V30 22534 H 2147.01 1.04247 5.42067 0
M  V30 22535 H 2149.48 -0.398863 4.14184 0
M  V30 22536 H 2148.36 -0.966514 5.40324 0
M  V30 22537 H 2148.62 -1.94685 3.96926 0
M  V30 22538 N 2147.68 -1.55636 0.248053 0
M  V30 22539 C 2148.91 -2.03371 -0.380481 0
M  V30 22540 C 2149.32 -1.12727 -1.51453 0
M  V30 22541 O 2148.68 -0.141929 -1.81947 0
M  V30 22542 C 2148.73 -3.50445 -0.887178 0
M  V30 22543 O 2148.45 -4.37636 0.20168 0
M  V30 22544 C 2149.95 -4.13947 -1.58628 0
M  V30 22545 H 2147.17 -0.664899 -0.0902759 0
M  V30 22546 H 2149.72 -2.01083 0.372253 0
M  V30 22547 H 2147.87 -3.53263 -1.59009 0
M  V30 22548 H 2148.29 -5.2418 -0.183268 0
M  V30 22549 H 2149.76 -5.18543 -1.89253 0
M  V30 22550 H 2150.24 -3.60505 -2.50864 0
M  V30 22551 H 2150.84 -4.15054 -0.927917 0
M  V30 22552 N 2149.16 0.0250451 -1.5758 0
M  V30 22553 C 2150.11 1.03236 -2.03289 0
M  V30 22554 C 2151.09 1.31798 -0.922936 0
M  V30 22555 O 2152.28 1.31315 -1.18681 0
M  V30 22556 C 2149.41 2.33225 -2.51915 0
M  V30 22557 C 2148.5 2.07736 -3.69739 0
M  V30 22558 N 2148.89 1.52319 -4.8232 0
M  V30 22559 C 2147.19 2.38001 -3.77189 0
M  V30 22560 C 2147.89 1.42727 -5.63918 0
M  V30 22561 N 2146.86 1.90424 -5.09156 0
M  V30 22562 H 2150.67 0.597974 -2.87752 0
M  V30 22563 H 2148.18 0.231268 -1.60745 0
M  V30 22564 H 2150.18 3.06202 -2.82923 0
M  V30 22565 H 2148.84 2.77339 -1.68859 0
M  V30 22566 H 2149.85 1.20535 -5.03678 0
M  V30 22567 H 2146.53 2.85162 -3.04941 0
M  V30 22568 H 2147.92 1.00336 -6.64366 0
M  V30 22569 N 2150.64 1.54769 0.297388 0
M  V30 22570 C 2151.88 1.73877 1.0301 0
M  V30 22571 C 2152.2 0.529442 1.87675 0
M  V30 22572 O 2151.47 -0.456215 1.90514 0
M  V30 22573 H 2150.05 0.641155 0.383313 0
M  V30 22574 H 2152.72 1.92129 0.3275 0
M  V30 22575 H 2151.81 2.62953 1.68113 0
M  V30 22576 N 2152.11 -0.560755 1.47286 0
M  V30 22577 C 2153.04 -1.67792 1.62383 0
M  V30 22578 C 2154.02 -1.6338 0.473377 0
M  V30 22579 O 2155.21 -1.81057 0.702288 0
M  V30 22580 C 2152.34 -3.06431 1.63454 0
M  V30 22581 C 2151.29 -3.25688 2.7769 0
M  V30 22582 C 2150.62 -4.65078 2.63831 0
M  V30 22583 C 2151.92 -3.11404 4.19315 0
M  V30 22584 H 2153.61 -1.55414 2.55904 0
M  V30 22585 H 2151.16 -0.746251 1.23155 0
M  V30 22586 H 2153.11 -3.84428 1.72606 0
M  V30 22587 H 2151.84 -3.1976 0.664904 0
M  V30 22588 H 2150.5 -2.50098 2.68042 0
M  V30 22589 H 2150.14 -4.75201 1.64904 0
M  V30 22590 H 2149.84 -4.78911 3.40467 0
M  V30 22591 H 2151.37 -5.45214 2.74907 0
M  V30 22592 H 2152.78 -3.79222 4.29958 0
M  V30 22593 H 2151.18 -3.36749 4.9671 0
M  V30 22594 H 2152.25 -2.08195 4.3793 0
M  V30 22595 N 2153.59 -1.35359 -0.807199 0
M  V30 22596 C 2154.54 -1.28262 -1.9404 0
M  V30 22597 C 2155.53 -0.177666 -1.68466 0
M  V30 22598 O 2156.74 -0.34361 -1.7669 0
M  V30 22599 H 2153.11 -0.398861 -0.637506 0
M  V30 22600 H 2155.09 -2.23999 -1.97147 0
M  V30 22601 C 2153.83 -1.07086 -3.30799 0
M  V30 22602 H 2153.16 -1.91349 -3.51035 0
M  V30 22603 H 2154.6 -1.06161 -4.10495 0
M  V30 22604 C 2153.06 0.225309 -3.36146 0
M  V30 22605 O 2153.59 1.22131 -3.82684 0
M  V30 22606 N 2151.79 0.26387 -2.894 0
M  V30 22607 H 2151.34 -0.54725 -2.5172 0
M  V30 22608 H 2151.3 1.13084 -2.93359 0
M  V30 22609 N 2155.07 1.02928 -1.19346 0
M  V30 22610 C 2156 2.13099 -0.954528 0
M  V30 22611 C 2156.98 1.69731 0.111965 0
M  V30 22612 O 2158.17 1.94152 -0.0429718 0
M  V30 22613 C 2155.3 3.43798 -0.491955 0
M  V30 22614 C 2154.25 4.00845 -1.50024 0
M  V30 22615 C 2153.58 5.2716 -0.894759 0
M  V30 22616 C 2154.88 4.35699 -2.88035 0
M  V30 22617 H 2156.57 2.33345 -1.87592 0
M  V30 22618 H 2154.12 1.1214 -0.903366 0
M  V30 22619 H 2156.07 4.20243 -0.312095 0
M  V30 22620 H 2154.79 3.23272 0.46503 0
M  V30 22621 H 2153.45 3.26495 -1.66724 0
M  V30 22622 H 2153.1 5.02952 0.0697668 0
M  V30 22623 H 2152.8 5.66291 -1.56805 0
M  V30 22624 H 2154.32 6.06272 -0.725685 0
M  V30 22625 H 2155.74 5.03083 -2.7492 0
M  V30 22626 H 2154.13 4.8591 -3.52152 0
M  V30 22627 H 2155.2 3.45019 -3.4072 0
M  V30 22628 N 2156.55 0.997319 1.2203 0
M  V30 22629 C 2157.46 0.560352 2.2781 0
M  V30 22630 C 2158.47 -0.392977 1.69504 0
M  V30 22631 O 2159.65 -0.258715 1.99731 0
M  V30 22632 C 2156.71 -0.113747 3.46513 0
M  V30 22633 C 2155.78 0.883099 4.20119 0
M  V30 22634 C 2155.01 0.241074 5.33155 0
M  V30 22635 O 2155.23 -0.963972 5.62195 0
M  V30 22636 O 2154.17 0.948154 5.94385 0
M  V30 22637 H 2157.99 1.44049 2.67364 0
M  V30 22638 H 2155.58 0.765793 1.28281 0
M  V30 22639 H 2157.46 -0.491137 4.18528 0
M  V30 22640 H 2156.13 -0.968387 3.08875 0
M  V30 22641 H 2155.04 1.3115 3.50358 0
M  V30 22642 H 2156.37 1.70708 4.61649 0
M  V30 22643 N 2158.03 -1.37449 0.771075 0
M  V30 22644 C 2158.94 -2.3407 0.157631 0
M  V30 22645 C 2159.95 -1.60145 -0.680404 0
M  V30 22646 O 2161.13 -1.9224 -0.600482 0
M  V30 22647 C 2158.19 -3.39316 -0.711733 0
M  V30 22648 C 2157.25 -4.29063 0.142682 0
M  V30 22649 C 2156.49 -5.29282 -0.685284 0
M  V30 22650 O 2156.71 -5.37029 -1.92241 0
M  V30 22651 O 2155.64 -6.01825 -0.0948431 0
M  V30 22652 H 2159.47 -2.8826 0.956036 0
M  V30 22653 H 2157.06 -1.39598 0.532224 0
M  V30 22654 H 2158.94 -4.03713 -1.20806 0
M  V30 22655 H 2157.61 -2.87455 -1.48834 0
M  V30 22656 H 2156.52 -3.67769 0.685357 0
M  V30 22657 H 2157.85 -4.84227 0.882356 0
M  V30 22658 N 2159.5 -0.52156 -1.4872 0
M  V30 22659 C 2160.47 0.234979 -2.27992 0
M  V30 22660 C 2161.47 0.875433 -1.34881 0
M  V30 22661 O 2162.66 0.736784 -1.57852 0
M  V30 22662 C 2159.79 1.33914 -3.13496 0
M  V30 22663 H 2160.98 -0.460907 -2.96337 0
M  V30 22664 H 2158.54 -0.277206 -1.53822 0
M  V30 22665 H 2159.27 2.06854 -2.49763 0
M  V30 22666 H 2159.06 0.885123 -3.81979 0
M  V30 22667 H 2160.55 1.8715 -3.73316 0
M  V30 22668 N 2160.98 1.55502 -0.256304 0
M  V30 22669 C 2161.95 2.20485 0.626014 0
M  V30 22670 C 2162.95 1.17694 1.09566 0
M  V30 22671 O 2164.14 1.42718 0.998856 0
M  V30 22672 C 2161.27 2.85589 1.86149 0
M  V30 22673 H 2162.46 2.99842 0.0589124 0
M  V30 22674 H 2160.01 1.56299 -0.0068064 0
M  V30 22675 H 2160.75 2.10195 2.46959 0
M  V30 22676 H 2160.53 3.60896 1.53285 0
M  V30 22677 H 2162.02 3.35293 2.48935 0
M  V30 22678 N 2162.46 -0.0166879 1.57591 0
M  V30 22679 C 2163.88 -0.372531 1.55191 0
M  V30 22680 C 2164.08 -1.75838 0.984042 0
M  V30 22681 O 2163.13 -2.45008 0.610513 0
M  V30 22682 C 2164.45 -0.263043 2.99547 0
M  V30 22683 C 2165.99 -0.339216 3.11156 0
M  V30 22684 C 2166.47 -0.259039 4.57267 0
M  V30 22685 N 2167.96 -0.317455 4.62111 0
M  V30 22686 C 2168.69 -0.278499 5.72723 0
M  V30 22687 N 2168.19 -0.191112 6.92536 0
M  V30 22688 N 2169.98 -0.32914 5.61136 0
M  V30 22689 H 2162.13 0.890086 1.9285 0
M  V30 22690 H 2164.4 0.339637 0.885071 0
M  V30 22691 H 2164.1 0.689794 3.44869 0
M  V30 22692 H 2163.98 -1.0518 3.62239 0
M  V30 22693 H 2166.36 -1.28249 2.65775 0
M  V30 22694 H 2166.45 0.479109 2.51273 0
M  V30 22695 H 2166.09 0.68062 5.03319 0
M  V30 22696 H 2166.02 -1.09563 5.15076 0
M  V30 22697 H 2168.51 -0.387004 3.75913 0
M  V30 22698 H 2168.82 -0.166827 7.7262 0
M  V30 22699 H 2167.17 -0.15698 6.94823 0
M  V30 22700 H 2170.36 -0.395489 4.66426 0
M  V30 22701 H 2170.53 -0.295314 6.47327 0
M  V30 22702 N 2163.94 -1.54924 -0.289176 0
M  V30 22703 C 2165.17 -1.78513 -1.04003 0
M  V30 22704 C 2165.58 -0.550557 -1.81012 0
M  V30 22705 O 2164.92 0.489519 -1.77058 0
M  V30 22706 C 2164.98 -2.9476 -2.05808 0
M  V30 22707 C 2164.65 -4.32411 -1.47886 0
M  V30 22708 C 2165.64 -5.12002 -0.902795 0
M  V30 22709 C 2163.33 -4.79037 -1.51092 0
M  V30 22710 C 2165.32 -6.36345 -0.366511 0
M  V30 22711 C 2163.01 -6.0334 -0.970774 0
M  V30 22712 C 2164.01 -6.8183 -0.39955 0
M  V30 22713 O 2163.69 -8.03791 0.132375 0
M  V30 22714 H 2163.43 -0.598816 -0.31368 0
M  V30 22715 H 2165.98 -2.02726 -0.330347 0
M  V30 22716 H 2164.21 -2.66199 -2.8049 0
M  V30 22717 H 2165.9 -3.05817 -2.6689 0
M  V30 22718 H 2166.67 -4.77118 -0.870835 0
M  V30 22719 H 2162.54 -4.17964 -1.94493 0
M  V30 22720 H 2166.09 -6.97554 0.0799946 0
M  V30 22721 H 2161.99 -6.37708 -0.99992 0
M  V30 22722 H 2162.75 -8.18498 0.0201954 0
M  V30 22723 N 2165.42 0.552936 -1.47582 0
M  V30 22724 C 2166.35 1.67543 -1.54934 0
M  V30 22725 C 2167.33 1.57572 -0.401207 0
M  V30 22726 O 2168.51 1.7837 -0.609608 0
M  V30 22727 C 2165.64 3.05813 -1.45588 0
M  V30 22728 C 2164.68 3.34215 -2.64957 0
M  V30 22729 S 2165.52 3.23 -4.27119 0
M  V30 22730 C 2166.67 4.63757 -4.20333 0
M  V30 22731 H 2166.91 1.61052 -2.49899 0
M  V30 22732 H 2164.44 0.734096 -1.35832 0
M  V30 22733 H 2166.4 3.85567 -1.40883 0
M  V30 22734 H 2165.06 3.09766 -0.520006 0
M  V30 22735 H 2164.25 4.35028 -2.54493 0
M  V30 22736 H 2163.85 2.62088 -2.66807 0
M  V30 22737 H 2166.15 5.54799 -3.8885 0
M  V30 22738 H 2167.09 4.79278 -5.21247 0
M  V30 22739 H 2167.5 4.42004 -3.5113 0
M  V30 22740 N 2166.89 1.35785 0.800009 0
M  V30 22741 C 2168.31 1.15967 1.09653 0
M  V30 22742 C 2168.51 -0.0234211 2.01486 0
M  V30 22743 O 2167.57 -0.692029 2.42832 0
M  V30 22744 C 2168.88 2.46568 1.72118 0
M  V30 22745 C 2170.43 2.52835 1.84509 0
M  V30 22746 C 2170.9 3.83496 2.50389 0
M  V30 22747 N 2172.39 3.84783 2.57868 0
M  V30 22748 C 2173.13 4.82616 3.09628 0
M  V30 22749 N 2172.62 5.90839 3.61775 0
M  V30 22750 N 2174.42 4.70046 3.08242 0
M  V30 22751 H 2166.57 2.11551 0.189675 0
M  V30 22752 H 2168.83 0.936573 0.146746 0
M  V30 22753 H 2168.54 3.33354 1.12108 0
M  V30 22754 H 2168.41 2.61599 2.71746 0
M  V30 22755 H 2170.8 1.66474 2.4366 0
M  V30 22756 H 2170.88 2.41713 0.837173 0
M  V30 22757 H 2170.52 4.70258 1.91885 0
M  V30 22758 H 2170.45 3.9191 3.5173 0
M  V30 22759 H 2172.94 3.06591 2.2093 0
M  V30 22760 H 2173.26 6.61475 3.99589 0
M  V30 22761 H 2171.6 5.94522 3.59956 0
M  V30 22762 H 2174.79 3.84635 2.66784 0
M  V30 22763 H 2174.97 5.46452 3.48273 0
M  V30 22764 N 2168.37 -1.02294 1.19891 0
M  V30 22765 C 2169.6 -1.79941 1.03131 0
M  V30 22766 C 2170.02 -1.8346 -0.415201 0
M  V30 22767 O 2169.38 -1.26499 -1.29876 0
M  V30 22768 C 2169.43 -3.22565 1.61196 0
M  V30 22769 O 2168.53 -4.03644 0.845295 0
M  V30 22770 H 2167.87 -0.555254 0.364128 0
M  V30 22771 H 2170.4 -1.28709 1.59045 0
M  V30 22772 H 2170.41 -3.73296 1.64663 0
M  V30 22773 H 2169.09 -3.19318 2.66474 0
M  V30 22774 H 2167.67 -3.62262 0.884338 0
M  V30 22775 N 2169.85 -1.00378 -1.21499 0
M  V30 22776 C 2170.78 -0.583318 -2.26097 0
M  V30 22777 C 2171.76 0.395257 -1.65444 0
M  V30 22778 O 2172.95 0.283508 -1.92119 0
M  V30 22779 C 2170.08 0.0920619 -3.47178 0
M  V30 22780 C 2169.03 -0.806168 -4.20339 0
M  V30 22781 C 2168.36 0.0027323 -5.347 0
M  V30 22782 C 2169.66 -2.1082 -4.77862 0
M  V30 22783 H 2171.35 -1.45765 -2.6152 0
M  V30 22784 H 2168.9 -0.702333 -1.25711 0
M  V30 22785 H 2170.85 0.397677 -4.19519 0
M  V30 22786 H 2169.57 1.00102 -3.10881 0
M  V30 22787 H 2168.23 -1.09559 -3.49846 0
M  V30 22788 H 2167.88 0.912942 -4.94646 0
M  V30 22789 H 2167.58 -0.595326 -5.84576 0
M  V30 22790 H 2169.1 0.302191 -6.09852 0
M  V30 22791 H 2170.52 -1.86581 -5.42089 0
M  V30 22792 H 2168.92 -2.656 -5.38123 0
M  V30 22793 H 2169.99 -2.77978 -3.97311 0
M  V30 22794 N 2171.33 1.37038 -0.778354 0
M  V30 22795 C 2172.28 2.30193 -0.167288 0
M  V30 22796 C 2173.25 1.51429 0.682526 0
M  V30 22797 O 2174.43 1.79976 0.633513 0
M  V30 22798 C 2171.57 3.37912 0.700668 0
M  V30 22799 C 2170.68 4.31679 -0.166475 0
M  V30 22800 C 2169.82 5.26477 0.706809 0
M  V30 22801 C 2168.86 6.11884 -0.162465 0
M  V30 22802 N 2167.99 6.98904 0.66917 0
M  V30 22803 H 2172.83 2.81868 -0.967185 0
M  V30 22804 H 2170.37 1.3875 -0.488542 0
M  V30 22805 H 2172.33 3.99001 1.21877 0
M  V30 22806 H 2170.96 2.87585 1.4661 0
M  V30 22807 H 2170.01 3.7184 -0.802449 0
M  V30 22808 H 2171.32 4.91732 -0.836729 0
M  V30 22809 H 2170.48 5.92802 1.29115 0
M  V30 22810 H 2169.22 4.66851 1.41073 0
M  V30 22811 H 2168.22 5.44532 -0.759288 0
M  V30 22812 H 2169.45 6.73584 -0.863814 0
M  V30 22813 H 2167.39 6.41799 1.35758 0
M  V30 22814 H 2167.31 7.55979 0.0563568 0
M  V30 22815 H 2168.58 7.69611 1.23769 0
M  V30 22816 N 2172.81 0.529439 1.48441 0
M  V30 22817 C 2174.05 -0.00486384 2.02799 0
M  V30 22818 C 2174.39 -1.33985 1.40576 0
M  V30 22819 O 2173.66 -1.86523 0.551326 0
M  V30 22820 C 2173.94 -0.127443 3.59874 0
M  V30 22821 C 2173.8 1.23268 4.3258 0
M  V30 22822 C 2175.12 -0.854486 4.31725 0
M  V30 22823 H 2172.24 -0.00029358 0.737 0
M  V30 22824 H 2174.88 0.686364 1.7717 0
M  V30 22825 H 2173.03 -0.716153 3.81842 0
M  V30 22826 H 2174.7 1.86245 4.22031 0
M  V30 22827 H 2172.94 1.8147 3.94019 0
M  V30 22828 H 2173.61 1.09991 5.40931 0
M  V30 22829 H 2176.09 -0.354911 4.14584 0
M  V30 22830 H 2174.97 -0.909151 5.41318 0
M  V30 22831 H 2175.23 -1.90464 3.98968 0
M  V30 22832 N 2174.29 -1.55364 0.264547 0
M  V30 22833 C 2175.7 -1.85212 -0.235254 0
M  V30 22834 C 2176.05 -1.18652 -1.56256 0
M  V30 22835 O 2175.17 -0.471096 -2.1121 0
M  V30 22836 C 2175.77 -3.36014 -0.43363 0
M  V30 22837 C 2174.33 -3.66024 -0.877673 0
M  V30 22838 C 2173.47 -2.77278 0.0350996 0
M  V30 22839 H 2176.42 -1.51055 0.486633 0
M  V30 22840 H 2176.45 -3.58548 -1.27373 0
M  V30 22841 H 2175.96 -3.84429 0.532565 0
M  V30 22842 H 2174.06 -3.23101 -1.85571 0
M  V30 22843 H 2174.17 -4.73624 -0.722315 0
M  V30 22844 H 2172.54 -2.50148 -0.479378 0
M  V30 22845 H 2173.32 -3.28504 0.996986 0
M  V30 22846 N 2175.76 0.00833021 -1.57598 0
M  V30 22847 C 2176.73 0.9872 -2.0685 0
M  V30 22848 C 2177.73 1.27766 -0.976351 0
M  V30 22849 O 2178.92 1.22423 -1.23929 0
M  V30 22850 C 2176.05 2.31443 -2.50294 0
M  V30 22851 H 2177.24 0.561338 -2.946 0
M  V30 22852 H 2174.79 0.255625 -1.54195 0
M  V30 22853 H 2175.53 2.78735 -1.65763 0
M  V30 22854 H 2175.31 2.11684 -3.30049 0
M  V30 22855 H 2176.8 3.0168 -2.88754 0
M  V30 22856 N 2177.24 1.55075 0.280956 0
M  V30 22857 C 2178.47 1.79322 1.03205 0
M  V30 22858 C 2178.88 0.56257 1.80224 0
M  V30 22859 O 2178.24 -0.468172 1.76393 0
M  V30 22860 C 2178.29 3.01341 1.99689 0
M  V30 22861 O 2178.01 4.19652 1.25792 0
M  V30 22862 C 2179.51 3.38131 2.86675 0
M  V30 22863 H 2176.73 0.597563 0.30522 0
M  V30 22864 H 2179.28 2.02073 0.31415 0
M  V30 22865 H 2177.43 2.8074 2.66953 0
M  V30 22866 H 2177.85 4.88582 1.90757 0
M  V30 22867 H 2179.32 4.267 3.50188 0
M  V30 22868 H 2179.8 2.57177 3.56029 0
M  V30 22869 H 2180.4 3.60962 2.24914 0
M  V30 22870 N 2178.72 -0.545102 1.47873 0
M  V30 22871 C 2179.97 -1.30364 1.55348 0
M  V30 22872 C 2180.3 -1.92948 0.220182 0
M  V30 22873 O 2179.57 -1.78506 -0.772398 0
M  V30 22874 C 2179.86 -2.40454 2.68055 0
M  V30 22875 C 2179.71 -1.8266 4.11042 0
M  V30 22876 C 2181.03 -3.42314 2.76603 0
M  V30 22877 H 2178.15 -0.472628 0.565502 0
M  V30 22878 H 2180.79 -0.608798 1.79982 0
M  V30 22879 H 2178.94 -2.99722 2.47182 0
M  V30 22880 H 2180.61 -1.2756 4.43313 0
M  V30 22881 H 2178.85 -1.1327 4.18751 0
M  V30 22882 H 2179.53 -2.62302 4.85697 0
M  V30 22883 H 2182 -2.92981 2.95468 0
M  V30 22884 H 2180.88 -4.16757 3.57218 0
M  V30 22885 H 2181.14 -4.01923 1.84147 0
M  V30 22886 N 2180.2 -1.36208 -0.792797 0
M  V30 22887 C 2181.42 -1.3356 -1.58671 0
M  V30 22888 C 2181.85 0.0814602 -1.87924 0
M  V30 22889 O 2181.21 1.05241 -1.47628 0
M  V30 22890 C 2181.25 -2.16123 -2.88658 0
M  V30 22891 O 2180.36 -1.5514 -3.82106 0
M  V30 22892 H 2179.7 -0.45729 -0.481438 0
M  V30 22893 H 2182.23 -1.79444 -0.982909 0
M  V30 22894 H 2182.24 -2.28579 -3.37958 0
M  V30 22895 H 2180.91 -3.19136 -2.66693 0
M  V30 22896 H 2179.49 -1.51604 -3.40691 0
M  V30 22897 N 2181.68 1.01656 -1.20431 0
M  V30 22898 C 2182.92 1.75515 -1.016 0
M  V30 22899 C 2183.25 1.88896 0.450791 0
M  V30 22900 O 2182.53 1.4148 1.33468 0
M  V30 22901 C 2182.81 3.17433 -1.70024 0
M  V30 22902 C 2182.67 3.11847 -3.24147 0
M  V30 22903 C 2183.98 4.16105 -1.43334 0
M  V30 22904 H 2181.1 0.637102 -0.370501 0
M  V30 22905 H 2183.75 1.18591 -1.48446 0
M  V30 22906 H 2181.9 3.66035 -1.30195 0
M  V30 22907 H 2183.57 2.71049 -3.7327 0
M  V30 22908 H 2181.81 2.49242 -3.55051 0
M  V30 22909 H 2182.48 4.12169 -3.6718 0
M  V30 22910 H 2184.96 3.76159 -1.77887 0
M  V30 22911 H 2183.83 5.13571 -1.93741 0
M  V30 22912 H 2184.09 4.40624 -0.360952 0
M  V30 22913 N 2183.15 1.01021 1.20965 0
M  V30 22914 C 2184.38 0.714661 1.94698 0
M  V30 22915 C 2184.8 -0.717235 1.73889 0
M  V30 22916 O 2184.16 -1.49265 1.02906 0
M  V30 22917 C 2184.21 1.04769 3.45045 0
M  V30 22918 O 2183.31 0.155818 4.12106 0
M  V30 22919 H 2182.65 0.265768 0.608493 0
M  V30 22920 H 2185.18 1.35186 1.53577 0
M  V30 22921 H 2185.19 0.996722 3.95638 0
M  V30 22922 H 2183.87 2.09099 3.59514 0
M  V30 22923 H 2182.45 0.263764 3.71966 0
M  V30 22924 N 2184.63 -1.36623 0.78561 0
M  V30 22925 C 2185.86 -2.04129 0.366917 0
M  V30 22926 C 2186.28 -1.58852 -1.00736 0
M  V30 22927 O 2185.64 -0.755202 -1.64822 0
M  V30 22928 C 2185.69 -3.5797 0.43472 0
M  V30 22929 O 2184.79 -4.08584 -0.559755 0
M  V30 22930 H 2184.13 -0.645306 0.156447 0
M  V30 22931 H 2186.66 -1.74656 1.06566 0
M  V30 22932 H 2186.67 -4.06918 0.296959 0
M  V30 22933 H 2185.35 -3.90277 1.43724 0
M  V30 22934 H 2183.92 -3.70918 -0.38397 0
M  V30 22935 N 2186.11 -0.537304 -1.48158 0
M  V30 22936 C 2187.52 -0.0987274 -1.86439 0
M  V30 22937 C 2187.87 1.32599 -1.4461 0
M  V30 22938 O 2187 1.99427 -0.840112 0
M  V30 22939 C 2187.59 -0.172391 -3.38361 0
M  V30 22940 C 2186.15 0.211031 -3.75808 0
M  V30 22941 C 2185.3 -0.528892 -2.7221 0
M  V30 22942 H 2188.25 -0.74815 -1.39959 0
M  V30 22943 H 2188.27 0.614074 -3.75512 0
M  V30 22944 H 2187.78 -1.20942 -3.68774 0
M  V30 22945 H 2185.88 1.24993 -3.51009 0
M  V30 22946 H 2186 -0.133675 -4.78913 0
M  V30 22947 H 2184.36 0.0257117 -2.54687 0
M  V30 22948 H 2185.14 -1.5667 -3.05466 0
M  V30 22949 N 2187.59 1.55221 -0.272782 0
M  V30 22950 C 2188.87 1.91543 0.396336 0
M  V30 22951 C 2189.25 1.19676 1.73899 0
M  V30 22952 O 2188.59 0.322832 2.26208 0
M  V30 22953 C 2188.8 3.44814 0.53892 0
M  V30 22954 C 2190.15 4.1655 0.822894 0
M  V30 22955 O 2191.18 3.50695 0.623816 0
M  V30 22956 O 2190.03 5.33084 1.2035 0
M  V30 22957 H 2187.13 0.798123 0.21663 0
M  V30 22958 H 2189.67 1.66679 -0.318762 0
M  V30 22959 H 2188.45 3.89187 -0.406068 0
M  V30 22960 H 2188.07 3.75623 1.30358 0
M  V30 22961 N 2189.07 2.77022e-05 1.576 0
M  V30 22962 C 2190.03 -0.976217 2.07371 0
M  V30 22963 C 2191.03 -1.27246 0.983113 0
M  V30 22964 O 2192.22 -1.21764 1.24576 0
M  V30 22965 C 2189.35 -2.30112 2.51518 0
M  V30 22966 H 2190.54 -0.545707 2.94893 0
M  V30 22967 H 2188.1 -0.247444 1.54329 0
M  V30 22968 H 2188.83 -2.77852 1.67239 0
M  V30 22969 H 2188.62 -2.09931 3.31167 0
M  V30 22970 H 2190.11 -3.00144 2.9035 0
M  V30 22971 N 2190.54 -1.55222 -0.272728 0
M  V30 22972 C 2191.79 -1.76102 -1.00578 0
M  V30 22973 C 2192.12 -0.560658 -1.85931 0
M  V30 22974 O 2191.4 0.441768 -1.89417 0
M  V30 22975 C 2191.68 -3.06631 -1.88811 0
M  V30 22976 C 2191.53 -4.37022 -1.06449 0
M  V30 22977 C 2192.85 -3.33202 -2.87514 0
M  V30 22978 H 2189.97 -0.640705 -0.364233 0
M  V30 22979 H 2192.61 -1.87953 -0.278156 0
M  V30 22980 H 2190.76 -2.96659 -2.5085 0
M  V30 22981 H 2192.44 -4.58953 -0.464782 0
M  V30 22982 H 2190.68 -4.32237 -0.367967 0
M  V30 22983 H 2191.35 -5.24681 -1.71505 0
M  V30 22984 H 2193.83 -3.42969 -2.35609 0
M  V30 22985 H 2192.7 -4.25798 -3.46392 0
M  V30 22986 H 2192.96 -2.52855 -3.62652 0
M  V30 22987 N 2192.02 0.537252 -1.4816 0
M  V30 22988 C 2193.25 1.31838 -1.59456 0
M  V30 22989 C 2193.67 1.87109 -0.252098 0
M  V30 22990 O 2193.02 1.66033 0.757592 0
M  V30 22991 C 2193.07 2.47434 -2.6355 0
M  V30 22992 O 2192.79 1.94443 -3.92586 0
M  V30 22993 C 2194.3 3.39361 -2.85218 0
M  V30 22994 H 2191.52 0.401186 -0.537858 0
M  V30 22995 H 2194.06 0.648857 -1.93933 0
M  V30 22996 H 2192.21 3.10286 -2.31952 0
M  V30 22997 H 2192.63 2.70056 -4.49633 0
M  V30 22998 H 2194.1 4.16838 -3.6187 0
M  V30 22999 H 2194.58 3.94144 -1.93772 0
M  V30 23000 H 2195.19 2.82308 -3.18091 0
M  V30 23001 N 2193.5 1.36626 0.785562 0
M  V30 23002 C 2194.46 1.3111 1.87997 0
M  V30 23003 C 2195.46 0.217987 1.59316 0
M  V30 23004 O 2196.65 0.473006 1.67655 0
M  V30 23005 C 2193.79 1.03339 3.2486 0
M  V30 23006 H 2194.98 2.28444 1.94303 0
M  V30 23007 H 2192.53 1.21455 0.983792 0
M  V30 23008 H 2193.27 0.0648002 3.24235 0
M  V30 23009 H 2193.05 1.82447 3.47067 0
M  V30 23010 H 2194.54 1.02095 4.04928 0
M  V30 23011 N 2194.98 -1.01016 1.20969 0
M  V30 23012 C 2196.21 -1.78043 1.04806 0
M  V30 23013 C 2196.62 -1.84805 -0.405429 0
M  V30 23014 O 2195.96 -1.30471 -1.29318 0
M  V30 23015 C 2196.02 -3.23705 1.56383 0
M  V30 23016 C 2195.69 -3.40533 3.04773 0
M  V30 23017 C 2196.68 -3.29231 4.02371 0
M  V30 23018 C 2194.37 -3.66141 3.43869 0
M  V30 23019 C 2196.36 -3.43294 5.37055 0
M  V30 23020 C 2194.05 -3.79847 4.78706 0
M  V30 23021 C 2195.05 -3.68429 5.75108 0
M  V30 23022 O 2194.73 -3.81706 7.075 0
M  V30 23023 H 2194.47 -0.566543 0.368788 0
M  V30 23024 H 2197.02 -1.27994 1.60645 0
M  V30 23025 H 2195.25 -3.74865 0.949363 0
M  V30 23026 H 2196.94 -3.82387 1.36142 0
M  V30 23027 H 2197.71 -3.09377 3.73511 0
M  V30 23028 H 2193.58 -3.74113 2.69371 0
M  V30 23029 H 2197.13 -3.34299 6.12283 0
M  V30 23030 H 2193.03 -3.99204 5.07254 0
M  V30 23031 H 2193.79 -3.98685 7.14837 0
M  V30 23032 N 2196.46 -1.01661 -1.20428 0
M  V30 23033 C 2197.4 -0.580183 -2.25248 0
M  V30 23034 C 2198.4 0.381086 -1.65058 0
M  V30 23035 O 2199.6 0.251007 -1.78241 0
M  V30 23036 H 2195.98 -0.169312 -0.732692 0
M  V30 23037 H 2197.95 -1.47516 -2.59387 0
M  V30 23038 C 2196.7 0.0657269 -3.47638 0
M  V30 23039 H 2196.02 -0.664944 -3.94232 0
M  V30 23040 H 2197.46 0.334208 -4.22681 0
M  V30 23041 C 2195.92 1.30855 -3.10449 0
M  V30 23042 O 2196.45 2.40185 -3.21985 0
M  V30 23043 N 2194.66 1.19265 -2.64998 0
M  V30 23044 H 2194.2 0.303019 -2.55812 0
M  V30 23045 H 2194.16 2.02519 -2.40486 0
M  V30 23046 N 2197.93 1.36205 -0.792844 0
M  V30 23047 C 2199.18 1.98756 -0.366097 0
M  V30 23048 C 2199.5 1.63233 1.06677 0
M  V30 23049 O 2198.77 0.908009 1.73586 0
M  V30 23050 H 2197.35 0.735177 -0.132377 0
M  V30 23051 H 2200.02 1.66345 -1.01564 0
M  V30 23052 H 2199.11 3.08681 -0.460692 0
M  V30 23053 N 2199.41 0.545154 1.47871 0
M  V30 23054 C 2200.64 0.0210898 2.06589 0
M  V30 23055 C 2201.05 -1.27266 1.4 0
M  V30 23056 O 2200.39 -1.77142 0.486452 0
M  V30 23057 C 2200.46 -0.25787 3.58574 0
M  V30 23058 C 2200.12 0.944652 4.4713 0
M  V30 23059 C 2201.12 1.84707 4.85983 0
M  V30 23060 C 2198.8 1.15593 4.88819 0
M  V30 23061 C 2200.8 2.94456 5.65309 0
M  V30 23062 C 2198.48 2.25652 5.67912 0
M  V30 23063 C 2199.48 3.14915 6.06067 0
M  V30 23064 O 2199.17 4.23069 6.8357 0
M  V30 23065 H 2198.9 0.0373018 0.67497 0
M  V30 23066 H 2201.45 0.754632 1.91035 0
M  V30 23067 H 2199.68 -1.04557 3.72296 0
M  V30 23068 H 2201.37 -0.72585 3.99357 0
M  V30 23069 H 2202.14 1.69585 4.54385 0
M  V30 23070 H 2198.02 0.47036 4.58594 0
M  V30 23071 H 2201.56 3.64156 5.9501 0
M  V30 23072 H 2197.46 2.40752 5.98923 0
M  V30 23073 H 2198.23 4.20966 7.01947 0
M  V30 23074 N 2200.89 -1.55074 0.28101 0
M  V30 23075 C 2201.82 -2.25728 -0.597429 0
M  V30 23076 C 2202.8 -1.24954 -1.15415 0
M  V30 23077 O 2203.99 -1.53686 -1.1872 0
M  V30 23078 C 2201.12 -2.98286 -1.77884 0
M  V30 23079 C 2200.07 -4.06038 -1.35339 0
M  V30 23080 C 2199.4 -4.66203 -2.61838 0
M  V30 23081 C 2200.7 -5.19908 -0.499263 0
M  V30 23082 H 2202.39 -2.99399 -0.00819002 0
M  V30 23083 H 2199.94 -1.44 -0.00249909 0
M  V30 23084 H 2201.89 -3.46426 -2.39931 0
M  V30 23085 H 2200.61 -2.22159 -2.39401 0
M  V30 23086 H 2199.27 -3.58718 -0.756093 0
M  V30 23087 H 2198.92 -3.86738 -3.21625 0
M  V30 23088 H 2198.62 -5.38962 -2.3408 0
M  V30 23089 H 2200.14 -5.17095 -3.24723 0
M  V30 23090 H 2201.56 -5.64065 -1.02488 0
M  V30 23091 H 2199.96 -5.99266 -0.316319 0
M  V30 23092 H 2201.03 -4.82513 0.480544 0
M  V30 23093 N 2202.37 -0.00838561 -1.57598 0
M  V30 23094 C 2203.6 0.685456 -1.95216 0
M  V30 23095 C 2204.01 1.6684 -0.883736 0
M  V30 23096 O 2203.37 1.81989 0.136533 0
M  V30 23097 C 2203.42 1.41001 -3.32868 0
M  V30 23098 O 2203.14 0.466475 -4.35609 0
M  V30 23099 C 2204.64 2.19759 -3.84995 0
M  V30 23100 H 2201.86 0.190381 -0.643425 0
M  V30 23101 H 2204.41 -0.0619966 -2.04406 0
M  V30 23102 H 2202.56 2.10902 -3.2496 0
M  V30 23103 H 2202.98 0.978608 -5.1529 0
M  V30 23104 H 2204.45 2.6594 -4.83715 0
M  V30 23105 H 2204.93 3.0279 -3.18142 0
M  V30 23106 H 2205.53 1.54857 -3.96105 0
M  V30 23107 N 2203.85 1.55365 0.264492 0
M  V30 23108 C 2205.07 1.80741 1.01722 0
M  V30 23109 C 2205.5 0.583075 1.78835 0
M  V30 23110 O 2204.86 -0.467535 1.75168 0
M  V30 23111 C 2204.9 3.03663 1.94477 0
M  V30 23112 O 2204.01 2.79345 3.03381 0
M  V30 23113 H 2203.35 0.597137 0.290384 0
M  V30 23114 H 2205.88 2.02523 0.290818 0
M  V30 23115 H 2205.89 3.32625 2.36272 0
M  V30 23116 H 2204.56 3.9242 1.37765 0
M  V30 23117 H 2203.14 2.61503 2.6584 0
M  V30 23118 N 2205.33 -0.529387 1.48443 0
M  V30 23119 C 2206.55 -1.31468 1.60409 0
M  V30 23120 C 2206.98 -1.86227 0.264771 0
M  V30 23121 O 2206.33 -1.64433 -0.763639 0
M  V30 23122 C 2206.38 -2.44096 2.65423 0
M  V30 23123 O 2205.49 -3.47149 2.22624 0
M  V30 23124 H 2204.83 -0.389348 0.53787 0
M  V30 23125 H 2207.36 -0.636931 1.94433 0
M  V30 23126 H 2207.37 -2.90274 2.86715 0
M  V30 23127 H 2206.04 -2.03601 3.62656 0
M  V30 23128 H 2204.62 -3.07086 2.11548 0
M  V30 23129 N 2206.8 -1.37041 -0.778305 0
M  V30 23130 C 2208.03 -1.35235 -1.57246 0
M  V30 23131 C 2208.45 0.0615238 -1.87999 0
M  V30 23132 O 2207.81 1.0367 -1.48736 0
M  V30 23133 C 2207.86 -2.19172 -2.86349 0
M  V30 23134 O 2206.96 -1.59184 -3.80439 0
M  V30 23135 H 2206.3 -0.46237 -0.47656 0
M  V30 23136 H 2208.83 -1.80476 -0.963821 0
M  V30 23137 H 2208.84 -2.32151 -3.35514 0
M  V30 23138 H 2207.52 -3.21947 -2.63293 0
M  V30 23139 H 2206.1 -1.55209 -3.39064 0
M  V30 23140 N 2208.28 1.00373 -1.21503 0
M  V30 23141 C 2209.23 2.09175 -0.975424 0
M  V30 23142 C 2210.2 1.65805 0.0990324 0
M  V30 23143 O 2211.38 1.90739 -0.0483483 0
M  V30 23144 C 2208.52 3.40728 -0.547567 0
M  V30 23145 C 2207.64 3.97503 -1.6916 0
M  V30 23146 C 2206.77 5.1717 -1.21279 0
M  V30 23147 C 2205.81 5.66057 -2.32907 0
M  V30 23148 N 2204.95 6.76973 -1.8615 0
M  V30 23149 H 2209.79 2.29005 -1.90684 0
M  V30 23150 H 2207.32 1.12286 -0.950277 0
M  V30 23151 H 2209.28 4.16254 -0.280741 0
M  V30 23152 H 2207.91 3.20931 0.346848 0
M  V30 23153 H 2206.96 3.18951 -2.07303 0
M  V30 23154 H 2208.28 4.29776 -2.53167 0
M  V30 23155 H 2207.43 5.99947 -0.902697 0
M  V30 23156 H 2206.17 4.86494 -0.342777 0
M  V30 23157 H 2205.17 4.81876 -2.64718 0
M  V30 23158 H 2206.4 5.98763 -3.20406 0
M  V30 23159 H 2204.35 6.48101 -1.01495 0
M  V30 23160 H 2204.26 7.08507 -2.6373 0
M  V30 23161 H 2205.53 7.63282 -1.58179 0
M  V30 23162 N 2209.76 1.02298 1.19887 0
M  V30 23163 C 2210.99 0.735433 1.93388 0
M  V30 23164 C 2211.4 -0.704856 1.75149 0
M  V30 23165 O 2210.76 -1.47873 1.06957 0
M  V30 23166 C 2210.81 1.06968 3.45312 0
M  V30 23167 O 2210.53 2.45341 3.62959 0
M  V30 23168 C 2212.03 0.804098 4.35946 0
M  V30 23169 H 2209.25 0.269557 0.614475 0
M  V30 23170 H 2211.8 1.36588 1.52197 0
M  V30 23171 H 2209.95 0.484523 3.84358 0
M  V30 23172 H 2210.37 2.57603 4.56882 0
M  V30 23173 H 2211.84 1.08799 5.41172 0
M  V30 23174 H 2212.32 -0.261613 4.3842 0
M  V30 23175 H 2212.92 1.37171 4.02572 0
M  V30 23176 N 2211.24 -1.35782 0.800057 0
M  V30 23177 C 2212.65 -1.81461 0.439174 0
M  V30 23178 C 2213 -1.66487 -1.0381 0
M  V30 23179 O 2212.12 -1.1918 -1.80624 0
M  V30 23180 C 2212.72 -3.29452 0.790372 0
M  V30 23181 C 2211.28 -3.73299 0.482177 0
M  V30 23182 C 2210.43 -2.57882 1.01943 0
M  V30 23183 H 2213.38 -1.23853 0.992276 0
M  V30 23184 H 2213.4 -3.80404 0.0854346 0
M  V30 23185 H 2212.91 -3.40319 1.8656 0
M  V30 23186 H 2211.01 -3.67986 -0.584587 0
M  V30 23187 H 2211.12 -4.68328 1.01023 0
M  V30 23188 H 2209.49 -2.50834 0.442087 0
M  V30 23189 H 2210.27 -2.71529 2.10064 0
M  V30 23190 N 2212.72 -0.552988 -1.4758 0
M  V30 23191 C 2213.63 0.200312 -2.33743 0
M  V30 23192 C 2214.64 0.916125 -1.4793 0
M  V30 23193 O 2215.82 0.885961 -1.80867 0
M  V30 23194 C 2212.88 1.21968 -3.24538 0
M  V30 23195 C 2211.94 0.511745 -4.26239 0
M  V30 23196 C 2211.18 1.48254 -5.12695 0
M  V30 23197 O 2211.4 2.71705 -5.0153 0
M  V30 23198 O 2210.33 1.00934 -5.93377 0
M  V30 23199 H 2214.16 -0.506356 -2.99449 0
M  V30 23200 H 2211.74 -0.313647 -1.46071 0
M  V30 23201 H 2213.63 1.8082 -3.80634 0
M  V30 23202 H 2212.3 1.90834 -2.61465 0
M  V30 23203 H 2211.21 -0.117865 -3.73914 0
M  V30 23204 H 2212.54 -0.135394 -4.92014 0
M  V30 23205 N 2214.19 1.54923 -0.28923 0
M  V30 23206 C 2215.1 2.26749 0.601824 0
M  V30 23207 C 2216.12 1.29842 1.15832 0
M  V30 23208 O 2217.3 1.62804 1.18561 0
M  V30 23209 C 2214.36 2.98532 1.76294 0
M  V30 23210 C 2213.42 4.1095 1.2417 0
M  V30 23211 C 2212.65 4.793 2.34748 0
M  V30 23212 O 2212.88 4.46939 3.54404 0
M  V30 23213 O 2211.81 5.66954 2.02105 0
M  V30 23214 H 2215.64 3.03694 0.0195345 0
M  V30 23215 H 2213.22 1.49295 -0.0561131 0
M  V30 23216 H 2215.1 3.43596 2.43967 0
M  V30 23217 H 2213.78 2.24493 2.33205 0
M  V30 23218 H 2212.69 3.70312 0.531039 0
M  V30 23219 H 2214.02 4.86932 0.718166 0
M  V30 23220 N 2215.67 0.0167433 1.57591 0
M  V30 23221 C 2216.62 -0.9781 2.05954 0
M  V30 23222 C 2217.61 -1.29305 0.957555 0
M  V30 23223 O 2218.8 -1.28123 1.22121 0
M  V30 23224 C 2215.93 -2.26464 2.5801 0
M  V30 23225 C 2215.01 -1.9786 3.75116 0
M  V30 23226 N 2215.4 -1.39477 4.86189 0
M  V30 23227 C 2213.7 -2.27917 3.83367 0
M  V30 23228 C 2214.4 -1.27725 5.67504 0
M  V30 23229 N 2213.38 -1.76857 5.14026 0
M  V30 23230 H 2217.18 -0.521471 2.89237 0
M  V30 23231 H 2214.69 -0.188568 1.61302 0
M  V30 23232 H 2216.69 -2.98594 2.90942 0
M  V30 23233 H 2215.35 -2.72764 1.76153 0
M  V30 23234 H 2216.36 -1.07139 5.06697 0
M  V30 23235 H 2213.04 -2.76976 3.12394 0
M  V30 23236 H 2214.43 -0.826861 6.66793 0
M  V30 23237 N 2217.15 -1.55503 -0.256249 0
M  V30 23238 C 2218.4 -1.76897 -0.985588 0
M  V30 23239 C 2218.73 -0.579387 -1.8567 0
M  V30 23240 O 2217.98 0.437617 -1.90744 0
M  V30 23241 C 2218.28 -3.03694 -1.88427 0
M  V30 23242 C 2217.95 -4.35475 -1.16928 0
M  V30 23243 C 2216.61 -4.71288 -0.971647 0
M  V30 23244 C 2218.96 -5.16981 -0.661798 0
M  V30 23245 C 2216.29 -5.8615 -0.254076 0
M  V30 23246 C 2218.64 -6.32586 0.0422602 0
M  V30 23247 C 2217.3 -6.67026 0.251457 0
M  V30 23248 H 2216.57 -0.647311 -0.360652 0
M  V30 23249 H 2219.22 -1.89775 -0.256449 0
M  V30 23250 H 2217.53 -2.85788 -2.68016 0
M  V30 23251 H 2219.22 -3.17445 -2.4501 0
M  V30 23252 H 2215.81 -4.07336 -1.33325 0
M  V30 23253 H 2220 -4.89776 -0.802059 0
M  V30 23254 H 2215.25 -6.11346 -0.0814334 0
M  V30 23255 H 2219.43 -6.94988 0.443171 0
M  V30 23256 H 2217.05 -7.55878 0.809447 0
M  V30 23257 N 2218.63 0.521507 -1.48721 0
M  V30 23258 C 2219.88 1.27339 -1.56422 0
M  V30 23259 C 2220.19 1.94036 -0.246839 0
M  V30 23260 O 2221.4 2.70746 -0.20217 0
M  V30 23261 C 2219.85 2.311 -2.759 0
M  V30 23262 C 2219.46 1.70433 -4.14314 0
M  V30 23263 C 2221.2 3.07244 -2.92919 0
M  V30 23264 C 2219.11 2.72185 -5.25042 0
M  V30 23265 H 2218.04 0.478938 -0.582352 0
M  V30 23266 H 2220.69 0.549748 -1.75071 0
M  V30 23267 H 2219.07 3.06536 -2.50702 0
M  V30 23268 H 2220.25 1.01128 -4.49566 0
M  V30 23269 H 2218.56 1.06752 -4.02484 0
M  V30 23270 H 2221.16 3.83296 -3.72812 0
M  V30 23271 H 2221.5 3.63621 -2.02695 0
M  V30 23272 H 2222.04 2.38922 -3.18058 0
M  V30 23273 H 2218.78 2.20616 -6.17259 0
M  V30 23274 H 2218.3 3.39792 -4.94269 0
M  V30 23275 H 2219.97 3.35009 -5.53514 0
M  V30 23276 N 2220.11 1.37452 0.771027 0
M  V30 23277 C 2221.02 1.35467 1.91535 0
M  V30 23278 C 2222.03 0.254153 1.72134 0
M  V30 23279 O 2223.21 0.48966 1.95357 0
M  V30 23280 C 2220.27 1.16139 3.26669 0
M  V30 23281 C 2219.33 2.35837 3.58719 0
M  V30 23282 C 2218.57 2.17422 4.87405 0
M  V30 23283 O 2218.79 1.15885 5.58504 0
M  V30 23284 O 2217.72 3.05624 5.18534 0
M  V30 23285 H 2221.55 2.3185 1.96161 0
M  V30 23286 H 2219.14 1.18189 0.913879 0
M  V30 23287 H 2221.02 1.07352 4.07497 0
M  V30 23288 H 2219.69 0.228308 3.22894 0
M  V30 23289 H 2218.6 2.50197 2.78123 0
M  V30 23290 H 2219.93 3.27716 3.67237 0
M  V30 23291 N 2221.58 -0.997276 1.22033 0
M  V30 23292 C 2222.81 -1.77178 1.06844 0
M  V30 23293 C 2223.23 -1.8491 -0.381292 0
M  V30 23294 O 2222.58 -1.31607 -1.26435 0
M  V30 23295 C 2222.64 -3.20708 1.6682 0
M  V30 23296 O 2222.36 -3.13403 3.06121 0
M  V30 23297 C 2223.86 -4.14625 1.56846 0
M  V30 23298 H 2221.08 -0.556572 0.374792 0
M  V30 23299 H 2223.62 -1.25407 1.61535 0
M  V30 23300 H 2221.78 -3.69561 1.16203 0
M  V30 23301 H 2222.19 -4.03634 3.34933 0
M  V30 23302 H 2223.66 -5.13103 2.03541 0
M  V30 23303 H 2224.14 -4.3606 0.524231 0
M  V30 23304 H 2224.75 -3.71666 2.06747 0
M  V30 23305 N 2223.06 -1.02932 -1.19343 0
M  V30 23306 C 2224.31 -0.721289 -1.88362 0
M  V30 23307 C 2224.62 0.753223 -1.80516 0
M  V30 23308 O 2225.83 1.17432 -2.4479 0
M  V30 23309 C 2224.29 -1.23984 -3.3787 0
M  V30 23310 C 2223.89 -2.74217 -3.54273 0
M  V30 23311 C 2225.64 -1.00782 -4.12363 0
M  V30 23312 C 2223.55 -3.19488 -4.97676 0
M  V30 23313 H 2222.48 -0.26611 -0.70548 0
M  V30 23314 H 2225.13 -1.24368 -1.34926 0
M  V30 23315 H 2223.51 -0.645369 -3.90706 0
M  V30 23316 H 2224.68 -3.39323 -3.11763 0
M  V30 23317 H 2223 -2.95704 -2.93169 0
M  V30 23318 H 2225.59 -1.32133 -5.18117 0
M  V30 23319 H 2225.94 0.0553576 -4.16263 0
M  V30 23320 H 2226.47 -1.56632 -3.65666 0
M  V30 23321 H 2223.21 -4.25137 -4.98938 0
M  V30 23322 H 2222.73 -2.5911 -5.40946 0
M  V30 23323 H 2224.41 -3.12855 -5.66331 0
M  V30 23324 N 2224.54 1.35356 -0.807246 0
M  V30 23325 C 2225.77 2.03519 -0.399345 0
M  V30 23326 C 2226.19 1.60434 0.981958 0
M  V30 23327 O 2225.55 0.781328 1.636 0
M  V30 23328 C 2225.6 3.57233 -0.491615 0
M  V30 23329 O 2224.7 4.09422 0.494682 0
M  V30 23330 H 2224.04 0.642736 -0.166693 0
M  V30 23331 H 2226.57 1.72939 -1.09331 0
M  V30 23332 H 2226.58 4.06394 -0.361659 0
M  V30 23333 H 2225.26 3.87941 -1.49914 0
M  V30 23334 H 2223.83 3.71482 0.324911 0
M  V30 23335 N 2226.02 0.560807 1.47284 0
M  V30 23336 C 2226.95 -0.173064 2.32858 0
M  V30 23337 C 2227.93 -0.905255 1.44011 0
M  V30 23338 O 2229.11 -0.885016 1.72862 0
M  V30 23339 C 2226.24 -1.20127 3.25863 0
M  V30 23340 C 2225.2 -0.585313 4.23979 0
M  V30 23341 C 2224.52 -1.71841 5.06335 0
M  V30 23342 C 2225.82 0.46327 5.20241 0
M  V30 23343 H 2227.52 0.541359 2.94465 0
M  V30 23344 H 2225.06 0.261789 1.416 0
M  V30 23345 H 2227.02 -1.72286 3.84572 0
M  V30 23346 H 2225.74 -1.94568 2.62318 0
M  V30 23347 H 2224.4 -0.0849896 3.66501 0
M  V30 23348 H 2224.05 -2.45195 4.3919 0
M  V30 23349 H 2223.75 -1.31203 5.72765 0
M  V30 23350 H 2225.27 -2.24319 5.67902 0
M  V30 23351 H 2226.69 0.0276027 5.73293 0
M  V30 23352 H 2225.08 0.788731 5.94894 0
M  V30 23353 H 2226.15 1.35782 4.65501 0
M  V30 23354 N 2227.5 -1.54768 0.297442 0
M  V30 23355 C 2228.46 -2.22067 -0.567336 0
M  V30 23356 C 2229.46 -1.20558 -1.06407 0
M  V30 23357 O 2230.65 -1.45316 -0.960666 0
M  V30 23358 C 2227.78 -2.90424 -1.78512 0
M  V30 23359 H 2228.97 -2.99893 0.0206061 0
M  V30 23360 H 2226.53 -1.56226 0.0482438 0
M  V30 23361 H 2227.26 -2.16668 -2.41299 0
M  V30 23362 H 2227.05 -3.64834 -1.43663 0
M  V30 23363 H 2228.54 -3.41775 -2.39958 0
M  V30 23364 N 2228.97 -0.0251005 -1.5758 0
M  V30 23365 C 2230.22 0.653118 -1.91256 0
M  V30 23366 C 2230.54 1.72899 -0.901721 0
M  V30 23367 O 2229.81 1.95816 0.0573441 0
M  V30 23368 H 2228.39 0.24423 -0.705947 0
M  V30 23369 H 2231.06 -0.0719551 -1.94767 0
M  V30 23370 H 2230.15 1.10842 -2.91754 0
M  V30 23371 N 2230.45 1.55637 0.247999 0
M  V30 23372 C 2231.68 1.8181 0.997996 0
M  V30 23373 C 2232.1 0.60201 1.78206 0
M  V30 23374 O 2231.46 -0.44893 1.75654 0
M  V30 23375 C 2231.51 3.05708 1.91245 0
M  V30 23376 O 2230.61 2.82547 3.00401 0
M  V30 23377 H 2229.95 0.600184 0.284035 0
M  V30 23378 H 2232.48 2.0282 0.269321 0
M  V30 23379 H 2232.49 3.35112 2.32731 0
M  V30 23380 H 2231.17 3.93859 1.33595 0
M  V30 23381 H 2229.75 2.64307 2.63051 0
M  V30 23382 N 2231.93 -0.513613 1.48996 0
M  V30 23383 C 2233.16 -1.29097 1.61299 0
M  V30 23384 C 2233.57 -1.87136 0.278689 0
M  V30 23385 O 2232.91 -1.67946 -0.744295 0
M  V30 23386 C 2232.97 -2.46874 2.6133 0
M  V30 23387 C 2232.64 -2.098 4.05996 0
M  V30 23388 C 2233.64 -1.6451 4.93186 0
M  V30 23389 C 2231.32 -2.19821 4.51646 0
M  V30 23390 C 2233.31 -1.29729 6.24059 0
M  V30 23391 C 2231 -1.84651 5.82535 0
M  V30 23392 C 2232 -1.39678 6.68565 0
M  V30 23393 O 2231.69 -1.04978 7.97016 0
M  V30 23394 H 2231.42 -0.39824 0.546243 0
M  V30 23395 H 2233.97 -0.624556 1.95674 0
M  V30 23396 H 2232.2 -3.16551 2.2211 0
M  V30 23397 H 2233.89 -3.08918 2.63295 0
M  V30 23398 H 2234.66 -1.56225 4.5915 0
M  V30 23399 H 2230.54 -2.53779 3.8486 0
M  V30 23400 H 2234.08 -0.945537 6.91162 0
M  V30 23401 H 2229.98 -1.92583 6.16102 0
M  V30 23402 H 2230.75 -1.18235 8.09915 0
M  V30 23403 N 2233.41 -1.37859 -0.763727 0
M  V30 23404 C 2234.36 -1.34271 -1.87723 0
M  V30 23405 C 2235.33 -0.206908 -1.64806 0
M  V30 23406 O 2236.51 -0.397541 -1.86613 0
M  V30 23407 C 2233.65 -1.16352 -3.24894 0
M  V30 23408 C 2232.76 -2.39231 -3.59711 0
M  V30 23409 C 2231.9 -2.14122 -4.86133 0
M  V30 23410 C 2230.94 -3.32826 -5.13705 0
M  V30 23411 N 2230.08 -3.07217 -6.31318 0
M  V30 23412 H 2234.92 -2.2947 -1.90125 0
M  V30 23413 H 2232.45 -1.14019 -0.929412 0
M  V30 23414 H 2234.41 -1.03982 -4.04034 0
M  V30 23415 H 2233.04 -0.247965 -3.21846 0
M  V30 23416 H 2232.09 -2.62312 -2.75494 0
M  V30 23417 H 2233.4 -3.27734 -3.76021 0
M  V30 23418 H 2232.56 -1.9883 -5.73194 0
M  V30 23419 H 2231.3 -1.22969 -4.71943 0
M  V30 23420 H 2230.3 -3.48649 -4.25116 0
M  V30 23421 H 2231.53 -4.24841 -5.29799 0
M  V30 23422 H 2229.47 -2.18701 -6.18471 0
M  V30 23423 H 2229.39 -3.89265 -6.48081 0
M  V30 23424 H 2230.66 -2.95558 -7.21294 0
M  V30 23425 N 2234.89 0.990791 -1.22561 0
M  V30 23426 C 2236.16 1.70426 -0.959905 0
M  V30 23427 C 2236.54 2.04482 0.524419 0
M  V30 23428 O 2235.89 1.7298 1.49299 0
M  V30 23429 C 2236.1 2.9533 -1.8596 0
M  V30 23430 C 2237.45 3.68064 -2.11693 0
M  V30 23431 O 2238.47 3.05342 -1.83425 0
M  V30 23432 O 2237.33 4.80916 -2.5958 0
M  V30 23433 H 2234.43 0.743967 -0.361167 0
M  V30 23434 H 2236.97 1.04695 -1.33556 0
M  V30 23435 H 2235.75 2.66682 -2.86351 0
M  V30 23436 H 2235.37 3.68801 -1.48566 0
M  V30 23437 N 2236.37 1.03564 1.18795 0
M  V30 23438 C 2237.61 0.746901 1.8919 0
M  V30 23439 C 2237.97 -0.717214 1.78532 0
M  V30 23440 O 2237.26 -1.5162 1.1714 0
M  V30 23441 C 2237.45 1.14123 3.3869 0
M  V30 23442 C 2237.28 2.64213 3.63898 0
M  V30 23443 C 2236.05 3.31286 3.81547 0
M  V30 23444 C 2238.25 3.62429 3.64897 0
M  V30 23445 N 2236.23 4.70409 3.94447 0
M  V30 23446 C 2237.6 4.87202 3.8345 0
M  V30 23447 C 2239.66 3.56131 3.47958 0
M  V30 23448 C 2238.36 6.06435 3.86819 0
M  V30 23449 C 2240.39 4.74786 3.52608 0
M  V30 23450 C 2239.75 5.98376 3.71652 0
M  V30 23451 H 2235.85 0.325286 0.711135 0
M  V30 23452 H 2238.43 1.32431 1.42724 0
M  V30 23453 H 2236.6 0.591957 3.83863 0
M  V30 23454 H 2238.34 0.804036 3.96633 0
M  V30 23455 H 2235.09 2.81693 3.80718 0
M  V30 23456 H 2235.51 5.42699 4.04731 0
M  V30 23457 H 2240.16 2.61559 3.32185 0
M  V30 23458 H 2237.87 7.01369 4.01382 0
M  V30 23459 H 2241.46 4.71549 3.40783 0
M  V30 23460 H 2240.34 6.88654 3.75133 0
M  V30 23461 N 2237.84 -1.34926 0.814413 0
M  V30 23462 C 2239.07 -2.03304 0.410133 0
M  V30 23463 C 2239.49 -1.60953 -0.973436 0
M  V30 23464 O 2238.85 -0.789993 -1.63183 0
M  V30 23465 C 2238.9 -3.56967 0.510553 0
M  V30 23466 O 2238 -4.09679 -0.472963 0
M  V30 23467 H 2237.34 -0.641843 0.170099 0
M  V30 23468 H 2239.87 -1.72356 1.10247 0
M  V30 23469 H 2239.88 -4.06196 0.383206 0
M  V30 23470 H 2238.56 -3.87141 1.5197 0
M  V30 23471 H 2237.14 -3.71649 -0.305206 0
M  V30 23472 N 2239.32 -0.56861 -1.46985 0
M  V30 23473 C 2240.55 -0.0539536 -2.0653 0
M  V30 23474 C 2240.96 1.25023 -1.42007 0
M  V30 23475 O 2240.3 1.76346 -0.514572 0
M  V30 23476 C 2240.36 0.200791 -3.58939 0
M  V30 23477 C 2240.03 -1.01567 -4.45571 0
M  V30 23478 C 2241.03 -1.92416 -4.82983 0
M  V30 23479 C 2238.71 -1.23355 -4.86918 0
M  V30 23480 C 2240.7 -3.03412 -5.60553 0
M  V30 23481 C 2238.39 -2.34659 -5.6425 0
M  V30 23482 C 2239.39 -3.24518 -6.0098 0
M  V30 23483 O 2239.08 -4.3389 -6.76753 0
M  V30 23484 H 2238.81 -0.0480352 -0.674291 0
M  V30 23485 H 2241.36 -0.784929 -1.8981 0
M  V30 23486 H 2239.59 0.986213 -3.73913 0
M  V30 23487 H 2241.28 0.662223 -4.00461 0
M  V30 23488 H 2242.05 -1.76793 -4.5163 0
M  V30 23489 H 2237.93 -0.543259 -4.57788 0
M  V30 23490 H 2241.47 -3.73576 -5.89141 0
M  V30 23491 H 2237.37 -2.5025 -5.95017 0
M  V30 23492 H 2238.14 -4.32081 -6.95161 0
M  V30 23493 N 2240.8 1.54608 -0.305646 0
M  V30 23494 C 2242.02 2.05107 0.307526 0
M  V30 23495 C 2242.45 1.18125 1.46383 0
M  V30 23496 O 2241.81 0.186356 1.8034 0
M  V30 23497 C 2241.86 3.52989 0.736978 0
M  V30 23498 O 2240.96 3.69013 1.84128 0
M  V30 23499 H 2240.3 0.661382 0.0589027 0
M  V30 23500 H 2242.83 1.99616 -0.448842 0
M  V30 23501 H 2242.84 3.94927 1.02452 0
M  V30 23502 H 2241.52 4.15758 -0.108847 0
M  V30 23503 H 2240.09 3.3898 1.55392 0
M  V30 23504 N 2242.28 0.033457 1.57564 0
M  V30 23505 C 2243.53 -0.642966 1.91599 0
M  V30 23506 C 2243.85 -1.72418 0.910877 0
M  V30 23507 O 2243.12 -1.95844 -0.0469587 0
M  V30 23508 H 2241.7 -0.240483 0.707232 0
M  V30 23509 H 2244.36 0.0822831 1.94726 0
M  V30 23510 H 2243.45 -1.09293 2.92338 0
M  V30 23511 N 2243.76 -1.55766 -0.239741 0
M  V30 23512 C 2244.69 -1.87375 -1.31998 0
M  V30 23513 C 2245.7 -0.760547 -1.43943 0
M  V30 23514 O 2246.89 -1.03872 -1.45165 0
M  V30 23515 C 2243.99 -2.0512 -2.69776 0
M  V30 23516 C 2243.16 -3.36027 -2.80008 0
M  V30 23517 C 2242.22 -3.43427 -3.98678 0
M  V30 23518 O 2241.25 -4.16589 -3.87869 0
M  V30 23519 N 2242.45 -2.73241 -5.12171 0
M  V30 23520 H 2245.21 -2.80624 -1.05216 0
M  V30 23521 H 2242.78 -1.5609 -0.42983 0
M  V30 23522 H 2244.77 -2.07405 -3.47513 0
M  V30 23523 H 2243.34 -1.18582 -2.89235 0
M  V30 23524 H 2242.56 -3.45997 -1.8889 0
M  V30 23525 H 2243.85 -4.22297 -2.838 0
M  V30 23526 H 2243.24 -2.13546 -5.23846 0
M  V30 23527 H 2241.8 -2.8121 -5.88017 0
M  V30 23528 N 2245.23 0.505704 -1.49266 0
M  V30 23529 C 2246.46 1.28899 -1.6248 0
M  V30 23530 C 2246.88 1.85782 -0.294365 0
M  V30 23531 O 2246.24 1.65627 0.737383 0
M  V30 23532 C 2246.29 2.39843 -2.69273 0
M  V30 23533 O 2245.39 3.43563 -2.28119 0
M  V30 23534 H 2244.73 0.380741 -0.543996 0
M  V30 23535 H 2247.26 0.605918 -1.95422 0
M  V30 23536 H 2247.27 2.85676 -2.91296 0
M  V30 23537 H 2245.95 1.97806 -3.65849 0
M  V30 23538 H 2244.53 3.03682 -2.16407 0
M  V30 23539 N 2246.71 1.38262 0.756405 0
M  V30 23540 C 2247.94 1.37542 1.54563 0
M  V30 23541 C 2248.36 -0.0354999 1.88767 0
M  V30 23542 O 2247.71 -1.00137 1.52574 0
M  V30 23543 C 2247.76 2.22838 2.8465 0
M  V30 23544 O 2247.48 3.58434 2.51906 0
M  V30 23545 C 2248.99 2.30268 3.78803 0
M  V30 23546 H 2246.21 0.470561 0.478344 0
M  V30 23547 H 2248.75 1.81804 0.936349 0
M  V30 23548 H 2246.9 1.82046 3.41962 0
M  V30 23549 H 2247.32 4.03314 3.35318 0
M  V30 23550 H 2248.79 2.94241 4.6704 0
M  V30 23551 H 2249.27 1.31552 4.19035 0
M  V30 23552 H 2249.88 2.71439 3.27416 0
M  V30 23553 N 2248.19 -0.984277 1.23084 0
M  V30 23554 C 2249.12 -2.0783 0.966397 0
M  V30 23555 C 2250.14 -1.62696 -0.0581849 0
M  V30 23556 O 2251.32 -1.77622 0.176875 0
M  V30 23557 C 2248.42 -3.36117 0.433456 0
M  V30 23558 C 2247.6 -4.1024 1.51729 0
M  V30 23559 C 2246.66 -5.16805 0.989912 0
M  V30 23560 O 2245.68 -5.43903 1.67803 0
M  V30 23561 N 2246.88 -5.80207 -0.184265 0
M  V30 23562 H 2249.65 -2.31094 1.90829 0
M  V30 23563 H 2247.21 -1.15068 1.1389 0
M  V30 23564 H 2249.2 -4.04647 0.0657701 0
M  V30 23565 H 2247.77 -3.0985 -0.413752 0
M  V30 23566 H 2246.99 -3.36219 2.05792 0
M  V30 23567 H 2248.28 -4.5653 2.24627 0
M  V30 23568 H 2247.68 -5.60572 -0.759963 0
M  V30 23569 H 2246.24 -6.49931 -0.493252 0
M  V30 23570 N 2249.67 -1.04192 -1.18244 0
M  V30 23571 C 2250.6 -0.654953 -2.24126 0
M  V30 23572 C 2251.58 0.342422 -1.66618 0
M  V30 23573 O 2252.76 0.222243 -1.92924 0
M  V30 23574 C 2249.89 -0.0184367 -3.47295 0
M  V30 23575 C 2248.85 -0.939488 -4.17562 0
M  V30 23576 C 2248.17 -0.16738 -5.34438 0
M  V30 23577 C 2249.47 -2.25916 -4.70913 0
M  V30 23578 H 2251.17 -1.54012 -2.5675 0
M  V30 23579 H 2248.71 -0.741971 -1.23413 0
M  V30 23580 H 2250.67 0.264009 -4.20572 0
M  V30 23581 H 2249.39 0.901609 -3.13909 0
M  V30 23582 H 2248.05 -1.20634 -3.46184 0
M  V30 23583 H 2247.7 0.755112 -4.973 0
M  V30 23584 H 2247.4 -0.781003 -5.82387 0
M  V30 23585 H 2248.92 0.108018 -6.10504 0
M  V30 23586 H 2250.34 -2.03733 -5.35879 0
M  V30 23587 H 2248.73 -2.82586 -5.29401 0
M  V30 23588 H 2249.8 -2.90477 -3.88267 0
M  V30 23589 N 2251.15 1.34492 -0.821557 0
M  V30 23590 C 2252.39 1.97935 -0.408173 0
M  V30 23591 C 2252.72 1.65459 1.0319 0
M  V30 23592 O 2251.99 0.944625 1.71621 0
M  V30 23593 H 2250.57 0.732204 -0.147941 0
M  V30 23594 H 2253.23 1.64153 -1.0507 0
M  V30 23595 H 2252.32 3.07634 -0.526065 0
M  V30 23596 N 2252.62 0.576397 1.46681 0
M  V30 23597 C 2253.87 0.057318 2.01619 0
M  V30 23598 C 2254.19 -1.30815 1.45419 0
M  V30 23599 O 2255.39 -1.91822 1.92137 0
M  V30 23600 C 2253.85 0.0519003 3.59863 0
M  V30 23601 C 2253.46 1.4153 4.25057 0
M  V30 23602 C 2255.2 -0.413565 4.22481 0
M  V30 23603 C 2253.11 1.36795 5.75362 0
M  V30 23604 H 2252.04 0.017658 0.753793 0
M  V30 23605 H 2254.69 0.727106 1.6848 0
M  V30 23606 H 2253.07 -0.683925 3.90049 0
M  V30 23607 H 2254.24 2.17036 4.06488 0
M  V30 23608 H 2252.56 1.82027 3.74507 0
M  V30 23609 H 2255.16 -0.467685 5.32651 0
M  V30 23610 H 2255.5 -1.42975 3.90978 0
M  V30 23611 H 2256.03 0.267999 3.96896 0
M  V30 23612 H 2252.77 2.36074 6.11514 0
M  V30 23613 H 2252.29 0.655 5.96213 0
M  V30 23614 H 2253.97 1.07816 6.37953 0
M  V30 23615 N 2254.1 -1.54444 0.313841 0
M  V30 23616 C 2255.01 -2.27678 -0.565674 0
M  V30 23617 C 2256.03 -1.31668 -1.13752 0
M  V30 23618 O 2257.2 -1.6467 -1.15956 0
M  V30 23619 C 2254.27 -3.01299 -1.71522 0
M  V30 23620 C 2253.33 -4.12874 -1.17617 0
M  V30 23621 C 2252.56 -4.82974 -2.27093 0
M  V30 23622 O 2252.79 -4.5252 -3.47248 0
M  V30 23623 O 2251.72 -5.70098 -1.9306 0
M  V30 23624 H 2255.55 -3.03686 0.028783 0
M  V30 23625 H 2253.13 -1.49186 0.0798574 0
M  V30 23626 H 2255.01 -3.47434 -2.3847 0
M  V30 23627 H 2253.69 -2.28174 -2.29604 0
M  V30 23628 H 2252.6 -3.7111 -0.472059 0
M  V30 23629 H 2253.93 -4.88013 -0.640609 0
M  V30 23630 N 2255.58 -0.0418125 -1.57545 0
M  V30 23631 C 2256.83 0.634048 -1.92318 0
M  V30 23632 C 2257.16 1.714 -0.919364 0
M  V30 23633 O 2256.41 1.95576 0.0697909 0
M  V30 23634 C 2256.71 1.27729 -3.33796 0
M  V30 23635 C 2256.38 0.326464 -4.49717 0
M  V30 23636 C 2255.04 0.0647968 -4.81156 0
M  V30 23637 C 2257.39 -0.325714 -5.20181 0
M  V30 23638 C 2254.72 -0.856641 -5.80412 0
M  V30 23639 C 2257.07 -1.23529 -6.20422 0
M  V30 23640 C 2255.73 -1.50572 -6.50296 0
M  V30 23641 H 2255 0.232015 -0.70374 0
M  V30 23642 H 2257.65 -0.106293 -1.91205 0
M  V30 23643 H 2255.96 2.09268 -3.31231 0
M  V30 23644 H 2257.65 1.80701 -3.57978 0
M  V30 23645 H 2254.24 0.54059 -4.25177 0
M  V30 23646 H 2258.43 -0.136634 -4.96112 0
M  V30 23647 H 2253.68 -1.07373 -6.01898 0
M  V30 23648 H 2257.86 -1.74676 -6.74138 0
M  V30 23649 H 2255.48 -2.22136 -7.27021 0
M  V30 23650 N 2257.06 1.55891 0.231477 0
M  V30 23651 C 2257.99 1.94619 1.29018 0
M  V30 23652 C 2258.97 0.813093 1.49408 0
M  V30 23653 O 2260.15 1.07462 1.61758 0
M  V30 23654 C 2257.28 2.25429 2.64195 0
M  V30 23655 C 2256.24 3.41135 2.58478 0
M  V30 23656 C 2255.56 3.57525 3.97593 0
M  V30 23657 C 2256.86 4.76392 2.14122 0
M  V30 23658 H 2258.56 2.83302 0.968513 0
M  V30 23659 H 2256.1 1.36304 0.464455 0
M  V30 23660 H 2258.06 2.51112 3.38409 0
M  V30 23661 H 2256.78 1.33588 2.9803 0
M  V30 23662 H 2255.44 3.15485 1.86722 0
M  V30 23663 H 2255.09 2.63077 4.28718 0
M  V30 23664 H 2254.79 4.35344 3.94651 0
M  V30 23665 H 2256.31 3.85547 4.73483 0
M  V30 23666 H 2257.73 5.01346 2.78074 0
M  V30 23667 H 2256.12 5.57423 2.2226 0
M  V30 23668 H 2257.19 4.72416 1.09323 0
M  V30 23669 N 2258.54 -0.497781 1.49532 0
M  V30 23670 C 2259.48 -1.59896 1.66439 0
M  V30 23671 C 2260.45 -1.58211 0.505821 0
M  V30 23672 O 2261.64 -1.76149 0.733233 0
M  V30 23673 C 2258.78 -2.98026 1.73996 0
M  V30 23674 C 2257.89 -3.09703 3.01178 0
M  V30 23675 C 2257.03 -4.38585 2.99694 0
M  V30 23676 C 2256.07 -4.43907 4.21442 0
M  V30 23677 N 2255.2 -5.64222 4.1785 0
M  V30 23678 H 2260.04 -1.44788 2.60462 0
M  V30 23679 H 2257.58 -0.7044 1.29138 0
M  V30 23680 H 2259.54 -3.78092 1.76358 0
M  V30 23681 H 2258.17 -3.11831 0.834356 0
M  V30 23682 H 2257.22 -2.2268 3.08412 0
M  V30 23683 H 2258.53 -3.09495 3.9117 0
M  V30 23684 H 2257.69 -5.26975 3.00637 0
M  V30 23685 H 2256.42 -4.41363 2.07485 0
M  V30 23686 H 2255.43 -3.53919 4.20739 0
M  V30 23687 H 2256.65 -4.42842 5.14847 0
M  V30 23688 H 2254.6 -5.67836 3.28479 0
M  V30 23689 H 2254.52 -5.65643 5.01581 0
M  V30 23690 H 2255.79 -6.5481 4.229 0
M  V30 23691 N 2260.01 -1.38661 -0.749062 0
M  V30 23692 C 2261.43 -1.19957 -1.05273 0
M  V30 23693 C 2261.63 -0.0513754 -2.01434 0
M  V30 23694 O 2260.69 0.601427 -2.45233 0
M  V30 23695 C 2262 -2.52786 -1.62848 0
M  V30 23696 C 2263.55 -2.59509 -1.74998 0
M  V30 23697 C 2264.02 -3.92525 -2.35984 0
M  V30 23698 N 2265.51 -3.94089 -2.43409 0
M  V30 23699 C 2266.25 -4.93775 -2.91502 0
M  V30 23700 N 2265.74 -6.03859 -3.39597 0
M  V30 23701 N 2267.54 -4.81163 -2.90584 0
M  V30 23702 H 2259.69 -2.1211 -0.111028 0
M  V30 23703 H 2261.95 -0.941374 -0.111884 0
M  V30 23704 H 2261.66 -3.37285 -0.996581 0
M  V30 23705 H 2261.53 -2.71505 -2.61849 0
M  V30 23706 H 2263.92 -1.75403 -2.37314 0
M  V30 23707 H 2264 -2.44653 -0.746887 0
M  V30 23708 H 2263.64 -4.77056 -1.743 0
M  V30 23709 H 2263.57 -4.04694 -3.36943 0
M  V30 23710 H 2266.06 -3.1458 -2.09399 0
M  V30 23711 H 2266.38 -6.75849 -3.74763 0
M  V30 23712 H 2264.72 -6.07472 -3.37642 0
M  V30 23713 H 2267.91 -3.94271 -2.52325 0
M  V30 23714 H 2268.09 -5.59002 -3.27752 0
M  V30 23715 N 2261.49 0.977736 -1.23605 0
M  V30 23716 C 2262.74 1.71599 -1.06762 0
M  V30 23717 C 2263.06 1.90939 0.395895 0
M  V30 23718 O 2262.33 1.47994 1.28353 0
M  V30 23719 H 2260.91 0.635836 -0.392074 0
M  V30 23720 H 2263.57 1.17678 -1.55364 0
M  V30 23721 H 2262.67 2.70449 -1.55768 0
M  V30 23722 N 2262.97 1.04818 1.1769 0
M  V30 23723 C 2264.25 0.669995 1.83767 0
M  V30 23724 C 2264.63 -0.849952 1.93233 0
M  V30 23725 O 2263.98 -1.75441 1.464 0
M  V30 23726 C 2264.19 1.35461 3.21639 0
M  V30 23727 C 2265.53 1.49024 3.97589 0
M  V30 23728 O 2266.56 1.31332 3.31105 0
M  V30 23729 O 2265.42 1.77923 5.16726 0
M  V30 23730 H 2262.51 0.235382 0.792795 0
M  V30 23731 H 2265.06 1.14754 1.25019 0
M  V30 23732 H 2263.83 2.39174 3.09696 0
M  V30 23733 H 2263.45 0.866175 3.8805 0
M  V30 23734 N 2264.45 -1.34055 0.828678 0
M  V30 23735 C 2265.4 -2.29413 0.252607 0
M  V30 23736 C 2266.37 -1.53858 -0.625853 0
M  V30 23737 O 2267.55 -1.82203 -0.56628 0
M  V30 23738 C 2264.69 -3.4028 -0.574771 0
M  V30 23739 C 2263.8 -4.30764 0.326575 0
M  V30 23740 C 2262.94 -5.28737 -0.510923 0
M  V30 23741 C 2261.98 -6.1086 0.38945 0
M  V30 23742 N 2261.12 -7.00906 -0.409315 0
M  V30 23743 H 2265.96 -2.78084 1.07113 0
M  V30 23744 H 2263.49 -1.36842 0.539701 0
M  V30 23745 H 2265.45 -4.03249 -1.06985 0
M  V30 23746 H 2264.08 -2.92828 -1.35836 0
M  V30 23747 H 2263.13 -3.68605 0.939902 0
M  V30 23748 H 2264.44 -4.88288 1.01866 0
M  V30 23749 H 2263.6 -5.97186 -1.07024 0
M  V30 23750 H 2262.34 -4.71765 -1.23648 0
M  V30 23751 H 2261.34 -5.41339 0.960864 0
M  V30 23752 H 2262.57 -6.69914 1.11321 0
M  V30 23753 H 2260.51 -6.46395 -1.11845 0
M  V30 23754 H 2260.43 -7.55667 0.224259 0
M  V30 23755 H 2261.7 -7.73675 -0.9512 0
M  V30 23756 N 2265.93 -0.584167 -1.46374 0
M  V30 23757 C 2267.15 -0.0740769 -2.07268 0
M  V30 23758 C 2267.58 1.22221 -1.42981 0
M  V30 23759 O 2266.94 1.73858 -0.514123 0
M  V30 23760 C 2266.98 0.0767136 -3.60518 0
M  V30 23761 O 2266.09 1.13285 -3.96535 0
M  V30 23762 H 2265.43 -0.0634641 -0.66096 0
M  V30 23763 H 2267.96 -0.807525 -1.8799 0
M  V30 23764 H 2267.97 0.282418 -4.07021 0
M  V30 23765 H 2266.64 -0.869932 -4.067 0
M  V30 23766 H 2265.22 0.905489 -3.61739 0
M  V30 23767 N 2267.41 1.54275 -0.322027 0
M  V30 23768 C 2268.65 2.00838 0.281425 0
M  V30 23769 C 2268.98 1.20987 1.51907 0
M  V30 23770 O 2268.26 0.291767 1.92299 0
M  V30 23771 C 2268.54 3.54773 0.6171 0
M  V30 23772 C 2268.4 4.4535 -0.631143 0
M  V30 23773 C 2269.71 4.16036 1.43535 0
M  V30 23774 H 2266.83 0.730072 0.100813 0
M  V30 23775 H 2269.48 1.84875 -0.4383 0
M  V30 23776 H 2267.63 3.68506 1.23027 0
M  V30 23777 H 2269.3 4.4349 -1.26942 0
M  V30 23778 H 2267.54 4.15088 -1.26032 0
M  V30 23779 H 2268.21 5.50878 -0.351832 0
M  V30 23780 H 2270.69 4.05868 0.917063 0
M  V30 23781 H 2269.56 5.23859 1.63898 0
M  V30 23782 H 2269.82 3.69262 2.43101 0
M  V30 23783 N 2268.88 0.0501669 1.5752 0
M  V30 23784 C 2270.11 -0.632539 1.96679 0
M  V30 23785 C 2270.52 -1.64972 0.926327 0
M  V30 23786 O 2269.86 -1.83438 -0.0979877 0
M  V30 23787 C 2269.93 -1.37729 3.32071 0
M  V30 23788 C 2269.59 -0.516051 4.54077 0
M  V30 23789 C 2270.59 0.217448 5.19445 0
M  V30 23790 C 2268.27 -0.447272 5.00305 0
M  V30 23791 C 2270.27 1.00818 6.29376 0
M  V30 23792 C 2267.95 0.347145 6.10113 0
M  V30 23793 C 2268.95 1.07356 6.7451 0
M  V30 23794 O 2268.64 1.85491 7.82207 0
M  V30 23795 H 2268.37 -0.177809 0.652196 0
M  V30 23796 H 2270.93 0.112579 2.05091 0
M  V30 23797 H 2269.16 -2.16801 3.2021 0
M  V30 23798 H 2270.84 -1.95013 3.55984 0
M  V30 23799 H 2271.61 0.173773 4.84689 0
M  V30 23800 H 2267.49 -1.00227 4.49973 0
M  V30 23801 H 2271.03 1.57568 6.79572 0
M  V30 23802 H 2266.93 0.392462 6.44306 0
M  V30 23803 H 2267.7 1.77692 7.98979 0
M  V30 23804 N 2270.36 -1.56011 -0.223207 0
M  V30 23805 C 2271.59 -1.82764 -0.963381 0
M  V30 23806 C 2272 -0.626835 -1.78514 0
M  V30 23807 O 2271.34 0.413982 -1.78975 0
M  V30 23808 C 2271.4 -3.03223 -1.93121 0
M  V30 23809 C 2271.07 -4.38294 -1.29413 0
M  V30 23810 C 2272.07 -5.1537 -0.684826 0
M  V30 23811 C 2269.75 -4.85014 -1.30639 0
M  V30 23812 C 2271.74 -6.37327 -0.0962851 0
M  V30 23813 C 2269.43 -6.06914 -0.714003 0
M  V30 23814 C 2270.43 -6.82911 -0.110003 0
M  V30 23815 O 2270.12 -8.02506 0.473171 0
M  V30 23816 H 2269.85 -0.611581 -0.288 0
M  V30 23817 H 2272.4 -2.03945 -0.244067 0
M  V30 23818 H 2270.63 -2.77856 -2.68947 0
M  V30 23819 H 2272.32 -3.16862 -2.5368 0
M  V30 23820 H 2273.09 -4.80382 -0.667689 0
M  V30 23821 H 2268.97 -4.25837 -1.76591 0
M  V30 23822 H 2272.51 -6.96587 0.375779 0
M  V30 23823 H 2268.41 -6.41375 -0.728547 0
M  V30 23824 H 2269.18 -8.17675 0.36733 0
M  V30 23825 N 2271.84 0.489844 -1.49794 0
M  V30 23826 C 2273.07 1.26699 -1.6357 0
M  V30 23827 C 2273.48 1.86213 -0.311498 0
M  V30 23828 O 2272.84 1.68359 0.704386 0
M  V30 23829 C 2272.89 2.38924 -2.71289 0
M  V30 23830 O 2272.61 1.81854 -3.98573 0
M  V30 23831 C 2274.11 3.30115 -2.9587 0
M  V30 23832 H 2271.33 0.383871 -0.550349 0
M  V30 23833 H 2273.88 0.58683 -1.95899 0
M  V30 23834 H 2272.03 3.02749 -2.41706 0
M  V30 23835 H 2272.45 2.55614 -4.57997 0
M  V30 23836 H 2273.92 4.05114 -3.74948 0
M  V30 23837 H 2274.4 3.87779 -2.06213 0
M  V30 23838 H 2275 2.72046 -3.26912 0
M  V30 23839 N 2273.32 1.39056 0.741698 0
M  V30 23840 C 2274.54 1.39357 1.53605 0
M  V30 23841 C 2274.97 -0.0116574 1.88096 0
M  V30 23842 O 2274.33 -0.996898 1.51432 0
M  V30 23843 C 2274.37 2.26687 2.80438 0
M  V30 23844 O 2273.48 1.69215 3.76085 0
M  V30 23845 H 2272.82 0.474843 0.464134 0
M  V30 23846 H 2275.35 1.82968 0.915633 0
M  V30 23847 H 2275.36 2.40965 3.29241 0
M  V30 23848 H 2274.03 3.28814 2.54665 0
M  V30 23849 H 2272.61 1.64144 3.3483 0
M  V30 23850 N 2274.8 -0.971167 1.24121 0
M  V30 23851 C 2275.74 -2.08642 1.02816 0
M  V30 23852 C 2276.74 -1.69362 -0.0358105 0
M  V30 23853 O 2277.94 -1.7961 0.11846 0
M  V30 23854 H 2274.32 -0.682643 0.31544 0
M  V30 23855 H 2276.29 -2.23775 1.97401 0
M  V30 23856 C 2275.04 -3.41647 0.645934 0
M  V30 23857 H 2274.36 -3.7233 1.45639 0
M  V30 23858 H 2275.8 -4.20593 0.53644 0
M  V30 23859 C 2274.26 -3.30636 -0.646655 0
M  V30 23860 O 2274.79 -3.64266 -1.69332 0
M  V30 23861 N 2273 -2.83776 -0.626065 0
M  V30 23862 H 2272.54 -2.56606 0.226033 0
M  V30 23863 H 2272.5 -2.7679 -1.49112 0
M  V30 23864 N 2276.27 -1.05441 -1.17133 0
M  V30 23865 C 2277.69 -0.791706 -1.69083 0
M  V30 23866 C 2278.04 0.685806 -1.83824 0
M  V30 23867 O 2277.16 1.53276 -1.5276 0
M  V30 23868 C 2277.76 -1.43055 -3.07117 0
M  V30 23869 C 2276.32 -1.21583 -3.56222 0
M  V30 23870 C 2275.46 -1.51251 -2.32419 0
M  V30 23871 H 2278.41 -1.21902 -1.01615 0
M  V30 23872 H 2278.43 -0.841185 -3.71085 0
M  V30 23873 H 2277.95 -2.50589 -2.96356 0
M  V30 23874 H 2276.05 -0.159853 -3.72257 0
M  V30 23875 H 2276.16 -1.92254 -4.38834 0
M  V30 23876 H 2274.52 -0.932695 -2.37008 0
M  V30 23877 H 2275.31 -2.59924 -2.24264 0
M  V30 23878 N 2277.75 1.33613 -0.835776 0
M  V30 23879 C 2278.98 2.02093 -0.443379 0
M  V30 23880 C 2279.4 1.62895 0.954493 0
M  V30 23881 O 2278.75 0.840752 1.6198 0
M  V30 23882 C 2278.8 3.57279 -0.550838 0
M  V30 23883 O 2278.52 3.95061 -1.89363 0
M  V30 23884 C 2280.03 4.43029 -0.154997 0
M  V30 23885 H 2277.25 0.647406 -0.17637 0
M  V30 23886 H 2279.79 1.7061 -1.12749 0
M  V30 23887 H 2277.94 3.87306 0.0853316 0
M  V30 23888 H 2278.36 4.89766 -1.87696 0
M  V30 23889 H 2279.83 5.51283 -0.281241 0
M  V30 23890 H 2280.31 4.29821 0.902788 0
M  V30 23891 H 2280.92 4.18355 -0.765477 0
M  V30 23892 N 2279.23 0.591922 1.46062 0
M  V30 23893 C 2280.46 0.0869299 2.06717 0
M  V30 23894 C 2280.87 -1.22201 1.43918 0
M  V30 23895 O 2280.23 -1.74087 0.547729 0
M  V30 23896 C 2280.28 -0.0758089 3.61421 0
M  V30 23897 O 2280 1.18133 4.21872 0
M  V30 23898 C 2281.5 -0.614083 4.39026 0
M  V30 23899 H 2278.72 0.0616635 0.668161 0
M  V30 23900 H 2281.27 0.815208 1.87549 0
M  V30 23901 H 2279.42 -0.754346 3.79985 0
M  V30 23902 H 2279.84 1.00101 5.14859 0
M  V30 23903 H 2281.31 -0.677097 5.47832 0
M  V30 23904 H 2281.79 -1.63305 4.07711 0
M  V30 23905 H 2282.39 0.029889 4.25289 0
M  V30 23906 N 2280.71 -1.54102 0.330204 0
M  V30 23907 C 2281.96 -2.00687 -0.27037 0
M  V30 23908 C 2282.28 -1.21828 -1.51619 0
M  V30 23909 O 2281.54 -0.290284 -1.93535 0
M  V30 23910 C 2281.84 -3.51567 -0.643072 0
M  V30 23911 C 2281.5 -4.48071 0.50433 0
M  V30 23912 C 2280.17 -4.74175 0.819247 0
M  V30 23913 C 2282.52 -5.05371 1.27474 0
M  V30 23914 C 2279.85 -5.54837 1.90718 0
M  V30 23915 C 2282.2 -5.87219 2.35281 0
M  V30 23916 C 2280.86 -6.11622 2.67347 0
M  V30 23917 H 2280.13 -0.734366 -0.0989353 0
M  V30 23918 H 2282.78 -1.86007 0.455357 0
M  V30 23919 H 2281.08 -3.64008 -1.44932 0
M  V30 23920 H 2282.78 -3.85058 -1.11942 0
M  V30 23921 H 2279.37 -4.27877 0.248809 0
M  V30 23922 H 2283.55 -4.8518 1.0447 0
M  V30 23923 H 2278.81 -5.71973 2.16001 0
M  V30 23924 H 2282.98 -6.30636 2.95417 0
M  V30 23925 H 2280.61 -6.73913 3.51775 0
M  V30 23926 N 2282.19 -0.0585199 -1.57491 0
M  V30 23927 C 2283.14 0.923151 -2.08475 0
M  V30 23928 C 2284.12 1.2672 -0.991501 0
M  V30 23929 O 2285.31 1.2484 -1.25475 0
M  V30 23930 C 2282.44 2.19543 -2.63923 0
M  V30 23931 C 2281.53 1.87845 -3.8023 0
M  V30 23932 N 2281.92 1.26538 -4.89716 0
M  V30 23933 C 2280.22 2.17672 -3.89275 0
M  V30 23934 C 2280.92 1.12634 -5.70691 0
M  V30 23935 N 2279.89 1.63167 -5.18534 0
M  V30 23936 H 2283.7 0.444602 -2.90518 0
M  V30 23937 H 2281.21 0.145736 -1.61745 0
M  V30 23938 H 2283.21 2.90775 -2.98757 0
M  V30 23939 H 2281.87 2.67998 -1.83322 0
M  V30 23940 H 2282.88 0.936668 -5.09359 0
M  V30 23941 H 2279.55 2.68597 -3.19628 0
M  V30 23942 H 2280.94 0.649782 -6.68751 0
M  V30 23943 N 2283.66 1.56128 0.21493 0
M  V30 23944 C 2284.59 1.95976 1.26947 0
M  V30 23945 C 2285.58 0.828894 1.48537 0
M  V30 23946 O 2286.76 1.09171 1.60609 0
M  V30 23947 C 2283.89 2.28218 2.6179 0
M  V30 23948 C 2282.84 3.43858 2.54845 0
M  V30 23949 C 2282.17 3.61722 3.93778 0
M  V30 23950 C 2283.47 4.78636 2.09057 0
M  V30 23951 H 2285.16 2.84314 0.93841 0
M  V30 23952 H 2282.71 1.36789 0.449972 0
M  V30 23953 H 2284.66 2.54688 3.35726 0
M  V30 23954 H 2283.39 1.36741 2.96596 0
M  V30 23955 H 2282.05 3.17447 1.83365 0
M  V30 23956 H 2281.69 2.6761 4.25904 0
M  V30 23957 H 2281.39 4.39505 3.90012 0
M  V30 23958 H 2282.92 3.90547 4.69367 0
M  V30 23959 H 2284.33 5.04267 2.72741 0
M  V30 23960 H 2282.73 5.59749 2.16336 0
M  V30 23961 H 2283.8 4.73549 1.04306 0
M  V30 23962 N 2285.14 -0.481893 1.50052 0
M  V30 23963 C 2286.42 -1.24318 1.51012 0
M  V30 23964 C 2286.8 -2.09631 0.248624 0
M  V30 23965 O 2286.15 -2.15194 -0.768371 0
M  V30 23966 C 2286.36 -2.0835 2.79984 0
M  V30 23967 C 2287.71 -2.66902 3.30225 0
M  V30 23968 O 2288.73 -2.18602 2.81232 0
M  V30 23969 O 2287.59 -3.54877 4.15601 0
M  V30 23970 H 2284.68 -0.563562 0.605249 0
M  V30 23971 H 2287.23 -0.494598 1.62332 0
M  V30 23972 H 2286 -1.45413 3.63278 0
M  V30 23973 H 2285.62 -2.90363 2.71615 0
M  V30 23974 N 2286.62 -1.39448 -0.734313 0
M  V30 23975 C 2287.87 -1.36439 -1.49094 0
M  V30 23976 C 2288.19 0.0387912 -1.94961 0
M  V30 23977 O 2287.46 0.990161 -1.69034 0
M  V30 23978 H 2286.04 -0.502094 -0.553092 0
M  V30 23979 H 2288.7 -1.7432 -0.871694 0
M  V30 23980 H 2287.8 -2.02751 -2.37273 0
M  V30 23981 N 2288.1 0.964571 -1.24635 0
M  V30 23982 C 2289.01 2.09357 -1.05863 0
M  V30 23983 C 2290.02 1.74 0.00145797 0
M  V30 23984 O 2291.2 2.0043 -0.197381 0
M  V30 23985 C 2288.27 3.40185 -0.668938 0
M  V30 23986 C 2287.33 3.89471 -1.80585 0
M  V30 23987 C 2286.56 5.14056 -1.43466 0
M  V30 23988 O 2286.78 5.69468 -0.325875 0
M  V30 23989 O 2285.72 5.57803 -2.26139 0
M  V30 23990 H 2289.54 2.28091 -2.0052 0
M  V30 23991 H 2287.13 1.07758 -1.03482 0
M  V30 23992 H 2289.01 4.18846 -0.463285 0
M  V30 23993 H 2287.68 3.22745 0.24848 0
M  V30 23994 H 2286.59 3.11858 -2.06628 0
M  V30 23995 H 2287.92 4.11393 -2.70216 0
M  V30 23996 N 2289.58 1.0606 1.16572 0
M  V30 23997 C 2290.82 0.777055 1.87322 0
M  V30 23998 C 2291.16 -0.694613 1.81353 0
M  V30 23999 O 2290.43 -1.50869 1.22756 0
M  V30 24000 C 2290.71 1.26928 3.36989 0
M  V30 24001 C 2290.57 2.80453 3.51662 0
M  V30 24002 C 2291.89 0.875286 4.31308 0
M  V30 24003 H 2289 0.283752 0.680187 0
M  V30 24004 H 2291.65 1.31612 1.37034 0
M  V30 24005 H 2289.8 0.810697 3.79947 0
M  V30 24006 H 2291.47 3.34501 3.17658 0
M  V30 24007 H 2289.71 3.19299 2.9365 0
M  V30 24008 H 2290.38 3.09958 4.56761 0
M  V30 24009 H 2292.86 1.27021 3.96238 0
M  V30 24010 H 2291.73 1.24719 5.34543 0
M  V30 24011 H 2292 -0.219994 4.41552 0
M  V30 24012 N 2291.06 -1.33168 0.84285 0
M  V30 24013 C 2292.3 -1.96914 0.436773 0
M  V30 24014 C 2292.62 -1.67493 -1.01022 0
M  V30 24015 O 2293.82 -2.24884 -1.52116 0
M  V30 24016 C 2292.28 -3.52417 0.730082 0
M  V30 24017 C 2291.89 -3.9071 2.19202 0
M  V30 24018 C 2293.63 -4.22694 0.391151 0
M  V30 24019 C 2291.54 -5.39208 2.42917 0
M  V30 24020 H 2290.47 -0.736917 0.159593 0
M  V30 24021 H 2293.12 -1.51731 1.03199 0
M  V30 24022 H 2291.5 -3.95948 0.0644451 0
M  V30 24023 H 2292.68 -3.58226 2.89846 0
M  V30 24024 H 2290.99 -3.33426 2.49431 0
M  V30 24025 H 2293.59 -5.31906 0.54591 0
M  V30 24026 H 2293.93 -4.10935 -0.666222 0
M  V30 24027 H 2294.46 -3.84707 1.01219 0
M  V30 24028 H 2291.2 -5.55976 3.47234 0
M  V30 24029 H 2290.72 -5.73139 1.76837 0
M  V30 24030 H 2292.4 -6.06144 2.2627 0
M  V30 24031 N 2292.53 -0.599659 -1.45746 0
M  V30 24032 C 2293.76 -0.0978914 -2.06668 0
M  V30 24033 C 2294.18 1.21436 -1.44564 0
M  V30 24034 O 2293.53 1.73794 -0.556953 0
M  V30 24035 C 2293.58 0.0566409 -3.61456 0
M  V30 24036 O 2293.31 -1.20369 -4.2124 0
M  V30 24037 C 2294.81 0.590791 -4.39346 0
M  V30 24038 H 2292.03 -0.0652061 -0.667824 0
M  V30 24039 H 2294.57 -0.825143 -1.87114 0
M  V30 24040 H 2292.73 0.734184 -3.80379 0
M  V30 24041 H 2293.14 -1.0283 -5.14321 0
M  V30 24042 H 2294.61 0.648035 -5.48183 0
M  V30 24043 H 2295.09 1.6114 -4.08571 0
M  V30 24044 H 2295.7 -0.0524427 -4.25268 0
M  V30 24045 N 2294.01 1.53925 -0.338371 0
M  V30 24046 C 2295.26 2.00828 0.259723 0
M  V30 24047 C 2295.59 1.2263 1.5097 0
M  V30 24048 O 2294.84 0.300543 1.93378 0
M  V30 24049 C 2295.14 3.51903 0.624418 0
M  V30 24050 C 2294.81 4.47797 -0.528085 0
M  V30 24051 C 2293.47 4.73734 -0.844382 0
M  V30 24052 C 2295.82 5.04688 -1.30152 0
M  V30 24053 C 2293.15 5.53817 -1.93657 0
M  V30 24054 C 2295.5 5.85963 -2.38392 0
M  V30 24055 C 2294.16 6.10196 -2.70587 0
M  V30 24056 H 2293.43 0.73488 0.0950394 0
M  V30 24057 H 2296.08 1.85763 -0.465215 0
M  V30 24058 H 2294.39 3.64772 1.43 0
M  V30 24059 H 2296.08 3.85647 1.09898 0
M  V30 24060 H 2292.67 4.27739 -0.271496 0
M  V30 24061 H 2296.86 4.84619 -1.07042 0
M  V30 24062 H 2292.11 5.7082 -2.19031 0
M  V30 24063 H 2296.29 6.29061 -2.98757 0
M  V30 24064 H 2293.91 6.72038 -3.55344 0
M  V30 24065 N 2295.49 0.0668712 1.57458 0
M  V30 24066 C 2296.77 -0.6441 1.84691 0
M  V30 24067 C 2297.15 -1.88091 0.958376 0
M  V30 24068 O 2296.49 -2.28488 0.0233981 0
M  V30 24069 C 2296.7 -0.986451 3.34769 0
M  V30 24070 C 2298.05 -1.36205 4.02161 0
M  V30 24071 O 2299.08 -1.07833 3.39486 0
M  V30 24072 O 2297.94 -1.89218 5.12698 0
M  V30 24073 H 2295.03 -0.319424 0.762822 0
M  V30 24074 H 2297.58 0.0974284 1.6942 0
M  V30 24075 H 2296.35 -0.107814 3.91151 0
M  V30 24076 H 2295.97 -1.78491 3.55284 0
M  V30 24077 N 2296.97 -1.56239 -0.206647 0
M  V30 24078 C 2297.92 -1.94497 -1.27568 0
M  V30 24079 C 2298.91 -0.828888 -1.47736 0
M  V30 24080 O 2300.12 -1.01382 -1.48733 0
M  V30 24081 H 2296.49 -0.618308 -0.428018 0
M  V30 24082 H 2298.46 -2.83671 -0.925911 0
M  V30 24083 C 2297.21 -2.29084 -2.61564 0
M  V30 24084 H 2296.53 -3.14486 -2.46858 0
M  V30 24085 H 2297.97 -2.59726 -3.3514 0
M  V30 24086 C 2296.43 -1.12128 -3.17693 0
M  V30 24087 O 2296.96 -0.390223 -3.998 0
M  V30 24088 N 2295.17 -0.901146 -2.76275 0
M  V30 24089 H 2294.72 -1.49737 -2.09611 0
M  V30 24090 H 2294.67 -0.120374 -3.14169 0
M  V30 24091 N 2298.45 0.473929 -1.50305 0
M  V30 24092 C 2299.38 1.58039 -1.71889 0
M  V30 24093 C 2300.36 1.60343 -0.567827 0
M  V30 24094 O 2301.54 1.76654 -0.806654 0
M  V30 24095 C 2298.67 2.9638 -1.81041 0
M  V30 24096 C 2297.63 3.08943 -2.96206 0
M  V30 24097 C 2296.95 4.48904 -2.90498 0
M  V30 24098 C 2298.25 2.86427 -4.36757 0
M  V30 24099 H 2299.95 1.4023 -2.6453 0
M  V30 24100 H 2297.49 0.673178 -1.27296 0
M  V30 24101 H 2299.44 3.73711 -1.94726 0
M  V30 24102 H 2298.17 3.1534 -0.850202 0
M  V30 24103 H 2296.83 2.34045 -2.82168 0
M  V30 24104 H 2296.48 4.64778 -1.92329 0
M  V30 24105 H 2296.18 4.58246 -3.6781 0
M  V30 24106 H 2297.7 5.28259 -3.06227 0
M  V30 24107 H 2299.11 3.53509 -4.51336 0
M  V30 24108 H 2297.51 3.07216 -5.15498 0
M  V30 24109 H 2298.58 1.82308 -4.49324 0
M  V30 24110 N 2299.92 1.39835 0.726907 0
M  V30 24111 C 2300.87 1.392 1.84097 0
M  V30 24112 C 2301.84 0.250531 1.642 0
M  V30 24113 O 2303.03 0.446879 1.85493 0
M  V30 24114 C 2300.17 1.24925 3.21695 0
M  V30 24115 C 2299.28 2.48684 3.53242 0
M  V30 24116 C 2298.41 2.26936 4.80285 0
M  V30 24117 C 2297.45 3.46329 5.047 0
M  V30 24118 N 2296.59 3.23847 6.22951 0
M  V30 24119 H 2301.43 2.3443 1.83974 0
M  V30 24120 H 2298.97 1.16443 0.898856 0
M  V30 24121 H 2300.92 1.14658 4.01135 0
M  V30 24122 H 2299.55 0.33321 3.21076 0
M  V30 24123 H 2298.61 2.69524 2.68442 0
M  V30 24124 H 2299.92 3.37589 3.67199 0
M  V30 24125 H 2299.07 2.13957 5.67721 0
M  V30 24126 H 2297.81 1.35439 4.68516 0
M  V30 24127 H 2296.82 3.59798 4.15723 0
M  V30 24128 H 2298.04 4.38738 5.18349 0
M  V30 24129 H 2295.99 2.35022 6.12455 0
M  V30 24130 H 2295.9 4.06311 6.37532 0
M  V30 24131 H 2297.17 3.14578 7.13205 0
M  V30 24132 N 2301.4 -0.957948 1.25144 0
M  V30 24133 C 2302.63 -1.73689 1.12427 0
M  V30 24134 C 2303.04 -1.86029 -0.322272 0
M  V30 24135 O 2302.4 -1.35563 -1.22184 0
M  V30 24136 C 2302.45 -3.15238 1.76938 0
M  V30 24137 O 2302.17 -3.03505 3.15937 0
M  V30 24138 C 2303.67 -4.09426 1.69957 0
M  V30 24139 H 2300.89 -0.544366 0.392309 0
M  V30 24140 H 2303.44 -1.20204 1.65442 0
M  V30 24141 H 2301.59 -3.65678 1.27901 0
M  V30 24142 H 2302.01 -3.92774 3.47605 0
M  V30 24143 H 2303.48 -5.06368 2.19762 0
M  V30 24144 H 2303.96 -4.34172 0.662695 0
M  V30 24145 H 2304.56 -3.649 2.18467 0
M  V30 24146 N 2302.88 -1.06677 -1.16008 0
M  V30 24147 C 2303.81 -0.702346 -2.22687 0
M  V30 24148 C 2304.79 0.307003 -1.67307 0
M  V30 24149 O 2305.98 0.181271 -1.93352 0
M  V30 24150 C 2303.11 -0.092099 -3.47178 0
M  V30 24151 C 2302.06 -1.02785 -4.15475 0
M  V30 24152 C 2301.39 -0.280704 -5.33963 0
M  V30 24153 C 2302.69 -2.35854 -4.66015 0
M  V30 24154 H 2304.38 -1.59423 -2.53426 0
M  V30 24155 H 2301.93 -0.767982 -1.21811 0
M  V30 24156 H 2303.88 0.17474 -4.21038 0
M  V30 24157 H 2302.6 0.834821 -3.1575 0
M  V30 24158 H 2301.26 -1.2795 -3.43547 0
M  V30 24159 H 2300.91 0.649458 -4.9879 0
M  V30 24160 H 2300.61 -0.90436 -5.80599 0
M  V30 24161 H 2302.13 -0.0215033 -6.10596 0
M  V30 24162 H 2303.55 -2.15054 -5.31436 0
M  V30 24163 H 2301.94 -2.93752 -5.23288 0
M  V30 24164 H 2303.01 -2.98648 -3.82018 0
M  V30 24165 N 2304.36 1.32719 -0.8499 0
M  V30 24166 C 2305.29 2.31482 -0.306349 0
M  V30 24167 C 2306.27 1.59469 0.591924 0
M  V30 24168 O 2307.45 1.87297 0.513166 0
M  V30 24169 C 2304.58 3.43533 0.510144 0
M  V30 24170 C 2303.54 4.26994 -0.293284 0
M  V30 24171 C 2302.86 5.30763 0.647649 0
M  V30 24172 C 2304.16 4.99802 -1.51643 0
M  V30 24173 H 2305.86 2.77193 -1.13157 0
M  V30 24174 H 2303.4 1.33265 -0.545577 0
M  V30 24175 H 2305.36 4.1166 0.900783 0
M  V30 24176 H 2304.08 2.96538 1.36869 0
M  V30 24177 H 2302.74 3.60507 -0.665619 0
M  V30 24178 H 2302.39 4.80023 1.5029 0
M  V30 24179 H 2302.09 5.87489 0.114116 0
M  V30 24180 H 2303.61 6.01754 1.03557 0
M  V30 24181 H 2305.03 5.60636 -1.19834 0
M  V30 24182 H 2303.42 5.6623 -1.98755 0
M  V30 24183 H 2304.49 4.27939 -2.28026 0
M  V30 24184 N 2305.84 0.60738 1.45426 0
M  V30 24185 C 2307.06 0.107042 2.07124 0
M  V30 24186 C 2307.49 -1.19931 1.44908 0
M  V30 24187 O 2306.84 -1.73018 0.541717 0
M  V30 24188 C 2306.89 -0.0193485 3.60595 0
M  V30 24189 O 2306 -1.06963 3.98287 0
M  V30 24190 H 2305.34 0.0739713 0.659867 0
M  V30 24191 H 2307.87 0.83733 1.86681 0
M  V30 24192 H 2307.88 -0.217629 4.07419 0
M  V30 24193 H 2306.55 0.934524 4.05265 0
M  V30 24194 H 2305.13 -0.847825 3.63134 0
M  V30 24195 N 2307.31 -1.53743 0.34653 0
M  V30 24196 C 2308.24 -2.28059 -0.501153 0
M  V30 24197 C 2309.23 -1.29736 -1.10011 0
M  V30 24198 O 2310.41 -1.58583 -1.12094 0
M  V30 24199 C 2307.54 -3.05562 -1.65073 0
M  V30 24200 C 2306.49 -4.11413 -1.17996 0
M  V30 24201 C 2305.82 -4.76889 -2.41829 0
M  V30 24202 C 2307.12 -5.21558 -0.278303 0
M  V30 24203 H 2308.81 -2.99164 0.118803 0
M  V30 24204 H 2306.36 -1.43881 0.0585784 0
M  V30 24205 H 2308.31 -3.56291 -2.25022 0
M  V30 24206 H 2307.04 -2.32113 -2.29763 0
M  V30 24207 H 2305.7 -3.61602 -0.603268 0
M  V30 24208 H 2305.34 -4.00031 -3.04933 0
M  V30 24209 H 2305.04 -5.48405 -2.1101 0
M  V30 24210 H 2306.57 -5.30403 -3.02499 0
M  V30 24211 H 2307.98 -5.67904 -0.784723 0
M  V30 24212 H 2306.38 -6.00068 -0.0618652 0
M  V30 24213 H 2307.45 -4.80041 0.684761 0
M  V30 24214 N 2308.79 -0.0752207 -1.5742 0
M  V30 24215 C 2310.21 0.281417 -1.57099 0
M  V30 24216 C 2310.41 1.69801 -1.08489 0
M  V30 24217 O 2309.46 2.41032 -0.752321 0
M  V30 24218 C 2310.78 0.0879513 -3.00571 0
M  V30 24219 C 2312.33 0.157226 -3.12605 0
M  V30 24220 C 2312.8 -0.00800121 -4.57999 0
M  V30 24221 N 2314.29 0.0474911 -4.63176 0
M  V30 24222 C 2315.03 -0.0558884 -5.73373 0
M  V30 24223 N 2314.52 -0.212982 -6.92473 0
M  V30 24224 N 2316.32 0.00142217 -5.621 0
M  V30 24225 H 2308.47 -1.00101 -1.87333 0
M  V30 24226 H 2310.73 -0.390662 -0.863764 0
M  V30 24227 H 2310.44 -0.889689 -3.40261 0
M  V30 24228 H 2310.31 0.83881 -3.67755 0
M  V30 24229 H 2312.7 1.12536 -2.728 0
M  V30 24230 H 2312.78 -0.624793 -2.48052 0
M  V30 24231 H 2312.42 -0.972912 -4.98495 0
M  V30 24232 H 2312.35 0.793465 -5.20588 0
M  V30 24233 H 2314.84 0.167178 -3.7753 0
M  V30 24234 H 2315.16 -0.283917 -7.72278 0
M  V30 24235 H 2313.5 -0.248389 -6.94556 0
M  V30 24236 H 2316.69 0.122876 -4.67939 0
M  V30 24237 H 2316.86 -0.0825983 -6.47947 0
M  V30 24238 N 2310.27 1.56347 0.198358 0
M  V30 24239 C 2311.18 1.97485 1.26637 0
M  V30 24240 C 2312.2 0.882028 1.49988 0
M  V30 24241 O 2313.37 1.18751 1.62666 0
M  V30 24242 C 2310.44 2.30324 2.59137 0
M  V30 24243 C 2309.5 3.53296 2.43886 0
M  V30 24244 C 2308.73 3.84559 3.70067 0
M  V30 24245 O 2308.95 3.17159 4.74096 0
M  V30 24246 O 2307.89 4.77996 3.65792 0
M  V30 24247 H 2311.71 2.88549 0.947253 0
M  V30 24248 H 2309.3 1.43859 0.403098 0
M  V30 24249 H 2311.18 2.52536 3.37348 0
M  V30 24250 H 2309.86 1.42428 2.90682 0
M  V30 24251 H 2308.76 3.36335 1.63797 0
M  V30 24252 H 2310.1 4.41648 2.17274 0
M  V30 24253 N 2311.75 -0.465951 1.50554 0
M  V30 24254 C 2312.99 -1.21946 1.6204 0
M  V30 24255 C 2313.33 -1.91509 0.32215 0
M  V30 24256 O 2312.6 -1.82349 -0.676691 0
M  V30 24257 C 2312.89 -2.25907 2.80425 0
M  V30 24258 C 2312.74 -1.60615 4.20146 0
M  V30 24259 C 2314.06 -3.27171 2.94359 0
M  V30 24260 H 2311.18 -0.441987 0.589759 0
M  V30 24261 H 2313.82 -0.512538 1.82956 0
M  V30 24262 H 2311.97 -2.86198 2.62722 0
M  V30 24263 H 2313.64 -1.03881 4.49451 0
M  V30 24264 H 2311.88 -0.909137 4.24166 0
M  V30 24265 H 2312.55 -2.36187 4.98919 0
M  V30 24266 H 2315.03 -2.76907 3.10583 0
M  V30 24267 H 2313.91 -3.97236 3.78807 0
M  V30 24268 H 2314.17 -3.91597 2.05193 0
M  V30 24269 N 2313.23 -1.40218 -0.719481 0
M  V30 24270 C 2314.64 -1.22163 -1.02705 0
M  V30 24271 C 2314.84 -0.094091 -2.0128 0
M  V30 24272 O 2313.9 0.549274 -2.46453 0
M  V30 24273 C 2315.21 -2.56184 -1.5745 0
M  V30 24274 C 2316.76 -2.63162 -1.69454 0
M  V30 24275 C 2317.23 -3.97442 -2.27605 0
M  V30 24276 N 2318.73 -3.99163 -2.34995 0
M  V30 24277 C 2319.46 -4.99847 -2.80963 0
M  V30 24278 N 2318.96 -6.10926 -3.26712 0
M  V30 24279 N 2320.75 -4.87218 -2.80312 0
M  V30 24280 H 2312.9 -2.12297 -0.0660118 0
M  V30 24281 H 2315.16 -0.943536 -0.0918912 0
M  V30 24282 H 2314.87 -3.39323 -0.924814 0
M  V30 24283 H 2314.74 -2.76998 -2.56031 0
M  V30 24284 H 2317.13 -1.80397 -2.3354 0
M  V30 24285 H 2317.21 -2.46183 -0.694824 0
M  V30 24286 H 2316.86 -4.80645 -1.64141 0
M  V30 24287 H 2316.79 -4.1175 -3.28283 0
M  V30 24288 H 2319.28 -3.18951 -2.0268 0
M  V30 24289 H 2319.59 -6.83647 -3.60343 0
M  V30 24290 H 2317.93 -6.14497 -3.24681 0
M  V30 24291 H 2321.13 -3.99535 -2.43905 0
M  V30 24292 H 2321.3 -5.65828 -3.15821 0
M  V30 24293 N 2314.7 0.951297 -1.25651 0
M  V30 24294 C 2315.93 1.7309 -1.13346 0
M  V30 24295 C 2316.35 1.86197 0.312401 0
M  V30 24296 O 2315.7 1.36209 1.21463 0
M  V30 24297 C 2315.76 3.14295 -1.78607 0
M  V30 24298 O 2315.48 3.01825 -3.17542 0
M  V30 24299 C 2316.98 4.08519 -1.72126 0
M  V30 24300 H 2314.2 0.542278 -0.395191 0
M  V30 24301 H 2316.74 1.19325 -1.66078 0
M  V30 24302 H 2314.9 3.64994 -1.29839 0
M  V30 24303 H 2315.31 3.90925 -3.49683 0
M  V30 24304 H 2316.78 5.05196 -2.22444 0
M  V30 24305 H 2317.26 4.33814 -0.685711 0
M  V30 24306 H 2317.87 3.63737 -2.20399 0
M  V30 24307 N 2316.18 1.07291 1.1544 0
M  V30 24308 C 2317.43 0.790702 1.85555 0
M  V30 24309 C 2317.74 -0.685706 1.83187 0
M  V30 24310 O 2318.95 -1.08266 2.48979 0
M  V30 24311 C 2317.41 1.36439 3.33035 0
M  V30 24312 C 2317.01 2.87176 3.43851 0
M  V30 24313 C 2318.76 1.16017 4.08338 0
M  V30 24314 C 2316.67 3.37739 4.85476 0
M  V30 24315 H 2315.6 0.29211 0.695117 0
M  V30 24316 H 2318.25 1.2929 1.30217 0
M  V30 24317 H 2316.63 0.789932 3.88041 0
M  V30 24318 H 2317.8 3.5066 2.98955 0
M  V30 24319 H 2316.12 3.06381 2.81992 0
M  V30 24320 H 2318.71 1.51271 5.12856 0
M  V30 24321 H 2319.06 0.0991739 4.16182 0
M  V30 24322 H 2319.59 1.70095 3.596 0
M  V30 24323 H 2316.33 4.43361 4.82816 0
M  V30 24324 H 2315.85 2.79008 5.30956 0
M  V30 24325 H 2317.53 3.33658 5.5433 0
M  V30 24326 N 2317.66 -1.32267 0.856927 0
M  V30 24327 C 2318.61 -2.28826 0.301212 0
M  V30 24328 C 2319.58 -1.55151 -0.593077 0
M  V30 24329 O 2320.76 -1.83363 -0.527504 0
M  V30 24330 C 2317.9 -3.41422 -0.502463 0
M  V30 24331 C 2317.02 -4.29974 0.417873 0
M  V30 24332 C 2316.15 -5.29702 -0.398655 0
M  V30 24333 C 2315.19 -6.09896 0.518935 0
M  V30 24334 N 2314.33 -7.01616 -0.260551 0
M  V30 24335 H 2319.17 -2.75749 1.12988 0
M  V30 24336 H 2316.7 -1.35666 0.568606 0
M  V30 24337 H 2318.66 -4.05428 -0.98407 0
M  V30 24338 H 2317.29 -2.95644 -1.29594 0
M  V30 24339 H 2316.34 -3.66529 1.01788 0
M  V30 24340 H 2317.66 -4.86017 1.122 0
M  V30 24341 H 2316.81 -5.99321 -0.943329 0
M  V30 24342 H 2315.55 -4.74282 -1.13614 0
M  V30 24343 H 2314.55 -5.39179 1.07547 0
M  V30 24344 H 2315.78 -6.67402 1.25506 0
M  V30 24345 H 2313.72 -6.48622 -0.981084 0
M  V30 24346 H 2313.64 -7.55022 0.384496 0
M  V30 24347 H 2314.91 -7.75518 -0.786878 0
M  V30 24348 N 2319.14 -0.615084 -1.45102 0
M  V30 24349 C 2320.38 -0.113382 -2.02483 0
M  V30 24350 C 2320.72 1.25561 -1.48149 0
M  V30 24351 O 2319.99 1.82991 -0.659136 0
M  V30 24352 C 2320.28 -0.0825911 -3.60005 0
M  V30 24353 C 2320.13 -1.48279 -4.24657 0
M  V30 24354 C 2321.45 0.601325 -4.35973 0
M  V30 24355 H 2318.57 -0.0426761 -0.735763 0
M  V30 24356 H 2321.21 -0.788491 -1.72866 0
M  V30 24357 H 2319.36 0.49231 -3.85368 0
M  V30 24358 H 2321.03 -2.10534 -4.10455 0
M  V30 24359 H 2319.27 -2.04134 -3.82769 0
M  V30 24360 H 2319.94 -1.41342 -5.33598 0
M  V30 24361 H 2322.42 0.112593 -4.15948 0
M  V30 24362 H 2321.3 0.592001 -5.45698 0
M  V30 24363 H 2321.56 1.66879 -4.09394 0
M  V30 24364 N 2320.62 1.53557 -0.354678 0
M  V30 24365 C 2321.86 2.01092 0.238408 0
M  V30 24366 C 2322.19 1.24225 1.49661 0
M  V30 24367 O 2321.45 0.321037 1.93049 0
M  V30 24368 C 2321.75 3.52546 0.587059 0
M  V30 24369 C 2321.41 4.47212 -0.57555 0
M  V30 24370 C 2320.07 4.72811 -0.89458 0
M  V30 24371 C 2322.43 5.03279 -1.35498 0
M  V30 24372 C 2319.75 5.51732 -1.99521 0
M  V30 24373 C 2322.11 5.83401 -2.44593 0
M  V30 24374 C 2320.77 6.07292 -2.77044 0
M  V30 24375 H 2320.04 0.735847 0.0872397 0
M  V30 24376 H 2322.69 1.85259 -0.484892 0
M  V30 24377 H 2320.99 3.66268 1.39123 0
M  V30 24378 H 2322.69 3.86791 1.05802 0
M  V30 24379 H 2319.28 4.27427 -0.316849 0
M  V30 24380 H 2323.46 4.83457 -1.12176 0
M  V30 24381 H 2318.72 5.68465 -2.25073 0
M  V30 24382 H 2322.89 6.25857 -3.05412 0
M  V30 24383 H 2320.52 6.68231 -3.62452 0
M  V30 24384 N 2322.1 0.083568 1.57378 0
M  V30 24385 C 2323.32 -0.591536 1.98264 0
M  V30 24386 C 2323.74 -1.62433 0.962331 0
M  V30 24387 O 2323.1 -1.82433 -0.0495489 0
M  V30 24388 C 2323.15 -1.24959 3.39216 0
M  V30 24389 O 2322.87 -0.258109 4.37339 0
M  V30 24390 C 2324.37 -2.0114 3.95041 0
M  V30 24391 H 2321.59 -0.159466 0.651776 0
M  V30 24392 H 2324.13 0.159451 2.03877 0
M  V30 24393 H 2322.29 -1.95158 3.34652 0
M  V30 24394 H 2322.7 -0.731643 5.19372 0
M  V30 24395 H 2324.18 -2.42558 4.95852 0
M  V30 24396 H 2324.65 -2.87267 3.32227 0
M  V30 24397 H 2325.26 -1.35782 4.03043 0
M  V30 24398 N 2323.57 -1.5645 -0.190064 0
M  V30 24399 C 2324.8 -1.85034 -0.92574 0
M  V30 24400 C 2325.22 -0.666689 -1.76637 0
M  V30 24401 O 2324.57 0.364534 -1.78822 0
M  V30 24402 C 2324.62 -3.12471 -1.8178 0
M  V30 24403 O 2324.35 -4.26272 -1.01111 0
M  V30 24404 C 2325.85 -3.54269 -2.66474 0
M  V30 24405 H 2323.07 -0.614342 -0.269861 0
M  V30 24406 H 2325.61 -2.0356 -0.195802 0
M  V30 24407 H 2323.77 -2.95827 -2.50131 0
M  V30 24408 H 2324.18 -4.98872 -1.61947 0
M  V30 24409 H 2325.65 -4.46391 -3.24714 0
M  V30 24410 H 2326.13 -2.77497 -3.40429 0
M  V30 24411 H 2326.74 -3.73461 -2.03487 0
M  V30 24412 N 2325.05 0.45796 -1.50799 0
M  V30 24413 C 2326.3 1.21085 -1.62685 0
M  V30 24414 C 2326.63 1.91336 -0.332301 0
M  V30 24415 O 2325.91 1.82705 0.667011 0
M  V30 24416 C 2326.19 2.24417 -2.81619 0
M  V30 24417 C 2326.04 1.58384 -4.20992 0
M  V30 24418 C 2327.36 3.25605 -2.9609 0
M  V30 24419 H 2324.48 0.438853 -0.592095 0
M  V30 24420 H 2327.12 0.502828 -1.83226 0
M  V30 24421 H 2325.27 2.84801 -2.64236 0
M  V30 24422 H 2326.94 1.01496 -4.49996 0
M  V30 24423 H 2325.19 0.886629 -4.24643 0
M  V30 24424 H 2325.86 2.33538 -5.00164 0
M  V30 24425 H 2328.33 2.75256 -3.12047 0
M  V30 24426 H 2327.21 3.95221 -3.80909 0
M  V30 24427 H 2327.47 3.90503 -2.07267 0
M  V30 24428 N 2326.53 1.40598 0.712035 0
M  V30 24429 C 2327.81 1.29565 1.46534 0
M  V30 24430 C 2328.19 -0.0843847 2.10931 0
M  V30 24431 O 2327.53 -1.09746 2.0042 0
M  V30 24432 C 2327.74 2.43706 2.49817 0
M  V30 24433 C 2329.09 2.84106 3.15546 0
M  V30 24434 O 2330.12 2.43325 2.60138 0
M  V30 24435 O 2328.98 3.54573 4.15861 0
M  V30 24436 H 2326.07 0.509015 0.651792 0
M  V30 24437 H 2328.62 1.52526 0.743908 0
M  V30 24438 H 2327.39 3.35866 2.00772 0
M  V30 24439 H 2327.01 2.22534 3.29491 0
M  V30 24440 N 2328.01 -0.94462 1.26153 0
M  V30 24441 C 2328.96 -2.06415 1.07218 0
M  V30 24442 C 2329.95 -1.694 0.000121783 0
M  V30 24443 O 2331.16 -1.79318 0.156531 0
M  V30 24444 H 2327.53 -0.675799 0.329849 0
M  V30 24445 H 2329.5 -2.19538 2.02103 0
M  V30 24446 C 2328.25 -3.402 0.718257 0
M  V30 24447 H 2327.57 -3.69157 1.53504 0
M  V30 24448 H 2329.01 -4.1936 0.625533 0
M  V30 24449 C 2327.47 -3.31933 -0.576376 0
M  V30 24450 O 2328 -3.67776 -1.61567 0
M  V30 24451 N 2326.21 -2.8504 -0.565731 0
M  V30 24452 H 2325.76 -2.56069 0.280412 0
M  V30 24453 H 2325.71 -2.79891 -1.43208 0
M  V30 24454 N 2329.49 -1.07901 -1.1487 0
M  V30 24455 C 2330.73 -0.800531 -1.85133 0
M  V30 24456 C 2331.05 0.675982 -1.83548 0
M  V30 24457 O 2332.25 1.06944 -2.4955 0
M  V30 24458 C 2330.71 -1.38203 -3.32307 0
M  V30 24459 C 2330.32 -2.88996 -3.42323 0
M  V30 24460 C 2332.06 -1.18181 -4.07717 0
M  V30 24461 C 2329.97 -3.40309 -4.83678 0
M  V30 24462 H 2328.9 -0.295792 -0.693558 0
M  V30 24463 H 2331.55 -1.29978 -1.29529 0
M  V30 24464 H 2329.93 -0.8105 -3.87617 0
M  V30 24465 H 2331.11 -3.52241 -2.97091 0
M  V30 24466 H 2329.42 -3.07872 -2.80364 0
M  V30 24467 H 2332.02 -1.53989 -5.12046 0
M  V30 24468 H 2332.36 -0.121244 -4.16123 0
M  V30 24469 H 2332.89 -1.72 -3.58693 0
M  V30 24470 H 2329.63 -4.45916 -4.80458 0
M  V30 24471 H 2329.15 -2.8182 -5.29469 0
M  V30 24472 H 2330.83 -3.36593 -5.52552 0
M  V30 24473 N 2330.96 1.31811 -0.863929 0
M  V30 24474 C 2331.91 2.30601 -0.304261 0
M  V30 24475 C 2332.91 1.59256 0.577391 0
M  V30 24476 O 2334.11 1.73912 0.464163 0
M  V30 24477 H 2330.49 0.747765 -0.0797008 0
M  V30 24478 H 2332.46 2.75286 -1.15153 0
M  V30 24479 C 2331.21 3.44307 0.484556 0
M  V30 24480 H 2330.53 3.99374 -0.18458 0
M  V30 24481 H 2331.97 4.15564 0.841591 0
M  V30 24482 C 2330.43 2.92399 1.67345 0
M  V30 24483 O 2330.96 2.90664 2.77268 0
M  V30 24484 N 2329.16 2.48678 1.50358 0
M  V30 24485 H 2328.71 2.50289 0.609358 0
M  V30 24486 H 2328.67 2.14303 2.30047 0
M  V30 24487 N 2332.44 0.62277 1.44773 0
M  V30 24488 C 2333.37 -0.0741451 2.33382 0
M  V30 24489 C 2334.35 -0.843361 1.47721 0
M  V30 24490 O 2335.54 -0.810903 1.7646 0
M  V30 24491 C 2332.67 -1.06198 3.30665 0
M  V30 24492 C 2331.62 -0.404962 4.2608 0
M  V30 24493 C 2330.95 -1.50211 5.13167 0
M  V30 24494 C 2332.25 0.683505 5.17808 0
M  V30 24495 H 2333.94 0.665765 2.91904 0
M  V30 24496 H 2331.49 0.321611 1.40363 0
M  V30 24497 H 2333.44 -1.5582 3.91533 0
M  V30 24498 H 2332.16 -1.83267 2.70334 0
M  V30 24499 H 2330.82 0.0705327 3.66532 0
M  V30 24500 H 2330.47 -2.26347 4.49195 0
M  V30 24501 H 2330.17 -1.06792 5.77814 0
M  V30 24502 H 2331.7 -2.00031 5.76906 0
M  V30 24503 H 2333.11 0.270731 5.7266 0
M  V30 24504 H 2331.51 1.04034 5.91014 0
M  V30 24505 H 2332.58 1.55403 4.59323 0
M  V30 24506 N 2333.92 -1.53367 0.362817 0
M  V30 24507 C 2334.87 -2.2242 -0.501352 0
M  V30 24508 C 2335.85 -1.21842 -1.05088 0
M  V30 24509 O 2337.05 -1.47302 -0.981378 0
M  V30 24510 C 2334.17 -3.01487 -1.64196 0
M  V30 24511 C 2333.26 -4.09439 -1.10545 0
M  V30 24512 N 2333.65 -5.04958 -0.291699 0
M  V30 24513 C 2331.95 -4.24096 -1.38052 0
M  V30 24514 C 2332.65 -5.817 0.0017288 0
M  V30 24515 N 2331.63 -5.40332 -0.595149 0
M  V30 24516 H 2335.43 -2.93625 0.127211 0
M  V30 24517 H 2332.94 -1.61501 0.170687 0
M  V30 24518 H 2334.94 -3.49473 -2.2732 0
M  V30 24519 H 2333.6 -2.31813 -2.27361 0
M  V30 24520 H 2334.61 -5.17854 0.0688642 0
M  V30 24521 H 2331.29 -3.65647 -2.01515 0
M  V30 24522 H 2332.68 -6.68657 0.659396 0
M  V30 24523 N 2335.4 -0.091913 -1.57332 0
M  V30 24524 C 2336.63 0.581013 -1.98575 0
M  V30 24525 C 2337.04 1.61921 -0.970931 0
M  V30 24526 O 2336.4 1.82456 0.0398733 0
M  V30 24527 C 2336.45 1.23158 -3.39874 0
M  V30 24528 O 2336.17 0.234912 -4.3747 0
M  V30 24529 C 2337.67 1.99042 -3.96103 0
M  V30 24530 H 2334.89 0.156007 -0.652612 0
M  V30 24531 H 2337.44 -0.170261 -2.0379 0
M  V30 24532 H 2335.59 1.9338 -3.35683 0
M  V30 24533 H 2336 0.704089 -5.19753 0
M  V30 24534 H 2337.48 2.39925 -4.97132 0
M  V30 24535 H 2337.96 2.85501 -3.33745 0
M  V30 24536 H 2338.56 1.33642 -4.03757 0
M  V30 24537 N 2336.88 1.56548 0.181765 0
M  V30 24538 C 2337.81 1.92144 1.24953 0
M  V30 24539 C 2338.82 0.813446 1.41021 0
M  V30 24540 O 2340.01 1.09188 1.4121 0
M  V30 24541 C 2337.11 2.14991 2.61977 0
M  V30 24542 C 2336.28 3.46188 2.67344 0
M  V30 24543 C 2335.34 3.57987 3.85657 0
M  V30 24544 O 2334.37 4.30697 3.72141 0
M  V30 24545 N 2335.57 2.92062 5.01677 0
M  V30 24546 H 2338.34 2.84336 0.947279 0
M  V30 24547 H 2335.9 1.57578 0.371602 0
M  V30 24548 H 2337.89 2.2016 3.39576 0
M  V30 24549 H 2336.46 1.29235 2.84635 0
M  V30 24550 H 2335.68 3.52769 1.75919 0
M  V30 24551 H 2336.97 4.32539 2.67931 0
M  V30 24552 H 2336.36 2.32841 5.1556 0
M  V30 24553 H 2334.92 3.0284 5.77175 0
M  V30 24554 N 2338.35 -0.449957 1.5104 0
M  V30 24555 C 2339.6 -1.2022 1.63325 0
M  V30 24556 C 2339.93 -1.91157 0.342444 0
M  V30 24557 O 2339.21 -1.83056 -0.657312 0
M  V30 24558 C 2339.49 -2.2292 2.82805 0
M  V30 24559 C 2339.34 -1.5615 4.21826 0
M  V30 24560 C 2340.66 -3.2403 2.97813 0
M  V30 24561 H 2337.78 -0.435707 0.594414 0
M  V30 24562 H 2340.42 -0.493104 1.8349 0
M  V30 24563 H 2338.57 -2.83396 2.65743 0
M  V30 24564 H 2340.25 -0.991083 4.50528 0
M  V30 24565 H 2338.49 -0.864097 4.25107 0
M  V30 24566 H 2339.16 -2.30882 5.01396 0
M  V30 24567 H 2341.64 -2.73598 3.13502 0
M  V30 24568 H 2340.51 -3.93196 3.82999 0
M  V30 24569 H 2340.77 -3.89398 2.09335 0
M  V30 24570 N 2339.83 -1.40974 -0.704569 0
M  V30 24571 C 2341.08 -1.40054 -1.46672 0
M  V30 24572 C 2341.41 -0.00644516 -1.94199 0
M  V30 24573 O 2340.69 0.964205 -1.68918 0
M  V30 24574 C 2340.97 -2.39957 -2.68501 0
M  V30 24575 C 2340.82 -3.88436 -2.26798 0
M  V30 24576 C 2342.14 -2.3724 -3.70682 0
M  V30 24577 H 2339.26 -0.510038 -0.532006 0
M  V30 24578 H 2341.9 -1.72187 -0.803225 0
M  V30 24579 H 2340.05 -2.12686 -3.25111 0
M  V30 24580 H 2341.72 -4.26577 -1.75585 0
M  V30 24581 H 2339.97 -4.03737 -1.58678 0
M  V30 24582 H 2340.64 -4.53871 -3.14173 0
M  V30 24583 H 2343.11 -2.6142 -3.23726 0
M  V30 24584 H 2341.99 -3.0917 -4.53547 0
M  V30 24585 H 2342.25 -1.38784 -4.19752 0
M  V30 24586 N 2341.31 0.937917 -1.26653 0
M  V30 24587 C 2342.59 1.66202 -1.03132 0
M  V30 24588 C 2342.97 2.06523 0.437219 0
M  V30 24589 O 2342.32 1.79156 1.41828 0
M  V30 24590 C 2342.53 2.87177 -1.98319 0
M  V30 24591 C 2343.87 3.58754 -2.27113 0
M  V30 24592 O 2344.9 2.97287 -1.96211 0
M  V30 24593 O 2343.76 4.69474 -2.79744 0
M  V30 24594 H 2340.85 0.727979 -0.392396 0
M  V30 24595 H 2343.4 0.989358 -1.37876 0
M  V30 24596 H 2342.17 2.54296 -2.97404 0
M  V30 24597 H 2341.79 3.62167 -1.64075 0
M  V30 24598 N 2342.79 1.08509 1.14296 0
M  V30 24599 C 2343.72 0.660043 2.18446 0
M  V30 24600 C 2344.7 -0.328721 1.59243 0
M  V30 24601 O 2345.88 -0.232334 1.87063 0
M  V30 24602 C 2343.01 -0.0290212 3.38688 0
M  V30 24603 C 2342.06 0.920056 4.16458 0
M  V30 24604 S 2342.89 2.42727 4.7733 0
M  V30 24605 C 2344.05 1.75034 6.00928 0
M  V30 24606 H 2344.28 1.54235 2.54163 0
M  V30 24607 H 2341.81 0.900171 1.25444 0
M  V30 24608 H 2343.77 -0.420306 4.08343 0
M  V30 24609 H 2342.43 -0.887842 3.01291 0
M  V30 24610 H 2341.62 0.38484 5.02529 0
M  V30 24611 H 2341.23 1.25229 3.52411 0
M  V30 24612 H 2343.52 1.06889 6.69015 0
M  V30 24613 H 2344.46 2.58983 6.5904 0
M  V30 24614 H 2344.87 1.22326 5.51087 0
M  V30 24615 N 2344.27 -1.31351 0.870907 0
M  V30 24616 C 2345.49 -2.01382 0.495992 0
M  V30 24617 C 2345.92 -1.64937 -0.904295 0
M  V30 24618 O 2345.27 -0.858494 -1.59686 0
M  V30 24619 C 2345.32 -3.54481 0.661496 0
M  V30 24620 O 2344.43 -4.11316 -0.298778 0
M  V30 24621 H 2343.77 -0.634051 0.197169 0
M  V30 24622 H 2346.3 -1.67525 1.17458 0
M  V30 24623 H 2346.31 -4.04206 0.555143 0
M  V30 24624 H 2344.98 -3.80347 1.68253 0
M  V30 24625 H 2343.56 -3.72609 -0.147303 0
M  V30 24626 N 2345.74 -0.630439 -1.44441 0
M  V30 24627 C 2346.68 0.124207 -2.27862 0
M  V30 24628 C 2347.66 0.851907 -1.38497 0
M  V30 24629 O 2348.84 0.856136 -1.67936 0
M  V30 24630 C 2345.97 1.18191 -3.17409 0
M  V30 24631 C 2345.01 0.554817 -4.22876 0
M  V30 24632 S 2345.85 -0.654583 -5.31484 0
M  V30 24633 C 2347 0.40315 -6.246 0
M  V30 24634 H 2347.23 -0.583486 -2.91518 0
M  V30 24635 H 2344.77 -0.418591 -1.48618 0
M  V30 24636 H 2346.73 1.78722 -3.69552 0
M  V30 24637 H 2345.39 1.86179 -2.52974 0
M  V30 24638 H 2344.58 1.3514 -4.85544 0
M  V30 24639 H 2344.18 0.0241448 -3.73992 0
M  V30 24640 H 2346.47 1.2759 -6.65377 0
M  V30 24641 H 2347.42 -0.187937 -7.07851 0
M  V30 24642 H 2347.82 0.728739 -5.59776 0
M  V30 24643 N 2347.22 1.53172 -0.370945 0
M  V30 24644 C 2348.45 2.05752 0.217668 0
M  V30 24645 C 2348.87 1.24406 1.42016 0
M  V30 24646 O 2348.22 0.286065 1.80244 0
M  V30 24647 C 2348.27 3.56386 0.605891 0
M  V30 24648 O 2347.99 4.34649 -0.54881 0
M  V30 24649 C 2349.5 4.25243 1.25232 0
M  V30 24650 H 2346.72 0.669971 0.0371541 0
M  V30 24651 H 2349.26 1.97489 -0.530867 0
M  V30 24652 H 2347.41 3.64782 1.30434 0
M  V30 24653 H 2347.83 5.23978 -0.233852 0
M  V30 24654 H 2349.3 5.31943 1.47448 0
M  V30 24655 H 2349.78 3.793 2.21423 0
M  V30 24656 H 2350.39 4.21115 0.595159 0
M  V30 24657 N 2348.7 0.100255 1.57281 0
M  V30 24658 C 2349.93 -0.569647 1.98592 0
M  V30 24659 C 2350.34 -1.61942 0.978343 0
M  V30 24660 O 2349.68 -1.83657 -0.0395786 0
M  V30 24661 C 2349.74 -1.27094 3.36284 0
M  V30 24662 C 2349.41 -0.371329 4.55489 0
M  V30 24663 C 2350.4 0.382595 5.1849 0
M  V30 24664 C 2348.09 -0.287877 5.01474 0
M  V30 24665 C 2350.08 1.2079 6.2585 0
M  V30 24666 C 2347.77 0.541072 6.087 0
M  V30 24667 C 2348.77 1.2876 6.70753 0
M  V30 24668 O 2348.46 2.10283 7.7591 0
M  V30 24669 H 2348.19 -0.15697 0.657523 0
M  V30 24670 H 2350.74 0.17777 2.04629 0
M  V30 24671 H 2348.97 -2.06504 3.26945 0
M  V30 24672 H 2350.66 -1.83589 3.62008 0
M  V30 24673 H 2351.43 0.327885 4.8389 0
M  V30 24674 H 2347.31 -0.858609 4.52934 0
M  V30 24675 H 2350.85 1.79108 6.74215 0
M  V30 24676 H 2346.75 0.597244 6.42731 0
M  V30 24677 H 2347.52 2.03021 7.92922 0
M  V30 24678 N 2350.18 -1.56643 -0.17346 0
M  V30 24679 C 2351.43 -1.81513 -0.888674 0
M  V30 24680 C 2351.75 -0.676904 -1.82874 0
M  V30 24681 O 2351.02 0.30338 -1.93537 0
M  V30 24682 H 2349.6 -0.669588 -0.331152 0
M  V30 24683 H 2352.26 -1.94124 -0.173789 0
M  V30 24684 H 2351.36 -2.75481 -1.46686 0
M  V30 24685 N 2351.66 0.44194 -1.51277 0
M  V30 24686 C 2352.59 1.5543 -1.68446 0
M  V30 24687 C 2353.6 1.52673 -0.565214 0
M  V30 24688 O 2354.79 1.57533 -0.839383 0
M  V30 24689 C 2351.89 2.94345 -1.67971 0
M  V30 24690 C 2351.06 3.21656 -2.96405 0
M  V30 24691 C 2350.12 4.40272 -2.88179 0
M  V30 24692 O 2349.15 4.39151 -3.62126 0
M  V30 24693 N 2350.35 5.43581 -2.03716 0
M  V30 24694 H 2353.12 1.41108 -2.64403 0
M  V30 24695 H 2350.68 0.630812 -1.49105 0
M  V30 24696 H 2352.67 3.71711 -1.60042 0
M  V30 24697 H 2351.24 3.02288 -0.796278 0
M  V30 24698 H 2350.46 2.32633 -3.18238 0
M  V30 24699 H 2351.75 3.36729 -3.81433 0
M  V30 24700 H 2351.15 5.47326 -1.43005 0
M  V30 24701 H 2349.7 6.19817 -2.01669 0
M  V30 24702 N 2353.14 1.41345 0.697083 0
M  V30 24703 C 2354.07 1.39005 1.82237 0
M  V30 24704 C 2355.08 0.292457 1.60152 0
M  V30 24705 O 2356.27 0.554078 1.69683 0
M  V30 24706 C 2353.37 1.14494 3.18974 0
M  V30 24707 C 2352.54 2.36264 3.68101 0
M  V30 24708 C 2351.6 2.07633 4.83503 0
M  V30 24709 O 2350.63 2.80659 4.95196 0
M  V30 24710 N 2351.83 1.06565 5.70635 0
M  V30 24711 H 2354.59 2.35992 1.84738 0
M  V30 24712 H 2352.16 1.35938 0.879346 0
M  V30 24713 H 2354.15 0.932954 3.938 0
M  V30 24714 H 2352.72 0.261098 3.11508 0
M  V30 24715 H 2351.94 2.73175 2.84199 0
M  V30 24716 H 2353.23 3.174 3.97661 0
M  V30 24717 H 2352.62 0.461224 5.63817 0
M  V30 24718 H 2351.18 0.913557 6.45366 0
M  V30 24719 N 2354.61 -0.931187 1.27148 0
M  V30 24720 C 2355.86 -1.6785 1.13281 0
M  V30 24721 C 2356.19 -1.91816 -0.322006 0
M  V30 24722 O 2355.44 -1.50393 -1.25221 0
M  V30 24723 C 2355.74 -3.05311 1.85795 0
M  V30 24724 C 2355.41 -3.01067 3.35663 0
M  V30 24725 C 2354.07 -2.99617 3.76541 0
M  V30 24726 C 2356.42 -2.9262 4.31304 0
M  V30 24727 C 2353.75 -2.87497 5.11431 0
M  V30 24728 C 2356.1 -2.82041 5.66247 0
M  V30 24729 C 2354.77 -2.78939 6.06423 0
M  V30 24730 H 2354.04 -0.614206 0.414526 0
M  V30 24731 H 2356.68 -1.08621 1.57714 0
M  V30 24732 H 2354.99 -3.68223 1.33861 0
M  V30 24733 H 2356.69 -3.62002 1.72497 0
M  V30 24734 H 2353.28 -3.02981 3.03151 0
M  V30 24735 H 2357.46 -2.92841 4.00697 0
M  V30 24736 H 2352.72 -2.8348 5.4171 0
M  V30 24737 H 2356.89 -2.7447 6.40031 0
M  V30 24738 H 2354.52 -2.69305 7.109 0
M  V30 24739 N 2356.09 -1.09114 -1.13719 0
M  V30 24740 C 2357.34 -0.823594 -1.84557 0
M  V30 24741 C 2357.66 0.652625 -1.83755 0
M  V30 24742 O 2356.93 1.47339 -1.29104 0
M  V30 24743 H 2355.51 -0.301685 -0.68337 0
M  V30 24744 H 2358.17 -1.37861 -1.37769 0
M  V30 24745 H 2357.27 -1.17425 -2.89168 0
M  V30 24746 N 2357.57 1.30887 -0.877861 0
M  V30 24747 C 2358.98 1.78592 -0.544224 0
M  V30 24748 C 2359.33 1.72256 0.939271 0
M  V30 24749 O 2358.46 1.29508 1.73368 0
M  V30 24750 C 2359.05 3.24283 -0.981107 0
M  V30 24751 C 2357.61 3.69853 -0.699 0
M  V30 24752 C 2356.76 2.51499 -1.16805 0
M  V30 24753 H 2359.71 1.17857 -1.0628 0
M  V30 24754 H 2359.73 3.79259 -0.307076 0
M  V30 24755 H 2359.24 3.28863 -2.06085 0
M  V30 24756 H 2357.34 3.70768 0.369046 0
M  V30 24757 H 2357.46 4.61641 -1.28156 0
M  V30 24758 H 2355.82 2.4783 -0.587578 0
M  V30 24759 H 2356.6 2.5882 -2.25537 0
M  V30 24760 N 2359.05 0.638091 1.44105 0
M  V30 24761 C 2360.28 0.152651 2.06336 0
M  V30 24762 C 2360.69 -1.1756 1.47733 0
M  V30 24763 O 2360.05 -1.72256 0.602836 0
M  V30 24764 C 2360.1 0.0392126 3.61479 0
M  V30 24765 O 2359.82 1.31495 4.179 0
M  V30 24766 C 2361.32 -0.474099 4.40758 0
M  V30 24767 H 2358.54 0.0828893 0.665861 0
M  V30 24768 H 2361.08 0.874463 1.8486 0
M  V30 24769 H 2359.24 -0.633075 3.82192 0
M  V30 24770 H 2359.65 1.1643 5.11414 0
M  V30 24771 H 2361.13 -0.502466 5.49708 0
M  V30 24772 H 2361.6 -1.50251 4.127 0
M  V30 24773 H 2362.21 0.165176 4.24979 0
M  V30 24774 N 2360.53 -1.52973 0.379063 0
M  V30 24775 C 2361.76 -2.05566 -0.206454 0
M  V30 24776 C 2362.16 -1.25139 -1.41904 0
M  V30 24777 O 2361.51 -0.288496 -1.8142 0
M  V30 24778 C 2361.57 -3.53556 -0.651024 0
M  V30 24779 C 2361.23 -4.54812 0.446706 0
M  V30 24780 C 2362.23 -5.03362 1.30087 0
M  V30 24781 C 2359.91 -4.98572 0.610807 0
M  V30 24782 C 2361.91 -5.94288 2.30436 0
M  V30 24783 C 2359.6 -5.89301 1.61765 0
M  V30 24784 C 2360.59 -6.3705 2.46285 0
M  V30 24785 O 2360.28 -7.25988 3.45249 0
M  V30 24786 H 2360.01 -0.674974 -0.0372262 0
M  V30 24787 H 2362.57 -1.98181 0.539753 0
M  V30 24788 H 2360.8 -3.58524 -1.44905 0
M  V30 24789 H 2362.49 -3.8894 -1.16105 0
M  V30 24790 H 2363.25 -4.70292 1.18535 0
M  V30 24791 H 2359.13 -4.60985 -0.0373234 0
M  V30 24792 H 2362.68 -6.3148 2.96443 0
M  V30 24793 H 2358.57 -6.21785 1.73359 0
M  V30 24794 H 2359.34 -7.44021 3.41137 0
M  V30 24795 N 2362 -0.108595 -1.57225 0
M  V30 24796 C 2362.93 0.842282 -2.17779 0
M  V30 24797 C 2363.91 1.28469 -1.11489 0
M  V30 24798 O 2365.1 1.34916 -1.39683 0
M  V30 24799 C 2362.23 2.09639 -2.76891 0
M  V30 24800 C 2361.18 1.79214 -3.88673 0
M  V30 24801 C 2360.51 3.11567 -4.34546 0
M  V30 24802 C 2361.81 1.06855 -5.11253 0
M  V30 24803 H 2363.5 0.337721 -2.97489 0
M  V30 24804 H 2361.05 0.161 -1.43097 0
M  V30 24805 H 2363 2.76608 -3.17909 0
M  V30 24806 H 2361.73 2.62401 -1.94456 0
M  V30 24807 H 2360.39 1.14638 -3.48215 0
M  V30 24808 H 2360.03 3.62243 -3.48983 0
M  V30 24809 H 2359.73 2.91987 -5.09919 0
M  V30 24810 H 2361.26 3.79672 -4.78207 0
M  V30 24811 H 2362.67 1.63958 -5.49355 0
M  V30 24812 H 2361.07 0.974074 -5.92142 0
M  V30 24813 H 2362.14 0.0535316 -4.8487 0
M  V30 24814 N 2363.48 1.56732 0.16515 0
M  V30 24815 C 2364.76 1.73226 0.908412 0
M  V30 24816 C 2365.14 0.671685 2.00129 0
M  V30 24817 O 2364.49 -0.312491 2.26353 0
M  V30 24818 C 2364.7 3.16647 1.4675 0
M  V30 24819 C 2366.04 3.77791 1.93802 0
M  V30 24820 O 2367.07 3.19963 1.56531 0
M  V30 24821 O 2365.93 4.79341 2.62478 0
M  V30 24822 H 2363.02 0.707626 0.428013 0
M  V30 24823 H 2365.57 1.69013 0.152496 0
M  V30 24824 H 2364.34 3.85325 0.681222 0
M  V30 24825 H 2363.96 3.25211 2.28743 0
M  V30 24826 N 2364.96 -0.433911 1.51509 0
M  V30 24827 C 2366.21 -1.18072 1.64022 0
M  V30 24828 C 2366.53 -1.91641 0.360361 0
M  V30 24829 O 2365.8 -1.85699 -0.623912 0
M  V30 24830 H 2364.38 -0.438839 0.604507 0
M  V30 24831 H 2367.04 -0.497145 1.88453 0
M  V30 24832 H 2366.14 -1.90842 2.46953 0
M  V30 24833 N 2366.44 -1.41713 -0.689577 0
M  V30 24834 C 2367.4 -1.43749 -1.78518 0
M  V30 24835 C 2368.4 -0.327218 -1.57435 0
M  V30 24836 O 2369.59 -0.587377 -1.63999 0
M  V30 24837 C 2366.72 -1.25473 -3.16969 0
M  V30 24838 H 2367.92 -2.41286 -1.78104 0
M  V30 24839 H 2365.47 -1.27943 -0.897787 0
M  V30 24840 H 2366.2 -0.288005 -3.23019 0
M  V30 24841 H 2365.99 -2.05923 -3.33674 0
M  V30 24842 H 2367.48 -1.29747 -3.96933 0
M  V30 24843 N 2367.92 0.924431 -1.2764 0
M  V30 24844 C 2369.19 1.65099 -1.04889 0
M  V30 24845 C 2369.57 2.06975 0.41529 0
M  V30 24846 O 2368.92 1.80651 1.3992 0
M  V30 24847 C 2369.13 2.85058 -2.01353 0
M  V30 24848 C 2370.48 3.56325 -2.30906 0
M  V30 24849 O 2371.5 2.9519 -1.99353 0
M  V30 24850 O 2370.36 4.6648 -2.84708 0
M  V30 24851 H 2367.46 0.723777 -0.400096 0
M  V30 24852 H 2370 0.974679 -1.38918 0
M  V30 24853 H 2368.77 2.51128 -3.00084 0
M  V30 24854 H 2368.4 3.60407 -1.67907 0
M  V30 24855 N 2369.39 1.09715 1.13139 0
M  V30 24856 C 2370.64 0.836257 1.84755 0
M  V30 24857 C 2370.97 -0.636566 1.83471 0
M  V30 24858 O 2370.25 -1.46887 1.27493 0
M  V30 24859 C 2370.53 1.37584 3.3278 0
M  V30 24860 C 2370.38 2.91499 3.42562 0
M  V30 24861 C 2371.7 1.01206 4.28305 0
M  V30 24862 H 2368.82 0.305248 0.670815 0
M  V30 24863 H 2371.46 1.35905 1.32777 0
M  V30 24864 H 2369.61 0.931164 3.77176 0
M  V30 24865 H 2371.29 3.44438 3.06856 0
M  V30 24866 H 2369.53 3.2848 2.83343 0
M  V30 24867 H 2370.2 3.24332 4.46668 0
M  V30 24868 H 2372.68 1.39563 3.91997 0
M  V30 24869 H 2371.55 1.41662 5.30305 0
M  V30 24870 H 2371.81 -0.0794056 4.42029 0
M  V30 24871 N 2370.87 -1.30419 0.88479 0
M  V30 24872 C 2372.1 -2.00309 0.51808 0
M  V30 24873 C 2372.52 -1.66326 -0.893378 0
M  V30 24874 O 2371.87 -0.90029 -1.58748 0
M  V30 24875 C 2371.92 -3.54988 0.68306 0
M  V30 24876 O 2371.64 -3.87761 2.03895 0
M  V30 24877 C 2373.15 -4.42148 0.319317 0
M  V30 24878 H 2370.37 -0.640414 0.200277 0
M  V30 24879 H 2372.91 -1.66308 1.19004 0
M  V30 24880 H 2371.06 -3.87356 0.0584733 0
M  V30 24881 H 2371.48 -4.82462 2.05744 0
M  V30 24882 H 2372.95 -5.49859 0.485652 0
M  V30 24883 H 2373.43 -4.32876 -0.74264 0
M  V30 24884 H 2374.04 -4.15225 0.92022 0
M  V30 24885 N 2372.35 -0.645724 -1.43764 0
M  V30 24886 C 2373.3 0.0504242 -2.30745 0
M  V30 24887 C 2374.27 0.822216 -1.44322 0
M  V30 24888 O 2375.45 0.800328 -1.73203 0
M  V30 24889 C 2372.59 1.01605 -3.29804 0
M  V30 24890 C 2371.71 0.241144 -4.31326 0
M  V30 24891 C 2370.84 1.19989 -5.17471 0
M  V30 24892 C 2369.88 0.414987 -6.10692 0
M  V30 24893 N 2369.02 1.32494 -6.89485 0
M  V30 24894 H 2373.86 -0.697206 -2.89729 0
M  V30 24895 H 2371.39 -0.355588 -1.42737 0
M  V30 24896 H 2373.35 1.58942 -3.85737 0
M  V30 24897 H 2371.98 1.73064 -2.72486 0
M  V30 24898 H 2371.03 -0.4484 -3.77748 0
M  V30 24899 H 2372.35 -0.369525 -4.97429 0
M  V30 24900 H 2371.5 1.84414 -5.77993 0
M  V30 24901 H 2370.24 1.84447 -4.51476 0
M  V30 24902 H 2369.24 -0.242662 -5.49264 0
M  V30 24903 H 2370.47 -0.225085 -6.78727 0
M  V30 24904 H 2368.41 1.95646 -6.26146 0
M  V30 24905 H 2368.33 0.76865 -7.52082 0
M  V30 24906 H 2369.6 1.95757 -7.54519 0
M  V30 24907 N 2373.83 1.5277 -0.38717 0
M  V30 24908 C 2375.08 2.00736 0.196934 0
M  V30 24909 C 2375.39 1.27796 1.4808 0
M  V30 24910 O 2376.6 1.66462 2.14482 0
M  V30 24911 C 2375.05 3.57653 0.401505 0
M  V30 24912 C 2374.66 4.39491 -0.868984 0
M  V30 24913 C 2376.4 4.13914 0.942091 0
M  V30 24914 C 2374.31 5.88005 -0.632808 0
M  V30 24915 H 2373.24 0.75002 0.0773695 0
M  V30 24916 H 2375.89 1.76292 -0.509241 0
M  V30 24917 H 2374.27 3.78337 1.16948 0
M  V30 24918 H 2375.45 4.30575 -1.64141 0
M  V30 24919 H 2373.76 3.94441 -1.33436 0
M  V30 24920 H 2376.36 5.22527 1.13446 0
M  V30 24921 H 2376.7 3.69871 1.91053 0
M  V30 24922 H 2377.24 3.97113 0.233744 0
M  V30 24923 H 2373.98 6.36367 -1.57219 0
M  V30 24924 H 2373.5 5.99715 0.10072 0
M  V30 24925 H 2375.17 6.46451 -0.266534 0
M  V30 24926 N 2375.31 0.116931 1.57166 0
M  V30 24927 C 2376.25 -0.834042 2.15203 0
M  V30 24928 C 2377.22 -1.26497 1.07646 0
M  V30 24929 O 2378.41 -1.34286 1.35543 0
M  V30 24930 C 2375.55 -2.07952 2.75409 0
M  V30 24931 C 2374.66 -1.69714 3.97267 0
M  V30 24932 C 2373.8 -2.89213 4.45566 0
M  V30 24933 C 2372.84 -2.47205 5.59961 0
M  V30 24934 N 2371.97 -3.59611 6.03013 0
M  V30 24935 H 2376.81 -0.332283 2.96142 0
M  V30 24936 H 2374.35 -0.152323 1.46309 0
M  V30 24937 H 2376.31 -2.80923 3.08444 0
M  V30 24938 H 2374.94 -2.5559 1.97163 0
M  V30 24939 H 2373.99 -0.866251 3.70406 0
M  V30 24940 H 2375.3 -1.34841 4.80228 0
M  V30 24941 H 2374.46 -3.70412 4.805 0
M  V30 24942 H 2373.19 -3.27312 3.6155 0
M  V30 24943 H 2372.2 -1.64439 5.24633 0
M  V30 24944 H 2373.42 -2.10226 6.45741 0
M  V30 24945 H 2371.37 -3.97387 5.21938 0
M  V30 24946 H 2371.29 -3.28655 6.80825 0
M  V30 24947 H 2372.56 -4.41255 6.42584 0
M  V30 24948 N 2376.78 -1.56818 -0.156836 0
M  V30 24949 C 2378.2 -1.72346 -0.717886 0
M  V30 24950 C 2378.55 -0.729779 -1.82123 0
M  V30 24951 O 2377.67 0.105743 -2.16141 0
M  V30 24952 C 2378.27 -3.12492 -1.30898 0
M  V30 24953 C 2376.83 -3.29656 -1.8167 0
M  V30 24954 C 2375.97 -2.68285 -0.701302 0
M  V30 24955 H 2378.92 -1.58551 0.0687268 0
M  V30 24956 H 2378.94 -3.11946 -2.17876 0
M  V30 24957 H 2378.46 -3.84791 -0.505728 0
M  V30 24958 H 2376.56 -2.62337 -2.64594 0
M  V30 24959 H 2376.67 -4.37523 -1.95218 0
M  V30 24960 H 2375.03 -2.28486 -1.12544 0
M  V30 24961 H 2375.82 -3.43181 0.0903449 0
M  V30 24962 N 2378.26 0.425871 -1.51737 0
M  V30 24963 C 2379.21 1.51642 -1.70261 0
M  V30 24964 C 2380.2 1.50969 -0.556515 0
M  V30 24965 O 2381.39 1.57229 -0.812906 0
M  V30 24966 C 2378.52 2.89732 -1.84148 0
M  V30 24967 C 2377.6 2.95116 -3.04577 0
M  V30 24968 N 2377.99 2.70225 -4.27565 0
M  V30 24969 C 2376.29 3.26281 -3.04067 0
M  V30 24970 C 2376.99 2.81748 -5.08913 0
M  V30 24971 N 2375.97 3.13912 -4.43802 0
M  V30 24972 H 2379.77 1.31167 -2.63007 0
M  V30 24973 H 2377.29 0.633349 -1.49541 0
M  V30 24974 H 2379.28 3.68203 -1.95531 0
M  V30 24975 H 2377.94 3.11219 -0.925911 0
M  V30 24976 H 2378.95 2.44935 -4.56319 0
M  V30 24977 H 2375.63 3.53469 -2.22185 0
M  V30 24978 H 2377.02 2.66361 -6.16848 0
M  V30 24979 N 2379.74 1.42077 0.682052 0
M  V30 24980 C 2380.69 1.45211 1.81705 0
M  V30 24981 C 2381.68 0.32862 1.66182 0
M  V30 24982 O 2382.89 0.501294 1.72879 0
M  V30 24983 H 2379.26 0.454638 0.599006 0
M  V30 24984 H 2381.23 2.4084 1.76179 0
M  V30 24985 C 2379.98 1.36434 3.19814 0
M  V30 24986 H 2379.31 2.22177 3.32382 0
M  V30 24987 H 2380.75 1.42688 3.99269 0
M  V30 24988 C 2379.21 0.0782502 3.36809 0
M  V30 24989 O 2379.74 -0.871811 3.92125 0
M  V30 24990 N 2377.94 -0.00224158 2.906 0
M  V30 24991 H 2377.49 0.77166 2.45771 0
M  V30 24992 H 2377.45 -0.862126 3.02349 0
M  V30 24993 N 2381.22 -0.917649 1.28129 0
M  V30 24994 C 2382.44 -1.70553 1.1801 0
M  V30 24995 C 2382.87 -1.86319 -0.258224 0
M  V30 24996 O 2382.23 -1.37051 -1.18687 0
M  V30 24997 C 2382.28 -3.07743 1.87954 0
M  V30 24998 O 2381.38 -3.95028 1.18434 0
M  V30 24999 H 2380.72 -0.522396 0.409876 0
M  V30 25000 H 2383.25 -1.14767 1.69381 0
M  V30 25001 H 2383.26 -3.57998 1.95708 0
M  V30 25002 H 2381.94 -2.95586 2.92578 0
M  V30 25003 H 2380.51 -3.53464 1.18818 0
M  V30 25004 N 2382.7 -1.10314 -1.12555 0
M  V30 25005 C 2383.65 -0.720114 -2.16329 0
M  V30 25006 C 2384.63 0.270087 -1.58617 0
M  V30 25007 O 2385.82 0.0790196 -1.76824 0
M  V30 25008 C 2382.95 -0.152174 -3.42963 0
M  V30 25009 C 2382.04 -1.16934 -4.07661 0
M  V30 25010 N 2382.43 -2.35961 -4.47388 0
M  V30 25011 C 2380.73 -1.00958 -4.34423 0
M  V30 25012 C 2381.43 -3.00738 -4.97927 0
M  V30 25013 N 2380.4 -2.28261 -4.93354 0
M  V30 25014 H 2384.21 -1.6262 -2.4481 0
M  V30 25015 H 2381.72 -0.980677 -1.29447 0
M  V30 25016 H 2383.72 0.140297 -4.16664 0
M  V30 25017 H 2382.38 0.748646 -3.15952 0
M  V30 25018 H 2383.39 -2.73494 -4.39797 0
M  V30 25019 H 2380.07 -0.164208 -4.17177 0
M  V30 25020 H 2381.46 -4.01978 -5.38389 0
M  V30 25021 N 2384.18 1.29948 -0.891694 0
M  V30 25022 C 2385.09 2.317 -0.367732 0
M  V30 25023 C 2386.1 1.65621 0.533457 0
M  V30 25024 O 2387.28 1.96866 0.424963 0
M  V30 25025 C 2384.34 3.44346 0.403345 0
M  V30 25026 C 2383.4 4.26036 -0.528403 0
M  V30 25027 C 2382.64 5.33302 0.20597 0
M  V30 25028 O 2382.86 5.52156 1.43109 0
M  V30 25029 O 2381.79 6.00235 -0.447386 0
M  V30 25030 H 2385.62 2.78481 -1.21168 0
M  V30 25031 H 2383.2 1.3424 -0.655748 0
M  V30 25032 H 2385.09 4.1295 0.83968 0
M  V30 25033 H 2383.76 2.99687 1.22349 0
M  V30 25034 H 2382.67 3.60104 -1.01369 0
M  V30 25035 H 2384 4.74316 -1.31474 0
M  V30 25036 N 2385.65 0.653339 1.4342 0
M  V30 25037 C 2386.9 0.166451 2.01413 0
M  V30 25038 C 2387.22 -1.22394 1.51805 0
M  V30 25039 O 2386.49 -1.81761 0.730725 0
M  V30 25040 H 2385.07 0.058545 0.744702 0
M  V30 25041 H 2387.73 0.845034 1.75628 0
M  V30 25042 H 2386.83 0.151166 3.11734 0
M  V30 25043 N 2387.13 -1.52563 0.395266 0
M  V30 25044 C 2388.08 -2.26625 -0.436996 0
M  V30 25045 C 2389.05 -1.28474 -1.05278 0
M  V30 25046 O 2390.23 -1.57313 -1.07968 0
M  V30 25047 C 2387.37 -3.08072 -1.55518 0
M  V30 25048 C 2386.49 -4.2116 -0.961671 0
M  V30 25049 C 2385.62 -4.89991 -2.0514 0
M  V30 25050 C 2384.66 -5.95063 -1.4341 0
M  V30 25051 N 2383.8 -6.57466 -2.46339 0
M  V30 25052 H 2388.64 -2.97321 0.201028 0
M  V30 25053 H 2386.17 -1.46681 0.11097 0
M  V30 25054 H 2388.13 -3.53588 -2.2143 0
M  V30 25055 H 2386.76 -2.39573 -2.16343 0
M  V30 25056 H 2385.81 -3.79915 -0.191981 0
M  V30 25057 H 2387.13 -4.96575 -0.470614 0
M  V30 25058 H 2386.28 -5.38841 -2.7881 0
M  V30 25059 H 2385.02 -4.14113 -2.57607 0
M  V30 25060 H 2384.02 -5.45545 -0.682678 0
M  V30 25061 H 2385.25 -6.72876 -0.917298 0
M  V30 25062 H 2383.2 -5.84426 -2.97964 0
M  V30 25063 H 2383.11 -7.28512 -2.02006 0
M  V30 25064 H 2384.38 -7.10959 -3.1962 0
M  V30 25065 N 2388.61 -0.125265 -1.57101 0
M  V30 25066 C 2389.84 0.538761 -1.99762 0
M  V30 25067 C 2390.25 1.59825 -1.00506 0
M  V30 25068 O 2389.61 1.825 0.00116266 0
M  V30 25069 C 2389.66 1.15921 -3.4241 0
M  V30 25070 O 2389.38 0.142066 -4.3787 0
M  V30 25071 C 2390.88 1.90595 -4.00235 0
M  V30 25072 H 2388.1 0.142129 -0.655775 0
M  V30 25073 H 2390.65 -0.213449 -2.03383 0
M  V30 25074 H 2388.8 1.86217 -3.39709 0
M  V30 25075 H 2389.22 0.593683 -5.21129 0
M  V30 25076 H 2390.69 2.29326 -5.02109 0
M  V30 25077 H 2391.17 2.78357 -3.39726 0
M  V30 25078 H 2391.77 1.25048 -4.06501 0
M  V30 25079 N 2390.09 1.56899 0.148518 0
M  V30 25080 C 2391.33 1.83266 0.861386 0
M  V30 25081 C 2391.66 0.705915 1.81238 0
M  V30 25082 O 2390.92 -0.305178 1.93306 0
M  V30 25083 C 2391.22 3.15953 1.67058 0
M  V30 25084 C 2390.88 4.42496 0.866513 0
M  V30 25085 C 2389.54 4.76862 0.644678 0
M  V30 25086 C 2391.9 5.20312 0.304089 0
M  V30 25087 C 2389.22 5.86507 -0.150313 0
M  V30 25088 C 2391.58 6.30792 -0.477935 0
M  V30 25089 C 2390.24 6.63709 -0.71036 0
M  V30 25090 H 2389.51 0.670617 0.315203 0
M  V30 25091 H 2392.16 1.91091 0.125108 0
M  V30 25092 H 2390.46 3.03572 2.47692 0
M  V30 25093 H 2392.16 3.33569 2.2256 0
M  V30 25094 H 2388.75 4.15553 1.04948 0
M  V30 25095 H 2392.93 4.94138 0.462757 0
M  V30 25096 H 2388.19 6.10454 -0.339903 0
M  V30 25097 H 2392.36 6.90285 -0.920881 0
M  V30 25098 H 2389.99 7.48507 -1.32823 0
M  V30 25099 N 2391.57 -0.417818 1.51961 0
M  V30 25100 C 2392.8 -1.18578 1.69183 0
M  V30 25101 C 2393.2 -1.84985 0.397136 0
M  V30 25102 O 2392.55 -1.7234 -0.635981 0
M  V30 25103 C 2392.61 -2.29755 2.76502 0
M  V30 25104 C 2392.27 -1.83555 4.18517 0
M  V30 25105 C 2393.27 -1.32812 5.0265 0
M  V30 25106 C 2390.95 -1.90653 4.64711 0
M  V30 25107 C 2392.95 -0.897783 6.31046 0
M  V30 25108 C 2390.64 -1.4723 5.93099 0
M  V30 25109 C 2391.63 -0.968773 6.76095 0
M  V30 25110 O 2391.32 -0.540783 8.02079 0
M  V30 25111 H 2391.05 -0.362695 0.570463 0
M  V30 25112 H 2393.61 -0.49885 1.9925 0
M  V30 25113 H 2391.84 -3.01784 2.41791 0
M  V30 25114 H 2393.53 -2.91548 2.82408 0
M  V30 25115 H 2394.29 -1.26708 4.68156 0
M  V30 25116 H 2390.17 -2.2879 4.0022 0
M  V30 25117 H 2393.72 -0.50407 6.95776 0
M  V30 25118 H 2389.61 -1.53011 6.27103 0
M  V30 25119 H 2390.38 -0.664877 8.15795 0
M  V30 25120 N 2393.04 -1.42436 -0.674508 0
M  V30 25121 C 2394.29 -1.43133 -1.43669 0
M  V30 25122 C 2394.62 -0.0476362 -1.94142 0
M  V30 25123 O 2393.9 0.928158 -1.70925 0
M  V30 25124 C 2394.18 -2.45598 -2.63351 0
M  V30 25125 C 2394.03 -3.9316 -2.18507 0
M  V30 25126 C 2395.35 -2.45049 -3.65567 0
M  V30 25127 H 2392.47 -0.521207 -0.521068 0
M  V30 25128 H 2395.11 -1.73852 -0.766521 0
M  V30 25129 H 2393.26 -2.19534 -3.20526 0
M  V30 25130 H 2394.94 -4.30205 -1.66497 0
M  V30 25131 H 2393.18 -4.07012 -1.50079 0
M  V30 25132 H 2393.85 -4.60433 -3.04475 0
M  V30 25133 H 2396.33 -2.68228 -3.18108 0
M  V30 25134 H 2395.2 -3.18721 -4.46887 0
M  V30 25135 H 2395.46 -1.47656 -4.16713 0
M  V30 25136 N 2394.52 0.910841 -1.28614 0
M  V30 25137 C 2395.45 2.0303 -1.15329 0
M  V30 25138 C 2396.43 1.70026 -0.0503222 0
M  V30 25139 O 2397.62 1.92859 -0.22783 0
M  V30 25140 C 2394.75 3.37544 -0.817403 0
M  V30 25141 C 2393.7 3.84721 -1.87547 0
M  V30 25142 C 2393.03 5.16232 -1.39314 0
M  V30 25143 C 2394.33 4.06261 -3.28251 0
M  V30 25144 H 2396.02 2.14402 -2.08979 0
M  V30 25145 H 2393.57 1.03019 -1.00614 0
M  V30 25146 H 2395.52 4.15355 -0.711224 0
M  V30 25147 H 2394.24 3.26233 0.154789 0
M  V30 25148 H 2392.9 3.09117 -1.97084 0
M  V30 25149 H 2392.55 5.01327 -0.409934 0
M  V30 25150 H 2392.25 5.48768 -2.10066 0
M  V30 25151 H 2393.78 5.96595 -1.30024 0
M  V30 25152 H 2395.19 4.74588 -3.21619 0
M  V30 25153 H 2393.59 4.50133 -3.96863 0
M  V30 25154 H 2394.66 3.10973 -3.72054 0
M  V30 25155 N 2396 1.10909 1.11969 0
M  V30 25156 C 2397.41 0.871475 1.65113 0
M  V30 25157 C 2397.76 -0.597321 1.86886 0
M  V30 25158 O 2396.89 -1.45813 1.59899 0
M  V30 25159 C 2397.48 1.57545 2.99942 0
M  V30 25160 C 2396.04 1.38441 3.50016 0
M  V30 25161 C 2395.19 1.62168 2.24938 0
M  V30 25162 H 2398.14 1.26612 0.956829 0
M  V30 25163 H 2398.16 1.01728 3.66649 0
M  V30 25164 H 2397.67 2.64443 2.84062 0
M  V30 25165 H 2395.77 0.337279 3.7107 0
M  V30 25166 H 2395.89 2.12972 4.29162 0
M  V30 25167 H 2394.25 1.04471 2.32288 0
M  V30 25168 H 2395.03 2.70328 2.11607 0
M  V30 25169 N 2397.48 -1.29474 0.898573 0
M  V30 25170 C 2398.43 -2.29714 0.365294 0
M  V30 25171 C 2399.42 -1.60731 -0.534964 0
M  V30 25172 O 2400.63 -1.75082 -0.41789 0
M  V30 25173 H 2397 -0.745389 0.0994984 0
M  V30 25174 H 2398.97 -2.72136 1.22411 0
M  V30 25175 C 2397.72 -3.45471 -0.393099 0
M  V30 25176 H 2397.04 -3.98744 0.290402 0
M  V30 25177 H 2398.48 -4.17649 -0.731116 0
M  V30 25178 C 2396.94 -2.96733 -1.59534 0
M  V30 25179 O 2397.47 -2.97913 -2.69464 0
M  V30 25180 N 2395.68 -2.52577 -1.43712 0
M  V30 25181 H 2395.23 -2.51817 -0.542784 0
M  V30 25182 H 2395.18 -2.20327 -2.24284 0
M  V30 25183 N 2398.96 -0.660936 -1.43071 0
M  V30 25184 C 2400.23 -0.107052 -1.95307 0
M  V30 25185 C 2400.61 1.37481 -1.60194 0
M  V30 25186 O 2399.96 2.10413 -0.890986 0
M  V30 25187 C 2400.17 -0.361463 -3.47123 0
M  V30 25188 C 2401.52 -0.27053 -4.23737 0
M  V30 25189 O 2402.54 -0.294445 -3.54981 0
M  V30 25190 O 2401.4 -0.200833 -5.46131 0
M  V30 25191 H 2398.5 0.00516275 -0.826984 0
M  V30 25192 H 2401.04 -0.734708 -1.52971 0
M  V30 25193 H 2399.81 -1.38854 -3.65835 0
M  V30 25194 H 2399.44 0.298883 -3.96475 0
M  V30 25195 N 2400.43 1.52351 -0.403352 0
M  V30 25196 C 2401.71 1.94212 0.232577 0
M  V30 25197 C 2402.09 1.33983 1.63131 0
M  V30 25198 O 2401.44 0.513383 2.22658 0
M  V30 25199 C 2401.65 3.48141 0.24475 0
M  V30 25200 C 2403 4.22025 0.466906 0
M  V30 25201 O 2404.02 3.5472 0.324356 0
M  V30 25202 O 2402.88 5.41365 0.747375 0
M  V30 25203 H 2399.97 0.813611 0.148209 0
M  V30 25204 H 2402.52 1.63378 -0.458877 0
M  V30 25205 H 2401.29 3.84346 -0.734445 0
M  V30 25206 H 2400.92 3.85319 0.980544 0
M  V30 25207 N 2401.91 0.133594 1.57033 0
M  V30 25208 C 2403.14 -0.52816 2.00045 0
M  V30 25209 C 2403.56 -1.5929 1.01352 0
M  V30 25210 O 2402.91 -1.82498 0.00851577 0
M  V30 25211 C 2402.96 -1.14104 3.4302 0
M  V30 25212 O 2402.68 -0.118843 4.37939 0
M  V30 25213 C 2404.19 -1.8847 4.01241 0
M  V30 25214 H 2401.41 -0.138649 0.656519 0
M  V30 25215 H 2403.95 0.224232 2.03267 0
M  V30 25216 H 2402.1 -1.84412 3.40692 0
M  V30 25217 H 2402.52 -0.566038 5.21437 0
M  V30 25218 H 2403.99 -2.2666 5.03318 0
M  V30 25219 H 2404.47 -2.76552 3.41198 0
M  V30 25220 H 2405.08 -1.22891 4.07158 0
M  V30 25221 N 2403.39 -1.56975 -0.140195 0
M  V30 25222 C 2404.32 -2.0181 -1.17452 0
M  V30 25223 C 2405.3 -0.898819 -1.44413 0
M  V30 25224 O 2406.49 -1.1671 -1.55218 0
M  V30 25225 C 2403.62 -2.40449 -2.50603 0
M  V30 25226 C 2402.57 -3.55625 -2.38149 0
M  V30 25227 C 2401.9 -3.80098 -3.76072 0
M  V30 25228 C 2403.2 -4.88065 -1.85983 0
M  V30 25229 H 2404.89 -2.88467 -0.801692 0
M  V30 25230 H 2402.44 -1.3878 -0.384196 0
M  V30 25231 H 2404.39 -2.70416 -3.23193 0
M  V30 25232 H 2403.11 -1.50737 -2.89734 0
M  V30 25233 H 2401.77 -3.25834 -1.6801 0
M  V30 25234 H 2401.42 -2.87625 -4.12651 0
M  V30 25235 H 2401.12 -4.57613 -3.68598 0
M  V30 25236 H 2402.64 -4.12496 -4.50199 0
M  V30 25237 H 2404.06 -5.16706 -2.48371 0
M  V30 25238 H 2402.46 -5.69433 -1.89383 0
M  V30 25239 H 2403.53 -4.77986 -0.815938 0
M  V30 25240 N 2404.87 0.409753 -1.5218 0
M  V30 25241 C 2406.28 0.748326 -1.40969 0
M  V30 25242 C 2406.48 1.94842 -0.513691 0
M  V30 25243 O 2405.54 2.52491 0.0207582 0
M  V30 25244 C 2406.85 1.00285 -2.83485 0
M  V30 25245 C 2408.4 1.1056 -2.92823 0
M  V30 25246 C 2408.88 1.39288 -4.36306 0
M  V30 25247 N 2410.37 1.46155 -4.39537 0
M  V30 25248 C 2411.1 1.70009 -5.47617 0
M  V30 25249 N 2410.6 1.91471 -6.65816 0
M  V30 25250 N 2412.39 1.72018 -5.35132 0
M  V30 25251 H 2404.54 -0.380222 -2.08969 0
M  V30 25252 H 2406.81 -0.107822 -0.941848 0
M  V30 25253 H 2406.51 0.193399 -3.51168 0
M  V30 25254 H 2406.39 1.92318 -3.2449 0
M  V30 25255 H 2408.77 1.90564 -2.25321 0
M  V30 25256 H 2408.85 0.163645 -2.55276 0
M  V30 25257 H 2408.5 0.59802 -5.04367 0
M  V30 25258 H 2408.43 2.34735 -4.71389 0
M  V30 25259 H 2410.92 1.31361 -3.54334 0
M  V30 25260 H 2411.23 2.09121 -7.43968 0
M  V30 25261 H 2409.58 1.88737 -6.68882 0
M  V30 25262 H 2412.77 1.54788 -4.41767 0
M  V30 25263 H 2412.94 1.90269 -6.19436 0
M  V30 25264 N 2406.35 1.42792 0.666944 0
M  V30 25265 C 2407.59 1.43893 1.42908 0
M  V30 25266 C 2407.93 0.0579313 1.94114 0
M  V30 25267 O 2407.2 -0.91908 1.71415 0
M  V30 25268 C 2407.48 2.46991 2.62044 0
M  V30 25269 C 2407.34 3.94313 2.16419 0
M  V30 25270 C 2408.66 2.46984 3.64262 0
M  V30 25271 H 2405.77 0.523963 0.518297 0
M  V30 25272 H 2408.42 1.74256 0.75729 0
M  V30 25273 H 2406.57 2.21231 3.19357 0
M  V30 25274 H 2408.24 4.31082 1.64213 0
M  V30 25275 H 2406.48 4.07802 1.47918 0
M  V30 25276 H 2407.15 4.62041 3.02029 0
M  V30 25277 H 2409.63 2.69911 3.16681 0
M  V30 25278 H 2408.5 3.21087 4.45191 0
M  V30 25279 H 2408.77 1.49864 4.15924 0
M  V30 25280 N 2407.82 -0.904008 1.29095 0
M  V30 25281 C 2408.73 -2.04068 1.15731 0
M  V30 25282 C 2409.75 -1.73809 0.0815613 0
M  V30 25283 O 2410.93 -1.9926 0.292784 0
M  V30 25284 C 2407.99 -3.36606 0.830483 0
M  V30 25285 C 2407.05 -3.80411 1.98962 0
M  V30 25286 C 2406.29 -5.06625 1.67829 0
M  V30 25287 O 2406.51 -5.67265 0.597205 0
M  V30 25288 O 2405.44 -5.46379 2.52495 0
M  V30 25289 H 2409.27 -2.18264 2.11174 0
M  V30 25290 H 2406.85 -1.02698 1.08506 0
M  V30 25291 H 2408.74 -4.16158 0.662594 0
M  V30 25292 H 2407.41 -3.23563 -0.0942109 0
M  V30 25293 H 2406.32 -3.01645 2.21272 0
M  V30 25294 H 2407.65 -3.98032 2.89536 0
M  V30 25295 N 2409.3 -1.11501 -1.11379 0
M  V30 25296 C 2410.27 -0.777191 -2.15621 0
M  V30 25297 C 2411.27 0.203751 -1.59504 0
M  V30 25298 O 2412.46 -0.0208126 -1.74188 0
M  V30 25299 C 2409.59 -0.153176 -3.40556 0
M  V30 25300 H 2410.78 -1.70065 -2.47018 0
M  V30 25301 H 2408.33 -0.916974 -1.26575 0
M  V30 25302 H 2409.07 0.780481 -3.14768 0
M  V30 25303 H 2408.85 -0.859305 -3.82568 0
M  V30 25304 H 2410.34 0.067031 -4.17546 0
M  V30 25305 N 2410.78 1.28995 -0.905426 0
M  V30 25306 C 2412.03 1.95325 -0.534282 0
M  V30 25307 C 2412.36 1.71339 0.920505 0
M  V30 25308 O 2411.61 1.02257 1.66859 0
M  V30 25309 C 2411.91 3.48785 -0.779967 0
M  V30 25310 C 2411.58 3.92857 -2.213 0
M  V30 25311 C 2410.24 4.04602 -2.60482 0
M  V30 25312 C 2412.59 4.15548 -3.14594 0
M  V30 25313 C 2409.92 4.36409 -3.92128 0
M  V30 25314 C 2412.27 4.48831 -4.45795 0
M  V30 25315 C 2410.93 4.58786 -4.84842 0
M  V30 25316 H 2410.2 0.714743 -0.195508 0
M  V30 25317 H 2412.85 1.53486 -1.14517 0
M  V30 25318 H 2411.16 3.91705 -0.0862053 0
M  V30 25319 H 2412.85 3.98211 -0.472099 0
M  V30 25320 H 2409.44 3.84237 -1.89894 0
M  V30 25321 H 2413.63 4.05935 -2.85535 0
M  V30 25322 H 2408.88 4.4232 -4.22094 0
M  V30 25323 H 2413.06 4.65337 -5.18106 0
M  V30 25324 H 2410.68 4.83187 -5.86885 0
M  V30 25325 N 2412.26 0.668514 1.42719 0
M  V30 25326 C 2413.17 -0.013934 2.34596 0
M  V30 25327 C 2414.19 -0.795675 1.54742 0
M  V30 25328 O 2415.36 -0.739433 1.87335 0
M  V30 25329 C 2412.43 -0.957924 3.33204 0
M  V30 25330 C 2411.49 -0.171415 4.28958 0
M  V30 25331 C 2410.72 -1.07044 5.22855 0
M  V30 25332 O 2410.94 -2.30991 5.21535 0
M  V30 25333 O 2409.88 -0.534621 5.99521 0
M  V30 25334 H 2413.7 0.742713 2.94478 0
M  V30 25335 H 2411.29 0.428731 1.43116 0
M  V30 25336 H 2413.17 -1.50001 3.93799 0
M  V30 25337 H 2411.85 -1.69453 2.75803 0
M  V30 25338 H 2410.75 0.414624 3.71795 0
M  V30 25339 H 2412.09 0.525946 4.89382 0
M  V30 25340 N 2413.74 -1.52135 0.411426 0
M  V30 25341 C 2414.97 -2.05958 -0.162804 0
M  V30 25342 C 2415.38 -1.28121 -1.39218 0
M  V30 25343 O 2414.72 -0.326913 -1.80768 0
M  V30 25344 C 2414.78 -3.54857 -0.575883 0
M  V30 25345 C 2414.44 -4.53762 0.543077 0
M  V30 25346 C 2415.44 -5.00489 1.40735 0
M  V30 25347 C 2413.13 -4.97165 0.716424 0
M  V30 25348 C 2415.12 -5.89266 2.4299 0
M  V30 25349 C 2412.81 -5.85737 1.74228 0
M  V30 25350 C 2413.81 -6.31683 2.59742 0
M  V30 25351 O 2413.49 -7.18501 3.60571 0
M  V30 25352 H 2413.23 -0.675612 -0.0229007 0
M  V30 25353 H 2415.78 -1.96992 0.581669 0
M  V30 25354 H 2414.01 -3.61517 -1.37267 0
M  V30 25355 H 2415.7 -3.91315 -1.07829 0
M  V30 25356 H 2416.46 -4.67672 1.28484 0
M  V30 25357 H 2412.34 -4.6096 0.0604667 0
M  V30 25358 H 2415.89 -6.2505 3.09771 0
M  V30 25359 H 2411.78 -6.17968 1.86509 0
M  V30 25360 H 2412.55 -7.36618 3.56842 0
M  V30 25361 N 2415.22 -0.14192 -1.5696 0
M  V30 25362 C 2416.45 0.516793 -2.00032 0
M  V30 25363 C 2416.85 1.59291 -1.02094 0
M  V30 25364 O 2416.2 1.83698 -0.00912886 0
M  V30 25365 C 2416.26 1.18134 -3.39536 0
M  V30 25366 C 2415.92 0.250433 -4.56313 0
M  V30 25367 C 2416.92 -0.51993 -5.17294 0
M  V30 25368 C 2414.6 0.154819 -5.02061 0
M  V30 25369 C 2416.6 -1.37341 -6.22428 0
M  V30 25370 C 2414.29 -0.702268 -6.07051 0
M  V30 25371 C 2415.28 -1.46499 -6.67103 0
M  V30 25372 O 2414.97 -2.30781 -7.70062 0
M  V30 25373 H 2414.7 0.139482 -0.661454 0
M  V30 25374 H 2417.26 -0.231962 -2.04086 0
M  V30 25375 H 2415.49 1.97763 -3.32305 0
M  V30 25376 H 2417.18 1.73926 -3.66748 0
M  V30 25377 H 2417.94 -0.456065 -4.82851 0
M  V30 25378 H 2413.82 0.73822 -4.55051 0
M  V30 25379 H 2417.37 -1.96921 -6.69229 0
M  V30 25380 H 2413.26 -0.767443 -6.40922 0
M  V30 25381 H 2414.03 -2.23973 -7.8726 0
M  V30 25382 N 2416.69 1.57047 0.131868 0
M  V30 25383 C 2417.64 1.95818 1.16787 0
M  V30 25384 C 2418.63 0.831417 1.37754 0
M  V30 25385 O 2419.82 1.09501 1.39063 0
M  V30 25386 C 2416.95 2.35516 2.49774 0
M  V30 25387 C 2416.03 3.54797 2.32336 0
M  V30 25388 N 2416.43 4.70878 1.84682 0
M  V30 25389 C 2414.72 3.60178 2.63036 0
M  V30 25390 C 2415.42 5.52939 1.80646 0
M  V30 25391 N 2414.4 4.95068 2.24519 0
M  V30 25392 H 2418.2 2.83034 0.791768 0
M  V30 25393 H 2415.72 1.58806 0.339763 0
M  V30 25394 H 2417.71 2.61503 3.24687 0
M  V30 25395 H 2416.37 1.49659 2.88153 0
M  V30 25396 H 2417.38 4.94343 1.5442 0
M  V30 25397 H 2414.06 2.84897 3.05188 0
M  V30 25398 H 2415.45 6.56031 1.45166 0
M  V30 25399 N 2418.17 -0.401677 1.52395 0
M  V30 25400 C 2419.4 -1.16946 1.70678 0
M  V30 25401 C 2419.81 -1.8408 0.419535 0
M  V30 25402 O 2419.17 -1.72179 -0.60503 0
M  V30 25403 C 2419.22 -2.22701 2.84757 0
M  V30 25404 O 2418.94 -1.58307 4.08498 0
M  V30 25405 C 2420.44 -3.12304 3.14613 0
M  V30 25406 H 2417.66 -0.351132 0.571793 0
M  V30 25407 H 2420.21 -0.471617 1.98988 0
M  V30 25408 H 2418.36 -2.88142 2.58946 0
M  V30 25409 H 2418.78 -2.28477 4.72121 0
M  V30 25410 H 2420.25 -3.82565 3.9793 0
M  V30 25411 H 2420.73 -3.75097 2.28471 0
M  V30 25412 H 2421.33 -2.52523 3.42217 0
M  V30 25413 N 2419.65 -1.43144 -0.659362 0
M  V30 25414 C 2420.88 -1.47863 -1.44721 0
M  V30 25415 C 2421.29 -0.0946217 -1.88563 0
M  V30 25416 O 2420.65 0.893887 -1.5911 0
M  V30 25417 C 2420.7 -2.41918 -2.68623 0
M  V30 25418 O 2420.42 -3.74936 -2.26616 0
M  V30 25419 C 2421.92 -2.55816 -3.6204 0
M  V30 25420 H 2419.14 -0.502395 -0.444792 0
M  V30 25421 H 2421.69 -1.87823 -0.808883 0
M  V30 25422 H 2419.84 -2.0517 -3.28609 0
M  V30 25423 H 2420.26 -4.25455 -3.06738 0
M  V30 25424 H 2421.73 -3.25715 -4.45661 0
M  V30 25425 H 2422.21 -1.60106 -4.08978 0
M  V30 25426 H 2422.81 -2.93349 -3.07939 0
M  V30 25427 N 2421.13 0.897149 -1.29572 0
M  V30 25428 C 2422.4 1.62837 -1.08368 0
M  V30 25429 C 2422.78 2.07809 0.371294 0
M  V30 25430 O 2422.13 1.83578 1.36057 0
M  V30 25431 C 2422.34 2.80722 -2.07354 0
M  V30 25432 C 2423.69 3.51347 -2.38412 0
M  V30 25433 O 2424.71 2.90895 -2.05569 0
M  V30 25434 O 2423.57 4.60336 -2.94538 0
M  V30 25435 H 2420.67 0.715127 -0.415358 0
M  V30 25436 H 2423.21 0.944993 -1.40954 0
M  V30 25437 H 2421.99 2.44706 -3.05343 0
M  V30 25438 H 2421.61 3.56764 -1.75514 0
M  V30 25439 N 2422.61 1.1209 1.10786 0
M  V30 25440 C 2424.02 0.888939 1.64179 0
M  V30 25441 C 2424.37 -0.577465 1.87509 0
M  V30 25442 O 2423.49 -1.44109 1.61436 0
M  V30 25443 C 2424.09 1.60717 2.98254 0
M  V30 25444 C 2422.65 1.42145 3.48528 0
M  V30 25445 C 2421.79 1.64544 2.23205 0
M  V30 25446 H 2424.74 1.27619 0.943346 0
M  V30 25447 H 2424.77 1.05611 3.6555 0
M  V30 25448 H 2424.28 2.67441 2.81242 0
M  V30 25449 H 2422.38 0.376617 3.70692 0
M  V30 25450 H 2422.49 2.17512 4.26879 0
M  V30 25451 H 2420.86 1.06929 2.31167 0
M  V30 25452 H 2421.64 2.72557 2.08728 0
M  V30 25453 N 2424.08 -1.28513 0.912254 0
M  V30 25454 C 2425.31 -1.99702 0.559809 0
M  V30 25455 C 2425.73 -1.6773 -0.851364 0
M  V30 25456 O 2425.09 -0.908862 -1.56874 0
M  V30 25457 C 2425.14 -3.52197 0.773936 0
M  V30 25458 O 2424.24 -4.12059 -0.16777 0
M  V30 25459 H 2423.58 -0.627457 0.217241 0
M  V30 25460 H 2426.11 -1.63704 1.22728 0
M  V30 25461 H 2426.12 -4.02235 0.683457 0
M  V30 25462 H 2424.8 -3.74802 1.80268 0
M  V30 25463 H 2423.38 -3.72889 -0.0286853 0
M  V30 25464 N 2425.56 -0.676073 -1.42362 0
M  V30 25465 C 2426.81 -0.198866 -2.01521 0
M  V30 25466 C 2427.14 1.19502 -1.53458 0
M  V30 25467 O 2426.39 1.81655 -0.727999 0
M  V30 25468 C 2426.69 -0.183493 -3.56929 0
M  V30 25469 C 2426.36 -1.52223 -4.24428 0
M  V30 25470 C 2425.02 -1.88878 -4.42582 0
M  V30 25471 C 2427.37 -2.40385 -4.62455 0
M  V30 25472 C 2424.7 -3.13317 -4.96033 0
M  V30 25473 C 2427.05 -3.64138 -5.17287 0
M  V30 25474 C 2425.72 -4.0096 -5.33654 0
M  V30 25475 H 2424.99 -0.0727701 -0.737418 0
M  V30 25476 H 2427.63 -0.871311 -1.7053 0
M  V30 25477 H 2425.94 0.572464 -3.87595 0
M  V30 25478 H 2427.63 0.202965 -4.00486 0
M  V30 25479 H 2424.22 -1.22709 -4.10659 0
M  V30 25480 H 2428.41 -2.13351 -4.48102 0
M  V30 25481 H 2423.66 -3.41866 -5.0689 0
M  V30 25482 H 2427.84 -4.32653 -5.45696 0
M  V30 25483 H 2425.47 -4.9746 -5.74837 0
M  V30 25484 N 2427.04 1.51915 -0.419488 0
M  V30 25485 C 2427.97 2.3019 0.391772 0
M  V30 25486 C 2428.95 1.34837 1.03696 0
M  V30 25487 O 2430.14 1.6375 1.04401 0
M  V30 25488 C 2427.27 3.1309 1.50306 0
M  V30 25489 C 2426.22 4.16575 0.982327 0
M  V30 25490 C 2425.55 4.87884 2.18801 0
M  V30 25491 C 2426.85 5.22292 0.0291438 0
M  V30 25492 H 2428.54 2.98257 -0.261402 0
M  V30 25493 H 2426.09 1.43437 -0.127159 0
M  V30 25494 H 2428.04 3.66621 2.07767 0
M  V30 25495 H 2426.76 2.42811 2.18427 0
M  V30 25496 H 2425.42 3.64069 0.430055 0
M  V30 25497 H 2425.07 4.14124 2.855 0
M  V30 25498 H 2424.77 5.57848 1.84605 0
M  V30 25499 H 2426.29 5.44231 2.76848 0
M  V30 25500 H 2427.71 5.71001 0.512875 0
M  V30 25501 H 2426.11 5.9968 -0.224505 0
M  V30 25502 H 2427.18 4.76227 -0.913015 0
M  V30 25503 N 2428.52 0.150242 1.56882 0
M  V30 25504 C 2429.77 -0.49907 1.95841 0
M  V30 25505 C 2430.09 -1.65186 1.03626 0
M  V30 25506 O 2429.36 -1.95652 0.0984428 0
M  V30 25507 H 2427.94 -0.18736 0.723122 0
M  V30 25508 H 2430.6 0.2265 1.93579 0
M  V30 25509 H 2429.7 -0.873069 2.9964 0
M  V30 25510 N 2430 -1.57115 -0.123538 0
M  V30 25511 C 2431.41 -1.52307 -0.476934 0
M  V30 25512 C 2431.61 -0.862512 -1.82107 0
M  V30 25513 O 2430.67 -0.442927 -2.48585 0
M  V30 25514 C 2431.98 -2.97073 -0.465609 0
M  V30 25515 C 2433.53 -3.08139 -0.54948 0
M  V30 25516 C 2434 -4.54457 -0.568589 0
M  V30 25517 N 2435.5 -4.58894 -0.630156 0
M  V30 25518 C 2436.23 -5.69515 -0.666315 0
M  V30 25519 N 2435.73 -6.89645 -0.660393 0
M  V30 25520 N 2437.52 -5.57611 -0.708979 0
M  V30 25521 H 2429.67 -1.98443 0.757233 0
M  V30 25522 H 2431.93 -0.906069 0.278824 0
M  V30 25523 H 2431.64 -3.48754 0.454294 0
M  V30 25524 H 2431.51 -3.54271 -1.29507 0
M  V30 25525 H 2433.9 -2.56464 -1.4598 0
M  V30 25526 H 2433.98 -2.53944 0.307577 0
M  V30 25527 H 2433.63 -5.06776 0.33767 0
M  V30 25528 H 2433.56 -5.06459 -1.44247 0
M  V30 25529 H 2436.05 -3.72423 -0.64108 0
M  V30 25530 H 2436.36 -7.69709 -0.690481 0
M  V30 25531 H 2434.7 -6.92158 -0.62789 0
M  V30 25532 H 2437.9 -4.6267 -0.710937 0
M  V30 25533 H 2438.07 -6.43833 -0.733691 0
M  V30 25534 N 2431.47 0.393589 -1.52606 0
M  V30 25535 C 2432.7 1.15871 -1.71048 0
M  V30 25536 C 2433.11 1.8433 -0.426515 0
M  V30 25537 O 2432.46 1.7333 0.608483 0
M  V30 25538 C 2432.52 2.25327 -2.80122 0
M  V30 25539 C 2432.18 1.76874 -4.21384 0
M  V30 25540 C 2433.18 1.24799 -5.04699 0
M  V30 25541 C 2430.86 1.83236 -4.67686 0
M  V30 25542 C 2432.86 0.797276 -6.32394 0
M  V30 25543 C 2430.54 1.37776 -5.95366 0
M  V30 25544 C 2431.54 0.861089 -6.7755 0
M  V30 25545 O 2431.23 0.413111 -8.02838 0
M  V30 25546 H 2430.96 0.353573 -0.576161 0
M  V30 25547 H 2433.52 0.467088 -2.00019 0
M  V30 25548 H 2431.75 2.979 -2.46562 0
M  V30 25549 H 2433.44 2.87018 -2.87011 0
M  V30 25550 H 2434.2 1.19244 -4.70113 0
M  V30 25551 H 2430.08 2.22394 -4.03809 0
M  V30 25552 H 2433.62 0.393314 -6.9649 0
M  V30 25553 H 2429.52 1.43015 -6.29458 0
M  V30 25554 H 2430.29 0.535007 -8.1675 0
M  V30 25555 N 2432.95 1.43492 0.651762 0
M  V30 25556 C 2433.89 1.43214 1.77665 0
M  V30 25557 C 2434.86 0.293408 1.59931 0
M  V30 25558 O 2436.05 0.487223 1.82094 0
M  V30 25559 C 2433.17 1.24511 3.14984 0
M  V30 25560 C 2432.22 2.41679 3.51417 0
M  V30 25561 S 2433.05 4.04228 3.51226 0
M  V30 25562 C 2434.21 3.8791 4.91199 0
M  V30 25563 H 2434.44 2.384 1.77631 0
M  V30 25564 H 2431.98 1.3054 0.824535 0
M  V30 25565 H 2433.93 1.14407 3.94235 0
M  V30 25566 H 2432.59 0.308706 3.12579 0
M  V30 25567 H 2431.79 2.24401 4.51287 0
M  V30 25568 H 2431.39 2.48416 2.79581 0
M  V30 25569 H 2433.68 3.50325 5.79895 0
M  V30 25570 H 2434.62 4.87539 5.13529 0
M  V30 25571 H 2435.03 3.20342 4.64802 0
M  V30 25572 N 2434.43 -0.890264 1.30046 0
M  V30 25573 C 2435.66 -1.68012 1.21601 0
M  V30 25574 C 2436.08 -1.86825 -0.218645 0
M  V30 25575 O 2435.44 -1.39538 -1.15754 0
M  V30 25576 C 2435.49 -3.03687 1.94439 0
M  V30 25577 O 2434.59 -3.92427 1.26787 0
M  V30 25578 H 2433.93 -0.513584 0.420865 0
M  V30 25579 H 2436.46 -1.11148 1.71777 0
M  V30 25580 H 2436.47 -3.53766 2.03257 0
M  V30 25581 H 2435.15 -2.89313 2.98782 0
M  V30 25582 H 2433.72 -3.50864 1.26288 0
M  V30 25583 N 2435.91 -1.12676 -1.1019 0
M  V30 25584 C 2436.87 -0.800017 -2.14784 0
M  V30 25585 C 2437.87 0.186822 -1.59711 0
M  V30 25586 O 2439.06 -0.0392864 -1.74156 0
M  V30 25587 C 2436.19 -0.189287 -3.40374 0
M  V30 25588 H 2437.39 -1.72676 -2.452 0
M  V30 25589 H 2434.94 -0.930348 -1.25595 0
M  V30 25590 H 2435.67 0.747051 -3.15578 0
M  V30 25591 H 2435.46 -0.899833 -3.81635 0
M  V30 25592 H 2436.95 0.0227409 -4.17594 0
M  V30 25593 N 2437.39 1.28028 -0.919057 0
M  V30 25594 C 2438.32 2.29532 -0.428622 0
M  V30 25595 C 2439.3 1.62382 0.506561 0
M  V30 25596 O 2440.48 1.89754 0.413162 0
M  V30 25597 C 2437.61 3.45754 0.327328 0
M  V30 25598 C 2436.57 4.24839 -0.519212 0
M  V30 25599 C 2435.89 5.3345 0.365393 0
M  V30 25600 C 2437.19 4.91061 -1.77923 0
M  V30 25601 H 2438.89 2.70805 -1.27692 0
M  V30 25602 H 2436.43 1.30185 -0.615451 0
M  V30 25603 H 2438.39 4.15856 0.681305 0
M  V30 25604 H 2437.11 3.03376 1.20957 0
M  V30 25605 H 2435.77 3.56472 -0.855779 0
M  V30 25606 H 2435.42 4.87314 1.24634 0
M  V30 25607 H 2435.12 5.87268 -0.197459 0
M  V30 25608 H 2436.64 6.06398 0.715134 0
M  V30 25609 H 2438.05 5.53496 -1.49384 0
M  V30 25610 H 2436.45 5.54898 -2.2849 0
M  V30 25611 H 2437.52 4.15251 -2.50389 0
M  V30 25612 N 2438.86 0.683613 1.42002 0
M  V30 25613 C 2439.81 -0.000774523 2.326 0
M  V30 25614 C 2440.81 -0.781252 1.50309 0
M  V30 25615 O 2442.01 -0.688221 1.66324 0
M  V30 25616 H 2438.39 -0.0190484 0.751759 0
M  V30 25617 H 2440.36 0.780578 2.8801 0
M  V30 25618 C 2439.11 -0.931891 3.34979 0
M  V30 25619 H 2438.43 -0.340747 3.98345 0
M  V30 25620 H 2439.87 -1.37929 4.00938 0
M  V30 25621 C 2438.33 -2.04245 2.67929 0
M  V30 25622 O 2438.86 -3.12991 2.51793 0
M  V30 25623 N 2437.07 -1.81671 2.26813 0
M  V30 25624 H 2436.61 -0.932321 2.40136 0
M  V30 25625 H 2436.57 -2.56164 1.82284 0
M  V30 25626 N 2440.34 -1.5169 0.427538 0
M  V30 25627 C 2441.29 -2.24346 -0.406565 0
M  V30 25628 C 2442.28 -1.26189 -0.998254 0
M  V30 25629 O 2443.47 -1.51332 -0.918019 0
M  V30 25630 C 2440.6 -3.0818 -1.51261 0
M  V30 25631 C 2439.68 -4.1376 -0.930795 0
M  V30 25632 N 2440.08 -5.05741 -0.0772663 0
M  V30 25633 C 2438.37 -4.2957 -1.19941 0
M  V30 25634 C 2439.07 -5.81169 0.248446 0
M  V30 25635 N 2438.05 -5.4237 -0.36544 0
M  V30 25636 H 2441.85 -2.92821 0.251632 0
M  V30 25637 H 2439.37 -1.60631 0.239031 0
M  V30 25638 H 2441.36 -3.588 -2.12293 0
M  V30 25639 H 2440.02 -2.41247 -2.17324 0
M  V30 25640 H 2441.03 -5.17096 0.288442 0
M  V30 25641 H 2437.71 -3.73865 -1.85826 0
M  V30 25642 H 2439.1 -6.65258 0.942403 0
M  V30 25643 N 2441.82 -0.15856 -1.568 0
M  V30 25644 C 2443.05 0.496268 -2.0086 0
M  V30 25645 C 2443.46 1.57657 -1.03873 0
M  V30 25646 O 2442.82 1.82461 -0.0375485 0
M  V30 25647 C 2442.87 1.08632 -3.44792 0
M  V30 25648 O 2442.59 0.0491552 -4.38072 0
M  V30 25649 C 2444.09 1.82063 -4.04188 0
M  V30 25650 H 2441.31 0.128187 -0.658642 0
M  V30 25651 H 2443.86 -0.256542 -2.02884 0
M  V30 25652 H 2442.01 1.78969 -3.43582 0
M  V30 25653 H 2442.43 0.48301 -5.22271 0
M  V30 25654 H 2443.9 2.18624 -5.0686 0
M  V30 25655 H 2444.38 2.71089 -3.45554 0
M  V30 25656 H 2444.98 1.16397 -4.09062 0
M  V30 25657 N 2443.3 1.57178 0.115204 0
M  V30 25658 C 2444.25 2.00617 1.14111 0
M  V30 25659 C 2445.22 0.878966 1.40938 0
M  V30 25660 O 2446.4 1.14347 1.52739 0
M  V30 25661 C 2443.54 2.41874 2.46152 0
M  V30 25662 C 2442.65 3.68028 2.26229 0
M  V30 25663 C 2441.79 3.98249 3.51527 0
M  V30 25664 C 2440.83 5.17574 3.26778 0
M  V30 25665 N 2439.97 5.43647 4.44289 0
M  V30 25666 H 2444.81 2.88048 0.763692 0
M  V30 25667 H 2442.34 1.42485 0.36559 0
M  V30 25668 H 2444.3 2.63832 3.23185 0
M  V30 25669 H 2442.93 1.5748 2.8178 0
M  V30 25670 H 2441.98 3.53663 1.40096 0
M  V30 25671 H 2443.29 4.55212 2.03921 0
M  V30 25672 H 2442.45 4.20876 4.36976 0
M  V30 25673 H 2441.19 3.09548 3.76871 0
M  V30 25674 H 2440.19 4.94787 2.3972 0
M  V30 25675 H 2441.42 6.07855 3.02801 0
M  V30 25676 H 2439.36 4.57903 4.69746 0
M  V30 25677 H 2439.28 6.25162 4.25098 0
M  V30 25678 H 2440.55 5.70795 5.3086 0
M  V30 25679 N 2444.78 -0.38549 1.52813 0
M  V30 25680 C 2445.72 -1.4711 1.77841 0
M  V30 25681 C 2446.69 -1.54023 0.621784 0
M  V30 25682 O 2447.88 -1.70224 0.861876 0
M  V30 25683 C 2445.02 -2.84298 1.95623 0
M  V30 25684 C 2444.13 -2.86509 3.23321 0
M  V30 25685 C 2443.27 -4.15146 3.31401 0
M  V30 25686 C 2442.31 -4.11423 4.53208 0
M  V30 25687 N 2441.44 -5.31672 4.58551 0
M  V30 25688 H 2446.28 -1.25069 2.70484 0
M  V30 25689 H 2443.82 -0.606668 1.34007 0
M  V30 25690 H 2445.78 -3.63969 2.03918 0
M  V30 25691 H 2444.41 -3.04782 1.06337 0
M  V30 25692 H 2443.46 -1.99189 3.2408 0
M  V30 25693 H 2444.77 -2.79626 4.1305 0
M  V30 25694 H 2443.93 -5.03222 3.38898 0
M  V30 25695 H 2442.67 -4.24756 2.39652 0
M  V30 25696 H 2441.67 -3.21734 4.45833 0
M  V30 25697 H 2442.9 -4.03432 5.46278 0
M  V30 25698 H 2440.84 -5.41905 3.69695 0
M  V30 25699 H 2440.76 -5.26879 5.42157 0
M  V30 25700 H 2442.03 -6.21636 4.70307 0
M  V30 25701 N 2446.26 -1.43835 -0.644143 0
M  V30 25702 C 2447.5 -1.47144 -1.40429 0
M  V30 25703 C 2447.86 -0.0975914 -1.92152 0
M  V30 25704 O 2447.15 0.885202 -1.69926 0
M  V30 25705 C 2447.34 -2.45636 -2.59611 0
M  V30 25706 C 2447.17 -3.92462 -2.19553 0
M  V30 25707 C 2445.94 -4.60753 -2.07448 0
M  V30 25708 C 2448.14 -4.82043 -1.79273 0
M  V30 25709 N 2446.12 -5.92462 -1.60817 0
M  V30 25710 C 2447.49 -6.03096 -1.43791 0
M  V30 25711 C 2449.55 -4.69223 -1.66537 0
M  V30 25712 C 2448.25 -7.1275 -0.968474 0
M  V30 25713 C 2450.28 -5.7889 -1.20998 0
M  V30 25714 C 2449.64 -6.99074 -0.864588 0
M  V30 25715 H 2445.74 -0.593522 -0.509171 0
M  V30 25716 H 2448.32 -1.80076 -0.740319 0
M  V30 25717 H 2446.49 -2.14715 -3.23654 0
M  V30 25718 H 2448.23 -2.39324 -3.26353 0
M  V30 25719 H 2444.98 -4.15384 -2.27493 0
M  V30 25720 H 2445.4 -6.62401 -1.39837 0
M  V30 25721 H 2450.05 -3.76754 -1.91877 0
M  V30 25722 H 2447.76 -8.0504 -0.702574 0
M  V30 25723 H 2451.35 -5.70992 -1.11621 0
M  V30 25724 H 2450.23 -7.8249 -0.517598 0
M  V30 25725 N 2447.73 0.883355 -1.30517 0
M  V30 25726 C 2448.68 1.98925 -1.17036 0
M  V30 25727 C 2449.65 1.65994 -0.0594533 0
M  V30 25728 O 2450.84 1.8941 -0.229929 0
M  V30 25729 C 2447.98 3.33958 -0.869835 0
M  V30 25730 C 2447.09 3.7957 -2.06278 0
M  V30 25731 C 2446.22 5.03256 -1.7002 0
M  V30 25732 C 2445.26 5.41281 -2.858 0
M  V30 25733 N 2444.4 6.56148 -2.49828 0
M  V30 25734 H 2449.24 2.09788 -2.11644 0
M  V30 25735 H 2446.78 1.02717 -1.05297 0
M  V30 25736 H 2448.73 4.11683 -0.676211 0
M  V30 25737 H 2447.36 3.22776 0.0393764 0
M  V30 25738 H 2446.42 2.9774 -2.3676 0
M  V30 25739 H 2447.73 4.03689 -2.92979 0
M  V30 25740 H 2446.88 5.88612 -1.47042 0
M  V30 25741 H 2445.62 4.81012 -0.804913 0
M  V30 25742 H 2444.63 4.54451 -3.09442 0
M  V30 25743 H 2445.85 5.65497 -3.76018 0
M  V30 25744 H 2443.8 6.35476 -1.62806 0
M  V30 25745 H 2443.71 6.80145 -3.3006 0
M  V30 25746 H 2444.98 7.44731 -2.3021 0
M  V30 25747 N 2449.21 1.13259 1.09591 0
M  V30 25748 C 2450.44 0.915081 1.85229 0
M  V30 25749 C 2450.85 -0.539467 1.81346 0
M  V30 25750 O 2450.19 -1.38511 1.20666 0
M  V30 25751 C 2450.25 1.32296 3.34272 0
M  V30 25752 C 2449.92 2.79059 3.61905 0
M  V30 25753 C 2450.92 3.77222 3.5777 0
M  V30 25754 C 2448.6 3.16178 3.90304 0
M  V30 25755 C 2450.59 5.10517 3.81643 0
M  V30 25756 C 2448.28 4.49652 4.13832 0
M  V30 25757 C 2449.28 5.4663 4.09493 0
M  V30 25758 O 2448.97 6.77697 4.32414 0
M  V30 25759 H 2448.7 0.326378 0.591991 0
M  V30 25760 H 2451.25 1.50856 1.39397 0
M  V30 25761 H 2449.48 0.672734 3.80803 0
M  V30 25762 H 2451.17 1.07819 3.91318 0
M  V30 25763 H 2451.94 3.49891 3.35859 0
M  V30 25764 H 2447.82 2.41296 3.92807 0
M  V30 25765 H 2451.36 5.86201 3.78172 0
M  V30 25766 H 2447.26 4.76708 4.35224 0
M  V30 25767 H 2448.03 6.83774 4.49884 0
M  V30 25768 N 2450.69 -1.27539 0.925834 0
M  V30 25769 C 2452.1 -1.76449 0.610133 0
M  V30 25770 C 2452.45 -1.75623 -0.874692 0
M  V30 25771 O 2451.58 -1.35854 -1.68442 0
M  V30 25772 C 2452.17 -3.20419 1.10079 0
M  V30 25773 C 2450.73 -3.67003 0.835787 0
M  V30 25774 C 2449.88 -2.46991 1.26058 0
M  V30 25775 H 2452.83 -1.13831 1.10581 0
M  V30 25776 H 2452.85 -3.77858 0.447624 0
M  V30 25777 H 2452.36 -3.20987 2.18148 0
M  V30 25778 H 2450.46 -3.71882 -0.231184 0
M  V30 25779 H 2450.58 -4.56567 1.45201 0
M  V30 25780 H 2448.94 -2.45478 0.679154 0
M  V30 25781 H 2449.72 -2.50271 2.34988 0
M  V30 25782 N 2452.17 -0.691135 -1.41637 0
M  V30 25783 C 2453.1 0.016112 -2.29194 0
M  V30 25784 C 2454.11 0.74893 -1.44551 0
M  V30 25785 O 2455.3 0.60037 -1.68101 0
M  V30 25786 C 2452.4 1.04684 -3.22327 0
M  V30 25787 C 2451.57 0.384545 -4.35706 0
M  V30 25788 C 2450.63 1.31728 -5.09445 0
M  V30 25789 O 2449.66 0.811352 -5.63388 0
M  V30 25790 N 2450.86 2.64984 -5.16492 0
M  V30 25791 H 2453.63 -0.735574 -2.90533 0
M  V30 25792 H 2451.19 -0.536816 -1.52741 0
M  V30 25793 H 2453.18 1.67246 -3.68525 0
M  V30 25794 H 2451.75 1.70011 -2.62326 0
M  V30 25795 H 2450.97 -0.420873 -3.91947 0
M  V30 25796 H 2452.26 -0.076166 -5.08743 0
M  V30 25797 H 2451.66 3.0861 -4.74106 0
M  V30 25798 H 2450.21 3.22751 -5.66282 0
M  V30 25799 N 2453.65 1.51461 -0.435577 0
M  V30 25800 C 2454.89 2.02372 0.131673 0
M  V30 25801 C 2455.22 1.31922 1.42514 0
M  V30 25802 O 2454.5 0.433606 1.89605 0
M  V30 25803 C 2454.78 3.58373 0.352238 0
M  V30 25804 C 2454.64 4.39441 -0.959754 0
M  V30 25805 C 2455.95 4.25537 1.12279 0
M  V30 25806 H 2453.07 0.735539 0.0463807 0
M  V30 25807 H 2455.72 1.81115 -0.574229 0
M  V30 25808 H 2453.87 3.76616 0.953534 0
M  V30 25809 H 2455.54 4.32852 -1.5949 0
M  V30 25810 H 2453.78 4.04596 -1.56475 0
M  V30 25811 H 2454.45 5.4675 -0.75949 0
M  V30 25812 H 2456.93 4.11553 0.613473 0
M  V30 25813 H 2455.8 5.34574 1.24588 0
M  V30 25814 H 2456.06 3.86277 2.15041 0
M  V30 25815 N 2455.12 0.166873 1.56714 0
M  V30 25816 C 2456.07 -0.782084 2.19058 0
M  V30 25817 C 2457.07 -1.24077 1.15331 0
M  V30 25818 O 2458.27 -1.20695 1.3354 0
M  V30 25819 H 2454.65 -0.270474 0.701675 0
M  V30 25820 H 2456.62 -0.232269 2.97495 0
M  V30 25821 C 2455.37 -2.00301 2.84209 0
M  V30 25822 H 2454.69 -1.65908 3.63751 0
M  V30 25823 H 2456.13 -2.64598 3.31306 0
M  V30 25824 C 2454.59 -2.82379 1.83749 0
M  V30 25825 O 2455.12 -3.79386 1.32021 0
M  V30 25826 N 2453.33 -2.47305 1.52606 0
M  V30 25827 H 2452.87 -1.68482 1.94863 0
M  V30 25828 H 2452.83 -3.02511 0.856404 0
M  V30 25829 N 2456.6 -1.57237 -0.106866 0
M  V30 25830 C 2457.85 -1.85119 -0.810889 0
M  V30 25831 C 2458.17 -0.753858 -1.79839 0
M  V30 25832 O 2457.44 0.221022 -1.94649 0
M  V30 25833 H 2456.02 -0.68303 -0.302454 0
M  V30 25834 H 2458.68 -1.94686 -0.0912982 0
M  V30 25835 H 2457.78 -2.81454 -1.3487 0
M  V30 25836 N 2458.08 0.377381 -1.53015 0
M  V30 25837 C 2459.01 1.46788 -1.81592 0
M  V30 25838 C 2459.99 1.56407 -0.66865 0
M  V30 25839 O 2461.18 1.71167 -0.917367 0
M  V30 25840 C 2458.31 2.84267 -1.99524 0
M  V30 25841 C 2457.26 2.8948 -3.15254 0
M  V30 25842 C 2456.59 4.29521 -3.18459 0
M  V30 25843 C 2457.89 2.58071 -4.54089 0
M  V30 25844 H 2459.58 1.23123 -2.72912 0
M  V30 25845 H 2457.13 0.59086 -1.3132 0
M  V30 25846 H 2459.08 3.60571 -2.18098 0
M  V30 25847 H 2457.8 3.09294 -1.04903 0
M  V30 25848 H 2456.46 2.15626 -2.96481 0
M  V30 25849 H 2456.11 4.51606 -2.21498 0
M  V30 25850 H 2455.81 4.33927 -3.96208 0
M  V30 25851 H 2457.33 5.07715 -3.39202 0
M  V30 25852 H 2458.75 3.2409 -4.72904 0
M  V30 25853 H 2457.15 2.73811 -5.33992 0
M  V30 25854 H 2458.22 1.53364 -4.60008 0
M  V30 25855 N 2459.56 1.44175 0.636506 0
M  V30 25856 C 2460.79 1.50147 1.4235 0
M  V30 25857 C 2461.2 0.124608 1.88388 0
M  V30 25858 O 2460.56 -0.868461 1.60512 0
M  V30 25859 C 2460.61 2.46161 2.6474 0
M  V30 25860 O 2460.33 3.78494 2.20622 0
M  V30 25861 C 2461.83 2.61543 3.57925 0
M  V30 25862 H 2459.05 0.509408 0.436743 0
M  V30 25863 H 2461.6 1.89086 0.7789 0
M  V30 25864 H 2459.75 2.10372 3.25303 0
M  V30 25865 H 2460.16 4.30281 2.99931 0
M  V30 25866 H 2461.64 3.32764 4.40422 0
M  V30 25867 H 2462.12 1.66592 4.06379 0
M  V30 25868 H 2462.72 2.98211 3.03233 0
M  V30 25869 N 2461.04 -0.876421 1.30983 0
M  V30 25870 C 2462.26 -1.66713 1.23376 0
M  V30 25871 C 2462.69 -1.87046 -0.198817 0
M  V30 25872 O 2462.04 -1.40758 -1.14267 0
M  V30 25873 C 2462.09 -3.01608 1.97649 0
M  V30 25874 O 2461.2 -3.9106 1.30942 0
M  V30 25875 H 2460.54 -0.509092 0.426288 0
M  V30 25876 H 2463.07 -1.0932 1.72946 0
M  V30 25877 H 2463.08 -3.5159 2.06998 0
M  V30 25878 H 2461.75 -2.86128 3.01834 0
M  V30 25879 H 2460.33 -3.49505 1.30003 0
M  V30 25880 N 2462.51 -1.13839 -1.08989 0
M  V30 25881 C 2463.76 -0.897541 -1.8063 0
M  V30 25882 C 2464.08 0.577737 -1.86873 0
M  V30 25883 O 2465.28 0.935656 -2.54868 0
M  V30 25884 C 2463.74 -1.55623 -3.24514 0
M  V30 25885 C 2463.35 -3.06735 -3.26523 0
M  V30 25886 C 2465.09 -1.39627 -4.0088 0
M  V30 25887 C 2463 -3.65469 -4.64959 0
M  V30 25888 H 2461.93 -0.332141 -0.676904 0
M  V30 25889 H 2464.58 -1.36662 -1.22457 0
M  V30 25890 H 2462.96 -1.01483 -3.82776 0
M  V30 25891 H 2464.13 -3.67494 -2.78002 0
M  V30 25892 H 2462.45 -3.22301 -2.6365 0
M  V30 25893 H 2465.05 -1.80915 -5.03164 0
M  V30 25894 H 2465.39 -0.341651 -4.14896 0
M  V30 25895 H 2465.92 -1.90772 -3.49072 0
M  V30 25896 H 2462.66 -4.70757 -4.56145 0
M  V30 25897 H 2462.18 -3.0949 -5.13786 0
M  V30 25898 H 2463.86 -3.6541 -5.33933 0
M  V30 25899 N 2463.99 1.27046 -0.932584 0
M  V30 25900 C 2464.94 2.26681 -0.434112 0
M  V30 25901 C 2465.91 1.58345 0.501611 0
M  V30 25902 O 2467.09 1.86127 0.419701 0
M  V30 25903 C 2464.23 3.43771 0.302549 0
M  V30 25904 C 2463.35 4.26806 -0.667849 0
M  V30 25905 C 2462.48 5.31125 0.0891459 0
M  V30 25906 C 2461.52 6.05833 -0.873639 0
M  V30 25907 N 2460.66 7.01942 -0.148955 0
M  V30 25908 H 2465.5 2.68693 -1.28873 0
M  V30 25909 H 2463.04 1.3212 -0.646736 0
M  V30 25910 H 2464.99 4.10476 0.74602 0
M  V30 25911 H 2463.62 3.02697 1.12136 0
M  V30 25912 H 2462.68 3.59971 -1.22984 0
M  V30 25913 H 2463.99 4.78649 -1.40345 0
M  V30 25914 H 2463.14 6.03802 0.592303 0
M  V30 25915 H 2461.88 4.80099 0.857686 0
M  V30 25916 H 2460.89 5.31991 -1.388 0
M  V30 25917 H 2462.11 6.58949 -1.64204 0
M  V30 25918 H 2460.06 6.53239 0.60125 0
M  V30 25919 H 2459.97 7.51496 -0.824042 0
M  V30 25920 H 2461.24 7.78787 0.33339 0
M  V30 25921 N 2465.47 0.698636 1.41269 0
M  V30 25922 C 2466.72 0.240008 2.01979 0
M  V30 25923 C 2467.07 -1.14858 1.54355 0
M  V30 25924 O 2466.36 -1.7647 0.746249 0
M  V30 25925 C 2466.56 0.240254 3.56592 0
M  V30 25926 C 2466.39 1.62733 4.19223 0
M  V30 25927 C 2465.16 2.23092 4.53385 0
M  V30 25928 C 2467.36 2.5745 4.45223 0
M  V30 25929 N 2465.34 3.54332 5.0132 0
M  V30 25930 C 2466.71 3.73374 4.94967 0
M  V30 25931 C 2468.76 2.55678 4.27239 0
M  V30 25932 C 2467.47 4.8781 5.28615 0
M  V30 25933 C 2469.49 3.69229 4.61978 0
M  V30 25934 C 2468.85 4.83882 5.11896 0
M  V30 25935 H 2464.95 0.133282 0.770558 0
M  V30 25936 H 2467.54 0.916779 1.71765 0
M  V30 25937 H 2465.71 -0.406014 3.86272 0
M  V30 25938 H 2467.44 -0.233489 4.04026 0
M  V30 25939 H 2464.2 1.75348 4.39943 0
M  V30 25940 H 2464.62 4.21613 5.2969 0
M  V30 25941 H 2469.26 1.6825 3.87881 0
M  V30 25942 H 2466.98 5.75895 5.66895 0
M  V30 25943 H 2470.57 3.69113 4.49719 0
M  V30 25944 H 2469.45 5.70292 5.38272 0
M  V30 25945 N 2466.95 -1.51228 0.443603 0
M  V30 25946 C 2467.91 -2.26464 -0.353092 0
M  V30 25947 C 2468.91 -1.30151 -0.944315 0
M  V30 25948 O 2470.1 -1.53811 -0.817786 0
M  V30 25949 C 2467.23 -3.06117 -1.50018 0
M  V30 25950 H 2468.43 -2.98331 0.306352 0
M  V30 25951 H 2465.98 -1.55054 0.196929 0
M  V30 25952 H 2466.71 -2.38681 -2.19549 0
M  V30 25953 H 2466.5 -3.76866 -1.08235 0
M  V30 25954 H 2467.99 -3.6309 -2.06289 0
M  V30 25955 N 2468.43 -0.175182 -1.56623 0
M  V30 25956 C 2469.7 0.51534 -1.88689 0
M  V30 25957 C 2470.08 1.81042 -1.08567 0
M  V30 25958 O 2469.43 2.27784 -0.180743 0
M  V30 25959 C 2469.64 0.753492 -3.40769 0
M  V30 25960 C 2470.99 1.08177 -4.10588 0
M  V30 25961 O 2472.01 0.8419 -3.46108 0
M  V30 25962 O 2470.87 1.5345 -5.24514 0
M  V30 25963 H 2467.97 0.266116 -0.783014 0
M  V30 25964 H 2470.51 -0.213907 -1.68346 0
M  V30 25965 H 2469.28 -0.161898 -3.90965 0
M  V30 25966 H 2468.91 1.53592 -3.66736 0
M  V30 25967 N 2469.91 1.57292 0.0985263 0
M  V30 25968 C 2470.85 2.02823 1.13866 0
M  V30 25969 C 2471.85 0.928691 1.41675 0
M  V30 25970 O 2473.05 1.11387 1.41396 0
M  V30 25971 H 2469.43 0.646324 0.384408 0
M  V30 25972 H 2471.4 2.89376 0.728296 0
M  V30 25973 C 2470.15 2.46558 2.45162 0
M  V30 25974 H 2469.47 3.30744 2.24607 0
M  V30 25975 H 2470.91 2.82196 3.16451 0
M  V30 25976 C 2469.37 1.33747 3.09214 0
M  V30 25977 O 2469.9 0.66471 3.96162 0
M  V30 25978 N 2468.11 1.08932 2.69411 0
M  V30 25979 H 2467.65 1.63821 1.98798 0
M  V30 25980 H 2467.61 0.336513 3.12594 0
M  V30 25981 N 2471.38 -0.369261 1.53213 0
M  V30 25982 C 2472.33 -1.4725 1.80056 0
M  V30 25983 C 2473.33 -1.55609 0.669484 0
M  V30 25984 O 2474.53 -1.5854 0.852355 0
M  V30 25985 H 2470.91 -0.490465 0.570042 0
M  V30 25986 H 2472.88 -1.21812 2.72405 0
M  V30 25987 C 2471.63 -2.84133 2.00408 0
M  V30 25988 H 2470.95 -2.78459 2.86881 0
M  V30 25989 H 2472.39 -3.60515 2.2317 0
M  V30 25990 C 2470.85 -3.27695 0.782139 0
M  V30 25991 O 2471.38 -4.01688 -0.0309499 0
M  V30 25992 N 2469.58 -2.84198 0.606623 0
M  V30 25993 H 2469.13 -2.2415 1.26943 0
M  V30 25994 H 2469.09 -3.13701 -0.209564 0
M  V30 25995 N 2472.86 -1.4451 -0.628851 0
M  V30 25996 C 2474.1 -1.48936 -1.3999 0
M  V30 25997 C 2474.47 -0.119637 -1.91627 0
M  V30 25998 O 2475.67 -0.0385755 -2.68772 0
M  V30 25999 C 2473.94 -2.52202 -2.53237 0
M  V30 26000 S 2475.5 -2.75693 -3.41378 0
M  V30 26001 H 2472.31 -0.526752 -0.477549 0
M  V30 26002 H 2474.92 -1.81449 -0.727772 0
M  V30 26003 H 2473.62 -3.50423 -2.13616 0
M  V30 26004 H 2473.15 -2.2127 -3.25274 0
M  V30 26005 H 2475.17 -2.07461 -4.50749 0
M  V30 26006 N 2474.34 0.869463 -1.31446 0
M  V30 26007 C 2475.57 1.65292 -1.23945 0
M  V30 26008 C 2475.98 1.88166 0.197528 0
M  V30 26009 O 2475.32 1.44035 1.14016 0
M  V30 26010 C 2475.38 3.04319 -1.9139 0
M  V30 26011 C 2475.05 3.04551 -3.40731 0
M  V30 26012 C 2476.04 2.82473 -4.36469 0
M  V30 26013 C 2473.73 3.25656 -3.82431 0
M  V30 26014 C 2475.72 2.8148 -5.71881 0
M  V30 26015 C 2473.41 3.24291 -5.17956 0
M  V30 26016 C 2474.41 3.0223 -6.12492 0
M  V30 26017 O 2474.1 3.00711 -7.45539 0
M  V30 26018 H 2473.83 0.522047 -0.429468 0
M  V30 26019 H 2476.38 1.09347 -1.73875 0
M  V30 26020 H 2474.61 3.61992 -1.3601 0
M  V30 26021 H 2476.3 3.64888 -1.77797 0
M  V30 26022 H 2477.07 2.65949 -4.05581 0
M  V30 26023 H 2472.95 3.41858 -3.0928 0
M  V30 26024 H 2476.49 2.64179 -6.45643 0
M  V30 26025 H 2472.39 3.40355 -5.48479 0
M  V30 26026 H 2473.15 3.16769 -7.54718 0
M  V30 26027 N 2475.82 1.14415 1.08383 0
M  V30 26028 C 2476.75 0.854082 2.17319 0
M  V30 26029 C 2477.73 -0.19102 1.69024 0
M  V30 26030 O 2478.91 -0.0476438 1.94142 0
M  V30 26031 C 2476.04 0.331044 3.45719 0
M  V30 26032 C 2475 1.31162 4.07407 0
M  V30 26033 C 2474.32 0.647873 5.3076 0
M  V30 26034 C 2475.62 2.67396 4.48661 0
M  V30 26035 H 2477.32 1.76502 2.41842 0
M  V30 26036 H 2474.86 0.850071 1.16232 0
M  V30 26037 H 2476.82 0.115719 4.21241 0
M  V30 26038 H 2475.54 -0.615324 3.20751 0
M  V30 26039 H 2474.2 1.51312 3.33917 0
M  V30 26040 H 2473.85 -0.304309 5.02079 0
M  V30 26041 H 2473.55 1.30217 5.7299 0
M  V30 26042 H 2475.07 0.442079 6.08998 0
M  V30 26043 H 2476.49 2.51153 5.15359 0
M  V30 26044 H 2474.88 3.29102 5.01809 0
M  V30 26045 H 2475.95 3.24254 3.60537 0
M  V30 26046 N 2477.3 -1.26549 0.939309 0
M  V30 26047 C 2478.26 -2.24698 0.452026 0
M  V30 26048 C 2479.26 -1.54781 -0.435842 0
M  V30 26049 O 2480.45 -1.72604 -0.235284 0
M  V30 26050 C 2477.58 -3.39111 -0.348741 0
M  V30 26051 H 2478.77 -2.6932 1.31935 0
M  V30 26052 H 2476.33 -1.38672 0.721096 0
M  V30 26053 H 2477.06 -2.99889 -1.23439 0
M  V30 26054 H 2476.85 -3.91041 0.288014 0
M  V30 26055 H 2478.34 -4.12032 -0.679654 0
M  V30 26056 N 2478.77 -0.706118 -1.40896 0
M  V30 26057 C 2480 -0.250923 -2.05373 0
M  V30 26058 C 2480.42 1.10378 -1.53174 0
M  V30 26059 O 2479.77 1.69184 -0.684335 0
M  V30 26060 C 2479.82 -0.211634 -3.6088 0
M  V30 26061 O 2479.55 -1.51283 -4.11151 0
M  V30 26062 C 2481.05 0.263268 -4.42518 0
M  V30 26063 H 2478.27 -0.114564 -0.661148 0
M  V30 26064 H 2480.81 -0.961666 -1.80478 0
M  V30 26065 H 2478.97 0.450005 -3.84777 0
M  V30 26066 H 2479.38 -1.40698 -5.05277 0
M  V30 26067 H 2480.85 0.239621 -5.5148 0
M  V30 26068 H 2481.33 1.30389 -4.19399 0
M  V30 26069 H 2481.94 -0.367751 -4.23707 0
M  V30 26070 N 2480.25 1.50991 -0.451617 0
M  V30 26071 C 2481.21 2.26648 0.341077 0
M  V30 26072 C 2482.21 1.3065 0.937399 0
M  V30 26073 O 2483.4 1.54243 0.809617 0
M  V30 26074 C 2480.54 3.06908 1.48392 0
M  V30 26075 H 2481.73 2.98165 -0.322169 0
M  V30 26076 H 2479.28 1.54948 -0.205149 0
M  V30 26077 H 2480.02 2.39842 2.1828 0
M  V30 26078 H 2479.8 3.77434 1.06235 0
M  V30 26079 H 2481.29 3.64179 2.04361 0
M  V30 26080 N 2481.73 0.183486 1.56528 0
M  V30 26081 C 2482.66 -0.737417 2.2155 0
M  V30 26082 C 2483.64 -1.23003 1.17492 0
M  V30 26083 O 2484.83 -1.28098 1.45961 0
M  V30 26084 C 2481.96 -1.96189 2.86578 0
M  V30 26085 C 2480.91 -1.60466 3.9678 0
M  V30 26086 C 2480.24 -2.90479 4.48917 0
M  V30 26087 C 2481.54 -0.823406 5.15769 0
M  V30 26088 H 2483.23 -0.195401 2.98762 0
M  V30 26089 H 2480.78 -0.0925433 1.43702 0
M  V30 26090 H 2482.73 -2.61125 3.30744 0
M  V30 26091 H 2481.45 -2.52825 2.06754 0
M  V30 26092 H 2480.11 -0.978935 3.53288 0
M  V30 26093 H 2479.76 -3.4518 3.65869 0
M  V30 26094 H 2479.46 -2.67326 5.23269 0
M  V30 26095 H 2480.98 -3.56423 4.95777 0
M  V30 26096 H 2482.4 -1.37561 5.56552 0
M  V30 26097 H 2480.79 -0.690446 5.96115 0
M  V30 26098 H 2481.86 0.177867 4.84574 0
M  V30 26099 N 2483.21 -1.57342 -0.0901833 0
M  V30 26100 C 2484.14 -2.05444 -1.10972 0
M  V30 26101 C 2485.12 -0.944308 -1.41481 0
M  V30 26102 O 2486.3 -1.21589 -1.51426 0
M  V30 26103 C 2483.43 -2.483 -2.42826 0
M  V30 26104 C 2482.39 -3.63022 -2.26714 0
M  V30 26105 C 2481.71 -3.9187 -3.63789 0
M  V30 26106 C 2483.01 -4.93735 -1.70361 0
M  V30 26107 H 2484.71 -2.90872 -0.709513 0
M  V30 26108 H 2482.25 -1.39932 -0.339849 0
M  V30 26109 H 2484.21 -2.80561 -3.14426 0
M  V30 26110 H 2482.93 -1.59878 -2.84792 0
M  V30 26111 H 2481.59 -3.31015 -1.57559 0
M  V30 26112 H 2481.24 -3.00608 -4.03291 0
M  V30 26113 H 2480.94 -4.69108 -3.53853 0
M  V30 26114 H 2482.46 -4.2661 -4.36848 0
M  V30 26115 H 2483.88 -5.24346 -2.31807 0
M  V30 26116 H 2482.27 -5.7517 -1.71171 0
M  V30 26117 H 2483.34 -4.8034 -0.663458 0
M  V30 26118 N 2484.69 0.36113 -1.53407 0
M  V30 26119 C 2485.91 1.1238 -1.73719 0
M  V30 26120 C 2486.33 1.82903 -0.468193 0
M  V30 26121 O 2485.69 1.73723 0.559167 0
M  V30 26122 C 2485.74 2.15073 -2.90561 0
M  V30 26123 O 2485.46 1.47421 -4.12551 0
M  V30 26124 C 2486.96 3.03852 -3.22783 0
M  V30 26125 H 2484.18 0.335848 -0.580902 0
M  V30 26126 H 2486.72 0.418693 -2.00168 0
M  V30 26127 H 2484.88 2.81175 -2.66494 0
M  V30 26128 H 2485.29 2.15879 -4.78013 0
M  V30 26129 H 2486.77 3.7188 -4.07933 0
M  V30 26130 H 2487.24 3.68908 -2.38335 0
M  V30 26131 H 2487.85 2.43361 -3.48792 0
M  V30 26132 N 2486.16 1.44842 0.621179 0
M  V30 26133 C 2487.09 1.55306 1.74363 0
M  V30 26134 C 2488.08 0.405414 1.65198 0
M  V30 26135 O 2489.26 0.62682 1.83806 0
M  V30 26136 C 2486.39 1.50643 3.12928 0
M  V30 26137 C 2485.34 2.63985 3.36892 0
M  V30 26138 C 2484.67 2.44375 4.75589 0
M  V30 26139 C 2485.97 4.0608 3.28476 0
M  V30 26140 H 2487.66 2.49259 1.65863 0
M  V30 26141 H 2485.21 1.19964 0.796537 0
M  V30 26142 H 2487.16 1.56562 3.91237 0
M  V30 26143 H 2485.89 0.532114 3.22236 0
M  V30 26144 H 2484.55 2.57471 2.60967 0
M  V30 26145 H 2484.19 1.45113 4.81613 0
M  V30 26146 H 2483.89 3.20373 4.9258 0
M  V30 26147 H 2485.42 2.52127 5.56115 0
M  V30 26148 H 2486.83 4.13909 3.96676 0
M  V30 26149 H 2485.23 4.8236 3.57 0
M  V30 26150 H 2486.3 4.28947 2.26125 0
M  V30 26151 N 2487.64 -0.862479 1.31905 0
M  V30 26152 C 2488.57 -1.97673 1.16009 0
M  V30 26153 C 2489.59 -1.6251 0.0971519 0
M  V30 26154 O 2490.78 -1.75127 0.345367 0
M  V30 26155 C 2487.88 -3.30455 0.751849 0
M  V30 26156 C 2487.05 -3.93911 1.9014 0
M  V30 26157 C 2486.11 -5.05017 1.47799 0
M  V30 26158 O 2485.13 -5.25433 2.18881 0
M  V30 26159 N 2486.34 -5.79322 0.369593 0
M  V30 26160 H 2489.1 -2.11854 2.11986 0
M  V30 26161 H 2486.66 -1.03689 1.24339 0
M  V30 26162 H 2488.65 -4.02177 0.451155 0
M  V30 26163 H 2487.22 -3.12383 -0.116538 0
M  V30 26164 H 2486.44 -3.15074 2.36901 0
M  V30 26165 H 2487.73 -4.33042 2.67118 0
M  V30 26166 H 2487.13 -5.65263 -0.2222 0
M  V30 26167 H 2485.69 -6.51673 0.128469 0
M  V30 26168 N 2489.12 -1.14988 -1.07775 0
M  V30 26169 C 2490.05 -0.800474 -2.14767 0
M  V30 26170 C 2491.07 0.185566 -1.61739 0
M  V30 26171 O 2492.25 -0.0370672 -1.78462 0
M  V30 26172 C 2489.35 -0.168592 -3.3848 0
M  V30 26173 C 2488.53 -1.19098 -4.20874 0
M  V30 26174 C 2487.59 -0.581667 -5.22975 0
M  V30 26175 O 2486.61 -1.24643 -5.55385 0
M  V30 26176 N 2487.81 0.638605 -5.76977 0
M  V30 26177 H 2490.58 -1.72122 -2.45345 0
M  V30 26178 H 2488.14 -1.04518 -1.23643 0
M  V30 26179 H 2490.13 0.251693 -4.03917 0
M  V30 26180 H 2488.7 0.655414 -3.05652 0
M  V30 26181 H 2487.92 -1.78797 -3.51319 0
M  V30 26182 H 2489.21 -1.88142 -4.72737 0
M  V30 26183 H 2488.61 1.19714 -5.52888 0
M  V30 26184 H 2487.17 1.00131 -6.44063 0
M  V30 26185 N 2490.6 1.26049 -0.946007 0
M  V30 26186 C 2491.85 1.92821 -0.591869 0
M  V30 26187 C 2492.16 1.74991 0.873925 0
M  V30 26188 O 2493.37 2.36261 1.33765 0
M  V30 26189 C 2491.82 3.45501 -1.00782 0
M  V30 26190 C 2491.43 3.72056 -2.49556 0
M  V30 26191 C 2493.17 4.18249 -0.725808 0
M  V30 26192 C 2491.08 5.182 -2.84997 0
M  V30 26193 H 2490.01 0.721904 -0.217647 0
M  V30 26194 H 2492.66 1.4305 -1.1493 0
M  V30 26195 H 2491.04 3.94183 -0.378882 0
M  V30 26196 H 2492.22 3.3406 -3.17396 0
M  V30 26197 H 2490.53 3.12551 -2.75138 0
M  V30 26198 H 2493.13 5.25886 -0.966864 0
M  V30 26199 H 2493.47 4.14929 0.337566 0
M  V30 26200 H 2494.01 3.75447 -1.31469 0
M  V30 26201 H 2490.75 5.26624 -3.90316 0
M  V30 26202 H 2490.27 5.57274 -2.21823 0
M  V30 26203 H 2491.94 5.86247 -2.73722 0
M  V30 26204 N 2492.08 0.71358 1.4052 0
M  V30 26205 C 2492.99 0.0607079 2.34521 0
M  V30 26206 C 2494 -0.746043 1.57195 0
M  V30 26207 O 2495.18 -0.67946 1.89592 0
M  V30 26208 C 2492.24 -0.851432 3.36083 0
M  V30 26209 C 2491.3 -0.0348584 4.29286 0
M  V30 26210 C 2490.54 -0.903557 5.25996 0
M  V30 26211 O 2490.76 -2.14282 5.2862 0
M  V30 26212 O 2489.69 -0.343618 6.00918 0
M  V30 26213 H 2493.52 0.836023 2.91966 0
M  V30 26214 H 2491.11 0.474045 1.4168 0
M  V30 26215 H 2492.99 -1.37397 3.98372 0
M  V30 26216 H 2491.66 -1.60593 2.81055 0
M  V30 26217 H 2490.57 0.532698 3.70288 0
M  V30 26218 H 2491.9 0.681372 4.87461 0
M  V30 26219 N 2493.55 -1.50749 0.459618 0
M  V30 26220 C 2494.48 -2.31148 -0.330604 0
M  V30 26221 C 2495.47 -1.37539 -1.00085 0
M  V30 26222 O 2496.65 -1.66461 -1.00022 0
M  V30 26223 C 2493.78 -3.16965 -1.41952 0
M  V30 26224 C 2492.73 -4.19033 -0.871534 0
M  V30 26225 C 2492.06 -4.93513 -2.05788 0
M  V30 26226 C 2493.36 -5.22186 0.109343 0
M  V30 26227 H 2495.05 -2.97459 0.340388 0
M  V30 26228 H 2492.6 -1.4305 0.165144 0
M  V30 26229 H 2494.55 -3.72001 -1.97973 0
M  V30 26230 H 2493.28 -2.48517 -2.11912 0
M  V30 26231 H 2491.94 -3.65081 -0.333378 0
M  V30 26232 H 2491.58 -4.21548 -2.74419 0
M  V30 26233 H 2491.28 -5.62547 -1.6975 0
M  V30 26234 H 2492.81 -5.5138 -2.62321 0
M  V30 26235 H 2494.22 -5.7216 -0.361304 0
M  V30 26236 H 2492.62 -5.98874 0.383421 0
M  V30 26237 H 2493.69 -4.73639 1.03896 0
M  V30 26238 N 2495.03 -0.191784 -1.56429 0
M  V30 26239 C 2495.98 0.730416 -2.18937 0
M  V30 26240 C 2496.95 1.21217 -1.13559 0
M  V30 26241 O 2498.13 1.27666 -1.41796 0
M  V30 26242 C 2495.27 1.94575 -2.85017 0
M  V30 26243 C 2494.39 1.50567 -4.04912 0
M  V30 26244 C 2493.52 2.67625 -4.58857 0
M  V30 26245 C 2492.56 2.20207 -5.71118 0
M  V30 26246 N 2491.7 3.30431 -6.19484 0
M  V30 26247 H 2496.54 0.190611 -2.9739 0
M  V30 26248 H 2494.08 0.0823436 -1.46869 0
M  V30 26249 H 2496.03 2.65887 -3.21496 0
M  V30 26250 H 2494.66 2.45892 -2.09133 0
M  V30 26251 H 2493.72 0.688539 -3.74117 0
M  V30 26252 H 2495.03 1.11775 -4.86115 0
M  V30 26253 H 2494.18 3.47065 -4.97625 0
M  V30 26254 H 2492.92 3.09689 -3.76755 0
M  V30 26255 H 2491.93 1.3922 -5.31881 0
M  V30 26256 H 2493.15 1.79178 -6.55036 0
M  V30 26257 H 2491.1 3.72032 -5.40304 0
M  V30 26258 H 2491.01 2.95797 -6.9573 0
M  V30 26259 H 2492.28 4.10094 -6.62905 0
M  V30 26260 N 2496.51 1.57387 0.0818378 0
M  V30 26261 C 2497.76 1.86754 0.782882 0
M  V30 26262 C 2498.09 0.782149 1.78081 0
M  V30 26263 O 2497.34 -0.222916 1.94426 0
M  V30 26264 C 2497.64 3.22754 1.53507 0
M  V30 26265 C 2497.31 4.45773 0.678056 0
M  V30 26266 C 2495.97 4.79167 0.441845 0
M  V30 26267 C 2498.32 5.21134 0.0831327 0
M  V30 26268 C 2495.65 5.85342 -0.398936 0
M  V30 26269 C 2498 6.28197 -0.745045 0
M  V30 26270 C 2496.66 6.60099 -0.991223 0
M  V30 26271 H 2495.93 0.683383 0.286477 0
M  V30 26272 H 2498.58 1.9145 0.0439472 0
M  V30 26273 H 2496.89 3.13804 2.34594 0
M  V30 26274 H 2498.58 3.42708 2.08212 0
M  V30 26275 H 2495.17 4.1963 0.872283 0
M  V30 26276 H 2499.36 4.95656 0.25276 0
M  V30 26277 H 2494.61 6.08463 -0.598512 0
M  V30 26278 H 2498.79 6.85758 -1.21283 0
M  V30 26279 H 2496.41 7.42199 -1.6445 0
M  V30 26280 N 2497.99 -0.35299 1.53596 0
M  V30 26281 C 2498.94 -1.45332 1.81608 0
M  V30 26282 C 2499.93 -1.54891 0.685951 0
M  V30 26283 O 2501.14 -1.57627 0.869123 0
M  V30 26284 H 2497.51 -0.484391 0.575212 0
M  V30 26285 H 2499.48 -1.18916 2.73681 0
M  V30 26286 C 2498.23 -2.81992 2.03411 0
M  V30 26287 H 2497.55 -2.754 2.89818 0
M  V30 26288 H 2498.99 -3.58128 2.26981 0
M  V30 26289 C 2497.45 -3.26847 0.816851 0
M  V30 26290 O 2497.98 -4.01698 0.0116562 0
M  V30 26291 N 2496.19 -2.83538 0.636732 0
M  V30 26292 H 2495.74 -2.22791 1.29313 0
M  V30 26293 H 2495.69 -3.13905 -0.17628 0
M  V30 26294 N 2499.47 -1.45169 -0.613489 0
M  V30 26295 C 2500.88 -1.43415 -1.19537 0
M  V30 26296 C 2501.23 -0.158666 -1.95557 0
M  V30 26297 O 2500.35 0.740083 -2.03351 0
M  V30 26298 C 2500.95 -2.59817 -2.17441 0
M  V30 26299 C 2499.51 -2.61202 -2.71017 0
M  V30 26300 C 2498.66 -2.35555 -1.46319 0
M  V30 26301 H 2501.61 -1.53494 -0.403136 0
M  V30 26302 H 2501.63 -2.33579 -3.00368 0
M  V30 26303 H 2501.14 -3.52634 -1.62083 0
M  V30 26304 H 2499.24 -1.72375 -3.30329 0
M  V30 26305 H 2499.35 -3.60241 -3.15853 0
M  V30 26306 H 2497.72 -1.84995 -1.75069 0
M  V30 26307 H 2498.5 -3.30509 -0.928382 0
M  V30 26308 N 2500.95 0.855472 -1.32361 0
M  V30 26309 C 2502.36 1.42553 -1.20563 0
M  V30 26310 C 2502.71 1.95352 0.182175 0
M  V30 26311 O 2501.83 1.87474 1.08085 0
M  V30 26312 C 2502.43 2.59125 -2.18265 0
M  V30 26313 C 2500.99 3.12133 -2.10356 0
M  V30 26314 C 2500.13 1.84878 -2.06677 0
M  V30 26315 H 2503.08 0.662702 -1.44201 0
M  V30 26316 H 2503.11 3.36261 -1.7807 0
M  V30 26317 H 2502.62 2.20667 -3.19261 0
M  V30 26318 H 2500.72 3.55177 -1.12605 0
M  V30 26319 H 2500.83 3.73433 -3.00141 0
M  V30 26320 H 2499.2 2.04444 -1.51904 0
M  V30 26321 H 2499.98 1.48638 -3.09454 0
M  V30 26322 N 2502.42 1.15558 1.07164 0
M  V30 26323 C 2503.39 0.856682 2.12588 0
M  V30 26324 C 2504.39 -0.144411 1.6015 0
M  V30 26325 O 2505.58 0.0854469 1.7399 0
M  V30 26326 C 2502.71 0.279465 3.39753 0
M  V30 26327 H 2503.9 1.79116 2.40536 0
M  V30 26328 H 2501.45 0.96332 1.23085 0
M  V30 26329 H 2502.19 -0.663119 3.17448 0
M  V30 26330 H 2501.97 1.0007 3.79115 0
M  V30 26331 H 2503.46 0.0879847 4.17507 0
M  V30 26332 N 2503.9 -1.25546 0.952678 0
M  V30 26333 C 2504.83 -2.28315 0.489327 0
M  V30 26334 C 2505.81 -1.63668 -0.46333 0
M  V30 26335 O 2507 -1.90783 -0.362707 0
M  V30 26336 C 2504.13 -3.465 -0.235542 0
M  V30 26337 C 2503.08 -4.23313 0.631668 0
M  V30 26338 C 2502.41 -5.34231 -0.223829 0
M  V30 26339 C 2503.71 -4.86171 1.9088 0
M  V30 26340 H 2505.4 -2.67324 1.34827 0
M  V30 26341 H 2502.95 -1.28508 0.64975 0
M  V30 26342 H 2504.9 -4.17516 -0.570809 0
M  V30 26343 H 2503.62 -3.06476 -1.12871 0
M  V30 26344 H 2502.28 -3.54077 0.949991 0
M  V30 26345 H 2501.93 -4.90448 -1.1167 0
M  V30 26346 H 2501.63 -5.86538 0.353094 0
M  V30 26347 H 2503.16 -6.08081 -0.554107 0
M  V30 26348 H 2504.57 -5.4934 1.64006 0
M  V30 26349 H 2502.97 -5.48645 2.43122 0
M  V30 26350 H 2504.04 -4.08466 2.61311 0
M  V30 26351 N 2505.38 -0.721022 -1.40139 0
M  V30 26352 C 2506.31 -0.0325072 -2.29177 0
M  V30 26353 C 2507.32 0.7181 -1.46107 0
M  V30 26354 O 2508.51 0.564578 -1.69336 0
M  V30 26355 C 2505.61 0.978235 -3.24475 0
M  V30 26356 C 2504.79 0.292039 -4.36424 0
M  V30 26357 C 2503.85 1.20892 -5.12124 0
M  V30 26358 O 2502.87 0.691667 -5.64982 0
M  V30 26359 N 2504.07 2.53969 -5.21996 0
M  V30 26360 H 2506.84 -0.797035 -2.88907 0
M  V30 26361 H 2504.4 -0.569094 -1.51568 0
M  V30 26362 H 2506.39 1.59391 -3.7199 0
M  V30 26363 H 2504.96 1.64408 -2.65874 0
M  V30 26364 H 2504.18 -0.503916 -3.90966 0
M  V30 26365 H 2505.47 -0.184061 -5.08467 0
M  V30 26366 H 2504.87 2.98484 -4.80545 0
M  V30 26367 H 2503.42 3.10667 -5.73 0
M  V30 26368 N 2506.86 1.50503 -0.467606 0
M  V30 26369 C 2508.13 1.95024 0.149996 0
M  V30 26370 C 2508.51 1.40782 1.57301 0
M  V30 26371 O 2507.86 0.607358 2.2028 0
M  V30 26372 C 2508.07 3.48866 0.0968711 0
M  V30 26373 C 2509.42 4.23626 0.28749 0
M  V30 26374 O 2510.44 3.55777 0.173615 0
M  V30 26375 O 2509.3 5.44048 0.51709 0
M  V30 26376 H 2506.4 0.819165 0.113568 0
M  V30 26377 H 2508.94 1.61285 -0.527758 0
M  V30 26378 H 2507.72 3.80885 -0.896798 0
M  V30 26379 H 2507.34 3.89132 0.816234 0
M  V30 26380 N 2508.34 0.200077 1.56325 0
M  V30 26381 C 2509.3 -0.705094 2.18085 0
M  V30 26382 C 2510.3 -1.13738 1.13668 0
M  V30 26383 O 2511.49 -1.04966 1.39025 0
M  V30 26384 C 2508.62 -1.96324 2.78693 0
M  V30 26385 H 2509.81 -0.16697 2.99435 0
M  V30 26386 H 2507.37 -0.049545 1.56221 0
M  V30 26387 H 2508.1 -2.54376 2.01155 0
M  V30 26388 H 2507.89 -1.66196 3.55136 0
M  V30 26389 H 2509.38 -2.60861 3.261 0
M  V30 26390 N 2509.81 -1.57429 -0.0734901 0
M  V30 26391 C 2511.04 -1.91114 -0.784796 0
M  V30 26392 C 2511.45 -0.794131 -1.71727 0
M  V30 26393 O 2510.79 0.24151 -1.82106 0
M  V30 26394 C 2510.86 -3.2025 -1.63341 0
M  V30 26395 C 2510.52 -4.48633 -0.870478 0
M  V30 26396 C 2511.52 -5.19551 -0.190489 0
M  V30 26397 C 2509.2 -4.95258 -0.838155 0
M  V30 26398 C 2511.2 -6.35343 0.511615 0
M  V30 26399 C 2508.88 -6.10957 -0.132279 0
M  V30 26400 C 2509.88 -6.80851 0.541408 0
M  V30 26401 O 2509.57 -7.94343 1.23592 0
M  V30 26402 H 2509.3 -0.636248 -0.228397 0
M  V30 26403 H 2511.86 -2.05343 -0.0485678 0
M  V30 26404 H 2510.09 -3.02226 -2.41239 0
M  V30 26405 H 2511.77 -3.39599 -2.22323 0
M  V30 26406 H 2512.54 -4.84559 -0.206778 0
M  V30 26407 H 2508.42 -4.40729 -1.35198 0
M  V30 26408 H 2511.96 -6.89834 1.03801 0
M  V30 26409 H 2507.86 -6.45399 -0.11391 0
M  V30 26410 H 2508.63 -8.10452 1.14502 0
M  V30 26411 N 2511.29 0.344839 -1.53781 0
M  V30 26412 C 2512.52 1.10371 -1.74648 0
M  V30 26413 C 2512.93 1.8288 -0.484943 0
M  V30 26414 O 2512.27 1.75178 0.553031 0
M  V30 26415 C 2512.33 2.16301 -2.87149 0
M  V30 26416 C 2512 1.63378 -4.26798 0
M  V30 26417 C 2513 1.08679 -5.08414 0
M  V30 26418 C 2510.68 1.68264 -4.73279 0
M  V30 26419 C 2512.67 0.595681 -6.3461 0
M  V30 26420 C 2510.36 1.18765 -5.99448 0
M  V30 26421 C 2511.36 0.645096 -6.79947 0
M  V30 26422 O 2511.05 0.157485 -8.03746 0
M  V30 26423 H 2510.78 0.335064 -0.587118 0
M  V30 26424 H 2513.33 0.403217 -2.01403 0
M  V30 26425 H 2511.56 2.89905 -2.55915 0
M  V30 26426 H 2513.25 2.77742 -2.95997 0
M  V30 26427 H 2514.02 1.04227 -4.73668 0
M  V30 26428 H 2509.9 2.09434 -4.1068 0
M  V30 26429 H 2513.44 0.171532 -6.97389 0
M  V30 26430 H 2509.34 1.22917 -6.33689 0
M  V30 26431 H 2510.11 0.274893 -8.18038 0
M  V30 26432 N 2512.77 1.45492 0.605781 0
M  V30 26433 C 2514.19 1.29938 0.926728 0
M  V30 26434 C 2514.39 0.253741 1.99896 0
M  V30 26435 O 2513.44 -0.351693 2.50039 0
M  V30 26436 C 2514.75 2.67885 1.36594 0
M  V30 26437 C 2516.3 2.75796 1.48006 0
M  V30 26438 C 2516.78 4.14272 1.95302 0
M  V30 26439 N 2518.27 4.16575 2.02533 0
M  V30 26440 C 2519 5.20593 2.40354 0
M  V30 26441 N 2518.5 6.34957 2.77132 0
M  V30 26442 N 2520.29 5.07952 2.40709 0
M  V30 26443 H 2512.44 2.12151 -0.102899 0
M  V30 26444 H 2514.71 0.947854 0.0166223 0
M  V30 26445 H 2514.41 3.45599 0.652246 0
M  V30 26446 H 2514.29 2.96467 2.3321 0
M  V30 26447 H 2516.67 1.98385 2.18466 0
M  V30 26448 H 2516.75 2.50925 0.496997 0
M  V30 26449 H 2516.4 4.92169 1.25428 0
M  V30 26450 H 2516.33 4.36535 2.94525 0
M  V30 26451 H 2518.82 3.34048 1.76693 0
M  V30 26452 H 2519.13 7.10119 3.04878 0
M  V30 26453 H 2517.48 6.38355 2.74823 0
M  V30 26454 H 2520.67 4.17653 2.11384 0
M  V30 26455 H 2520.84 5.89135 2.69858 0
M  V30 26456 N 2514.25 -0.848441 1.32813 0
M  V30 26457 C 2515.21 -1.93908 1.22198 0
M  V30 26458 C 2516.21 -1.60159 0.143432 0
M  V30 26459 O 2517.4 -1.69679 0.394283 0
M  V30 26460 C 2514.53 -3.29327 0.880728 0
M  V30 26461 H 2515.73 -2.04748 2.19131 0
M  V30 26462 H 2513.28 -1.03938 1.16733 0
M  V30 26463 H 2514.01 -3.24185 -0.0865206 0
M  V30 26464 H 2513.8 -3.552 1.66059 0
M  V30 26465 H 2515.29 -4.09249 0.830943 0
M  V30 26466 N 2515.73 -1.16125 -1.06549 0
M  V30 26467 C 2517.14 -0.905609 -1.31419 0
M  V30 26468 C 2517.34 0.44293 -1.96572 0
M  V30 26469 O 2516.4 1.18304 -2.23071 0
M  V30 26470 C 2517.71 -2.05271 -2.19737 0
M  V30 26471 C 2519.26 -2.08817 -2.33162 0
M  V30 26472 C 2519.73 -3.22874 -3.24833 0
M  V30 26473 N 2521.23 -3.22574 -3.32416 0
M  V30 26474 C 2521.96 -4.07467 -4.03433 0
M  V30 26475 N 2521.46 -5.02442 -4.76995 0
M  V30 26476 N 2523.25 -3.95463 -3.99457 0
M  V30 26477 H 2515.4 -2.0295 -0.626513 0
M  V30 26478 H 2517.66 -0.885406 -0.338762 0
M  V30 26479 H 2517.37 -3.0266 -1.79136 0
M  V30 26480 H 2517.24 -1.99203 -3.20309 0
M  V30 26481 H 2519.63 -1.12023 -2.73011 0
M  V30 26482 H 2519.71 -2.18951 -1.32266 0
M  V30 26483 H 2519.36 -4.19926 -2.857 0
M  V30 26484 H 2519.29 -3.09977 -4.25701 0
M  V30 26485 H 2521.78 -2.538 -2.79989 0
M  V30 26486 H 2522.09 -5.63643 -5.28703 0
M  V30 26487 H 2520.43 -5.06424 -4.75983 0
M  V30 26488 H 2523.63 -3.2057 -3.41105 0
M  V30 26489 H 2523.8 -4.61845 -4.54536 0
M  V30 26490 N 2517.2 1.25039 -0.959323 0
M  V30 26491 C 2518.17 2.23951 -0.487717 0
M  V30 26492 C 2519.17 1.55454 0.411162 0
M  V30 26493 O 2520.36 1.72956 0.207794 0
M  V30 26494 C 2517.49 3.39623 0.294748 0
M  V30 26495 H 2518.68 2.67187 -1.36203 0
M  V30 26496 H 2516.24 1.37507 -0.743066 0
M  V30 26497 H 2516.97 3.01815 1.18652 0
M  V30 26498 H 2516.76 3.90533 -0.350189 0
M  V30 26499 H 2518.25 4.13061 0.614017 0
M  V30 26500 N 2518.68 0.728444 1.39755 0
M  V30 26501 C 2519.93 0.272982 2.00248 0
M  V30 26502 C 2520.25 -1.14175 1.58079 0
M  V30 26503 O 2519.52 -1.77632 0.826046 0
M  V30 26504 H 2518.1 0.0979377 0.740552 0
M  V30 26505 H 2520.76 0.936942 1.70902 0
M  V30 26506 H 2519.86 0.316196 3.10494 0
M  V30 26507 N 2520.16 -1.50253 0.475581 0
M  V30 26508 C 2521.07 -2.32387 -0.32146 0
M  V30 26509 C 2522.09 -1.42971 -0.99173 0
M  V30 26510 O 2523.26 -1.7602 -0.978716 0
M  V30 26511 C 2520.33 -3.17764 -1.38661 0
M  V30 26512 C 2519.39 -4.23005 -0.732464 0
M  V30 26513 C 2518.62 -5.04302 -1.74686 0
M  V30 26514 O 2518.84 -4.86739 -2.9739 0
M  V30 26515 O 2517.78 -5.87333 -1.31621 0
M  V30 26516 H 2521.6 -3.01675 0.350124 0
M  V30 26517 H 2519.19 -1.47503 0.237347 0
M  V30 26518 H 2521.07 -3.70727 -2.00348 0
M  V30 26519 H 2519.75 -2.51199 -2.04158 0
M  V30 26520 H 2518.65 -3.74022 -0.0765245 0
M  V30 26521 H 2519.99 -4.92053 -0.120366 0
M  V30 26522 N 2521.64 -0.208365 -1.56217 0
M  V30 26523 C 2522.6 0.693518 -2.18456 0
M  V30 26524 C 2523.6 1.13133 -1.1427 0
M  V30 26525 O 2524.79 1.04227 -1.39579 0
M  V30 26526 C 2521.92 1.94843 -2.7973 0
M  V30 26527 H 2523.12 0.151088 -2.99519 0
M  V30 26528 H 2520.67 0.0412595 -1.56246 0
M  V30 26529 H 2521.4 2.53306 -2.02501 0
M  V30 26530 H 2521.19 1.6431 -3.56012 0
M  V30 26531 H 2522.68 2.59128 -3.27479 0
M  V30 26532 N 2523.12 1.57465 0.0651402 0
M  V30 26533 C 2524.08 2.03157 1.06113 0
M  V30 26534 C 2525.08 0.929655 1.31202 0
M  V30 26535 O 2526.27 1.19435 1.26811 0
M  V30 26536 C 2523.4 2.41788 2.40315 0
M  V30 26537 H 2524.59 2.92385 0.667179 0
M  V30 26538 H 2522.15 1.53174 0.311048 0
M  V30 26539 H 2522.88 1.55606 2.8453 0
M  V30 26540 H 2522.67 3.22203 2.23445 0
M  V30 26541 H 2524.16 2.77691 3.11893 0
M  V30 26542 N 2524.59 -0.336679 1.53962 0
M  V30 26543 C 2525.54 -1.43398 1.83139 0
M  V30 26544 C 2526.54 -1.54154 0.70234 0
M  V30 26545 O 2527.74 -1.56696 0.885792 0
M  V30 26546 H 2524.12 -0.478263 0.580318 0
M  V30 26547 H 2526.09 -1.16007 2.74927 0
M  V30 26548 C 2524.84 -2.79819 2.0639 0
M  V30 26549 H 2524.16 -2.72311 2.92723 0
M  V30 26550 H 2525.6 -3.557 2.30767 0
M  V30 26551 C 2524.06 -3.25963 0.851472 0
M  V30 26552 O 2524.59 -4.01663 0.054261 0
M  V30 26553 N 2522.8 -2.82847 0.66677 0
M  V30 26554 H 2522.34 -2.21407 1.31669 0
M  V30 26555 H 2522.3 -3.14075 -0.142977 0
M  V30 26556 N 2526.07 -1.45812 -0.598057 0
M  V30 26557 C 2527.32 -1.50325 -1.35678 0
M  V30 26558 C 2527.65 -0.148773 -1.9393 0
M  V30 26559 O 2526.9 0.853756 -1.76095 0
M  V30 26560 C 2527.2 -2.53771 -2.51665 0
M  V30 26561 C 2526.87 -3.98218 -2.11501 0
M  V30 26562 C 2525.53 -4.37548 -2.00262 0
M  V30 26563 C 2527.88 -4.89021 -1.803 0
M  V30 26564 C 2525.21 -5.65564 -1.56057 0
M  V30 26565 C 2527.56 -6.17459 -1.37578 0
M  V30 26566 C 2526.23 -6.5571 -1.24904 0
M  V30 26567 H 2525.5 -0.550078 -0.496483 0
M  V30 26568 H 2528.14 -1.79209 -0.67502 0
M  V30 26569 H 2526.45 -2.18491 -3.25221 0
M  V30 26570 H 2528.14 -2.54497 -3.0989 0
M  V30 26571 H 2524.73 -3.67121 -2.21179 0
M  V30 26572 H 2528.92 -4.59365 -1.87876 0
M  V30 26573 H 2524.17 -5.93988 -1.44875 0
M  V30 26574 H 2528.35 -6.87256 -1.12483 0
M  V30 26575 H 2525.98 -7.54803 -0.904254 0
M  V30 26576 N 2527.55 0.841385 -1.33261 0
M  V30 26577 C 2528.79 1.6102 -1.25905 0
M  V30 26578 C 2529.15 1.91216 0.173292 0
M  V30 26579 O 2530.36 2.66231 0.370777 0
M  V30 26580 C 2528.63 2.88658 -2.1074 0
M  V30 26581 S 2530.19 3.79347 -2.20547 0
M  V30 26582 H 2527 0.552129 -0.447967 0
M  V30 26583 H 2529.61 0.995352 -1.68265 0
M  V30 26584 H 2528.31 2.64442 -3.13845 0
M  V30 26585 H 2527.84 3.55151 -1.69208 0
M  V30 26586 H 2529.86 4.77064 -1.3647 0
M  V30 26587 N 2529.03 1.16688 1.05932 0
M  V30 26588 C 2529.99 0.879181 2.11667 0
M  V30 26589 C 2530.99 -0.127417 1.60294 0
M  V30 26590 O 2532.18 0.103896 1.7389 0
M  V30 26591 C 2529.31 0.315485 3.39437 0
M  V30 26592 H 2530.51 1.81657 2.38623 0
M  V30 26593 H 2528.06 0.976321 1.22056 0
M  V30 26594 H 2528.8 -0.629412 3.18133 0
M  V30 26595 H 2528.58 1.04085 3.78033 0
M  V30 26596 H 2530.07 0.132262 4.1739 0
M  V30 26597 N 2530.51 -1.24529 0.96594 0
M  V30 26598 C 2531.44 -2.27783 0.513516 0
M  V30 26599 C 2532.42 -1.6415 -0.445945 0
M  V30 26600 O 2533.6 -1.91157 -0.342451 0
M  V30 26601 C 2530.73 -3.46731 -0.198778 0
M  V30 26602 C 2529.69 -4.22619 0.67653 0
M  V30 26603 C 2529.01 -5.34439 -0.167154 0
M  V30 26604 C 2530.31 -4.84119 1.96026 0
M  V30 26605 H 2532.01 -2.65879 1.37654 0
M  V30 26606 H 2529.55 -1.27811 0.663344 0
M  V30 26607 H 2531.51 -4.18098 -0.526493 0
M  V30 26608 H 2530.23 -3.07656 -1.09614 0
M  V30 26609 H 2528.89 -3.5305 0.987492 0
M  V30 26610 H 2528.54 -4.91604 -1.06462 0
M  V30 26611 H 2528.24 -5.86131 0.415284 0
M  V30 26612 H 2529.76 -6.08634 -0.489581 0
M  V30 26613 H 2531.18 -5.4757 1.69823 0
M  V30 26614 H 2529.57 -5.46036 2.48927 0
M  V30 26615 H 2530.64 -4.05672 2.65629 0
M  V30 26616 N 2531.99 -0.735845 -1.39367 0
M  V30 26617 C 2533.23 -0.281039 -1.99732 0
M  V30 26618 C 2533.55 1.13843 -1.59057 0
M  V30 26619 O 2534.75 1.6928 -2.12265 0
M  V30 26620 C 2533.21 -0.451525 -3.57056 0
M  V30 26621 C 2532.82 -1.87893 -4.06694 0
M  V30 26622 C 2534.56 -0.0585362 -4.2446 0
M  V30 26623 C 2532.47 -1.99893 -5.56594 0
M  V30 26624 H 2531.4 -0.101324 -0.747161 0
M  V30 26625 H 2534.05 -0.909847 -1.59355 0
M  V30 26626 H 2532.43 0.246193 -3.95234 0
M  V30 26627 H 2533.61 -2.60868 -3.79848 0
M  V30 26628 H 2531.92 -2.22521 -3.51956 0
M  V30 26629 H 2534.52 -0.127193 -5.34549 0
M  V30 26630 H 2534.86 0.986362 -4.04446 0
M  V30 26631 H 2535.39 -0.707443 -3.91459 0
M  V30 26632 H 2532.13 -3.02574 -5.81489 0
M  V30 26633 H 2531.65 -1.31356 -5.8524 0
M  V30 26634 H 2533.33 -1.7805 -6.22019 0
M  V30 26635 N 2533.46 1.49999 -0.483543 0
M  V30 26636 C 2534.39 2.31644 0.293788 0
M  V30 26637 C 2535.37 1.39114 0.97884 0
M  V30 26638 O 2536.56 1.68031 0.973614 0
M  V30 26639 C 2533.69 3.19183 1.36892 0
M  V30 26640 C 2532.64 4.20366 0.804759 0
M  V30 26641 C 2531.97 4.96725 1.97911 0
M  V30 26642 C 2533.27 5.21945 -0.192404 0
M  V30 26643 H 2534.96 2.9688 -0.387668 0
M  V30 26644 H 2532.51 1.42769 -0.187881 0
M  V30 26645 H 2534.46 3.75103 1.9203 0
M  V30 26646 H 2533.19 2.51857 2.07932 0
M  V30 26647 H 2531.85 3.65565 0.275254 0
M  V30 26648 H 2531.49 4.25861 2.67678 0
M  V30 26649 H 2531.19 5.65176 1.60779 0
M  V30 26650 H 2532.72 5.55483 2.53516 0
M  V30 26651 H 2534.13 5.72663 0.270232 0
M  V30 26652 H 2532.53 5.98188 -0.478648 0
M  V30 26653 H 2533.6 4.71926 -1.11418 0
M  V30 26654 N 2534.94 0.216646 1.56104 0
M  V30 26655 C 2535.9 -0.681923 2.18821 0
M  V30 26656 C 2536.9 -1.12526 1.14868 0
M  V30 26657 O 2538.09 -1.03485 1.4013 0
M  V30 26658 C 2535.23 -1.93357 2.80759 0
M  V30 26659 H 2536.42 -0.135201 2.99595 0
M  V30 26660 H 2533.97 -0.0329729 1.56265 0
M  V30 26661 H 2534.71 -2.52228 2.03842 0
M  V30 26662 H 2534.49 -1.6242 3.56878 0
M  V30 26663 H 2535.98 -2.57387 3.28849 0
M  V30 26664 N 2536.42 -1.57498 -0.0567885 0
M  V30 26665 C 2537.65 -1.91936 -0.764482 0
M  V30 26666 C 2538.06 -0.8123 -1.70875 0
M  V30 26667 O 2537.4 0.222181 -1.82351 0
M  V30 26668 C 2537.46 -3.21965 -1.59935 0
M  V30 26669 C 2537.13 -4.49531 -0.822846 0
M  V30 26670 C 2538.12 -5.19724 -0.135373 0
M  V30 26671 C 2535.81 -4.96119 -0.785579 0
M  V30 26672 C 2537.8 -6.34765 0.578973 0
M  V30 26673 C 2535.49 -6.11063 -0.067471 0
M  V30 26674 C 2536.49 -6.80238 0.613591 0
M  V30 26675 O 2536.18 -7.92987 1.3201 0
M  V30 26676 H 2535.91 -0.638634 -0.221636 0
M  V30 26677 H 2538.46 -2.05383 -0.0267857 0
M  V30 26678 H 2536.69 -3.04768 -2.3802 0
M  V30 26679 H 2538.38 -3.41937 -2.18709 0
M  V30 26680 H 2539.15 -4.84751 -0.155373 0
M  V30 26681 H 2535.03 -4.42139 -1.30516 0
M  V30 26682 H 2538.57 -6.88694 1.11112 0
M  V30 26683 H 2534.47 -6.45484 -0.0454501 0
M  V30 26684 H 2535.23 -8.09191 1.23091 0
M  V30 26685 N 2537.9 0.328509 -1.54138 0
M  V30 26686 C 2539.14 1.07531 -1.73829 0
M  V30 26687 C 2539.5 1.85407 -0.498809 0
M  V30 26688 O 2540.7 2.62622 -0.572983 0
M  V30 26689 C 2538.97 1.97947 -2.97576 0
M  V30 26690 S 2540.53 2.79646 -3.38148 0
M  V30 26691 H 2537.35 0.363099 -0.611294 0
M  V30 26692 H 2539.95 0.351897 -1.92307 0
M  V30 26693 H 2538.66 1.39562 -3.85941 0
M  V30 26694 H 2538.19 2.74701 -2.81607 0
M  V30 26695 H 2540.2 4.00413 -2.93059 0
M  V30 26696 N 2539.38 1.46127 0.590316 0
M  V30 26697 C 2540.32 1.56473 1.72102 0
M  V30 26698 C 2541.32 0.433641 1.63756 0
M  V30 26699 O 2542.52 0.610224 1.69341 0
M  V30 26700 H 2538.9 0.491812 0.56888 0
M  V30 26701 H 2540.87 2.51556 1.60505 0
M  V30 26702 C 2539.62 1.56497 3.1049 0
M  V30 26703 H 2538.94 2.42865 3.17579 0
M  V30 26704 H 2540.38 1.67792 3.89387 0
M  V30 26705 C 2538.84 0.29229 3.3563 0
M  V30 26706 O 2539.37 -0.620669 3.96876 0
M  V30 26707 N 2537.58 0.182574 2.90026 0
M  V30 26708 H 2537.12 0.926399 2.40366 0
M  V30 26709 H 2537.08 -0.668098 3.07219 0
M  V30 26710 N 2540.85 -0.834306 1.33705 0
M  V30 26711 C 2541.8 -1.94445 1.24338 0
M  V30 26712 C 2542.77 -1.65659 0.12102 0
M  V30 26713 O 2543.96 -1.88426 0.300068 0
M  V30 26714 C 2541.1 -3.30499 0.993182 0
M  V30 26715 C 2540.21 -3.71653 2.20223 0
M  V30 26716 C 2539.34 -4.96599 1.88581 0
M  V30 26717 C 2538.38 -5.303 3.05692 0
M  V30 26718 N 2537.52 -6.46424 2.74008 0
M  V30 26719 H 2542.36 -2.01788 2.19284 0
M  V30 26720 H 2539.9 -0.987385 1.09037 0
M  V30 26721 H 2541.85 -4.0889 0.828538 0
M  V30 26722 H 2540.48 -3.227 0.0804469 0
M  V30 26723 H 2539.54 -2.88747 2.47647 0
M  V30 26724 H 2540.85 -3.92537 3.07759 0
M  V30 26725 H 2540 -5.82749 1.68787 0
M  V30 26726 H 2538.74 -4.77693 0.982883 0
M  V30 26727 H 2537.75 -4.42653 3.26095 0
M  V30 26728 H 2538.97 -5.51152 3.96747 0
M  V30 26729 H 2536.92 -6.28996 1.86279 0
M  V30 26730 H 2536.83 -6.67426 3.55075 0
M  V30 26731 H 2538.1 -7.35673 2.57692 0
M  V30 26732 N 2542.33 -1.17248 -1.05312 0
M  V30 26733 C 2543.56 -0.984625 -1.81969 0
M  V30 26734 C 2543.97 0.467134 -1.8293 0
M  V30 26735 O 2543.33 1.32436 -1.25566 0
M  V30 26736 C 2543.38 -1.51677 -3.28141 0
M  V30 26737 O 2543.1 -2.91169 -3.27342 0
M  V30 26738 C 2544.6 -1.37333 -4.21491 0
M  V30 26739 H 2541.82 -0.348421 -0.573449 0
M  V30 26740 H 2544.37 -1.55509 -1.32806 0
M  V30 26741 H 2542.52 -0.988367 -3.7458 0
M  V30 26742 H 2542.94 -3.15739 -4.18818 0
M  V30 26743 H 2544.41 -1.79384 -5.2204 0
M  V30 26744 H 2544.89 -0.320246 -4.38031 0
M  V30 26745 H 2545.49 -1.89185 -3.80906 0
M  V30 26746 N 2543.81 1.24015 -0.972531 0
M  V30 26747 C 2545.06 1.92503 -0.638012 0
M  V30 26748 C 2545.39 1.75788 0.825352 0
M  V30 26749 O 2544.66 1.11396 1.5944 0
M  V30 26750 C 2544.95 3.45367 -1.01948 0
M  V30 26751 C 2544.8 3.71227 -2.5399 0
M  V30 26752 C 2546.12 4.36554 -0.557587 0
M  V30 26753 H 2543.24 0.699113 -0.23326 0
M  V30 26754 H 2545.88 1.4629 -1.2124 0
M  V30 26755 H 2544.03 3.84858 -0.530723 0
M  V30 26756 H 2545.7 3.41266 -3.1038 0
M  V30 26757 H 2543.95 3.1621 -2.96974 0
M  V30 26758 H 2544.62 4.78201 -2.75731 0
M  V30 26759 H 2547.09 4.04465 -0.9771 0
M  V30 26760 H 2545.97 5.42231 -0.853015 0
M  V30 26761 H 2546.23 4.38762 0.542251 0
M  V30 26762 N 2545.29 0.743226 1.38974 0
M  V30 26763 C 2546.54 0.294205 1.99947 0
M  V30 26764 C 2546.86 -1.12492 1.59281 0
M  V30 26765 O 2546.13 -1.76746 0.844839 0
M  V30 26766 H 2544.71 0.105787 0.739472 0
M  V30 26767 H 2547.37 0.955016 1.69898 0
M  V30 26768 H 2546.47 0.349111 3.10141 0
M  V30 26769 N 2546.77 -1.4974 0.491491 0
M  V30 26770 C 2547.68 -2.32715 -0.296794 0
M  V30 26771 C 2548.69 -1.44015 -0.97651 0
M  V30 26772 O 2549.87 -1.77048 -0.959992 0
M  V30 26773 C 2546.93 -3.19217 -1.35283 0
M  V30 26774 C 2545.99 -4.23758 -0.687557 0
M  V30 26775 C 2545.23 -5.06126 -1.69328 0
M  V30 26776 O 2545.45 -4.89866 -2.92211 0
M  V30 26777 O 2544.38 -5.88696 -1.25384 0
M  V30 26778 H 2548.21 -3.01287 0.382101 0
M  V30 26779 H 2545.8 -1.47243 0.252979 0
M  V30 26780 H 2547.68 -3.72831 -1.96404 0
M  V30 26781 H 2546.35 -2.53351 -2.01482 0
M  V30 26782 H 2545.26 -3.74082 -0.0368502 0
M  V30 26783 H 2546.59 -4.92153 -0.0681701 0
M  V30 26784 N 2548.24 -0.224922 -1.55987 0
M  V30 26785 C 2549.17 0.678418 -2.23427 0
M  V30 26786 C 2550.16 1.19845 -1.20712 0
M  V30 26787 O 2551.34 1.24183 -1.49306 0
M  V30 26788 C 2548.47 1.88522 -2.91679 0
M  V30 26789 C 2547.42 1.49889 -4.00895 0
M  V30 26790 C 2546.75 2.78475 -4.5646 0
M  V30 26791 C 2548.05 0.68637 -5.1777 0
M  V30 26792 H 2549.74 0.116121 -2.99175 0
M  V30 26793 H 2547.29 0.0544107 -1.43897 0
M  V30 26794 H 2549.24 2.52264 -3.37551 0
M  V30 26795 H 2547.97 2.47254 -2.13384 0
M  V30 26796 H 2546.63 0.884922 -3.55759 0
M  V30 26797 H 2546.27 3.35358 -3.74892 0
M  V30 26798 H 2545.97 2.53358 -5.30173 0
M  V30 26799 H 2547.5 3.43153 -5.05053 0
M  V30 26800 H 2548.91 1.22757 -5.60003 0
M  V30 26801 H 2547.31 0.532154 -5.97736 0
M  V30 26802 H 2548.38 -0.306281 -4.83932 0
M  V30 26803 N 2549.72 1.57526 0.0484352 0
M  V30 26804 C 2550.97 1.88001 0.741624 0
M  V30 26805 C 2551.29 0.820085 1.76917 0
M  V30 26806 O 2550.56 -0.148627 1.95335 0
M  V30 26807 H 2549.14 0.693785 0.276896 0
M  V30 26808 H 2551.8 1.94891 0.0189788 0
M  V30 26809 H 2550.9 2.86266 1.24331 0
M  V30 26810 N 2551.2 -0.32033 1.5431 0
M  V30 26811 C 2552.48 -1.07632 1.63324 0
M  V30 26812 C 2552.86 -2.05821 0.469156 0
M  V30 26813 O 2552.21 -2.22119 -0.536235 0
M  V30 26814 C 2552.42 -1.77539 3.00468 0
M  V30 26815 C 2553.76 -2.30442 3.56625 0
M  V30 26816 O 2554.79 -1.87601 3.02794 0
M  V30 26817 O 2553.65 -3.08884 4.50836 0
M  V30 26818 H 2550.74 -0.496319 0.66151 0
M  V30 26819 H 2553.29 -0.319963 1.66656 0
M  V30 26820 H 2552.06 -1.06136 3.76631 0
M  V30 26821 H 2551.68 -2.59977 3.00829 0
M  V30 26822 N 2552.68 -1.46438 -0.582558 0
M  V30 26823 C 2553.92 -1.5198 -1.34275 0
M  V30 26824 C 2554.26 -0.171007 -1.93446 0
M  V30 26825 O 2553.53 0.817577 -1.76482 0
M  V30 26826 C 2553.82 -2.61849 -2.47198 0
M  V30 26827 C 2553.67 -4.0626 -1.93062 0
M  V30 26828 C 2554.99 -2.67802 -3.49242 0
M  V30 26829 H 2552.11 -0.55329 -0.486866 0
M  V30 26830 H 2554.75 -1.78375 -0.654406 0
M  V30 26831 H 2552.9 -2.39474 -3.05916 0
M  V30 26832 H 2554.57 -4.39923 -1.388 0
M  V30 26833 H 2552.81 -4.15733 -1.2389 0
M  V30 26834 H 2553.48 -4.78865 -2.74577 0
M  V30 26835 H 2555.96 -2.87916 -3.00406 0
M  V30 26836 H 2554.84 -3.46496 -4.25713 0
M  V30 26837 H 2555.1 -1.73859 -4.06479 0
M  V30 26838 N 2554.16 0.827204 -1.34146 0
M  V30 26839 C 2555.57 1.11967 -1.13734 0
M  V30 26840 C 2555.77 2.01398 0.0640109 0
M  V30 26841 O 2554.83 2.41388 0.740814 0
M  V30 26842 C 2556.14 1.77051 -2.4305 0
M  V30 26843 C 2557.69 1.89565 -2.49066 0
M  V30 26844 C 2558.16 2.58065 -3.78373 0
M  V30 26845 N 2559.66 2.65568 -3.7951 0
M  V30 26846 C 2560.39 3.19288 -4.7628 0
M  V30 26847 N 2559.89 3.73606 -5.8343 0
M  V30 26848 N 2561.68 3.17649 -4.63741 0
M  V30 26849 H 2553.83 0.232259 -2.11126 0
M  V30 26850 H 2556.09 0.165586 -0.933427 0
M  V30 26851 H 2555.8 1.18801 -3.31027 0
M  V30 26852 H 2555.67 2.76961 -2.56071 0
M  V30 26853 H 2558.06 2.46965 -1.61531 0
M  V30 26854 H 2558.14 0.885703 -2.39977 0
M  V30 26855 H 2557.79 2.01321 -4.66296 0
M  V30 26856 H 2557.72 3.59555 -3.84744 0
M  V30 26857 H 2560.21 2.27063 -3.02078 0
M  V30 26858 H 2560.52 4.12835 -6.5329 0
M  V30 26859 H 2558.86 3.71861 -5.87149 0
M  V30 26860 H 2562.06 2.74479 -3.79182 0
M  V30 26861 H 2562.23 3.59212 -5.39324 0
M  V30 26862 N 2555.63 1.17805 1.04688 0
M  V30 26863 C 2556.54 0.914189 2.16055 0
M  V30 26864 C 2557.56 -0.119472 1.73589 0
M  V30 26865 O 2558.74 0.0609822 2.01308 0
M  V30 26866 C 2555.8 0.436663 3.43939 0
M  V30 26867 C 2554.86 1.53753 4.00822 0
M  V30 26868 C 2554.1 1.0827 5.22603 0
M  V30 26869 O 2554.32 -0.0611242 5.70367 0
M  V30 26870 O 2553.25 1.87785 5.71857 0
M  V30 26871 H 2557.08 1.84588 2.41166 0
M  V30 26872 H 2554.66 0.959354 1.14528 0
M  V30 26873 H 2556.55 0.178131 4.21023 0
M  V30 26874 H 2555.22 -0.466813 3.20316 0
M  V30 26875 H 2554.13 1.85 3.25155 0
M  V30 26876 H 2555.46 2.4169 4.28774 0
M  V30 26877 N 2557.11 -1.23497 0.979094 0
M  V30 26878 C 2558.34 -1.95914 0.665236 0
M  V30 26879 C 2558.76 -1.72494 -0.767541 0
M  V30 26880 O 2558.11 -1.01557 -1.51633 0
M  V30 26881 C 2558.16 -3.48943 0.9445 0
M  V30 26882 O 2557.88 -3.71568 2.32096 0
M  V30 26883 C 2559.39 -4.38562 0.646413 0
M  V30 26884 H 2556.61 -0.623794 0.247229 0
M  V30 26885 H 2559.15 -1.57022 1.31012 0
M  V30 26886 H 2557.3 -3.85855 0.345643 0
M  V30 26887 H 2557.72 -4.65871 2.40965 0
M  V30 26888 H 2559.19 -5.44742 0.892186 0
M  V30 26889 H 2559.67 -4.37192 -0.419498 0
M  V30 26890 H 2560.28 -4.07255 1.22569 0
M  V30 26891 N 2558.59 -0.750586 -1.38578 0
M  V30 26892 C 2559.52 -0.069354 -2.28095 0
M  V30 26893 C 2560.5 0.731465 -1.45218 0
M  V30 26894 O 2561.69 0.71073 -1.74588 0
M  V30 26895 C 2558.81 0.908653 -3.26284 0
M  V30 26896 C 2557.86 0.194432 -4.26057 0
M  V30 26897 S 2558.69 -1.10266 -5.24024 0
M  V30 26898 C 2559.85 -0.127652 -6.2577 0
M  V30 26899 H 2560.08 -0.82845 -2.85524 0
M  V30 26900 H 2557.61 -0.543039 -1.44535 0
M  V30 26901 H 2559.57 1.46759 -3.83369 0
M  V30 26902 H 2558.23 1.6407 -2.67843 0
M  V30 26903 H 2557.43 0.935033 -4.95251 0
M  V30 26904 H 2557.03 -0.292902 -3.72851 0
M  V30 26905 H 2559.32 0.707398 -6.73797 0
M  V30 26906 H 2560.26 -0.787168 -7.03711 0
M  V30 26907 H 2560.67 0.251704 -5.63939 0
M  V30 26908 N 2560.07 1.49477 -0.499425 0
M  V30 26909 C 2561.29 2.07352 0.0446855 0
M  V30 26910 C 2561.72 1.35751 1.30205 0
M  V30 26911 O 2561.08 0.413763 1.76515 0
M  V30 26912 C 2561.13 3.59488 0.28295 0
M  V30 26913 O 2560.23 3.89401 1.35798 0
M  V30 26914 H 2559.57 0.663509 -0.0255263 0
M  V30 26915 H 2562.1 1.92304 -0.698594 0
M  V30 26916 H 2562.11 4.04737 0.514936 0
M  V30 26917 H 2560.79 4.11013 -0.635708 0
M  V30 26918 H 2559.36 3.55963 1.11107 0
M  V30 26919 N 2561.55 0.233191 1.55865 0
M  V30 26920 C 2562.78 -0.39929 2.02705 0
M  V30 26921 C 2563.19 -1.53067 1.11207 0
M  V30 26922 O 2562.53 -1.83332 0.116214 0
M  V30 26923 C 2562.59 -0.981369 3.45846 0
M  V30 26924 C 2562.25 0.0160365 4.56997 0
M  V30 26925 C 2563.25 0.820642 5.13382 0
M  V30 26926 C 2560.94 0.138161 5.0211 0
M  V30 26927 C 2562.93 1.73396 6.13362 0
M  V30 26928 C 2560.62 1.055 6.01924 0
M  V30 26929 C 2561.62 1.85144 6.57427 0
M  V30 26930 O 2561.3 2.75285 7.55297 0
M  V30 26931 H 2561.04 -0.10068 0.668461 0
M  V30 26932 H 2563.59 0.350555 2.02386 0
M  V30 26933 H 2561.82 -1.78052 3.4327 0
M  V30 26934 H 2563.51 -1.52248 3.76265 0
M  V30 26935 H 2564.27 0.736805 4.79371 0
M  V30 26936 H 2560.15 -0.471656 4.58581 0
M  V30 26937 H 2563.7 2.35604 6.5661 0
M  V30 26938 H 2559.59 1.13981 6.35357 0
M  V30 26939 H 2560.36 2.69491 7.72863 0
M  V30 26940 N 2563.03 -1.57549 -0.0400806 0
M  V30 26941 C 2563.96 -2.08871 -1.0438 0
M  V30 26942 C 2564.94 -0.988842 -1.38405 0
M  V30 26943 O 2566.12 -1.26345 -1.47481 0
M  V30 26944 C 2563.25 -2.55899 -2.34804 0
M  V30 26945 C 2562.21 -3.70051 -2.1505 0
M  V30 26946 C 2561.53 -4.03245 -3.51137 0
M  V30 26947 C 2562.83 -4.98905 -1.54567 0
M  V30 26948 H 2564.53 -2.92982 -0.616615 0
M  V30 26949 H 2562.07 -1.40943 -0.295159 0
M  V30 26950 H 2564.02 -2.90422 -3.05341 0
M  V30 26951 H 2562.75 -1.68858 -2.79562 0
M  V30 26952 H 2561.41 -3.3586 -1.46948 0
M  V30 26953 H 2561.06 -3.13286 -3.93523 0
M  V30 26954 H 2560.76 -4.80128 -3.38749 0
M  V30 26955 H 2562.28 -4.40292 -4.23054 0
M  V30 26956 H 2563.69 -5.31455 -2.15008 0
M  V30 26957 H 2562.09 -5.80324 -1.52786 0
M  V30 26958 H 2563.16 -4.82207 -0.510306 0
M  V30 26959 N 2564.5 0.312142 -1.54478 0
M  V30 26960 C 2565.75 1.04872 -1.73229 0
M  V30 26961 C 2566.08 1.87638 -0.512075 0
M  V30 26962 O 2565.33 1.89043 0.506098 0
M  V30 26963 C 2565.63 1.99253 -2.96704 0
M  V30 26964 C 2565.3 1.32551 -4.30977 0
M  V30 26965 C 2563.96 1.14092 -4.67479 0
M  V30 26966 C 2566.31 0.847744 -5.14259 0
M  V30 26967 C 2563.64 0.465223 -5.84853 0
M  V30 26968 C 2565.99 0.18582 -6.32327 0
M  V30 26969 C 2564.66 -0.0108251 -6.67499 0
M  V30 26970 H 2563.93 0.383754 -0.633888 0
M  V30 26971 H 2566.57 0.324698 -1.88727 0
M  V30 26972 H 2564.88 2.78145 -2.7594 0
M  V30 26973 H 2566.58 2.56295 -3.08406 0
M  V30 26974 H 2563.17 1.47923 -4.02264 0
M  V30 26975 H 2567.35 0.978106 -4.86566 0
M  V30 26976 H 2562.61 0.301776 -6.10655 0
M  V30 26977 H 2566.78 -0.192333 -6.96134 0
M  V30 26978 H 2564.41 -0.53642 -7.58305 0
M  V30 26979 N 2565.98 1.46745 0.574784 0
M  V30 26980 C 2566.91 1.53949 1.69801 0
M  V30 26981 C 2567.93 0.427134 1.57097 0
M  V30 26982 O 2569.12 0.695892 1.64376 0
M  V30 26983 C 2566.22 1.41116 3.08123 0
M  V30 26984 C 2565.39 2.66611 3.46753 0
M  V30 26985 C 2564.45 2.47864 4.64166 0
M  V30 26986 O 2563.47 3.21617 4.69629 0
M  V30 26987 N 2564.68 1.54544 5.5955 0
M  V30 26988 H 2567.44 2.50799 1.64073 0
M  V30 26989 H 2565 1.42901 0.760975 0
M  V30 26990 H 2566.99 1.26334 3.84476 0
M  V30 26991 H 2565.56 0.524163 3.08174 0
M  V30 26992 H 2564.78 2.96278 2.60025 0
M  V30 26993 H 2566.07 3.4996 3.69331 0
M  V30 26994 H 2565.47 0.937402 5.57879 0
M  V30 26995 H 2564.03 1.45722 6.35302 0
M  V30 26996 N 2567.46 -0.820078 1.34583 0
M  V30 26997 C 2568.41 -1.92011 1.22946 0
M  V30 26998 C 2569.39 -1.60391 0.12783 0
M  V30 26999 O 2570.59 -1.73347 0.357767 0
M  V30 27000 C 2567.71 -3.28716 0.989996 0
M  V30 27001 C 2566.8 -3.66445 2.13492 0
M  V30 27002 N 2567.19 -3.75716 3.38631 0
M  V30 27003 C 2565.49 -3.96312 2.0458 0
M  V30 27004 C 2566.19 -4.08794 4.13839 0
M  V30 27005 N 2565.17 -4.22165 3.42459 0
M  V30 27006 H 2568.97 -1.97361 2.17774 0
M  V30 27007 H 2566.48 -1.0139 1.26861 0
M  V30 27008 H 2568.48 -4.07343 0.887534 0
M  V30 27009 H 2567.14 -3.24661 0.0504262 0
M  V30 27010 H 2568.15 -3.59137 3.7315 0
M  V30 27011 H 2564.83 -4.0036 1.18397 0
M  V30 27012 H 2566.22 -4.23147 5.21916 0
M  V30 27013 N 2568.94 -1.18359 -1.04062 0
M  V30 27014 C 2569.9 -0.912744 -2.10242 0
M  V30 27015 C 2570.9 0.1019 -1.60477 0
M  V30 27016 O 2572.09 -0.131547 -1.73703 0
M  V30 27017 C 2569.22 -0.369446 -3.38892 0
M  V30 27018 H 2570.42 -1.8543 -2.35702 0
M  V30 27019 H 2567.97 -0.995615 -1.20487 0
M  V30 27020 H 2568.7 0.57872 -3.19095 0
M  V30 27021 H 2568.49 -1.10086 -3.76329 0
M  V30 27022 H 2569.98 -0.198648 -4.17127 0
M  V30 27023 N 2570.42 1.22976 -0.98563 0
M  V30 27024 C 2571.36 2.26652 -0.522671 0
M  V30 27025 C 2572.36 1.64035 0.422969 0
M  V30 27026 O 2573.56 1.77545 0.296287 0
M  V30 27027 H 2569.94 0.736764 -0.15061 0
M  V30 27028 H 2571.91 2.63057 -1.40867 0
M  V30 27029 C 2570.66 3.47358 0.154177 0
M  V30 27030 H 2569.98 3.95796 -0.564399 0
M  V30 27031 H 2571.42 4.21693 0.441669 0
M  V30 27032 C 2569.88 3.07018 1.38713 0
M  V30 27033 O 2570.41 3.15768 2.48301 0
M  V30 27034 N 2568.62 2.61877 1.25971 0
M  V30 27035 H 2568.16 2.54958 0.368023 0
M  V30 27036 H 2568.12 2.35254 2.08574 0
M  V30 27037 N 2571.89 0.757924 1.38178 0
M  V30 27038 C 2572.82 0.148638 2.33026 0
M  V30 27039 C 2573.8 -0.698723 1.55087 0
M  V30 27040 O 2574.99 -0.63902 1.83385 0
M  V30 27041 C 2572.12 -0.741975 3.39282 0
M  V30 27042 C 2571.07 0.00299469 4.28 0
M  V30 27043 C 2570.4 -1.00615 5.25148 0
M  V30 27044 C 2571.7 1.17394 5.08936 0
M  V30 27045 H 2573.39 0.940959 2.84229 0
M  V30 27046 H 2570.94 0.453932 1.36658 0
M  V30 27047 H 2572.89 -1.17792 4.04602 0
M  V30 27048 H 2571.62 -1.56666 2.86571 0
M  V30 27049 H 2570.28 0.419568 3.64191 0
M  V30 27050 H 2569.92 -1.82502 4.68724 0
M  V30 27051 H 2569.62 -0.512325 5.85362 0
M  V30 27052 H 2571.15 -1.44133 5.93345 0
M  V30 27053 H 2572.56 0.815324 5.67473 0
M  V30 27054 H 2570.96 1.59892 5.78407 0
M  V30 27055 H 2572.03 1.98475 4.4242 0
M  V30 27056 N 2573.37 -1.4921 0.507345 0
M  V30 27057 C 2574.65 -1.95353 -0.0982359 0
M  V30 27058 C 2575.03 -1.44903 -1.53513 0
M  V30 27059 O 2574.38 -0.665548 -2.18593 0
M  V30 27060 C 2574.59 -3.49 -0.00434148 0
M  V30 27061 C 2575.94 -4.24239 -0.175072 0
M  V30 27062 O 2576.96 -3.56112 -0.0792265 0
M  V30 27063 O 2575.82 -5.45228 -0.372664 0
M  V30 27064 H 2572.91 -0.821888 -0.0918091 0
M  V30 27065 H 2575.46 -1.59829 0.570335 0
M  V30 27066 H 2574.23 -3.78373 0.997468 0
M  V30 27067 H 2573.85 -3.91159 -0.712776 0
M  V30 27068 N 2574.85 -0.241454 -1.55739 0
M  V30 27069 C 2576.08 0.392076 -2.0366 0
M  V30 27070 C 2576.5 1.51142 -1.11971 0
M  V30 27071 O 2575.86 1.80956 -0.111626 0
M  V30 27072 C 2575.91 0.882309 -3.49639 0
M  V30 27073 O 2575.01 1.99229 -3.61084 0
M  V30 27074 H 2574.35 0.0862006 -0.658381 0
M  V30 27075 H 2576.88 -0.365917 -2.01301 0
M  V30 27076 H 2576.89 1.18695 -3.90353 0
M  V30 27077 H 2575.57 0.063163 -4.15852 0
M  V30 27078 H 2574.14 1.69276 -3.32265 0
M  V30 27079 N 2576.33 1.57568 0.0317248 0
M  V30 27080 C 2577.57 1.90998 0.727945 0
M  V30 27081 C 2577.93 0.839738 1.72663 0
M  V30 27082 O 2579.13 1.05829 2.4709 0
M  V30 27083 C 2577.4 3.29585 1.38233 0
M  V30 27084 S 2578.96 3.84845 2.10807 0
M  V30 27085 H 2575.78 0.668832 0.241215 0
M  V30 27086 H 2578.38 1.95492 -0.017338 0
M  V30 27087 H 2577.09 4.05344 0.642217 0
M  V30 27088 H 2576.62 3.28388 2.16622 0
M  V30 27089 H 2578.63 3.63358 3.37914 0
M  V30 27090 N 2577.81 -0.303946 1.54641 0
M  V30 27091 C 2578.75 -1.37476 1.85389 0
M  V30 27092 C 2579.72 -1.5051 0.702554 0
M  V30 27093 O 2580.91 -1.65416 0.950896 0
M  V30 27094 C 2578.05 -2.73529 2.10418 0
M  V30 27095 C 2577.16 -2.68968 3.38054 0
M  V30 27096 C 2576.3 -3.96996 3.52941 0
M  V30 27097 C 2575.34 -3.86821 4.7438 0
M  V30 27098 N 2574.47 -5.06618 4.86089 0
M  V30 27099 H 2579.31 -1.10555 2.76734 0
M  V30 27100 H 2576.85 -0.534781 1.37035 0
M  V30 27101 H 2578.81 -3.52648 2.22925 0
M  V30 27102 H 2577.44 -2.98717 1.22343 0
M  V30 27103 H 2576.49 -1.81731 3.34183 0
M  V30 27104 H 2577.8 -2.57338 4.27292 0
M  V30 27105 H 2576.96 -4.84551 3.65097 0
M  V30 27106 H 2575.69 -4.11456 2.61831 0
M  V30 27107 H 2574.7 -2.9765 4.62261 0
M  V30 27108 H 2575.92 -3.73908 5.66895 0
M  V30 27109 H 2573.87 -5.21547 3.97901 0
M  V30 27110 H 2573.79 -4.974 5.69324 0
M  V30 27111 H 2575.06 -5.95832 5.02598 0
M  V30 27112 N 2579.28 -1.47047 -0.566994 0
M  V30 27113 C 2580.7 -1.32349 -0.891951 0
M  V30 27114 C 2580.9 -0.306651 -1.99153 0
M  V30 27115 O 2579.96 0.285276 -2.50883 0
M  V30 27116 C 2581.27 -2.71413 -1.29444 0
M  V30 27117 C 2582.82 -2.79623 -1.40641 0
M  V30 27118 C 2583.29 -4.19304 -1.8425 0
M  V30 27119 N 2584.78 -4.21798 -1.91417 0
M  V30 27120 C 2585.52 -5.26783 -2.26467 0
M  V30 27121 N 2585.01 -6.42081 -2.60199 0
M  V30 27122 N 2586.81 -5.14156 -2.27157 0
M  V30 27123 H 2578.96 -2.11803 0.159111 0
M  V30 27124 H 2581.22 -0.947962 0.00851418 0
M  V30 27125 H 2580.93 -3.47207 -0.560387 0
M  V30 27126 H 2580.8 -3.02546 -2.25268 0
M  V30 27127 H 2583.19 -2.04107 -2.1313 0
M  V30 27128 H 2583.27 -2.52155 -0.430294 0
M  V30 27129 H 2582.91 -4.95321 -1.12335 0
M  V30 27130 H 2582.84 -4.4419 -2.82847 0
M  V30 27131 H 2585.33 -3.38615 -1.67774 0
M  V30 27132 H 2585.65 -7.17953 -2.85943 0
M  V30 27133 H 2583.99 -6.45417 -2.57802 0
M  V30 27134 H 2587.18 -4.23111 -2.00237 0
M  V30 27135 H 2587.36 -5.96083 -2.54144 0
M  V30 27136 N 2580.76 0.812929 -1.35016 0
M  V30 27137 C 2582.01 1.57202 -1.28123 0
M  V30 27138 C 2582.34 1.93652 0.145835 0
M  V30 27139 O 2581.62 1.60838 1.09368 0
M  V30 27140 C 2581.9 2.86488 -2.18167 0
M  V30 27141 C 2581.75 2.56555 -3.69459 0
M  V30 27142 C 2583.07 3.88142 -2.07446 0
M  V30 27143 H 2580.19 0.570358 -0.466756 0
M  V30 27144 H 2582.83 0.935754 -1.65359 0
M  V30 27145 H 2580.98 3.40785 -1.86541 0
M  V30 27146 H 2582.65 2.0849 -4.11497 0
M  V30 27147 H 2580.9 1.89844 -3.90053 0
M  V30 27148 H 2581.57 3.48792 -4.27841 0
M  V30 27149 H 2584.04 3.43226 -2.35234 0
M  V30 27150 H 2582.92 4.76391 -2.72658 0
M  V30 27151 H 2583.18 4.29341 -1.05446 0
M  V30 27152 N 2582.24 1.18909 1.03433 0
M  V30 27153 C 2583.17 0.945486 2.13501 0
M  V30 27154 C 2584.15 -0.119159 1.69682 0
M  V30 27155 O 2585.34 0.0347411 1.94169 0
M  V30 27156 C 2582.47 0.477377 3.44003 0
M  V30 27157 C 2581.42 1.48323 4.01478 0
M  V30 27158 C 2580.75 0.872404 5.27535 0
M  V30 27159 C 2582.05 2.86185 4.36916 0
M  V30 27160 H 2583.74 1.86601 2.34138 0
M  V30 27161 H 2581.29 0.898604 1.12522 0
M  V30 27162 H 2583.24 0.294278 4.20371 0
M  V30 27163 H 2581.96 -0.478729 3.23072 0
M  V30 27164 H 2580.62 1.65338 3.27198 0
M  V30 27165 H 2580.27 -0.0910868 5.02918 0
M  V30 27166 H 2579.97 1.54403 5.66951 0
M  V30 27167 H 2581.49 0.699978 6.06575 0
M  V30 27168 H 2582.91 2.72785 5.04243 0
M  V30 27169 H 2581.31 3.50089 4.87399 0
M  V30 27170 H 2582.38 3.39254 3.4646 0
M  V30 27171 N 2583.72 -1.22452 0.992137 0
M  V30 27172 C 2584.67 -2.26371 0.534683 0
M  V30 27173 C 2585.66 -1.64257 -0.414264 0
M  V30 27174 O 2586.87 -1.77699 -0.286868 0
M  V30 27175 H 2583.24 -0.735954 0.154515 0
M  V30 27176 H 2585.21 -2.62306 1.4226 0
M  V30 27177 C 2583.96 -3.47435 -0.135754 0
M  V30 27178 H 2583.28 -3.95491 0.585381 0
M  V30 27179 H 2584.72 -4.21922 -0.4193 0
M  V30 27180 C 2583.18 -3.0775 -1.37083 0
M  V30 27181 O 2583.71 -3.1708 -2.46623 0
M  V30 27182 N 2581.92 -2.62542 -1.2458 0
M  V30 27183 H 2581.47 -2.55149 -0.354497 0
M  V30 27184 H 2581.42 -2.36357 -2.07323 0
M  V30 27185 N 2585.2 -0.765242 -1.37774 0
M  V30 27186 C 2586.44 -0.327107 -2.00145 0
M  V30 27187 C 2586.78 1.09172 -1.60609 0
M  V30 27188 O 2586.05 1.74984 -0.849158 0
M  V30 27189 C 2586.33 -0.463252 -3.57108 0
M  V30 27190 C 2586.19 -1.92402 -4.06573 0
M  V30 27191 C 2587.51 0.136396 -4.39889 0
M  V30 27192 H 2584.62 -0.120329 -0.727111 0
M  V30 27193 H 2587.27 -0.967068 -1.63548 0
M  V30 27194 H 2585.42 0.0815675 -3.88414 0
M  V30 27195 H 2587.09 -2.52805 -3.85859 0
M  V30 27196 H 2585.33 -2.43509 -3.59007 0
M  V30 27197 H 2586 -1.97038 -5.15636 0
M  V30 27198 H 2588.48 -0.328389 -4.14802 0
M  V30 27199 H 2587.35 0.0109617 -5.48899 0
M  V30 27200 H 2587.62 1.226 -4.24761 0
M  V30 27201 N 2586.67 1.48939 -0.515251 0
M  V30 27202 C 2587.92 2.02786 0.0242152 0
M  V30 27203 C 2588.25 1.39291 1.35321 0
M  V30 27204 O 2587.53 0.533502 1.8704 0
M  V30 27205 C 2587.81 3.59736 0.161777 0
M  V30 27206 C 2587.66 4.33736 -1.19134 0
M  V30 27207 C 2588.98 4.3089 0.895644 0
M  V30 27208 H 2586.1 0.736964 0.00732618 0
M  V30 27209 H 2588.74 1.77816 -0.669426 0
M  V30 27210 H 2586.89 3.81141 0.752557 0
M  V30 27211 H 2588.57 4.23789 -1.8221 0
M  V30 27212 H 2586.81 3.95733 -1.77702 0
M  V30 27213 H 2587.48 5.41956 -1.04824 0
M  V30 27214 H 2589.96 4.14226 0.394455 0
M  V30 27215 H 2588.83 5.40426 0.960764 0
M  V30 27216 H 2589.09 3.97133 1.94263 0
M  V30 27217 N 2588.15 0.249709 1.55609 0
M  V30 27218 C 2589.39 -0.375754 2.00917 0
M  V30 27219 C 2589.76 -1.54925 1.13412 0
M  V30 27220 O 2590.96 -2.24263 1.48187 0
M  V30 27221 C 2589.23 -0.772572 3.4895 0
M  V30 27222 S 2590.79 -1.38816 4.16264 0
M  V30 27223 H 2587.61 -0.118105 0.701122 0
M  V30 27224 H 2590.21 0.365601 1.92051 0
M  V30 27225 H 2588.91 0.0907551 4.103 0
M  V30 27226 H 2588.44 -1.54604 3.61748 0
M  V30 27227 H 2590.46 -2.67717 4.17782 0
M  V30 27228 N 2589.63 -1.57583 -0.0233682 0
M  V30 27229 C 2590.58 -2.06929 -1.02221 0
M  V30 27230 C 2591.55 -0.959641 -1.35573 0
M  V30 27231 O 2592.73 -1.23058 -1.45813 0
M  V30 27232 C 2589.87 -2.55814 -2.31632 0
M  V30 27233 C 2588.99 -3.80591 -2.04388 0
M  V30 27234 C 2588.12 -4.18067 -3.2771 0
M  V30 27235 C 2587.16 -5.35745 -2.96046 0
M  V30 27236 N 2586.3 -5.68625 -4.11837 0
M  V30 27237 H 2591.14 -2.92011 -0.594453 0
M  V30 27238 H 2588.67 -1.44374 -0.281896 0
M  V30 27239 H 2590.63 -2.82226 -3.07253 0
M  V30 27240 H 2589.26 -1.73641 -2.72119 0
M  V30 27241 H 2588.31 -3.61229 -1.19238 0
M  V30 27242 H 2589.63 -4.66327 -1.77034 0
M  V30 27243 H 2588.78 -4.45637 -4.11695 0
M  V30 27244 H 2587.52 -3.30994 -3.58182 0
M  V30 27245 H 2586.52 -5.07922 -2.10465 0
M  V30 27246 H 2587.75 -6.24476 -2.66846 0
M  V30 27247 H 2585.7 -4.84511 -4.4225 0
M  V30 27248 H 2585.61 -6.48883 -3.87927 0
M  V30 27249 H 2586.88 -6.00775 -4.96678 0
M  V30 27250 N 2591.11 0.29574 -1.548 0
M  V30 27251 C 2592.34 1.04911 -1.78329 0
M  V30 27252 C 2592.75 1.80752 -0.545347 0
M  V30 27253 O 2592.11 1.75938 0.484982 0
M  V30 27254 C 2592.16 2.02556 -2.99422 0
M  V30 27255 O 2591.88 1.2979 -4.18433 0
M  V30 27256 C 2593.38 2.89889 -3.3538 0
M  V30 27257 H 2590.6 0.310908 -0.594624 0
M  V30 27258 H 2593.15 0.333418 -2.01764 0
M  V30 27259 H 2591.3 2.69619 -2.7818 0
M  V30 27260 H 2591.72 1.9541 -4.86739 0
M  V30 27261 H 2593.19 3.54243 -4.23339 0
M  V30 27262 H 2593.67 3.58467 -2.53768 0
M  V30 27263 H 2594.27 2.28348 -3.588 0
M  V30 27264 N 2592.59 1.47346 0.559187 0
M  V30 27265 C 2593.83 1.55446 1.32725 0
M  V30 27266 C 2594.19 0.210929 1.90838 0
M  V30 27267 O 2595.39 0.166766 2.68282 0
M  V30 27268 C 2593.66 2.63997 2.40915 0
M  V30 27269 S 2595.22 2.91667 3.27835 0
M  V30 27270 H 2592.04 0.548937 0.451873 0
M  V30 27271 H 2594.64 1.84715 0.640371 0
M  V30 27272 H 2593.35 3.60216 1.96654 0
M  V30 27273 H 2592.88 2.36537 3.14347 0
M  V30 27274 H 2594.89 2.2873 4.40337 0
M  V30 27275 N 2594.07 -0.805758 1.35445 0
M  V30 27276 C 2595.31 -1.5598 1.2851 0
M  V30 27277 C 2595.63 -1.94497 -0.140012 0
M  V30 27278 O 2594.9 -1.63663 -1.07663 0
M  V30 27279 H 2593.48 -0.578426 0.472686 0
M  V30 27280 H 2596.15 -0.961068 1.69557 0
M  V30 27281 H 2595.24 -2.47484 1.90153 0
M  V30 27282 N 2595.54 -1.19456 -1.02801 0
M  V30 27283 C 2596.48 -0.890844 -2.11179 0
M  V30 27284 C 2597.49 0.1168 -1.6238 0
M  V30 27285 O 2598.68 -0.112725 -1.78144 0
M  V30 27286 C 2595.78 -0.312002 -3.37461 0
M  V30 27287 C 2594.95 -1.36841 -4.15443 0
M  V30 27288 C 2594.01 -0.802955 -5.20038 0
M  V30 27289 O 2593.04 -1.48086 -5.49599 0
M  V30 27290 N 2594.24 0.393315 -5.79166 0
M  V30 27291 H 2597 -1.82373 -2.37824 0
M  V30 27292 H 2594.56 -1.09668 -1.19099 0
M  V30 27293 H 2596.56 0.0801514 -4.04621 0
M  V30 27294 H 2595.13 0.525186 -3.08157 0
M  V30 27295 H 2594.35 -1.93537 -3.4342 0
M  V30 27296 H 2595.63 -2.08023 -4.64332 0
M  V30 27297 H 2595.03 0.96156 -5.57468 0
M  V30 27298 H 2593.59 0.727237 -6.4773 0
M  V30 27299 N 2597.02 1.21924 -0.998617 0
M  V30 27300 C 2597.95 2.2341 -0.511918 0
M  V30 27301 C 2598.97 1.57909 0.396066 0
M  V30 27302 O 2600.16 1.77406 0.197285 0
M  V30 27303 C 2597.26 3.37768 0.276743 0
M  V30 27304 C 2596.43 4.32857 -0.628763 0
M  V30 27305 C 2595.49 5.26087 0.109179 0
M  V30 27306 O 2594.51 5.66935 -0.507336 0
M  V30 27307 N 2595.72 5.63619 1.38973 0
M  V30 27308 H 2598.48 2.65798 -1.38462 0
M  V30 27309 H 2596.04 1.36282 -0.874005 0
M  V30 27310 H 2598.03 3.97128 0.77921 0
M  V30 27311 H 2596.6 2.94417 1.05058 0
M  V30 27312 H 2595.82 3.71732 -1.31182 0
M  V30 27313 H 2597.11 4.93327 -1.24523 0
M  V30 27314 H 2596.51 5.32414 1.91185 0
M  V30 27315 H 2595.07 6.2537 1.83728 0
M  V30 27316 N 2598.5 0.772537 1.37367 0
M  V30 27317 C 2599.43 0.117542 2.28898 0
M  V30 27318 C 2600.44 -0.663379 1.48671 0
M  V30 27319 O 2601.63 -0.501341 1.71315 0
M  V30 27320 C 2598.73 -0.857135 3.27882 0
M  V30 27321 C 2597.91 -0.129861 4.37207 0
M  V30 27322 C 2596.97 -1.01802 5.16258 0
M  V30 27323 O 2595.99 -0.481501 5.6716 0
M  V30 27324 N 2597.19 -2.3442 5.31063 0
M  V30 27325 H 2599.96 0.903712 2.8575 0
M  V30 27326 H 2597.52 0.624956 1.49352 0
M  V30 27327 H 2599.51 -1.45475 3.77649 0
M  V30 27328 H 2598.08 -1.54427 2.71792 0
M  V30 27329 H 2597.3 0.648673 3.88826 0
M  V30 27330 H 2598.59 0.372648 5.07434 0
M  V30 27331 H 2597.99 -2.80444 4.91292 0
M  V30 27332 H 2596.54 -2.89187 5.84136 0
M  V30 27333 N 2599.98 -1.48664 0.523142 0
M  V30 27334 C 2601.21 -2.06898 -0.00959483 0
M  V30 27335 C 2601.62 -1.38061 -1.28781 0
M  V30 27336 O 2600.98 -0.465924 -1.76452 0
M  V30 27337 C 2601.03 -3.60673 -0.244323 0
M  V30 27338 O 2600.75 -4.26924 0.983247 0
M  V30 27339 C 2602.25 -4.35684 -0.818212 0
M  V30 27340 H 2599.47 -0.67031 0.0304278 0
M  V30 27341 H 2602.01 -1.91148 0.726832 0
M  V30 27342 H 2600.17 -3.76052 -0.930781 0
M  V30 27343 H 2600.58 -5.18968 0.759744 0
M  V30 27344 H 2602.06 -5.44077 -0.931914 0
M  V30 27345 H 2602.53 -3.99649 -1.82146 0
M  V30 27346 H 2603.14 -4.24966 -0.168534 0
M  V30 27347 N 2601.46 -0.257958 -1.55475 0
M  V30 27348 C 2602.68 0.367524 -2.0361 0
M  V30 27349 C 2603.1 1.50732 -1.1369 0
M  V30 27350 O 2602.46 1.81853 -0.153511 0
M  V30 27351 C 2602.51 0.864846 -3.51002 0
M  V30 27352 O 2602.23 -0.229542 -4.37498 0
M  V30 27353 C 2603.73 1.55989 -4.14948 0
M  V30 27354 H 2600.95 0.0860404 -0.665461 0
M  V30 27355 H 2603.49 -0.385049 -2.00842 0
M  V30 27356 H 2601.65 1.56756 -3.54269 0
M  V30 27357 H 2602.06 0.149888 -5.24286 0
M  V30 27358 H 2603.54 1.85947 -5.19738 0
M  V30 27359 H 2604.01 2.48564 -3.62095 0
M  V30 27360 H 2604.62 0.90147 -4.15636 0
M  V30 27361 N 2602.93 1.57593 0.0150108 0
M  V30 27362 C 2603.86 2.10505 1.01044 0
M  V30 27363 C 2604.85 1.01074 1.36814 0
M  V30 27364 O 2606.03 1.28675 1.45452 0
M  V30 27365 C 2603.16 2.59602 2.30703 0
M  V30 27366 C 2602.11 3.73425 2.09136 0
M  V30 27367 C 2601.44 4.0878 3.44678 0
M  V30 27368 C 2602.74 5.01301 1.4661 0
M  V30 27369 H 2604.43 2.93926 0.569926 0
M  V30 27370 H 2601.98 1.41394 0.272699 0
M  V30 27371 H 2603.93 2.95243 3.00682 0
M  V30 27372 H 2602.66 1.73284 2.7684 0
M  V30 27373 H 2601.32 3.38155 1.41586 0
M  V30 27374 H 2600.96 3.19507 3.8849 0
M  V30 27375 H 2600.66 4.85456 3.31068 0
M  V30 27376 H 2602.19 4.46967 4.15996 0
M  V30 27377 H 2603.6 5.34809 2.06525 0
M  V30 27378 H 2602 5.82682 1.43534 0
M  V30 27379 H 2603.07 4.82958 0.433526 0
M  V30 27380 N 2604.41 -0.287527 1.54955 0
M  V30 27381 C 2605.36 -1.35502 1.86836 0
M  V30 27382 C 2606.33 -1.49757 0.718479 0
M  V30 27383 O 2607.51 -1.64399 0.968387 0
M  V30 27384 C 2604.65 -2.71282 2.13308 0
M  V30 27385 C 2603.77 -2.65367 3.40887 0
M  V30 27386 C 2602.9 -3.9323 3.57132 0
M  V30 27387 C 2601.94 -3.81767 4.78456 0
M  V30 27388 N 2601.08 -5.01434 4.91435 0
M  V30 27389 H 2605.92 -1.07614 2.77891 0
M  V30 27390 H 2603.46 -0.520216 1.37594 0
M  V30 27391 H 2605.41 -3.50263 2.26653 0
M  V30 27392 H 2604.04 -2.97403 1.25504 0
M  V30 27393 H 2603.1 -1.78176 3.36092 0
M  V30 27394 H 2604.41 -2.52792 4.29997 0
M  V30 27395 H 2603.56 -4.80651 3.70215 0
M  V30 27396 H 2602.3 -4.08656 2.6618 0
M  V30 27397 H 2601.31 -2.9273 4.65391 0
M  V30 27398 H 2602.53 -3.67874 5.70829 0
M  V30 27399 H 2600.48 -5.17297 4.0341 0
M  V30 27400 H 2600.39 -4.91333 5.74567 0
M  V30 27401 H 2601.66 -5.90468 5.08889 0
M  V30 27402 N 2605.89 -1.47641 -0.551365 0
M  V30 27403 C 2607.14 -1.5426 -1.30569 0
M  V30 27404 C 2607.46 -0.208997 -1.93877 0
M  V30 27405 O 2606.73 0.767588 -1.80236 0
M  V30 27406 H 2605.31 -0.56824 -0.484884 0
M  V30 27407 H 2607.97 -1.83975 -0.64337 0
M  V30 27408 H 2607.07 -2.3123 -2.09617 0
M  V30 27409 N 2607.37 0.798563 -1.3587 0
M  V30 27410 C 2608.61 1.55834 -1.29783 0
M  V30 27411 C 2608.95 1.93795 0.125287 0
M  V30 27412 O 2608.22 1.61989 1.07656 0
M  V30 27413 C 2608.51 2.84158 -2.21193 0
M  V30 27414 C 2608.36 2.52622 -3.72159 0
M  V30 27415 C 2609.68 3.8592 -2.11551 0
M  V30 27416 H 2606.8 0.565375 -0.472779 0
M  V30 27417 H 2609.44 0.918163 -1.66342 0
M  V30 27418 H 2607.59 3.38788 -1.90145 0
M  V30 27419 H 2609.26 2.04113 -4.13685 0
M  V30 27420 H 2607.5 1.85697 -3.92045 0
M  V30 27421 H 2608.17 3.44234 -4.31517 0
M  V30 27422 H 2610.65 3.40712 -2.38861 0
M  V30 27423 H 2609.53 4.73473 -2.77696 0
M  V30 27424 H 2609.79 4.28198 -1.09994 0
M  V30 27425 N 2608.85 1.19999 1.02166 0
M  V30 27426 C 2609.76 0.959811 2.14067 0
M  V30 27427 C 2610.77 -0.0826244 1.73804 0
M  V30 27428 O 2611.95 0.103669 2.01133 0
M  V30 27429 C 2609.01 0.509519 3.42936 0
M  V30 27430 C 2608.07 1.6222 3.97471 0
M  V30 27431 C 2607.31 1.1933 5.20188 0
M  V30 27432 O 2607.53 0.0598729 5.70369 0
M  V30 27433 O 2606.46 1.99873 5.67745 0
M  V30 27434 H 2610.29 1.89662 2.37196 0
M  V30 27435 H 2607.88 0.983431 1.12468 0
M  V30 27436 H 2609.76 0.267396 4.20551 0
M  V30 27437 H 2608.43 -0.398764 3.21234 0
M  V30 27438 H 2607.34 1.91856 3.21158 0
M  V30 27439 H 2608.67 2.50731 4.2355 0
M  V30 27440 N 2610.32 -1.21392 1.00507 0
M  V30 27441 C 2611.29 -2.21986 0.570498 0
M  V30 27442 C 2612.29 -1.56873 -0.353183 0
M  V30 27443 O 2613.48 -1.73608 -0.14346 0
M  V30 27444 C 2610.61 -3.40483 -0.168496 0
M  V30 27445 H 2611.8 -2.61948 1.46026 0
M  V30 27446 H 2609.36 -1.34655 0.793589 0
M  V30 27447 H 2610.09 -3.0601 -1.07369 0
M  V30 27448 H 2609.88 -3.88964 0.494892 0
M  V30 27449 H 2611.37 -4.15056 -0.460289 0
M  V30 27450 N 2611.8 -0.779811 -1.36955 0
M  V30 27451 C 2613.05 -0.348316 -1.99786 0
M  V30 27452 C 2613.38 1.07462 -1.61758 0
M  V30 27453 O 2612.66 1.74074 -0.867669 0
M  V30 27454 C 2612.94 -0.501102 -3.56596 0
M  V30 27455 C 2612.79 -1.96704 -4.04509 0
M  V30 27456 C 2614.11 0.0897324 -4.40009 0
M  V30 27457 H 2611.23 -0.128034 -0.725794 0
M  V30 27458 H 2613.87 -0.98436 -1.62513 0
M  V30 27459 H 2612.02 0.0403664 -3.88479 0
M  V30 27460 H 2613.69 -2.56883 -3.83156 0
M  V30 27461 H 2611.94 -2.47303 -3.56404 0
M  V30 27462 H 2612.61 -2.02495 -5.13517 0
M  V30 27463 H 2615.08 -0.372366 -4.14431 0
M  V30 27464 H 2613.96 -0.047257 -5.4888 0
M  V30 27465 H 2614.22 1.18088 -4.26037 0
M  V30 27466 N 2613.28 1.48384 -0.531019 0
M  V30 27467 C 2614.21 2.26495 0.278471 0
M  V30 27468 C 2615.19 1.324 0.943882 0
M  V30 27469 O 2616.38 1.61743 0.96807 0
M  V30 27470 C 2613.5 3.08662 1.39448 0
M  V30 27471 C 2612.55 4.18139 0.84036 0
M  V30 27472 S 2613.38 5.347 -0.29259 0
M  V30 27473 C 2614.54 6.20428 0.825864 0
M  V30 27474 H 2614.77 2.94804 -0.384417 0
M  V30 27475 H 2612.3 1.51114 -0.316825 0
M  V30 27476 H 2614.26 3.56579 2.03376 0
M  V30 27477 H 2612.92 2.39764 2.02909 0
M  V30 27478 H 2612.12 4.7526 1.67761 0
M  V30 27479 H 2611.72 3.72967 0.277754 0
M  V30 27480 H 2614.01 6.55191 1.72426 0
M  V30 27481 H 2614.95 7.07495 0.292604 0
M  V30 27482 H 2615.36 5.53545 1.10674 0
M  V30 27483 N 2614.76 0.2662 1.55336 0
M  V30 27484 C 2615.99 -0.356203 2.03506 0
M  V30 27485 C 2616.4 -1.50674 1.14429 0
M  V30 27486 O 2615.74 -1.83044 0.155076 0
M  V30 27487 C 2615.8 -0.907789 3.4785 0
M  V30 27488 C 2615.47 0.112969 4.5686 0
M  V30 27489 C 2616.46 0.929354 5.11526 0
M  V30 27490 C 2614.15 0.244635 5.01704 0
M  V30 27491 C 2616.14 1.86368 6.09546 0
M  V30 27492 C 2613.83 1.18244 5.99551 0
M  V30 27493 C 2614.83 1.99047 6.53352 0
M  V30 27494 O 2614.51 2.91244 7.49288 0
M  V30 27495 H 2614.25 -0.0864782 0.670446 0
M  V30 27496 H 2616.8 0.393405 2.01597 0
M  V30 27497 H 2615.03 -1.70731 3.4697 0
M  V30 27498 H 2616.72 -1.44233 3.7941 0
M  V30 27499 H 2617.49 0.838321 4.777 0
M  V30 27500 H 2613.36 -0.374278 4.59478 0
M  V30 27501 H 2616.91 2.49478 6.51465 0
M  V30 27502 H 2612.81 1.27433 6.32796 0
M  V30 27503 H 2613.57 2.85824 7.66973 0
M  V30 27504 N 2616.24 -1.57599 -0.0066531 0
M  V30 27505 C 2617.17 -2.03433 -1.03394 0
M  V30 27506 C 2618.15 -0.9229 -1.33871 0
M  V30 27507 O 2619.33 -1.19051 -1.46148 0
M  V30 27508 C 2616.46 -2.42632 -2.36321 0
M  V30 27509 C 2615.5 -3.64441 -2.21551 0
M  V30 27510 S 2616.34 -5.12644 -1.5478 0
M  V30 27511 C 2617.49 -5.55106 -2.89151 0
M  V30 27512 H 2617.73 -2.90249 -0.643636 0
M  V30 27513 H 2615.26 -1.52863 -0.217322 0
M  V30 27514 H 2617.22 -2.65885 -3.12755 0
M  V30 27515 H 2615.88 -1.56227 -2.72492 0
M  V30 27516 H 2615.07 -3.89598 -3.19733 0
M  V30 27517 H 2614.67 -3.41156 -1.53261 0
M  V30 27518 H 2616.97 -5.5716 -3.8546 0
M  V30 27519 H 2617.91 -6.55137 -2.68701 0
M  V30 27520 H 2618.32 -4.82655 -2.92754 0
M  V30 27521 N 2617.72 0.279305 -1.55105 0
M  V30 27522 C 2618.96 1.00974 -1.75068 0
M  V30 27523 C 2619.28 1.87044 -0.551309 0
M  V30 27524 O 2618.55 1.91033 0.43395 0
M  V30 27525 H 2617.13 0.375805 -0.645585 0
M  V30 27526 H 2619.8 0.305055 -1.92498 0
M  V30 27527 H 2618.89 1.65033 -2.64897 0
M  V30 27528 N 2619.19 1.47931 0.543528 0
M  V30 27529 C 2620.42 1.58896 1.32513 0
M  V30 27530 C 2620.84 0.244164 1.87215 0
M  V30 27531 O 2620.19 -0.764623 1.6571 0
M  V30 27532 C 2620.24 2.62499 2.48549 0
M  V30 27533 O 2619.97 3.91758 1.96105 0
M  V30 27534 C 2621.47 2.83776 3.40567 0
M  V30 27535 H 2618.69 0.536152 0.403463 0
M  V30 27536 H 2621.23 1.93656 0.657072 0
M  V30 27537 H 2619.39 2.30634 3.11266 0
M  V30 27538 H 2619.8 4.48485 2.71959 0
M  V30 27539 H 2621.27 3.601 4.18368 0
M  V30 27540 H 2621.75 1.92099 3.94962 0
M  V30 27541 H 2622.36 3.16892 2.83654 0
M  V30 27542 N 2620.67 -0.791347 1.36292 0
M  V30 27543 C 2621.6 -1.91822 1.33141 0
M  V30 27544 C 2622.58 -1.68882 0.203198 0
M  V30 27545 O 2623.77 -1.90024 0.400543 0
M  V30 27546 C 2620.9 -3.28814 1.11799 0
M  V30 27547 C 2619.85 -3.66273 2.21423 0
M  V30 27548 C 2619.18 -5.01593 1.85227 0
M  V30 27549 C 2620.48 -3.75058 3.63495 0
M  V30 27550 H 2622.17 -1.94716 2.27433 0
M  V30 27551 H 2619.72 -0.935418 1.0948 0
M  V30 27552 H 2621.67 -4.07264 1.08229 0
M  V30 27553 H 2620.39 -3.26302 0.139559 0
M  V30 27554 H 2619.05 -2.90118 2.24115 0
M  V30 27555 H 2618.7 -4.956 0.859631 0
M  V30 27556 H 2618.4 -5.27626 2.58621 0
M  V30 27557 H 2619.93 -5.82466 1.8321 0
M  V30 27558 H 2621.34 -4.43705 3.63042 0
M  V30 27559 H 2619.74 -4.12574 4.35778 0
M  V30 27560 H 2620.81 -2.76212 3.98541 0
M  V30 27561 N 2622.15 -1.2054 -1.01528 0
M  V30 27562 C 2623.37 -1.04274 -1.79281 0
M  V30 27563 C 2623.8 0.403511 -1.83721 0
M  V30 27564 O 2623.16 1.29067 -1.27324 0
M  V30 27565 C 2623.21 -1.63247 -3.21532 0
M  V30 27566 O 2622.31 -0.870979 -4.03098 0
M  V30 27567 H 2621.65 -0.367656 -0.552924 0
M  V30 27568 H 2624.18 -1.59861 -1.27694 0
M  V30 27569 H 2624.19 -1.67037 -3.7224 0
M  V30 27570 H 2622.87 -2.68502 -3.17615 0
M  V30 27571 H 2621.44 -0.907387 -3.61692 0
M  V30 27572 N 2623.63 1.20858 -1.01149 0
M  V30 27573 C 2624.86 1.938 -0.715906 0
M  V30 27574 C 2625.27 1.74693 0.726561 0
M  V30 27575 O 2624.61 1.05484 1.50395 0
M  V30 27576 C 2624.67 3.46297 -0.96533 0
M  V30 27577 C 2624.33 3.8916 -2.39591 0
M  V30 27578 C 2625.33 3.95336 -3.37647 0
M  V30 27579 C 2623.02 4.21292 -2.73529 0
M  V30 27580 C 2625.01 4.33047 -4.67706 0
M  V30 27581 C 2622.7 4.5868 -4.03802 0
M  V30 27582 C 2623.7 4.64529 -5.00702 0
M  V30 27583 O 2623.38 5.01061 -6.28644 0
M  V30 27584 H 2623.12 0.622938 -0.262535 0
M  V30 27585 H 2625.67 1.5444 -1.35415 0
M  V30 27586 H 2623.9 3.85757 -0.269915 0
M  V30 27587 H 2625.59 4.00463 -0.662121 0
M  V30 27588 H 2626.35 3.70681 -3.12763 0
M  V30 27589 H 2622.23 4.15933 -1.98797 0
M  V30 27590 H 2625.78 4.37528 -5.43337 0
M  V30 27591 H 2621.67 4.8279 -4.28468 0
M  V30 27592 H 2622.44 5.19072 -6.32856 0
M  V30 27593 N 2625.11 0.787064 1.3654 0
M  V30 27594 C 2626.02 0.184937 2.3387 0
M  V30 27595 C 2627.03 -0.661668 1.60928 0
M  V30 27596 O 2628.21 -0.578006 1.92928 0
M  V30 27597 C 2625.27 -0.672085 3.40123 0
M  V30 27598 C 2624.33 0.192746 4.28867 0
M  V30 27599 C 2623.57 -0.623468 5.30046 0
M  V30 27600 O 2623.79 -1.8596 5.39236 0
M  V30 27601 O 2622.72 -0.024601 6.01895 0
M  V30 27602 H 2626.55 0.989613 2.87124 0
M  V30 27603 H 2624.13 0.54848 1.38968 0
M  V30 27604 H 2626.02 -1.16087 4.05095 0
M  V30 27605 H 2624.69 -1.45469 2.89172 0
M  V30 27606 H 2623.6 0.72823 3.66944 0
M  V30 27607 H 2624.93 0.938807 4.83164 0
M  V30 27608 N 2626.58 -1.48101 0.53888 0
M  V30 27609 C 2627.52 -2.27763 -0.256238 0
M  V30 27610 C 2628.53 -1.35905 -0.896306 0
M  V30 27611 O 2629.72 -1.60882 -0.773247 0
M  V30 27612 C 2626.82 -3.0958 -1.3789 0
M  V30 27613 C 2625.99 -4.29276 -0.839084 0
M  V30 27614 C 2625.05 -4.92833 -1.84397 0
M  V30 27615 O 2624.08 -5.51781 -1.39736 0
M  V30 27616 N 2625.28 -4.85875 -3.17657 0
M  V30 27617 H 2628.04 -2.96642 0.42702 0
M  V30 27618 H 2625.6 -1.57526 0.373774 0
M  V30 27619 H 2627.6 -3.48967 -2.04949 0
M  V30 27620 H 2626.17 -2.43063 -1.96568 0
M  V30 27621 H 2625.39 -3.94199 0.00776216 0
M  V30 27622 H 2626.67 -5.06739 -0.457459 0
M  V30 27623 H 2626.07 -4.3915 -3.56601 0
M  V30 27624 H 2624.63 -5.29336 -3.80325 0
M  V30 27625 N 2628.06 -0.274434 -1.55192 0
M  V30 27626 C 2629.31 0.342544 -1.99582 0
M  V30 27627 C 2629.64 1.55912 -1.16283 0
M  V30 27628 O 2628.89 1.94456 -0.220324 0
M  V30 27629 C 2629.19 0.769397 -3.4902 0
M  V30 27630 C 2628.86 -0.342468 -4.49598 0
M  V30 27631 C 2627.52 -0.64777 -4.7682 0
M  V30 27632 C 2629.87 -1.09172 -5.09638 0
M  V30 27633 C 2627.2 -1.70591 -5.61351 0
M  V30 27634 C 2629.55 -2.13958 -5.95319 0
M  V30 27635 C 2628.21 -2.45124 -6.20863 0
M  V30 27636 H 2627.48 0.125346 -0.730321 0
M  V30 27637 H 2630.13 -0.388004 -1.87528 0
M  V30 27638 H 2628.44 1.57961 -3.58547 0
M  V30 27639 H 2630.13 1.25751 -3.80773 0
M  V30 27640 H 2626.72 -0.0943933 -4.28496 0
M  V30 27641 H 2630.91 -0.86911 -4.88631 0
M  V30 27642 H 2626.16 -1.9524 -5.79389 0
M  V30 27643 H 2630.34 -2.7249 -6.40876 0
M  V30 27644 H 2627.96 -3.27252 -6.86156 0
M  V30 27645 N 2629.54 1.576 -0.00170483 0
M  V30 27646 C 2630.49 2.08529 0.989158 0
M  V30 27647 C 2631.46 0.981088 1.34029 0
M  V30 27648 O 2632.64 1.25362 1.43837 0
M  V30 27649 C 2629.78 2.59467 2.27532 0
M  V30 27650 C 2628.89 3.83795 1.98307 0
M  V30 27651 C 2628.03 4.23227 3.21017 0
M  V30 27652 C 2627.07 5.40387 2.87486 0
M  V30 27653 N 2626.21 5.75105 4.02739 0
M  V30 27654 H 2631.05 2.92919 0.547921 0
M  V30 27655 H 2628.58 1.44804 0.258891 0
M  V30 27656 H 2630.54 2.87079 3.02724 0
M  V30 27657 H 2629.17 1.77948 2.69322 0
M  V30 27658 H 2628.22 3.6308 1.13476 0
M  V30 27659 H 2629.53 4.69084 1.69593 0
M  V30 27660 H 2628.69 4.5213 4.04553 0
M  V30 27661 H 2627.43 3.3665 3.52871 0
M  V30 27662 H 2626.43 5.11206 2.02358 0
M  V30 27663 H 2627.66 6.28642 2.56878 0
M  V30 27664 H 2625.6 4.91486 4.34485 0
M  V30 27665 H 2625.52 6.54972 3.77554 0
M  V30 27666 H 2626.79 6.08601 4.87058 0
M  V30 27667 N 2631.02 -0.271076 1.55251 0
M  V30 27668 C 2631.96 -1.33513 1.88263 0
M  V30 27669 C 2632.93 -1.48986 0.734322 0
M  V30 27670 O 2634.12 -1.63362 0.985769 0
M  V30 27671 C 2631.26 -2.69004 2.16173 0
M  V30 27672 C 2630.37 -2.61737 3.43683 0
M  V30 27673 C 2629.51 -3.8942 3.61283 0
M  V30 27674 C 2628.55 -3.76671 4.82478 0
M  V30 27675 N 2627.68 -4.96193 4.96726 0
M  V30 27676 H 2632.52 -1.0466 2.79017 0
M  V30 27677 H 2630.06 -0.505594 1.38138 0
M  V30 27678 H 2632.02 -3.4784 2.30355 0
M  V30 27679 H 2630.65 -2.96055 1.28652 0
M  V30 27680 H 2629.7 -1.74601 3.37962 0
M  V30 27681 H 2631.01 -2.48217 4.32654 0
M  V30 27682 H 2630.17 -4.76697 3.75293 0
M  V30 27683 H 2628.91 -4.05809 2.705 0
M  V30 27684 H 2627.91 -2.87777 4.6847 0
M  V30 27685 H 2629.14 -3.61799 5.74698 0
M  V30 27686 H 2627.08 -5.12989 4.08874 0
M  V30 27687 H 2627 -4.85212 5.79746 0
M  V30 27688 H 2628.27 -5.85037 5.15123 0
M  V30 27689 N 2632.5 -1.48217 -0.535675 0
M  V30 27690 C 2633.74 -1.55636 -1.28925 0
M  V30 27691 C 2634.07 -0.229548 -1.93644 0
M  V30 27692 O 2633.34 0.748428 -1.8104 0
M  V30 27693 H 2631.92 -0.573351 -0.47883 0
M  V30 27694 H 2634.58 -1.84647 -0.623821 0
M  V30 27695 H 2633.67 -2.3344 -2.07153 0
M  V30 27696 N 2633.97 0.784108 -1.3671 0
M  V30 27697 C 2635.22 1.54449 -1.31429 0
M  V30 27698 C 2635.55 1.93917 0.104726 0
M  V30 27699 O 2634.83 1.63122 1.05931 0
M  V30 27700 C 2635.11 2.81796 -2.24194 0
M  V30 27701 C 2634.96 2.4866 -3.74817 0
M  V30 27702 C 2636.28 3.83654 -2.15633 0
M  V30 27703 H 2633.4 0.560329 -0.478749 0
M  V30 27704 H 2636.04 0.900468 -1.67307 0
M  V30 27705 H 2634.19 3.36752 -1.93728 0
M  V30 27706 H 2635.87 1.99714 -4.15827 0
M  V30 27707 H 2634.11 1.81528 -3.93992 0
M  V30 27708 H 2634.78 3.39638 -4.35144 0
M  V30 27709 H 2637.26 3.38159 -2.42461 0
M  V30 27710 H 2636.13 4.70501 -2.82702 0
M  V30 27711 H 2636.39 4.27007 -1.1453 0
M  V30 27712 N 2635.45 1.21076 1.00888 0
M  V30 27713 C 2636.38 0.924328 2.09735 0
M  V30 27714 C 2637.4 -0.0909523 1.62546 0
M  V30 27715 O 2638.59 0.141052 1.77942 0
M  V30 27716 C 2635.69 0.365649 3.36922 0
M  V30 27717 C 2634.86 1.43433 4.13214 0
M  V30 27718 C 2633.92 0.885587 5.18694 0
M  V30 27719 O 2632.94 1.56811 5.47174 0
M  V30 27720 N 2634.15 -0.301125 5.79718 0
M  V30 27721 H 2636.91 1.86134 2.34892 0
M  V30 27722 H 2634.47 1.11549 1.17339 0
M  V30 27723 H 2636.46 -0.0157696 4.04697 0
M  V30 27724 H 2635.03 -0.476095 3.08953 0
M  V30 27725 H 2634.25 1.98976 3.40297 0
M  V30 27726 H 2635.54 2.15384 4.60963 0
M  V30 27727 H 2634.94 -0.87275 5.58927 0
M  V30 27728 H 2633.5 -0.624097 6.48805 0
M  V30 27729 N 2636.93 -1.2032 1.01789 0
M  V30 27730 C 2638.18 -1.89042 0.703283 0
M  V30 27731 C 2638.49 -1.79789 -0.770414 0
M  V30 27732 O 2639.7 -2.43658 -1.19763 0
M  V30 27733 C 2638.15 -3.39037 1.20755 0
M  V30 27734 C 2637.76 -3.56873 2.70824 0
M  V30 27735 C 2639.51 -4.13306 0.968425 0
M  V30 27736 C 2637.41 -5.00702 3.14724 0
M  V30 27737 H 2636.34 -0.707987 0.259366 0
M  V30 27738 H 2638.99 -1.36106 1.23074 0
M  V30 27739 H 2637.38 -3.91304 0.608057 0
M  V30 27740 H 2638.55 -3.14987 3.36333 0
M  V30 27741 H 2636.87 -2.95978 2.92893 0
M  V30 27742 H 2639.46 -5.19354 1.27183 0
M  V30 27743 H 2639.81 -4.16191 -0.0950759 0
M  V30 27744 H 2640.34 -3.67144 1.53135 0
M  V30 27745 H 2637.08 -5.02972 4.20356 0
M  V30 27746 H 2636.6 -5.43393 2.53936 0
M  V30 27747 H 2638.28 -5.69291 3.07436 0
M  V30 27748 N 2638.41 -0.794293 -1.3612 0
M  V30 27749 C 2639.82 -0.431478 -1.81646 0
M  V30 27750 C 2640.17 1.04515 -1.66045 0
M  V30 27751 O 2639.3 1.81128 -1.18414 0
M  V30 27752 C 2639.89 -0.776399 -3.29784 0
M  V30 27753 C 2638.45 -0.466348 -3.735 0
M  V30 27754 C 2637.6 -1.00849 -2.58312 0
M  V30 27755 H 2640.55 -0.987017 -1.24273 0
M  V30 27756 H 2640.57 -0.0693082 -3.80437 0
M  V30 27757 H 2640.08 -1.85116 -3.41106 0
M  V30 27758 H 2638.18 0.600181 -3.67734 0
M  V30 27759 H 2638.29 -0.990371 -4.68752 0
M  V30 27760 H 2636.66 -0.43145 -2.51019 0
M  V30 27761 H 2637.44 -2.08911 -2.72417 0
M  V30 27762 N 2639.89 1.47813 -0.546727 0
M  V30 27763 C 2641.13 2.04389 -0.0209963 0
M  V30 27764 C 2641.49 1.41302 1.29991 0
M  V30 27765 O 2642.69 1.88863 1.9127 0
M  V30 27766 C 2640.96 3.57308 0.0812216 0
M  V30 27767 S 2642.52 4.35281 0.554594 0
M  V30 27768 H 2639.34 0.710716 -0.020099 0
M  V30 27769 H 2641.94 1.81316 -0.731087 0
M  V30 27770 H 2640.65 4.00751 -0.884687 0
M  V30 27771 H 2640.18 3.84861 0.815185 0
M  V30 27772 H 2642.19 4.61767 1.81619 0
M  V30 27773 N 2641.36 0.28266 1.55044 0
M  V30 27774 C 2642.59 -0.335085 2.04169 0
M  V30 27775 C 2643.01 -1.48904 1.16073 0
M  V30 27776 O 2642.36 -1.81586 0.182423 0
M  V30 27777 C 2642.42 -0.808895 3.52334 0
M  V30 27778 O 2642.14 0.299115 4.37078 0
M  V30 27779 C 2643.64 -1.49368 4.17378 0
M  V30 27780 H 2640.86 -0.0754426 0.666745 0
M  V30 27781 H 2643.4 0.416953 2.00204 0
M  V30 27782 H 2641.56 -1.511 3.56718 0
M  V30 27783 H 2641.97 -0.0664593 5.24458 0
M  V30 27784 H 2643.44 -1.77655 5.2263 0
M  V30 27785 H 2643.92 -2.42772 3.66003 0
M  V30 27786 H 2644.53 -0.835232 4.17018 0
M  V30 27787 N 2642.84 -1.57597 0.0100627 0
M  V30 27788 C 2644.08 -1.92861 -0.67705 0
M  V30 27789 C 2644.45 -0.885222 -1.70376 0
M  V30 27790 O 2645.65 -1.12343 -2.44197 0
M  V30 27791 C 2643.92 -3.33134 -1.29446 0
M  V30 27792 S 2645.48 -3.90299 -2.0053 0
M  V30 27793 H 2642.3 -0.674992 -0.223397 0
M  V30 27794 H 2644.9 -1.95378 0.0691633 0
M  V30 27795 H 2643.6 -4.06904 -0.534521 0
M  V30 27796 H 2643.13 -3.34016 -2.07839 0
M  V30 27797 H 2645.15 -3.72189 -3.28161 0
M  V30 27798 N 2644.32 0.262839 -1.55393 0
M  V30 27799 C 2645.57 0.991116 -1.76129 0
M  V30 27800 C 2645.89 1.86449 -0.571116 0
M  V30 27801 O 2645.16 1.91483 0.413664 0
M  V30 27802 H 2643.74 0.368936 -0.649534 0
M  V30 27803 H 2646.4 0.284621 -1.92811 0
M  V30 27804 H 2645.5 1.62214 -2.66633 0
M  V30 27805 N 2645.8 1.48499 0.527807 0
M  V30 27806 C 2646.75 1.63183 1.63217 0
M  V30 27807 C 2647.72 0.473843 1.59198 0
M  V30 27808 O 2648.9 0.697594 1.7759 0
M  V30 27809 C 2646.04 1.67956 3.01471 0
M  V30 27810 C 2645.15 2.94877 3.15708 0
M  V30 27811 C 2644.29 2.90797 4.44534 0
M  V30 27812 C 2643.33 4.12412 4.52308 0
M  V30 27813 N 2642.46 4.06397 5.72526 0
M  V30 27814 H 2647.3 2.57492 1.50006 0
M  V30 27815 H 2644.84 1.27693 0.730275 0
M  V30 27816 H 2646.8 1.68705 3.81569 0
M  V30 27817 H 2645.43 0.771361 3.13448 0
M  V30 27818 H 2644.48 3.03863 2.28849 0
M  V30 27819 H 2645.79 3.84855 3.17313 0
M  V30 27820 H 2644.95 2.89959 5.32925 0
M  V30 27821 H 2643.69 1.9855 4.45454 0
M  V30 27822 H 2642.69 4.13523 3.62324 0
M  V30 27823 H 2643.92 5.0582 4.53125 0
M  V30 27824 H 2641.86 3.16972 5.74338 0
M  V30 27825 H 2641.78 4.90083 5.75634 0
M  V30 27826 H 2643.05 4.09621 6.63197 0
M  V30 27827 N 2647.28 -0.776847 1.37123 0
M  V30 27828 C 2648.21 -1.89895 1.28345 0
M  V30 27829 C 2649.22 -1.61563 0.200305 0
M  V30 27830 O 2650.41 -1.72576 0.456042 0
M  V30 27831 C 2647.51 -3.25004 0.960484 0
M  V30 27832 C 2646.68 -3.81021 2.14806 0
M  V30 27833 C 2645.74 -4.94595 1.79617 0
M  V30 27834 O 2644.77 -5.10449 2.51854 0
M  V30 27835 N 2645.97 -5.75799 0.737272 0
M  V30 27836 H 2648.74 -1.97943 2.2503 0
M  V30 27837 H 2646.3 -0.955716 1.30682 0
M  V30 27838 H 2648.29 -3.98494 0.706012 0
M  V30 27839 H 2646.86 -3.12491 0.0823616 0
M  V30 27840 H 2646.08 -2.9937 2.56459 0
M  V30 27841 H 2647.37 -4.15178 2.94117 0
M  V30 27842 H 2646.77 -5.65532 0.137736 0
M  V30 27843 H 2645.32 -6.49537 0.542649 0
M  V30 27844 N 2648.76 -1.2161 -1.00244 0
M  V30 27845 C 2649.72 -0.979169 -2.07232 0
M  V30 27846 C 2650.72 0.0507937 -1.6072 0
M  V30 27847 O 2651.91 -0.186743 -1.73196 0
M  V30 27848 C 2649.04 -0.477075 -3.37545 0
M  V30 27849 H 2650.23 -1.92835 -2.29684 0
M  V30 27850 H 2647.79 -1.03344 -1.17259 0
M  V30 27851 H 2648.52 0.476909 -3.20774 0
M  V30 27852 H 2648.31 -1.22003 -3.72636 0
M  V30 27853 H 2649.8 -0.331254 -4.16284 0
M  V30 27854 N 2650.23 1.19778 -1.02425 0
M  V30 27855 C 2651.46 1.9331 -0.73749 0
M  V30 27856 C 2651.88 1.75224 0.702992 0
M  V30 27857 O 2651.23 1.07114 1.47759 0
M  V30 27858 C 2651.28 3.45197 -1.07336 0
M  V30 27859 O 2651.01 3.62698 -2.45727 0
M  V30 27860 C 2652.51 4.3586 -0.808737 0
M  V30 27861 H 2649.73 0.614188 -0.270211 0
M  V30 27862 H 2652.27 1.52052 -1.3675 0
M  V30 27863 H 2650.43 3.84306 -0.488613 0
M  V30 27864 H 2650.84 4.56607 -2.58089 0
M  V30 27865 H 2652.31 5.41056 -1.09375 0
M  V30 27866 H 2652.79 4.38448 0.256948 0
M  V30 27867 H 2653.4 4.02426 -1.37599 0
M  V30 27868 N 2651.71 0.801501 1.35697 0
M  V30 27869 C 2652.66 0.206335 2.29876 0
M  V30 27870 C 2653.63 -0.656725 1.52566 0
M  V30 27871 O 2654.81 -0.602874 1.81025 0
M  V30 27872 C 2651.95 -0.643212 3.39053 0
M  V30 27873 C 2651.07 0.23972 4.31334 0
M  V30 27874 C 2650.2 -0.617347 5.276 0
M  V30 27875 C 2649.24 0.266298 6.1152 0
M  V30 27876 N 2648.38 -0.550448 6.99939 0
M  V30 27877 H 2653.22 1.01489 2.80186 0
M  V30 27878 H 2650.75 0.512022 1.37901 0
M  V30 27879 H 2652.71 -1.15087 4.01012 0
M  V30 27880 H 2651.34 -1.41708 2.90032 0
M  V30 27881 H 2650.39 0.865446 3.70424 0
M  V30 27882 H 2651.71 0.920071 4.90241 0
M  V30 27883 H 2650.86 -1.19034 5.94908 0
M  V30 27884 H 2649.6 -1.33128 4.69178 0
M  V30 27885 H 2648.6 0.851603 5.43165 0
M  V30 27886 H 2649.83 0.978018 6.72021 0
M  V30 27887 H 2647.78 -1.24845 6.44011 0
M  V30 27888 H 2647.69 0.0719648 7.55966 0
M  V30 27889 H 2648.96 -1.10688 7.71601 0
M  V30 27890 N 2653.19 -1.47521 0.554558 0
M  V30 27891 C 2654.42 -2.06572 0.0342437 0
M  V30 27892 C 2654.83 -1.40807 -1.26372 0
M  V30 27893 O 2654.17 -0.497721 -1.76829 0
M  V30 27894 C 2654.23 -3.58731 -0.235033 0
M  V30 27895 C 2653.9 -4.4652 0.973103 0
M  V30 27896 C 2654.89 -4.84797 1.87798 0
M  V30 27897 C 2652.58 -4.88073 1.18703 0
M  V30 27898 C 2654.57 -5.63423 2.98049 0
M  V30 27899 C 2652.26 -5.66464 2.29264 0
M  V30 27900 C 2653.26 -6.0405 3.18768 0
M  V30 27901 O 2652.95 -6.80862 4.27413 0
M  V30 27902 H 2652.68 -0.674719 0.0415988 0
M  V30 27903 H 2655.23 -1.90551 0.766781 0
M  V30 27904 H 2653.46 -3.72955 -1.02185 0
M  V30 27905 H 2655.15 -3.99811 -0.700406 0
M  V30 27906 H 2655.92 -4.53296 1.72475 0
M  V30 27907 H 2651.8 -4.58285 0.499551 0
M  V30 27908 H 2655.34 -5.92679 3.67937 0
M  V30 27909 H 2651.24 -5.97378 2.44561 0
M  V30 27910 H 2652 -6.99252 4.25427 0
M  V30 27911 N 2654.67 -0.290879 -1.54892 0
M  V30 27912 C 2655.6 0.583044 -2.26104 0
M  V30 27913 C 2656.58 1.14617 -1.25686 0
M  V30 27914 O 2657.76 1.17739 -1.54439 0
M  V30 27915 C 2654.89 1.75982 -2.99412 0
M  V30 27916 C 2653.85 1.32751 -4.06892 0
M  V30 27917 C 2653.17 2.58864 -4.67861 0
M  V30 27918 C 2654.47 0.466148 -5.20216 0
M  V30 27919 H 2656.17 -0.0108741 -2.99398 0
M  V30 27920 H 2653.71 -0.00666999 -1.43998 0
M  V30 27921 H 2655.67 2.3772 -3.47947 0
M  V30 27922 H 2654.39 2.37981 -2.23679 0
M  V30 27923 H 2653.05 0.733236 -3.59192 0
M  V30 27924 H 2652.7 3.19156 -3.88778 0
M  V30 27925 H 2652.4 2.30644 -5.40442 0
M  V30 27926 H 2653.92 3.21424 -5.19152 0
M  V30 27927 H 2655.34 0.988948 -5.64706 0
M  V30 27928 H 2653.73 0.278155 -5.99455 0
M  V30 27929 H 2654.8 -0.511257 -4.82197 0
M  V30 27930 N 2656.15 1.57589 -0.0184203 0
M  V30 27931 C 2657.39 1.91639 0.663509 0
M  V30 27932 C 2657.72 0.894164 1.7239 0
M  V30 27933 O 2657 -0.0846107 1.94316 0
M  V30 27934 C 2657.28 3.36209 1.28979 0
M  V30 27935 C 2657.14 4.49161 0.239683 0
M  V30 27936 C 2658.45 3.80539 2.21083 0
M  V30 27937 H 2655.57 0.696919 0.239734 0
M  V30 27938 H 2658.22 1.89858 -0.0734894 0
M  V30 27939 H 2656.37 3.37857 1.91793 0
M  V30 27940 H 2658.04 4.59647 -0.3902 0
M  V30 27941 H 2656.28 4.31603 -0.436048 0
M  V30 27942 H 2656.95 5.4732 0.717287 0
M  V30 27943 H 2659.43 3.8056 1.68267 0
M  V30 27944 H 2658.3 4.82411 2.61861 0
M  V30 27945 H 2658.56 3.15439 3.09759 0
M  V30 27946 N 2657.62 -0.254594 1.5553 0
M  V30 27947 C 2658.56 -1.3378 1.86106 0
M  V30 27948 C 2659.57 -1.44662 0.746777 0
M  V30 27949 O 2660.76 -1.46149 1.02482 0
M  V30 27950 C 2657.86 -2.71721 2.02537 0
M  V30 27951 C 2657.03 -2.83202 3.3334 0
M  V30 27952 C 2656.09 -4.01937 3.39607 0
M  V30 27953 O 2655.12 -3.91827 4.12869 0
M  V30 27954 N 2656.32 -5.14755 2.68341 0
M  V30 27955 H 2659.08 -1.07889 2.79607 0
M  V30 27956 H 2656.64 -0.444705 1.55673 0
M  V30 27957 H 2658.64 -3.49476 2.0408 0
M  V30 27958 H 2657.21 -2.90354 1.15816 0
M  V30 27959 H 2656.43 -1.92183 3.44179 0
M  V30 27960 H 2657.71 -2.87817 4.1957 0
M  V30 27961 H 2657.11 -5.2586 2.08537 0
M  V30 27962 H 2655.67 -5.90674 2.75586 0
M  V30 27963 N 2659.1 -1.48777 -0.519925 0
M  V30 27964 C 2660.03 -1.60145 -1.6397 0
M  V30 27965 C 2661.05 -0.485145 -1.55403 0
M  V30 27966 O 2662.24 -0.756419 -1.6168 0
M  V30 27967 C 2659.34 -1.52454 -3.02673 0
M  V30 27968 C 2658.51 -2.79297 -3.36619 0
M  V30 27969 C 2657.57 -2.6492 -4.54647 0
M  V30 27970 O 2656.59 -3.38826 -4.57368 0
M  V30 27971 N 2657.8 -1.75204 -5.53429 0
M  V30 27972 H 2660.56 -2.56716 -1.54651 0
M  V30 27973 H 2658.12 -1.45627 -0.707413 0
M  V30 27974 H 2660.11 -1.40517 -3.79522 0
M  V30 27975 H 2658.68 -0.638179 -3.06016 0
M  V30 27976 H 2657.9 -3.05725 -2.4885 0
M  V30 27977 H 2659.19 -3.63427 -3.56088 0
M  V30 27978 H 2658.59 -1.14381 -5.54016 0
M  V30 27979 H 2657.15 -1.69201 -6.29456 0
M  V30 27980 N 2660.58 0.769564 -1.37534 0
M  V30 27981 C 2661.49 1.91391 -1.35671 0
M  V30 27982 C 2662.51 1.72107 -0.255985 0
M  V30 27983 O 2663.68 1.95305 -0.491739 0
M  V30 27984 C 2660.75 3.26545 -1.16487 0
M  V30 27985 C 2659.81 3.58468 -2.36219 0
M  V30 27986 C 2659.04 4.87173 -2.1794 0
M  V30 27987 O 2659.26 5.5838 -1.1648 0
M  V30 27988 O 2658.2 5.18208 -3.06176 0
M  V30 27989 H 2662.02 1.95914 -2.32059 0
M  V30 27990 H 2659.61 0.912621 -1.18286 0
M  V30 27991 H 2661.49 4.07382 -1.07785 0
M  V30 27992 H 2660.17 3.22869 -0.231744 0
M  V30 27993 H 2659.07 2.77856 -2.50493 0
M  V30 27994 H 2660.41 3.66889 -3.28106 0
M  V30 27995 N 2662.06 1.22139 0.995977 0
M  V30 27996 C 2663.28 1.07113 1.77599 0
M  V30 27997 C 2663.71 -0.374232 1.8434 0
M  V30 27998 O 2663.07 -1.27026 1.29361 0
M  V30 27999 C 2663.11 1.68341 3.18894 0
M  V30 28000 O 2662.22 0.934998 4.01661 0
M  V30 28001 H 2661.56 0.376406 0.547005 0
M  V30 28002 H 2664.09 1.61872 1.25134 0
M  V30 28003 H 2664.1 1.72937 3.69536 0
M  V30 28004 H 2662.77 2.73521 3.13303 0
M  V30 28005 H 2661.35 0.964814 3.60202 0
M  V30 28006 N 2663.54 -1.19233 1.03059 0
M  V30 28007 C 2664.95 -1.70643 0.757479 0
M  V30 28008 C 2665.3 -1.82405 -0.722703 0
M  V30 28009 O 2664.42 -1.4964 -1.56322 0
M  V30 28010 C 2665.02 -3.09937 1.36838 0
M  V30 28011 C 2663.58 -3.586 1.14382 0
M  V30 28012 C 2662.72 -2.35419 1.46537 0
M  V30 28013 H 2665.68 -1.0405 1.1983 0
M  V30 28014 H 2665.7 -3.72705 0.76625 0
M  V30 28015 H 2665.21 -3.01344 2.44567 0
M  V30 28016 H 2663.31 -3.72503 0.0848197 0
M  V30 28017 H 2663.42 -4.42618 1.83373 0
M  V30 28018 H 2661.79 -2.38839 0.884754 0
M  V30 28019 H 2662.57 -2.29455 2.55353 0
M  V30 28020 N 2665.01 -0.808686 -1.3527 0
M  V30 28021 C 2666.26 -0.390038 -1.98708 0
M  V30 28022 C 2666.59 1.04332 -1.6415 0
M  V30 28023 O 2665.84 1.73889 -0.897828 0
M  V30 28024 C 2666.14 -0.522861 -3.53555 0
M  V30 28025 C 2665.81 -1.91984 -4.07987 0
M  V30 28026 C 2664.47 -2.30202 -4.22564 0
M  V30 28027 C 2666.82 -2.83369 -4.37437 0
M  V30 28028 C 2664.15 -3.5917 -4.63912 0
M  V30 28029 C 2666.5 -4.11785 -4.80225 0
M  V30 28030 C 2665.17 -4.5 -4.93008 0
M  V30 28031 H 2664.44 -0.142725 -0.727125 0
M  V30 28032 H 2667.08 -1.02988 -1.61449 0
M  V30 28033 H 2665.39 0.200426 -3.91287 0
M  V30 28034 H 2667.09 -0.179678 -4.00597 0
M  V30 28035 H 2663.68 -1.61291 -3.97093 0
M  V30 28036 H 2667.86 -2.5509 -4.25726 0
M  V30 28037 H 2663.12 -3.88623 -4.71998 0
M  V30 28038 H 2667.29 -4.82696 -5.01974 0
M  V30 28039 H 2664.92 -5.49986 -5.24805 0
M  V30 28040 N 2666.49 1.47225 -0.562374 0
M  V30 28041 C 2667.74 2.0276 -0.0403117 0
M  V30 28042 C 2668.07 1.43526 1.30821 0
M  V30 28043 O 2667.35 0.592737 1.85248 0
M  V30 28044 C 2667.63 3.60069 0.0472477 0
M  V30 28045 C 2667.48 4.29726 -1.32873 0
M  V30 28046 C 2668.8 4.33521 0.758106 0
M  V30 28047 H 2665.92 0.736824 -0.0161235 0
M  V30 28048 H 2668.56 1.75597 -0.725659 0
M  V30 28049 H 2666.71 3.83343 0.630919 0
M  V30 28050 H 2668.38 4.17778 -1.956 0
M  V30 28051 H 2666.63 3.89879 -1.90202 0
M  V30 28052 H 2667.3 5.38346 -1.22013 0
M  V30 28053 H 2669.77 4.15271 0.262473 0
M  V30 28054 H 2668.65 5.43209 0.788345 0
M  V30 28055 H 2668.91 4.03112 1.8153 0
M  V30 28056 N 2667.97 0.299089 1.54736 0
M  V30 28057 C 2668.9 -0.619812 2.19621 0
M  V30 28058 C 2669.88 -1.13432 1.16498 0
M  V30 28059 O 2671.07 -1.20287 1.45132 0
M  V30 28060 C 2668.19 -1.84783 2.83854 0
M  V30 28061 C 2667.24 -1.46672 4.00487 0
M  V30 28062 S 2668.07 -0.524296 5.32927 0
M  V30 28063 C 2669.23 -1.76015 6.00641 0
M  V30 28064 H 2669.46 -0.0685655 2.97221 0
M  V30 28065 H 2666.99 0.0832356 1.54175 0
M  V30 28066 H 2668.95 -2.55257 3.21487 0
M  V30 28067 H 2667.61 -2.37024 2.06103 0
M  V30 28068 H 2666.81 -2.38113 4.44205 0
M  V30 28069 H 2666.41 -0.841944 3.644 0
M  V30 28070 H 2668.7 -2.70098 6.21332 0
M  V30 28071 H 2669.64 -1.36556 6.94808 0
M  V30 28072 H 2670.05 -1.936 5.30263 0
M  V30 28073 N 2669.45 -1.57577 0.0267774 0
M  V30 28074 C 2670.38 -2.0558 -0.990553 0
M  V30 28075 C 2671.36 -0.951088 -1.31883 0
M  V30 28076 O 2672.54 -1.22124 -1.4359 0
M  V30 28077 C 2669.67 -2.4759 -2.31121 0
M  V30 28078 C 2668.72 -3.69059 -2.1377 0
M  V30 28079 S 2669.55 -5.15811 -1.43871 0
M  V30 28080 C 2670.71 -5.61115 -2.77311 0
M  V30 28081 H 2670.94 -2.91549 -0.581925 0
M  V30 28082 H 2668.47 -1.53289 -0.184849 0
M  V30 28083 H 2670.43 -2.72459 -3.07044 0
M  V30 28084 H 2669.09 -1.61972 -2.69117 0
M  V30 28085 H 2668.28 -3.96292 -3.11398 0
M  V30 28086 H 2667.89 -3.4433 -1.4599 0
M  V30 28087 H 2670.18 -5.65211 -3.73555 0
M  V30 28088 H 2671.12 -6.6069 -2.54745 0
M  V30 28089 H 2671.53 -4.88756 -2.8245 0
M  V30 28090 N 2670.93 0.246342 -1.55663 0
M  V30 28091 C 2672.15 0.996061 -1.81916 0
M  V30 28092 C 2672.58 1.78142 -0.603906 0
M  V30 28093 O 2671.93 1.75702 0.44706 0
M  V30 28094 C 2671.98 1.9092 -3.05912 0
M  V30 28095 O 2671.09 3.001 -2.82866 0
M  V30 28096 H 2670.43 0.283396 -0.600486 0
M  V30 28097 H 2672.96 0.267163 -2.02848 0
M  V30 28098 H 2672.97 2.32374 -3.3536 0
M  V30 28099 H 2671.64 1.33176 -3.94001 0
M  V30 28100 H 2670.22 2.6277 -2.64587 0
M  V30 28101 N 2672.4 1.4905 0.512027 0
M  V30 28102 C 2673.37 1.64402 1.59702 0
M  V30 28103 C 2674.37 0.516344 1.52284 0
M  V30 28104 O 2675.56 0.782554 1.55633 0
M  V30 28105 C 2672.69 1.63107 2.99347 0
M  V30 28106 H 2673.88 2.61164 1.47423 0
M  V30 28107 H 2671.44 1.37916 0.735445 0
M  V30 28108 H 2672.17 0.678891 3.17114 0
M  V30 28109 H 2671.96 2.44992 3.0614 0
M  V30 28110 H 2673.45 1.77079 3.78197 0
M  V30 28111 N 2673.88 -0.762259 1.3794 0
M  V30 28112 C 2675.29 -1.33909 1.30097 0
M  V30 28113 C 2675.64 -1.96143 -0.0471681 0
M  V30 28114 O 2674.77 -1.94475 -0.949136 0
M  V30 28115 C 2675.36 -2.43474 2.35597 0
M  V30 28116 C 2673.92 -2.96901 2.31359 0
M  V30 28117 C 2673.07 -1.70201 2.18922 0
M  V30 28118 H 2676.02 -0.56179 1.48424 0
M  V30 28119 H 2676.04 -3.23195 2.00811 0
M  V30 28120 H 2675.55 -1.9815 3.33704 0
M  V30 28121 H 2673.66 -3.46576 1.36805 0
M  V30 28122 H 2673.77 -3.5187 3.25153 0
M  V30 28123 H 2672.13 -1.93494 1.65627 0
M  V30 28124 H 2672.92 -1.26967 3.18958 0
M  V30 28125 N 2675.36 -1.22666 -0.989486 0
M  V30 28126 C 2676.77 -1.04958 -1.54404 0
M  V30 28127 C 2677.12 0.385917 -1.92367 0
M  V30 28128 O 2676.25 1.27139 -1.75113 0
M  V30 28129 C 2676.84 -1.89904 -2.80574 0
M  V30 28130 C 2675.4 -1.76483 -3.32461 0
M  V30 28131 C 2674.55 -1.86162 -2.05521 0
M  V30 28132 H 2677.5 -1.36461 -0.810187 0
M  V30 28133 H 2677.52 -1.41846 -3.53072 0
M  V30 28134 H 2677.03 -2.94375 -2.52913 0
M  V30 28135 H 2675.13 -0.747592 -3.65023 0
M  V30 28136 H 2675.25 -2.59349 -4.02833 0
M  V30 28137 H 2673.61 -1.2964 -2.19238 0
M  V30 28138 H 2674.39 -2.92171 -1.80252 0
M  V30 28139 N 2676.84 1.18685 -1.0369 0
M  V30 28140 C 2677.8 2.20396 -0.629154 0
M  V30 28141 C 2678.8 1.57755 0.311467 0
M  V30 28142 O 2679.99 1.73928 0.0973801 0
M  V30 28143 C 2677.12 3.4081 0.0781632 0
M  V30 28144 H 2678.32 2.57984 -1.52919 0
M  V30 28145 H 2675.87 1.32503 -0.829011 0
M  V30 28146 H 2676.61 3.0875 0.992178 0
M  V30 28147 H 2676.39 3.87515 -0.597845 0
M  V30 28148 H 2677.88 4.1613 0.350082 0
M  V30 28149 N 2678.32 0.815849 1.34839 0
M  V30 28150 C 2679.25 0.190305 2.28409 0
M  V30 28151 C 2680.26 -0.615744 1.50706 0
M  V30 28152 O 2681.45 -0.446585 1.72823 0
M  V30 28153 C 2678.55 -0.752388 3.30443 0
M  V30 28154 C 2677.72 0.00929841 4.37399 0
M  V30 28155 C 2676.78 -0.85326 5.19236 0
M  V30 28156 O 2675.81 -0.30082 5.68405 0
M  V30 28157 N 2677.01 -2.17406 5.38252 0
M  V30 28158 H 2679.78 0.994164 2.8273 0
M  V30 28159 H 2677.34 0.672155 1.47288 0
M  V30 28160 H 2679.33 -1.33387 3.82086 0
M  V30 28161 H 2677.9 -1.45702 2.76568 0
M  V30 28162 H 2677.12 0.772047 3.86566 0
M  V30 28163 H 2678.41 0.533896 5.05991 0
M  V30 28164 H 2677.81 -2.64672 4.99965 0
M  V30 28165 H 2676.36 -2.70456 5.9304 0
M  V30 28166 N 2679.8 -1.46924 0.570174 0
M  V30 28167 C 2681.03 -2.06524 0.0561514 0
M  V30 28168 C 2681.43 -1.4214 -1.24872 0
M  V30 28169 O 2680.78 -0.516448 -1.76291 0
M  V30 28170 C 2680.84 -3.5896 -0.196971 0
M  V30 28171 C 2680.5 -4.45462 1.02041 0
M  V30 28172 C 2681.5 -4.82778 1.9293 0
M  V30 28173 C 2679.18 -4.86786 1.23873 0
M  V30 28174 C 2681.18 -5.6023 3.04008 0
M  V30 28175 C 2678.87 -5.64 2.35259 0
M  V30 28176 C 2679.86 -6.00635 3.25157 0
M  V30 28177 O 2679.55 -6.76291 4.3461 0
M  V30 28178 H 2679.28 -0.67424 0.0487528 0
M  V30 28179 H 2681.84 -1.89727 0.786948 0
M  V30 28180 H 2680.07 -3.74017 -0.982234 0
M  V30 28181 H 2681.76 -4.00532 -0.657962 0
M  V30 28182 H 2682.52 -4.51441 1.77273 0
M  V30 28183 H 2678.4 -4.5773 0.54813 0
M  V30 28184 H 2681.95 -5.88743 3.74202 0
M  V30 28185 H 2677.84 -5.9475 2.50883 0
M  V30 28186 H 2678.61 -6.94701 4.3282 0
M  V30 28187 N 2681.27 -0.307291 -1.54575 0
M  V30 28188 C 2682.18 0.57532 -2.27436 0
M  V30 28189 C 2683.2 1.14309 -1.31185 0
M  V30 28190 O 2684.38 1.16653 -1.64177 0
M  V30 28191 C 2681.44 1.72798 -3.00569 0
M  V30 28192 C 2680.5 1.19366 -4.12371 0
M  V30 28193 C 2679.73 2.29139 -4.82007 0
M  V30 28194 O 2679.96 3.49164 -4.51044 0
M  V30 28195 O 2678.89 1.95475 -5.69274 0
M  V30 28196 H 2682.72 -0.0159092 -3.03696 0
M  V30 28197 H 2680.3 -0.0735326 -1.49219 0
M  V30 28198 H 2682.18 2.3994 -3.4642 0
M  V30 28199 H 2680.86 2.3057 -2.27199 0
M  V30 28200 H 2679.77 0.487786 -3.70906 0
M  V30 28201 H 2681.1 0.66129 -4.87737 0
M  V30 28202 N 2682.75 1.57561 -0.0351337 0
M  V30 28203 C 2683.68 2.13613 0.942955 0
M  V30 28204 C 2684.66 1.05375 1.33529 0
M  V30 28205 O 2685.85 1.33237 1.41285 0
M  V30 28206 C 2682.98 2.66811 2.22327 0
M  V30 28207 C 2681.93 3.79889 1.9715 0
M  V30 28208 C 2681.26 4.19539 3.31498 0
M  V30 28209 C 2682.56 5.05712 1.30588 0
M  V30 28210 H 2684.25 2.9559 0.476127 0
M  V30 28211 H 2681.8 1.4219 0.227577 0
M  V30 28212 H 2683.75 3.04659 2.91137 0
M  V30 28213 H 2682.47 1.82004 2.71187 0
M  V30 28214 H 2681.13 3.42488 1.30757 0
M  V30 28215 H 2680.78 3.31705 3.78128 0
M  V30 28216 H 2680.48 4.95743 3.15456 0
M  V30 28217 H 2682.01 4.59975 4.01566 0
M  V30 28218 H 2683.42 5.41108 1.89406 0
M  V30 28219 H 2681.82 5.86953 1.24924 0
M  V30 28220 H 2682.89 4.84093 0.279657 0
M  V30 28221 N 2684.23 -0.238084 1.55791 0
M  V30 28222 C 2685.18 -1.29489 1.91053 0
M  V30 28223 C 2686.15 -1.47395 0.765759 0
M  V30 28224 O 2687.33 -1.61235 1.0202 0
M  V30 28225 C 2684.47 -2.64358 2.2183 0
M  V30 28226 C 2683.58 -2.54388 3.49157 0
M  V30 28227 C 2682.72 -3.81669 3.69462 0
M  V30 28228 C 2681.76 -3.66352 4.90359 0
M  V30 28229 N 2680.9 -4.85545 5.07139 0
M  V30 28230 H 2685.74 -0.987183 2.81174 0
M  V30 28231 H 2683.27 -0.476179 1.3918 0
M  V30 28232 H 2685.23 -3.42875 2.37681 0
M  V30 28233 H 2683.86 -2.9326 1.34902 0
M  V30 28234 H 2682.91 -1.67393 3.4159 0
M  V30 28235 H 2684.22 -2.38984 4.37822 0
M  V30 28236 H 2683.38 -4.6863 3.8532 0
M  V30 28237 H 2682.12 -3.9998 2.79047 0
M  V30 28238 H 2681.12 -2.77776 4.74469 0
M  V30 28239 H 2682.35 -3.49528 5.82243 0
M  V30 28240 H 2680.29 -5.04201 4.19663 0
M  V30 28241 H 2680.21 -4.72805 5.89908 0
M  V30 28242 H 2681.48 -5.73979 5.27417 0
M  V30 28243 N 2685.71 -1.4932 -0.504115 0
M  V30 28244 C 2686.66 -1.62154 -1.60282 0
M  V30 28245 C 2687.64 -0.477342 -1.53656 0
M  V30 28246 O 2688.83 -0.730136 -1.61239 0
M  V30 28247 C 2685.96 -1.68849 -2.98906 0
M  V30 28248 C 2685.05 -2.88836 -3.10539 0
M  V30 28249 N 2685.44 -4.12951 -2.9207 0
M  V30 28250 C 2683.74 -2.86708 -3.41635 0
M  V30 28251 C 2684.44 -4.93591 -3.07804 0
M  V30 28252 N 2683.41 -4.26897 -3.36541 0
M  V30 28253 H 2687.22 -2.55838 -1.44652 0
M  V30 28254 H 2684.73 -1.46049 -0.710173 0
M  V30 28255 H 2686.73 -1.76141 -3.77862 0
M  V30 28256 H 2685.39 -0.762998 -3.15608 0
M  V30 28257 H 2686.4 -4.4298 -2.68308 0
M  V30 28258 H 2683.08 -2.03524 -3.64533 0
M  V30 28259 H 2684.47 -6.02179 -2.98043 0
M  V30 28260 N 2687.19 0.754933 -1.38342 0
M  V30 28261 C 2688.43 1.51103 -1.3421 0
M  V30 28262 C 2688.75 1.94882 0.0677291 0
M  V30 28263 O 2688.02 1.67546 1.01515 0
M  V30 28264 H 2686.6 0.560484 -0.493828 0
M  V30 28265 H 2689.27 0.897476 -1.73007 0
M  V30 28266 H 2688.36 2.40256 -1.99207 0
M  V30 28267 N 2688.66 1.23189 0.982967 0
M  V30 28268 C 2689.89 1.08904 1.75919 0
M  V30 28269 C 2690.31 -0.359686 1.85342 0
M  V30 28270 O 2689.66 -1.2489 1.33074 0
M  V30 28271 C 2689.71 1.70551 3.18739 0
M  V30 28272 O 2689.44 3.09758 3.09809 0
M  V30 28273 C 2690.94 1.61674 4.12767 0
M  V30 28274 H 2688.16 0.381262 0.55216 0
M  V30 28275 H 2690.7 1.62987 1.23513 0
M  V30 28276 H 2688.86 1.20508 3.6818 0
M  V30 28277 H 2689.27 3.39621 3.99697 0
M  V30 28278 H 2690.74 2.09515 5.10693 0
M  V30 28279 H 2691.22 0.575086 4.35419 0
M  V30 28280 H 2691.83 2.11071 3.69228 0
M  V30 28281 N 2690.14 -1.18133 1.04318 0
M  V30 28282 C 2691.39 -1.88177 0.748053 0
M  V30 28283 C 2691.72 -1.80508 -0.724379 0
M  V30 28284 O 2690.97 -1.20168 -1.54461 0
M  V30 28285 C 2691.27 -3.37956 1.16277 0
M  V30 28286 C 2690.94 -3.65829 2.63591 0
M  V30 28287 C 2689.6 -3.73145 3.03835 0
M  V30 28288 C 2691.95 -3.7801 3.58829 0
M  V30 28289 C 2689.28 -3.90125 4.382 0
M  V30 28290 C 2691.63 -3.96506 4.92916 0
M  V30 28291 C 2690.29 -4.02059 5.32827 0
M  V30 28292 H 2689.56 -0.688587 0.273732 0
M  V30 28293 H 2692.21 -1.39808 1.30866 0
M  V30 28294 H 2690.52 -3.8832 0.521007 0
M  V30 28295 H 2692.21 -3.90497 0.911741 0
M  V30 28296 H 2688.8 -3.60753 2.31421 0
M  V30 28297 H 2692.99 -3.71687 3.28881 0
M  V30 28298 H 2688.24 -3.92669 4.68638 0
M  V30 28299 H 2692.42 -4.04873 5.66614 0
M  V30 28300 H 2690.04 -4.14968 6.3695 0
M  V30 28301 N 2691.62 -0.822988 -1.34405 0
M  V30 28302 C 2692.85 -0.424075 -2.02507 0
M  V30 28303 C 2693.26 0.969994 -1.61977 0
M  V30 28304 O 2692.62 1.62775 -0.825257 0
M  V30 28305 C 2692.67 -0.51672 -3.57788 0
M  V30 28306 O 2692.39 -1.85584 -3.9685 0
M  V30 28307 C 2693.89 -0.112715 -4.43157 0
M  V30 28308 H 2691.11 -0.170184 -0.64906 0
M  V30 28309 H 2693.66 -1.11116 -1.71678 0
M  V30 28310 H 2691.81 0.122285 -3.87207 0
M  V30 28311 H 2692.23 -1.83014 -4.91535 0
M  V30 28312 H 2693.7 -0.228623 -5.51526 0
M  V30 28313 H 2694.18 0.943761 -4.2894 0
M  V30 28314 H 2694.78 -0.725522 -4.19066 0
M  V30 28315 N 2693.1 1.4662 -0.577957 0
M  V30 28316 C 2694.34 2.04299 -0.0643456 0
M  V30 28317 C 2694.7 1.44028 1.26964 0
M  V30 28318 O 2695.9 1.92878 1.8722 0
M  V30 28319 C 2694.17 3.574 0.00541306 0
M  V30 28320 S 2695.73 4.3636 0.462139 0
M  V30 28321 H 2692.55 0.71013 -0.0351698 0
M  V30 28322 H 2695.15 1.79724 -0.769382 0
M  V30 28323 H 2693.86 3.98784 -0.969493 0
M  V30 28324 H 2693.39 3.86504 0.733367 0
M  V30 28325 H 2695.4 4.65516 1.71783 0
M  V30 28326 N 2694.58 0.315484 1.5441 0
M  V30 28327 C 2695.54 -0.541381 2.22714 0
M  V30 28328 C 2696.54 -1.04993 1.21792 0
M  V30 28329 O 2697.73 -0.943641 1.46428 0
M  V30 28330 C 2694.86 -1.75111 2.92488 0
M  V30 28331 H 2696.05 0.0556036 2.99848 0
M  V30 28332 H 2693.61 0.0664727 1.56159 0
M  V30 28333 H 2694.34 -2.38754 2.1947 0
M  V30 28334 H 2694.13 -1.39395 3.66485 0
M  V30 28335 H 2695.62 -2.35953 3.44552 0
M  V30 28336 N 2696.05 -1.5754 0.0434891 0
M  V30 28337 C 2697.28 -1.97105 -0.645323 0
M  V30 28338 C 2697.7 -0.92055 -1.64035 0
M  V30 28339 O 2697.06 0.117048 -1.80922 0
M  V30 28340 C 2697.11 -3.35752 -1.31541 0
M  V30 28341 O 2696.21 -3.33133 -2.43097 0
M  V30 28342 H 2695.56 -0.642293 -0.168392 0
M  V30 28343 H 2698.09 -2.04306 0.109609 0
M  V30 28344 H 2698.1 -3.72307 -1.66888 0
M  V30 28345 H 2696.77 -4.11749 -0.586133 0
M  V30 28346 H 2695.35 -3.08314 -2.09755 0
M  V30 28347 N 2697.53 0.229818 -1.55915 0
M  V30 28348 C 2698.44 1.3059 -1.94894 0
M  V30 28349 C 2699.46 1.51734 -0.851631 0
M  V30 28350 O 2700.63 1.65025 -1.1545 0
M  V30 28351 C 2697.7 2.63725 -2.25056 0
M  V30 28352 C 2696.76 2.50954 -3.48311 0
M  V30 28353 C 2695.99 3.7774 -3.77025 0
M  V30 28354 O 2696.22 4.80389 -3.07542 0
M  V30 28355 O 2695.15 3.75348 -4.70529 0
M  V30 28356 H 2698.98 1.0052 -2.86582 0
M  V30 28357 H 2696.56 0.432 -1.43018 0
M  V30 28358 H 2698.44 3.42367 -2.45688 0
M  V30 28359 H 2697.12 2.93492 -1.36543 0
M  V30 28360 H 2696.03 1.7054 -3.32967 0
M  V30 28361 H 2697.36 2.26128 -4.37181 0
M  V30 28362 N 2699.01 1.49585 0.49619 0
M  V30 28363 C 2700.24 1.62795 1.27206 0
M  V30 28364 C 2700.65 0.300509 1.86798 0
M  V30 28365 O 2699.99 -0.724645 1.68803 0
M  V30 28366 C 2700.05 2.64194 2.43807 0
M  V30 28367 C 2699.72 4.08417 2.05047 0
M  V30 28368 C 2700.71 4.95072 1.58743 0
M  V30 28369 C 2698.4 4.54181 2.14535 0
M  V30 28370 C 2700.39 6.2553 1.22437 0
M  V30 28371 C 2698.08 5.8465 1.7784 0
M  V30 28372 C 2699.08 6.70149 1.31866 0
M  V30 28373 O 2698.77 7.98187 0.956694 0
M  V30 28374 H 2698.5 0.550853 0.391838 0
M  V30 28375 H 2701.05 1.9639 0.601677 0
M  V30 28376 H 2699.28 2.25789 3.13937 0
M  V30 28377 H 2700.97 2.66883 3.05824 0
M  V30 28378 H 2701.74 4.60942 1.50855 0
M  V30 28379 H 2697.62 3.87795 2.49271 0
M  V30 28380 H 2701.16 6.92219 0.864811 0
M  V30 28381 H 2697.06 6.18308 1.85379 0
M  V30 28382 H 2697.83 8.1124 1.08775 0
M  V30 28383 N 2700.49 -0.747586 1.3874 0
M  V30 28384 C 2701.72 -1.53684 1.38524 0
M  V30 28385 C 2702.13 -1.88785 -0.0234797 0
M  V30 28386 O 2701.49 -1.53208 -0.991635 0
M  V30 28387 C 2701.54 -2.83225 2.24646 0
M  V30 28388 O 2701.26 -2.49619 3.60031 0
M  V30 28389 C 2702.76 -3.77329 2.32675 0
M  V30 28390 H 2699.98 -0.475338 0.473597 0
M  V30 28391 H 2702.53 -0.924754 1.82397 0
M  V30 28392 H 2700.68 -3.40796 1.84219 0
M  V30 28393 H 2701.09 -3.32743 4.05441 0
M  V30 28394 H 2702.57 -4.65157 2.97209 0
M  V30 28395 H 2703.05 -4.18189 1.34217 0
M  V30 28396 H 2703.65 -3.25681 2.73518 0
M  V30 28397 N 2701.97 -1.23709 -0.97642 0
M  V30 28398 C 2703.21 -1.06945 -1.71485 0
M  V30 28399 C 2703.54 0.393863 -1.90981 0
M  V30 28400 O 2702.81 1.28196 -1.48131 0
M  V30 28401 H 2701.39 -0.39275 -0.635418 0
M  V30 28402 H 2704.05 -1.55489 -1.17512 0
M  V30 28403 H 2703.14 -1.56056 -2.70283 0
M  V30 28404 N 2703.44 1.17579 -1.04943 0
M  V30 28405 C 2704.39 2.23562 -0.642079 0
M  V30 28406 C 2705.39 1.66046 0.335423 0
M  V30 28407 O 2706.59 1.78866 0.201758 0
M  V30 28408 H 2702.97 0.727744 -0.189453 0
M  V30 28409 H 2704.94 2.5522 -1.54613 0
M  V30 28410 C 2703.69 3.47687 -0.0301662 0
M  V30 28411 H 2703.01 3.92248 -0.773408 0
M  V30 28412 H 2704.45 4.23442 0.217518 0
M  V30 28413 C 2702.91 3.1394 1.22244 0
M  V30 28414 O 2703.44 3.28486 2.31214 0
M  V30 28415 N 2701.65 2.68187 1.11912 0
M  V30 28416 H 2701.19 2.5655 0.232358 0
M  V30 28417 H 2701.15 2.45979 1.9581 0
M  V30 28418 N 2704.92 0.830104 1.33967 0
M  V30 28419 C 2706.15 0.434178 2.01986 0
M  V30 28420 C 2706.56 -0.966682 1.6264 0
M  V30 28421 O 2705.9 -1.6382 0.83118 0
M  V30 28422 C 2705.97 0.465081 3.56479 0
M  V30 28423 C 2705.63 1.82052 4.19173 0
M  V30 28424 C 2706.63 2.78245 4.39176 0
M  V30 28425 C 2704.31 2.11097 4.55789 0
M  V30 28426 C 2706.31 4.01651 4.9493 0
M  V30 28427 C 2703.99 3.34761 5.11252 0
M  V30 28428 C 2704.99 4.29854 5.30767 0
M  V30 28429 O 2704.68 5.51332 5.85054 0
M  V30 28430 H 2704.41 0.171651 0.653844 0
M  V30 28431 H 2706.96 1.12174 1.72064 0
M  V30 28432 H 2705.19 -0.279216 3.85691 0
M  V30 28433 H 2706.88 0.0882048 4.05804 0
M  V30 28434 H 2707.65 2.57104 4.11245 0
M  V30 28435 H 2703.53 1.37878 4.39899 0
M  V30 28436 H 2707.07 4.75885 5.10078 0
M  V30 28437 H 2702.97 3.55762 5.38613 0
M  V30 28438 H 2703.74 5.52951 6.0348 0
M  V30 28439 N 2706.4 -1.46311 0.585725 0
M  V30 28440 C 2707.33 -2.28463 -0.183647 0
M  V30 28441 C 2708.35 -1.38688 -0.852615 0
M  V30 28442 O 2709.54 -1.63261 -0.721672 0
M  V30 28443 C 2706.64 -3.1381 -1.27971 0
M  V30 28444 C 2705.81 -4.31728 -0.702088 0
M  V30 28445 C 2704.87 -4.9845 -1.68624 0
M  V30 28446 O 2703.89 -5.55947 -1.22111 0
M  V30 28447 N 2705.1 -4.95735 -3.02039 0
M  V30 28448 H 2707.86 -2.95134 0.521178 0
M  V30 28449 H 2705.42 -1.56257 0.423701 0
M  V30 28450 H 2707.41 -3.55311 -1.93743 0
M  V30 28451 H 2705.98 -2.49194 -1.88736 0
M  V30 28452 H 2705.2 -3.93975 0.13317 0
M  V30 28453 H 2706.49 -5.07938 -0.296012 0
M  V30 28454 H 2705.89 -4.50272 -3.42449 0
M  V30 28455 H 2704.45 -5.41167 -3.63292 0
M  V30 28456 N 2707.88 -0.323668 -1.54241 0
M  V30 28457 C 2709.12 0.279467 -2.0248 0
M  V30 28458 C 2709.48 1.49337 -1.20675 0
M  V30 28459 O 2710.68 2.16938 -1.58718 0
M  V30 28460 C 2708.96 0.605204 -3.52239 0
M  V30 28461 S 2710.51 1.18798 -4.22413 0
M  V30 28462 H 2707.33 0.0845189 -0.705959 0
M  V30 28463 H 2709.93 -0.456814 -1.90088 0
M  V30 28464 H 2708.64 -0.286411 -4.09399 0
M  V30 28465 H 2708.17 1.37168 -3.68712 0
M  V30 28466 H 2710.18 2.47479 -4.3008 0
M  V30 28467 N 2709.36 1.57515 -0.0518432 0
M  V30 28468 C 2710.61 1.92337 0.620561 0
M  V30 28469 C 2710.93 0.930937 1.71343 0
M  V30 28470 O 2710.2 -0.0240996 1.95885 0
M  V30 28471 H 2708.78 0.70999 0.232213 0
M  V30 28472 H 2711.44 1.94617 -0.105003 0
M  V30 28473 H 2710.53 2.93594 1.05874 0
M  V30 28474 N 2710.84 -0.221546 1.56035 0
M  V30 28475 C 2711.79 -1.27804 1.88812 0
M  V30 28476 C 2712.77 -1.42288 0.751202 0
M  V30 28477 O 2713.96 -1.45103 1.01362 0
M  V30 28478 C 2711.09 -2.62846 2.20833 0
M  V30 28479 C 2710.18 -2.52263 3.40916 0
M  V30 28480 N 2710.57 -2.11332 4.59535 0
M  V30 28481 C 2708.87 -2.83222 3.44531 0
M  V30 28482 C 2709.57 -2.12001 5.41692 0
M  V30 28483 N 2708.54 -2.52489 4.81405 0
M  V30 28484 H 2712.34 -0.95248 2.78038 0
M  V30 28485 H 2709.86 -0.430107 1.56601 0
M  V30 28486 H 2711.86 -3.39123 2.42489 0
M  V30 28487 H 2710.52 -2.96247 1.3292 0
M  V30 28488 H 2711.53 -1.82463 4.84693 0
M  V30 28489 H 2708.2 -3.20995 2.66961 0
M  V30 28490 H 2709.59 -1.8248 6.46646 0
M  V30 28491 N 2712.31 -1.49846 -0.48825 0
M  V30 28492 C 2713.54 -1.63467 -1.26341 0
M  V30 28493 C 2713.95 -0.310411 -1.86636 0
M  V30 28494 O 2713.29 0.715682 -1.69185 0
M  V30 28495 C 2713.36 -2.65483 -2.42403 0
M  V30 28496 C 2713.02 -4.09499 -2.02879 0
M  V30 28497 C 2714.02 -4.95907 -1.56115 0
M  V30 28498 C 2711.7 -4.55312 -2.12123 0
M  V30 28499 C 2713.7 -6.26171 -1.19118 0
M  V30 28500 C 2711.38 -5.85585 -1.74737 0
M  V30 28501 C 2712.38 -6.70839 -1.2831 0
M  V30 28502 O 2712.07 -7.98683 -0.91435 0
M  V30 28503 H 2711.8 -0.552923 -0.388911 0
M  V30 28504 H 2714.36 -1.96706 -0.591254 0
M  V30 28505 H 2712.59 -2.2745 -3.12735 0
M  V30 28506 H 2714.27 -2.68501 -3.04405 0
M  V30 28507 H 2715.04 -4.61736 -1.48409 0
M  V30 28508 H 2710.92 -3.89112 -2.4721 0
M  V30 28509 H 2714.46 -6.92668 -0.828089 0
M  V30 28510 H 2710.36 -6.19282 -1.82098 0
M  V30 28511 H 2711.13 -8.11805 -1.04471 0
M  V30 28512 N 2713.79 0.740218 -1.39135 0
M  V30 28513 C 2714.74 1.85417 -1.37437 0
M  V30 28514 C 2715.71 1.64431 -0.234851 0
M  V30 28515 O 2716.89 1.85911 -0.429158 0
M  V30 28516 C 2714.03 3.22873 -1.2185 0
M  V30 28517 C 2713.15 3.55599 -2.45302 0
M  V30 28518 C 2712.28 4.82428 -2.22343 0
M  V30 28519 C 2711.32 5.07982 -3.41497 0
M  V30 28520 N 2710.46 6.26012 -3.17888 0
M  V30 28521 H 2715.3 1.86203 -2.32664 0
M  V30 28522 H 2712.83 0.909926 -1.1558 0
M  V30 28523 H 2714.79 4.02211 -1.10825 0
M  V30 28524 H 2713.42 3.21379 -0.302557 0
M  V30 28525 H 2712.47 2.71002 -2.6695 0
M  V30 28526 H 2713.79 3.70404 -3.34069 0
M  V30 28527 H 2712.94 5.69737 -2.0853 0
M  V30 28528 H 2711.68 4.69787 -1.30962 0
M  V30 28529 H 2710.68 4.19138 -3.55814 0
M  V30 28530 H 2711.91 5.22512 -4.33772 0
M  V30 28531 H 2709.86 6.14669 -2.29167 0
M  V30 28532 H 2709.77 6.4138 -4.00209 0
M  V30 28533 H 2711.04 7.16174 -3.07758 0
M  V30 28534 N 2715.27 1.24225 0.969846 0
M  V30 28535 C 2716.22 0.999768 2.04911 0
M  V30 28536 C 2717.2 -0.0580353 1.60795 0
M  V30 28537 O 2718.4 0.155423 1.76316 0
M  V30 28538 C 2715.52 0.604213 3.37941 0
M  V30 28539 C 2714.61 1.69798 3.88625 0
M  V30 28540 N 2715 2.93032 4.12269 0
M  V30 28541 C 2713.3 1.575 4.17265 0
M  V30 28542 C 2714 3.63922 4.53802 0
M  V30 28543 N 2712.98 2.91476 4.5885 0
M  V30 28544 H 2716.78 1.93555 2.21164 0
M  V30 28545 H 2714.29 1.14319 1.15347 0
M  V30 28546 H 2716.29 0.411738 4.14862 0
M  V30 28547 H 2714.95 -0.324408 3.23075 0
M  V30 28548 H 2715.96 3.29232 3.99783 0
M  V30 28549 H 2712.64 0.714248 4.11345 0
M  V30 28550 H 2714.03 4.69622 4.80526 0
M  V30 28551 N 2716.75 -1.1702 1.05565 0
M  V30 28552 C 2718 -1.86709 0.763069 0
M  V30 28553 C 2718.31 -1.82149 -0.712825 0
M  V30 28554 O 2719.52 -2.47345 -1.1195 0
M  V30 28555 C 2717.97 -3.35024 1.3148 0
M  V30 28556 C 2717.58 -3.48077 2.8204 0
M  V30 28557 C 2719.32 -4.10016 1.09942 0
M  V30 28558 C 2717.23 -4.90436 3.30495 0
M  V30 28559 H 2716.16 -0.699377 0.281759 0
M  V30 28560 H 2718.81 -1.32122 1.27342 0
M  V30 28561 H 2717.19 -3.89171 0.73224 0
M  V30 28562 H 2718.37 -3.04127 3.46184 0
M  V30 28563 H 2716.68 -2.8651 3.02161 0
M  V30 28564 H 2719.28 -5.15045 1.43641 0
M  V30 28565 H 2719.62 -4.16283 0.0373804 0
M  V30 28566 H 2720.16 -3.62086 1.64738 0
M  V30 28567 H 2716.89 -4.89344 4.36145 0
M  V30 28568 H 2716.41 -5.3504 2.71095 0
M  V30 28569 H 2718.09 -5.59222 3.25392 0
M  V30 28570 N 2718.23 -0.837197 -1.33524 0
M  V30 28571 C 2719.45 -0.44553 -2.02046 0
M  V30 28572 C 2719.87 0.952759 -1.62997 0
M  V30 28573 O 2719.23 1.61891 -0.842475 0
M  V30 28574 C 2719.28 -0.554639 -3.5722 0
M  V30 28575 O 2719 -1.89783 -3.94859 0
M  V30 28576 C 2720.5 -0.159711 -4.43012 0
M  V30 28577 H 2717.72 -0.177059 -0.647218 0
M  V30 28578 H 2720.26 -1.12931 -1.7049 0
M  V30 28579 H 2718.42 0.08121 -3.87315 0
M  V30 28580 H 2718.83 -1.88217 -4.89566 0
M  V30 28581 H 2720.31 -0.287107 -5.51253 0
M  V30 28582 H 2720.78 0.898213 -4.29917 0
M  V30 28583 H 2721.39 -0.769929 -4.18273 0
M  V30 28584 N 2719.7 1.45999 -0.593476 0
M  V30 28585 C 2720.93 2.07216 -0.087273 0
M  V30 28586 C 2721.35 1.43757 1.21308 0
M  V30 28587 O 2720.71 0.525183 1.73527 0
M  V30 28588 C 2720.76 3.6056 0.0537564 0
M  V30 28589 O 2719.86 3.97249 1.10758 0
M  V30 28590 H 2719.2 0.660543 -0.0676714 0
M  V30 28591 H 2721.73 1.87472 -0.819478 0
M  V30 28592 H 2721.74 4.07193 0.256496 0
M  V30 28593 H 2720.42 4.06138 -0.89581 0
M  V30 28594 H 2719 3.62309 0.882437 0
M  V30 28595 N 2721.18 0.331843 1.54067 0
M  V30 28596 C 2722.13 -0.530332 2.24624 0
M  V30 28597 C 2723.1 -1.10501 1.24011 0
M  V30 28598 O 2724.28 -1.14381 1.52714 0
M  V30 28599 C 2721.42 -1.68124 3.01377 0
M  V30 28600 C 2720.54 -1.135 4.16823 0
M  V30 28601 C 2719.67 -2.25226 4.81089 0
M  V30 28602 C 2718.71 -1.67893 5.88624 0
M  V30 28603 N 2717.85 -2.73315 6.46717 0
M  V30 28604 H 2722.69 0.077913 2.97898 0
M  V30 28605 H 2720.23 0.0502224 1.47014 0
M  V30 28606 H 2722.18 -2.35862 3.44129 0
M  V30 28607 H 2720.81 -2.26065 2.30423 0
M  V30 28608 H 2719.87 -0.348913 3.78796 0
M  V30 28609 H 2721.18 -0.675546 4.94204 0
M  V30 28610 H 2720.33 -3.00852 5.26852 0
M  V30 28611 H 2719.07 -2.74511 4.03107 0
M  V30 28612 H 2718.08 -0.907678 5.42256 0
M  V30 28613 H 2719.3 -1.19475 6.68508 0
M  V30 28614 H 2717.25 -3.21876 5.71605 0
M  V30 28615 H 2717.16 -2.31957 7.19536 0
M  V30 28616 H 2718.43 -3.48745 6.97135 0
M  V30 28617 N 2722.66 -1.57485 0.0601958 0
M  V30 28618 C 2723.57 -2.15548 -0.926083 0
M  V30 28619 C 2724.59 -1.11561 -1.3353 0
M  V30 28620 O 2725.76 -1.43772 -1.41037 0
M  V30 28621 C 2722.83 -2.69629 -2.17947 0
M  V30 28622 C 2721.89 -3.88447 -1.82776 0
M  V30 28623 C 2721.12 -4.3994 -3.0214 0
M  V30 28624 O 2721.34 -3.90473 -4.15796 0
M  V30 28625 O 2720.28 -5.31417 -2.8263 0
M  V30 28626 H 2724.1 -3.00162 -0.462236 0
M  V30 28627 H 2721.69 -1.48517 -0.16222 0
M  V30 28628 H 2723.57 -3.04342 -2.91469 0
M  V30 28629 H 2722.25 -1.88081 -2.63452 0
M  V30 28630 H 2721.15 -3.58608 -1.06543 0
M  V30 28631 H 2722.49 -4.71252 -1.42064 0
M  V30 28632 N 2724.14 0.213268 -1.5615 0
M  V30 28633 C 2725.37 0.953106 -1.8364 0
M  V30 28634 C 2725.78 1.77607 -0.640393 0
M  V30 28635 O 2725.14 1.78261 0.39104 0
M  V30 28636 C 2725.19 1.86399 -3.09738 0
M  V30 28637 O 2724.91 1.07428 -4.24725 0
M  V30 28638 C 2726.41 2.71703 -3.50274 0
M  V30 28639 H 2723.63 0.278951 -0.610268 0
M  V30 28640 H 2726.18 0.225999 -2.03247 0
M  V30 28641 H 2724.33 2.54495 -2.92081 0
M  V30 28642 H 2724.74 1.69335 -4.96413 0
M  V30 28643 H 2726.22 3.31305 -4.41521 0
M  V30 28644 H 2726.7 3.44511 -2.72412 0
M  V30 28645 H 2727.3 2.09008 -3.70399 0
M  V30 28646 N 2725.62 1.50103 0.480296 0
M  V30 28647 C 2726.55 1.71218 1.58766 0
M  V30 28648 C 2727.53 0.561025 1.60582 0
M  V30 28649 O 2728.71 0.799158 1.76995 0
M  V30 28650 C 2725.84 1.79783 2.97145 0
M  V30 28651 C 2724.8 2.94894 3.10196 0
M  V30 28652 C 2724.12 2.88592 4.50132 0
M  V30 28653 C 2725.42 4.35539 2.88276 0
M  V30 28654 H 2727.12 2.63933 1.4135 0
M  V30 28655 H 2724.66 1.2701 0.678569 0
M  V30 28656 H 2726.62 1.9314 3.74533 0
M  V30 28657 H 2725.34 0.836827 3.15697 0
M  V30 28658 H 2724 2.81173 2.35239 0
M  V30 28659 H 2723.65 1.90357 4.65589 0
M  V30 28660 H 2723.35 3.65864 4.59801 0
M  V30 28661 H 2724.87 3.03985 5.29552 0
M  V30 28662 H 2726.28 4.49834 3.55419 0
M  V30 28663 H 2724.68 5.14191 3.09399 0
M  V30 28664 H 2725.75 4.48547 1.84211 0
M  V30 28665 N 2727.09 -0.732829 1.39526 0
M  V30 28666 C 2728.32 -1.51985 1.39943 0
M  V30 28667 C 2728.73 -1.89199 -0.00724648 0
M  V30 28668 O 2728.08 -1.54773 -0.989494 0
M  V30 28669 C 2728.14 -2.83523 2.21031 0
M  V30 28670 C 2727.8 -2.68732 3.69638 0
M  V30 28671 C 2728.8 -2.37135 4.62669 0
M  V30 28672 C 2726.48 -2.85535 4.1325 0
M  V30 28673 C 2728.48 -2.22526 5.97295 0
M  V30 28674 C 2726.16 -2.70544 5.4795 0
M  V30 28675 C 2727.16 -2.39085 6.39787 0
M  V30 28676 O 2726.85 -2.24191 7.72006 0
M  V30 28677 H 2726.58 -0.476198 0.479804 0
M  V30 28678 H 2729.14 -0.913022 1.83992 0
M  V30 28679 H 2727.37 -3.46474 1.71734 0
M  V30 28680 H 2729.06 -3.45152 2.136 0
M  V30 28681 H 2729.82 -2.23802 4.30276 0
M  V30 28682 H 2725.7 -3.09013 3.42099 0
M  V30 28683 H 2729.24 -1.97893 6.68943 0
M  V30 28684 H 2725.14 -2.83456 5.79933 0
M  V30 28685 H 2725.91 -2.39244 7.82754 0
M  V30 28686 N 2728.57 -1.24737 -0.963244 0
M  V30 28687 C 2729.81 -1.10168 -1.7217 0
M  V30 28688 C 2730.18 0.35275 -1.88732 0
M  V30 28689 O 2731.38 0.620061 -2.61551 0
M  V30 28690 C 2729.65 -1.82594 -3.07236 0
M  V30 28691 S 2731.21 -1.8381 -3.98446 0
M  V30 28692 H 2728.03 -0.393932 -0.591894 0
M  V30 28693 H 2730.63 -1.58134 -1.14952 0
M  V30 28694 H 2729.33 -2.87523 -2.92846 0
M  V30 28695 H 2728.86 -1.3498 -3.69519 0
M  V30 28696 H 2730.88 -0.908969 -4.87803 0
M  V30 28697 N 2730.05 1.16459 -1.06184 0
M  V30 28698 C 2731.3 1.86301 -0.77296 0
M  V30 28699 C 2731.61 1.82524 0.703155 0
M  V30 28700 O 2732.82 2.47935 1.10637 0
M  V30 28701 C 2731.27 3.34322 -1.33254 0
M  V30 28702 C 2730.88 3.46576 -2.83882 0
M  V30 28703 C 2732.63 4.09427 -1.12115 0
M  V30 28704 C 2730.53 4.88676 -3.33091 0
M  V30 28705 H 2729.46 0.697873 -0.285464 0
M  V30 28706 H 2732.11 1.31445 -1.28041 0
M  V30 28707 H 2730.5 3.88777 -0.752868 0
M  V30 28708 H 2731.67 3.02287 -3.47792 0
M  V30 28709 H 2729.99 2.84903 -3.03676 0
M  V30 28710 H 2732.58 5.14276 -1.4637 0
M  V30 28711 H 2732.93 4.16258 -0.0594564 0
M  V30 28712 H 2733.46 3.61207 -1.66656 0
M  V30 28713 H 2730.2 4.87024 -4.38734 0
M  V30 28714 H 2729.72 5.33594 -2.73929 0
M  V30 28715 H 2731.4 5.57488 -3.28353 0
M  V30 28716 N 2731.53 0.844266 1.33079 0
M  V30 28717 C 2732.81 0.364295 1.92178 0
M  V30 28718 C 2733.19 -1.15098 1.76963 0
M  V30 28719 O 2732.53 -1.96788 1.16132 0
M  V30 28720 C 2732.74 0.817166 3.39298 0
M  V30 28721 C 2734.09 0.828309 4.16442 0
M  V30 28722 O 2735.12 0.761123 3.47973 0
M  V30 28723 O 2733.97 0.921021 5.38683 0
M  V30 28724 H 2731.07 0.104205 0.820409 0
M  V30 28725 H 2733.61 0.930478 1.41916 0
M  V30 28726 H 2732.39 1.85997 3.44269 0
M  V30 28727 H 2732.01 0.227855 3.96947 0
M  V30 28728 N 2733.01 -1.45682 0.60121 0
M  V30 28729 C 2734.25 -2.01883 0.0937311 0
M  V30 28730 C 2734.58 -1.47294 -1.27787 0
M  V30 28731 O 2733.85 -0.664724 -1.84278 0
M  V30 28732 H 2732.43 -0.746329 0.0316598 0
M  V30 28733 H 2735.09 -1.7856 0.781169 0
M  V30 28734 H 2734.18 -3.12076 0.0386845 0
M  V30 28735 N 2734.48 -0.340009 -1.53889 0
M  V30 28736 C 2735.45 0.505881 -2.23548 0
M  V30 28737 C 2736.45 1.03042 -1.23447 0
M  V30 28738 O 2737.64 0.920227 -1.4791 0
M  V30 28739 C 2734.77 1.70435 -2.95237 0
M  V30 28740 H 2735.96 -0.1033 -2.99722 0
M  V30 28741 H 2733.52 -0.0913078 -1.56033 0
M  V30 28742 H 2734.25 2.35232 -2.2324 0
M  V30 28743 H 2734.04 1.33547 -3.68657 0
M  V30 28744 H 2735.53 2.30441 -3.48262 0
M  V30 28745 N 2735.96 1.57451 -0.0685468 0
M  V30 28746 C 2736.89 2.15565 0.897432 0
M  V30 28747 C 2737.87 1.08184 1.31264 0
M  V30 28748 O 2739.06 1.36204 1.38427 0
M  V30 28749 C 2736.19 2.71466 2.16618 0
M  V30 28750 C 2735.14 3.83986 1.89047 0
M  V30 28751 C 2734.47 4.26476 3.22525 0
M  V30 28752 C 2735.77 5.08368 1.19831 0
M  V30 28753 H 2737.46 2.96533 0.413321 0
M  V30 28754 H 2735.01 1.42641 0.197365 0
M  V30 28755 H 2736.96 3.10766 2.84609 0
M  V30 28756 H 2735.69 1.87715 2.67265 0
M  V30 28757 H 2734.35 3.45185 1.23463 0
M  V30 28758 H 2733.99 3.39651 3.71007 0
M  V30 28759 H 2733.69 5.02323 3.0487 0
M  V30 28760 H 2735.22 4.6839 3.91719 0
M  V30 28761 H 2736.63 5.45004 1.77886 0
M  V30 28762 H 2735.03 5.89471 1.12445 0
M  V30 28763 H 2736.1 4.84577 0.176911 0
M  V30 28764 N 2737.44 -0.204984 1.56261 0
M  V30 28765 C 2738.37 -1.25696 1.96781 0
M  V30 28766 C 2739.35 -1.48007 0.838335 0
M  V30 28767 O 2740.54 -1.59911 1.10192 0
M  V30 28768 C 2737.67 -2.60331 2.2988 0
M  V30 28769 C 2736.62 -2.5265 3.45473 0
M  V30 28770 C 2735.95 -3.91467 3.64222 0
M  V30 28771 C 2737.25 -2.06005 4.79957 0
M  V30 28772 H 2738.94 -0.920288 2.84905 0
M  V30 28773 H 2736.49 -0.441253 1.37073 0
M  V30 28774 H 2738.44 -3.34098 2.5682 0
M  V30 28775 H 2737.16 -2.9572 1.38627 0
M  V30 28776 H 2735.82 -1.8134 3.18609 0
M  V30 28777 H 2735.47 -4.24191 2.70316 0
M  V30 28778 H 2735.17 -3.87205 4.4198 0
M  V30 28779 H 2736.7 -4.66871 3.93528 0
M  V30 28780 H 2738.11 -2.69524 5.05994 0
M  V30 28781 H 2736.51 -2.12767 5.61115 0
M  V30 28782 H 2737.58 -1.01289 4.74203 0
M  V30 28783 N 2738.92 -1.50356 -0.472329 0
M  V30 28784 C 2740.15 -1.65037 -1.24781 0
M  V30 28785 C 2740.56 -0.333209 -1.85836 0
M  V30 28786 O 2739.92 0.68469 -1.69169 0
M  V30 28787 C 2739.97 -2.74058 -2.35742 0
M  V30 28788 O 2739.69 -4.00668 -1.7719 0
M  V30 28789 C 2741.19 -2.99702 -3.2664 0
M  V30 28790 H 2738.41 -0.554791 -0.377423 0
M  V30 28791 H 2740.96 -1.96571 -0.563928 0
M  V30 28792 H 2739.11 -2.45223 -2.99908 0
M  V30 28793 H 2739.53 -4.60949 -2.50252 0
M  V30 28794 H 2741 -3.79651 -4.00711 0
M  V30 28795 H 2741.48 -2.10724 -3.85346 0
M  V30 28796 H 2742.08 -3.30064 -2.68212 0
M  V30 28797 N 2740.4 0.725419 -1.39912 0
M  V30 28798 C 2741.34 1.83949 -1.39396 0
M  V30 28799 C 2742.31 1.64173 -0.252278 0
M  V30 28800 O 2743.5 1.85445 -0.448852 0
M  V30 28801 C 2740.64 3.21562 -1.25267 0
M  V30 28802 C 2739.75 3.52977 -2.4906 0
M  V30 28803 C 2738.89 4.80043 -2.27447 0
M  V30 28804 C 2737.93 5.04332 -3.46866 0
M  V30 28805 N 2737.06 6.22606 -3.2451 0
M  V30 28806 H 2741.9 1.83725 -2.34626 0
M  V30 28807 H 2739.44 0.897616 -1.16539 0
M  V30 28808 H 2741.4 4.01013 -1.15084 0
M  V30 28809 H 2740.03 3.2104 -0.336626 0
M  V30 28810 H 2739.08 2.68155 -2.69809 0
M  V30 28811 H 2740.39 3.6684 -3.37979 0
M  V30 28812 H 2739.55 5.67493 -2.14561 0
M  V30 28813 H 2738.29 4.68372 -1.35937 0
M  V30 28814 H 2737.29 4.1534 -3.6024 0
M  V30 28815 H 2738.52 5.17882 -4.3929 0
M  V30 28816 H 2736.46 6.12204 -2.35674 0
M  V30 28817 H 2736.38 6.37099 -4.0699 0
M  V30 28818 H 2737.65 7.12869 -3.15337 0
M  V30 28819 N 2741.88 1.25246 0.956615 0
M  V30 28820 C 2743.1 1.12709 1.74102 0
M  V30 28821 C 2743.53 -0.315396 1.85437 0
M  V30 28822 O 2742.88 -1.22846 1.33337 0
M  V30 28823 C 2742.93 1.78401 3.13377 0
M  V30 28824 O 2742.04 1.06231 3.98483 0
M  V30 28825 H 2741.38 0.393618 0.534753 0
M  V30 28826 H 2743.91 1.65771 1.19921 0
M  V30 28827 H 2743.92 1.84606 3.63847 0
M  V30 28828 H 2742.59 2.8335 3.04443 0
M  V30 28829 H 2741.17 1.07892 3.56951 0
M  V30 28830 N 2743.35 -1.15894 1.068 0
M  V30 28831 C 2744.58 -1.90981 0.808773 0
M  V30 28832 C 2745 -1.7718 -0.631568 0
M  V30 28833 O 2744.36 -1.10064 -1.44068 0
M  V30 28834 C 2744.41 -3.39524 1.21474 0
M  V30 28835 O 2743.51 -4.10855 0.356634 0
M  V30 28836 H 2742.85 -0.594806 0.29513 0
M  V30 28837 H 2745.38 -1.46801 1.42515 0
M  V30 28838 H 2745.39 -3.90306 1.18851 0
M  V30 28839 H 2744.07 -3.48888 2.26385 0
M  V30 28840 H 2742.65 -3.70237 0.444874 0
M  V30 28841 N 2744.83 -0.851312 -1.32629 0
M  V30 28842 C 2745.74 -0.296309 -2.32721 0
M  V30 28843 C 2746.76 0.584134 -1.63902 0
M  V30 28844 O 2747.93 0.485299 -1.95466 0
M  V30 28845 C 2745 0.509043 -3.42943 0
M  V30 28846 C 2744.06 -0.397144 -4.27459 0
M  V30 28847 C 2743.29 0.369866 -5.32417 0
M  V30 28848 O 2743.52 1.60021 -5.47494 0
M  V30 28849 O 2742.45 -0.262599 -6.01327 0
M  V30 28850 H 2746.28 -1.12548 -2.82076 0
M  V30 28851 H 2743.86 -0.614159 -1.36193 0
M  V30 28852 H 2745.74 0.966268 -4.10172 0
M  V30 28853 H 2744.42 1.31507 -2.95783 0
M  V30 28854 H 2743.32 -0.902474 -3.63051 0
M  V30 28855 H 2744.66 -1.16826 -4.78134 0
M  V30 28856 N 2746.31 1.45361 -0.608928 0
M  V30 28857 C 2747.54 2.06302 -0.110888 0
M  V30 28858 C 2747.95 1.454 1.21059 0
M  V30 28859 O 2747.29 0.563007 1.7486 0
M  V30 28860 C 2747.35 3.59356 0.10173 0
M  V30 28861 C 2747.02 4.426 -1.13816 0
M  V30 28862 C 2748.01 4.77493 -2.05662 0
M  V30 28863 C 2745.7 4.83331 -1.36736 0
M  V30 28864 C 2747.69 5.51973 -3.18755 0
M  V30 28865 C 2745.38 5.57565 -2.5013 0
M  V30 28866 C 2746.38 5.91803 -3.40967 0
M  V30 28867 O 2746.07 6.6453 -4.52388 0
M  V30 28868 H 2745.8 0.67271 -0.0666119 0
M  V30 28869 H 2748.35 1.87574 -0.836974 0
M  V30 28870 H 2746.58 3.7649 0.882724 0
M  V30 28871 H 2748.27 4.02135 0.551536 0
M  V30 28872 H 2749.04 4.46583 -1.8918 0
M  V30 28873 H 2744.92 4.56116 -0.669296 0
M  V30 28874 H 2748.46 5.78615 -3.8968 0
M  V30 28875 H 2744.36 5.87889 -2.66564 0
M  V30 28876 H 2745.12 6.82981 -4.51087 0
M  V30 28877 N 2747.79 0.348166 1.53706 0
M  V30 28878 C 2748.73 -0.506478 2.25174 0
M  V30 28879 C 2749.7 -1.09179 1.25176 0
M  V30 28880 O 2750.89 -1.12755 1.53919 0
M  V30 28881 C 2748.03 -1.64918 3.03144 0
M  V30 28882 C 2747.14 -1.09073 4.18004 0
M  V30 28883 C 2746.28 -2.20111 4.83451 0
M  V30 28884 C 2745.32 -1.61641 5.90372 0
M  V30 28885 N 2744.45 -2.6644 6.4958 0
M  V30 28886 H 2749.29 0.109505 2.97799 0
M  V30 28887 H 2746.83 0.0658124 1.46953 0
M  V30 28888 H 2748.79 -2.32199 3.46612 0
M  V30 28889 H 2747.42 -2.23608 2.32807 0
M  V30 28890 H 2746.47 -0.308717 3.79145 0
M  V30 28891 H 2747.78 -0.623091 4.94893 0
M  V30 28892 H 2746.94 -2.95248 5.30013 0
M  V30 28893 H 2745.68 -2.7022 4.05996 0
M  V30 28894 H 2744.68 -0.850114 5.43188 0
M  V30 28895 H 2745.91 -1.12378 6.69737 0
M  V30 28896 H 2743.85 -3.15795 5.74987 0
M  V30 28897 H 2743.77 -2.24312 7.21956 0
M  V30 28898 H 2745.04 -3.41332 7.00795 0
M  V30 28899 N 2749.27 -1.57412 0.0768958 0
M  V30 28900 C 2750.51 -1.933 -0.589884 0
M  V30 28901 C 2750.83 -0.958079 -1.69841 0
M  V30 28902 O 2750.1 -0.00706705 -1.95899 0
M  V30 28903 H 2748.68 -0.713595 -0.220888 0
M  V30 28904 H 2751.35 -1.94425 0.135951 0
M  V30 28905 H 2750.44 -2.95241 -1.0119 0
M  V30 28906 N 2750.74 0.196695 -1.56368 0
M  V30 28907 C 2752.16 0.761515 -1.70464 0
M  V30 28908 C 2752.51 1.83921 -0.683193 0
M  V30 28909 O 2751.63 2.15802 0.160715 0
M  V30 28910 C 2752.23 1.38809 -3.09059 0
M  V30 28911 C 2750.79 1.90001 -3.24926 0
M  V30 28912 C 2749.93 0.769352 -2.66414 0
M  V30 28913 H 2752.88 -0.0283542 -1.58675 0
M  V30 28914 H 2752.9 2.25745 -3.063 0
M  V30 28915 H 2752.42 0.603491 -3.83379 0
M  V30 28916 H 2750.52 2.71184 -2.55519 0
M  V30 28917 H 2750.63 2.0629 -4.32413 0
M  V30 28918 H 2748.99 1.18322 -2.25548 0
M  V30 28919 H 2749.78 -0.00297808 -3.433 0
M  V30 28920 N 2752.22 1.50604 0.464349 0
M  V30 28921 C 2753.47 1.61169 1.21274 0
M  V30 28922 C 2753.78 0.320738 1.92952 0
M  V30 28923 O 2754.99 0.305388 2.69777 0
M  V30 28924 C 2753.45 2.84522 2.20398 0
M  V30 28925 C 2753.05 4.20519 1.54492 0
M  V30 28926 C 2754.8 3.04435 2.95837 0
M  V30 28927 C 2752.71 5.35051 2.51941 0
M  V30 28928 H 2751.64 0.600212 0.456356 0
M  V30 28929 H 2754.29 1.77043 0.482509 0
M  V30 28930 H 2752.67 2.62222 2.96742 0
M  V30 28931 H 2753.84 4.53099 0.83891 0
M  V30 28932 H 2752.16 4.06266 0.913081 0
M  V30 28933 H 2754.75 3.87173 3.68783 0
M  V30 28934 H 2755.1 2.16429 3.55618 0
M  V30 28935 H 2755.63 3.26948 2.26606 0
M  V30 28936 H 2752.37 6.25232 1.9689 0
M  V30 28937 H 2751.89 5.06881 3.20674 0
M  V30 28938 H 2753.57 5.65901 3.13633 0
M  V30 28939 N 2753.7 -0.717989 1.40295 0
M  V30 28940 C 2754.93 -1.50711 1.41753 0
M  V30 28941 C 2755.34 -1.88793 0.0165698 0
M  V30 28942 O 2754.7 -1.55277 -0.958915 0
M  V30 28943 C 2754.75 -2.78396 2.30603 0
M  V30 28944 O 2754.47 -2.41926 3.65244 0
M  V30 28945 C 2755.97 -3.72309 2.40627 0
M  V30 28946 H 2753.19 -0.465186 0.483573 0
M  V30 28947 H 2755.74 -0.885857 1.84317 0
M  V30 28948 H 2753.89 -3.36812 1.91407 0
M  V30 28949 H 2754.31 -3.24068 4.12408 0
M  V30 28950 H 2755.78 -4.58748 3.07009 0
M  V30 28951 H 2756.26 -4.15248 1.43058 0
M  V30 28952 H 2756.86 -3.19806 2.80365 0
M  V30 28953 N 2755.18 -1.25752 -0.94996 0
M  V30 28954 C 2756.46 -1.01542 -1.67178 0
M  V30 28955 C 2756.84 0.456906 -2.06096 0
M  V30 28956 O 2756.18 1.43531 -1.77795 0
M  V30 28957 C 2756.39 -1.95569 -2.89057 0
M  V30 28958 C 2757.74 -2.2368 -3.60905 0
M  V30 28959 O 2758.77 -1.93365 -2.99146 0
M  V30 28960 O 2757.62 -2.75251 -4.72122 0
M  V30 28961 H 2754.72 -0.385432 -0.731691 0
M  V30 28962 H 2757.26 -1.36926 -1.00247 0
M  V30 28963 H 2756.04 -2.94964 -2.57123 0
M  V30 28964 H 2755.66 -1.60611 -3.63717 0
M  V30 28965 N 2756.66 1.15326 -1.07413 0
M  V30 28966 C 2757.9 1.86403 -0.798863 0
M  V30 28967 C 2758.24 1.82151 0.673401 0
M  V30 28968 O 2757.51 1.24508 1.49426 0
M  V30 28969 C 2757.79 3.35484 -1.30852 0
M  V30 28970 C 2757.65 3.48365 -2.84538 0
M  V30 28971 C 2758.97 4.30257 -0.925562 0
M  V30 28972 H 2756.08 0.676829 -0.291671 0
M  V30 28973 H 2758.73 1.35489 -1.33202 0
M  V30 28974 H 2756.88 3.78975 -0.854983 0
M  V30 28975 H 2758.55 3.13733 -3.38185 0
M  V30 28976 H 2756.79 2.89904 -3.22704 0
M  V30 28977 H 2757.46 4.53112 -3.15267 0
M  V30 28978 H 2759.94 3.94729 -1.31637 0
M  V30 28979 H 2758.81 5.33051 -1.30949 0
M  V30 28980 H 2759.08 4.41779 0.168447 0
M  V30 28981 N 2758.13 0.858334 1.32176 0
M  V30 28982 C 2759.38 0.463518 1.97124 0
M  V30 28983 C 2759.71 -0.981675 1.67909 0
M  V30 28984 O 2758.96 -1.70437 0.961747 0
M  V30 28985 C 2759.26 0.65372 3.51371 0
M  V30 28986 C 2758.93 2.06994 4.0058 0
M  V30 28987 C 2757.59 2.45727 4.13729 0
M  V30 28988 C 2759.94 2.99409 4.26619 0
M  V30 28989 C 2757.27 3.7614 4.50262 0
M  V30 28990 C 2759.62 4.29324 4.64611 0
M  V30 28991 C 2758.29 4.67987 4.75966 0
M  V30 28992 H 2757.56 0.169613 0.721327 0
M  V30 28993 H 2760.2 1.08909 1.57515 0
M  V30 28994 H 2758.51 -0.0550639 3.91761 0
M  V30 28995 H 2760.21 0.328234 3.99654 0
M  V30 28996 H 2756.8 1.75918 3.90833 0
M  V30 28997 H 2760.98 2.70715 4.15965 0
M  V30 28998 H 2756.24 4.05873 4.57249 0
M  V30 28999 H 2760.41 5.00994 4.83713 0
M  V30 29000 H 2758.04 5.69084 5.04031 0
M  V30 29001 N 2759.61 -1.45036 0.616628 0
M  V30 29002 C 2760.84 -2.0624 0.121827 0
M  V30 29003 C 2761.25 -1.4604 -1.20287 0
M  V30 29004 O 2760.59 -0.572273 -1.74559 0
M  V30 29005 C 2760.66 -3.59405 -0.0826713 0
M  V30 29006 C 2760.32 -4.4199 1.16161 0
M  V30 29007 C 2761.32 -4.76395 2.08191 0
M  V30 29008 C 2759 -4.82599 1.39297 0
M  V30 29009 C 2761 -5.50275 3.21678 0
M  V30 29010 C 2758.68 -5.5623 2.53083 0
M  V30 29011 C 2759.68 -5.89986 3.44101 0
M  V30 29012 O 2759.37 -6.62122 4.55906 0
M  V30 29013 H 2759.1 -0.672347 0.0701785 0
M  V30 29014 H 2761.65 -1.87127 0.84691 0
M  V30 29015 H 2759.88 -3.76953 -0.862746 0
M  V30 29016 H 2761.57 -4.02422 -0.530202 0
M  V30 29017 H 2762.34 -4.45573 1.91546 0
M  V30 29018 H 2758.22 -4.55754 0.693476 0
M  V30 29019 H 2761.76 -5.7654 3.92743 0
M  V30 29020 H 2757.66 -5.86468 2.69678 0
M  V30 29021 H 2758.43 -6.80579 4.54702 0
M  V30 29022 N 2761.09 -0.356312 -1.53519 0
M  V30 29023 C 2762.04 0.49453 -2.2544 0
M  V30 29024 C 2763.01 1.08514 -1.25753 0
M  V30 29025 O 2764.19 1.11937 -1.54515 0
M  V30 29026 C 2761.33 1.63308 -3.04014 0
M  V30 29027 C 2760.45 1.06854 -4.18576 0
M  V30 29028 C 2759.58 2.17544 -4.84611 0
M  V30 29029 C 2758.62 1.58507 -5.91221 0
M  V30 29030 N 2757.76 2.62991 -6.50984 0
M  V30 29031 H 2762.6 -0.125296 -2.97736 0
M  V30 29032 H 2760.13 -0.0736047 -1.46916 0
M  V30 29033 H 2762.09 2.30357 -3.47838 0
M  V30 29034 H 2760.72 2.2237 -2.3399 0
M  V30 29035 H 2759.77 0.288605 -3.79304 0
M  V30 29036 H 2761.09 0.596837 -4.95216 0
M  V30 29037 H 2760.24 2.92433 -5.31571 0
M  V30 29038 H 2758.98 2.68063 -4.07423 0
M  V30 29039 H 2757.98 0.821295 -5.43631 0
M  V30 29040 H 2759.21 1.08824 -6.70324 0
M  V30 29041 H 2757.15 3.12741 -5.76653 0
M  V30 29042 H 2757.07 2.20481 -7.23135 0
M  V30 29043 H 2758.34 3.3761 -7.02595 0
M  V30 29044 N 2762.57 1.57369 -0.0852427 0
M  V30 29045 C 2763.48 2.16994 0.891674 0
M  V30 29046 C 2764.49 1.13671 1.31738 0
M  V30 29047 O 2765.67 1.45998 1.38732 0
M  V30 29048 C 2762.74 2.73062 2.1363 0
M  V30 29049 C 2761.8 3.91306 1.76573 0
M  V30 29050 C 2761.03 4.44691 2.95103 0
M  V30 29051 O 2761.25 3.97039 4.09532 0
M  V30 29052 O 2760.19 5.35846 2.7414 0
M  V30 29053 H 2764.01 3.00859 0.414424 0
M  V30 29054 H 2761.6 1.48756 0.138572 0
M  V30 29055 H 2763.48 3.0894 2.8659 0
M  V30 29056 H 2762.15 1.92249 2.60427 0
M  V30 29057 H 2761.06 3.60257 1.00824 0
M  V30 29058 H 2762.39 4.73453 1.34548 0
M  V30 29059 N 2764.05 -0.188399 1.5647 0
M  V30 29060 C 2764.99 -1.25289 1.95973 0
M  V30 29061 C 2765.99 -1.46758 0.846073 0
M  V30 29062 O 2767.19 -1.4754 1.03111 0
M  V30 29063 H 2763.57 -0.420773 0.623261 0
M  V30 29064 H 2765.54 -0.892742 2.84733 0
M  V30 29065 C 2764.29 -2.58873 2.32121 0
M  V30 29066 H 2763.61 -2.4317 3.17345 0
M  V30 29067 H 2765.05 -3.32086 2.63619 0
M  V30 29068 C 2763.51 -3.16363 1.15828 0
M  V30 29069 O 2764.04 -3.99318 0.436855 0
M  V30 29070 N 2762.25 -2.75204 0.933327 0
M  V30 29071 H 2761.79 -2.07849 1.52173 0
M  V30 29072 H 2761.75 -3.14008 0.157031 0
M  V30 29073 N 2765.53 -1.50848 -0.456355 0
M  V30 29074 C 2766.75 -1.6663 -1.23488 0
M  V30 29075 C 2767.18 -0.355287 -1.84714 0
M  V30 29076 O 2766.53 0.682529 -1.67962 0
M  V30 29077 C 2766.58 -2.77013 -2.3086 0
M  V30 29078 O 2765.69 -2.39291 -3.35877 0
M  V30 29079 H 2765.03 -0.55622 -0.36265 0
M  V30 29080 H 2767.56 -1.97309 -0.54134 0
M  V30 29081 H 2767.57 -3.00531 -2.75944 0
M  V30 29082 H 2766.24 -3.72155 -1.85671 0
M  V30 29083 H 2764.82 -2.26274 -2.96402 0
M  V30 29084 N 2767 0.710538 -1.40674 0
M  V30 29085 C 2768.23 1.4974 -1.42343 0
M  V30 29086 C 2768.64 1.89186 -0.0228543 0
M  V30 29087 O 2767.98 1.56328 0.964746 0
M  V30 29088 C 2768.05 2.79971 -2.25514 0
M  V30 29089 C 2767.71 2.62817 -3.73867 0
M  V30 29090 C 2768.71 2.29744 -4.66384 0
M  V30 29091 C 2766.39 2.78924 -4.1774 0
M  V30 29092 C 2768.39 2.12995 -6.00759 0
M  V30 29093 C 2766.07 2.61793 -5.52185 0
M  V30 29094 C 2767.07 2.28877 -6.43509 0
M  V30 29095 O 2766.76 2.1188 -7.75475 0
M  V30 29096 H 2766.49 0.468504 -0.487319 0
M  V30 29097 H 2769.05 0.883635 -1.85421 0
M  V30 29098 H 2767.28 3.43698 -1.77224 0
M  V30 29099 H 2768.96 3.4171 -2.19064 0
M  V30 29100 H 2769.73 2.16929 -4.33782 0
M  V30 29101 H 2765.61 3.03531 -3.46972 0
M  V30 29102 H 2769.15 1.87226 -6.72006 0
M  V30 29103 H 2765.05 2.74194 -5.8437 0
M  V30 29104 H 2765.82 2.26761 -7.86462 0
M  V30 29105 N 2768.48 1.26254 0.943277 0
M  V30 29106 C 2769.71 1.14446 1.72365 0
M  V30 29107 C 2770.12 -0.300539 1.86393 0
M  V30 29108 O 2769.48 -1.20593 1.3698 0
M  V30 29109 C 2769.53 1.80605 3.13152 0
M  V30 29110 O 2769.25 3.19458 2.99797 0
M  V30 29111 C 2770.75 1.74724 4.07414 0
M  V30 29112 H 2767.97 0.398636 0.539751 0
M  V30 29113 H 2770.52 1.66834 1.18265 0
M  V30 29114 H 2768.67 1.3216 3.6416 0
M  V30 29115 H 2769.09 3.52165 3.8869 0
M  V30 29116 H 2770.56 2.25656 5.03769 0
M  V30 29117 H 2771.04 0.71332 4.33369 0
M  V30 29118 H 2771.64 2.22711 3.62326 0
M  V30 29119 N 2769.96 -1.14755 1.08024 0
M  V30 29120 C 2771.19 -1.89571 0.828881 0
M  V30 29121 C 2771.6 -1.78379 -0.61859 0
M  V30 29122 O 2770.96 -1.14042 -1.4248 0
M  V30 29123 C 2771.01 -3.39683 1.23683 0
M  V30 29124 O 2770.73 -3.50561 2.62752 0
M  V30 29125 C 2772.23 -4.31506 1.01577 0
M  V30 29126 H 2769.45 -0.600597 0.299207 0
M  V30 29127 H 2772 -1.45354 1.43849 0
M  V30 29128 H 2770.15 -3.81537 0.671414 0
M  V30 29129 H 2770.57 -4.43773 2.79581 0
M  V30 29130 H 2772.04 -5.35221 1.35065 0
M  V30 29131 H 2772.52 -4.39174 -0.0474661 0
M  V30 29132 H 2773.12 -3.95402 1.56643 0
M  V30 29133 N 2771.44 -0.865331 -1.31719 0
M  V30 29134 C 2772.67 -0.488286 -2.01056 0
M  V30 29135 C 2773.08 0.917971 -1.64981 0
M  V30 29136 O 2772.44 1.60067 -0.876625 0
M  V30 29137 C 2772.49 -0.630286 -3.55963 0
M  V30 29138 O 2772.21 -1.98116 -3.90745 0
M  V30 29139 C 2773.71 -0.253645 -4.42574 0
M  V30 29140 H 2770.93 -0.190748 -0.643317 0
M  V30 29141 H 2773.47 -1.16522 -1.68056 0
M  V30 29142 H 2771.63 -0.000963517 -3.874 0
M  V30 29143 H 2772.04 -1.98559 -4.85463 0
M  V30 29144 H 2773.52 -0.403971 -5.5052 0
M  V30 29145 H 2773.99 0.806819 -4.31726 0
M  V30 29146 H 2774.6 -0.858478 -4.16546 0
M  V30 29147 N 2772.92 1.44707 -0.624311 0
M  V30 29148 C 2774.16 2.01321 -0.123575 0
M  V30 29149 C 2774.48 1.49642 1.25963 0
M  V30 29150 O 2775.68 1.9834 1.85401 0
M  V30 29151 C 2774.14 3.59497 -0.170187 0
M  V30 29152 C 2773.75 4.20174 -1.55429 0
M  V30 29153 C 2775.49 4.23612 0.274439 0
M  V30 29154 C 2773.4 5.70553 -1.55638 0
M  V30 29155 H 2772.33 0.752805 -0.0424316 0
M  V30 29156 H 2774.98 1.65998 -0.782105 0
M  V30 29157 H 2773.36 3.92087 0.555316 0
M  V30 29158 H 2774.54 3.99132 -2.30283 0
M  V30 29159 H 2772.85 3.68319 -1.94242 0
M  V30 29160 H 2775.45 5.339 0.292308 0
M  V30 29161 H 2775.79 3.95468 1.30043 0
M  V30 29162 H 2776.32 3.95801 -0.398345 0
M  V30 29163 H 2773.06 6.03422 -2.56051 0
M  V30 29164 H 2772.58 5.93737 -0.850668 0
M  V30 29165 H 2774.26 6.34064 -1.28732 0
M  V30 29166 N 2774.39 0.364449 1.53328 0
M  V30 29167 C 2775.34 -0.482567 2.25699 0
M  V30 29168 C 2776.31 -1.07846 1.26327 0
M  V30 29169 O 2777.5 -1.11116 1.55106 0
M  V30 29170 C 2774.64 -1.61694 3.04876 0
M  V30 29171 C 2773.75 -1.04633 4.19137 0
M  V30 29172 C 2772.88 -2.14971 4.85758 0
M  V30 29173 C 2771.92 -1.5537 5.92053 0
M  V30 29174 N 2771.06 -2.59535 6.52369 0
M  V30 29175 H 2775.9 0.141084 2.97666 0
M  V30 29176 H 2773.44 0.081395 1.46875 0
M  V30 29177 H 2775.39 -2.28509 3.49055 0
M  V30 29178 H 2774.02 -2.21126 2.35166 0
M  V30 29179 H 2773.08 -0.268486 3.79451 0
M  V30 29180 H 2774.39 -0.570566 4.95526 0
M  V30 29181 H 2773.54 -2.89609 5.33115 0
M  V30 29182 H 2772.28 -2.65899 4.08839 0
M  V30 29183 H 2771.29 -0.792453 5.44059 0
M  V30 29184 H 2772.51 -1.05268 6.70892 0
M  V30 29185 H 2770.46 -3.09679 5.78304 0
M  V30 29186 H 2770.37 -2.16642 7.24294 0
M  V30 29187 H 2771.64 -3.3388 7.04375 0
M  V30 29188 N 2775.87 -1.57322 0.0935872 0
M  V30 29189 C 2777.28 -1.81543 -0.435775 0
M  V30 29190 C 2777.63 -1.00909 -1.68261 0
M  V30 29191 O 2776.76 -0.238021 -2.15087 0
M  V30 29192 C 2777.35 -3.29283 -0.797378 0
M  V30 29193 C 2775.91 -3.54274 -1.27149 0
M  V30 29194 C 2775.06 -2.76008 -0.267407 0
M  V30 29195 H 2778.01 -1.5546 0.319048 0
M  V30 29196 H 2778.03 -3.42524 -1.65704 0
M  V30 29197 H 2777.54 -3.87943 0.110274 0
M  V30 29198 H 2775.64 -3.00943 -2.19691 0
M  V30 29199 H 2775.76 -4.62926 -1.23437 0
M  V30 29200 H 2774.12 -2.43431 -0.74924 0
M  V30 29201 H 2774.9 -3.37416 0.632898 0
M  V30 29202 N 2777.35 0.180099 -1.56568 0
M  V30 29203 C 2778.6 0.899465 -1.81762 0
M  V30 29204 C 2778.93 1.82275 -0.670048 0
M  V30 29205 O 2778.2 1.91705 0.328541 0
M  V30 29206 C 2778.49 1.70274 -3.17299 0
M  V30 29207 C 2778.34 0.803177 -4.42571 0
M  V30 29208 C 2779.66 2.67227 -3.49683 0
M  V30 29209 H 2776.78 0.325555 -0.661198 0
M  V30 29210 H 2779.42 0.166087 -1.89273 0
M  V30 29211 H 2777.57 2.32797 -3.11027 0
M  V30 29212 H 2779.24 0.191504 -4.60902 0
M  V30 29213 H 2777.48 0.11072 -4.33659 0
M  V30 29214 H 2778.16 1.40054 -5.33937 0
M  V30 29215 H 2780.63 2.14833 -3.56351 0
M  V30 29216 H 2779.51 3.20503 -4.45611 0
M  V30 29217 H 2779.77 3.47002 -2.73938 0
M  V30 29218 N 2778.83 1.51088 0.448349 0
M  V30 29219 C 2780.06 1.67002 1.2214 0
M  V30 29220 C 2780.47 0.362731 1.85283 0
M  V30 29221 O 2779.83 -0.65769 1.70237 0
M  V30 29222 C 2779.88 2.77774 2.31352 0
M  V30 29223 O 2779.6 4.03437 1.70794 0
M  V30 29224 C 2781.1 3.04861 3.2183 0
M  V30 29225 H 2778.32 0.560725 0.368549 0
M  V30 29226 H 2780.86 1.97443 0.532584 0
M  V30 29227 H 2779.02 2.49963 2.95969 0
M  V30 29228 H 2779.43 4.64872 2.42887 0
M  V30 29229 H 2780.91 3.85978 3.9462 0
M  V30 29230 H 2781.38 2.16828 3.81945 0
M  V30 29231 H 2781.99 3.3429 2.62927 0
M  V30 29232 N 2780.31 -0.703068 1.41049 0
M  V30 29233 C 2781.54 -1.48983 1.43135 0
M  V30 29234 C 2781.94 -1.89171 0.032887 0
M  V30 29235 O 2781.29 -1.56837 -0.956442 0
M  V30 29236 C 2781.35 -2.78771 2.26995 0
M  V30 29237 C 2781.01 -2.60831 3.75255 0
M  V30 29238 C 2782.01 -2.27268 4.67595 0
M  V30 29239 C 2779.7 -2.76705 4.19213 0
M  V30 29240 C 2781.69 -2.09806 6.0188 0
M  V30 29241 C 2779.38 -2.58861 5.53565 0
M  V30 29242 C 2780.37 -2.25461 6.44714 0
M  V30 29243 O 2780.06 -2.07765 7.76588 0
M  V30 29244 H 2779.79 -0.465913 0.489797 0
M  V30 29245 H 2782.35 -0.873789 1.85887 0
M  V30 29246 H 2780.58 -3.42754 1.79044 0
M  V30 29247 H 2782.27 -3.40544 2.20873 0
M  V30 29248 H 2783.03 -2.14625 4.34927 0
M  V30 29249 H 2778.91 -3.01687 3.48577 0
M  V30 29250 H 2782.46 -1.83659 6.7299 0
M  V30 29251 H 2778.35 -2.71091 5.85815 0
M  V30 29252 H 2779.12 -2.22587 7.87653 0
M  V30 29253 N 2781.78 -1.26752 -0.936569 0
M  V30 29254 C 2782.73 -1.0871 -2.03595 0
M  V30 29255 C 2783.7 0.00923623 -1.66097 0
M  V30 29256 O 2784.89 -0.151411 -1.90198 0
M  V30 29257 C 2782.03 -0.730999 -3.37269 0
M  V30 29258 C 2781.14 -1.90406 -3.87775 0
M  V30 29259 C 2780.27 -1.49065 -5.09856 0
M  V30 29260 C 2779.31 -2.63173 -5.52636 0
M  V30 29261 N 2778.45 -2.22482 -6.65917 0
M  V30 29262 H 2783.29 -2.02788 -2.1836 0
M  V30 29263 H 2780.83 -1.0096 -1.06984 0
M  V30 29264 H 2782.79 -0.505401 -4.14127 0
M  V30 29265 H 2781.42 0.172811 -3.22337 0
M  V30 29266 H 2780.47 -2.24246 -3.07275 0
M  V30 29267 H 2781.78 -2.76035 -4.15459 0
M  V30 29268 H 2780.93 -1.22577 -5.94188 0
M  V30 29269 H 2779.67 -0.605326 -4.83929 0
M  V30 29270 H 2778.68 -2.90386 -4.66858 0
M  V30 29271 H 2779.9 -3.52313 -5.80562 0
M  V30 29272 H 2777.85 -1.3639 -6.41665 0
M  V30 29273 H 2777.77 -3.01653 -6.93211 0
M  V30 29274 H 2779.03 -1.99218 -7.53613 0
M  V30 29275 N 2783.26 1.1418 -1.08631 0
M  V30 29276 C 2784.19 2.21462 -0.740042 0
M  V30 29277 C 2785.17 1.67804 0.278562 0
M  V30 29278 O 2786.36 1.93632 0.148427 0
M  V30 29279 C 2783.49 3.46972 -0.151013 0
M  V30 29280 C 2782.44 4.1367 -1.09822 0
M  V30 29281 C 2781.77 5.33409 -0.371294 0
M  V30 29282 C 2783.07 4.61945 -2.4373 0
M  V30 29283 H 2784.76 2.50683 -1.63701 0
M  V30 29284 H 2782.31 1.2049 -0.788547 0
M  V30 29285 H 2784.26 4.21273 0.103251 0
M  V30 29286 H 2782.99 3.17122 0.781108 0
M  V30 29287 H 2781.64 3.41326 -1.33762 0
M  V30 29288 H 2781.29 4.9982 0.564704 0
M  V30 29289 H 2780.99 5.7898 -1.00278 0
M  V30 29290 H 2782.52 6.10472 -0.125138 0
M  V30 29291 H 2783.93 5.2771 -2.24043 0
M  V30 29292 H 2782.33 5.18226 -3.02591 0
M  V30 29293 H 2783.4 3.76894 -3.05089 0
M  V30 29294 N 2784.74 0.872304 1.31258 0
M  V30 29295 C 2786.02 0.404977 1.91362 0
M  V30 29296 C 2786.4 -1.11318 1.79364 0
M  V30 29297 O 2785.75 -1.94281 1.2028 0
M  V30 29298 C 2785.96 0.888952 3.37489 0
M  V30 29299 C 2787.3 0.916456 4.14592 0
M  V30 29300 O 2788.33 0.834762 3.4628 0
M  V30 29301 O 2787.19 1.03508 5.36608 0
M  V30 29302 H 2784.28 0.121583 0.818014 0
M  V30 29303 H 2786.83 0.960371 1.39911 0
M  V30 29304 H 2785.6 1.93257 3.40246 0
M  V30 29305 H 2785.22 0.312002 3.96374 0
M  V30 29306 N 2786.22 -1.44374 0.631976 0
M  V30 29307 C 2787.47 -2.01638 0.136532 0
M  V30 29308 C 2787.79 -1.49971 -1.24634 0
M  V30 29309 O 2787.06 -0.703662 -1.82826 0
M  V30 29310 H 2785.64 -0.745489 0.0474834 0
M  V30 29311 H 2788.3 -1.76863 0.818868 0
M  V30 29312 H 2787.4 -3.11924 0.104872 0
M  V30 29313 N 2787.7 -0.372575 -1.53133 0
M  V30 29314 C 2788.94 0.215242 -2.01655 0
M  V30 29315 C 2789.28 1.47847 -1.25916 0
M  V30 29316 O 2788.55 1.91236 -0.354833 0
M  V30 29317 C 2788.83 0.500125 -3.5661 0
M  V30 29318 C 2788.69 -0.777223 -4.43034 0
M  V30 29319 C 2790.01 1.29779 -4.2053 0
M  V30 29320 H 2787.12 0.0767557 -0.732992 0
M  V30 29321 H 2789.77 -0.498846 -1.83334 0
M  V30 29322 H 2787.92 1.10845 -3.72351 0
M  V30 29323 H 2789.59 -1.41455 -4.39077 0
M  V30 29324 H 2787.83 -1.39611 -4.1072 0
M  V30 29325 H 2788.5 -0.532758 -5.49423 0
M  V30 29326 H 2790.98 0.783126 -4.08664 0
M  V30 29327 H 2789.85 1.46586 -5.28965 0
M  V30 29328 H 2790.12 2.30829 -3.77055 0
M  V30 29329 N 2789.17 1.5727 -0.101929 0
M  V30 29330 C 2790.42 1.94886 0.560993 0
M  V30 29331 C 2790.75 0.984287 1.67408 0
M  V30 29332 O 2790.03 0.0185108 1.94491 0
M  V30 29333 C 2790.31 3.42573 1.10976 0
M  V30 29334 C 2790.16 4.498 0.00125511 0
M  V30 29335 C 2791.48 3.91724 2.00601 0
M  V30 29336 H 2788.6 0.708647 0.202455 0
M  V30 29337 H 2791.24 1.89201 -0.174026 0
M  V30 29338 H 2789.39 3.47549 1.73614 0
M  V30 29339 H 2791.07 4.56932 -0.6333 0
M  V30 29340 H 2789.31 4.28685 -0.664218 0
M  V30 29341 H 2789.98 5.50353 0.426156 0
M  V30 29342 H 2792.46 3.88944 1.47857 0
M  V30 29343 H 2791.33 4.95613 2.35921 0
M  V30 29344 H 2791.59 3.31416 2.92602 0
M  V30 29345 N 2790.65 -0.171793 1.56661 0
M  V30 29346 C 2791.89 -0.894996 1.83764 0
M  V30 29347 C 2792.26 -1.79449 0.682784 0
M  V30 29348 O 2793.46 -2.55526 0.834253 0
M  V30 29349 C 2791.73 -1.67009 3.15979 0
M  V30 29350 S 2793.29 -2.44212 3.64562 0
M  V30 29351 H 2790.11 -0.299766 0.644718 0
M  V30 29352 H 2792.71 -0.156667 1.94871 0
M  V30 29353 H 2791.41 -1.00032 3.98022 0
M  V30 29354 H 2790.94 -2.44981 3.07812 0
M  V30 29355 H 2792.96 -3.68903 3.31851 0
M  V30 29356 N 2792.13 -1.51324 -0.44033 0
M  V30 29357 C 2793.36 -1.67647 -1.21252 0
M  V30 29358 C 2793.77 -0.372552 -1.85088 0
M  V30 29359 O 2793.13 0.648653 -1.70584 0
M  V30 29360 C 2793.18 -2.78997 -2.29876 0
M  V30 29361 O 2792.9 -4.04337 -1.68652 0
M  V30 29362 C 2794.4 -3.06563 -3.20209 0
M  V30 29363 H 2791.62 -0.562672 -0.36557 0
M  V30 29364 H 2794.17 -1.97723 -0.522105 0
M  V30 29365 H 2792.32 -2.51529 -2.94639 0
M  V30 29366 H 2792.74 -4.66154 -2.40418 0
M  V30 29367 H 2794.21 -3.88065 -3.92568 0
M  V30 29368 H 2794.69 -2.18851 -3.8079 0
M  V30 29369 H 2795.29 -3.35679 -2.6115 0
M  V30 29370 N 2793.61 0.695578 -1.41419 0
M  V30 29371 C 2794.52 1.8393 -1.45626 0
M  V30 29372 C 2795.53 1.70508 -0.346855 0
M  V30 29373 O 2796.71 1.92423 -0.594574 0
M  V30 29374 C 2793.78 3.19911 -1.33633 0
M  V30 29375 C 2792.84 3.45442 -2.54888 0
M  V30 29376 C 2792.07 4.74936 -2.43458 0
M  V30 29377 O 2792.29 5.51421 -1.45914 0
M  V30 29378 O 2791.23 5.0125 -3.33215 0
M  V30 29379 H 2795.05 1.83338 -2.42118 0
M  V30 29380 H 2792.64 0.848637 -1.22957 0
M  V30 29381 H 2794.52 4.01096 -1.29228 0
M  V30 29382 H 2793.19 3.21187 -0.402564 0
M  V30 29383 H 2792.1 2.64188 -2.64869 0
M  V30 29384 H 2793.43 3.48981 -3.47093 0
M  V30 29385 N 2795.09 1.27247 0.929833 0
M  V30 29386 C 2796.34 1.12844 1.6718 0
M  V30 29387 C 2796.65 -0.325632 1.9287 0
M  V30 29388 O 2797.86 -0.590526 2.65 0
M  V30 29389 C 2796.31 1.97156 3.01094 0
M  V30 29390 C 2795.92 3.47208 2.83109 0
M  V30 29391 C 2797.66 1.91395 3.78904 0
M  V30 29392 C 2795.57 4.23726 4.12565 0
M  V30 29393 H 2794.5 0.418708 0.627056 0
M  V30 29394 H 2797.15 1.5165 1.03317 0
M  V30 29395 H 2795.53 1.51193 3.66001 0
M  V30 29396 H 2796.71 4.01019 2.26982 0
M  V30 29397 H 2795.02 3.54325 2.1873 0
M  V30 29398 H 2797.62 2.45842 4.74832 0
M  V30 29399 H 2797.96 0.887118 4.06738 0
M  V30 29400 H 2798.5 2.35242 3.20789 0
M  V30 29401 H 2795.23 5.26925 3.89911 0
M  V30 29402 H 2794.75 3.74693 4.68364 0
M  V30 29403 H 2796.43 4.32785 4.80943 0
M  V30 29404 N 2796.57 -1.13603 1.09235 0
M  V30 29405 C 2797.84 -1.81075 0.739665 0
M  V30 29406 C 2798.22 -1.96337 -0.77556 0
M  V30 29407 O 2797.57 -1.52991 -1.69723 0
M  V30 29408 C 2797.78 -3.16233 1.47641 0
M  V30 29409 C 2799.13 -3.9161 1.64094 0
M  V30 29410 O 2800.15 -3.2585 1.43877 0
M  V30 29411 O 2799.01 -5.09557 1.9752 0
M  V30 29412 H 2796.11 -0.783231 0.265478 0
M  V30 29413 H 2798.65 -1.20547 1.19443 0
M  V30 29414 H 2797.42 -3.00339 2.50823 0
M  V30 29415 H 2797.05 -3.84461 1.01369 0
M  V30 29416 N 2798.04 -0.879253 -1.30793 0
M  V30 29417 C 2799.45 -0.546124 -1.78534 0
M  V30 29418 C 2799.81 0.937437 -1.72356 0
M  V30 29419 O 2798.93 1.7323 -1.29693 0
M  V30 29420 C 2799.53 -0.984557 -3.24179 0
M  V30 29421 C 2798.08 -0.702936 -3.69778 0
M  V30 29422 C 2797.23 -1.17072 -2.51375 0
M  V30 29423 H 2800.18 -1.06405 -1.17744 0
M  V30 29424 H 2800.2 -0.311112 -3.79226 0
M  V30 29425 H 2799.72 -2.06435 -3.28643 0
M  V30 29426 H 2797.82 0.365101 -3.70807 0
M  V30 29427 H 2797.93 -1.28647 -4.61505 0
M  V30 29428 H 2796.29 -0.590215 -2.47767 0
M  V30 29429 H 2797.08 -2.25813 -2.5858 0
M  V30 29430 N 2799.52 1.44037 -0.639624 0
M  V30 29431 C 2800.47 2.30721 0.0602053 0
M  V30 29432 C 2801.44 1.43972 0.828326 0
M  V30 29433 O 2802.62 1.72863 0.807663 0
M  V30 29434 C 2799.76 3.2937 1.03002 0
M  V30 29435 C 2798.88 4.3122 0.259426 0
M  V30 29436 C 2798.01 5.16958 1.22182 0
M  V30 29437 C 2797.05 6.1051 0.440871 0
M  V30 29438 N 2796.19 6.88917 1.35416 0
M  V30 29439 H 2801.03 2.90022 -0.684918 0
M  V30 29440 H 2798.56 1.42887 -0.349534 0
M  V30 29441 H 2800.52 3.8506 1.60576 0
M  V30 29442 H 2799.15 2.7175 1.74217 0
M  V30 29443 H 2798.2 3.77935 -0.432383 0
M  V30 29444 H 2799.52 4.97582 -0.348435 0
M  V30 29445 H 2798.67 5.77206 1.86863 0
M  V30 29446 H 2797.41 4.5069 1.8636 0
M  V30 29447 H 2796.41 5.49362 -0.219376 0
M  V30 29448 H 2797.64 6.78816 -0.196311 0
M  V30 29449 H 2795.59 6.25311 1.98299 0
M  V30 29450 H 2795.5 7.5175 0.800525 0
M  V30 29451 H 2796.77 7.53683 1.98954 0
M  V30 29452 N 2801 0.380691 1.52933 0
M  V30 29453 C 2801.93 -0.450227 2.29118 0
M  V30 29454 C 2802.91 -1.07094 1.32155 0
M  V30 29455 O 2804.1 -1.08534 1.6104 0
M  V30 29456 C 2801.23 -1.58226 3.09163 0
M  V30 29457 C 2800.18 -1.08802 4.1394 0
M  V30 29458 C 2799.51 -2.31146 4.82157 0
M  V30 29459 C 2800.81 -0.162055 5.22049 0
M  V30 29460 H 2802.5 0.185413 2.98825 0
M  V30 29461 H 2800.05 0.0906139 1.43715 0
M  V30 29462 H 2802 -2.1703 3.61215 0
M  V30 29463 H 2800.72 -2.24535 2.37174 0
M  V30 29464 H 2799.38 -0.52257 3.62856 0
M  V30 29465 H 2799.03 -2.95946 4.06724 0
M  V30 29466 H 2798.73 -1.98742 5.5297 0
M  V30 29467 H 2800.25 -2.90609 5.37009 0
M  V30 29468 H 2801.67 -0.658026 5.69511 0
M  V30 29469 H 2800.06 0.0718177 6.00057 0
M  V30 29470 H 2801.13 0.791522 4.78396 0
M  V30 29471 N 2802.48 -1.57214 0.110268 0
M  V30 29472 C 2803.75 -1.86397 -0.592923 0
M  V30 29473 C 2804.13 -1.00988 -1.85377 0
M  V30 29474 O 2803.48 -0.0863994 -2.28337 0
M  V30 29475 C 2803.69 -3.37362 -0.893756 0
M  V30 29476 C 2805.04 -4.05764 -1.25062 0
M  V30 29477 O 2806.06 -3.4233 -0.984296 0
M  V30 29478 O 2804.92 -5.17721 -1.75008 0
M  V30 29479 H 2802.02 -0.771341 -0.298266 0
M  V30 29480 H 2804.56 -1.69087 0.144112 0
M  V30 29481 H 2803.34 -3.913 9.48118e-05 0
M  V30 29482 H 2802.96 -3.60071 -1.68625 0
M  V30 29483 N 2803.96 0.163482 -1.5675 0
M  V30 29484 C 2804.9 1.22155 -1.97941 0
M  V30 29485 C 2805.9 1.45394 -0.869314 0
M  V30 29486 O 2807.1 1.45881 -1.05445 0
M  V30 29487 H 2803.48 0.410804 -0.629876 0
M  V30 29488 H 2805.45 0.84733 -2.86117 0
M  V30 29489 C 2804.2 2.55147 -2.3621 0
M  V30 29490 H 2803.52 2.38091 -3.21174 0
M  V30 29491 H 2804.96 3.2785 -2.68869 0
M  V30 29492 C 2803.42 3.1448 -1.20847 0
M  V30 29493 O 2803.95 3.98572 -0.500328 0
M  V30 29494 N 2802.16 2.73685 -0.976991 0
M  V30 29495 H 2801.7 2.05402 -1.5546 0
M  V30 29496 H 2801.66 3.13718 -0.206967 0
M  V30 29497 N 2805.43 1.51555 0.432299 0
M  V30 29498 C 2806.66 1.68044 1.20187 0
M  V30 29499 C 2807.07 0.379466 1.85356 0
M  V30 29500 O 2806.41 -0.652397 1.71725 0
M  V30 29501 C 2806.48 2.74297 2.32383 0
M  V30 29502 C 2806.14 4.16746 1.8754 0
M  V30 29503 C 2807.14 5.0136 1.37603 0
M  V30 29504 C 2804.82 4.62871 1.95079 0
M  V30 29505 C 2806.82 6.3016 0.957958 0
M  V30 29506 C 2804.5 5.91667 1.52883 0
M  V30 29507 C 2805.5 6.75139 1.03324 0
M  V30 29508 O 2805.19 8.01526 0.617294 0
M  V30 29509 H 2804.92 0.566976 0.368122 0
M  V30 29510 H 2807.48 1.98765 0.51784 0
M  V30 29511 H 2805.71 2.38901 3.04078 0
M  V30 29512 H 2807.39 2.79614 2.9423 0
M  V30 29513 H 2808.16 4.66926 1.3117 0
M  V30 29514 H 2804.04 3.98019 2.32599 0
M  V30 29515 H 2807.58 6.95264 0.570439 0
M  V30 29516 H 2803.48 6.25614 1.58988 0
M  V30 29517 H 2804.25 8.15124 0.742692 0
M  V30 29518 N 2806.91 -0.688069 1.41786 0
M  V30 29519 C 2808.14 -1.47456 1.44707 0
M  V30 29520 C 2808.55 -1.89126 0.0529493 0
M  V30 29521 O 2807.89 -1.57843 -0.939753 0
M  V30 29522 C 2807.95 -2.76348 2.29939 0
M  V30 29523 C 2807.62 -2.56836 3.78 0
M  V30 29524 C 2808.62 -2.22295 4.6998 0
M  V30 29525 C 2806.3 -2.72243 4.22124 0
M  V30 29526 C 2808.29 -2.03411 6.04072 0
M  V30 29527 C 2805.98 -2.52975 5.5628 0
M  V30 29528 C 2806.98 -2.1861 6.47069 0
M  V30 29529 O 2806.67 -1.99516 7.78748 0
M  V30 29530 H 2806.4 -0.460692 0.494711 0
M  V30 29531 H 2808.95 -0.854024 1.86804 0
M  V30 29532 H 2807.18 -3.40835 1.82669 0
M  V30 29533 H 2808.87 -3.38182 2.24472 0
M  V30 29534 H 2809.64 -2.1 4.37178 0
M  V30 29535 H 2805.52 -2.97973 3.51757 0
M  V30 29536 H 2809.06 -1.76511 6.749 0
M  V30 29537 H 2804.96 -2.64863 5.88658 0
M  V30 29538 H 2805.73 -2.1422 7.8997 0
M  V30 29539 N 2808.39 -1.27739 -0.923072 0
M  V30 29540 C 2809.34 -1.10863 -2.0243 0
M  V30 29541 C 2810.31 -0.00838114 -1.66098 0
M  V30 29542 O 2811.49 -0.171575 -1.90027 0
M  V30 29543 C 2808.63 -0.76673 -3.36475 0
M  V30 29544 C 2807.74 -1.94508 -3.85734 0
M  V30 29545 C 2806.88 -1.54464 -5.08246 0
M  V30 29546 C 2805.92 -2.6902 -5.49813 0
M  V30 29547 N 2805.06 -2.29533 -6.6352 0
M  V30 29548 H 2809.9 -2.05092 -2.16197 0
M  V30 29549 H 2807.43 -1.02089 -1.05907 0
M  V30 29550 H 2809.39 -0.549296 -4.13568 0
M  V30 29551 H 2808.02 0.138613 -3.22502 0
M  V30 29552 H 2807.07 -2.27492 -3.04879 0
M  V30 29553 H 2808.38 -2.80426 -4.12508 0
M  V30 29554 H 2807.54 -1.28872 -5.92855 0
M  V30 29555 H 2806.28 -0.656619 -4.8326 0
M  V30 29556 H 2805.28 -2.95321 -4.63752 0
M  V30 29557 H 2806.51 -3.58451 -5.76793 0
M  V30 29558 H 2804.45 -1.43188 -6.40182 0
M  V30 29559 H 2804.37 -3.08989 -6.89972 0
M  V30 29560 H 2805.64 -2.072 -7.51457 0
M  V30 29561 N 2809.87 1.13022 -1.09836 0
M  V30 29562 C 2810.82 2.18562 -0.741561 0
M  V30 29563 C 2811.79 1.63737 0.279207 0
M  V30 29564 O 2812.97 1.90129 0.159889 0
M  V30 29565 C 2810.11 3.44667 -0.17283 0
M  V30 29566 C 2809.22 4.13576 -1.24815 0
M  V30 29567 C 2808.36 5.2731 -0.641724 0
M  V30 29568 C 2807.4 5.88075 -1.69806 0
M  V30 29569 N 2806.53 6.93232 -1.11235 0
M  V30 29570 H 2811.37 2.48429 -1.64581 0
M  V30 29571 H 2808.91 1.21977 -0.822195 0
M  V30 29572 H 2810.87 4.16834 0.174747 0
M  V30 29573 H 2809.5 3.15237 0.694669 0
M  V30 29574 H 2808.55 3.3965 -1.71294 0
M  V30 29575 H 2809.86 4.54816 -2.04803 0
M  V30 29576 H 2809.02 6.06212 -0.243235 0
M  V30 29577 H 2807.76 4.87331 0.189657 0
M  V30 29578 H 2806.76 5.07864 -2.10604 0
M  V30 29579 H 2807.99 6.30125 -2.53217 0
M  V30 29580 H 2805.93 6.55303 -0.302323 0
M  V30 29581 H 2805.85 7.33037 -1.84914 0
M  V30 29582 H 2807.12 7.75978 -0.740205 0
M  V30 29583 N 2811.35 0.886177 1.30325 0
M  V30 29584 C 2812.62 0.425251 1.90921 0
M  V30 29585 C 2813 -1.09409 1.80535 0
M  V30 29586 O 2812.35 -1.92994 1.22334 0
M  V30 29587 C 2812.56 0.924697 3.36527 0
M  V30 29588 C 2813.91 0.960378 4.13596 0
M  V30 29589 O 2814.93 0.871443 3.45376 0
M  V30 29590 O 2813.79 1.09193 5.3548 0
M  V30 29591 H 2810.89 0.130252 0.816678 0
M  V30 29592 H 2813.43 0.975156 1.38884 0
M  V30 29593 H 2812.2 1.96855 3.38177 0
M  V30 29594 H 2811.83 0.354025 3.96021 0
M  V30 29595 N 2812.82 -1.43695 0.647253 0
M  V30 29596 C 2813.77 -2.32523 -0.0599696 0
M  V30 29597 C 2814.77 -1.48272 -0.819251 0
M  V30 29598 O 2815.97 -1.64518 -0.730327 0
M  V30 29599 H 2812.35 -0.75103 -0.038174 0
M  V30 29600 H 2814.32 -2.89903 0.707029 0
M  V30 29601 C 2813.07 -3.32499 -1.01684 0
M  V30 29602 H 2812.39 -3.97349 -0.442014 0
M  V30 29603 H 2813.83 -3.97298 -1.48088 0
M  V30 29604 C 2812.29 -2.62644 -2.10997 0
M  V30 29605 O 2812.82 -2.43746 -3.19297 0
M  V30 29606 N 2811.03 -2.22116 -1.87384 0
M  V30 29607 H 2810.57 -2.37686 -0.993132 0
M  V30 29608 H 2810.53 -1.75706 -2.6072 0
M  V30 29609 N 2814.3 -0.388796 -1.52729 0
M  V30 29610 C 2815.53 0.196174 -2.0647 0
M  V30 29611 C 2815.95 1.39782 -1.25868 0
M  V30 29612 O 2815.31 1.79068 -0.283594 0
M  V30 29613 C 2815.36 0.545037 -3.56457 0
M  V30 29614 O 2814.46 1.63906 -3.78429 0
M  V30 29615 H 2813.8 0.0230553 -0.6636 0
M  V30 29616 H 2816.33 -0.556119 -1.96897 0
M  V30 29617 H 2816.34 0.809487 -3.99889 0
M  V30 29618 H 2815.02 -0.333489 -4.14561 0
M  V30 29619 H 2813.6 1.36836 -3.46887 0
M  V30 29620 N 2815.78 1.57153 -0.118604 0
M  V30 29621 C 2817.01 1.99243 0.546431 0
M  V30 29622 C 2817.42 0.997176 1.60789 0
M  V30 29623 O 2816.76 -0.0181422 1.83691 0
M  V30 29624 C 2816.82 3.37745 1.23161 0
M  V30 29625 C 2816.49 4.55891 0.318146 0
M  V30 29626 C 2817.48 5.18009 -0.44308 0
M  V30 29627 C 2815.17 5.01776 0.229333 0
M  V30 29628 C 2817.16 6.24398 -1.28085 0
M  V30 29629 C 2814.85 6.08027 -0.612073 0
M  V30 29630 C 2815.85 6.69205 -1.3658 0
M  V30 29631 O 2815.54 7.73403 -2.19323 0
M  V30 29632 H 2815.27 0.65931 0.149286 0
M  V30 29633 H 2817.82 2.04408 -0.201639 0
M  V30 29634 H 2816.05 3.29333 2.02674 0
M  V30 29635 H 2817.74 3.64126 1.79352 0
M  V30 29636 H 2818.51 4.83475 -0.384335 0
M  V30 29637 H 2814.39 4.53905 0.805691 0
M  V30 29638 H 2817.93 6.72079 -1.86964 0
M  V30 29639 H 2813.83 6.4199 -0.672213 0
M  V30 29640 H 2814.6 7.90498 -2.12261 0
M  V30 29641 N 2817.26 -0.155167 1.56834 0
M  V30 29642 C 2818.51 -0.869147 1.82899 0
M  V30 29643 C 2818.83 -1.81535 0.698226 0
M  V30 29644 O 2818.09 -1.93175 -0.31337 0
M  V30 29645 C 2818.39 -1.68396 3.15242 0
M  V30 29646 C 2818.05 -0.885263 4.42124 0
M  V30 29647 C 2816.72 -0.664887 4.76584 0
M  V30 29648 C 2819.07 -0.326142 5.20179 0
M  V30 29649 C 2816.4 0.125449 5.86566 0
M  V30 29650 C 2818.75 0.451191 6.30989 0
M  V30 29651 C 2817.41 0.682219 6.64005 0
M  V30 29652 H 2816.68 -0.318043 0.669275 0
M  V30 29653 H 2819.33 -0.133207 1.91036 0
M  V30 29654 H 2817.63 -2.48977 3.02519 0
M  V30 29655 H 2819.33 -2.23972 3.32622 0
M  V30 29656 H 2815.92 -1.06708 4.15104 0
M  V30 29657 H 2820.1 -0.4837 4.93937 0
M  V30 29658 H 2815.36 0.314022 6.10593 0
M  V30 29659 H 2819.53 0.891611 6.90669 0
M  V30 29660 H 2817.16 1.29649 7.49063 0
M  V30 29661 N 2818.74 -1.51782 -0.424256 0
M  V30 29662 C 2819.96 -1.68924 -1.19467 0
M  V30 29663 C 2820.38 -0.392162 -1.84682 0
M  V30 29664 O 2819.74 0.630524 -1.71262 0
M  V30 29665 C 2819.79 -2.8142 -2.26904 0
M  V30 29666 O 2819.51 -4.06103 -1.64354 0
M  V30 29667 C 2821.01 -3.09942 -3.1694 0
M  V30 29668 H 2818.23 -0.566518 -0.359581 0
M  V30 29669 H 2820.77 -1.98265 -0.501105 0
M  V30 29670 H 2818.93 -2.5464 -2.91954 0
M  V30 29671 H 2819.34 -4.68678 -2.3546 0
M  V30 29672 H 2820.82 -3.92207 -3.8843 0
M  V30 29673 H 2821.29 -2.22877 -3.78447 0
M  V30 29674 H 2821.9 -3.3843 -2.57575 0
M  V30 29675 N 2820.21 0.68054 -1.42149 0
M  V30 29676 C 2821.12 1.82375 -1.47568 0
M  V30 29677 C 2822.14 1.7013 -0.36492 0
M  V30 29678 O 2823.32 1.91782 -0.61495 0
M  V30 29679 C 2820.38 3.18476 -1.37018 0
M  V30 29680 C 2819.44 3.4272 -2.58538 0
M  V30 29681 C 2818.68 4.72327 -2.48481 0
M  V30 29682 O 2818.9 5.49842 -1.51755 0
M  V30 29683 O 2817.83 4.97688 -3.38512 0
M  V30 29684 H 2821.66 1.8076 -2.44049 0
M  V30 29685 H 2819.24 0.835548 -1.23851 0
M  V30 29686 H 2821.13 3.99703 -1.33475 0
M  V30 29687 H 2819.8 3.20742 -0.436608 0
M  V30 29688 H 2818.71 2.61364 -2.67656 0
M  V30 29689 H 2820.04 3.4528 -3.50775 0
M  V30 29690 N 2821.69 1.28226 0.916285 0
M  V30 29691 C 2822.62 1.07736 2.02301 0
M  V30 29692 C 2823.64 0.0298707 1.62773 0
M  V30 29693 O 2824.83 0.272657 1.76405 0
M  V30 29694 C 2821.93 0.614562 3.33281 0
M  V30 29695 C 2821.1 1.73689 4.01436 0
M  V30 29696 C 2820.16 1.2679 5.10696 0
M  V30 29697 O 2819.18 1.96967 5.34034 0
M  V30 29698 N 2820.39 0.129726 5.80355 0
M  V30 29699 H 2823.15 2.03045 2.20438 0
M  V30 29700 H 2820.71 1.19945 1.08742 0
M  V30 29701 H 2822.7 0.284468 4.03699 0
M  V30 29702 H 2821.27 -0.245609 3.11634 0
M  V30 29703 H 2820.49 2.2367 3.246 0
M  V30 29704 H 2821.78 2.48983 4.43717 0
M  V30 29705 H 2821.18 -0.455748 5.63861 0
M  V30 29706 H 2819.74 -0.141109 6.51647 0
M  V30 29707 N 2823.17 -1.12438 1.10433 0
M  V30 29708 C 2824.58 -1.65481 0.864468 0
M  V30 29709 C 2824.93 -1.86631 -0.605237 0
M  V30 29710 O 2824.06 -1.59279 -1.46489 0
M  V30 29711 C 2824.65 -3.00607 1.56272 0
M  V30 29712 C 2823.21 -3.506 1.36956 0
M  V30 29713 C 2822.36 -2.25623 1.61213 0
M  V30 29714 H 2825.31 -0.962187 1.26205 0
M  V30 29715 H 2825.33 -3.67077 1.00172 0
M  V30 29716 H 2824.84 -2.85181 2.63237 0
M  V30 29717 H 2822.94 -3.7121 0.321546 0
M  V30 29718 H 2823.06 -4.30061 2.11151 0
M  V30 29719 H 2821.42 -2.32729 1.03486 0
M  V30 29720 H 2822.2 -2.12751 2.69429 0
M  V30 29721 N 2824.65 -0.893076 -1.29853 0
M  V30 29722 C 2825.9 -0.511632 -1.95103 0
M  V30 29723 C 2826.21 0.945537 -1.71228 0
M  V30 29724 O 2827.42 1.4342 -2.30528 0
M  V30 29725 C 2825.87 -0.864095 -3.49373 0
M  V30 29726 C 2825.48 -2.33958 -3.82057 0
M  V30 29727 C 2827.23 -0.552241 -4.20893 0
M  V30 29728 C 2825.13 -2.63325 -5.29541 0
M  V30 29729 H 2824.06 -0.18761 -0.730287 0
M  V30 29730 H 2826.71 -1.08916 -1.4768 0
M  V30 29731 H 2825.1 -0.215562 -3.95413 0
M  V30 29732 H 2826.27 -3.03311 -3.46899 0
M  V30 29733 H 2824.58 -2.61979 -3.2366 0
M  V30 29734 H 2827.18 -0.748582 -5.29434 0
M  V30 29735 H 2827.52 0.508851 -4.13178 0
M  V30 29736 H 2828.06 -1.15832 -3.80562 0
M  V30 29737 H 2824.8 -3.68207 -5.42314 0
M  V30 29738 H 2824.32 -1.9859 -5.6597 0
M  V30 29739 H 2826 -2.49247 -5.97064 0
M  V30 29740 N 2826.13 1.4335 -0.654865 0
M  V30 29741 C 2827.4 1.9535 -0.0987714 0
M  V30 29742 C 2827.78 1.5961 1.38159 0
M  V30 29743 O 2827.13 0.882058 2.10789 0
M  V30 29744 C 2827.34 3.47273 -0.346745 0
M  V30 29745 C 2828.69 4.23848 -0.252565 0
M  V30 29746 O 2829.71 3.55103 -0.279394 0
M  V30 29747 O 2828.57 5.46211 -0.17768 0
M  V30 29748 H 2825.67 0.826955 0.00866836 0
M  V30 29749 H 2828.21 1.53281 -0.728216 0
M  V30 29750 H 2826.99 3.6642 -1.37302 0
M  V30 29751 H 2826.61 3.96345 0.315687 0
M  V30 29752 N 2827.61 0.39689 1.52521 0
M  V30 29753 C 2828.54 -0.425901 2.29583 0
M  V30 29754 C 2829.52 -1.05686 1.33283 0
M  V30 29755 O 2830.7 -1.0682 1.62182 0
M  V30 29756 C 2827.83 -1.54938 3.10824 0
M  V30 29757 C 2826.79 -1.04406 4.1507 0
M  V30 29758 C 2826.11 -2.26019 4.84582 0
M  V30 29759 C 2827.41 -0.106675 5.22191 0
M  V30 29760 H 2829.11 0.217097 2.98612 0
M  V30 29761 H 2826.65 0.105852 1.4361 0
M  V30 29762 H 2828.6 -2.13186 3.63496 0
M  V30 29763 H 2827.33 -2.22007 2.39542 0
M  V30 29764 H 2825.99 -0.484054 3.6339 0
M  V30 29765 H 2825.64 -2.91616 4.09841 0
M  V30 29766 H 2825.34 -1.92866 5.55046 0
M  V30 29767 H 2826.86 -2.84897 5.40061 0
M  V30 29768 H 2828.27 -0.597584 5.70177 0
M  V30 29769 H 2826.67 0.135458 5.99947 0
M  V30 29770 H 2827.74 0.842218 4.7753 0
M  V30 29771 N 2829.08 -1.57088 0.126936 0
M  V30 29772 C 2830.33 -1.95754 -0.529917 0
M  V30 29773 C 2830.66 -1.0108 -1.65821 0
M  V30 29774 O 2829.94 -0.0494504 -1.94437 0
M  V30 29775 C 2830.22 -3.44295 -1.05511 0
M  V30 29776 C 2830.07 -4.49745 0.0703043 0
M  V30 29777 C 2831.39 -3.94865 -1.94343 0
M  V30 29778 H 2828.51 -0.711779 -0.191155 0
M  V30 29779 H 2831.15 -1.88901 0.204104 0
M  V30 29780 H 2829.3 -3.50267 -1.68063 0
M  V30 29781 H 2830.98 -4.55867 0.705914 0
M  V30 29782 H 2829.22 -4.27574 0.732334 0
M  V30 29783 H 2829.89 -5.50961 -0.338546 0
M  V30 29784 H 2832.37 -3.91247 -1.41651 0
M  V30 29785 H 2831.24 -4.99304 -2.28006 0
M  V30 29786 H 2831.5 -3.36029 -2.87293 0
M  V30 29787 N 2830.56 0.146848 -1.56914 0
M  V30 29788 C 2831.97 0.706897 -1.728 0
M  V30 29789 C 2832.32 1.81654 -0.741361 0
M  V30 29790 O 2831.45 2.16204 0.0919782 0
M  V30 29791 C 2832.04 1.28906 -3.13319 0
M  V30 29792 C 2830.6 1.79568 -3.30806 0
M  V30 29793 C 2829.75 0.684205 -2.68726 0
M  V30 29794 H 2832.7 -0.078821 -1.58504 0
M  V30 29795 H 2832.72 2.15886 -3.13327 0
M  V30 29796 H 2832.23 0.481217 -3.85105 0
M  V30 29797 H 2830.33 2.62918 -2.64017 0
M  V30 29798 H 2830.45 1.92428 -4.38757 0
M  V30 29799 H 2828.81 1.11087 -2.29198 0
M  V30 29800 H 2829.59 -0.112195 -3.43117 0
M  V30 29801 N 2832.04 1.52005 0.4162 0
M  V30 29802 C 2832.99 1.75443 1.52717 0
M  V30 29803 C 2833.98 0.621316 1.57594 0
M  V30 29804 O 2835.19 0.8032 1.61086 0
M  V30 29805 H 2831.56 0.554691 0.507762 0
M  V30 29806 H 2833.53 2.6853 1.30131 0
M  V30 29807 C 2832.28 1.91576 2.90162 0
M  V30 29808 H 2831.61 2.78183 2.87149 0
M  V30 29809 H 2833.05 2.11978 3.67207 0
M  V30 29810 C 2831.5 0.681 3.29945 0
M  V30 29811 O 2832.03 -0.154457 4.01403 0
M  V30 29812 N 2830.24 0.518944 2.85929 0
M  V30 29813 H 2829.79 1.1999 2.27948 0
M  V30 29814 H 2829.75 -0.30593 3.12908 0
M  V30 29815 N 2833.52 -0.672992 1.42508 0
M  V30 29816 C 2834.45 -1.79852 1.42078 0
M  V30 29817 C 2835.46 -1.59632 0.319597 0
M  V30 29818 O 2836.65 -1.68718 0.582799 0
M  V30 29819 C 2833.75 -3.16984 1.19892 0
M  V30 29820 C 2832.92 -3.64037 2.42478 0
M  V30 29821 C 2831.98 -4.79909 2.1581 0
M  V30 29822 O 2831.01 -4.90361 2.89024 0
M  V30 29823 N 2832.21 -5.68744 1.16235 0
M  V30 29824 H 2834.98 -1.80706 2.39093 0
M  V30 29825 H 2832.54 -0.856147 1.37411 0
M  V30 29826 H 2834.53 -3.92159 0.99966 0
M  V30 29827 H 2833.1 -3.1102 0.313933 0
M  V30 29828 H 2832.32 -2.79521 2.77959 0
M  V30 29829 H 2833.61 -3.92217 3.24104 0
M  V30 29830 H 2833.01 -5.62953 0.556855 0
M  V30 29831 H 2831.56 -6.43723 1.02296 0
M  V30 29832 N 2835 -1.2871 -0.909472 0
M  V30 29833 C 2836.41 -1.14565 -1.47417 0
M  V30 29834 C 2836.76 0.262798 -1.94432 0
M  V30 29835 O 2835.88 1.15745 -1.82845 0
M  V30 29836 C 2836.48 -2.07363 -2.67929 0
M  V30 29837 C 2835.04 -1.97269 -3.20565 0
M  V30 29838 C 2834.18 -1.98856 -1.93266 0
M  V30 29839 H 2837.13 -1.41337 -0.721762 0
M  V30 29840 H 2837.16 -1.64013 -3.43336 0
M  V30 29841 H 2836.67 -3.09864 -2.3368 0
M  V30 29842 H 2834.77 -0.97822 -3.5953 0
M  V30 29843 H 2834.88 -2.84443 -3.85524 0
M  V30 29844 H 2833.25 -1.43321 -2.1055 0
M  V30 29845 H 2834.03 -3.03043 -1.61306 0
M  V30 29846 N 2836.47 1.1185 -1.11028 0
M  V30 29847 C 2837.7 1.87035 -0.877577 0
M  V30 29848 C 2838.11 1.80222 0.575894 0
M  V30 29849 O 2837.45 1.17851 1.40914 0
M  V30 29850 C 2837.52 3.3687 -1.25535 0
M  V30 29851 C 2837.18 3.67454 -2.7171 0
M  V30 29852 C 2838.18 3.65298 -3.69937 0
M  V30 29853 C 2835.86 3.96595 -3.0825 0
M  V30 29854 C 2837.86 3.91851 -5.02724 0
M  V30 29855 C 2835.54 4.22807 -4.41223 0
M  V30 29856 C 2836.54 4.20423 -5.38269 0
M  V30 29857 O 2836.23 4.4598 -6.68847 0
M  V30 29858 H 2835.96 0.598447 -0.314384 0
M  V30 29859 H 2838.52 1.42408 -1.48017 0
M  V30 29860 H 2836.75 3.82081 -0.595875 0
M  V30 29861 H 2838.43 3.93411 -0.999133 0
M  V30 29862 H 2839.2 3.4284 -3.43053 0
M  V30 29863 H 2835.08 3.97589 -2.33333 0
M  V30 29864 H 2838.62 3.89905 -5.78463 0
M  V30 29865 H 2834.52 4.4474 -4.67843 0
M  V30 29866 H 2835.29 4.63569 -6.74571 0
M  V30 29867 N 2837.95 0.89995 1.29378 0
M  V30 29868 C 2839.36 0.574459 1.77643 0
M  V30 29869 C 2839.71 -0.909898 1.73825 0
M  V30 29870 O 2838.84 -1.71145 1.32432 0
M  V30 29871 C 2839.43 1.03601 3.22571 0
M  V30 29872 C 2837.99 0.761675 3.68613 0
M  V30 29873 C 2837.14 1.21056 2.49481 0
M  V30 29874 H 2840.09 1.08265 1.16036 0
M  V30 29875 H 2840.11 0.371404 3.78683 0
M  V30 29876 H 2839.62 2.11637 3.25317 0
M  V30 29877 H 2837.72 -0.306062 3.71341 0
M  V30 29878 H 2837.84 1.35973 4.594 0
M  V30 29879 H 2836.2 0.629558 2.46797 0
M  V30 29880 H 2836.98 2.29898 2.54955 0
M  V30 29881 N 2839.43 -1.43001 0.662458 0
M  V30 29882 C 2840.38 -2.32573 -0.0353041 0
M  V30 29883 C 2841.37 -1.49133 -0.803479 0
M  V30 29884 O 2842.58 -1.65284 -0.712836 0
M  V30 29885 H 2838.95 -0.751393 -0.0302062 0
M  V30 29886 H 2840.92 -2.89137 0.737737 0
M  V30 29887 C 2839.67 -3.33559 -0.981517 0
M  V30 29888 H 2839 -3.97796 -0.399845 0
M  V30 29889 H 2840.44 -3.98847 -1.43866 0
M  V30 29890 C 2838.9 -2.64867 -2.082 0
M  V30 29891 O 2839.43 -2.47119 -3.16694 0
M  V30 29892 N 2837.63 -2.24091 -1.85018 0
M  V30 29893 H 2837.18 -2.38726 -0.967867 0
M  V30 29894 H 2837.14 -1.78461 -2.58842 0
M  V30 29895 N 2840.91 -0.404973 -1.52308 0
M  V30 29896 C 2841.87 0.410612 -2.25492 0
M  V30 29897 C 2842.87 0.977132 -1.27706 0
M  V30 29898 O 2844.06 0.856665 -1.5168 0
M  V30 29899 C 2841.19 1.5776 -3.022 0
M  V30 29900 H 2842.39 -0.230329 -2.99014 0
M  V30 29901 H 2839.94 -0.157405 -1.55505 0
M  V30 29902 H 2840.67 2.25552 -2.33016 0
M  V30 29903 H 2840.46 1.17791 -3.73989 0
M  V30 29904 H 2841.95 2.15463 -3.57723 0
M  V30 29905 N 2842.39 1.57018 -0.135265 0
M  V30 29906 C 2843.61 2.00532 0.529308 0
M  V30 29907 C 2844.04 1.01462 1.58389 0
M  V30 29908 O 2843.39 -0.0113668 1.81296 0
M  V30 29909 C 2843.44 3.4285 1.11742 0
M  V30 29910 O 2842.55 3.46739 2.23261 0
M  V30 29911 H 2841.89 0.651018 0.130658 0
M  V30 29912 H 2844.42 2.0332 -0.228539 0
M  V30 29913 H 2844.43 3.81403 1.44898 0
M  V30 29914 H 2843.1 4.14466 0.345074 0
M  V30 29915 H 2841.68 3.20019 1.91422 0
M  V30 29916 N 2843.86 -0.138524 1.5699 0
M  V30 29917 C 2845.11 -0.849699 1.83811 0
M  V30 29918 C 2845.44 -1.80785 0.717441 0
M  V30 29919 O 2844.69 -1.93496 -0.292863 0
M  V30 29920 C 2844.99 -1.65043 3.1701 0
M  V30 29921 C 2844.66 -0.83832 4.43038 0
M  V30 29922 C 2843.32 -0.614301 4.77263 0
M  V30 29923 C 2845.67 -0.270952 5.20495 0
M  V30 29924 C 2843 0.187655 5.864 0
M  V30 29925 C 2845.35 0.51809 6.30475 0
M  V30 29926 C 2844.02 0.752607 6.63244 0
M  V30 29927 H 2843.29 -0.310927 0.672611 0
M  V30 29928 H 2845.93 -0.112938 1.91167 0
M  V30 29929 H 2844.24 -2.45754 3.05143 0
M  V30 29930 H 2845.94 -2.20431 3.34979 0
M  V30 29931 H 2842.53 -1.023 4.16212 0
M  V30 29932 H 2846.71 -0.431284 4.94423 0
M  V30 29933 H 2841.97 0.378766 6.10226 0
M  V30 29934 H 2846.14 0.964815 6.89684 0
M  V30 29935 H 2843.77 1.37587 7.47646 0
M  V30 29936 N 2845.34 -1.52224 -0.408133 0
M  V30 29937 C 2846.62 -1.56895 -1.16804 0
M  V30 29938 C 2847 -0.350574 -2.08169 0
M  V30 29939 O 2846.35 0.662497 -2.18685 0
M  V30 29940 C 2846.56 -2.89813 -1.94446 0
M  V30 29941 C 2847.91 -3.4285 -2.50478 0
M  V30 29942 O 2848.93 -2.91559 -2.04625 0
M  V30 29943 O 2847.79 -4.32416 -3.34184 0
M  V30 29944 H 2844.88 -0.632016 -0.533371 0
M  V30 29945 H 2847.43 -1.64552 -0.414833 0
M  V30 29946 H 2846.2 -3.69938 -1.27521 0
M  V30 29947 H 2845.82 -2.85454 -2.7677 0
M  V30 29948 N 2846.82 0.665425 -1.42863 0
M  V30 29949 C 2847.77 1.79997 -1.47322 0
M  V30 29950 C 2848.76 1.65787 -0.347992 0
M  V30 29951 O 2849.97 1.72282 -0.521436 0
M  V30 29952 H 2846.34 0.593659 -0.461598 0
M  V30 29953 H 2848.31 1.73356 -2.42879 0
M  V30 29954 C 2847.06 3.182 -1.40157 0
M  V30 29955 H 2846.39 3.29766 -2.26041 0
M  V30 29956 H 2847.83 3.97577 -1.47338 0
M  V30 29957 C 2846.29 3.36695 -0.117552 0
M  V30 29958 O 2846.82 3.93116 0.825989 0
M  V30 29959 N 2845.02 2.90583 -0.0316729 0
M  V30 29960 H 2844.57 2.44853 -0.80029 0
M  V30 29961 H 2844.53 3.03334 0.826782 0
M  V30 29962 N 2848.3 1.29191 0.902633 0
M  V30 29963 C 2849.55 1.16992 1.65285 0
M  V30 29964 C 2849.87 -0.279198 1.92486 0
M  V30 29965 O 2849.13 -1.2184 1.53145 0
M  V30 29966 C 2849.43 1.9255 3.01097 0
M  V30 29967 C 2849.09 3.42286 2.93515 0
M  V30 29968 C 2847.76 3.83122 2.91155 0
M  V30 29969 C 2850.11 4.37715 2.82939 0
M  V30 29970 C 2847.44 5.17709 2.76034 0
M  V30 29971 C 2849.79 5.72389 2.69358 0
M  V30 29972 C 2848.45 6.12486 2.65362 0
M  V30 29973 H 2847.72 0.428104 0.60482 0
M  V30 29974 H 2850.37 1.60094 1.05081 0
M  V30 29975 H 2848.67 1.4203 3.6515 0
M  V30 29976 H 2850.37 1.80518 3.5807 0
M  V30 29977 H 2846.96 3.09825 2.96153 0
M  V30 29978 H 2851.14 4.07121 2.83842 0
M  V30 29979 H 2846.4 5.4789 2.71343 0
M  V30 29980 H 2850.57 6.45986 2.60145 0
M  V30 29981 H 2848.2 7.16722 2.53403 0
M  V30 29982 N 2849.78 -1.1126 1.1162 0
M  V30 29983 C 2850.72 -2.17355 0.776238 0
M  V30 29984 C 2851.69 -1.6416 -0.253123 0
M  V30 29985 O 2852.88 -1.90359 -0.129621 0
M  V30 29986 C 2850.02 -3.44348 0.227642 0
M  V30 29987 C 2849.13 -4.11538 1.31379 0
M  V30 29988 C 2848.27 -5.26222 0.725533 0
M  V30 29989 C 2847.31 -5.85299 1.7914 0
M  V30 29990 N 2846.44 -6.91375 1.2225 0
M  V30 29991 H 2851.28 -2.4578 1.68512 0
M  V30 29992 H 2848.82 -1.20653 0.841496 0
M  V30 29993 H 2850.78 -4.17059 -0.10841 0
M  V30 29994 H 2849.41 -3.16302 -0.64443 0
M  V30 29995 H 2848.46 -3.36882 1.76676 0
M  V30 29996 H 2849.77 -4.515 2.12013 0
M  V30 29997 H 2848.93 -6.05749 0.339647 0
M  V30 29998 H 2847.66 -4.87571 -0.112103 0
M  V30 29999 H 2846.67 -5.04449 2.18657 0
M  V30 30000 H 2847.89 -6.26017 2.6321 0
M  V30 30001 H 2845.84 -6.54739 0.406538 0
M  V30 30002 H 2845.76 -7.30002 1.96553 0
M  V30 30003 H 2847.03 -7.74702 0.863562 0
M  V30 30004 N 2851.25 -0.906798 -1.28899 0
M  V30 30005 C 2852.5 -0.53636 -1.95268 0
M  V30 30006 C 2852.83 0.918681 -1.71437 0
M  V30 30007 O 2852.08 1.66751 -1.02434 0
M  V30 30008 C 2852.38 -0.783678 -3.48702 0
M  V30 30009 C 2852.05 -2.21718 -3.92622 0
M  V30 30010 C 2850.71 -2.60913 -4.04324 0
M  V30 30011 C 2853.06 -3.15036 -4.15213 0
M  V30 30012 C 2850.39 -3.92592 -4.35991 0
M  V30 30013 C 2852.74 -4.46272 -4.48357 0
M  V30 30014 C 2851.41 -4.8533 -4.5827 0
M  V30 30015 H 2850.68 -0.196268 -0.714535 0
M  V30 30016 H 2853.32 -1.1468 -1.53364 0
M  V30 30017 H 2851.63 -0.0903737 -3.91696 0
M  V30 30018 H 2853.33 -0.476337 -3.98161 0
M  V30 30019 H 2849.92 -1.90302 -3.84035 0
M  V30 30020 H 2854.1 -2.85967 -4.05631 0
M  V30 30021 H 2849.36 -4.22564 -4.4187 0
M  V30 30022 H 2853.53 -5.18601 -4.64786 0
M  V30 30023 H 2851.16 -5.87399 -4.82562 0
M  V30 30024 N 2852.73 1.42648 -0.670032 0
M  V30 30025 C 2853.98 2.01902 -0.190603 0
M  V30 30026 C 2854.31 1.52834 1.19814 0
M  V30 30027 O 2853.59 0.728517 1.80341 0
M  V30 30028 C 2853.87 3.59428 -0.219973 0
M  V30 30029 C 2853.72 4.18686 -1.64383 0
M  V30 30030 C 2855.04 4.3795 0.434442 0
M  V30 30031 H 2852.16 0.733598 -0.0707348 0
M  V30 30032 H 2854.8 1.6973 -0.853913 0
M  V30 30033 H 2852.95 3.86967 0.344826 0
M  V30 30034 H 2854.62 4.02118 -2.26051 0
M  V30 30035 H 2852.87 3.74696 -2.18598 0
M  V30 30036 H 2853.54 5.27813 -1.6161 0
M  V30 30037 H 2856.01 4.16074 -0.0462887 0
M  V30 30038 H 2854.89 5.47561 0.383234 0
M  V30 30039 H 2855.15 4.15467 1.51128 0
M  V30 30040 N 2854.21 0.413044 1.52091 0
M  V30 30041 C 2855.45 -0.160939 2.03765 0
M  V30 30042 C 2855.82 -1.42048 1.29176 0
M  V30 30043 O 2857.02 -2.07315 1.71096 0
M  V30 30044 C 2855.29 -0.398809 3.55168 0
M  V30 30045 S 2856.85 -0.939679 4.2862 0
M  V30 30046 H 2853.66 -0.0432157 0.709685 0
M  V30 30047 H 2856.27 0.566864 1.87101 0
M  V30 30048 H 2854.97 0.524615 4.07033 0
M  V30 30049 H 2854.5 -1.15438 3.76082 0
M  V30 30050 H 2856.52 -2.21983 4.43777 0
M  V30 30051 N 2855.69 -1.56945 0.143591 0
M  V30 30052 C 2856.97 -1.87613 -0.553252 0
M  V30 30053 C 2857.35 -1.04898 -1.83193 0
M  V30 30054 O 2856.69 -0.134814 -2.28102 0
M  V30 30055 C 2856.9 -3.39182 -0.821996 0
M  V30 30056 C 2858.25 -4.08326 -1.16427 0
M  V30 30057 O 2859.28 -3.44341 -0.911461 0
M  V30 30058 O 2858.14 -5.21316 -1.63987 0
M  V30 30059 H 2855.23 -0.777494 -0.281838 0
M  V30 30060 H 2857.78 -1.68743 0.179946 0
M  V30 30061 H 2856.55 -3.91212 0.0830953 0
M  V30 30062 H 2856.17 -3.63567 -1.60949 0
M  V30 30063 N 2857.17 0.130197 -1.57061 0
M  V30 30064 C 2858.12 1.17929 -2.00488 0
M  V30 30065 C 2859.11 1.43517 -0.899959 0
M  V30 30066 O 2860.32 1.43611 -1.08516 0
M  V30 30067 H 2856.69 0.397351 -0.638448 0
M  V30 30068 H 2858.66 0.78645 -2.8785 0
M  V30 30069 C 2857.41 2.50079 -2.41569 0
M  V30 30070 H 2856.73 2.31225 -3.26152 0
M  V30 30071 H 2858.17 3.22073 -2.75763 0
M  V30 30072 C 2856.63 3.11846 -1.2749 0
M  V30 30073 O 2857.16 3.97421 -0.584758 0
M  V30 30074 N 2855.37 2.71551 -1.03482 0
M  V30 30075 H 2854.92 2.02058 -1.59782 0
M  V30 30076 H 2854.87 3.13208 -0.273465 0
M  V30 30077 N 2858.65 1.52438 0.400055 0
M  V30 30078 C 2859.89 1.66168 1.14329 0
M  V30 30079 C 2860.21 0.402287 1.91418 0
M  V30 30080 O 2861.41 0.419534 2.68239 0
M  V30 30081 C 2859.87 2.93614 2.08132 0
M  V30 30082 C 2859.48 4.26693 1.36517 0
M  V30 30083 C 2861.22 3.16708 2.82659 0
M  V30 30084 C 2859.13 5.45255 2.29021 0
M  V30 30085 H 2858.06 0.619028 0.430489 0
M  V30 30086 H 2860.71 1.7893 0.406985 0
M  V30 30087 H 2859.09 2.74572 2.85353 0
M  V30 30088 H 2860.27 4.5625 0.645981 0
M  V30 30089 H 2858.58 4.09773 0.739948 0
M  V30 30090 H 2861.18 4.02466 3.5203 0
M  V30 30091 H 2861.52 2.31318 3.46118 0
M  V30 30092 H 2862.05 3.36265 2.12535 0
M  V30 30093 H 2858.79 6.3302 1.70194 0
M  V30 30094 H 2858.31 5.20025 2.98887 0
M  V30 30095 H 2859.99 5.78694 2.89349 0
M  V30 30096 N 2860.12 -0.657839 1.43214 0
M  V30 30097 C 2861.07 -1.77089 1.48014 0
M  V30 30098 C 2862.04 -1.62782 0.33032 0
M  V30 30099 O 2863.23 -1.83093 0.536819 0
M  V30 30100 C 2860.37 -3.15219 1.40467 0
M  V30 30101 C 2859.48 -3.40692 2.65618 0
M  V30 30102 C 2858.61 -4.68645 2.50091 0
M  V30 30103 C 2857.65 -4.87208 3.70533 0
M  V30 30104 N 2856.79 -6.06414 3.53846 0
M  V30 30105 H 2861.63 -1.72321 2.43124 0
M  V30 30106 H 2859.17 -0.840992 1.20689 0
M  V30 30107 H 2861.12 -3.95066 1.34086 0
M  V30 30108 H 2859.75 -3.19068 0.489415 0
M  V30 30109 H 2858.81 -2.54977 2.82296 0
M  V30 30110 H 2860.12 -3.50297 3.55097 0
M  V30 30111 H 2859.27 -5.5661 2.41393 0
M  V30 30112 H 2858.01 -4.61353 1.58129 0
M  V30 30113 H 2857.02 -3.9768 3.79646 0
M  V30 30114 H 2858.24 -4.96333 4.63498 0
M  V30 30115 H 2856.19 -6.00263 2.64614 0
M  V30 30116 H 2856.1 -6.16956 4.36923 0
M  V30 30117 H 2857.37 -6.97012 3.4899 0
M  V30 30118 N 2861.6 -1.29668 -0.895769 0
M  V30 30119 C 2862.85 -1.17867 -1.64662 0
M  V30 30120 C 2863.18 0.268986 -1.92631 0
M  V30 30121 O 2862.43 1.21026 -1.53789 0
M  V30 30122 C 2862.73 -1.94144 -3.00071 0
M  V30 30123 C 2862.4 -3.43838 -2.91696 0
M  V30 30124 C 2861.06 -3.84661 -2.89119 0
M  V30 30125 C 2863.41 -4.3921 -2.80614 0
M  V30 30126 C 2860.74 -5.19165 -2.73284 0
M  V30 30127 C 2863.09 -5.73809 -2.66319 0
M  V30 30128 C 2861.75 -6.13885 -2.6211 0
M  V30 30129 H 2861.02 -0.431306 -0.602541 0
M  V30 30130 H 2863.67 -1.60649 -1.04231 0
M  V30 30131 H 2861.98 -1.43964 -3.64392 0
M  V30 30132 H 2863.67 -1.82415 -3.57108 0
M  V30 30133 H 2860.26 -3.11391 -2.94506 0
M  V30 30134 H 2864.45 -4.0862 -2.81679 0
M  V30 30135 H 2859.7 -5.49321 -2.68433 0
M  V30 30136 H 2863.88 -6.47356 -2.56716 0
M  V30 30137 H 2861.5 -7.18056 -2.49598 0
M  V30 30138 N 2863.08 1.10667 -1.12208 0
M  V30 30139 C 2864.04 2.15122 -0.790905 0
M  V30 30140 C 2865.04 1.5963 0.19359 0
M  V30 30141 O 2866.23 1.74171 -0.0319034 0
M  V30 30142 C 2863.36 3.40451 -0.174857 0
M  V30 30143 H 2864.56 2.4593 -1.71635 0
M  V30 30144 H 2862.11 1.25989 -0.925015 0
M  V30 30145 H 2862.85 3.15259 0.760422 0
M  V30 30146 H 2862.63 3.82013 -0.883647 0
M  V30 30147 H 2864.12 4.1758 0.0404428 0
M  V30 30148 N 2864.56 0.913621 1.28416 0
M  V30 30149 C 2865.83 0.465652 1.89976 0
M  V30 30150 C 2866.21 -1.05555 1.82815 0
M  V30 30151 O 2865.56 -1.90356 1.264 0
M  V30 30152 C 2865.77 0.995871 3.3449 0
M  V30 30153 C 2867.12 1.04789 4.11466 0
M  V30 30154 O 2868.14 0.944506 3.43449 0
M  V30 30155 O 2867 1.20527 5.33044 0
M  V30 30156 H 2864.1 0.147546 0.813732 0
M  V30 30157 H 2866.64 1.0044 1.36784 0
M  V30 30158 H 2865.42 2.03984 3.33925 0
M  V30 30159 H 2865.04 0.437947 3.95181 0
M  V30 30160 N 2866.04 -1.4229 0.677588 0
M  V30 30161 C 2867.31 -1.95169 0.129837 0
M  V30 30162 C 2867.69 -1.61788 -1.35602 0
M  V30 30163 O 2867.04 -0.915481 -2.09359 0
M  V30 30164 C 2867.25 -3.46678 0.401949 0
M  V30 30165 C 2868.6 -4.23393 0.319963 0
M  V30 30166 O 2869.62 -3.54613 0.335853 0
M  V30 30167 O 2868.48 -5.45859 0.264555 0
M  V30 30168 H 2865.58 -0.826988 0.00448886 0
M  V30 30169 H 2868.12 -1.52103 0.75251 0
M  V30 30170 H 2866.89 -3.6419 1.43114 0
M  V30 30171 H 2866.52 -3.96797 -0.252592 0
M  V30 30172 N 2867.51 -0.421104 -1.5187 0
M  V30 30173 C 2868.44 0.389322 -2.30231 0
M  V30 30174 C 2869.42 1.03553 -1.34948 0
M  V30 30175 O 2870.61 1.04226 -1.63861 0
M  V30 30176 C 2867.74 1.49973 -3.1325 0
M  V30 30177 C 2866.69 0.977893 -4.16679 0
M  V30 30178 C 2866.02 2.18281 -4.88116 0
M  V30 30179 C 2867.32 0.0235857 -5.22295 0
M  V30 30180 H 2869.01 -0.264576 -2.98229 0
M  V30 30181 H 2866.56 -0.128685 -1.43424 0
M  V30 30182 H 2868.51 2.07377 -3.66842 0
M  V30 30183 H 2867.24 2.18168 -2.43044 0
M  V30 30184 H 2865.9 0.426181 -3.64114 0
M  V30 30185 H 2865.54 2.85059 -4.14428 0
M  V30 30186 H 2865.24 1.84011 -5.58044 0
M  V30 30187 H 2866.77 2.76269 -5.44525 0
M  V30 30188 H 2868.18 0.506798 -5.71056 0
M  V30 30189 H 2866.58 -0.230887 -5.99656 0
M  V30 30190 H 2867.65 -0.918083 -4.76129 0
M  V30 30191 N 2868.99 1.56866 -0.151912 0
M  V30 30192 C 2869.94 2.18301 0.802952 0
M  V30 30193 C 2870.93 1.14141 1.25172 0
M  V30 30194 O 2872.14 1.32382 1.21963 0
M  V30 30195 H 2868.52 0.699062 0.277157 0
M  V30 30196 H 2870.49 2.97259 0.260646 0
M  V30 30197 C 2869.24 2.82285 2.03004 0
M  V30 30198 H 2868.56 3.62151 1.69371 0
M  V30 30199 H 2870 3.28767 2.67747 0
M  V30 30200 C 2868.46 1.81046 2.8412 0
M  V30 30201 O 2868.99 1.28395 3.80628 0
M  V30 30202 N 2867.19 1.50239 2.4875 0
M  V30 30203 H 2866.74 1.93247 1.70333 0
M  V30 30204 H 2866.7 0.827498 3.03315 0
M  V30 30205 N 2870.47 -0.121866 1.57128 0
M  V30 30206 C 2871.4 -1.17526 1.96775 0
M  V30 30207 C 2872.42 -1.37813 0.866692 0
M  V30 30208 O 2873.6 -1.36938 1.145 0
M  V30 30209 C 2870.7 -2.53578 2.24836 0
M  V30 30210 C 2869.88 -2.53932 3.56142 0
M  V30 30211 C 2868.94 -3.71709 3.7245 0
M  V30 30212 O 2867.96 -3.55426 4.44591 0
M  V30 30213 N 2869.16 -4.90161 3.11002 0
M  V30 30214 H 2871.93 -0.838035 2.87745 0
M  V30 30215 H 2869.49 -0.311171 1.58882 0
M  V30 30216 H 2871.48 -3.30923 2.32964 0
M  V30 30217 H 2870.05 -2.79494 1.40007 0
M  V30 30218 H 2869.27 -1.62322 3.59228 0
M  V30 30219 H 2870.56 -2.51223 4.42453 0
M  V30 30220 H 2869.96 -5.06294 2.52354 0
M  V30 30221 H 2868.52 -5.65193 3.24654 0
M  V30 30222 N 2871.95 -1.52648 -0.391965 0
M  V30 30223 C 2872.88 -1.80183 -1.48514 0
M  V30 30224 C 2873.86 -0.653694 -1.57038 0
M  V30 30225 O 2875.04 -0.900992 -1.72034 0
M  V30 30226 C 2872.17 -1.96802 -2.86158 0
M  V30 30227 C 2871.13 -3.12477 -2.92476 0
M  V30 30228 C 2870.45 -3.14345 -4.3254 0
M  V30 30229 C 2871.75 -4.51606 -2.62392 0
M  V30 30230 H 2873.45 -2.71725 -1.25721 0
M  V30 30231 H 2870.99 -1.3075 -0.603364 0
M  V30 30232 H 2872.95 -2.14647 -3.62635 0
M  V30 30233 H 2871.67 -1.01946 -3.10281 0
M  V30 30234 H 2870.33 -2.9441 -2.18445 0
M  V30 30235 H 2869.98 -2.17178 -4.53699 0
M  V30 30236 H 2869.68 -3.92049 -4.37688 0
M  V30 30237 H 2871.2 -3.34342 -5.10928 0
M  V30 30238 H 2872.62 -4.6979 -3.28588 0
M  V30 30239 H 2871.01 -5.31355 -2.78894 0
M  V30 30240 H 2872.08 -4.58524 -1.57746 0
M  V30 30241 N 2873.43 0.650235 -1.43561 0
M  V30 30242 C 2874.65 1.43776 -1.48782 0
M  V30 30243 C 2875.07 1.88499 -0.106626 0
M  V30 30244 O 2874.43 1.59676 0.883738 0
M  V30 30245 C 2874.48 2.67077 -2.43623 0
M  V30 30246 O 2874.2 2.24224 -3.76371 0
M  V30 30247 C 2875.7 3.60404 -2.58116 0
M  V30 30248 H 2872.92 0.441584 -0.505217 0
M  V30 30249 H 2875.46 0.796908 -1.88334 0
M  V30 30250 H 2873.62 3.27296 -2.07258 0
M  V30 30251 H 2874.03 3.04023 -4.274 0
M  V30 30252 H 2875.51 4.43578 -3.28547 0
M  V30 30253 H 2875.98 4.0795 -1.62707 0
M  V30 30254 H 2876.59 3.06065 -2.95304 0
M  V30 30255 N 2874.9 1.30141 0.88888 0
M  V30 30256 C 2876.15 1.18504 1.63711 0
M  V30 30257 C 2876.47 -0.261365 1.9324 0
M  V30 30258 O 2875.74 -1.17687 1.5661 0
M  V30 30259 H 2874.32 0.43559 0.606853 0
M  V30 30260 H 2876.99 1.63215 1.06522 0
M  V30 30261 H 2876.08 1.74304 2.58891 0
M  V30 30262 N 2876.38 -1.1007 1.12794 0
M  V30 30263 C 2877.61 -1.85615 0.907221 0
M  V30 30264 C 2878.02 -1.81116 -0.547149 0
M  V30 30265 O 2877.36 -1.20078 -1.39022 0
M  V30 30266 C 2877.43 -3.3483 1.30878 0
M  V30 30267 C 2877.09 -3.63085 2.77522 0
M  V30 30268 C 2878.09 -3.59366 3.75702 0
M  V30 30269 C 2875.77 -3.91641 3.1452 0
M  V30 30270 C 2877.77 -3.83804 5.08895 0
M  V30 30271 C 2875.45 -4.15734 4.47893 0
M  V30 30272 C 2876.45 -4.11806 5.4489 0
M  V30 30273 O 2876.14 -4.35283 6.75858 0
M  V30 30274 H 2875.87 -0.593369 0.323865 0
M  V30 30275 H 2878.42 -1.40035 1.50264 0
M  V30 30276 H 2876.65 -3.81085 0.656585 0
M  V30 30277 H 2878.34 -3.91772 1.0616 0
M  V30 30278 H 2879.11 -3.37339 3.48464 0
M  V30 30279 H 2874.99 -3.93826 2.39628 0
M  V30 30280 H 2878.53 -3.80653 5.84593 0
M  V30 30281 H 2874.43 -4.37241 4.74859 0
M  V30 30282 H 2875.2 -4.52779 6.81861 0
M  V30 30283 N 2877.86 -0.920419 -1.2793 0
M  V30 30284 C 2878.81 -0.412462 -2.27085 0
M  V30 30285 C 2879.78 0.516697 -1.57859 0
M  V30 30286 O 2880.96 0.437443 -1.85718 0
M  V30 30287 C 2878.1 0.335339 -3.43467 0
M  V30 30288 C 2877.22 -0.627092 -4.27424 0
M  V30 30289 C 2876.35 0.139823 -5.31016 0
M  V30 30290 C 2875.39 -0.815789 -6.06639 0
M  V30 30291 N 2874.53 -0.0819673 -7.02052 0
M  V30 30292 H 2879.37 -1.26303 -2.6991 0
M  V30 30293 H 2876.9 -0.634099 -1.32731 0
M  V30 30294 H 2878.86 0.785154 -4.09745 0
M  V30 30295 H 2877.49 1.1502 -3.01613 0
M  V30 30296 H 2876.54 -1.19544 -3.61128 0
M  V30 30297 H 2877.86 -1.35772 -4.79966 0
M  V30 30298 H 2877.01 0.649892 -6.03209 0
M  V30 30299 H 2875.75 0.903459 -4.79259 0
M  V30 30300 H 2874.75 -1.33717 -5.33291 0
M  V30 30301 H 2875.98 -1.57909 -6.60486 0
M  V30 30302 H 2873.92 0.663556 -6.52635 0
M  V30 30303 H 2873.84 -0.752295 -7.52248 0
M  V30 30304 H 2875.11 0.407688 -7.78433 0
M  V30 30305 N 2879.34 1.41929 -0.685124 0
M  V30 30306 C 2880.29 2.30796 -0.0132275 0
M  V30 30307 C 2881.26 1.46534 0.782104 0
M  V30 30308 O 2882.44 1.75345 0.752259 0
M  V30 30309 C 2879.58 3.3248 0.924709 0
M  V30 30310 C 2878.69 4.31827 0.122105 0
M  V30 30311 C 2877.83 5.20583 1.05673 0
M  V30 30312 C 2876.87 6.11604 0.246419 0
M  V30 30313 N 2876 6.92877 1.1343 0
M  V30 30314 H 2880.84 2.87696 -0.77684 0
M  V30 30315 H 2878.38 1.41703 -0.394816 0
M  V30 30316 H 2880.34 3.89974 1.48244 0
M  V30 30317 H 2878.97 2.77155 1.65484 0
M  V30 30318 H 2878.02 3.76368 -0.552401 0
M  V30 30319 H 2879.33 4.96221 -0.50656 0
M  V30 30320 H 2878.49 5.82859 1.68405 0
M  V30 30321 H 2877.23 4.56391 1.71927 0
M  V30 30322 H 2876.23 5.48386 -0.39404 0
M  V30 30323 H 2877.46 6.77848 -0.412172 0
M  V30 30324 H 2875.4 6.31303 1.78305 0
M  V30 30325 H 2875.32 7.53916 0.560956 0
M  V30 30326 H 2876.59 7.59631 1.74875 0
M  V30 30327 N 2880.82 0.429152 1.51644 0
M  V30 30328 C 2882.23 -0.0358675 1.86666 0
M  V30 30329 C 2882.58 -1.42674 1.3468 0
M  V30 30330 O 2881.7 -2.04962 0.694231 0
M  V30 30331 C 2882.3 -0.0718625 3.38724 0
M  V30 30332 C 2880.86 -0.481271 3.73311 0
M  V30 30333 C 2880 0.331377 2.75313 0
M  V30 30334 H 2882.96 0.645358 1.44986 0
M  V30 30335 H 2882.98 -0.883053 3.70111 0
M  V30 30336 H 2882.49 0.940561 3.7653 0
M  V30 30337 H 2880.59 -1.4996 3.41091 0
M  V30 30338 H 2880.7 -0.211753 4.78632 0
M  V30 30339 H 2879.07 -0.209159 2.5384 0
M  V30 30340 H 2879.85 1.34252 3.15961 0
M  V30 30341 N 2882.29 -1.56783 0.160229 0
M  V30 30342 C 2883.26 -2.1622 -0.760367 0
M  V30 30343 C 2884.26 -1.10737 -1.16593 0
M  V30 30344 O 2885.45 -1.36308 -1.0847 0
M  V30 30345 C 2882.58 -2.73606 -2.03353 0
M  V30 30346 H 2883.77 -2.98913 -0.24312 0
M  V30 30347 H 2881.33 -1.56045 -0.0892864 0
M  V30 30348 H 2882.06 -1.94616 -2.59413 0
M  V30 30349 H 2881.85 -3.50791 -1.7518 0
M  V30 30350 H 2883.34 -3.19356 -2.69075 0
M  V30 30351 N 2883.77 0.113531 -1.57191 0
M  V30 30352 C 2885 0.838303 -1.89703 0
M  V30 30353 C 2885.42 1.72383 -0.75271 0
M  V30 30354 O 2884.78 1.78858 0.296544 0
M  V30 30355 C 2884.83 1.64307 -3.20992 0
M  V30 30356 O 2883.93 2.75048 -3.07282 0
M  V30 30357 H 2883.27 0.231485 -0.622343 0
M  V30 30358 H 2885.8 0.0942869 -2.04383 0
M  V30 30359 H 2885.81 2.03116 -3.53847 0
M  V30 30360 H 2884.49 0.993048 -4.0387 0
M  V30 30361 H 2883.07 2.39401 -2.85905 0
M  V30 30362 N 2885.25 1.52854 0.383864 0
M  V30 30363 C 2886.67 1.42219 0.724291 0
M  V30 30364 C 2886.87 0.546688 1.93942 0
M  V30 30365 O 2885.92 0.0221006 2.5249 0
M  V30 30366 C 2887.24 2.85146 0.954584 0
M  V30 30367 C 2888.78 2.94658 1.05574 0
M  V30 30368 C 2889.26 4.38607 1.31863 0
M  V30 30369 N 2890.75 4.41955 1.38673 0
M  V30 30370 C 2891.49 5.50424 1.60689 0
M  V30 30371 N 2890.98 6.6897 1.80142 0
M  V30 30372 N 2892.77 5.37975 1.6291 0
M  V30 30373 H 2884.93 2.08294 -0.415636 0
M  V30 30374 H 2887.19 0.939883 -0.123792 0
M  V30 30375 H 2886.89 3.51446 0.133767 0
M  V30 30376 H 2886.77 3.27707 1.86782 0
M  V30 30377 H 2889.16 2.28523 1.86712 0
M  V30 30378 H 2889.24 2.55517 0.120293 0
M  V30 30379 H 2888.88 5.05309 0.512327 0
M  V30 30380 H 2888.81 4.75305 2.267 0
M  V30 30381 H 2891.3 3.56513 1.25327 0
M  V30 30382 H 2891.61 7.4741 1.96463 0
M  V30 30383 H 2889.96 6.71989 1.77357 0
M  V30 30384 H 2893.15 4.44331 1.47268 0
M  V30 30385 H 2893.32 6.22577 1.79728 0
M  V30 30386 N 2886.73 -0.642612 1.43904 0
M  V30 30387 C 2887.64 -1.78399 1.52352 0
M  V30 30388 C 2888.66 -1.69103 0.409899 0
M  V30 30389 O 2889.83 -1.90084 0.665581 0
M  V30 30390 C 2886.9 -3.14731 1.45414 0
M  V30 30391 C 2885.96 -3.35744 2.67533 0
M  V30 30392 C 2885.19 -4.65573 2.60917 0
M  V30 30393 O 2885.41 -5.45626 1.6628 0
M  V30 30394 O 2884.35 -4.88538 3.51589 0
M  V30 30395 H 2888.17 -1.74225 2.48755 0
M  V30 30396 H 2885.76 -0.802417 1.26022 0
M  V30 30397 H 2887.64 -3.96023 1.44026 0
M  V30 30398 H 2886.32 -3.19472 0.521494 0
M  V30 30399 H 2885.22 -2.54175 2.74492 0
M  V30 30400 H 2886.56 -3.35858 3.59806 0
M  V30 30401 N 2888.21 -1.30611 -0.881966 0
M  V30 30402 C 2889.14 -1.19823 -2.00411 0
M  V30 30403 C 2890.12 -0.0881836 -1.69871 0
M  V30 30404 O 2891.3 -0.270734 -1.92304 0
M  V30 30405 C 2888.43 -0.892389 -3.35639 0
M  V30 30406 C 2887.39 -1.9607 -3.80448 0
M  V30 30407 C 2886.71 -1.50779 -5.13001 0
M  V30 30408 C 2888.01 -3.3722 -3.98849 0
M  V30 30409 H 2889.71 -2.13703 -2.09694 0
M  V30 30410 H 2887.25 -1.02884 -1.00752 0
M  V30 30411 H 2889.21 -0.80357 -4.13667 0
M  V30 30412 H 2887.93 0.0820807 -3.26497 0
M  V30 30413 H 2886.59 -2.03921 -3.0465 0
M  V30 30414 H 2886.24 -0.521504 -5.00289 0
M  V30 30415 H 2885.94 -2.22238 -5.43952 0
M  V30 30416 H 2887.46 -1.43281 -5.93551 0
M  V30 30417 H 2888.88 -3.32111 -4.67306 0
M  V30 30418 H 2887.27 -4.06792 -4.41181 0
M  V30 30419 H 2888.34 -3.78889 -3.02608 0
M  V30 30420 N 2889.69 1.0947 -1.13376 0
M  V30 30421 C 2890.63 2.16093 -0.810719 0
M  V30 30422 C 2891.6 1.64542 0.226975 0
M  V30 30423 O 2892.79 1.90541 0.0993203 0
M  V30 30424 C 2889.93 3.43943 -0.282396 0
M  V30 30425 C 2889.04 4.09396 -1.37909 0
M  V30 30426 C 2888.18 5.25001 -0.809158 0
M  V30 30427 C 2887.21 5.82375 -1.88429 0
M  V30 30428 N 2886.35 6.89343 -1.33233 0
M  V30 30429 H 2891.19 2.43068 -1.72401 0
M  V30 30430 H 2888.73 1.19299 -0.860585 0
M  V30 30431 H 2890.69 4.17179 0.0420455 0
M  V30 30432 H 2889.32 3.17287 0.594028 0
M  V30 30433 H 2888.37 3.34029 -1.82013 0
M  V30 30434 H 2889.68 4.4807 -2.19169 0
M  V30 30435 H 2888.83 6.05132 -0.435973 0
M  V30 30436 H 2887.57 4.87688 0.0345201 0
M  V30 30437 H 2886.58 5.00907 -2.26655 0
M  V30 30438 H 2887.8 6.2175 -2.73136 0
M  V30 30439 H 2885.75 6.54009 -0.51065 0
M  V30 30440 H 2885.67 7.26783 -2.08141 0
M  V30 30441 H 2886.93 7.7323 -0.986701 0
M  V30 30442 N 2891.16 0.92719 1.2744 0
M  V30 30443 C 2892.41 0.568198 1.94678 0
M  V30 30444 C 2892.74 -0.888189 1.72699 0
M  V30 30445 O 2892.02 -1.63352 1.05576 0
M  V30 30446 C 2892.3 0.894314 3.48818 0
M  V30 30447 C 2892.15 2.40442 3.80142 0
M  V30 30448 C 2893.47 0.399843 4.3828 0
M  V30 30449 H 2890.59 0.207905 0.707068 0
M  V30 30450 H 2893.23 1.15888 1.50566 0
M  V30 30451 H 2891.38 0.391634 3.86521 0
M  V30 30452 H 2893.06 2.97875 3.52233 0
M  V30 30453 H 2891.3 2.85381 3.26711 0
M  V30 30454 H 2891.97 2.58313 4.87831 0
M  V30 30455 H 2894.45 0.830652 4.07725 0
M  V30 30456 H 2893.32 0.656981 5.44954 0
M  V30 30457 H 2893.58 -0.700076 4.36522 0
M  V30 30458 N 2892.64 -1.41564 0.692641 0
M  V30 30459 C 2893.87 -2.05603 0.231315 0
M  V30 30460 C 2894.28 -1.52113 -1.11835 0
M  V30 30461 O 2893.64 -0.66816 -1.69829 0
M  V30 30462 C 2893.69 -3.61065 0.177189 0
M  V30 30463 O 2893.41 -4.12576 1.47353 0
M  V30 30464 C 2894.91 -4.42246 -0.305482 0
M  V30 30465 H 2892.13 -0.662211 0.10825 0
M  V30 30466 H 2894.68 -1.81387 0.944401 0
M  V30 30467 H 2892.83 -3.84331 -0.486701 0
M  V30 30468 H 2893.25 -5.06596 1.3587 0
M  V30 30469 H 2894.72 -5.51226 -0.292233 0
M  V30 30470 H 2895.2 -4.18135 -1.34386 0
M  V30 30471 H 2895.8 -4.24039 0.327304 0
M  V30 30472 N 2894.12 -0.437188 -1.51415 0
M  V30 30473 C 2895.37 0.129328 -2.02087 0
M  V30 30474 C 2895.69 1.42725 -1.32135 0
M  V30 30475 O 2894.95 1.91031 -0.42495 0
M  V30 30476 C 2895.25 0.395577 -3.55204 0
M  V30 30477 C 2894.91 -0.816518 -4.43445 0
M  V30 30478 C 2893.58 -1.14892 -4.67283 0
M  V30 30479 C 2895.93 -1.62512 -4.95216 0
M  V30 30480 C 2893.26 -2.29061 -5.40137 0
M  V30 30481 C 2895.61 -2.7578 -5.69322 0
M  V30 30482 C 2894.27 -3.09475 -5.91423 0
M  V30 30483 H 2893.54 0.0473245 -0.739487 0
M  V30 30484 H 2896.19 -0.584353 -1.82367 0
M  V30 30485 H 2894.49 1.19115 -3.73254 0
M  V30 30486 H 2896.19 0.84733 -3.91946 0
M  V30 30487 H 2892.78 -0.547497 -4.25089 0
M  V30 30488 H 2896.97 -1.38152 -4.76684 0
M  V30 30489 H 2892.22 -2.55481 -5.55463 0
M  V30 30490 H 2896.4 -3.38806 -6.08427 0
M  V30 30491 H 2894.02 -3.98054 -6.47655 0
M  V30 30492 N 2895.6 1.56696 -0.168541 0
M  V30 30493 C 2896.84 1.96799 0.477123 0
M  V30 30494 C 2897.17 1.0544 1.6344 0
M  V30 30495 O 2896.43 0.0879247 1.95502 0
M  V30 30496 C 2896.73 3.42998 1.00435 0
M  V30 30497 C 2896.39 4.50885 -0.0367349 0
M  V30 30498 C 2895.05 4.80116 -0.322869 0
M  V30 30499 C 2897.41 5.15869 -0.743537 0
M  V30 30500 C 2894.73 5.71629 -1.32124 0
M  V30 30501 C 2897.09 6.0846 -1.73087 0
M  V30 30502 C 2895.75 6.36059 -2.02448 0
M  V30 30503 H 2895.02 0.720138 0.174592 0
M  V30 30504 H 2897.67 1.89728 -0.259917 0
M  V30 30505 H 2895.97 3.47007 1.81916 0
M  V30 30506 H 2897.67 3.71366 1.51288 0
M  V30 30507 H 2894.26 4.2815 0.196457 0
M  V30 30508 H 2898.44 4.93401 -0.535688 0
M  V30 30509 H 2893.7 5.91297 -1.55493 0
M  V30 30510 H 2897.87 6.57882 -2.28394 0
M  V30 30511 H 2895.5 7.06772 -2.79959 0
M  V30 30512 N 2897.08 -0.105193 1.57249 0
M  V30 30513 C 2898.49 -0.660834 1.74613 0
M  V30 30514 C 2898.84 -1.79625 0.789262 0
M  V30 30515 O 2897.96 -2.16372 -0.034623 0
M  V30 30516 C 2898.56 -1.20553 3.16626 0
M  V30 30517 C 2897.12 -1.70734 3.3545 0
M  V30 30518 C 2896.26 -0.612716 2.70446 0
M  V30 30519 H 2899.21 0.120818 1.58239 0
M  V30 30520 H 2899.24 -2.07502 3.1894 0
M  V30 30521 H 2898.75 -0.378944 3.86246 0
M  V30 30522 H 2896.85 -2.55826 2.70895 0
M  V30 30523 H 2896.96 -1.80728 4.43705 0
M  V30 30524 H 2895.33 -1.04971 2.32063 0
M  V30 30525 H 2896.11 0.203127 3.42699 0
M  V30 30526 N 2898.55 -1.53055 -0.375752 0
M  V30 30527 C 2899.83 -1.59338 -1.1345 0
M  V30 30528 C 2900.21 -0.394651 -2.07378 0
M  V30 30529 O 2899.56 0.615962 -2.20041 0
M  V30 30530 C 2899.77 -2.93872 -1.88255 0
M  V30 30531 C 2901.12 -3.48086 -2.43149 0
M  V30 30532 O 2902.14 -2.95834 -1.98395 0
M  V30 30533 O 2901 -4.39407 -3.24937 0
M  V30 30534 H 2898.09 -0.643188 -0.519845 0
M  V30 30535 H 2900.64 -1.65394 -0.379836 0
M  V30 30536 H 2899.41 -3.7256 -1.19645 0
M  V30 30537 H 2899.04 -2.91261 -2.70653 0
M  V30 30538 N 2900.03 0.634971 -1.44242 0
M  V30 30539 C 2900.96 1.75837 -1.53635 0
M  V30 30540 C 2901.94 1.65577 -0.389632 0
M  V30 30541 O 2903.13 1.84396 -0.609252 0
M  V30 30542 C 2900.26 3.14351 -1.4765 0
M  V30 30543 C 2899.21 3.39395 -2.60758 0
M  V30 30544 C 2898.54 4.77899 -2.39825 0
M  V30 30545 C 2899.84 3.32336 -4.02927 0
M  V30 30546 H 2901.53 1.68234 -2.47665 0
M  V30 30547 H 2899.08 0.807948 -1.19198 0
M  V30 30548 H 2901.03 3.92713 -1.52822 0
M  V30 30549 H 2899.76 3.22729 -0.501341 0
M  V30 30550 H 2898.41 2.63412 -2.54969 0
M  V30 30551 H 2898.06 4.82976 -1.40511 0
M  V30 30552 H 2897.76 4.95615 -3.15658 0
M  V30 30553 H 2899.29 5.58496 -2.46809 0
M  V30 30554 H 2900.7 4.00608 -4.10105 0
M  V30 30555 H 2899.1 3.61586 -4.78932 0
M  V30 30556 H 2900.17 2.30208 -4.2677 0
M  V30 30557 N 2901.51 1.31076 0.875027 0
M  V30 30558 C 2902.46 1.18222 2.00315 0
M  V30 30559 C 2903.45 0.091717 1.69152 0
M  V30 30560 O 2904.66 0.253261 1.78209 0
M  V30 30561 H 2901.03 0.365907 0.656975 0
M  V30 30562 H 2903 2.13678 2.08289 0
M  V30 30563 C 2901.75 0.901154 3.35819 0
M  V30 30564 H 2901.08 1.7324 3.60317 0
M  V30 30565 H 2902.52 0.851368 4.15365 0
M  V30 30566 C 2900.98 -0.396056 3.34564 0
M  V30 30567 O 2901.51 -1.41445 3.75974 0
M  V30 30568 N 2899.71 -0.410781 2.87682 0
M  V30 30569 H 2899.26 0.41846 2.54178 0
M  V30 30570 H 2899.22 -1.27864 2.87225 0
M  V30 30571 N 2902.99 -1.08867 1.13955 0
M  V30 30572 C 2904.24 -1.80802 0.903055 0
M  V30 30573 C 2904.56 -1.86418 -0.572118 0
M  V30 30574 O 2903.83 -1.35388 -1.41587 0
M  V30 30575 H 2902.41 -0.669608 0.33111 0
M  V30 30576 H 2905.07 -1.31645 1.43721 0
M  V30 30577 H 2904.17 -2.83789 1.29885 0
M  V30 30578 N 2904.47 -0.933936 -1.26946 0
M  V30 30579 C 2905.74 -0.495817 -1.89212 0
M  V30 30580 C 2906.12 1.02634 -1.84471 0
M  V30 30581 O 2905.47 1.88321 -1.29412 0
M  V30 30582 C 2905.68 -1.04896 -3.32863 0
M  V30 30583 C 2907.03 -1.11322 -4.09747 0
M  V30 30584 O 2908.05 -0.999026 -3.41903 0
M  V30 30585 O 2906.91 -1.28992 -5.31059 0
M  V30 30586 H 2904.01 -0.160473 -0.811281 0
M  V30 30587 H 2906.55 -1.02603 -1.35169 0
M  V30 30588 H 2905.32 -2.09271 -3.30638 0
M  V30 30589 H 2904.95 -0.500761 -3.94434 0
M  V30 30590 N 2905.94 1.41194 -0.700139 0
M  V30 30591 C 2907.19 2.01453 -0.233387 0
M  V30 30592 C 2907.52 1.55341 1.16545 0
M  V30 30593 O 2906.8 0.766606 1.78755 0
M  V30 30594 C 2907.08 3.5888 -0.296163 0
M  V30 30595 C 2906.93 4.15105 -1.73227 0
M  V30 30596 C 2908.25 4.38773 0.341448 0
M  V30 30597 H 2905.37 0.731932 -0.0862796 0
M  V30 30598 H 2908.01 1.67881 -0.889723 0
M  V30 30599 H 2906.16 3.87611 0.262667 0
M  V30 30600 H 2907.84 3.97232 -2.3453 0
M  V30 30601 H 2906.08 3.69975 -2.26497 0
M  V30 30602 H 2906.75 5.24266 -1.7277 0
M  V30 30603 H 2909.23 4.15882 -0.134534 0
M  V30 30604 H 2908.1 5.4825 0.267002 0
M  V30 30605 H 2908.36 4.18579 1.42281 0
M  V30 30606 N 2907.42 0.445212 1.51181 0
M  V30 30607 C 2908.67 -0.118785 2.02452 0
M  V30 30608 C 2909 -1.41671 1.32827 0
M  V30 30609 O 2908.28 -1.89325 0.44567 0
M  V30 30610 C 2908.56 -0.329412 3.5859 0
M  V30 30611 C 2908.41 0.987715 4.38821 0
M  V30 30612 C 2909.73 -1.09567 4.26243 0
M  V30 30613 H 2906.85 -0.0416963 0.73582 0
M  V30 30614 H 2909.49 0.585749 1.80746 0
M  V30 30615 H 2907.64 -0.929534 3.77216 0
M  V30 30616 H 2909.31 1.62242 4.31828 0
M  V30 30617 H 2907.56 1.59048 4.03592 0
M  V30 30618 H 2908.23 0.794288 5.46255 0
M  V30 30619 H 2910.7 -0.587255 4.11935 0
M  V30 30620 H 2909.58 -1.21182 5.35356 0
M  V30 30621 H 2909.84 -2.12577 3.87638 0
M  V30 30622 N 2908.9 -1.56605 0.176849 0
M  V30 30623 C 2909.86 -2.17014 -0.737391 0
M  V30 30624 C 2910.86 -1.11967 -1.15412 0
M  V30 30625 O 2912.05 -1.37451 -1.07018 0
M  V30 30626 C 2909.19 -2.75748 -2.0044 0
M  V30 30627 H 2910.38 -2.99154 -0.211403 0
M  V30 30628 H 2907.93 -1.56131 -0.0727308 0
M  V30 30629 H 2908.67 -1.97357 -2.57334 0
M  V30 30630 H 2908.45 -3.52629 -1.7145 0
M  V30 30631 H 2909.94 -3.22192 -2.65673 0
M  V30 30632 N 2910.38 0.0968524 -1.57302 0
M  V30 30633 C 2911.63 0.799356 -1.85184 0
M  V30 30634 C 2911.94 1.79984 -0.765849 0
M  V30 30635 O 2913.15 2.55011 -0.93174 0
M  V30 30636 C 2911.6 1.47244 -3.28401 0
M  V30 30637 C 2911.21 0.51181 -4.45067 0
M  V30 30638 C 2912.95 2.15877 -3.6551 0
M  V30 30639 C 2910.86 1.18938 -5.79317 0
M  V30 30640 H 2909.79 0.302275 -0.690758 0
M  V30 30641 H 2912.44 0.0522781 -1.83426 0
M  V30 30642 H 2910.82 2.26691 -3.24696 0
M  V30 30643 H 2912 -0.251043 -4.60116 0
M  V30 30644 H 2910.31 -0.0687308 -4.16343 0
M  V30 30645 H 2912.91 2.67301 -4.63092 0
M  V30 30646 H 2913.25 2.94691 -2.94046 0
M  V30 30647 H 2913.79 1.43292 -3.71096 0
M  V30 30648 H 2910.53 0.442083 -6.54008 0
M  V30 30649 H 2910.05 1.9237 -5.68114 0
M  V30 30650 H 2911.72 1.71636 -6.23819 0
M  V30 30651 N 2911.86 1.53252 0.36763 0
M  V30 30652 C 2913.13 1.59937 1.12603 0
M  V30 30653 C 2913.51 0.405643 2.07166 0
M  V30 30654 O 2912.86 -0.604284 2.20365 0
M  V30 30655 C 2913.07 2.94867 1.86694 0
M  V30 30656 C 2914.42 3.4937 2.413 0
M  V30 30657 O 2915.44 2.96882 1.96823 0
M  V30 30658 O 2914.3 4.41124 3.22602 0
M  V30 30659 H 2911.4 0.645936 0.516426 0
M  V30 30660 H 2913.94 1.65594 0.371059 0
M  V30 30661 H 2912.71 3.73189 1.17668 0
M  V30 30662 H 2912.34 2.92692 2.69104 0
M  V30 30663 N 2913.34 -0.627313 1.44577 0
M  V30 30664 C 2914.57 -1.41186 1.50831 0
M  V30 30665 C 2914.97 -1.88731 0.133116 0
M  V30 30666 O 2914.32 -1.61687 -0.871961 0
M  V30 30667 C 2914.38 -2.66347 2.41453 0
M  V30 30668 C 2914.04 -2.40572 3.88554 0
M  V30 30669 C 2915.04 -2.02162 4.78985 0
M  V30 30670 C 2912.72 -2.54094 4.33291 0
M  V30 30671 C 2914.72 -1.77607 6.12156 0
M  V30 30672 C 2912.41 -2.29153 5.66509 0
M  V30 30673 C 2913.4 -1.90969 6.55759 0
M  V30 30674 O 2913.09 -1.66307 7.86509 0
M  V30 30675 H 2912.82 -0.439295 0.513805 0
M  V30 30676 H 2915.38 -0.774026 1.90258 0
M  V30 30677 H 2913.61 -3.32781 1.96961 0
M  V30 30678 H 2915.3 -3.28357 2.38614 0
M  V30 30679 H 2916.06 -1.91269 4.45692 0
M  V30 30680 H 2911.94 -2.82785 3.64079 0
M  V30 30681 H 2915.49 -1.47727 6.81779 0
M  V30 30682 H 2911.38 -2.39657 5.99362 0
M  V30 30683 H 2912.15 -1.80522 7.98345 0
M  V30 30684 N 2914.81 -1.31539 -0.868063 0
M  V30 30685 C 2915.76 -1.19349 -1.97546 0
M  V30 30686 C 2916.73 -0.0788214 -1.65913 0
M  V30 30687 O 2917.92 -0.252018 -1.89128 0
M  V30 30688 C 2915.06 -0.90875 -3.3292 0
M  V30 30689 C 2914.17 -2.10693 -3.77137 0
M  V30 30690 C 2913.3 -1.75882 -5.01238 0
M  V30 30691 C 2912.34 -2.92097 -5.37908 0
M  V30 30692 N 2911.48 -2.57468 -6.53188 0
M  V30 30693 H 2916.32 -2.14077 -2.07304 0
M  V30 30694 H 2913.86 -1.06489 -1.01481 0
M  V30 30695 H 2915.81 -0.72421 -4.10866 0
M  V30 30696 H 2914.44 0.00170436 -3.228 0
M  V30 30697 H 2913.5 -2.40218 -2.94956 0
M  V30 30698 H 2914.81 -2.9767 -4.00243 0
M  V30 30699 H 2913.96 -1.53901 -5.86855 0
M  V30 30700 H 2912.7 -0.860995 -4.8004 0
M  V30 30701 H 2911.71 -3.14725 -4.50809 0
M  V30 30702 H 2912.93 -3.82592 -5.61071 0
M  V30 30703 H 2910.88 -1.70211 -6.33533 0
M  V30 30704 H 2910.79 -3.37975 -6.76246 0
M  V30 30705 H 2912.06 -2.38886 -7.41993 0
M  V30 30706 N 2916.29 1.08262 -1.1453 0
M  V30 30707 C 2917.24 2.13422 -0.802179 0
M  V30 30708 C 2918.23 1.59532 0.209334 0
M  V30 30709 O 2919.42 1.76996 0.0114548 0
M  V30 30710 C 2916.55 3.42132 -0.282998 0
M  V30 30711 C 2915.63 4.02899 -1.32412 0
M  V30 30712 N 2916.02 4.38053 -2.52869 0
M  V30 30713 C 2914.32 4.30252 -1.17469 0
M  V30 30714 C 2915.02 4.86083 -3.19529 0
M  V30 30715 N 2914 4.8428 -2.46929 0
M  V30 30716 H 2917.8 2.38423 -1.71848 0
M  V30 30717 H 2915.31 1.25608 -1.02938 0
M  V30 30718 H 2917.31 4.16896 -0.0188786 0
M  V30 30719 H 2915.97 3.18579 0.627477 0
M  V30 30720 H 2916.98 4.29035 -2.90085 0
M  V30 30721 H 2913.66 4.16246 -0.323357 0
M  V30 30722 H 2915.05 5.2265 -4.2224 0
M  V30 30723 N 2917.77 0.940655 1.26449 0
M  V30 30724 C 2919 0.6038 1.9758 0
M  V30 30725 C 2919.41 -0.825365 1.70248 0
M  V30 30726 O 2918.75 -1.56187 0.967028 0
M  V30 30727 C 2918.81 0.765525 3.51255 0
M  V30 30728 C 2918.48 2.16922 4.02236 0
M  V30 30729 C 2919.47 3.14464 4.14015 0
M  V30 30730 C 2917.16 2.48966 4.36258 0
M  V30 30731 C 2919.15 4.42151 4.59109 0
M  V30 30732 C 2916.84 3.76885 4.81041 0
M  V30 30733 C 2917.84 4.73291 4.92428 0
M  V30 30734 O 2917.53 5.98932 5.36223 0
M  V30 30735 H 2917.26 0.226447 0.636944 0
M  V30 30736 H 2919.81 1.26353 1.61938 0
M  V30 30737 H 2918.04 0.0486636 3.86669 0
M  V30 30738 H 2919.73 0.431808 4.03597 0
M  V30 30739 H 2920.5 2.91032 3.87976 0
M  V30 30740 H 2916.38 1.74663 4.26631 0
M  V30 30741 H 2919.92 5.17402 4.67911 0
M  V30 30742 H 2915.82 4.0013 5.06524 0
M  V30 30743 H 2916.58 6.02107 5.54445 0
M  V30 30744 N 2919.25 -1.40821 0.707617 0
M  V30 30745 C 2920.48 -2.05346 0.253109 0
M  V30 30746 C 2920.89 -1.53291 -1.10215 0
M  V30 30747 O 2920.25 -0.686135 -1.69111 0
M  V30 30748 C 2920.3 -3.60857 0.215474 0
M  V30 30749 O 2920.02 -4.10989 1.51721 0
M  V30 30750 C 2921.52 -4.42545 -0.258559 0
M  V30 30751 H 2918.74 -0.661025 0.115268 0
M  V30 30752 H 2921.28 -1.80375 0.963586 0
M  V30 30753 H 2919.44 -3.84825 -0.44591 0
M  V30 30754 H 2919.85 -5.05127 1.41235 0
M  V30 30755 H 2921.33 -5.51505 -0.233752 0
M  V30 30756 H 2921.8 -4.19537 -1.29943 0
M  V30 30757 H 2922.41 -4.23668 0.37226 0
M  V30 30758 N 2920.73 -0.453223 -1.50943 0
M  V30 30759 C 2922.14 0.0061661 -1.86699 0
M  V30 30760 C 2922.49 1.40513 -1.36933 0
M  V30 30761 O 2921.61 2.03832 -0.726751 0
M  V30 30762 C 2922.21 0.0179654 -3.38795 0
M  V30 30763 C 2920.77 0.421819 -3.74029 0
M  V30 30764 C 2919.91 -0.375135 -2.74751 0
M  V30 30765 H 2922.86 -0.668343 -1.43941 0
M  V30 30766 H 2922.89 0.82406 -3.71469 0
M  V30 30767 H 2922.4 -1.00034 -3.74986 0
M  V30 30768 H 2920.5 1.44515 -3.43433 0
M  V30 30769 H 2920.61 0.13558 -4.78908 0
M  V30 30770 H 2918.98 0.168749 -2.5414 0
M  V30 30771 H 2919.76 -1.39262 -3.13785 0
M  V30 30772 N 2922.2 1.56509 -0.185151 0
M  V30 30773 C 2923.43 2.02114 0.465242 0
M  V30 30774 C 2923.85 1.0645 1.55081 0
M  V30 30775 O 2923.21 0.0463171 1.81241 0
M  V30 30776 C 2923.26 3.46231 1.00778 0
M  V30 30777 O 2922.36 3.53667 2.12117 0
M  V30 30778 H 2921.7 0.654845 0.10988 0
M  V30 30779 H 2924.23 2.0249 -0.293108 0
M  V30 30780 H 2924.24 3.8582 1.32691 0
M  V30 30781 H 2922.92 4.15354 0.21304 0
M  V30 30782 H 2921.5 3.25946 1.81144 0
M  V30 30783 N 2923.68 -0.0885089 1.57351 0
M  V30 30784 C 2924.93 -0.790791 1.86421 0
M  V30 30785 C 2925.26 -1.78411 0.774593 0
M  V30 30786 O 2924.51 -1.9433 -0.231156 0
M  V30 30787 C 2924.81 -1.54874 3.22101 0
M  V30 30788 C 2924.48 -0.696946 4.45481 0
M  V30 30789 C 2923.14 -0.462153 4.78976 0
M  V30 30790 C 2925.49 -0.105223 5.21094 0
M  V30 30791 C 2922.82 0.374119 5.85506 0
M  V30 30792 C 2925.17 0.718409 6.28507 0
M  V30 30793 C 2923.83 0.963232 6.60514 0
M  V30 30794 H 2923.1 -0.289371 0.682162 0
M  V30 30795 H 2925.75 -0.0520625 1.91429 0
M  V30 30796 H 2924.06 -2.35922 3.12807 0
M  V30 30797 H 2925.75 -2.09663 3.41822 0
M  V30 30798 H 2922.34 -0.890064 4.19256 0
M  V30 30799 H 2926.53 -0.273769 4.95544 0
M  V30 30800 H 2921.78 0.572713 6.08712 0
M  V30 30801 H 2925.96 1.18374 6.86266 0
M  V30 30802 H 2923.58 1.61303 7.4289 0
M  V30 30803 N 2925.16 -1.53445 -0.359498 0
M  V30 30804 C 2926.11 -1.80312 -1.4407 0
M  V30 30805 C 2927.08 -0.647837 -1.52945 0
M  V30 30806 O 2928.26 -0.890644 -1.68737 0
M  V30 30807 C 2925.4 -2.0042 -2.80937 0
M  V30 30808 C 2924.51 -3.28137 -2.8098 0
M  V30 30809 C 2923.65 -3.384 -4.09462 0
M  V30 30810 C 2922.69 -4.60126 -4.03671 0
M  V30 30811 N 2921.83 -4.67509 -5.23813 0
M  V30 30812 H 2926.67 -2.72568 -1.2046 0
M  V30 30813 H 2924.2 -1.35018 -0.583836 0
M  V30 30814 H 2926.16 -2.10067 -3.60455 0
M  V30 30815 H 2924.79 -1.11494 -3.02934 0
M  V30 30816 H 2923.84 -3.27414 -1.9366 0
M  V30 30817 H 2925.15 -4.17737 -2.72575 0
M  V30 30818 H 2924.31 -3.47391 -4.97398 0
M  V30 30819 H 2923.05 -2.46827 -4.20628 0
M  V30 30820 H 2922.05 -4.5123 -3.14121 0
M  V30 30821 H 2923.28 -5.53046 -3.94102 0
M  V30 30822 H 2921.22 -3.7884 -5.35552 0
M  V30 30823 H 2921.14 -5.51022 -5.17601 0
M  V30 30824 H 2922.41 -4.80791 -6.13564 0
M  V30 30825 N 2926.64 0.619637 -1.44908 0
M  V30 30826 C 2927.58 1.73102 -1.52657 0
M  V30 30827 C 2928.55 1.61849 -0.373362 0
M  V30 30828 O 2929.74 1.81605 -0.585174 0
M  V30 30829 C 2926.88 3.11384 -1.48775 0
M  V30 30830 C 2925.99 3.3353 -2.74557 0
M  V30 30831 C 2925.13 4.61849 -2.62429 0
M  V30 30832 C 2924.17 4.77213 -3.83321 0
M  V30 30833 N 2923.3 5.96819 -3.69799 0
M  V30 30834 H 2928.14 1.65815 -2.47607 0
M  V30 30835 H 2925.68 0.808698 -1.22876 0
M  V30 30836 H 2927.64 3.91372 -1.44513 0
M  V30 30837 H 2926.27 3.17659 -0.573839 0
M  V30 30838 H 2925.32 2.47402 -2.88957 0
M  V30 30839 H 2926.63 3.40759 -3.64259 0
M  V30 30840 H 2925.79 5.50014 -2.56065 0
M  V30 30841 H 2924.53 4.56998 -1.70306 0
M  V30 30842 H 2923.53 3.87474 -3.90056 0
M  V30 30843 H 2924.76 4.8387 -4.76495 0
M  V30 30844 H 2922.7 5.93036 -2.80436 0
M  V30 30845 H 2922.62 6.05155 -4.53127 0
M  V30 30846 H 2923.89 6.87515 -3.67347 0
M  V30 30847 N 2928.12 1.31997 0.861075 0
M  V30 30848 C 2929.36 1.2195 1.6116 0
M  V30 30849 C 2929.69 -0.220317 1.93751 0
M  V30 30850 O 2928.96 -1.14338 1.59071 0
M  V30 30851 H 2927.54 0.448364 0.597477 0
M  V30 30852 H 2930.2 1.65438 1.03036 0
M  V30 30853 H 2929.29 1.79756 2.55135 0
M  V30 30854 N 2929.59 -1.07653 1.15103 0
M  V30 30855 C 2930.56 -2.12949 0.847662 0
M  V30 30856 C 2931.56 -1.60088 -0.151199 0
M  V30 30857 O 2932.75 -1.74025 0.0780705 0
M  V30 30858 C 2929.88 -3.39868 0.26506 0
M  V30 30859 H 2931.07 -2.41293 1.78095 0
M  V30 30860 H 2928.63 -1.23492 0.958094 0
M  V30 30861 H 2929.36 -3.17164 -0.67657 0
M  V30 30862 H 2929.15 -3.79536 0.98462 0
M  V30 30863 H 2930.64 -4.17541 0.0702855 0
M  V30 30864 N 2931.07 -0.947348 -1.25949 0
M  V30 30865 C 2932.02 -0.460537 -2.26159 0
M  V30 30866 C 2932.99 0.483097 -1.58919 0
M  V30 30867 O 2934.17 0.397951 -1.86604 0
M  V30 30868 C 2931.31 0.262409 -3.44101 0
M  V30 30869 C 2930.43 -0.717614 -4.25998 0
M  V30 30870 C 2929.56 0.0271552 -5.31193 0
M  V30 30871 C 2928.6 -0.944283 -6.04772 0
M  V30 30872 N 2927.74 -0.230865 -7.0172 0
M  V30 30873 H 2932.58 -1.32 -2.67171 0
M  V30 30874 H 2930.12 -0.662111 -1.31356 0
M  V30 30875 H 2932.07 0.698065 -4.11318 0
M  V30 30876 H 2930.7 1.08596 -3.03985 0
M  V30 30877 H 2929.76 -1.27177 -3.58511 0
M  V30 30878 H 2931.07 -1.45922 -4.76978 0
M  V30 30879 H 2930.22 0.521796 -6.04452 0
M  V30 30880 H 2928.96 0.801598 -4.81067 0
M  V30 30881 H 2927.97 -1.44999 -5.30335 0
M  V30 30882 H 2929.19 -1.71883 -6.56988 0
M  V30 30883 H 2927.14 0.524973 -6.53896 0
M  V30 30884 H 2927.05 -0.911688 -7.50483 0
M  V30 30885 H 2928.32 0.242479 -7.79123 0
M  V30 30886 N 2932.55 1.40444 -0.715075 0
M  V30 30887 C 2933.48 2.33373 -0.0769109 0
M  V30 30888 C 2934.46 1.52865 0.746082 0
M  V30 30889 O 2935.65 1.81334 0.69511 0
M  V30 30890 C 2932.78 3.3684 0.845955 0
M  V30 30891 C 2931.73 4.27807 0.128619 0
M  V30 30892 C 2931.06 5.21806 1.16716 0
M  V30 30893 C 2932.36 5.12305 -1.01688 0
M  V30 30894 H 2934.05 2.86988 -0.853112 0
M  V30 30895 H 2931.6 1.37989 -0.411694 0
M  V30 30896 H 2933.55 4.00789 1.30178 0
M  V30 30897 H 2932.27 2.81618 1.65405 0
M  V30 30898 H 2930.93 3.65309 -0.307378 0
M  V30 30899 H 2930.58 4.6289 1.96829 0
M  V30 30900 H 2930.28 5.8351 0.692085 0
M  V30 30901 H 2931.8 5.88632 1.6231 0
M  V30 30902 H 2933.22 5.69712 -0.640437 0
M  V30 30903 H 2931.62 5.8305 -1.4203 0
M  V30 30904 H 2932.69 4.48314 -1.84777 0
M  V30 30905 N 2934.03 0.461222 1.507 0
M  V30 30906 C 2934.96 -0.328144 2.31183 0
M  V30 30907 C 2935.94 -0.999384 1.37646 0
M  V30 30908 O 2937.12 -0.998451 1.66567 0
M  V30 30909 C 2934.25 -1.41615 3.17116 0
M  V30 30910 C 2933.21 -0.867074 4.19125 0
M  V30 30911 C 2932.53 -2.05263 4.93732 0
M  V30 30912 C 2933.83 0.1149 5.22174 0
M  V30 30913 H 2935.53 0.343553 2.97422 0
M  V30 30914 H 2933.07 0.166666 1.43032 0
M  V30 30915 H 2935.03 -1.97578 3.72211 0
M  V30 30916 H 2933.75 -2.11648 2.48742 0
M  V30 30917 H 2932.41 -0.329493 3.65116 0
M  V30 30918 H 2932.06 -2.73971 4.2184 0
M  V30 30919 H 2931.76 -1.69151 5.62727 0
M  V30 30920 H 2933.28 -2.61734 5.51659 0
M  V30 30921 H 2934.7 -0.355215 5.72198 0
M  V30 30922 H 2933.09 0.389794 5.98833 0
M  V30 30923 H 2934.16 1.044 4.73528 0
M  V30 30924 N 2935.51 -1.56408 0.193449 0
M  V30 30925 C 2936.46 -2.15628 -0.740852 0
M  V30 30926 C 2937.44 -1.09658 -1.17745 0
M  V30 30927 O 2938.63 -1.35725 -1.13612 0
M  V30 30928 C 2935.76 -2.81789 -1.96086 0
M  V30 30929 C 2934.85 -3.94947 -1.54524 0
M  V30 30930 N 2935.24 -4.98768 -0.840481 0
M  V30 30931 C 2933.54 -4.06517 -1.83466 0
M  V30 30932 C 2934.24 -5.78251 -0.632469 0
M  V30 30933 N 2933.21 -5.30623 -1.18069 0
M  V30 30934 H 2937.02 -2.93261 -0.193666 0
M  V30 30935 H 2934.53 -1.62399 -0.00640356 0
M  V30 30936 H 2936.53 -3.22606 -2.64066 0
M  V30 30937 H 2935.19 -2.05643 -2.51278 0
M  V30 30938 H 2936.2 -5.15518 -0.496127 0
M  V30 30939 H 2932.87 -3.41498 -2.40178 0
M  V30 30940 H 2934.26 -6.7186 -0.0735252 0
M  V30 30941 N 2936.98 0.0801629 -1.57396 0
M  V30 30942 C 2937.93 1.09614 -2.03109 0
M  V30 30943 C 2938.9 1.38945 -0.910142 0
M  V30 30944 O 2940.09 1.50154 -1.17721 0
M  V30 30945 C 2937.23 2.40703 -2.47297 0
M  V30 30946 C 2936.34 2.17975 -3.72976 0
M  V30 30947 C 2935.47 3.42569 -4.05981 0
M  V30 30948 C 2934.51 3.15168 -5.24724 0
M  V30 30949 N 2933.65 4.32069 -5.53409 0
M  V30 30950 H 2938.49 0.699339 -2.89678 0
M  V30 30951 H 2936.03 0.33376 -1.43264 0
M  V30 30952 H 2937.99 3.17227 -2.70966 0
M  V30 30953 H 2936.62 2.78202 -1.63718 0
M  V30 30954 H 2935.67 1.32183 -3.56696 0
M  V30 30955 H 2936.98 1.9373 -4.59641 0
M  V30 30956 H 2936.13 4.27493 -4.30505 0
M  V30 30957 H 2934.87 3.69882 -3.17866 0
M  V30 30958 H 2933.88 2.28639 -5.00004 0
M  V30 30959 H 2935.1 2.89186 -6.1445 0
M  V30 30960 H 2933.05 4.59429 -4.68253 0
M  V30 30961 H 2932.97 4.11067 -6.34476 0
M  V30 30962 H 2934.23 5.18014 -5.82479 0
M  V30 30963 N 2938.46 1.53634 0.351355 0
M  V30 30964 C 2939.87 1.62038 0.9274 0
M  V30 30965 C 2940.22 0.496739 1.89808 0
M  V30 30966 O 2939.35 -0.374712 2.13131 0
M  V30 30967 C 2939.94 2.93709 1.68881 0
M  V30 30968 C 2938.5 3.04401 2.21398 0
M  V30 30969 C 2937.65 2.57433 1.0307 0
M  V30 30970 H 2940.6 1.58169 0.12972 0
M  V30 30971 H 2940.62 2.8231 2.55111 0
M  V30 30972 H 2940.13 3.75469 0.982083 0
M  V30 30973 H 2938.24 2.27258 2.9527 0
M  V30 30974 H 2938.35 4.09734 2.48305 0
M  V30 30975 H 2936.71 2.12651 1.40184 0
M  V30 30976 H 2937.5 3.41625 0.338733 0
M  V30 30977 N 2939.94 -0.611943 1.45234 0
M  V30 30978 C 2941.19 -1.36713 1.48298 0
M  V30 30979 C 2941.5 -1.95187 0.127094 0
M  V30 30980 O 2942.71 -2.71477 0.0353543 0
M  V30 30981 C 2941.16 -2.47623 2.61172 0
M  V30 30982 C 2940.77 -1.9558 4.03054 0
M  V30 30983 C 2942.52 -3.24669 2.73478 0
M  V30 30984 C 2940.42 -3.03945 5.07318 0
M  V30 30985 H 2939.35 -0.513831 0.551809 0
M  V30 30986 H 2942 -0.656329 1.71361 0
M  V30 30987 H 2940.39 -3.21368 2.31384 0
M  V30 30988 H 2941.56 -1.28573 4.42499 0
M  V30 30989 H 2939.88 -1.31291 3.9516 0
M  V30 30990 H 2942.47 -4.05488 3.48545 0
M  V30 30991 H 2942.82 -3.75394 1.79959 0
M  V30 30992 H 2943.35 -2.58022 3.02769 0
M  V30 30993 H 2940.09 -2.58143 6.0253 0
M  V30 30994 H 2939.61 -3.69533 4.72446 0
M  V30 30995 H 2941.29 -3.68401 5.31874 0
M  V30 30996 N 2941.42 -1.32452 -0.854063 0
M  V30 30997 C 2942.66 -1.23228 -1.61067 0
M  V30 30998 C 2943 0.205315 -1.93112 0
M  V30 30999 O 2942.27 1.14262 -1.57399 0
M  V30 31000 C 2942.56 -2.09254 -2.93061 0
M  V30 31001 C 2942.41 -3.61395 -2.67794 0
M  V30 31002 C 2943.73 -1.95413 -3.94337 0
M  V30 31003 H 2940.85 -0.448996 -0.584441 0
M  V30 31004 H 2943.49 -1.62403 -0.98616 0
M  V30 31005 H 2941.64 -1.75974 -3.4636 0
M  V30 31006 H 2943.31 -4.04891 -2.21045 0
M  V30 31007 H 2941.55 -3.84031 -2.01749 0
M  V30 31008 H 2942.22 -4.16914 -3.61783 0
M  V30 31009 H 2944.7 -2.24568 -3.50297 0
M  V30 31010 H 2943.58 -2.5788 -4.8455 0
M  V30 31011 H 2943.84 -0.921941 -4.3238 0
M  V30 31012 N 2942.9 1.07041 -1.15672 0
M  V30 31013 C 2944.14 1.80119 -0.94491 0
M  V30 31014 C 2944.5 1.85178 0.522207 0
M  V30 31015 O 2943.79 1.32681 1.38226 0
M  V30 31016 C 2943.99 3.24546 -1.49683 0
M  V30 31017 C 2943.81 3.33561 -3.01608 0
M  V30 31018 C 2942.58 3.43937 -3.70183 0
M  V30 31019 C 2944.78 3.24052 -3.99368 0
M  V30 31020 N 2942.76 3.41887 -5.09888 0
M  V30 31021 C 2944.14 3.29158 -5.2541 0
M  V30 31022 C 2946.19 3.07884 -3.91295 0
M  V30 31023 C 2944.89 3.19758 -6.44319 0
M  V30 31024 C 2946.92 2.9982 -5.09767 0
M  V30 31025 C 2946.28 3.0554 -6.34684 0
M  V30 31026 H 2942.38 0.672277 -0.399459 0
M  V30 31027 H 2944.96 1.27746 -1.46932 0
M  V30 31028 H 2943.14 3.75332 -0.999007 0
M  V30 31029 H 2944.87 3.85762 -1.22352 0
M  V30 31030 H 2941.62 3.48415 -3.20786 0
M  V30 31031 H 2942.05 3.44383 -5.82863 0
M  V30 31032 H 2946.69 3.02313 -2.95579 0
M  V30 31033 H 2944.41 3.24088 -7.40265 0
M  V30 31034 H 2947.99 2.88409 -5.05284 0
M  V30 31035 H 2946.87 2.99348 -7.24817 0
M  V30 31036 N 2944.38 0.954014 1.25445 0
M  V30 31037 C 2945.33 0.444452 2.23626 0
M  V30 31038 C 2946.31 -0.465966 1.54005 0
M  V30 31039 O 2947.5 -0.299119 1.74454 0
M  V30 31040 C 2944.63 -0.277115 3.4218 0
M  V30 31041 C 2943.72 0.651337 4.19069 0
M  V30 31042 N 2944.11 1.78271 4.73343 0
M  V30 31043 C 2942.41 0.459416 4.43628 0
M  V30 31044 C 2943.11 2.36233 5.31572 0
M  V30 31045 N 2942.08 1.64893 5.17988 0
M  V30 31046 H 2945.88 1.3079 2.63194 0
M  V30 31047 H 2943.4 0.811427 1.40676 0
M  V30 31048 H 2945.4 -0.659294 4.11654 0
M  V30 31049 H 2944.06 -1.13717 3.04136 0
M  V30 31050 H 2945.07 2.16458 4.70496 0
M  V30 31051 H 2941.74 -0.357812 4.15964 0
M  V30 31052 H 2943.13 3.3163 5.84355 0
M  V30 31053 N 2945.85 -1.40063 0.722513 0
M  V30 31054 C 2947.1 -2.01056 0.265406 0
M  V30 31055 C 2947.43 -1.57176 -1.14059 0
M  V30 31056 O 2946.71 -0.794947 -1.77513 0
M  V30 31057 C 2946.99 -3.58363 0.35322 0
M  V30 31058 C 2946.84 -4.12297 1.79809 0
M  V30 31059 C 2948.16 -4.39261 -0.2716 0
M  V30 31060 H 2945.28 -0.730467 0.0979131 0
M  V30 31061 H 2947.92 -1.66444 0.916319 0
M  V30 31062 H 2946.07 -3.8798 -0.200969 0
M  V30 31063 H 2947.75 -3.93451 2.4082 0
M  V30 31064 H 2945.99 -3.66325 2.32354 0
M  V30 31065 H 2946.66 -5.21451 1.81088 0
M  V30 31066 H 2949.14 -4.15616 0.20068 0
M  V30 31067 H 2948.01 -5.48606 -0.179746 0
M  V30 31068 H 2948.27 -4.2079 -1.35604 0
M  V30 31069 N 2947.33 -0.469207 -1.50453 0
M  V30 31070 C 2948.28 0.339993 -2.30102 0
M  V30 31071 C 2949.27 0.992111 -1.37308 0
M  V30 31072 O 2950.48 0.923431 -1.54508 0
M  V30 31073 H 2946.85 0.128482 -0.740943 0
M  V30 31074 H 2948.83 -0.352196 -2.96314 0
M  V30 31075 C 2947.57 1.41047 -3.17807 0
M  V30 31076 H 2946.9 0.918055 -3.89117 0
M  V30 31077 H 2948.34 1.94927 -3.76536 0
M  V30 31078 C 2946.8 2.41136 -2.35277 0
M  V30 31079 O 2947.33 3.46366 -2.03454 0
M  V30 31080 N 2945.53 2.12807 -1.97893 0
M  V30 31081 H 2945.08 1.27257 -2.23972 0
M  V30 31082 H 2945.04 2.80009 -1.42976 0
M  V30 31083 N 2948.81 1.56303 -0.201741 0
M  V30 31084 C 2949.76 2.20745 0.733094 0
M  V30 31085 C 2950.75 1.18066 1.21478 0
M  V30 31086 O 2951.96 1.36195 1.1769 0
M  V30 31087 H 2948.33 0.707526 0.254777 0
M  V30 31088 H 2950.3 2.97938 0.165944 0
M  V30 31089 C 2949.05 2.886 1.9392 0
M  V30 31090 H 2948.38 3.67356 1.57764 0
M  V30 31091 H 2949.82 3.37118 2.57152 0
M  V30 31092 C 2948.27 1.89993 2.78216 0
M  V30 31093 O 2948.8 1.40439 3.76351 0
M  V30 31094 N 2947.01 1.58077 2.43845 0
M  V30 31095 H 2946.56 1.98568 1.64099 0
M  V30 31096 H 2946.52 0.923577 3.00529 0
M  V30 31097 N 2950.29 -0.0718147 1.57436 0
M  V30 31098 C 2951.25 -1.06973 2.02705 0
M  V30 31099 C 2952.25 -1.31595 0.924085 0
M  V30 31100 O 2953.44 -1.27316 1.18896 0
M  V30 31101 C 2950.57 -2.41338 2.40767 0
M  V30 31102 H 2951.77 -0.679568 2.92099 0
M  V30 31103 H 2949.32 -0.317538 1.5304 0
M  V30 31104 H 2950.05 -2.85187 1.54399 0
M  V30 31105 H 2949.84 -2.24809 3.21253 0
M  V30 31106 H 2951.33 -3.13068 2.76366 0
M  V30 31107 N 2951.77 -1.53818 -0.343203 0
M  V30 31108 C 2952.99 -1.75019 -1.10345 0
M  V30 31109 C 2953.41 -0.489507 -1.82344 0
M  V30 31110 O 2952.77 0.538855 -1.74363 0
M  V30 31111 C 2952.82 -2.93052 -2.11667 0
M  V30 31112 O 2952.54 -4.14244 -1.42596 0
M  V30 31113 C 2954.04 -3.26307 -3.00065 0
M  V30 31114 H 2951.26 -0.584782 -0.329046 0
M  V30 31115 H 2953.8 -2.00643 -0.395304 0
M  V30 31116 H 2951.96 -2.69758 -2.78046 0
M  V30 31117 H 2952.37 -4.805 -2.10286 0
M  V30 31118 H 2953.85 -4.12245 -3.67094 0
M  V30 31119 H 2954.32 -2.42625 -3.66101 0
M  V30 31120 H 2954.93 -3.51608 -2.39274 0
M  V30 31121 N 2953.24 0.604233 -1.45557 0
M  V30 31122 C 2954.19 1.73587 -1.54823 0
M  V30 31123 C 2955.19 1.64162 -0.417995 0
M  V30 31124 O 2956.39 1.69915 -0.594037 0
M  V30 31125 H 2952.77 0.573547 -0.486362 0
M  V30 31126 H 2954.74 1.62899 -2.50013 0
M  V30 31127 C 2953.49 3.11969 -1.53527 0
M  V30 31128 H 2952.81 3.19882 -2.39824 0
M  V30 31129 H 2954.25 3.9097 -1.64068 0
M  V30 31130 C 2952.71 3.35893 -0.26025 0
M  V30 31131 O 2953.24 3.96266 0.658512 0
M  V30 31132 N 2951.44 2.90187 -0.15489 0
M  V30 31133 H 2950.99 2.41239 -0.90342 0
M  V30 31134 H 2950.95 3.06568 0.697384 0
M  V30 31135 N 2954.72 1.32903 0.847027 0
M  V30 31136 C 2955.67 1.22477 1.95622 0
M  V30 31137 C 2956.64 0.105207 1.65766 0
M  V30 31138 O 2957.82 0.282075 1.88703 0
M  V30 31139 C 2954.96 0.9616 3.31432 0
M  V30 31140 C 2954.08 2.16667 3.73737 0
M  V30 31141 C 2953.21 1.83834 4.98376 0
M  V30 31142 C 2952.25 3.00618 5.33193 0
M  V30 31143 N 2951.39 2.67827 6.49009 0
M  V30 31144 H 2956.23 2.17348 2.03872 0
M  V30 31145 H 2953.76 1.0809 0.997745 0
M  V30 31146 H 2955.72 0.789484 4.09662 0
M  V30 31147 H 2954.35 0.0496505 3.22762 0
M  V30 31148 H 2953.4 2.44881 2.91097 0
M  V30 31149 H 2954.72 3.04 3.95456 0
M  V30 31150 H 2953.87 1.63218 5.84333 0
M  V30 31151 H 2952.61 0.937256 4.78609 0
M  V30 31152 H 2951.61 3.21857 4.45745 0
M  V30 31153 H 2952.84 3.9147 5.54913 0
M  V30 31154 H 2950.79 1.80269 6.30745 0
M  V30 31155 H 2950.7 3.4869 6.70784 0
M  V30 31156 H 2951.97 2.5066 7.38099 0
M  V30 31157 N 2956.2 -1.06426 1.16238 0
M  V30 31158 C 2957.16 -2.12038 0.870201 0
M  V30 31159 C 2958.16 -1.60239 -0.134211 0
M  V30 31160 O 2959.35 -1.73932 0.0965238 0
M  V30 31161 C 2956.48 -3.39568 0.301093 0
M  V30 31162 H 2957.68 -2.3939 1.80644 0
M  V30 31163 H 2955.23 -1.22469 0.971138 0
M  V30 31164 H 2955.97 -3.17864 -0.642892 0
M  V30 31165 H 2955.75 -3.7847 1.02482 0
M  V30 31166 H 2957.24 -4.17443 0.114567 0
M  V30 31167 N 2957.68 -0.960653 -1.24937 0
M  V30 31168 C 2958.91 -0.636079 -1.9688 0
M  V30 31169 C 2959.32 0.793063 -1.71336 0
M  V30 31170 O 2958.68 1.53124 -0.992944 0
M  V30 31171 C 2958.73 -0.892595 -3.50307 0
M  V30 31172 O 2958.45 -2.26555 -3.74973 0
M  V30 31173 C 2959.95 -0.581237 -4.39473 0
M  V30 31174 H 2957.17 -0.237942 -0.627395 0
M  V30 31175 H 2959.72 -1.28667 -1.5895 0
M  V30 31176 H 2957.87 -0.288325 -3.86326 0
M  V30 31177 H 2958.28 -2.34022 -4.69397 0
M  V30 31178 H 2959.76 -0.811221 -5.46007 0
M  V30 31179 H 2960.24 0.484353 -4.36521 0
M  V30 31180 H 2960.84 -1.1651 -4.0903 0
M  V30 31181 N 2959.16 1.39677 -0.729931 0
M  V30 31182 C 2960.39 2.0462 -0.285331 0
M  V30 31183 C 2960.79 1.55137 1.08301 0
M  V30 31184 O 2960.14 0.709176 1.69459 0
M  V30 31185 C 2960.2 3.58925 -0.203192 0
M  V30 31186 C 2959.86 4.31362 -1.50917 0
M  V30 31187 C 2960.86 4.58345 -2.45389 0
M  V30 31188 C 2958.55 4.70003 -1.77206 0
M  V30 31189 C 2960.54 5.22972 -3.64388 0
M  V30 31190 C 2958.23 5.3436 -2.96484 0
M  V30 31191 C 2959.22 5.60776 -3.89896 0
M  V30 31192 O 2958.91 6.23799 -5.0708 0
M  V30 31193 H 2958.64 0.664644 -0.123385 0
M  V30 31194 H 2961.2 1.79805 -0.992933 0
M  V30 31195 H 2959.43 3.82617 0.560471 0
M  V30 31196 H 2961.12 4.05363 0.20874 0
M  V30 31197 H 2961.88 4.28943 -2.26347 0
M  V30 31198 H 2957.76 4.48802 -1.05345 0
M  V30 31199 H 2961.31 5.43507 -4.37316 0
M  V30 31200 H 2957.2 5.63183 -3.15429 0
M  V30 31201 H 2957.97 6.42294 -5.07347 0
M  V30 31202 N 2960.63 0.47718 1.50202 0
M  V30 31203 C 2961.58 -0.31382 2.28657 0
M  V30 31204 C 2962.55 -0.981778 1.33979 0
M  V30 31205 O 2963.74 -0.993043 1.62921 0
M  V30 31206 C 2960.88 -1.38633 3.1603 0
M  V30 31207 C 2959.99 -0.73254 4.25744 0
M  V30 31208 C 2959.12 -1.78346 5.00366 0
M  V30 31209 C 2958.16 -1.11025 6.01947 0
M  V30 31210 N 2957.3 -2.10429 6.69824 0
M  V30 31211 H 2962.14 0.361497 2.95799 0
M  V30 31212 H 2959.68 0.190119 1.45866 0
M  V30 31213 H 2961.64 -2.01988 3.65043 0
M  V30 31214 H 2960.27 -2.03073 2.50921 0
M  V30 31215 H 2959.32 0.0137214 3.80398 0
M  V30 31216 H 2960.63 -0.201425 4.98393 0
M  V30 31217 H 2959.78 -2.49266 5.53129 0
M  V30 31218 H 2958.52 -2.34839 4.27436 0
M  V30 31219 H 2957.53 -0.386701 5.48438 0
M  V30 31220 H 2958.75 -0.552129 6.76852 0
M  V30 31221 H 2956.7 -2.65928 5.99682 0
M  V30 31222 H 2956.62 -1.62319 7.38369 0
M  V30 31223 H 2957.88 -2.80711 7.27201 0
M  V30 31224 N 2962.11 -1.56194 0.210027 0
M  V30 31225 C 2963.52 -1.84275 -0.29991 0
M  V30 31226 C 2963.87 -1.13113 -1.60312 0
M  V30 31227 O 2963 -0.396911 -2.12729 0
M  V30 31228 C 2963.59 -3.34291 -0.550927 0
M  V30 31229 C 2962.15 -3.6273 -1.0052 0
M  V30 31230 C 2961.3 -2.77231 -0.0619341 0
M  V30 31231 H 2964.25 -1.52665 0.433485 0
M  V30 31232 H 2964.27 -3.53872 -1.3984 0
M  V30 31233 H 2963.78 -3.86057 0.397737 0
M  V30 31234 H 2961.89 -3.1641 -1.96762 0
M  V30 31235 H 2962 -4.70807 -0.887581 0
M  V30 31236 H 2960.36 -2.48318 -0.566605 0
M  V30 31237 H 2961.15 -3.31791 0.881441 0
M  V30 31238 N 2963.59 0.0634645 -1.57472 0
M  V30 31239 C 2964.54 1.0932 -2.05309 0
M  V30 31240 C 2965.53 1.39571 -0.960019 0
M  V30 31241 O 2966.74 1.3888 -1.1451 0
M  V30 31242 H 2963.11 0.369915 -0.654727 0
M  V30 31243 H 2965.08 0.663656 -2.90926 0
M  V30 31244 C 2963.83 2.39609 -2.51958 0
M  V30 31245 H 2963.16 2.17184 -3.35665 0
M  V30 31246 H 2964.6 3.10087 -2.89175 0
M  V30 31247 C 2963.06 3.06158 -1.40602 0
M  V30 31248 O 2963.59 3.94583 -0.752792 0
M  V30 31249 N 2961.79 2.66917 -1.14907 0
M  V30 31250 H 2961.34 1.95099 -1.68208 0
M  V30 31251 H 2961.3 3.11767 -0.406061 0
M  V30 31252 N 2965.07 1.53998 0.33504 0
M  V30 31253 C 2966.3 1.75602 1.09415 0
M  V30 31254 C 2966.71 0.49917 1.82082 0
M  V30 31255 O 2966.07 -0.529601 1.74647 0
M  V30 31256 C 2966.12 2.9417 2.1011 0
M  V30 31257 O 2965.84 4.14994 1.40397 0
M  V30 31258 C 2967.34 3.27893 2.9833 0
M  V30 31259 H 2964.56 0.586519 0.32594 0
M  V30 31260 H 2967.11 2.0085 0.384658 0
M  V30 31261 H 2965.26 2.71228 2.76611 0
M  V30 31262 H 2965.67 4.81608 2.07734 0
M  V30 31263 H 2967.15 4.14186 3.64902 0
M  V30 31264 H 2967.63 2.44563 3.64809 0
M  V30 31265 H 2968.23 3.52872 2.37406 0
M  V30 31266 N 2966.55 -0.596505 1.45875 0
M  V30 31267 C 2967.79 -1.35515 1.51681 0
M  V30 31268 C 2968.15 -1.91728 0.160714 0
M  V30 31269 O 2967.44 -1.72744 -0.828856 0
M  V30 31270 C 2967.63 -2.51395 2.54038 0
M  V30 31271 C 2967.46 -2.06531 3.99468 0
M  V30 31272 C 2966.23 -1.92188 4.67324 0
M  V30 31273 C 2968.43 -1.63327 4.87677 0
M  V30 31274 N 2966.41 -1.41251 5.97429 0
M  V30 31275 C 2967.78 -1.23884 6.07497 0
M  V30 31276 C 2969.84 -1.5102 4.74444 0
M  V30 31277 C 2968.54 -0.733614 7.15549 0
M  V30 31278 C 2970.57 -1.019 5.82555 0
M  V30 31279 C 2969.93 -0.63428 7.01538 0
M  V30 31280 H 2966.03 -0.489382 0.609942 0
M  V30 31281 H 2968.61 -0.680714 1.82413 0
M  V30 31282 H 2966.78 -3.1642 2.2524 0
M  V30 31283 H 2968.52 -3.18308 2.49924 0
M  V30 31284 H 2965.27 -2.13713 4.22639 0
M  V30 31285 H 2965.7 -1.17983 6.6664 0
M  V30 31286 H 2970.34 -1.79386 3.82858 0
M  V30 31287 H 2968.06 -0.437514 8.06915 0
M  V30 31288 H 2971.64 -0.927876 5.74353 0
M  V30 31289 H 2970.52 -0.260052 7.83769 0
M  V30 31290 N 2968.02 -1.3335 -0.839967 0
M  V30 31291 C 2969.26 -1.26076 -1.60886 0
M  V30 31292 C 2969.63 0.171257 -1.91235 0
M  V30 31293 O 2970.83 0.367944 -2.6627 0
M  V30 31294 C 2969.1 -2.11047 -2.88434 0
M  V30 31295 S 2970.66 -2.20951 -3.79112 0
M  V30 31296 H 2967.48 -0.448555 -0.551652 0
M  V30 31297 H 2970.08 -1.6837 -0.993561 0
M  V30 31298 H 2968.78 -3.14126 -2.64108 0
M  V30 31299 H 2968.31 -1.69585 -3.54971 0
M  V30 31300 H 2970.33 -1.36977 -4.76919 0
M  V30 31301 N 2969.5 1.05808 -1.16801 0
M  V30 31302 C 2970.75 1.78086 -0.947012 0
M  V30 31303 C 2971.06 1.88395 0.525983 0
M  V30 31304 O 2972.27 2.57351 0.865016 0
M  V30 31305 C 2970.73 3.20099 -1.64513 0
M  V30 31306 C 2970.33 3.1794 -3.15623 0
M  V30 31307 C 2972.08 3.96877 -1.50629 0
M  V30 31308 C 2969.99 4.54703 -3.78152 0
M  V30 31309 H 2968.92 0.667487 -0.350681 0
M  V30 31310 H 2971.57 1.18642 -1.39987 0
M  V30 31311 H 2969.95 3.79832 -1.12 0
M  V30 31312 H 2971.12 2.67762 -3.7502 0
M  V30 31313 H 2969.44 2.54662 -3.29449 0
M  V30 31314 H 2972.03 4.97983 -1.94722 0
M  V30 31315 H 2972.38 4.13796 -0.455937 0
M  V30 31316 H 2972.91 3.43678 -2.00325 0
M  V30 31317 H 2969.65 4.4299 -4.83157 0
M  V30 31318 H 2969.17 5.05056 -3.23541 0
M  V30 31319 H 2970.85 5.23653 -3.79995 0
M  V30 31320 N 2970.98 0.967265 1.24426 0
M  V30 31321 C 2972.4 0.673725 1.44683 0
M  V30 31322 C 2972.6 -0.764593 1.8643 0
M  V30 31323 O 2971.65 -1.53853 2.00213 0
M  V30 31324 C 2972.97 1.65745 2.50897 0
M  V30 31325 C 2974.51 1.67003 2.64725 0
M  V30 31326 C 2974.99 2.64171 3.74136 0
M  V30 31327 N 2976.48 2.62611 3.81562 0
M  V30 31328 C 2977.21 3.3447 4.65744 0
M  V30 31329 N 2976.71 4.15844 5.54117 0
M  V30 31330 N 2978.5 3.23297 4.59821 0
M  V30 31331 H 2970.65 1.89657 0.956242 0
M  V30 31332 H 2972.92 0.8165 0.481696 0
M  V30 31333 H 2972.62 2.68542 2.27109 0
M  V30 31334 H 2972.5 1.42988 3.49048 0
M  V30 31335 H 2974.88 0.649172 2.87871 0
M  V30 31336 H 2974.97 1.93822 1.66933 0
M  V30 31337 H 2974.61 3.66391 3.51739 0
M  V30 31338 H 2974.54 2.34631 4.7144 0
M  V30 31339 H 2977.03 2.03544 3.18399 0
M  V30 31340 H 2977.34 4.67564 6.15308 0
M  V30 31341 H 2975.69 4.19939 5.53784 0
M  V30 31342 H 2978.88 2.59186 3.89795 0
M  V30 31343 H 2979.05 3.79562 5.25201 0
M  V30 31344 N 2972.46 -1.39288 0.737328 0
M  V30 31345 C 2973.7 -2.02318 0.291002 0
M  V30 31346 C 2974.06 -1.57246 -1.10171 0
M  V30 31347 O 2975.26 -2.12491 -1.64624 0
M  V30 31348 C 2973.54 -3.55246 0.391829 0
M  V30 31349 S 2975.09 -4.38792 0.0256875 0
M  V30 31350 H 2971.91 -0.701822 0.113875 0
M  V30 31351 H 2974.51 -1.7006 0.964358 0
M  V30 31352 H 2973.22 -3.85539 1.40669 0
M  V30 31353 H 2972.75 -3.9226 -0.299269 0
M  V30 31354 H 2974.76 -4.81724 -1.18982 0
M  V30 31355 N 2973.94 -0.485139 -1.49947 0
M  V30 31356 C 2974.87 0.291323 -2.31676 0
M  V30 31357 C 2975.85 0.977359 -1.39218 0
M  V30 31358 O 2977.03 0.971825 -1.68134 0
M  V30 31359 C 2974.16 1.36552 -3.19329 0
M  V30 31360 C 2973.12 0.800285 -4.20451 0
M  V30 31361 C 2972.44 1.97382 -4.96935 0
M  V30 31362 C 2973.74 -0.197959 -5.21925 0
M  V30 31363 H 2975.44 -0.390827 -2.96838 0
M  V30 31364 H 2972.98 -0.189401 -1.42749 0
M  V30 31365 H 2974.94 1.91631 -3.75307 0
M  V30 31366 H 2973.66 2.07664 -2.52078 0
M  V30 31367 H 2972.32 0.271364 -3.65594 0
M  V30 31368 H 2971.97 2.67225 -4.26145 0
M  V30 31369 H 2971.67 1.60177 -5.65347 0
M  V30 31370 H 2973.19 2.52925 -5.55753 0
M  V30 31371 H 2974.61 0.264138 -5.72691 0
M  V30 31372 H 2973 -0.485014 -5.98137 0
M  V30 31373 H 2974.07 -1.1192 -4.71807 0
M  V30 31374 N 2975.42 1.56081 -0.218307 0
M  V30 31375 C 2976.66 1.99263 0.408146 0
M  V30 31376 C 2977.02 1.1034 1.57616 0
M  V30 31377 O 2976.31 0.152664 1.90991 0
M  V30 31378 C 2976.5 3.46019 0.894722 0
M  V30 31379 C 2976.33 4.49139 -0.224607 0
M  V30 31380 C 2975.1 5.00568 -0.689931 0
M  V30 31381 C 2977.3 5.03639 -1.04174 0
M  V30 31382 N 2975.28 5.87387 -1.78466 0
M  V30 31383 C 2976.65 5.87352 -1.98539 0
M  V30 31384 C 2978.71 4.86011 -1.08154 0
M  V30 31385 C 2977.41 6.5532 -2.96561 0
M  V30 31386 C 2979.44 5.54736 -2.04992 0
M  V30 31387 C 2978.8 6.38214 -2.98097 0
M  V30 31388 H 2974.9 0.773332 0.116113 0
M  V30 31389 H 2977.48 1.91894 -0.329334 0
M  V30 31390 H 2975.65 3.53842 1.60157 0
M  V30 31391 H 2977.39 3.76125 1.49372 0
M  V30 31392 H 2974.14 4.72777 -0.279105 0
M  V30 31393 H 2974.56 6.35498 -2.33392 0
M  V30 31394 H 2979.21 4.21128 -0.375655 0
M  V30 31395 H 2976.92 7.19387 -3.68113 0
M  V30 31396 H 2980.51 5.43064 -2.08742 0
M  V30 31397 H 2979.39 6.90456 -3.71807 0
M  V30 31398 N 2976.89 -0.0551124 1.57504 0
M  V30 31399 C 2978.12 -0.767318 1.92684 0
M  V30 31400 C 2978.54 -1.69471 0.81617 0
M  V30 31401 O 2977.9 -1.79836 -0.229957 0
M  V30 31402 C 2977.95 -1.5228 3.26869 0
M  V30 31403 O 2977.05 -2.63454 3.17279 0
M  V30 31404 H 2976.39 -0.208227 0.630506 0
M  V30 31405 H 2978.92 -0.0183666 2.04592 0
M  V30 31406 H 2978.93 -1.89844 3.61142 0
M  V30 31407 H 2977.61 -0.84247 4.07278 0
M  V30 31408 H 2976.19 -2.28624 2.94593 0
M  V30 31409 N 2978.37 -1.54173 -0.326869 0
M  V30 31410 C 2979.6 -1.76179 -1.08483 0
M  V30 31411 C 2980.01 -0.508819 -1.81814 0
M  V30 31412 O 2979.37 0.520331 -1.74925 0
M  V30 31413 C 2979.42 -2.9528 -2.08547 0
M  V30 31414 O 2979.14 -4.15733 -1.38194 0
M  V30 31415 C 2980.64 -3.29471 -2.96587 0
M  V30 31416 H 2977.86 -0.588239 -0.322825 0
M  V30 31417 H 2980.41 -2.01051 -0.374001 0
M  V30 31418 H 2978.56 -2.72692 -2.75169 0
M  V30 31419 H 2978.98 -4.82703 -2.05177 0
M  V30 31420 H 2980.45 -4.16116 -3.62701 0
M  V30 31421 H 2980.93 -2.46494 -3.63507 0
M  V30 31422 H 2981.53 -3.54126 -2.35531 0
M  V30 31423 N 2979.85 0.58876 -1.4619 0
M  V30 31424 C 2980.8 1.69825 -1.56295 0
M  V30 31425 C 2981.77 1.61021 -0.407609 0
M  V30 31426 O 2982.95 1.80323 -0.623564 0
M  V30 31427 C 2980.09 3.08158 -1.55346 0
M  V30 31428 C 2979.2 3.27631 -2.8157 0
M  V30 31429 C 2978.34 4.56179 -2.72166 0
M  V30 31430 C 2977.38 4.68974 -3.93357 0
M  V30 31431 N 2976.52 5.88841 -3.82375 0
M  V30 31432 H 2981.36 1.60525 -2.51069 0
M  V30 31433 H 2978.89 0.782452 -1.24564 0
M  V30 31434 H 2980.85 3.88218 -1.52783 0
M  V30 31435 H 2979.48 3.1637 -0.64109 0
M  V30 31436 H 2978.53 2.41218 -2.9414 0
M  V30 31437 H 2979.84 3.32956 -3.71405 0
M  V30 31438 H 2979 5.44459 -2.67674 0
M  V30 31439 H 2977.74 4.53283 -1.79961 0
M  V30 31440 H 2976.74 3.79113 -3.98187 0
M  V30 31441 H 2977.97 4.73654 -4.86651 0
M  V30 31442 H 2975.91 5.86954 -2.92952 0
M  V30 31443 H 2975.83 5.95407 -4.65861 0
M  V30 31444 H 2977.1 6.79568 -3.81848 0
M  V30 31445 N 2981.33 1.33794 0.832883 0
M  V30 31446 C 2982.74 1.22965 1.40487 0
M  V30 31447 C 2983.09 -0.148991 1.95633 0
M  V30 31448 O 2982.21 -1.04887 1.89282 0
M  V30 31449 C 2982.81 2.22631 2.55383 0
M  V30 31450 C 2981.37 2.15624 3.08518 0
M  V30 31451 C 2980.52 2.09785 1.81343 0
M  V30 31452 H 2983.47 1.45305 0.638131 0
M  V30 31453 H 2983.49 1.83752 3.3319 0
M  V30 31454 H 2983 3.22961 2.15216 0
M  V30 31455 H 2981.1 1.18617 3.53215 0
M  V30 31456 H 2981.21 3.06436 3.68285 0
M  V30 31457 H 2979.58 1.55352 2.01836 0
M  V30 31458 H 2980.36 3.11932 1.43364 0
M  V30 31459 N 2982.81 -1.05187 1.1736 0
M  V30 31460 C 2984.05 -1.78453 0.963444 0
M  V30 31461 C 2984.38 -1.87474 -0.50667 0
M  V30 31462 O 2983.66 -1.37456 -1.37609 0
M  V30 31463 C 2983.94 -3.22341 1.60525 0
M  V30 31464 C 2983.8 -3.21333 3.14747 0
M  V30 31465 C 2985.11 -4.20177 1.30918 0
M  V30 31466 H 2982.23 -0.64782 0.351424 0
M  V30 31467 H 2984.88 -1.22946 1.4486 0
M  V30 31468 H 2983.03 -3.69738 1.19272 0
M  V30 31469 H 2984.7 -2.82011 3.65058 0
M  V30 31470 H 2982.94 -2.59672 3.47495 0
M  V30 31471 H 2983.61 -4.22887 3.54782 0
M  V30 31472 H 2986.09 -3.81274 1.66641 0
M  V30 31473 H 2984.96 -5.19097 1.7841 0
M  V30 31474 H 2985.22 -4.41501 0.229986 0
M  V30 31475 N 2984.28 -0.97385 -1.23911 0
M  V30 31476 C 2985.19 -0.516776 -2.28837 0
M  V30 31477 C 2986.21 0.425253 -1.68723 0
M  V30 31478 O 2987.39 0.296784 -1.99201 0
M  V30 31479 C 2984.45 0.179853 -3.46233 0
M  V30 31480 C 2983.51 -0.802764 -4.21728 0
M  V30 31481 C 2982.74 -0.139285 -5.33518 0
M  V30 31482 O 2982.97 1.07108 -5.60253 0
M  V30 31483 O 2981.9 -0.834552 -5.96086 0
M  V30 31484 H 2985.73 -1.38921 -2.70064 0
M  V30 31485 H 2983.31 -0.741173 -1.29719 0
M  V30 31486 H 2985.19 0.570917 -4.17515 0
M  V30 31487 H 2983.87 1.02716 -3.06971 0
M  V30 31488 H 2982.78 -1.2444 -3.52797 0
M  V30 31489 H 2984.11 -1.61867 -4.64822 0
M  V30 31490 N 2985.76 1.38895 -0.744705 0
M  V30 31491 C 2986.99 2.04603 -0.307463 0
M  V30 31492 C 2987.4 1.56159 1.06112 0
M  V30 31493 O 2986.76 0.730731 1.67232 0
M  V30 31494 C 2986.81 3.60159 -0.311074 0
M  V30 31495 O 2986.53 4.06822 -1.62564 0
M  V30 31496 C 2988.03 4.43075 0.141135 0
M  V30 31497 H 2985.25 0.657737 -0.132753 0
M  V30 31498 H 2987.8 1.77757 -1.01107 0
M  V30 31499 H 2985.95 3.85872 0.343724 0
M  V30 31500 H 2986.37 5.01204 -1.54578 0
M  V30 31501 H 2987.84 5.51931 0.0874479 0
M  V30 31502 H 2988.32 4.22835 1.18774 0
M  V30 31503 H 2988.92 4.22532 -0.484457 0
M  V30 31504 N 2987.24 0.493084 1.49688 0
M  V30 31505 C 2988.47 -0.053475 2.07331 0
M  V30 31506 C 2988.89 -1.30779 1.35198 0
M  V30 31507 O 2988.25 -1.76689 0.406277 0
M  V30 31508 C 2988.3 -0.298187 3.59365 0
M  V30 31509 O 2987.4 -1.37447 3.88821 0
M  V30 31510 H 2986.74 0.0227134 0.663611 0
M  V30 31511 H 2989.27 0.690436 1.92598 0
M  V30 31512 H 2989.28 -0.532088 4.04516 0
M  V30 31513 H 2987.96 0.618279 4.11279 0
M  V30 31514 H 2986.53 -1.12615 3.55489 0
M  V30 31515 N 2988.72 -1.55963 0.226582 0
M  V30 31516 C 2989.67 -2.21884 -0.697883 0
M  V30 31517 C 2990.66 -1.19984 -1.19584 0
M  V30 31518 O 2991.87 -1.3805 -1.15508 0
M  V30 31519 H 2988.24 -0.71149 -0.243488 0
M  V30 31520 H 2990.21 -2.98165 -0.118523 0
M  V30 31521 C 2988.96 -2.91649 -1.89304 0
M  V30 31522 H 2988.28 -3.6982 -1.51899 0
M  V30 31523 H 2989.72 -3.41167 -2.51756 0
M  V30 31524 C 2988.18 -1.94396 -2.75158 0
M  V30 31525 O 2988.71 -1.46409 -3.74069 0
M  V30 31526 N 2986.92 -1.61936 -2.41299 0
M  V30 31527 H 2986.47 -2.01154 -1.60919 0
M  V30 31528 H 2986.42 -0.971271 -2.99021 0
M  V30 31529 N 2990.2 0.0467589 -1.57531 0
M  V30 31530 C 2991.42 0.757089 -1.93088 0
M  V30 31531 C 2991.85 1.69035 -0.825146 0
M  V30 31532 O 2991.2 1.79955 0.220417 0
M  V30 31533 C 2991.25 1.50544 -3.27672 0
M  V30 31534 O 2990.36 2.61767 -3.18672 0
M  V30 31535 H 2989.7 0.204881 -0.631601 0
M  V30 31536 H 2992.23 0.00751636 -2.04599 0
M  V30 31537 H 2992.24 1.87926 -3.62143 0
M  V30 31538 H 2990.91 0.820859 -4.07719 0
M  V30 31539 H 2989.49 2.27059 -2.95802 0
M  V30 31540 N 2991.67 1.54344 0.318688 0
M  V30 31541 C 2992.92 1.72782 1.05605 0
M  V30 31542 C 2993.25 0.504116 1.87853 0
M  V30 31543 O 2992.5 -0.514107 1.88826 0
M  V30 31544 C 2992.8 2.95857 2.00509 0
M  V30 31545 C 2992.47 4.30411 1.34377 0
M  V30 31546 C 2991.13 4.66991 1.16073 0
M  V30 31547 C 2993.48 5.13895 0.869537 0
M  V30 31548 C 2990.81 5.8465 0.490012 0
M  V30 31549 C 2993.16 6.32243 0.212623 0
M  V30 31550 C 2991.83 6.67498 0.0174709 0
M  V30 31551 H 2991.1 0.632256 0.386437 0
M  V30 31552 H 2993.74 1.88588 0.332696 0
M  V30 31553 H 2992.05 2.74758 2.79312 0
M  V30 31554 H 2993.75 3.07316 2.576 0
M  V30 31555 H 2990.34 4.01634 1.49627 0
M  V30 31556 H 2994.52 4.86147 0.998724 0
M  V30 31557 H 2989.78 6.10521 0.32766 0
M  V30 31558 H 2993.95 6.9621 -0.162822 0
M  V30 31559 H 2991.58 7.58526 -0.50427 0
M  V30 31560 N 2993.15 -0.580999 1.465 0
M  V30 31561 C 2994.43 -1.34122 1.42375 0
M  V30 31562 C 2994.81 -2.10823 0.10811 0
M  V30 31563 O 2994.16 -2.09584 -0.910329 0
M  V30 31564 C 2994.37 -2.26578 2.65449 0
M  V30 31565 C 2995.72 -2.88354 3.11669 0
M  V30 31566 O 2996.74 -2.36891 2.6601 0
M  V30 31567 O 2995.6 -3.81833 3.90981 0
M  V30 31568 H 2992.69 -0.602714 0.566273 0
M  V30 31569 H 2995.24 -0.601875 1.58668 0
M  V30 31570 H 2994.01 -1.69342 3.52759 0
M  V30 31571 H 2993.63 -3.0785 2.51623 0
M  V30 31572 N 2994.63 -1.34234 -0.825776 0
M  V30 31573 C 2995.88 -1.26617 -1.58417 0
M  V30 31574 C 2996.21 0.164307 -1.93504 0
M  V30 31575 O 2995.48 1.10897 -1.59787 0
M  V30 31576 C 2995.77 -2.15423 -2.88557 0
M  V30 31577 C 2995.62 -3.66994 -2.60068 0
M  V30 31578 C 2996.94 -2.03733 -3.90104 0
M  V30 31579 H 2994.06 -0.461292 -0.574786 0
M  V30 31580 H 2996.7 -1.64459 -0.95149 0
M  V30 31581 H 2994.85 -1.83281 -3.4255 0
M  V30 31582 H 2996.52 -4.09489 -2.12407 0
M  V30 31583 H 2994.77 -3.88224 -1.93558 0
M  V30 31584 H 2995.44 -4.24494 -3.52858 0
M  V30 31585 H 2997.91 -2.31948 -3.45455 0
M  V30 31586 H 2996.79 -2.681 -4.78971 0
M  V30 31587 H 2997.05 -1.01345 -4.30327 0
M  V30 31588 N 2996.11 1.04563 -1.17917 0
M  V30 31589 C 2997.04 2.14394 -0.92507 0
M  V30 31590 C 2998.02 1.69561 0.135345 0
M  V30 31591 O 2999.2 1.94193 -0.0162115 0
M  V30 31592 C 2996.33 3.44443 -0.44453 0
M  V30 31593 C 2995.29 4.02875 -1.44486 0
M  V30 31594 C 2994.61 5.28343 -0.822025 0
M  V30 31595 C 2995.91 4.39627 -2.82003 0
M  V30 31596 H 2997.61 2.35908 -1.84358 0
M  V30 31597 H 2995.15 1.13374 -0.887826 0
M  V30 31598 H 2997.11 4.20633 -0.254152 0
M  V30 31599 H 2995.83 3.22601 0.509536 0
M  V30 31600 H 2994.49 3.28761 -1.62208 0
M  V30 31601 H 2994.14 5.02808 0.139072 0
M  V30 31602 H 2993.84 5.68399 -1.48986 0
M  V30 31603 H 2995.36 6.07215 -0.642065 0
M  V30 31604 H 2996.78 5.06823 -2.67961 0
M  V30 31605 H 2995.17 4.90717 -3.45423 0
M  V30 31606 H 2996.24 3.49681 -3.35933 0
M  V30 31607 N 2997.59 0.980408 1.23393 0
M  V30 31608 C 2998.53 0.520337 2.24858 0
M  V30 31609 C 2999.5 -0.440792 1.60144 0
M  V30 31610 O 3000.69 -0.348336 1.87593 0
M  V30 31611 C 2997.83 -0.171085 3.44676 0
M  V30 31612 C 2996.94 0.830307 4.23946 0
M  V30 31613 C 2996.08 0.113691 5.31078 0
M  V30 31614 C 2995.12 1.1043 6.02056 0
M  V30 31615 N 2994.25 0.416832 7.00862 0
M  V30 31616 H 2999.09 1.39037 2.63577 0
M  V30 31617 H 2996.63 0.696705 1.29555 0
M  V30 31618 H 2998.59 -0.588765 4.13025 0
M  V30 31619 H 2997.22 -1.00498 3.06757 0
M  V30 31620 H 2996.27 1.36637 3.55013 0
M  V30 31621 H 2997.58 1.58517 4.72942 0
M  V30 31622 H 2996.74 -0.361353 6.05623 0
M  V30 31623 H 2995.47 -0.673769 4.83023 0
M  V30 31624 H 2994.48 1.59009 5.26304 0
M  V30 31625 H 2995.7 1.89242 6.522 0
M  V30 31626 H 2993.65 -0.35142 6.55058 0
M  V30 31627 H 2993.57 1.11035 7.47802 0
M  V30 31628 H 2994.84 -0.0358236 7.79492 0
M  V30 31629 N 2999.06 -1.38498 0.75206 0
M  V30 31630 C 3000.29 -2.04963 0.317029 0
M  V30 31631 C 3000.71 -1.56348 -1.0458 0
M  V30 31632 O 3000.07 -0.714784 -1.66615 0
M  V30 31633 C 3000.12 -3.58924 0.347298 0
M  V30 31634 O 2999.22 -4.07097 -0.659224 0
M  V30 31635 H 2998.57 -0.64893 0.140664 0
M  V30 31636 H 3001.1 -1.77203 1.02276 0
M  V30 31637 H 3001.11 -4.07521 0.197642 0
M  V30 31638 H 2999.78 -3.93666 1.34164 0
M  V30 31639 H 2998.36 -3.69871 -0.474306 0
M  V30 31640 N 3000.54 -0.501015 -1.49424 0
M  V30 31641 C 3001.45 0.28197 -2.32899 0
M  V30 31642 C 3002.47 0.967321 -1.44634 0
M  V30 31643 O 3003.64 0.948699 -1.77656 0
M  V30 31644 C 3000.71 1.33248 -3.20072 0
M  V30 31645 C 2999.77 0.660561 -4.24188 0
M  V30 31646 C 2999 1.66101 -5.07194 0
M  V30 31647 O 2999.23 2.89086 -4.91717 0
M  V30 31648 O 2998.16 1.21633 -5.89482 0
M  V30 31649 H 3001.99 -0.401277 -3.01037 0
M  V30 31650 H 2999.57 -0.262349 -1.47079 0
M  V30 31651 H 3001.45 1.94027 -3.74074 0
M  V30 31652 H 3000.13 1.99865 -2.54628 0
M  V30 31653 H 2999.04 0.0130302 -3.74098 0
M  V30 31654 H 3000.37 0.0368314 -4.92186 0
M  V30 31655 N 3002.02 1.5584 -0.234849 0
M  V30 31656 C 3003.3 1.90519 0.442927 0
M  V30 31657 C 3003.68 1.154 1.76766 0
M  V30 31658 O 3003.03 0.267574 2.26928 0
M  V30 31659 C 3003.24 3.43397 0.622845 0
M  V30 31660 C 3004.58 4.14419 0.924227 0
M  V30 31661 O 3005.61 3.49069 0.70915 0
M  V30 31662 O 3004.47 5.2999 1.33313 0
M  V30 31663 H 3001.56 0.792603 0.236028 0
M  V30 31664 H 3004.11 1.67407 -0.278022 0
M  V30 31665 H 3002.88 3.90062 -0.311042 0
M  V30 31666 H 3002.5 3.72332 1.39479 0
M  V30 31667 N 3003.5 -0.038404 1.57553 0
M  V30 31668 C 3004.46 -1.0265 2.04929 0
M  V30 31669 C 3005.46 -1.29606 0.951791 0
M  V30 31670 O 3006.65 -1.24765 1.2157 0
M  V30 31671 C 3003.78 -2.36177 2.45832 0
M  V30 31672 H 3004.98 -0.617456 2.93475 0
M  V30 31673 H 3002.53 -0.285004 1.5368 0
M  V30 31674 H 3003.27 -2.81848 1.60413 0
M  V30 31675 H 3003.05 -2.17944 3.25949 0
M  V30 31676 H 3004.54 -3.07135 2.82945 0
M  V30 31677 N 3004.98 -1.54511 -0.310498 0
M  V30 31678 C 3005.91 -1.81163 -1.40402 0
M  V30 31679 C 3006.92 -0.69414 -1.4726 0
M  V30 31680 O 3008.11 -0.971467 -1.49749 0
M  V30 31681 C 3005.21 -1.92609 -2.78846 0
M  V30 31682 C 3004.38 -3.22913 -2.95035 0
M  V30 31683 C 3003.44 -3.24896 -4.13919 0
M  V30 31684 O 3002.47 -3.98474 -4.06456 0
M  V30 31685 N 3003.67 -2.49609 -5.24095 0
M  V30 31686 H 3006.44 -2.75536 -1.17898 0
M  V30 31687 H 3004 -1.53968 -0.500537 0
M  V30 31688 H 3005.99 -1.91348 -3.56606 0
M  V30 31689 H 3004.56 -1.05274 -2.9434 0
M  V30 31690 H 3003.78 -3.37027 -2.04466 0
M  V30 31691 H 3005.07 -4.08921 -3.02756 0
M  V30 31692 H 3004.47 -1.89444 -5.33036 0
M  V30 31693 H 3003.02 -2.54112 -6.00225 0
M  V30 31694 N 3006.46 0.573222 -1.46806 0
M  V30 31695 C 3007.7 1.32844 -1.52305 0
M  V30 31696 C 3008.02 1.94166 -0.180193 0
M  V30 31697 O 3007.29 1.79076 0.794259 0
M  V30 31698 H 3005.87 0.493266 -0.560979 0
M  V30 31699 H 3008.54 0.67061 -1.83 0
M  V30 31700 H 3007.63 2.13027 -2.28092 0
M  V30 31701 N 3007.93 1.3467 0.818645 0
M  V30 31702 C 3008.87 1.20945 1.93514 0
M  V30 31703 C 3009.84 0.10009 1.62292 0
M  V30 31704 O 3011.03 0.266015 1.86614 0
M  V30 31705 C 3008.16 0.859581 3.27611 0
M  V30 31706 C 3007.2 1.9793 3.77791 0
M  V30 31707 S 3008.03 3.59336 3.97037 0
M  V30 31708 C 3009.19 3.264 5.34054 0
M  V30 31709 H 3009.42 2.15452 2.0486 0
M  V30 31710 H 3006.96 1.19746 0.974695 0
M  V30 31711 H 3008.91 0.664515 4.05086 0
M  V30 31712 H 3007.58 -0.0672283 3.14028 0
M  V30 31713 H 3006.77 1.68835 4.7488 0
M  V30 31714 H 3006.37 2.13207 3.07276 0
M  V30 31715 H 3008.66 2.7848 6.17621 0
M  V30 31716 H 3009.61 4.22644 5.68135 0
M  V30 31717 H 3010.01 2.62473 4.99768 0
M  V30 31718 N 3009.41 -1.03936 1.1847 0
M  V30 31719 C 3010.69 -1.74155 0.890466 0
M  V30 31720 C 3011.07 -2.02204 -0.606373 0
M  V30 31721 O 3010.42 -1.66825 -1.56147 0
M  V30 31722 C 3010.63 -3.02582 1.73911 0
M  V30 31723 C 3011.97 -3.76294 1.96693 0
M  V30 31724 O 3013 -3.12484 1.70975 0
M  V30 31725 O 3011.86 -4.90983 2.39995 0
M  V30 31726 H 3008.95 -0.757914 0.330902 0
M  V30 31727 H 3011.5 -1.0999 1.2923 0
M  V30 31728 H 3010.27 -2.78001 2.75374 0
M  V30 31729 H 3009.89 -3.74486 1.33588 0
M  V30 31730 N 3010.89 -0.986938 -1.22871 0
M  V30 31731 C 3011.84 -0.525082 -2.26596 0
M  V30 31732 C 3012.83 0.421223 -1.64079 0
M  V30 31733 O 3014.04 0.294398 -1.77576 0
M  V30 31734 H 3010.41 -0.151394 -0.736603 0
M  V30 31735 H 3012.38 -1.41147 -2.62907 0
M  V30 31736 C 3011.13 0.150481 -3.47374 0
M  V30 31737 H 3010.46 -0.56861 -3.95736 0
M  V30 31738 H 3011.9 0.437182 -4.2174 0
M  V30 31739 C 3010.35 1.38387 -3.07166 0
M  V30 31740 O 3010.88 2.47965 -3.16032 0
M  V30 31741 N 3009.09 1.25692 -2.62011 0
M  V30 31742 H 3008.64 0.36531 -2.54997 0
M  V30 31743 H 3008.6 2.08323 -2.35476 0
M  V30 31744 N 3012.37 1.38098 -0.759394 0
M  V30 31745 C 3013.3 2.3301 -0.151118 0
M  V30 31746 C 3014.28 1.55161 0.697072 0
M  V30 31747 O 3015.46 1.83453 0.637069 0
M  V30 31748 C 3012.59 3.3936 0.738364 0
M  V30 31749 C 3011.55 4.27999 -0.00754933 0
M  V30 31750 C 3010.87 5.25255 1.00057 0
M  V30 31751 C 3012.17 5.08811 -1.17935 0
M  V30 31752 H 3013.87 2.84129 -0.943983 0
M  V30 31753 H 3011.41 1.3661 -0.455386 0
M  V30 31754 H 3013.37 4.04727 1.17362 0
M  V30 31755 H 3012.09 2.86738 1.56361 0
M  V30 31756 H 3010.75 3.64146 -0.423443 0
M  V30 31757 H 3010.4 4.68918 1.82003 0
M  V30 31758 H 3010.1 5.85416 0.506096 0
M  V30 31759 H 3011.62 5.93498 1.43501 0
M  V30 31760 H 3013.04 5.67386 -0.821362 0
M  V30 31761 H 3011.43 5.78236 -1.60507 0
M  V30 31762 H 3012.5 4.42209 -1.98946 0
M  V30 31763 N 3013.85 0.508932 1.49156 0
M  V30 31764 C 3014.81 -0.254299 2.27785 0
M  V30 31765 C 3015.81 -0.886837 1.34134 0
M  V30 31766 O 3017 -0.75014 1.57221 0
M  V30 31767 C 3014.13 -1.36567 3.1235 0
M  V30 31768 H 3015.32 0.435767 2.96717 0
M  V30 31769 H 3012.88 0.264155 1.54052 0
M  V30 31770 H 3013.61 -2.08964 2.48001 0
M  V30 31771 H 3013.4 -0.917476 3.81215 0
M  V30 31772 H 3014.89 -1.90308 3.71716 0
M  V30 31773 N 3015.32 -1.55714 0.243111 0
M  V30 31774 C 3016.56 -2.00755 -0.384268 0
M  V30 31775 C 3016.93 -1.12754 -1.55404 0
M  V30 31776 O 3018.13 -1.47235 -2.24889 0
M  V30 31777 C 3016.4 -3.48619 -0.787357 0
M  V30 31778 S 3017.96 -4.15671 -1.4058 0
M  V30 31779 H 3014.78 -0.700615 -0.121076 0
M  V30 31780 H 3017.38 -1.92204 0.357456 0
M  V30 31781 H 3016.08 -4.10334 0.0733613 0
M  V30 31782 H 3015.61 -3.61089 -1.56136 0
M  V30 31783 H 3017.63 -4.16644 -2.69486 0
M  V30 31784 N 3016.8 0.030048 -1.57571 0
M  V30 31785 C 3017.71 1.04794 -2.09893 0
M  V30 31786 C 3018.73 1.39697 -1.03735 0
M  V30 31787 O 3019.9 1.49036 -1.35464 0
M  V30 31788 C 3016.97 2.33024 -2.56712 0
M  V30 31789 C 3016.03 2.04712 -3.77348 0
M  V30 31790 C 3015.26 3.26827 -4.21924 0
M  V30 31791 O 3015.49 4.37466 -3.66033 0
M  V30 31792 O 3014.42 3.12585 -5.14368 0
M  V30 31793 H 3018.25 0.633292 -2.97024 0
M  V30 31794 H 3015.83 0.246966 -1.47345 0
M  V30 31795 H 3017.71 3.08411 -2.87159 0
M  V30 31796 H 3016.39 2.73786 -1.72693 0
M  V30 31797 H 3015.3 1.26895 -3.51921 0
M  V30 31798 H 3016.63 1.68805 -4.62348 0
M  V30 31799 N 3018.28 1.54674 0.3023 0
M  V30 31800 C 3019.56 1.64569 1.05718 0
M  V30 31801 C 3019.94 0.493144 2.05259 0
M  V30 31802 O 3019.29 -0.510276 2.2273 0
M  V30 31803 C 3019.5 3.0252 1.7402 0
M  V30 31804 C 3020.84 3.5929 2.26265 0
M  V30 31805 O 3021.87 3.04963 1.84054 0
M  V30 31806 O 3020.73 4.5441 3.03602 0
M  V30 31807 H 3017.82 0.667258 0.488565 0
M  V30 31808 H 3020.37 1.67018 0.300492 0
M  V30 31809 H 3019.14 3.77844 1.01734 0
M  V30 31810 H 3018.76 3.03842 2.56448 0
M  V30 31811 N 3019.76 -0.565428 1.47108 0
M  V30 31812 C 3020.69 -1.68307 1.61849 0
M  V30 31813 C 3021.67 -1.6353 0.468187 0
M  V30 31814 O 3022.85 -1.81279 0.696536 0
M  V30 31815 C 3019.98 -3.06949 1.6248 0
M  V30 31816 C 3018.94 -3.26568 2.76654 0
M  V30 31817 C 3018.26 -4.65913 2.62353 0
M  V30 31818 C 3019.56 -3.12733 4.18324 0
M  V30 31819 H 3021.26 -1.56226 2.55409 0
M  V30 31820 H 3018.8 -0.750157 1.22917 0
M  V30 31821 H 3020.76 -3.84974 1.71385 0
M  V30 31822 H 3019.48 -3.1997 0.654748 0
M  V30 31823 H 3018.14 -2.50948 2.67247 0
M  V30 31824 H 3017.79 -4.75722 1.63394 0
M  V30 31825 H 3017.49 -4.7999 3.38945 0
M  V30 31826 H 3019.01 -5.46084 2.73175 0
M  V30 31827 H 3020.43 -3.80585 4.28752 0
M  V30 31828 H 3018.82 -3.38324 4.95638 0
M  V30 31829 H 3019.89 -2.09584 4.37267 0
M  V30 31830 N 3021.24 -1.35102 -0.811492 0
M  V30 31831 C 3022.18 -1.2762 -1.92306 0
M  V30 31832 C 3023.15 -0.14912 -1.65429 0
M  V30 31833 O 3024.34 -0.332007 -1.87889 0
M  V30 31834 C 3021.48 -1.04914 -3.28766 0
M  V30 31835 C 3020.59 -2.265 -3.67861 0
M  V30 31836 C 3019.73 -1.96983 -4.93327 0
M  V30 31837 C 3018.77 -3.14649 -5.25036 0
M  V30 31838 N 3017.9 -2.84941 -6.4168 0
M  V30 31839 H 3022.74 -2.22677 -1.98037 0
M  V30 31840 H 3020.28 -1.10697 -0.968736 0
M  V30 31841 H 3022.24 -0.897821 -4.07425 0
M  V30 31842 H 3020.87 -0.135208 -3.22517 0
M  V30 31843 H 3019.92 -2.52512 -2.84503 0
M  V30 31844 H 3021.23 -3.14378 -3.87257 0
M  V30 31845 H 3020.39 -1.78653 -5.798 0
M  V30 31846 H 3019.12 -1.06382 -4.75956 0
M  V30 31847 H 3018.13 -3.33562 -4.37055 0
M  V30 31848 H 3019.35 -4.06044 -5.44339 0
M  V30 31849 H 3017.3 -1.96929 -6.25744 0
M  V30 31850 H 3017.22 -3.66353 -6.61303 0
M  V30 31851 H 3018.49 -2.70141 -7.31194 0
M  V30 31852 N 3022.71 1.03306 -1.19019 0
M  V30 31853 C 3024.13 1.58088 -0.993234 0
M  V30 31854 C 3024.48 1.90851 0.455017 0
M  V30 31855 O 3023.6 1.70416 1.33369 0
M  V30 31856 C 3024.2 2.87238 -1.79666 0
M  V30 31857 C 3022.76 3.38608 -1.64383 0
M  V30 31858 C 3021.9 2.12099 -1.78632 0
M  V30 31859 H 3024.85 0.858855 -1.33452 0
M  V30 31860 H 3024.87 3.57956 -1.29026 0
M  V30 31861 H 3024.39 2.63361 -2.85066 0
M  V30 31862 H 3022.49 3.67481 -0.615512 0
M  V30 31863 H 3022.6 4.11921 -2.44658 0
M  V30 31864 H 3020.96 2.2377 -1.21652 0
M  V30 31865 H 3021.75 1.90668 -2.85483 0
M  V30 31866 N 3024.19 0.99344 1.22346 0
M  V30 31867 C 3025.44 0.670594 1.91392 0
M  V30 31868 C 3025.77 -0.795397 1.77164 0
M  V30 31869 O 3025.05 -1.57526 1.14086 0
M  V30 31870 C 3025.33 1.07796 3.43587 0
M  V30 31871 C 3025.18 2.60254 3.66862 0
M  V30 31872 C 3026.5 0.631603 4.35544 0
M  V30 31873 H 3023.62 0.245093 0.695053 0
M  V30 31874 H 3026.26 1.23706 1.44211 0
M  V30 31875 H 3024.41 0.595969 3.83902 0
M  V30 31876 H 3026.08 3.16127 3.35948 0
M  V30 31877 H 3024.33 3.02298 3.11124 0
M  V30 31878 H 3025 2.83808 4.73452 0
M  V30 31879 H 3027.47 1.04561 4.02748 0
M  V30 31880 H 3026.35 0.944926 5.40705 0
M  V30 31881 H 3026.61 -0.467701 4.39619 0
M  V30 31882 N 3025.67 -1.37693 0.766707 0
M  V30 31883 C 3026.9 -2.04615 0.338751 0
M  V30 31884 C 3027.32 -1.57449 -1.02915 0
M  V30 31885 O 3026.68 -0.732416 -1.65847 0
M  V30 31886 C 3026.73 -3.58535 0.385347 0
M  V30 31887 O 3025.83 -4.07773 -0.616009 0
M  V30 31888 H 3025.17 -0.647401 0.147539 0
M  V30 31889 H 3027.7 -1.76108 1.04149 0
M  V30 31890 H 3027.71 -4.07288 0.240854 0
M  V30 31891 H 3026.39 -3.92221 1.38331 0
M  V30 31892 H 3024.96 -3.70354 -0.43505 0
M  V30 31893 N 3027.15 -0.516835 -1.48884 0
M  V30 31894 C 3028.06 0.257252 -2.33185 0
M  V30 31895 C 3029.07 0.951926 -1.45652 0
M  V30 31896 O 3030.25 0.929803 -1.78652 0
M  V30 31897 C 3027.32 1.29845 -3.21467 0
M  V30 31898 C 3026.38 0.615533 -4.24864 0
M  V30 31899 C 3025.61 1.60713 -5.08927 0
M  V30 31900 O 3025.83 2.83854 -4.94755 0
M  V30 31901 O 3024.77 1.15374 -5.90739 0
M  V30 31902 H 3028.59 -0.433183 -3.00595 0
M  V30 31903 H 3026.18 -0.277934 -1.46792 0
M  V30 31904 H 3028.06 1.90048 -3.76111 0
M  V30 31905 H 3026.73 1.97153 -2.56734 0
M  V30 31906 H 3025.64 -0.0266486 -3.74091 0
M  V30 31907 H 3026.97 -0.0153736 -4.92198 0
M  V30 31908 N 3028.63 1.55583 -0.251365 0
M  V30 31909 C 3029.54 2.25214 0.656939 0
M  V30 31910 C 3030.55 1.26979 1.18964 0
M  V30 31911 O 3031.73 1.59864 1.22496 0
M  V30 31912 C 3028.79 2.94144 1.83522 0
M  V30 31913 C 3027.85 4.078 1.34155 0
M  V30 31914 C 3027.09 4.73433 2.46366 0
M  V30 31915 O 3027.31 4.38163 3.65197 0
M  V30 31916 O 3026.24 5.61857 2.15871 0
M  V30 31917 H 3030.07 3.03556 0.0935862 0
M  V30 31918 H 3027.66 1.49387 -0.01969 0
M  V30 31919 H 3029.54 3.37545 2.52273 0
M  V30 31920 H 3028.21 2.18739 2.3861 0
M  V30 31921 H 3027.12 3.68907 0.621184 0
M  V30 31922 H 3028.45 4.85036 0.836694 0
M  V30 31923 N 3030.1 -0.0216912 1.57585 0
M  V30 31924 C 3031.35 -0.712065 1.89888 0
M  V30 31925 C 3031.68 -1.7461 0.850002 0
M  V30 31926 O 3030.96 -1.94038 -0.134036 0
M  V30 31927 C 3031.24 -1.37493 3.32818 0
M  V30 31928 C 3031.09 -0.353914 4.48405 0
M  V30 31929 C 3032.41 -2.30696 3.7479 0
M  V30 31930 H 3029.53 -0.257393 0.690593 0
M  V30 31931 H 3032.17 0.0251479 1.89983 0
M  V30 31932 H 3030.32 -2.00329 3.32867 0
M  V30 31933 H 3032 0.273096 4.60491 0
M  V30 31934 H 3030.24 0.326066 4.32573 0
M  V30 31935 H 3030.91 -0.856344 5.45317 0
M  V30 31936 H 3033.39 -1.77897 3.76154 0
M  V30 31937 H 3032.26 -2.74053 4.7559 0
M  V30 31938 H 3032.52 -3.17686 3.07454 0
M  V30 31939 N 3031.58 -1.54832 -0.294093 0
M  V30 31940 C 3032.83 -1.74699 -1.02996 0
M  V30 31941 C 3033.16 -0.534982 -1.86686 0
M  V30 31942 O 3032.44 0.46783 -1.8879 0
M  V30 31943 C 3032.72 -3.04 -1.93018 0
M  V30 31944 C 3032.57 -4.35514 -1.12462 0
M  V30 31945 C 3033.89 -3.29208 -2.92079 0
M  V30 31946 H 3031.01 -0.635625 -0.373028 0
M  V30 31947 H 3033.65 -1.87552 -0.304032 0
M  V30 31948 H 3031.8 -2.93173 -2.54915 0
M  V30 31949 H 3033.48 -4.58268 -0.527986 0
M  V30 31950 H 3031.72 -4.31688 -0.427498 0
M  V30 31951 H 3032.39 -5.22268 -1.78719 0
M  V30 31952 H 3034.87 -3.39689 -2.40313 0
M  V30 31953 H 3033.74 -4.20984 -3.52227 0
M  V30 31954 H 3034 -2.47833 -3.66102 0
M  V30 31955 N 3033.06 0.557619 -1.47405 0
M  V30 31956 C 3033.97 1.69213 -1.62494 0
M  V30 31957 C 3034.99 1.66426 -0.507793 0
M  V30 31958 O 3036.16 1.8588 -0.775273 0
M  V30 31959 C 3033.23 3.05718 -1.63516 0
M  V30 31960 C 3032.29 3.19575 -2.86653 0
M  V30 31961 C 3031.52 4.49569 -2.87617 0
M  V30 31962 O 3031.75 5.35003 -1.97808 0
M  V30 31963 O 3030.68 4.67208 -3.79474 0
M  V30 31964 H 3034.51 1.59426 -2.5849 0
M  V30 31965 H 3032.09 0.727578 -1.30486 0
M  V30 31966 H 3033.97 3.86953 -1.6687 0
M  V30 31967 H 3032.65 3.15888 -0.706868 0
M  V30 31968 H 3031.55 2.37739 -2.88844 0
M  V30 31969 H 3032.89 3.14309 -3.78775 0
M  V30 31970 N 3034.54 1.35531 0.804316 0
M  V30 31971 C 3035.49 1.28674 1.93767 0
M  V30 31972 C 3036.48 0.181252 1.68428 0
M  V30 31973 O 3037.69 0.347369 1.76616 0
M  V30 31974 H 3034.06 0.400217 0.636655 0
M  V30 31975 H 3036.03 2.24419 1.96669 0
M  V30 31976 C 3034.78 1.0779 3.3057 0
M  V30 31977 H 3034.11 1.92096 3.50627 0
M  V30 31978 H 3035.55 1.07035 4.10268 0
M  V30 31979 C 3034 -0.218154 3.36193 0
M  V30 31980 O 3034.53 -1.21317 3.82943 0
M  V30 31981 N 3032.74 -0.25771 2.89455 0
M  V30 31982 H 3032.29 0.552606 2.51603 0
M  V30 31983 H 3032.25 -1.12459 2.93599 0
M  V30 31984 N 3036.02 -1.02674 1.19565 0
M  V30 31985 C 3037.43 -1.57559 1.0016 0
M  V30 31986 C 3037.78 -1.91089 -0.444889 0
M  V30 31987 O 3036.9 -1.71121 -1.32463 0
M  V30 31988 C 3037.5 -2.86281 1.81186 0
M  V30 31989 C 3036.06 -3.37731 1.66177 0
M  V30 31990 C 3035.21 -2.11149 1.79754 0
M  V30 31991 H 3038.16 -0.851766 1.33905 0
M  V30 31992 H 3038.18 -3.57267 1.30922 0
M  V30 31993 H 3037.69 -2.61845 2.86459 0
M  V30 31994 H 3035.79 -3.67149 0.634992 0
M  V30 31995 H 3035.9 -4.10618 2.46839 0
M  V30 31996 H 3034.27 -2.23121 1.22837 0
M  V30 31997 H 3035.05 -1.89152 2.8649 0
M  V30 31998 N 3037.5 -0.999914 -1.21817 0
M  V30 31999 C 3038.72 -0.698393 -1.94756 0
M  V30 32000 C 3039.14 0.738153 -1.73772 0
M  V30 32001 O 3038.5 1.49887 -1.04116 0
M  V30 32002 C 3038.55 -1.00359 -3.4729 0
M  V30 32003 O 3038.27 -2.38369 -3.67575 0
M  V30 32004 C 3039.77 -0.720757 -4.37401 0
M  V30 32005 H 3036.99 -0.257781 -0.619508 0
M  V30 32006 H 3039.53 -1.33659 -1.54776 0
M  V30 32007 H 3037.69 -0.411085 -3.85213 0
M  V30 32008 H 3038.1 -2.48837 -4.61714 0
M  V30 32009 H 3039.58 -0.984518 -5.43149 0
M  V30 32010 H 3040.05 0.345232 -4.37841 0
M  V30 32011 H 3040.66 -1.29464 -4.05116 0
M  V30 32012 N 3038.97 1.37284 -0.773999 0
M  V30 32013 C 3040.22 1.98881 -0.336012 0
M  V30 32014 C 3040.54 1.62136 1.09413 0
M  V30 32015 O 3041.74 2.16853 1.63362 0
M  V30 32016 C 3040.2 3.55675 -0.549819 0
M  V30 32017 C 3039.81 4.01358 -1.99037 0
M  V30 32018 C 3041.55 4.24137 -0.175567 0
M  V30 32019 C 3039.46 5.5087 -2.15166 0
M  V30 32020 H 3038.39 0.744083 -0.12189 0
M  V30 32021 H 3041.04 1.56785 -0.953447 0
M  V30 32022 H 3039.42 3.95763 0.137106 0
M  V30 32023 H 3040.59 3.7251 -2.71243 0
M  V30 32024 H 3038.91 3.45686 -2.32143 0
M  V30 32025 H 3041.51 5.33995 -0.274557 0
M  V30 32026 H 3041.85 4.07012 0.874452 0
M  V30 32027 H 3042.38 3.89359 -0.815127 0
M  V30 32028 H 3039.12 5.72924 -3.18495 0
M  V30 32029 H 3038.64 5.81395 -1.47446 0
M  V30 32030 H 3040.32 6.16872 -1.95135 0
M  V30 32031 N 3040.45 0.524724 1.48608 0
M  V30 32032 C 3041.38 -0.27796 2.27508 0
M  V30 32033 C 3042.4 -0.909234 1.35044 0
M  V30 32034 O 3043.59 -0.788564 1.60137 0
M  V30 32035 C 3040.69 -1.40838 3.0825 0
M  V30 32036 C 3039.86 -0.880008 4.28456 0
M  V30 32037 C 3038.92 -1.89091 4.91051 0
M  V30 32038 O 3037.94 -1.44995 5.50423 0
M  V30 32039 N 3039.15 -3.22279 4.82821 0
M  V30 32040 H 3041.91 0.398694 2.97036 0
M  V30 32041 H 3039.47 0.358726 1.57876 0
M  V30 32042 H 3041.46 -2.0827 3.46995 0
M  V30 32043 H 3040.03 -1.98879 2.41176 0
M  V30 32044 H 3039.25 -0.0298536 3.94189 0
M  V30 32045 H 3040.54 -0.505792 5.0628 0
M  V30 32046 H 3039.94 -3.60775 4.35727 0
M  V30 32047 H 3038.5 -3.85359 5.25682 0
M  V30 32048 N 3041.93 -1.55447 0.259613 0
M  V30 32049 C 3042.88 -2.21906 -0.634539 0
M  V30 32050 C 3043.85 -1.18721 -1.16166 0
M  V30 32051 O 3045.03 -1.47212 -1.2138 0
M  V30 32052 C 3042.17 -2.93207 -1.82 0
M  V30 32053 C 3041.28 -4.11075 -1.3282 0
M  V30 32054 C 3040.42 -4.70059 -2.47423 0
M  V30 32055 C 3039.46 -5.80151 -1.95169 0
M  V30 32056 N 3038.6 -6.33264 -3.03185 0
M  V30 32057 H 3043.44 -2.97937 -0.0611362 0
M  V30 32058 H 3040.97 -1.47088 -0.0184119 0
M  V30 32059 H 3042.93 -3.32752 -2.51658 0
M  V30 32060 H 3041.56 -2.19626 -2.36567 0
M  V30 32061 H 3040.61 -3.76756 -0.525235 0
M  V30 32062 H 3041.92 -4.90515 -0.905348 0
M  V30 32063 H 3041.08 -5.12244 -3.25102 0
M  V30 32064 H 3039.82 -3.89863 -2.93016 0
M  V30 32065 H 3038.82 -5.37431 -1.15964 0
M  V30 32066 H 3040.05 -6.62207 -1.5053 0
M  V30 32067 H 3037.99 -5.55968 -3.4819 0
M  V30 32068 H 3037.91 -7.07932 -2.6527 0
M  V30 32069 H 3039.18 -6.80108 -3.80886 0
M  V30 32070 N 3043.41 0.0133338 -1.57594 0
M  V30 32071 C 3044.68 0.737241 -1.81174 0
M  V30 32072 C 3045.06 1.92724 -0.861429 0
M  V30 32073 O 3044.41 2.28311 0.0928923 0
M  V30 32074 C 3044.62 1.15551 -3.29316 0
M  V30 32075 C 3045.97 1.56491 -3.9471 0
M  V30 32076 O 3046.99 1.24967 -3.33559 0
M  V30 32077 O 3045.85 2.1506 -5.02406 0
M  V30 32078 H 3042.95 0.357824 -0.745581 0
M  V30 32079 H 3045.49 -0.0110972 -1.69696 0
M  V30 32080 H 3044.27 0.306702 -3.90096 0
M  V30 32081 H 3043.89 1.96337 -3.45742 0
M  V30 32082 N 3044.89 1.54985 0.285878 0
M  V30 32083 C 3046.13 1.75243 1.02068 0
M  V30 32084 C 3046.46 0.544875 1.86399 0
M  V30 32085 O 3045.74 -0.457811 1.89035 0
M  V30 32086 C 3046.02 3.05019 1.91403 0
M  V30 32087 C 3045.88 4.36104 1.10151 0
M  V30 32088 C 3047.19 3.30752 2.90329 0
M  V30 32089 H 3044.31 0.637594 0.369652 0
M  V30 32090 H 3046.96 1.8771 0.294081 0
M  V30 32091 H 3045.11 2.94521 2.53357 0
M  V30 32092 H 3046.78 4.58542 0.503676 0
M  V30 32093 H 3045.02 4.31909 0.404599 0
M  V30 32094 H 3045.69 5.23208 1.75947 0
M  V30 32095 H 3048.17 3.40959 2.38508 0
M  V30 32096 H 3047.04 4.22846 3.49989 0
M  V30 32097 H 3047.3 2.49771 3.64783 0
M  V30 32098 N 3046.36 -0.549794 1.47699 0
M  V30 32099 C 3047.29 -1.6658 1.63625 0
M  V30 32100 C 3048.28 -1.63024 0.485506 0
M  V30 32101 O 3049.46 -1.8053 0.715723 0
M  V30 32102 C 3046.59 -3.05208 1.65726 0
M  V30 32103 C 3045.54 -3.23615 2.80102 0
M  V30 32104 C 3044.87 -4.63104 2.6728 0
M  V30 32105 C 3046.17 -3.08279 4.21618 0
M  V30 32106 H 3047.86 -1.53508 2.57052 0
M  V30 32107 H 3045.41 -0.737078 1.23706 0
M  V30 32108 H 3047.36 -3.83135 1.75458 0
M  V30 32109 H 3046.09 -3.19257 0.688649 0
M  V30 32110 H 3044.75 -2.48099 2.69893 0
M  V30 32111 H 3044.39 -4.73962 1.68431 0
M  V30 32112 H 3044.09 -4.76368 3.44017 0
M  V30 32113 H 3045.62 -5.43156 2.78951 0
M  V30 32114 H 3047.03 -3.76016 4.32764 0
M  V30 32115 H 3045.43 -3.33048 4.99198 0
M  V30 32116 H 3046.5 -2.04934 4.39465 0
M  V30 32117 N 3047.84 -1.35955 -0.797117 0
M  V30 32118 C 3048.75 -1.31788 -1.94086 0
M  V30 32119 C 3049.77 -0.221258 -1.72588 0
M  V30 32120 O 3050.94 -0.45229 -1.96256 0
M  V30 32121 C 3048.01 -1.09884 -3.28826 0
M  V30 32122 C 3047.07 -2.28949 -3.63154 0
M  V30 32123 C 3046.3 -2.08081 -4.91465 0
M  V30 32124 O 3046.53 -1.05206 -5.60614 0
M  V30 32125 O 3045.46 -2.95673 -5.24272 0
M  V30 32126 H 3049.29 -2.28065 -2.0055 0
M  V30 32127 H 3046.87 -1.16423 -0.936267 0
M  V30 32128 H 3048.75 -0.995557 -4.09471 0
M  V30 32129 H 3047.43 -0.166647 -3.23271 0
M  V30 32130 H 3046.34 -2.44844 -2.82847 0
M  V30 32131 H 3047.67 -3.20648 -3.73425 0
M  V30 32132 N 3049.32 1.02038 -1.20108 0
M  V30 32133 C 3050.56 1.77122 -1.02016 0
M  V30 32134 C 3050.92 1.86881 0.440406 0
M  V30 32135 O 3052.13 2.58373 0.741395 0
M  V30 32136 C 3050.4 3.1542 -1.68063 0
M  V30 32137 S 3051.96 4.06587 -1.65023 0
M  V30 32138 H 3048.77 0.609626 -0.365893 0
M  V30 32139 H 3051.38 1.22203 -1.52599 0
M  V30 32140 H 3050.08 3.0594 -2.73549 0
M  V30 32141 H 3049.61 3.75413 -1.17595 0
M  V30 32142 H 3051.63 4.91513 -0.680427 0
M  V30 32143 N 3050.8 1.00636 1.21285 0
M  V30 32144 C 3051.75 0.561065 2.25732 0
M  V30 32145 C 3052.74 -0.395066 1.64729 0
M  V30 32146 O 3053.95 -0.26611 1.78022 0
M  V30 32147 H 3050.32 0.163094 0.734101 0
M  V30 32148 H 3052.29 1.45312 2.60628 0
M  V30 32149 C 3051.04 -0.0951976 3.4757 0
M  V30 32150 H 3050.36 0.631496 3.94781 0
M  V30 32151 H 3051.8 -0.370031 4.22382 0
M  V30 32152 C 3050.26 -1.33482 3.09328 0
M  V30 32153 O 3050.79 -2.42906 3.19937 0
M  V30 32154 N 3049 -1.21508 2.63978 0
M  V30 32155 H 3048.55 -0.324696 2.55545 0
M  V30 32156 H 3048.5 -2.04551 2.3876 0
M  V30 32157 N 3052.28 -1.36872 0.781268 0
M  V30 32158 C 3053.52 -1.99749 0.350442 0
M  V30 32159 C 3053.86 -1.61872 -1.0729 0
M  V30 32160 O 3053.13 -0.869521 -1.73982 0
M  V30 32161 C 3053.41 -3.56543 0.504897 0
M  V30 32162 C 3053.27 -4.043 1.97134 0
M  V30 32163 C 3054.59 -4.40018 -0.0850499 0
M  V30 32164 H 3051.7 -0.725657 0.128807 0
M  V30 32165 H 3054.35 -1.62408 0.986089 0
M  V30 32166 H 3052.5 -3.88483 -0.0362323 0
M  V30 32167 H 3054.17 -3.82883 2.57291 0
M  V30 32168 H 3052.41 -3.5614 2.47682 0
M  V30 32169 H 3053.08 -5.13301 2.03042 0
M  V30 32170 H 3055.56 -4.14391 0.376776 0
M  V30 32171 H 3054.43 -5.48874 0.0530979 0
M  V30 32172 H 3054.7 -4.26162 -1.17635 0
M  V30 32173 N 3053.75 -0.532597 -1.48328 0
M  V30 32174 C 3054.7 0.228739 -2.29664 0
M  V30 32175 C 3055.67 0.931376 -1.3753 0
M  V30 32176 O 3056.86 0.931892 -1.66494 0
M  V30 32177 C 3054 1.26808 -3.20957 0
M  V30 32178 C 3053.11 0.574024 -4.28169 0
M  V30 32179 C 3052.24 1.59653 -5.0664 0
M  V30 32180 C 3051.28 0.886073 -6.05653 0
M  V30 32181 N 3050.42 1.85424 -6.77172 0
M  V30 32182 H 3055.26 -0.471032 -2.94254 0
M  V30 32183 H 3052.8 -0.244125 -1.4506 0
M  V30 32184 H 3054.76 1.883 -3.72289 0
M  V30 32185 H 3053.39 1.9362 -2.58285 0
M  V30 32186 H 3052.44 -0.154894 -3.80085 0
M  V30 32187 H 3053.75 0.0163108 -4.98797 0
M  V30 32188 H 3052.9 2.28566 -5.61999 0
M  V30 32189 H 3051.64 2.18813 -4.35858 0
M  V30 32190 H 3050.65 0.182885 -5.49496 0
M  V30 32191 H 3051.87 0.300539 -6.78435 0
M  V30 32192 H 3049.82 2.43488 -6.09138 0
M  V30 32193 H 3049.74 1.34803 -7.43884 0
M  V30 32194 H 3051 2.53528 -7.37119 0
M  V30 32195 N 3055.23 1.55307 -0.267853 0
M  V30 32196 C 3056.46 2.0384 0.354551 0
M  V30 32197 C 3056.88 1.14647 1.50005 0
M  V30 32198 O 3056.23 0.165087 1.81752 0
M  V30 32199 C 3056.28 3.51546 0.842479 0
M  V30 32200 O 3056 4.37343 -0.257395 0
M  V30 32201 C 3057.51 4.15933 1.53344 0
M  V30 32202 H 3054.73 0.665995 0.0818014 0
M  V30 32203 H 3057.27 2.00593 -0.39783 0
M  V30 32204 H 3055.42 3.5526 1.54497 0
M  V30 32205 H 3055.84 5.24371 0.116501 0
M  V30 32206 H 3057.31 5.20911 1.82634 0
M  V30 32207 H 3057.79 3.6367 2.46253 0
M  V30 32208 H 3058.4 4.16202 0.874987 0
M  V30 32209 N 3056.71 -0.00497598 1.57599 0
M  V30 32210 C 3057.94 -0.701982 1.94627 0
M  V30 32211 C 3058.35 -1.67583 0.869559 0
M  V30 32212 O 3057.71 -1.81866 -0.151958 0
M  V30 32213 C 3057.76 -1.43818 3.3166 0
M  V30 32214 O 3057.48 -0.50339 4.35198 0
M  V30 32215 C 3058.98 -2.23015 3.83118 0
M  V30 32216 H 3056.2 -0.195829 0.641788 0
M  V30 32217 H 3058.75 0.0446647 2.04451 0
M  V30 32218 H 3056.9 -2.1365 3.2316 0
M  V30 32219 H 3057.32 -1.02226 5.14442 0
M  V30 32220 H 3058.79 -2.70031 4.81443 0
M  V30 32221 H 3059.27 -3.05477 3.15564 0
M  V30 32222 H 3059.87 -1.58209 3.94778 0
M  V30 32223 N 3058.19 -1.55135 -0.277654 0
M  V30 32224 C 3059.1 -1.90786 -1.36521 0
M  V30 32225 C 3060.11 -0.804569 -1.54281 0
M  V30 32226 O 3061.29 -1.10321 -1.68497 0
M  V30 32227 C 3058.36 -2.1684 -2.7052 0
M  V30 32228 C 3057.42 -3.40429 -2.61546 0
M  V30 32229 C 3056.65 -3.65231 -3.89155 0
M  V30 32230 O 3056.87 -2.92625 -4.89619 0
M  V30 32231 O 3055.81 -4.58764 -3.89639 0
M  V30 32232 H 3059.63 -2.83356 -1.09285 0
M  V30 32233 H 3057.22 -1.41622 -0.475774 0
M  V30 32234 H 3059.1 -2.35044 -3.4976 0
M  V30 32235 H 3057.77 -1.27453 -2.97552 0
M  V30 32236 H 3056.68 -3.27565 -1.80698 0
M  V30 32237 H 3058.01 -4.3002 -2.39465 0
M  V30 32238 N 3059.67 0.541953 -1.47989 0
M  V30 32239 C 3060.91 1.30033 -1.55626 0
M  V30 32240 C 3061.25 1.929 -0.224288 0
M  V30 32241 O 3060.52 1.7867 0.768598 0
M  V30 32242 C 3060.8 2.39883 -2.68567 0
M  V30 32243 C 3060.66 1.81785 -4.1143 0
M  V30 32244 C 3061.98 3.41724 -2.77331 0
M  V30 32245 H 3059.09 0.471423 -0.566506 0
M  V30 32246 H 3061.74 0.604966 -1.80112 0
M  V30 32247 H 3059.89 2.99195 -2.47819 0
M  V30 32248 H 3061.56 1.26616 -4.43583 0
M  V30 32249 H 3059.8 1.12378 -4.18991 0
M  V30 32250 H 3060.47 2.61267 -4.86255 0
M  V30 32251 H 3062.95 2.92352 -2.96091 0
M  V30 32252 H 3061.82 4.15996 -3.58104 0
M  V30 32253 H 3062.09 4.0153 -1.85002 0
M  V30 32254 N 3061.15 1.36376 0.789896 0
M  V30 32255 C 3062.39 1.30773 1.55004 0
M  V30 32256 C 3062.72 -0.112945 1.93871 0
M  V30 32257 O 3062 -1.06622 1.62672 0
M  V30 32258 C 3062.28 2.22998 2.82744 0
M  V30 32259 C 3062.14 3.7376 2.50247 0
M  V30 32260 C 3063.45 2.14004 3.84565 0
M  V30 32261 H 3060.57 0.476369 0.562353 0
M  V30 32262 H 3063.22 1.66924 0.907552 0
M  V30 32263 H 3061.37 1.92298 3.3757 0
M  V30 32264 H 3063.04 4.14976 2.01475 0
M  V30 32265 H 3061.28 3.93219 1.83197 0
M  V30 32266 H 3061.95 4.337 3.4148 0
M  V30 32267 H 3064.43 2.41026 3.39184 0
M  V30 32268 H 3063.3 2.80705 4.71695 0
M  V30 32269 H 3063.56 1.12719 4.27489 0
M  V30 32270 N 3062.62 -1.014 1.20647 0
M  V30 32271 C 3063.87 -1.74693 1.01621 0
M  V30 32272 C 3064.19 -1.89679 -0.452405 0
M  V30 32273 O 3063.46 -1.44118 -1.3269 0
M  V30 32274 H 3062.04 -0.647195 0.373025 0
M  V30 32275 H 3064.7 -1.22238 1.51802 0
M  V30 32276 H 3063.8 -2.74954 1.4767 0
M  V30 32277 N 3064.1 -1.01278 -1.2075 0
M  V30 32278 C 3065.38 -0.615145 -1.85675 0
M  V30 32279 C 3065.76 0.906942 -1.90625 0
M  V30 32280 O 3065.11 1.79709 -1.41127 0
M  V30 32281 C 3065.32 -1.25852 -3.25518 0
M  V30 32282 C 3066.66 -1.37155 -4.01838 0
M  V30 32283 O 3067.69 -1.21444 -3.34858 0
M  V30 32284 O 3066.55 -1.62504 -5.2178 0
M  V30 32285 H 3063.64 -0.211743 -0.799434 0
M  V30 32286 H 3066.19 -1.10992 -1.2837 0
M  V30 32287 H 3064.96 -2.29874 -3.1666 0
M  V30 32288 H 3064.58 -0.750593 -3.90451 0
M  V30 32289 N 3065.58 1.36456 -0.788516 0
M  V30 32290 C 3066.83 1.98514 -0.357087 0
M  V30 32291 C 3067.14 1.63287 1.07688 0
M  V30 32292 O 3068.35 2.18573 1.61053 0
M  V30 32293 C 3066.8 3.55072 -0.587512 0
M  V30 32294 C 3066.41 3.99224 -2.03283 0
M  V30 32295 C 3068.16 4.23927 -0.220543 0
M  V30 32296 C 3066.06 5.48557 -2.20996 0
M  V30 32297 H 3064.99 0.742748 -0.129775 0
M  V30 32298 H 3067.64 1.55765 -0.970022 0
M  V30 32299 H 3066.03 3.95886 0.0951222 0
M  V30 32300 H 3067.2 3.69612 -2.75179 0
M  V30 32301 H 3065.51 3.43204 -2.35796 0
M  V30 32302 H 3068.11 5.33673 -0.331179 0
M  V30 32303 H 3068.45 4.07917 0.831234 0
M  V30 32304 H 3068.99 3.88473 -0.856378 0
M  V30 32305 H 3065.73 5.69513 -3.24553 0
M  V30 32306 H 3065.25 5.79798 -1.53604 0
M  V30 32307 H 3066.93 6.14768 -2.01667 0
M  V30 32308 N 3067.06 0.540456 1.48043 0
M  V30 32309 C 3068.31 0.00813507 2.01698 0
M  V30 32310 C 3068.62 -1.34322 1.42186 0
M  V30 32311 O 3069.83 -1.9645 1.87402 0
M  V30 32312 C 3068.28 -0.0358697 3.59882 0
M  V30 32313 C 3067.89 1.31123 4.28382 0
M  V30 32314 C 3069.63 -0.516466 4.21347 0
M  V30 32315 C 3067.54 1.22724 5.78526 0
M  V30 32316 H 3066.47 -0.00072892 0.754 0
M  V30 32317 H 3069.12 0.685805 1.70203 0
M  V30 32318 H 3067.5 -0.778838 3.88266 0
M  V30 32319 H 3068.68 2.07059 4.11659 0
M  V30 32320 H 3066.99 1.7284 3.78834 0
M  V30 32321 H 3069.59 -0.597436 5.31352 0
M  V30 32322 H 3069.93 -1.52466 3.87375 0
M  V30 32323 H 3070.47 0.171133 3.97432 0
M  V30 32324 H 3067.2 2.21091 6.17089 0
M  V30 32325 H 3066.72 0.509415 5.97633 0
M  V30 32326 H 3068.4 0.922273 6.40393 0
M  V30 32327 N 3068.54 -1.55163 0.276085 0
M  V30 32328 C 3069.47 -2.25537 -0.604593 0
M  V30 32329 C 3070.45 -1.24587 -1.15811 0
M  V30 32330 O 3071.63 -1.53308 -1.19207 0
M  V30 32331 C 3068.76 -2.9772 -1.78831 0
M  V30 32332 C 3067.72 -4.05607 -1.36628 0
M  V30 32333 C 3067.04 -4.65369 -2.63317 0
M  V30 32334 C 3068.34 -5.19747 -0.515767 0
M  V30 32335 H 3070.04 -2.99395 -0.0176957 0
M  V30 32336 H 3067.58 -1.43998 -0.00707096 0
M  V30 32337 H 3069.53 -3.45663 -2.4103 0
M  V30 32338 H 3068.26 -2.21398 -2.40105 0
M  V30 32339 H 3066.92 -3.58476 -0.767478 0
M  V30 32340 H 3066.57 -3.85715 -3.22851 0
M  V30 32341 H 3066.27 -5.38216 -2.3579 0
M  V30 32342 H 3067.79 -5.16062 -3.26363 0
M  V30 32343 H 3069.2 -5.63736 -1.04279 0
M  V30 32344 H 3067.6 -5.99162 -0.335344 0
M  V30 32345 H 3068.67 -4.82663 0.465222 0
M  V30 32346 N 3070.01 -0.00338196 -1.576 0
M  V30 32347 C 3070.96 0.986938 -2.08634 0
M  V30 32348 C 3071.93 1.33925 -0.982514 0
M  V30 32349 O 3073.12 1.43703 -1.25515 0
M  V30 32350 C 3070.26 2.27256 -2.59709 0
M  V30 32351 C 3069.37 1.97898 -3.84006 0
M  V30 32352 C 3068.5 3.20567 -4.23569 0
M  V30 32353 C 3067.54 2.8691 -5.40693 0
M  V30 32354 N 3066.68 4.02126 -5.75534 0
M  V30 32355 H 3071.52 0.544804 -2.92978 0
M  V30 32356 H 3069.06 0.25735 -1.44831 0
M  V30 32357 H 3071.01 3.02418 -2.87401 0
M  V30 32358 H 3069.64 2.69133 -1.78234 0
M  V30 32359 H 3068.7 1.13089 -3.63201 0
M  V30 32360 H 3070.01 1.69093 -4.69264 0
M  V30 32361 H 3069.16 4.04071 -4.52561 0
M  V30 32362 H 3067.9 3.52512 -3.37026 0
M  V30 32363 H 3066.91 2.01814 -5.11421 0
M  V30 32364 H 3068.13 2.56209 -6.28915 0
M  V30 32365 H 3066.08 4.33962 -4.91948 0
M  V30 32366 H 3065.99 3.76857 -6.55374 0
M  V30 32367 H 3067.26 4.8641 -6.09119 0
M  V30 32368 N 3071.49 1.5528 0.269423 0
M  V30 32369 C 3072.9 1.66726 0.840204 0
M  V30 32370 C 3073.25 0.596654 1.86908 0
M  V30 32371 O 3072.38 -0.261209 2.14818 0
M  V30 32372 C 3072.97 3.02248 1.53075 0
M  V30 32373 C 3071.53 3.15709 2.04951 0
M  V30 32374 C 3070.68 2.62535 0.892792 0
M  V30 32375 H 3073.63 1.58634 0.0456957 0
M  V30 32376 H 3073.65 2.95436 2.39787 0
M  V30 32377 H 3073.16 3.80147 0.781674 0
M  V30 32378 H 3071.26 2.4259 2.82809 0
M  V30 32379 H 3071.38 4.2232 2.26236 0
M  V30 32380 H 3069.74 2.19783 1.28715 0
M  V30 32381 H 3070.52 3.4294 0.157169 0
M  V30 32382 N 3072.97 -0.534097 1.48274 0
M  V30 32383 C 3073.93 -1.62124 1.62013 0
M  V30 32384 C 3074.93 -1.53034 0.49368 0
M  V30 32385 O 3076.12 -1.56778 0.759364 0
M  V30 32386 C 3073.25 -3.01736 1.58645 0
M  V30 32387 H 3074.45 -1.51284 2.58946 0
M  V30 32388 H 3072 -0.755837 1.36809 0
M  V30 32389 H 3072.74 -3.18087 0.631741 0
M  V30 32390 H 3072.52 -3.09743 2.4042 0
M  V30 32391 H 3074.01 -3.80784 1.71445 0
M  V30 32392 N 3074.45 -1.36793 -0.782652 0
M  V30 32393 C 3075.4 -1.31741 -1.91695 0
M  V30 32394 C 3076.39 -0.208024 -1.68118 0
M  V30 32395 O 3077.6 -0.375424 -1.76041 0
M  V30 32396 H 3073.97 -0.410295 -0.630208 0
M  V30 32397 H 3075.94 -2.27519 -1.93074 0
M  V30 32398 C 3074.69 -1.13035 -3.28814 0
M  V30 32399 H 3074.01 -1.9765 -3.47527 0
M  V30 32400 H 3075.45 -1.13548 -4.08513 0
M  V30 32401 C 3073.91 0.164641 -3.36497 0
M  V30 32402 O 3074.44 1.15209 -3.84824 0
M  V30 32403 N 3072.65 0.211627 -2.89828 0
M  V30 32404 H 3072.2 -0.592564 -2.50692 0
M  V30 32405 H 3072.15 1.07774 -2.95351 0
M  V30 32406 N 3075.93 1.00759 -1.21184 0
M  V30 32407 C 3076.87 2.11603 -0.965766 0
M  V30 32408 C 3077.87 1.69181 0.0860731 0
M  V30 32409 O 3079.07 1.79882 -0.0650874 0
M  V30 32410 H 3075.45 0.691707 -0.295035 0
M  V30 32411 H 3077.42 2.29537 -1.90671 0
M  V30 32412 C 3076.17 3.43414 -0.544225 0
M  V30 32413 H 3075.49 3.76489 -1.34521 0
M  V30 32414 H 3076.93 4.22 -0.411342 0
M  V30 32415 C 3075.39 3.2857 0.744525 0
M  V30 32416 O 3075.92 3.59078 1.80071 0
M  V30 32417 N 3074.13 2.81792 0.710034 0
M  V30 32418 H 3073.67 2.57164 -0.149755 0
M  V30 32419 H 3073.63 2.72242 1.57264 0
M  V30 32420 N 3077.4 1.01917 1.20211 0
M  V30 32421 C 3078.63 0.72911 1.94162 0
M  V30 32422 C 3079.05 -0.704293 1.74417 0
M  V30 32423 O 3078.41 -1.48496 1.04012 0
M  V30 32424 C 3078.46 1.0733 3.44256 0
M  V30 32425 O 3077.56 0.18644 4.11978 0
M  V30 32426 H 3076.91 0.270282 0.606501 0
M  V30 32427 H 3079.44 1.36323 1.52569 0
M  V30 32428 H 3079.45 1.0261 3.94886 0
M  V30 32429 H 3078.12 2.11765 3.5795 0
M  V30 32430 H 3076.7 0.291399 3.7176 0
M  V30 32431 N 3078.88 -1.36036 0.795742 0
M  V30 32432 C 3079.81 -2.32528 0.212843 0
M  V30 32433 C 3080.79 -1.56955 -0.655689 0
M  V30 32434 O 3081.98 -1.85078 -0.588205 0
M  V30 32435 C 3079.11 -3.41199 -0.648129 0
M  V30 32436 C 3078.06 -4.27829 0.121023 0
M  V30 32437 C 3077.39 -5.27723 -0.860951 0
M  V30 32438 C 3078.69 -5.05505 1.31384 0
M  V30 32439 H 3080.38 -2.81526 1.01898 0
M  V30 32440 H 3077.93 -1.35354 0.491446 0
M  V30 32441 H 3079.88 -4.07697 -1.0659 0
M  V30 32442 H 3078.61 -2.90783 -1.48704 0
M  V30 32443 H 3077.26 -3.62896 0.519841 0
M  V30 32444 H 3076.91 -4.73578 -1.69507 0
M  V30 32445 H 3076.61 -5.86552 -0.350705 0
M  V30 32446 H 3078.14 -5.97094 -1.27715 0
M  V30 32447 H 3079.55 -5.65009 0.971506 0
M  V30 32448 H 3077.95 -5.73778 1.75782 0
M  V30 32449 H 3079.02 -4.36779 2.106 0
M  V30 32450 N 3080.36 -0.5483 -1.47755 0
M  V30 32451 C 3081.31 0.204367 -2.29893 0
M  V30 32452 C 3082.28 0.916737 -1.3851 0
M  V30 32453 O 3083.46 0.91418 -1.67474 0
M  V30 32454 C 3080.6 1.23397 -3.22284 0
M  V30 32455 C 3079.72 0.528578 -4.28754 0
M  V30 32456 C 3078.85 1.5427 -5.08305 0
M  V30 32457 C 3077.89 0.821786 -6.06558 0
M  V30 32458 N 3077.03 1.78231 -6.79101 0
M  V30 32459 H 3081.87 -0.502215 -2.93738 0
M  V30 32460 H 3079.4 -0.259497 -1.44793 0
M  V30 32461 H 3081.36 1.84341 -3.74265 0
M  V30 32462 H 3079.99 1.9087 -2.60324 0
M  V30 32463 H 3079.04 -0.195198 -3.79899 0
M  V30 32464 H 3080.36 -0.0365943 -4.98787 0
M  V30 32465 H 3079.51 2.22592 -5.64391 0
M  V30 32466 H 3078.25 2.14178 -4.38154 0
M  V30 32467 H 3077.25 0.124593 -5.49659 0
M  V30 32468 H 3078.48 0.228565 -6.78715 0
M  V30 32469 H 3076.42 2.37014 -6.11687 0
M  V30 32470 H 3076.34 1.26906 -7.45272 0
M  V30 32471 H 3077.61 2.45696 -7.39766 0
M  V30 32472 N 3081.84 1.55014 -0.28431 0
M  V30 32473 C 3083.09 1.98974 0.330515 0
M  V30 32474 C 3083.4 1.17624 1.56282 0
M  V30 32475 O 3084.61 1.51771 2.25118 0
M  V30 32476 C 3083.06 3.54175 0.639395 0
M  V30 32477 C 3082.67 4.44312 -0.573621 0
M  V30 32478 C 3084.41 4.06701 1.21634 0
M  V30 32479 C 3082.32 5.90918 -0.238818 0
M  V30 32480 H 3081.25 0.743181 0.127272 0
M  V30 32481 H 3083.9 1.79299 -0.390404 0
M  V30 32482 H 3082.28 3.69685 1.41946 0
M  V30 32483 H 3083.46 4.40573 -1.35028 0
M  V30 32484 H 3081.77 4.0247 -1.06804 0
M  V30 32485 H 3084.37 5.13787 1.48079 0
M  V30 32486 H 3084.71 3.5629 2.15321 0
M  V30 32487 H 3085.25 3.94666 0.498352 0
M  V30 32488 H 3081.99 6.45443 -1.14381 0
M  V30 32489 H 3081.51 5.97705 0.500892 0
M  V30 32490 H 3083.18 6.46788 0.16566 0
M  V30 32491 N 3083.32 0.0117398 1.57596 0
M  V30 32492 C 3084.54 -0.6813 1.95361 0
M  V30 32493 C 3084.96 -1.66651 0.887285 0
M  V30 32494 O 3084.32 -1.82017 -0.13266 0
M  V30 32495 C 3084.37 -1.40292 3.33167 0
M  V30 32496 O 3084.09 -0.457203 4.35708 0
M  V30 32497 C 3085.59 -2.18939 3.85462 0
M  V30 32498 H 3082.81 -0.189011 0.643829 0
M  V30 32499 H 3085.35 0.0663469 2.04392 0
M  V30 32500 H 3083.51 -2.1021 3.25408 0
M  V30 32501 H 3083.92 -0.967639 5.15497 0
M  V30 32502 H 3085.4 -2.6491 4.8428 0
M  V30 32503 H 3085.87 -3.02113 3.18786 0
M  V30 32504 H 3086.48 -1.54013 3.96434 0
M  V30 32505 N 3084.79 -1.55421 -0.261185 0
M  V30 32506 C 3085.7 -1.92223 -1.3449 0
M  V30 32507 C 3086.72 -0.820887 -1.53419 0
M  V30 32508 O 3087.9 -1.12102 -1.67318 0
M  V30 32509 C 3084.96 -2.19697 -2.68205 0
M  V30 32510 C 3084.02 -3.43184 -2.57921 0
M  V30 32511 C 3083.26 -3.69338 -3.8526 0
M  V30 32512 O 3083.48 -2.97801 -4.86488 0
M  V30 32513 O 3082.41 -4.62871 -3.84752 0
M  V30 32514 H 3086.24 -2.84499 -1.06273 0
M  V30 32515 H 3083.82 -1.42119 -0.460727 0
M  V30 32516 H 3085.71 -2.3874 -3.47248 0
M  V30 32517 H 3084.38 -1.30602 -2.96184 0
M  V30 32518 H 3083.29 -3.29463 -1.77214 0
M  V30 32519 H 3084.62 -4.32536 -2.3489 0
M  V30 32520 N 3086.27 0.526227 -1.48555 0
M  V30 32521 C 3087.18 1.65728 -1.66046 0
M  V30 32522 C 3088.2 1.65311 -0.54298 0
M  V30 32523 O 3089.37 1.84194 -0.814527 0
M  V30 32524 C 3086.44 3.02181 -1.69964 0
M  V30 32525 C 3085.5 3.13423 -2.93367 0
M  V30 32526 C 3084.73 4.43367 -2.97089 0
M  V30 32527 O 3084.96 5.30687 -2.09112 0
M  V30 32528 O 3083.89 4.59054 -3.89298 0
M  V30 32529 H 3087.72 1.53907 -2.61813 0
M  V30 32530 H 3085.3 0.699736 -1.32 0
M  V30 32531 H 3087.18 3.83326 -1.7504 0
M  V30 32532 H 3085.86 3.14317 -0.773713 0
M  V30 32533 H 3084.77 2.31559 -2.93822 0
M  V30 32534 H 3086.1 3.06204 -3.85357 0
M  V30 32535 N 3087.75 1.37206 0.775387 0
M  V30 32536 C 3089 1.32409 1.53609 0
M  V30 32537 C 3089.33 -0.0923762 1.9398 0
M  V30 32538 O 3088.6 -1.04891 1.63793 0
M  V30 32539 C 3088.89 2.25984 2.80363 0
M  V30 32540 C 3088.74 3.76393 2.46269 0
M  V30 32541 C 3090.06 2.18071 3.82273 0
M  V30 32542 H 3087.18 0.482307 0.557269 0
M  V30 32543 H 3089.82 1.67877 0.889797 0
M  V30 32544 H 3087.97 1.95868 3.35512 0
M  V30 32545 H 3089.64 4.1709 1.97062 0
M  V30 32546 H 3087.89 3.9514 1.79016 0
M  V30 32547 H 3088.56 4.37297 3.3686 0
M  V30 32548 H 3091.03 2.4461 3.36609 0
M  V30 32549 H 3089.91 2.85692 4.68691 0
M  V30 32550 H 3090.17 1.17246 4.2627 0
M  V30 32551 N 3089.23 -1.00115 1.21716 0
M  V30 32552 C 3090.48 -1.73605 1.03468 0
M  V30 32553 C 3090.8 -1.90149 -0.432261 0
M  V30 32554 O 3090.07 -1.45518 -1.31154 0
M  V30 32555 H 3088.65 -0.643202 0.379868 0
M  V30 32556 H 3091.31 -1.20621 1.5309 0
M  V30 32557 H 3090.41 -2.73373 1.50578 0
M  V30 32558 N 3090.71 -1.02553 -1.19669 0
M  V30 32559 C 3091.66 -0.574076 -2.20654 0
M  V30 32560 C 3092.64 0.375384 -1.5646 0
M  V30 32561 O 3093.83 0.196899 -1.75901 0
M  V30 32562 C 3090.96 0.0771428 -3.43213 0
M  V30 32563 C 3090.05 -0.894558 -4.14558 0
M  V30 32564 N 3090.44 -2.05565 -4.62144 0
M  V30 32565 C 3088.74 -0.717282 -4.40194 0
M  V30 32566 C 3089.44 -2.66823 -5.16895 0
M  V30 32567 N 3088.41 -1.94813 -5.07493 0
M  V30 32568 H 3092.22 -1.45912 -2.55121 0
M  V30 32569 H 3089.73 -0.892064 -1.35705 0
M  V30 32570 H 3091.73 0.418167 -4.14798 0
M  V30 32571 H 3090.39 0.957919 -3.10248 0
M  V30 32572 H 3091.4 -2.43521 -4.57075 0
M  V30 32573 H 3088.08 0.114685 -4.17342 0
M  V30 32574 H 3089.47 -3.65136 -5.64026 0
M  V30 32575 N 3092.19 1.35612 -0.802945 0
M  V30 32576 C 3093.41 2.03115 -0.393966 0
M  V30 32577 C 3093.83 1.60519 0.993933 0
M  V30 32578 O 3093.19 0.801002 1.63982 0
M  V30 32579 C 3093.24 3.58516 -0.463549 0
M  V30 32580 O 3092.96 3.99561 -1.79673 0
M  V30 32581 C 3094.46 4.43275 -0.0469157 0
M  V30 32582 H 3091.68 0.651514 -0.16053 0
M  V30 32583 H 3094.22 1.73309 -1.08555 0
M  V30 32584 H 3092.38 3.86983 0.179753 0
M  V30 32585 H 3092.79 4.94197 -1.75697 0
M  V30 32586 H 3094.27 5.51805 -0.146723 0
M  V30 32587 H 3094.74 4.27492 1.00733 0
M  V30 32588 H 3095.35 4.20097 -0.663232 0
M  V30 32589 N 3093.66 0.556128 1.47462 0
M  V30 32590 C 3094.94 -0.0339548 1.95571 0
M  V30 32591 C 3095.32 -1.48666 1.49872 0
M  V30 32592 O 3094.67 -2.16286 0.737057 0
M  V30 32593 C 3094.88 0.110404 3.48825 0
M  V30 32594 C 3096.23 -0.035497 4.24585 0
M  V30 32595 O 3097.25 0.0378982 3.5618 0
M  V30 32596 O 3096.11 -0.193203 5.46158 0
M  V30 32597 H 3093.2 -0.0647376 0.824462 0
M  V30 32598 H 3095.75 0.622575 1.57867 0
M  V30 32599 H 3094.52 1.12133 3.74889 0
M  V30 32600 H 3094.14 -0.583786 3.93291 0
M  V30 32601 N 3095.14 -1.54861 0.292527 0
M  V30 32602 C 3096.07 -2.26166 -0.580638 0
M  V30 32603 C 3097.05 -1.25808 -1.14483 0
M  V30 32604 O 3098.24 -1.54564 -1.17574 0
M  V30 32605 C 3095.37 -2.996 -1.75663 0
M  V30 32606 C 3094.32 -4.07033 -1.32318 0
M  V30 32607 C 3093.65 -4.68136 -2.58366 0
M  V30 32608 C 3094.95 -5.20265 -0.460612 0
M  V30 32609 H 3096.64 -2.99397 0.0140601 0
M  V30 32610 H 3094.19 -1.43998 0.00820238 0
M  V30 32611 H 3096.14 -3.482 -2.3735 0
M  V30 32612 H 3094.86 -2.23932 -2.37743 0
M  V30 32613 H 3093.52 -3.5927 -0.729414 0
M  V30 32614 H 3093.17 -3.89118 -3.18742 0
M  V30 32615 H 3092.87 -5.40687 -2.30069 0
M  V30 32616 H 3094.4 -5.19494 -3.20871 0
M  V30 32617 H 3095.81 -5.64811 -0.982938 0
M  V30 32618 H 3094.21 -5.99484 -0.271776 0
M  V30 32619 H 3095.28 -4.82143 0.516388 0
M  V30 32620 N 3096.62 -0.0200973 -1.57587 0
M  V30 32621 C 3097.55 0.999259 -2.05159 0
M  V30 32622 C 3098.53 1.32285 -0.945489 0
M  V30 32623 O 3099.71 1.44106 -1.21514 0
M  V30 32624 C 3096.84 2.32168 -2.46608 0
M  V30 32625 C 3095.89 2.15333 -3.68149 0
M  V30 32626 S 3096.72 1.46056 -5.15197 0
M  V30 32627 C 3097.88 2.79687 -5.59934 0
M  V30 32628 H 3098.11 0.594278 -2.913 0
M  V30 32629 H 3095.64 0.191345 -1.5321 0
M  V30 32630 H 3097.6 3.08197 -2.71155 0
M  V30 32631 H 3096.26 2.69801 -1.60829 0
M  V30 32632 H 3095.45 3.13075 -3.94969 0
M  V30 32633 H 3095.06 1.47448 -3.43708 0
M  V30 32634 H 3097.35 3.75947 -5.63622 0
M  V30 32635 H 3098.29 2.57543 -6.59604 0
M  V30 32636 H 3098.7 2.8452 -4.87554 0
M  V30 32637 N 3098.1 1.55557 0.252939 0
M  V30 32638 C 3099.06 1.89013 1.29641 0
M  V30 32639 C 3100.06 0.766121 1.41376 0
M  V30 32640 O 3101.25 1.03416 1.40181 0
M  V30 32641 C 3098.38 2.11321 2.675 0
M  V30 32642 H 3099.58 2.8231 1.01197 0
M  V30 32643 H 3097.13 1.48356 0.491951 0
M  V30 32644 H 3097.86 1.20472 3.01093 0
M  V30 32645 H 3097.65 2.93177 2.60365 0
M  V30 32646 H 3099.14 2.38409 3.42857 0
M  V30 32647 N 3099.58 -0.518341 1.48832 0
M  V30 32648 C 3100.54 -1.60397 1.63724 0
M  V30 32649 C 3101.54 -1.52502 0.509884 0
M  V30 32650 O 3102.73 -1.55964 0.77595 0
M  V30 32651 C 3099.86 -3.00036 1.61837 0
M  V30 32652 H 3101.05 -1.48529 2.60536 0
M  V30 32653 H 3098.61 -0.741284 1.37603 0
M  V30 32654 H 3099.34 -3.17399 0.665443 0
M  V30 32655 H 3099.13 -3.07175 2.43692 0
M  V30 32656 H 3100.62 -3.78944 1.75474 0
M  V30 32657 N 3101.05 -1.37615 -0.7681 0
M  V30 32658 C 3102.28 -1.3603 -1.55498 0
M  V30 32659 C 3102.69 0.0553941 -1.89119 0
M  V30 32660 O 3102.03 1.02856 -1.52205 0
M  V30 32661 C 3102.1 -2.13744 -2.89057 0
M  V30 32662 C 3101.76 -3.62679 -2.78052 0
M  V30 32663 C 3102.76 -4.56485 -2.48833 0
M  V30 32664 C 3100.44 -4.05849 -2.95959 0
M  V30 32665 C 3102.44 -5.91438 -2.37655 0
M  V30 32666 C 3100.12 -5.40887 -2.84402 0
M  V30 32667 C 3101.12 -6.33495 -2.5529 0
M  V30 32668 O 3100.81 -7.66051 -2.43765 0
M  V30 32669 H 3100.54 -0.467529 -0.488254 0
M  V30 32670 H 3103.1 -1.81609 -0.959551 0
M  V30 32671 H 3101.33 -1.6286 -3.50733 0
M  V30 32672 H 3103.01 -2.04747 -3.50476 0
M  V30 32673 H 3103.78 -4.24441 -2.3468 0
M  V30 32674 H 3099.66 -3.34124 -3.17619 0
M  V30 32675 H 3103.2 -6.6369 -2.14853 0
M  V30 32676 H 3099.1 -5.72532 -2.98123 0
M  V30 32677 H 3099.87 -7.76412 -2.59087 0
M  V30 32678 N 3102.53 0.994677 -1.22245 0
M  V30 32679 C 3103.78 1.73653 -1.04749 0
M  V30 32680 C 3104.11 1.89678 0.416646 0
M  V30 32681 O 3103.39 1.43865 1.30894 0
M  V30 32682 C 3103.67 3.14315 -1.75722 0
M  V30 32683 C 3103.52 3.0595 -3.29719 0
M  V30 32684 C 3104.84 4.13452 -1.50816 0
M  V30 32685 H 3101.96 0.630315 -0.381932 0
M  V30 32686 H 3104.6 1.15894 -1.50561 0
M  V30 32687 H 3102.75 3.63627 -1.36776 0
M  V30 32688 H 3104.42 2.64272 -3.78098 0
M  V30 32689 H 3102.67 2.42797 -3.59488 0
M  V30 32690 H 3103.34 4.05479 -3.74554 0
M  V30 32691 H 3105.81 3.72889 -1.84643 0
M  V30 32692 H 3104.69 5.09993 -2.02973 0
M  V30 32693 H 3104.95 4.39901 -0.44037 0
M  V30 32694 N 3104.01 1.03186 1.19123 0
M  V30 32695 C 3105.29 0.644606 1.84673 0
M  V30 32696 C 3105.67 -0.876501 1.92043 0
M  V30 32697 O 3105.01 -1.77441 1.43968 0
M  V30 32698 C 3105.22 1.31015 3.23475 0
M  V30 32699 C 3106.57 1.43531 3.99605 0
M  V30 32700 O 3107.6 1.26756 3.32883 0
M  V30 32701 O 3106.46 1.70785 5.19129 0
M  V30 32702 H 3103.55 0.224434 0.795964 0
M  V30 32703 H 3106.1 1.1302 1.26588 0
M  V30 32704 H 3104.87 2.34883 3.12963 0
M  V30 32705 H 3104.49 0.812615 3.89207 0
M  V30 32706 N 3105.49 -1.35184 0.810125 0
M  V30 32707 C 3106.44 -2.3164 0.211112 0
M  V30 32708 C 3107.43 -1.56801 -0.641082 0
M  V30 32709 O 3108.64 -1.71901 -0.53385 0
M  V30 32710 H 3105.01 -0.750368 0.049511 0
M  V30 32711 H 3106.98 -2.79702 1.03969 0
M  V30 32712 C 3105.73 -3.42075 -0.622873 0
M  V30 32713 H 3105.05 -3.99793 0.023535 0
M  V30 32714 H 3106.49 -4.11836 -1.00833 0
M  V30 32715 C 3104.95 -2.8542 -1.78989 0
M  V30 32716 O 3105.48 -2.79257 -2.88753 0
M  V30 32717 N 3103.69 -2.42419 -1.60254 0
M  V30 32718 H 3103.24 -2.47631 -0.709697 0
M  V30 32719 H 3103.19 -2.04861 -2.38494 0
M  V30 32720 N 3106.97 -0.56394 -1.47165 0
M  V30 32721 C 3108.19 -0.0455063 -2.0735 0
M  V30 32722 C 3108.62 1.2418 -1.41283 0
M  V30 32723 O 3107.97 1.7455 -0.490115 0
M  V30 32724 C 3108.02 0.126389 -3.60378 0
M  V30 32725 O 3107.13 1.18739 -3.94936 0
M  V30 32726 H 3106.47 -0.0543493 -0.661772 0
M  V30 32727 H 3109 -0.781541 -1.89085 0
M  V30 32728 H 3109.01 0.338483 -4.06594 0
M  V30 32729 H 3107.68 -0.813802 -4.0786 0
M  V30 32730 H 3106.26 0.955254 -3.60457 0
M  V30 32731 N 3108.44 1.54704 -0.300735 0
M  V30 32732 C 3109.67 2.05009 0.314037 0
M  V30 32733 C 3110.09 1.1766 1.46757 0
M  V30 32734 O 3109.45 0.180629 1.80398 0
M  V30 32735 C 3109.5 3.52753 0.748181 0
M  V30 32736 O 3108.6 3.68427 1.85298 0
M  V30 32737 H 3107.95 0.661192 0.0610023 0
M  V30 32738 H 3110.48 1.99758 -0.442502 0
M  V30 32739 H 3110.49 3.946 1.03706 0
M  V30 32740 H 3109.16 4.1579 -0.095646 0
M  V30 32741 H 3107.74 3.38485 1.56467 0
M  V30 32742 N 3109.92 0.0284543 1.57574 0
M  V30 32743 C 3110.85 -0.952002 2.13212 0
M  V30 32744 C 3111.83 -1.33975 1.04808 0
M  V30 32745 O 3113.02 -1.41849 1.32637 0
M  V30 32746 C 3110.15 -2.23456 2.65866 0
M  V30 32747 C 3109.1 -1.98758 3.7905 0
M  V30 32748 C 3108.43 -3.33274 4.1813 0
M  V30 32749 C 3109.73 -1.3273 5.05153 0
M  V30 32750 H 3111.42 -0.488653 2.95385 0
M  V30 32751 H 3108.97 -0.233603 1.42093 0
M  V30 32752 H 3110.92 -2.92426 3.03423 0
M  V30 32753 H 3109.65 -2.71956 1.80852 0
M  V30 32754 H 3108.3 -1.32207 3.41931 0
M  V30 32755 H 3107.95 -3.79531 3.30099 0
M  V30 32756 H 3107.65 -3.17555 4.94401 0
M  V30 32757 H 3109.18 -4.03512 4.58269 0
M  V30 32758 H 3110.59 -1.91698 5.403 0
M  V30 32759 H 3108.99 -1.27411 5.86418 0
M  V30 32760 H 3110.06 -0.300176 4.8397 0
M  V30 32761 N 3111.4 -1.55689 -0.244686 0
M  V30 32762 C 3112.63 -1.81682 -0.989912 0
M  V30 32763 C 3113.04 -0.60448 -1.78862 0
M  V30 32764 O 3112.4 0.426876 -1.77437 0
M  V30 32765 C 3112.45 -3.0592 -1.92602 0
M  V30 32766 O 3112.17 -4.22474 -1.15963 0
M  V30 32767 C 3113.67 -3.44729 -2.78705 0
M  V30 32768 H 3110.89 -0.604524 -0.29119 0
M  V30 32769 H 3113.44 -2.02751 -0.266902 0
M  V30 32770 H 3111.59 -2.86894 -2.60328 0
M  V30 32771 H 3112.01 -4.92901 -1.79302 0
M  V30 32772 H 3113.48 -4.34757 -3.40133 0
M  V30 32773 H 3113.96 -2.65416 -3.4993 0
M  V30 32774 H 3114.56 -3.66113 -2.16428 0
M  V30 32775 N 3112.88 0.510441 -1.49105 0
M  V30 32776 C 3114.13 1.26173 -1.57364 0
M  V30 32777 C 3114.44 1.93847 -0.261252 0
M  V30 32778 O 3115.65 2.70589 -0.222285 0
M  V30 32779 C 3114.1 2.29043 -2.7761 0
M  V30 32780 C 3113.71 1.6735 -4.1557 0
M  V30 32781 C 3115.45 3.05059 -2.95194 0
M  V30 32782 C 3113.36 2.68275 -5.27051 0
M  V30 32783 H 3112.29 0.474597 -0.585895 0
M  V30 32784 H 3114.94 0.536723 -1.75475 0
M  V30 32785 H 3113.32 3.04665 -2.52973 0
M  V30 32786 H 3114.5 0.977844 -4.50305 0
M  V30 32787 H 3112.81 1.03758 -4.03266 0
M  V30 32788 H 3115.41 3.80515 -3.7565 0
M  V30 32789 H 3115.75 3.62105 -2.05392 0
M  V30 32790 H 3116.29 2.36552 -3.19825 0
M  V30 32791 H 3113.03 2.16023 -6.18882 0
M  V30 32792 H 3112.55 3.3611 -4.9678 0
M  V30 32793 H 3114.22 3.30886 -5.55989 0
M  V30 32794 N 3114.36 1.38021 0.760791 0
M  V30 32795 C 3115.3 1.3467 1.87437 0
M  V30 32796 C 3116.27 0.210415 1.64762 0
M  V30 32797 O 3117.46 0.401512 1.86528 0
M  V30 32798 C 3114.6 1.17043 3.24646 0
M  V30 32799 C 3113.71 2.39996 3.59201 0
M  V30 32800 C 3112.85 2.15156 4.85676 0
M  V30 32801 C 3111.89 3.33919 5.12996 0
M  V30 32802 N 3111.02 3.0856 6.30663 0
M  V30 32803 H 3115.86 2.29874 1.89636 0
M  V30 32804 H 3113.4 1.14217 0.926984 0
M  V30 32805 H 3115.36 1.04842 4.03812 0
M  V30 32806 H 3113.99 0.254814 3.21793 0
M  V30 32807 H 3113.04 2.62898 2.74935 0
M  V30 32808 H 3114.35 3.28534 3.75323 0
M  V30 32809 H 3113.51 2.00049 5.7277 0
M  V30 32810 H 3112.24 1.23974 4.7168 0
M  V30 32811 H 3111.25 3.49553 4.24373 0
M  V30 32812 H 3112.47 4.25968 5.28894 0
M  V30 32813 H 3110.42 2.20017 6.18004 0
M  V30 32814 H 3110.34 3.90644 6.47251 0
M  V30 32815 H 3111.61 2.97093 7.20664 0
M  V30 32816 N 3115.83 -0.98818 1.22771 0
M  V30 32817 C 3116.78 -2.07916 1.00198 0
M  V30 32818 C 3117.75 -1.65917 -0.0779099 0
M  V30 32819 O 3118.94 -1.90662 0.072634 0
M  V30 32820 C 3116.08 -3.40003 0.590913 0
M  V30 32821 C 3115.19 -3.95317 1.74209 0
M  V30 32822 C 3114.32 -5.15584 1.27855 0
M  V30 32823 C 3113.36 -5.63045 2.40097 0
M  V30 32824 N 3112.5 -6.74548 1.94756 0
M  V30 32825 H 3117.34 -2.26559 1.93585 0
M  V30 32826 H 3114.88 -1.11067 0.964499 0
M  V30 32827 H 3116.84 -4.15863 0.333726 0
M  V30 32828 H 3115.47 -3.21347 -0.30595 0
M  V30 32829 H 3114.52 -3.16285 2.11348 0
M  V30 32830 H 3115.83 -4.26517 2.5862 0
M  V30 32831 H 3114.98 -5.98749 0.979024 0
M  V30 32832 H 3113.72 -4.86018 0.404702 0
M  V30 32833 H 3112.73 -4.78466 2.70833 0
M  V30 32834 H 3113.95 -5.94634 3.28005 0
M  V30 32835 H 3111.9 -6.46756 1.0974 0
M  V30 32836 H 3111.82 -7.05091 2.72731 0
M  V30 32837 H 3113.08 -7.61206 1.67886 0
M  V30 32838 N 3117.31 -1.03816 -1.18575 0
M  V30 32839 C 3118.72 -0.768329 -1.70158 0
M  V30 32840 C 3119.07 0.711074 -1.82861 0
M  V30 32841 O 3118.2 1.55366 -1.50633 0
M  V30 32842 C 3118.79 -1.38809 -3.09059 0
M  V30 32843 C 3117.35 -1.16663 -3.57864 0
M  V30 32844 C 3116.5 -1.48033 -2.34481 0
M  V30 32845 H 3119.45 -1.2049 -1.03285 0
M  V30 32846 H 3119.47 -0.789966 -3.72209 0
M  V30 32847 H 3118.98 -2.46481 -2.99781 0
M  V30 32848 H 3117.09 -0.108537 -3.72442 0
M  V30 32849 H 3117.2 -1.86188 -4.41442 0
M  V30 32850 H 3115.56 -0.899944 -2.38271 0
M  V30 32851 H 3116.35 -2.56809 -2.27825 0
M  V30 32852 N 3118.79 1.34753 -0.817283 0
M  V30 32853 C 3119.74 2.31525 -0.223393 0
M  V30 32854 C 3120.73 1.57139 0.632757 0
M  V30 32855 O 3121.94 1.72182 0.524727 0
M  V30 32856 H 3118.31 0.750095 -0.0534897 0
M  V30 32857 H 3120.28 2.79146 -1.05451 0
M  V30 32858 C 3119.03 3.42401 0.604723 0
M  V30 32859 H 3118.36 3.99775 -0.0447367 0
M  V30 32860 H 3119.8 4.12365 0.986471 0
M  V30 32861 C 3118.26 2.86365 1.77473 0
M  V30 32862 O 3118.79 2.80785 2.87268 0
M  V30 32863 N 3116.99 2.43265 1.58966 0
M  V30 32864 H 3116.54 2.48004 0.696554 0
M  V30 32865 H 3116.5 2.06123 2.37404 0
M  V30 32866 N 3120.27 0.571737 1.46864 0
M  V30 32867 C 3121.18 -0.17053 2.33979 0
M  V30 32868 C 3122.2 -0.897212 1.49084 0
M  V30 32869 O 3123.37 -0.862856 1.8198 0
M  V30 32870 C 3120.44 -1.17825 3.26065 0
M  V30 32871 C 3119.5 -0.457424 4.26856 0
M  V30 32872 C 3118.73 -1.41713 5.14542 0
M  V30 32873 O 3118.95 -2.65296 5.0495 0
M  V30 32874 O 3117.89 -0.933695 5.94614 0
M  V30 32875 H 3121.71 0.544449 2.9878 0
M  V30 32876 H 3119.3 0.332223 1.45659 0
M  V30 32877 H 3121.18 -1.75958 3.82906 0
M  V30 32878 H 3119.86 -1.87489 2.63874 0
M  V30 32879 H 3118.76 0.165472 3.73734 0
M  V30 32880 H 3120.1 0.198039 4.91801 0
M  V30 32881 N 3121.75 -1.54542 0.308935 0
M  V30 32882 C 3122.68 -2.26769 -0.556617 0
M  V30 32883 C 3123.66 -1.27015 -1.13142 0
M  V30 32884 O 3124.84 -1.55802 -1.15928 0
M  V30 32885 C 3121.97 -3.01446 -1.72475 0
M  V30 32886 C 3120.93 -4.08414 -1.27994 0
M  V30 32887 C 3120.25 -4.7085 -2.53386 0
M  V30 32888 C 3121.55 -5.20724 -0.405405 0
M  V30 32889 H 3123.25 -2.99365 0.0458144 0
M  V30 32890 H 3120.79 -1.43981 0.0234748 0
M  V30 32891 H 3122.75 -3.50697 -2.33644 0
M  V30 32892 H 3121.47 -2.26441 -2.35355 0
M  V30 32893 H 3120.13 -3.60024 -0.691267 0
M  V30 32894 H 3119.78 -3.92476 -3.14597 0
M  V30 32895 H 3119.48 -5.43097 -2.24321 0
M  V30 32896 H 3121 -5.22868 -3.15343 0
M  V30 32897 H 3122.42 -5.65822 -0.922977 0
M  V30 32898 H 3120.81 -5.99739 -0.208177 0
M  V30 32899 H 3121.88 -4.81568 0.567497 0
M  V30 32900 N 3123.23 -0.0368104 -1.57557 0
M  V30 32901 C 3124.45 0.653673 -1.9683 0
M  V30 32902 C 3124.88 1.64424 -0.913588 0
M  V30 32903 O 3124.23 1.80871 0.124717 0
M  V30 32904 C 3124.28 1.32964 -3.35191 0
M  V30 32905 O 3123.39 2.44507 -3.32099 0
M  V30 32906 H 3122.73 0.171113 -0.641573 0
M  V30 32907 H 3125.26 -0.100947 -2.04351 0
M  V30 32908 H 3125.27 1.68465 -3.71596 0
M  V30 32909 H 3123.94 0.603582 -4.11497 0
M  V30 32910 H 3122.52 2.1106 -3.07422 0
M  V30 32911 N 3124.7 1.55817 0.236426 0
M  V30 32912 C 3126.12 1.48475 0.585439 0
M  V30 32913 C 3126.32 0.729053 1.87849 0
M  V30 32914 O 3125.38 0.262658 2.5113 0
M  V30 32915 C 3126.69 2.92946 0.678455 0
M  V30 32916 C 3128.24 3.03379 0.770081 0
M  V30 32917 C 3128.71 4.49179 0.89457 0
M  V30 32918 N 3130.2 4.5316 0.959174 0
M  V30 32919 C 3130.94 5.63234 1.07495 0
M  V30 32920 N 3130.43 6.83094 1.1556 0
M  V30 32921 N 3132.23 5.51053 1.10892 0
M  V30 32922 H 3124.38 2.03384 -0.612277 0
M  V30 32923 H 3126.64 0.923805 -0.212813 0
M  V30 32924 H 3126.35 3.5112 -0.201819 0
M  V30 32925 H 3126.22 3.44018 1.54697 0
M  V30 32926 H 3128.61 2.45279 1.6408 0
M  V30 32927 H 3128.69 2.555 -0.123798 0
M  V30 32928 H 3128.33 5.07892 0.0283645 0
M  V30 32929 H 3128.26 4.94749 1.80365 0
M  V30 32930 H 3130.75 3.66835 0.907763 0
M  V30 32931 H 3131.07 7.62733 1.2433 0
M  V30 32932 H 3129.41 6.85834 1.12499 0
M  V30 32933 H 3132.6 4.56344 1.04247 0
M  V30 32934 H 3132.78 6.36873 1.1957 0
M  V30 32935 N 3126.18 -0.502526 1.49373 0
M  V30 32936 C 3127.43 -1.25861 1.59018 0
M  V30 32937 C 3127.76 -1.92238 0.275353 0
M  V30 32938 O 3127.04 -1.80645 -0.720956 0
M  V30 32939 C 3127.32 -2.32678 2.74832 0
M  V30 32940 C 3127.17 -1.70813 4.16105 0
M  V30 32941 C 3128.49 -3.34251 2.86294 0
M  V30 32942 H 3125.61 -0.456237 0.578806 0
M  V30 32943 H 3128.25 -0.557 1.81652 0
M  V30 32944 H 3126.4 -2.9252 2.55665 0
M  V30 32945 H 3128.07 -1.1481 4.46784 0
M  V30 32946 H 3126.32 -1.0123 4.21823 0
M  V30 32947 H 3126.99 -2.48283 4.93011 0
M  V30 32948 H 3129.46 -2.84399 3.03738 0
M  V30 32949 H 3128.34 -4.06355 3.69008 0
M  V30 32950 H 3128.6 -3.96484 1.95583 0
M  V30 32951 N 3127.66 -1.38422 -0.75346 0
M  V30 32952 C 3128.59 -1.3838 -1.88078 0
M  V30 32953 C 3129.57 -0.249693 -1.68257 0
M  V30 32954 O 3130.76 -0.452794 -1.88848 0
M  V30 32955 C 3127.89 -1.20824 -3.25605 0
M  V30 32956 C 3126.84 -2.3144 -3.60027 0
M  V30 32957 C 3126.17 -1.98989 -4.96294 0
M  V30 32958 C 3127.47 -3.737 -3.64891 0
M  V30 32959 H 3129.16 -2.32716 -1.88371 0
M  V30 32960 H 3126.71 -1.12018 -0.904871 0
M  V30 32961 H 3128.66 -1.19419 -4.04125 0
M  V30 32962 H 3127.38 -0.22949 -3.25793 0
M  V30 32963 H 3126.04 -2.3203 -2.83827 0
M  V30 32964 H 3125.69 -0.995975 -4.93041 0
M  V30 32965 H 3125.39 -2.73073 -5.20293 0
M  V30 32966 H 3126.91 -1.99203 -5.77192 0
M  V30 32967 H 3128.33 -3.7514 -4.33524 0
M  V30 32968 H 3126.72 -4.4699 -4.004 0
M  V30 32969 H 3127.79 -4.06006 -2.65117 0
M  V30 32970 N 3129.14 0.981655 -1.23294 0
M  V30 32971 C 3130.39 1.71937 -1.06217 0
M  V30 32972 C 3130.71 1.90812 0.401955 0
M  V30 32973 O 3129.98 1.47586 1.28822 0
M  V30 32974 H 3128.56 0.637078 -0.390053 0
M  V30 32975 H 3131.22 1.1817 -1.5499 0
M  V30 32976 H 3130.31 2.70942 -1.54909 0
M  V30 32977 N 3130.62 1.04444 1.18022 0
M  V30 32978 C 3131.55 0.659722 2.23986 0
M  V30 32979 C 3132.53 -0.338875 1.6669 0
M  V30 32980 O 3133.71 -0.218136 1.92971 0
M  V30 32981 C 3130.84 0.0258283 3.4729 0
M  V30 32982 C 3129.8 0.948373 4.17361 0
M  V30 32983 C 3129.12 0.178754 5.34401 0
M  V30 32984 C 3130.42 2.26918 4.70431 0
M  V30 32985 H 3132.12 1.54558 2.56422 0
M  V30 32986 H 3129.66 0.744596 1.23255 0
M  V30 32987 H 3131.61 -0.255057 4.20627 0
M  V30 32988 H 3130.34 -0.894926 3.141 0
M  V30 32989 H 3129 1.2137 3.45926 0
M  V30 32990 H 3128.65 -0.744526 4.97459 0
M  V30 32991 H 3128.35 0.793397 5.82219 0
M  V30 32992 H 3129.87 -0.0950242 6.10526 0
M  V30 32993 H 3131.28 2.04873 5.35444 0
M  V30 32994 H 3129.68 2.83712 5.28798 0
M  V30 32995 H 3130.75 2.91303 3.87648 0
M  V30 32996 N 3132.09 -1.34317 0.824418 0
M  V30 32997 C 3133.04 -2.29493 0.245322 0
M  V30 32998 C 3134.01 -1.53659 -0.630735 0
M  V30 32999 O 3135.2 -1.82022 -0.572062 0
M  V30 33000 C 3132.34 -3.40096 -0.585572 0
M  V30 33001 C 3131.45 -4.30865 0.312897 0
M  V30 33002 C 3130.58 -5.28572 -0.527708 0
M  V30 33003 C 3129.62 -6.1098 0.370054 0
M  V30 33004 N 3128.76 -7.00772 -0.431566 0
M  V30 33005 H 3133.6 -2.78423 1.0623 0
M  V30 33006 H 3131.14 -1.37012 0.535354 0
M  V30 33007 H 3133.09 -4.02908 -1.08264 0
M  V30 33008 H 3131.72 -2.92396 -1.36765 0
M  V30 33009 H 3130.78 -3.68902 0.928194 0
M  V30 33010 H 3132.09 -4.88609 1.00315 0
M  V30 33011 H 3131.24 -5.96843 -1.0892 0
M  V30 33012 H 3129.98 -4.7137 -1.25146 0
M  V30 33013 H 3128.99 -5.41641 0.943672 0
M  V30 33014 H 3130.21 -6.70264 1.09194 0
M  V30 33015 H 3128.16 -6.46037 -1.13896 0
M  V30 33016 H 3128.07 -7.55735 0.200266 0
M  V30 33017 H 3129.34 -7.73369 -0.975759 0
M  V30 33018 N 3133.57 -0.579517 -1.46558 0
M  V30 33019 C 3134.8 -0.0694011 -2.06784 0
M  V30 33020 C 3135.21 1.23417 -1.42877 0
M  V30 33021 O 3134.57 1.74545 -0.53295 0
M  V30 33022 C 3134.62 0.106448 -3.61343 0
M  V30 33023 O 3134.34 -1.14552 -4.22859 0
M  V30 33024 C 3135.84 0.651282 -4.3849 0
M  V30 33025 H 3133.06 -0.0559966 -0.668659 0
M  V30 33026 H 3135.61 -0.799278 -1.88233 0
M  V30 33027 H 3133.76 0.786534 -3.79332 0
M  V30 33028 H 3134.18 -0.957321 -5.15689 0
M  V30 33029 H 3135.65 0.723518 -5.47238 0
M  V30 33030 H 3136.13 1.66755 -4.06312 0
M  V30 33031 H 3136.73 0.00616854 -4.253 0
M  V30 33032 N 3135.05 1.54376 -0.317127 0
M  V30 33033 C 3135.98 2.27061 0.544583 0
M  V30 33034 C 3136.96 1.27613 1.12467 0
M  V30 33035 O 3138.15 1.56415 1.151 0
M  V30 33036 C 3135.28 3.02356 1.70874 0
M  V30 33037 C 3134.23 4.09087 1.25826 0
M  V30 33038 C 3133.56 4.72187 2.50886 0
M  V30 33039 C 3134.86 5.20932 0.377784 0
M  V30 33040 H 3136.55 2.99336 -0.0616898 0
M  V30 33041 H 3134.1 1.43966 -0.0311101 0
M  V30 33042 H 3136.05 3.51931 2.3178 0
M  V30 33043 H 3134.77 2.27686 2.34151 0
M  V30 33044 H 3133.43 3.60385 0.672164 0
M  V30 33045 H 3133.08 3.94139 3.12511 0
M  V30 33046 H 3132.78 5.44279 2.21438 0
M  V30 33047 H 3134.3 5.24533 3.12566 0
M  V30 33048 H 3135.72 5.66303 0.892957 0
M  V30 33049 H 3134.12 5.99841 0.176368 0
M  V30 33050 H 3135.19 4.8126 -0.593028 0
M  V30 33051 N 3136.53 0.0451655 1.57535 0
M  V30 33052 C 3137.49 -0.916424 2.10082 0
M  V30 33053 C 3138.49 -1.24378 1.01915 0
M  V30 33054 O 3139.68 -1.18146 1.28012 0
M  V30 33055 C 3136.81 -2.22814 2.58005 0
M  V30 33056 H 3138.01 -0.461024 2.96335 0
M  V30 33057 H 3135.56 -0.203142 1.54974 0
M  V30 33058 H 3136.29 -2.72948 1.75128 0
M  V30 33059 H 3136.08 -2.0036 3.37044 0
M  V30 33060 H 3137.57 -2.91705 2.98828 0
M  V30 33061 N 3138.01 -1.5594 -0.228159 0
M  V30 33062 C 3139.23 -1.82722 -0.970586 0
M  V30 33063 C 3139.65 -0.623417 -1.7821 0
M  V30 33064 O 3139.01 0.408032 -1.7788 0
M  V30 33065 C 3139.06 -3.07945 -1.89346 0
M  V30 33066 O 3138.78 -4.2368 -1.11476 0
M  V30 33067 C 3140.28 -3.47666 -2.75033 0
M  V30 33068 H 3137.5 -0.607579 -0.284762 0
M  V30 33069 H 3140.04 -2.03022 -0.245383 0
M  V30 33070 H 3138.2 -2.89639 -2.5727 0
M  V30 33071 H 3138.61 -4.94775 -1.74064 0
M  V30 33072 H 3140.09 -4.3834 -3.35503 0
M  V30 33073 H 3140.56 -2.69113 -3.47095 0
M  V30 33074 H 3141.17 -3.68388 -2.12533 0
M  V30 33075 N 3139.48 0.494597 -1.49638 0
M  V30 33076 C 3140.43 1.59246 -1.63171 0
M  V30 33077 C 3141.42 1.53349 -0.487116 0
M  V30 33078 O 3142.61 1.60771 -0.740388 0
M  V30 33079 C 3139.74 2.97825 -1.70749 0
M  V30 33080 C 3138.83 3.08694 -2.90807 0
M  V30 33081 N 3139.22 2.89435 -4.14802 0
M  V30 33082 C 3137.51 3.39803 -2.88877 0
M  V30 33083 C 3138.22 3.04654 -4.95541 0
M  V30 33084 N 3137.19 3.33816 -4.29031 0
M  V30 33085 H 3140.99 1.4302 -2.56754 0
M  V30 33086 H 3138.51 0.700859 -1.46498 0
M  V30 33087 H 3140.5 3.76733 -1.78543 0
M  V30 33088 H 3139.16 3.15116 -0.783079 0
M  V30 33089 H 3140.18 2.65482 -4.44679 0
M  V30 33090 H 3136.85 3.6323 -2.05841 0
M  V30 33091 H 3138.24 2.94203 -6.04065 0
M  V30 33092 N 3140.96 1.3882 0.746109 0
M  V30 33093 C 3142.21 1.3517 1.50245 0
M  V30 33094 C 3142.53 -0.0553188 1.94922 0
M  V30 33095 O 3141.8 -1.00446 1.68189 0
M  V30 33096 H 3140.38 0.497387 0.557328 0
M  V30 33097 H 3143.04 1.73575 0.886442 0
M  V30 33098 H 3142.14 2.00733 2.38983 0
M  V30 33099 N 3142.44 -0.975103 1.23812 0
M  V30 33100 C 3143.37 -2.08636 1.04849 0
M  V30 33101 C 3144.35 -1.70061 -0.036256 0
M  V30 33102 O 3145.54 -1.93768 0.129404 0
M  V30 33103 C 3142.67 -3.41266 0.644594 0
M  V30 33104 C 3141.62 -3.93765 1.67728 0
M  V30 33105 C 3140.95 -5.22652 1.12867 0
M  V30 33106 C 3142.25 -4.22437 3.07155 0
M  V30 33107 H 3143.94 -2.24758 1.97799 0
M  V30 33108 H 3141.49 -1.08005 0.952416 0
M  V30 33109 H 3143.44 -4.18436 0.498961 0
M  V30 33110 H 3142.16 -3.25023 -0.320583 0
M  V30 33111 H 3140.82 -3.18745 1.811 0
M  V30 33112 H 3140.47 -5.02763 0.154316 0
M  V30 33113 H 3140.17 -5.58745 1.81872 0
M  V30 33114 H 3141.69 -6.02439 0.994997 0
M  V30 33115 H 3143.11 -4.90338 2.97054 0
M  V30 33116 H 3141.51 -4.69743 3.73445 0
M  V30 33117 H 3142.58 -3.29501 3.55749 0
M  V30 33118 N 3143.92 -1.05068 -1.17467 0
M  V30 33119 C 3144.88 -0.654832 -2.19647 0
M  V30 33120 C 3145.88 0.293035 -1.58107 0
M  V30 33121 O 3147.07 0.0770754 -1.74029 0
M  V30 33122 C 3144.2 0.0383838 -3.40878 0
M  V30 33123 H 3145.4 -1.5592 -2.56182 0
M  V30 33124 H 3142.95 -0.844419 -1.31527 0
M  V30 33125 H 3143.68 0.956078 -3.09886 0
M  V30 33126 H 3143.47 -0.643029 -3.86791 0
M  V30 33127 H 3144.96 0.301494 -4.1651 0
M  V30 33128 N 3145.4 1.33878 -0.831529 0
M  V30 33129 C 3146.36 2.27665 -0.264813 0
M  V30 33130 C 3147.36 1.5065 0.562246 0
M  V30 33131 O 3148.55 1.70069 0.377101 0
M  V30 33132 C 3145.68 3.3507 0.627755 0
M  V30 33133 H 3146.87 2.79301 -1.0923 0
M  V30 33134 H 3144.43 1.44156 -0.604046 0
M  V30 33135 H 3145.16 2.88664 1.47797 0
M  V30 33136 H 3144.95 3.92083 0.0360862 0
M  V30 33137 H 3146.44 4.05007 1.01779 0
M  V30 33138 N 3146.87 0.587281 1.46249 0
M  V30 33139 C 3148.12 0.0747207 2.02662 0
M  V30 33140 C 3148.45 -1.28366 1.45725 0
M  V30 33141 O 3147.73 -1.84215 0.624095 0
M  V30 33142 C 3148.01 0.0138741 3.60097 0
M  V30 33143 C 3147.86 1.40148 4.27409 0
M  V30 33144 C 3149.18 -0.684414 4.34746 0
M  V30 33145 H 3146.3 0.0286274 0.736444 0
M  V30 33146 H 3148.94 0.755358 1.7434 0
M  V30 33147 H 3147.09 -0.565763 3.84358 0
M  V30 33148 H 3148.77 2.02663 4.14398 0
M  V30 33149 H 3147.01 1.96792 3.86595 0
M  V30 33150 H 3147.68 1.31133 5.36198 0
M  V30 33151 H 3150.16 -0.19195 4.15657 0
M  V30 33152 H 3149.03 -0.696032 5.44469 0
M  V30 33153 H 3149.29 -1.74662 4.06135 0
M  V30 33154 N 3148.35 -1.54206 0.325309 0
M  V30 33155 C 3149.3 -2.25873 -0.55536 0
M  V30 33156 C 3150.29 -1.27346 -1.11711 0
M  V30 33157 O 3151.5 -1.45116 -1.06495 0
M  V30 33158 H 3147.88 -0.725534 -0.197747 0
M  V30 33159 H 3149.85 -2.98315 0.0713382 0
M  V30 33160 C 3148.6 -3.03098 -1.70373 0
M  V30 33161 H 3147.92 -3.78731 -1.28073 0
M  V30 33162 H 3149.36 -3.56487 -2.2955 0
M  V30 33163 C 3147.82 -2.11501 -2.62238 0
M  V30 33164 O 3148.35 -1.69902 -3.64 0
M  V30 33165 N 3146.55 -1.76954 -2.30512 0
M  V30 33166 H 3146.1 -2.1098 -1.47801 0
M  V30 33167 H 3146.06 -1.15947 -2.92239 0
M  V30 33168 N 3149.83 -0.0535194 -1.57509 0
M  V30 33169 C 3151.06 0.63276 -1.97512 0
M  V30 33170 C 3151.48 1.63446 -0.930976 0
M  V30 33171 O 3150.84 1.80993 0.105526 0
M  V30 33172 C 3150.89 1.29401 -3.36582 0
M  V30 33173 O 3149.99 2.40971 -3.34674 0
M  V30 33174 H 3149.33 0.164298 -0.643352 0
M  V30 33175 H 3151.86 -0.122616 -2.04232 0
M  V30 33176 H 3151.87 1.64514 -3.73362 0
M  V30 33177 H 3150.55 0.559903 -4.12114 0
M  V30 33178 H 3149.12 2.07787 -3.09643 0
M  V30 33179 N 3151.31 1.56059 0.219886 0
M  V30 33180 C 3152.56 1.79414 0.945431 0
M  V30 33181 C 3152.89 0.623443 1.83921 0
M  V30 33182 O 3152.16 -0.377223 1.90807 0
M  V30 33183 C 3152.45 3.12863 1.78294 0
M  V30 33184 C 3152.3 4.40384 0.915549 0
M  V30 33185 C 3153.62 3.42769 2.76039 0
M  V30 33186 H 3150.74 0.652699 0.342277 0
M  V30 33187 H 3153.38 1.88789 0.214202 0
M  V30 33188 H 3151.53 3.05002 2.40637 0
M  V30 33189 H 3153.2 4.60266 0.308739 0
M  V30 33190 H 3151.44 4.33236 0.221047 0
M  V30 33191 H 3152.12 5.302 1.53597 0
M  V30 33192 H 3154.59 3.50768 2.23832 0
M  V30 33193 H 3153.47 4.3731 3.3174 0
M  V30 33194 H 3153.73 2.65018 3.53861 0
M  V30 33195 N 3152.79 -0.486655 1.49898 0
M  V30 33196 C 3154.2 -1.06789 1.53144 0
M  V30 33197 C 3154.55 -1.93475 0.32589 0
M  V30 33198 O 3153.67 -2.08952 -0.562856 0
M  V30 33199 C 3154.27 -1.94343 2.77518 0
M  V30 33200 C 3152.83 -2.47604 2.83495 0
M  V30 33201 C 3151.98 -1.25566 2.47242 0
M  V30 33202 H 3154.93 -0.269934 1.56387 0
M  V30 33203 H 3154.95 -2.79217 2.58492 0
M  V30 33204 H 3154.46 -1.31226 3.65242 0
M  V30 33205 H 3152.56 -3.14319 2.00085 0
M  V30 33206 H 3152.67 -2.83775 3.86016 0
M  V30 33207 H 3151.04 -1.58549 1.99335 0
M  V30 33208 H 3151.82 -0.641345 3.37256 0
M  V30 33209 N 3154.27 -1.39214 -0.738737 0
M  V30 33210 C 3155.51 -1.3744 -1.49939 0
M  V30 33211 C 3155.87 0.0309158 -1.92375 0
M  V30 33212 O 3155.16 0.996677 -1.63637 0
M  V30 33213 C 3155.35 -2.27755 -2.75431 0
M  V30 33214 C 3155.18 -3.76928 -2.45266 0
M  V30 33215 C 3153.95 -4.45875 -2.37747 0
M  V30 33216 C 3156.15 -4.68999 -2.11056 0
M  V30 33217 N 3154.13 -5.80403 -2.00013 0
M  V30 33218 C 3155.5 -5.9215 -1.83735 0
M  V30 33219 C 3157.56 -4.57057 -1.97492 0
M  V30 33220 C 3156.26 -7.04694 -1.44218 0
M  V30 33221 C 3158.29 -5.6952 -1.59378 0
M  V30 33222 C 3157.65 -6.91742 -1.32939 0
M  V30 33223 H 3153.75 -0.558203 -0.547661 0
M  V30 33224 H 3156.33 -1.74731 -0.858894 0
M  V30 33225 H 3154.5 -1.92628 -3.37267 0
M  V30 33226 H 3156.24 -2.17001 -3.41603 0
M  V30 33227 H 3152.99 -3.99269 -2.54718 0
M  V30 33228 H 3153.41 -6.51587 -1.8375 0
M  V30 33229 H 3158.06 -3.63102 -2.16602 0
M  V30 33230 H 3155.77 -7.98553 -1.23849 0
M  V30 33231 H 3159.36 -5.62266 -1.49494 0
M  V30 33232 H 3158.24 -7.77288 -1.03887 0
M  V30 33233 N 3155.74 0.968523 -1.24328 0
M  V30 33234 C 3157.02 1.68667 -0.990489 0
M  V30 33235 C 3157.4 2.05395 0.487451 0
M  V30 33236 O 3156.75 1.75645 1.46155 0
M  V30 33237 C 3156.96 2.91928 -1.91257 0
M  V30 33238 C 3158.31 3.64186 -2.18297 0
M  V30 33239 O 3159.33 3.01984 -1.88903 0
M  V30 33240 O 3158.19 4.76156 -2.68212 0
M  V30 33241 H 3155.28 0.737332 -0.374527 0
M  V30 33242 H 3157.83 1.02269 -1.35422 0
M  V30 33243 H 3156.6 2.61473 -2.91114 0
M  V30 33244 H 3156.22 3.66061 -1.55194 0
M  V30 33245 N 3157.22 1.0569 1.16908 0
M  V30 33246 C 3158.45 0.790519 1.91203 0
M  V30 33247 C 3158.86 -0.654403 1.77096 0
M  V30 33248 O 3158.22 -1.44749 1.11148 0
M  V30 33249 C 3158.27 1.16814 3.42106 0
M  V30 33250 O 3157.99 2.55636 3.55784 0
M  V30 33251 C 3159.49 0.928626 4.33464 0
M  V30 33252 H 3156.71 0.287045 0.606503 0
M  V30 33253 H 3159.26 1.40891 1.48223 0
M  V30 33254 H 3157.41 0.594407 3.82813 0
M  V30 33255 H 3157.83 2.70583 4.49316 0
M  V30 33256 H 3159.3 1.24254 5.37834 0
M  V30 33257 H 3159.78 -0.135939 4.3899 0
M  V30 33258 H 3160.38 1.48645 3.98478 0
M  V30 33259 N 3158.7 -1.33435 0.838617 0
M  V30 33260 C 3159.95 -1.97052 0.430518 0
M  V30 33261 C 3160.26 -1.67172 -1.01553 0
M  V30 33262 O 3161.47 -2.244 -1.5283 0
M  V30 33263 C 3159.92 -3.52647 0.71889 0
M  V30 33264 C 3159.53 -3.91404 2.1796 0
M  V30 33265 C 3161.28 -4.22816 0.377728 0
M  V30 33266 C 3159.18 -5.39977 2.41203 0
M  V30 33267 H 3158.11 -0.73742 0.157252 0
M  V30 33268 H 3160.76 -1.52058 1.02717 0
M  V30 33269 H 3159.15 -3.95966 0.0518738 0
M  V30 33270 H 3160.32 -3.59144 2.88707 0
M  V30 33271 H 3158.63 -3.34216 2.48371 0
M  V30 33272 H 3161.23 -5.32077 0.52902 0
M  V30 33273 H 3161.57 -4.10721 -0.679266 0
M  V30 33274 H 3162.11 -3.85027 0.999967 0
M  V30 33275 H 3158.85 -5.57075 3.45467 0
M  V30 33276 H 3158.37 -5.73698 1.75017 0
M  V30 33277 H 3160.05 -6.06859 2.24345 0
M  V30 33278 N 3160.18 -0.595029 -1.45935 0
M  V30 33279 C 3161.14 0.121062 -2.2888 0
M  V30 33280 C 3162.14 0.807124 -1.39076 0
M  V30 33281 O 3163.33 0.6572 -1.61327 0
M  V30 33282 C 3160.46 1.18124 -3.1978 0
M  V30 33283 H 3161.66 -0.60802 -2.93672 0
M  V30 33284 H 3159.21 -0.353522 -1.5225 0
M  V30 33285 H 3159.94 1.9415 -2.59762 0
M  V30 33286 H 3159.73 0.693656 -3.85916 0
M  V30 33287 H 3161.22 1.68312 -3.82179 0
M  V30 33288 N 3161.66 1.54031 -0.333483 0
M  V30 33289 C 3162.6 2.26164 0.543374 0
M  V30 33290 C 3163.6 1.27936 1.11034 0
M  V30 33291 O 3164.8 1.45679 1.05724 0
M  V30 33292 H 3161.18 0.726573 0.193897 0
M  V30 33293 H 3163.15 2.98273 -0.0871576 0
M  V30 33294 C 3161.9 3.03997 1.68764 0
M  V30 33295 H 3161.22 3.79405 1.26063 0
M  V30 33296 H 3162.66 3.57699 2.27656 0
M  V30 33297 C 3161.12 2.12889 2.61113 0
M  V30 33298 O 3161.65 1.7183 3.63094 0
M  V30 33299 N 3159.86 1.78174 2.2957 0
M  V30 33300 H 3159.4 2.11761 1.4668 0
M  V30 33301 H 3159.36 1.17495 2.9162 0
M  V30 33302 N 3163.13 0.0618717 1.57479 0
M  V30 33303 C 3164.36 -0.617905 1.97143 0
M  V30 33304 C 3164.77 -1.64279 0.938562 0
M  V30 33305 O 3164.11 -1.83506 -0.0843527 0
M  V30 33306 C 3164.18 -1.35257 3.33085 0
M  V30 33307 C 3163.84 -0.482292 4.54448 0
M  V30 33308 C 3164.84 0.256045 5.19269 0
M  V30 33309 C 3162.52 -0.410079 5.00623 0
M  V30 33310 C 3164.52 1.05492 6.2861 0
M  V30 33311 C 3162.2 0.392476 6.09838 0
M  V30 33312 C 3163.2 1.12365 6.73694 0
M  V30 33313 O 3162.89 1.91299 7.80807 0
M  V30 33314 H 3162.62 -0.172957 0.6535 0
M  V30 33315 H 3165.18 0.127817 2.05002 0
M  V30 33316 H 3163.41 -2.14415 3.21812 0
M  V30 33317 H 3165.09 -1.92362 3.57424 0
M  V30 33318 H 3165.86 0.209788 4.84546 0
M  V30 33319 H 3161.74 -0.968804 4.50705 0
M  V30 33320 H 3165.28 1.62614 6.78382 0
M  V30 33321 H 3161.18 0.440333 6.43996 0
M  V30 33322 H 3161.95 1.83625 7.97637 0
M  V30 33323 N 3164.61 -1.56173 -0.211607 0
M  V30 33324 C 3165.58 -1.92383 -1.24584 0
M  V30 33325 C 3166.58 -0.803335 -1.39295 0
M  V30 33326 O 3167.77 -1.07097 -1.3739 0
M  V30 33327 C 3164.9 -2.18339 -2.61803 0
M  V30 33328 H 3166.09 -2.84894 -0.936764 0
M  V30 33329 H 3163.64 -1.49608 -0.452444 0
M  V30 33330 H 3164.38 -1.28412 -2.97793 0
M  V30 33331 H 3164.16 -2.99977 -2.525 0
M  V30 33332 H 3165.65 -2.47415 -3.36415 0
M  V30 33333 N 3166.09 0.478699 -1.50154 0
M  V30 33334 C 3167.04 1.57764 -1.68461 0
M  V30 33335 C 3168.01 1.57554 -0.525927 0
M  V30 33336 O 3169.19 1.75201 -0.755605 0
M  V30 33337 C 3166.33 2.95786 -1.77777 0
M  V30 33338 C 3165.45 3.05843 -3.05097 0
M  V30 33339 C 3164.58 4.34733 -3.05255 0
M  V30 33340 C 3163.62 4.38504 -4.2706 0
M  V30 33341 N 3162.76 5.58855 -4.25001 0
M  V30 33342 H 3167.6 1.41459 -2.62285 0
M  V30 33343 H 3165.13 0.687898 -1.30025 0
M  V30 33344 H 3167.09 3.75816 -1.81159 0
M  V30 33345 H 3165.72 3.10743 -0.873999 0
M  V30 33346 H 3164.77 2.18734 -3.11222 0
M  V30 33347 H 3166.09 3.04488 -3.9508 0
M  V30 33348 H 3165.24 5.23103 -3.07323 0
M  V30 33349 H 3163.98 4.38685 -2.13089 0
M  V30 33350 H 3162.98 3.48532 -4.25212 0
M  V30 33351 H 3164.21 4.3625 -5.20445 0
M  V30 33352 H 3162.15 5.63607 -3.35684 0
M  V30 33353 H 3162.07 5.5921 -5.08743 0
M  V30 33354 H 3163.34 6.49371 -4.31205 0
M  V30 33355 N 3167.57 1.39603 0.731343 0
M  V30 33356 C 3168.98 1.33047 1.30978 0
M  V30 33357 C 3169.33 -0.0034647 1.962 0
M  V30 33358 O 3168.46 -0.905581 1.96541 0
M  V30 33359 C 3169.05 2.40962 2.38166 0
M  V30 33360 C 3167.61 2.37915 2.91674 0
M  V30 33361 C 3166.76 2.22659 1.65282 0
M  V30 33362 H 3169.71 1.49638 0.528589 0
M  V30 33363 H 3169.73 2.07961 3.18642 0
M  V30 33364 H 3169.24 3.38035 1.90667 0
M  V30 33365 H 3167.34 1.44491 3.43443 0
M  V30 33366 H 3167.45 3.3291 3.44539 0
M  V30 33367 H 3165.82 1.69896 1.89756 0
M  V30 33368 H 3166.6 3.21707 1.1983 0
M  V30 33369 N 3169.05 -0.961916 1.2484 0
M  V30 33370 C 3170.29 -1.70562 1.09154 0
M  V30 33371 C 3170.62 -1.90974 -0.368686 0
M  V30 33372 O 3169.88 -1.47295 -1.28852 0
M  V30 33373 C 3170.18 -3.09751 1.78295 0
M  V30 33374 C 3169.84 -3.09163 3.28221 0
M  V30 33375 C 3168.5 -3.0871 3.69123 0
M  V30 33376 C 3170.86 -3.0305 4.2404 0
M  V30 33377 C 3168.18 -2.99883 5.04269 0
M  V30 33378 C 3170.54 -2.95766 5.59201 0
M  V30 33379 C 3169.2 -2.93644 5.99441 0
M  V30 33380 H 3168.47 -0.624132 0.399425 0
M  V30 33381 H 3171.12 -1.12435 1.55018 0
M  V30 33382 H 3169.42 -3.71378 1.24842 0
M  V30 33383 H 3171.12 -3.66101 1.63618 0
M  V30 33384 H 3167.71 -3.10283 2.95672 0
M  V30 33385 H 3171.89 -3.02525 3.93437 0
M  V30 33386 H 3167.15 -2.96605 5.34636 0
M  V30 33387 H 3171.32 -2.89996 6.33147 0
M  V30 33388 H 3168.95 -2.86561 7.04121 0
M  V30 33389 N 3170.52 -1.06308 -1.16346 0
M  V30 33390 C 3171.45 -0.695273 -2.22909 0
M  V30 33391 C 3172.44 0.312313 -1.67208 0
M  V30 33392 O 3173.62 0.187408 -1.93294 0
M  V30 33393 C 3170.75 -0.0810759 -3.47205 0
M  V30 33394 C 3169.7 -1.01465 -4.15799 0
M  V30 33395 C 3169.03 -0.26375 -5.34049 0
M  V30 33396 C 3170.33 -2.34373 -4.66762 0
M  V30 33397 H 3172.02 -1.58618 -2.53931 0
M  V30 33398 H 3169.57 -0.764111 -1.22055 0
M  V30 33399 H 3171.52 0.188106 -4.2098 0
M  V30 33400 H 3170.25 0.844842 -3.15484 0
M  V30 33401 H 3168.91 -1.26858 -3.43951 0
M  V30 33402 H 3168.55 0.665291 -4.98581 0
M  V30 33403 H 3168.25 -0.885922 -5.80883 0
M  V30 33404 H 3169.78 -0.00211727 -6.106 0
M  V30 33405 H 3171.19 -2.13366 -5.32117 0
M  V30 33406 H 3169.59 -2.92089 -5.24218 0
M  V30 33407 H 3170.66 -2.97433 -3.82964 0
M  V30 33408 N 3172 1.32989 -0.845682 0
M  V30 33409 C 3172.95 2.30999 -0.272453 0
M  V30 33410 C 3173.94 1.58445 0.599284 0
M  V30 33411 O 3175.15 1.73256 0.488086 0
M  V30 33412 H 3171.53 0.748792 -0.0693883 0
M  V30 33413 H 3173.5 2.76847 -1.11348 0
M  V30 33414 C 3172.25 3.43607 0.531959 0
M  V30 33415 H 3171.57 3.9959 -0.129525 0
M  V30 33416 H 3173.01 4.14365 0.89878 0
M  V30 33417 C 3171.47 2.90065 1.71359 0
M  V30 33418 O 3172 2.86815 2.81247 0
M  V30 33419 N 3170.2 2.46583 1.53771 0
M  V30 33420 H 3169.75 2.49425 0.643792 0
M  V30 33421 H 3169.71 2.11112 2.32979 0
M  V30 33422 N 3173.48 0.60276 1.45618 0
M  V30 33423 C 3174.43 -0.118903 2.30494 0
M  V30 33424 C 3175.4 -0.864698 1.41817 0
M  V30 33425 O 3176.58 -0.851394 1.70751 0
M  V30 33426 C 3173.72 -1.11351 3.26642 0
M  V30 33427 C 3172.84 -0.369085 4.3042 0
M  V30 33428 C 3171.97 -1.35298 5.13681 0
M  V30 33429 C 3171.01 -0.5961 6.0919 0
M  V30 33430 N 3170.15 -1.52904 6.85248 0
M  V30 33431 H 3174.99 0.610887 2.91671 0
M  V30 33432 H 3172.52 0.313057 1.4373 0
M  V30 33433 H 3174.48 -1.70324 3.80849 0
M  V30 33434 H 3173.11 -1.81077 2.67228 0
M  V30 33435 H 3172.16 0.336061 3.78913 0
M  V30 33436 H 3173.48 0.22169 4.98307 0
M  V30 33437 H 3172.63 -2.01492 5.72264 0
M  V30 33438 H 3171.37 -1.97769 4.45801 0
M  V30 33439 H 3170.37 0.079495 5.49743 0
M  V30 33440 H 3171.6 0.0234928 6.79096 0
M  V30 33441 H 3169.54 -2.14148 6.20062 0
M  V30 33442 H 3169.46 -0.991582 7.49469 0
M  V30 33443 H 3170.73 -2.1807 7.48375 0
M  V30 33444 N 3174.96 -1.53852 0.341647 0
M  V30 33445 C 3176.2 -2.0118 -0.255827 0
M  V30 33446 C 3176.54 -1.22912 -1.50354 0
M  V30 33447 O 3175.81 -0.316232 -1.91912 0
M  V30 33448 C 3176.1 -3.5553 -0.571871 0
M  V30 33449 C 3175.95 -4.4451 0.687805 0
M  V30 33450 C 3177.27 -4.1783 -1.38225 0
M  V30 33451 H 3174.39 -0.731297 -0.0915081 0
M  V30 33452 H 3177.03 -1.84302 0.461808 0
M  V30 33453 H 3175.18 -3.70043 -1.18324 0
M  V30 33454 H 3176.85 -4.41837 1.3258 0
M  V30 33455 H 3175.09 -4.1345 1.31308 0
M  V30 33456 H 3175.76 -5.50385 0.421955 0
M  V30 33457 H 3178.24 -4.07003 -0.865303 0
M  V30 33458 H 3177.12 -5.25904 -1.57214 0
M  V30 33459 H 3177.38 -3.72327 -2.38379 0
M  V30 33460 N 3176.44 -0.0702223 -1.57443 0
M  V30 33461 C 3177.68 0.600144 -1.93717 0
M  V30 33462 C 3178.02 1.69357 -0.950359 0
M  V30 33463 O 3177.29 1.94489 0.0206781 0
M  V30 33464 C 3177.57 1.17855 -3.40268 0
M  V30 33465 C 3177.43 0.0918785 -4.49706 0
M  V30 33466 C 3178.75 2.08452 -3.87602 0
M  V30 33467 H 3175.86 0.216691 -0.704425 0
M  V30 33468 H 3178.51 -0.135871 -1.89514 0
M  V30 33469 H 3176.66 1.80581 -3.43981 0
M  V30 33470 H 3178.33 -0.541111 -4.58115 0
M  V30 33471 H 3176.57 -0.577714 -4.29936 0
M  V30 33472 H 3177.24 0.536952 -5.49382 0
M  V30 33473 H 3179.72 1.55664 -3.85886 0
M  V30 33474 H 3178.59 2.45859 -4.90759 0
M  V30 33475 H 3178.86 2.9922 -3.25453 0
M  V30 33476 N 3177.91 1.56283 0.203321 0
M  V30 33477 C 3179.14 1.84594 0.945515 0
M  V30 33478 C 3179.56 0.652803 1.76409 0
M  V30 33479 O 3178.92 -0.398437 1.76868 0
M  V30 33480 C 3178.97 3.1106 1.82411 0
M  V30 33481 O 3178.07 2.91035 2.92186 0
M  V30 33482 H 3177.42 0.608072 0.266728 0
M  V30 33483 H 3179.95 2.03508 0.211122 0
M  V30 33484 H 3179.96 3.4164 2.23038 0
M  V30 33485 H 3178.63 3.97524 1.2226 0
M  V30 33486 H 3177.21 2.71733 2.55373 0
M  V30 33487 N 3179.39 -0.470729 1.50406 0
M  V30 33488 C 3180.62 -1.24605 1.6517 0
M  V30 33489 C 3181.04 -1.85801 0.335186 0
M  V30 33490 O 3180.39 -1.69242 -0.68289 0
M  V30 33491 C 3180.44 -2.3545 2.74309 0
M  V30 33492 O 3180.17 -1.76764 4.00857 0
M  V30 33493 C 3181.67 -3.26321 3.0005 0
M  V30 33494 H 3178.89 -0.376832 0.555192 0
M  V30 33495 H 3181.43 -0.561835 1.96631 0
M  V30 33496 H 3179.59 -2.99647 2.45542 0
M  V30 33497 H 3180 -2.49761 4.61215 0
M  V30 33498 H 3181.47 -4.00307 3.80077 0
M  V30 33499 H 3181.95 -3.85122 2.11134 0
M  V30 33500 H 3182.56 -2.6786 3.3035 0
M  V30 33501 N 3180.87 -1.39989 -0.72393 0
M  V30 33502 C 3182.1 -1.41112 -1.51311 0
M  V30 33503 C 3182.51 -0.00856652 -1.88798 0
M  V30 33504 O 3181.87 0.965488 -1.5487 0
M  V30 33505 C 3181.92 -2.29421 -2.79371 0
M  V30 33506 O 3181.64 -3.64216 -2.43472 0
M  V30 33507 C 3183.14 -2.39046 -3.73325 0
M  V30 33508 H 3180.36 -0.481597 -0.467231 0
M  V30 33509 H 3182.91 -1.8394 -0.893662 0
M  V30 33510 H 3181.06 -1.89977 -3.3762 0
M  V30 33511 H 3181.48 -4.1103 -3.25814 0
M  V30 33512 H 3182.95 -3.05061 -4.60045 0
M  V30 33513 H 3183.43 -1.41296 -4.15851 0
M  V30 33514 H 3184.03 -2.79007 -3.20991 0
M  V30 33515 N 3182.35 0.955282 -1.25348 0
M  V30 33516 C 3183.58 1.73449 -1.12796 0
M  V30 33517 C 3183.99 1.86097 0.318311 0
M  V30 33518 O 3183.35 1.35823 1.21895 0
M  V30 33519 C 3183.4 3.14861 -1.77609 0
M  V30 33520 O 3183.12 3.02832 -3.16582 0
M  V30 33521 C 3184.62 4.09063 -1.70828 0
M  V30 33522 H 3181.84 0.54353 -0.393467 0
M  V30 33523 H 3184.39 1.19852 -1.65698 0
M  V30 33524 H 3182.54 3.65404 -1.28679 0
M  V30 33525 H 3182.96 3.92033 -3.4844 0
M  V30 33526 H 3184.43 5.05899 -2.20839 0
M  V30 33527 H 3184.91 4.3403 -0.671934 0
M  V30 33528 H 3185.51 3.64435 -2.19243 0
M  V30 33529 N 3183.83 1.06924 1.1578 0
M  V30 33530 C 3184.78 0.679932 2.2244 0
M  V30 33531 C 3185.77 -0.307192 1.66591 0
M  V30 33532 O 3186.98 -0.17137 1.79182 0
M  V30 33533 H 3183.35 0.201778 0.724424 0
M  V30 33534 H 3185.32 1.58923 2.52559 0
M  V30 33535 C 3184.07 0.0891753 3.47586 0
M  V30 33536 H 3183.39 0.839873 3.90879 0
M  V30 33537 H 3184.83 -0.145615 4.2375 0
M  V30 33538 C 3183.29 -1.16898 3.15969 0
M  V30 33539 O 3183.82 -2.25605 3.32363 0
M  V30 33540 N 3182.03 -1.07344 2.70047 0
M  V30 33541 H 3181.58 -0.18878 2.56907 0
M  V30 33542 H 3181.53 -1.91607 2.49267 0
M  V30 33543 N 3185.31 -1.32538 0.852723 0
M  V30 33544 C 3186.55 -1.96584 0.451394 0
M  V30 33545 C 3186.87 -1.68239 -0.997743 0
M  V30 33546 O 3188.07 -2.26008 -1.50441 0
M  V30 33547 C 3186.53 -3.51865 0.756252 0
M  V30 33548 C 3186.14 -3.89071 2.22099 0
M  V30 33549 C 3187.88 -4.22392 0.422553 0
M  V30 33550 C 3185.79 -5.37388 2.46917 0
M  V30 33551 H 3184.72 -0.73571 0.165065 0
M  V30 33552 H 3187.37 -1.5096 1.04324 0
M  V30 33553 H 3185.75 -3.95889 0.0938683 0
M  V30 33554 H 3186.93 -3.56062 2.925 0
M  V30 33555 H 3185.24 -3.31563 2.51902 0
M  V30 33556 H 3187.84 -5.31486 0.585424 0
M  V30 33557 H 3188.18 -4.11418 -0.635665 0
M  V30 33558 H 3188.71 -3.83944 1.04075 0
M  V30 33559 H 3185.45 -5.5338 3.51356 0
M  V30 33560 H 3184.97 -5.71809 1.81092 0
M  V30 33561 H 3186.65 -6.04446 2.30769 0
M  V30 33562 N 3186.78 -0.610474 -1.45296 0
M  V30 33563 C 3188.03 -0.106953 -2.02518 0
M  V30 33564 C 3188.36 1.26031 -1.47749 0
M  V30 33565 O 3187.64 1.83199 -0.653323 0
M  V30 33566 C 3187.92 -0.0711608 -3.6003 0
M  V30 33567 C 3187.77 -1.4693 -4.25126 0
M  V30 33568 C 3189.09 0.615163 -4.35779 0
M  V30 33569 H 3186.21 -0.0403399 -0.735895 0
M  V30 33570 H 3188.85 -0.782999 -1.73116 0
M  V30 33571 H 3187 0.504543 -3.8521 0
M  V30 33572 H 3188.68 -2.0923 -4.11121 0
M  V30 33573 H 3186.92 -2.02917 -3.83415 0
M  V30 33574 H 3187.59 -1.39647 -5.34044 0
M  V30 33575 H 3190.07 0.125798 -4.1591 0
M  V30 33576 H 3188.94 0.609323 -5.45508 0
M  V30 33577 H 3189.2 1.68178 -4.08862 0
M  V30 33578 N 3188.26 1.53669 -0.349801 0
M  V30 33579 C 3189.49 2.05432 0.246002 0
M  V30 33580 C 3189.9 1.22437 1.43717 0
M  V30 33581 O 3189.26 0.261198 1.80621 0
M  V30 33582 C 3189.31 3.55517 0.654947 0
M  V30 33583 O 3189.03 4.35364 -0.488859 0
M  V30 33584 C 3190.53 4.23477 1.31081 0
M  V30 33585 H 3187.75 0.669395 0.0463834 0
M  V30 33586 H 3190.3 1.98202 -0.503601 0
M  V30 33587 H 3188.45 3.6295 1.35448 0
M  V30 33588 H 3188.87 5.24251 -0.16162 0
M  V30 33589 H 3190.34 5.2986 1.54765 0
M  V30 33590 H 3190.82 3.76212 2.2663 0
M  V30 33591 H 3191.42 4.20255 0.653137 0
M  V30 33592 N 3189.74 0.0785709 1.57404 0
M  V30 33593 C 3191.16 -0.278073 1.57159 0
M  V30 33594 C 3191.36 -1.6957 1.0885 0
M  V30 33595 O 3190.41 -2.40871 0.757449 0
M  V30 33596 C 3191.72 -0.0815539 3.00589 0
M  V30 33597 C 3193.27 -0.150572 3.12638 0
M  V30 33598 C 3193.75 0.017749 4.57997 0
M  V30 33599 N 3195.24 -0.0376331 4.63185 0
M  V30 33600 C 3195.97 0.0680915 5.7336 0
M  V30 33601 N 3195.47 0.227719 6.92426 0
M  V30 33602 N 3197.26 0.0105412 5.62099 0
M  V30 33603 H 3189.41 1.00499 1.87119 0
M  V30 33604 H 3191.68 0.392499 0.86293 0
M  V30 33605 H 3191.38 0.896929 3.40071 0
M  V30 33606 H 3191.26 -0.830981 3.67933 0
M  V30 33607 H 3193.64 -1.11955 2.73039 0
M  V30 33608 H 3193.72 0.630071 2.47919 0
M  V30 33609 H 3193.37 0.983519 4.98286 0
M  V30 33610 H 3193.3 -0.782383 5.20756 0
M  V30 33611 H 3195.79 -0.159142 3.77565 0
M  V30 33612 H 3196.1 0.300353 7.72216 0
M  V30 33613 H 3194.45 0.263171 6.94502 0
M  V30 33614 H 3197.64 -0.112917 4.67964 0
M  V30 33615 H 3197.81 0.0963886 6.47928 0
M  V30 33616 N 3191.22 -1.56389 -0.19503 0
M  V30 33617 C 3192.46 -1.82415 -0.922178 0
M  V30 33618 C 3192.82 -0.656069 -1.80443 0
M  V30 33619 O 3194.02 -0.796228 -2.56737 0
M  V30 33620 C 3192.29 -3.13465 -1.71682 0
M  V30 33621 S 3193.85 -3.60897 -2.49597 0
M  V30 33622 H 3190.67 -0.640197 -0.309304 0
M  V30 33623 H 3193.27 -1.94617 -0.185579 0
M  V30 33624 H 3191.98 -3.96494 -1.0593 0
M  V30 33625 H 3191.51 -3.04141 -2.49523 0
M  V30 33626 H 3193.52 -3.26338 -3.73788 0
M  V30 33627 N 3192.7 0.462746 -1.50653 0
M  V30 33628 C 3193.63 1.56757 -1.73059 0
M  V30 33629 C 3194.61 1.59916 -0.579727 0
M  V30 33630 O 3195.79 1.7605 -0.81976 0
M  V30 33631 C 3192.92 2.95027 -1.83239 0
M  V30 33632 C 3191.88 3.06734 -2.98494 0
M  V30 33633 C 3191.2 4.46733 -2.93826 0
M  V30 33634 C 3192.5 2.83173 -4.38874 0
M  V30 33635 H 3194.2 1.3826 -2.65565 0
M  V30 33636 H 3191.74 0.6637 -1.27793 0
M  V30 33637 H 3193.69 3.72254 -1.97497 0
M  V30 33638 H 3192.42 3.14699 -0.873613 0
M  V30 33639 H 3191.08 2.31941 -2.83899 0
M  V30 33640 H 3190.73 4.63336 -1.95777 0
M  V30 33641 H 3190.43 4.555 -3.71205 0
M  V30 33642 H 3191.95 5.25968 -3.10144 0
M  V30 33643 H 3193.36 3.50145 -4.53951 0
M  V30 33644 H 3191.76 3.03377 -5.17767 0
M  V30 33645 H 3192.83 1.78964 -4.50666 0
M  V30 33646 N 3194.17 1.40371 0.716495 0
M  V30 33647 C 3195.12 1.40737 1.85192 0
M  V30 33648 C 3196.12 0.287998 1.66934 0
M  V30 33649 O 3197.32 0.458988 1.7405 0
M  V30 33650 H 3193.7 0.439896 0.609914 0
M  V30 33651 H 3195.67 2.36472 1.81999 0
M  V30 33652 C 3194.42 1.28595 3.23046 0
M  V30 33653 H 3193.74 2.14005 3.37701 0
M  V30 33654 H 3195.18 1.3291 4.0263 0
M  V30 33655 C 3193.64 -0.0039059 3.369 0
M  V30 33656 O 3194.17 -0.967174 3.89883 0
M  V30 33657 N 3192.38 -0.0731054 2.90508 0
M  V30 33658 H 3191.92 0.711498 2.47579 0
M  V30 33659 H 3191.88 -0.935599 3.00156 0
M  V30 33660 N 3195.65 -0.948621 1.25853 0
M  V30 33661 C 3197.07 -1.22079 1.02805 0
M  V30 33662 C 3197.27 -1.99925 -0.251426 0
M  V30 33663 O 3196.32 -2.33434 -0.962551 0
M  V30 33664 C 3197.64 -1.98932 2.25492 0
M  V30 33665 C 3199.19 -2.11952 2.30316 0
M  V30 33666 C 3199.66 -2.92204 3.52676 0
M  V30 33667 N 3201.15 -2.99781 3.53109 0
M  V30 33668 C 3201.89 -3.62286 4.44451 0
M  V30 33669 N 3201.38 -4.26352 5.46073 0
M  V30 33670 N 3203.18 -3.59485 4.32119 0
M  V30 33671 H 3195.33 -0.428007 2.08043 0
M  V30 33672 H 3197.59 -0.251856 0.913933 0
M  V30 33673 H 3197.3 -1.49134 3.18515 0
M  V30 33674 H 3197.17 -2.9962 2.29145 0
M  V30 33675 H 3199.56 -2.60944 1.37812 0
M  V30 33676 H 3199.64 -1.10549 2.30678 0
M  V30 33677 H 3199.28 -2.43901 4.45505 0
M  V30 33678 H 3199.21 -3.93846 3.49561 0
M  V30 33679 H 3201.7 -2.54227 2.79602 0
M  V30 33680 H 3202.02 -4.71921 6.11972 0
M  V30 33681 H 3200.36 -4.24962 5.49939 0
M  V30 33682 H 3203.55 -3.08623 3.51951 0
M  V30 33683 H 3203.72 -4.07911 5.035 0
M  V30 33684 N 3197.13 -1.07536 -1.15212 0
M  V30 33685 C 3198.38 -0.800847 -1.86318 0
M  V30 33686 C 3198.71 0.671462 -1.82222 0
M  V30 33687 O 3197.98 1.49293 -1.24667 0
M  V30 33688 C 3198.27 -1.31209 -3.35345 0
M  V30 33689 C 3198.12 -2.84908 -3.48062 0
M  V30 33690 C 3199.44 -0.93014 -4.30159 0
M  V30 33691 H 3196.56 -0.292391 -0.676518 0
M  V30 33692 H 3199.2 -1.33346 -1.35347 0
M  V30 33693 H 3197.35 -0.859015 -3.78884 0
M  V30 33694 H 3199.02 -3.38519 -3.13373 0
M  V30 33695 H 3197.27 -3.23013 -2.8956 0
M  V30 33696 H 3197.94 -3.15749 -4.52776 0
M  V30 33697 H 3200.41 -1.32057 -3.94589 0
M  V30 33698 H 3199.29 -1.31516 -5.32912 0
M  V30 33699 H 3199.55 0.163746 -4.41797 0
M  V30 33700 N 3198.61 1.32084 -0.85974 0
M  V30 33701 C 3199.85 1.98876 -0.471974 0
M  V30 33702 C 3200.21 1.66527 0.95566 0
M  V30 33703 O 3201.41 2.26449 1.44825 0
M  V30 33704 C 3199.68 3.50275 -0.710078 0
M  V30 33705 S 3201.24 4.36779 -0.420643 0
M  V30 33706 H 3198.06 0.688719 -0.1766 0
M  V30 33707 H 3200.66 1.60687 -1.11355 0
M  V30 33708 H 3199.37 3.71308 -1.74809 0
M  V30 33709 H 3198.9 3.93361 -0.055112 0
M  V30 33710 H 3200.91 4.9048 0.751276 0
M  V30 33711 N 3200.09 0.618171 1.4497 0
M  V30 33712 C 3201.31 0.124202 2.06527 0
M  V30 33713 C 3201.73 -1.19585 1.46099 0
M  V30 33714 O 3201.09 -1.7307 0.57904 0
M  V30 33715 C 3201.14 -0.0106066 3.61498 0
M  V30 33716 O 3200.86 1.25723 4.19673 0
M  V30 33717 C 3202.36 -0.534795 4.40062 0
M  V30 33718 H 3199.58 0.0737052 0.66694 0
M  V30 33719 H 3202.12 0.848904 1.86048 0
M  V30 33720 H 3200.28 -0.685685 3.81284 0
M  V30 33721 H 3200.69 1.09371 5.1297 0
M  V30 33722 H 3202.17 -0.578174 5.48964 0
M  V30 33723 H 3202.64 -1.55924 4.1059 0
M  V30 33724 H 3203.25 0.106594 4.25166 0
M  V30 33725 N 3201.56 -1.53481 0.357946 0
M  V30 33726 C 3202.51 -2.27 -0.507325 0
M  V30 33727 C 3203.51 -1.29687 -1.08985 0
M  V30 33728 O 3204.71 -1.47343 -1.03393 0
M  V30 33729 H 3201.09 -0.729566 -0.182313 0
M  V30 33730 H 3203.06 -2.98096 0.134599 0
M  V30 33731 C 3201.81 -3.06643 -1.63906 0
M  V30 33732 H 3201.13 -3.81363 -1.20011 0
M  V30 33733 H 3202.57 -3.61276 -2.21937 0
M  V30 33734 C 3201.03 -2.17016 -2.57693 0
M  V30 33735 O 3201.56 -1.77584 -3.60315 0
M  V30 33736 N 3199.77 -1.81803 -2.26707 0
M  V30 33737 H 3199.31 -2.14068 -1.43292 0
M  V30 33738 H 3199.27 -1.2212 -2.89714 0
M  V30 33739 N 3203.04 -0.0869173 -1.5736 0
M  V30 33740 C 3204.27 0.586463 -1.98101 0
M  V30 33741 C 3204.68 1.62765 -0.964578 0
M  V30 33742 O 3204.02 1.83617 0.0551478 0
M  V30 33743 C 3204.09 1.29941 -3.35195 0
M  V30 33744 C 3203.75 0.409932 -4.55158 0
M  V30 33745 C 3204.75 -0.338624 -5.18796 0
M  V30 33746 C 3202.43 0.330382 -5.01212 0
M  V30 33747 C 3204.43 -1.15479 -6.26852 0
M  V30 33748 C 3202.11 -0.489447 -6.09137 0
M  V30 33749 C 3203.11 -1.23069 -6.71821 0
M  V30 33750 O 3202.8 -2.03697 -7.77665 0
M  V30 33751 H 3202.53 0.162539 -0.656168 0
M  V30 33752 H 3205.08 -0.160415 -2.04773 0
M  V30 33753 H 3203.31 2.09268 -3.25182 0
M  V30 33754 H 3205 1.86651 -3.60439 0
M  V30 33755 H 3205.77 -0.286849 -4.84151 0
M  V30 33756 H 3201.65 0.896978 -4.52189 0
M  V30 33757 H 3205.19 -1.73386 -6.75709 0
M  V30 33758 H 3201.09 -0.542731 -6.43214 0
M  V30 33759 H 3201.86 -1.96291 -7.94614 0
M  V30 33760 N 3204.52 1.5649 0.186734 0
M  V30 33761 C 3205.45 1.90283 1.25967 0
M  V30 33762 C 3206.43 0.763847 1.43541 0
M  V30 33763 O 3207.62 1.01567 1.58797 0
M  V30 33764 C 3204.74 2.14032 2.62503 0
M  V30 33765 C 3203.79 3.36732 2.61752 0
M  V30 33766 S 3204.62 4.91594 2.12357 0
M  V30 33767 C 3205.78 5.18421 3.50701 0
M  V30 33768 H 3206.01 2.80991 0.971153 0
M  V30 33769 H 3203.54 1.49377 0.39061 0
M  V30 33770 H 3205.5 2.28397 3.41094 0
M  V30 33771 H 3204.16 1.24059 2.88562 0
M  V30 33772 H 3203.36 3.50501 3.62167 0
M  V30 33773 H 3202.96 3.21403 1.91248 0
M  V30 33774 H 3205.25 5.09453 4.46613 0
M  V30 33775 H 3206.19 6.20134 3.41818 0
M  V30 33776 H 3206.6 4.46032 3.46 0
M  V30 33777 N 3206 -0.45475 1.50897 0
M  V30 33778 C 3207.41 -1.03517 1.55374 0
M  V30 33779 C 3207.76 -1.9274 0.366856 0
M  V30 33780 O 3206.89 -2.10099 -0.518407 0
M  V30 33781 C 3207.48 -1.88413 2.81578 0
M  V30 33782 C 3206.04 -2.41535 2.88683 0
M  V30 33783 C 3205.19 -1.20293 2.4985 0
M  V30 33784 H 3208.14 -0.236701 1.56925 0
M  V30 33785 H 3208.16 -2.73671 2.64357 0
M  V30 33786 H 3207.67 -1.23449 3.67943 0
M  V30 33787 H 3205.77 -3.10004 2.06708 0
M  V30 33788 H 3205.88 -2.75524 3.91948 0
M  V30 33789 H 3204.25 -1.54285 2.02653 0
M  V30 33790 H 3205.03 -0.569664 3.38541 0
M  V30 33791 N 3207.48 -1.40749 -0.709041 0
M  V30 33792 C 3208.71 -1.42502 -1.49588 0
M  V30 33793 C 3209.11 -0.0248675 -1.89184 0
M  V30 33794 O 3208.46 0.963082 -1.5643 0
M  V30 33795 C 3208.52 -2.25812 -2.79731 0
M  V30 33796 C 3208.18 -3.74146 -2.62419 0
M  V30 33797 C 3209.18 -4.66628 -2.29248 0
M  V30 33798 C 3206.87 -4.18036 -2.7848 0
M  V30 33799 C 3208.86 -6.00986 -2.12356 0
M  V30 33800 C 3206.55 -5.52463 -2.61205 0
M  V30 33801 C 3207.54 -6.43753 -2.28192 0
M  V30 33802 O 3207.23 -7.757 -2.11055 0
M  V30 33803 H 3206.96 -0.487817 -0.467985 0
M  V30 33804 H 3209.52 -1.85515 -0.881661 0
M  V30 33805 H 3207.75 -1.7759 -3.4351 0
M  V30 33806 H 3209.44 -2.19427 -3.41477 0
M  V30 33807 H 3210.2 -4.34013 -2.16467 0
M  V30 33808 H 3206.08 -3.47295 -3.03162 0
M  V30 33809 H 3209.63 -6.72205 -1.8651 0
M  V30 33810 H 3205.52 -5.84661 -2.73572 0
M  V30 33811 H 3206.29 -7.86702 -2.25924 0
M  V30 33812 N 3208.96 0.941933 -1.26354 0
M  V30 33813 C 3210.2 1.68804 -1.11854 0
M  V30 33814 C 3210.53 1.91536 0.338257 0
M  V30 33815 O 3209.79 1.49326 1.26492 0
M  V30 33816 C 3210.08 3.06875 -1.832 0
M  V30 33817 C 3209.75 3.03902 -3.33098 0
M  V30 33818 C 3208.41 3.02798 -3.73988 0
M  V30 33819 C 3210.76 2.96266 -4.28808 0
M  V30 33820 C 3208.09 2.91823 -5.08976 0
M  V30 33821 C 3210.44 2.86832 -5.63835 0
M  V30 33822 C 3209.11 2.84071 -6.04037 0
M  V30 33823 H 3208.38 0.617699 -0.409303 0
M  V30 33824 H 3211.03 1.09955 -1.56787 0
M  V30 33825 H 3209.33 3.69345 -1.30734 0
M  V30 33826 H 3211.03 3.63452 -1.69422 0
M  V30 33827 H 3207.62 3.0554 -3.00571 0
M  V30 33828 H 3211.8 2.96227 -3.982 0
M  V30 33829 H 3207.06 2.88062 -5.39287 0
M  V30 33830 H 3211.23 2.79887 -6.37681 0
M  V30 33831 H 3208.86 2.75322 -7.08591 0
M  V30 33832 N 3210.43 1.08146 1.1464 0
M  V30 33833 C 3211.68 0.809517 1.85615 0
M  V30 33834 C 3212.01 -0.66464 1.82792 0
M  V30 33835 O 3211.26 -1.50427 1.25181 0
M  V30 33836 C 3211.56 1.27325 3.33951 0
M  V30 33837 C 3211.23 2.75476 3.56965 0
M  V30 33838 C 3209.89 3.15939 3.62954 0
M  V30 33839 C 3212.24 3.71063 3.66008 0
M  V30 33840 C 3209.57 4.5079 3.75507 0
M  V30 33841 C 3211.92 5.05685 3.80085 0
M  V30 33842 C 3210.59 5.45758 3.84323 0
M  V30 33843 H 3209.86 0.296223 0.679215 0
M  V30 33844 H 3212.5 1.35392 1.3543 0
M  V30 33845 H 3210.81 0.648396 3.86398 0
M  V30 33846 H 3212.51 1.03964 3.87289 0
M  V30 33847 H 3209.1 2.43156 3.52949 0
M  V30 33848 H 3213.28 3.40924 3.60673 0
M  V30 33849 H 3208.54 4.81295 3.77048 0
M  V30 33850 H 3212.71 5.79619 3.86025 0
M  V30 33851 H 3210.34 6.50249 3.93802 0
M  V30 33852 N 3211.91 -1.31626 0.866732 0
M  V30 33853 C 3213.14 -2.01004 0.490426 0
M  V30 33854 C 3213.55 -1.65079 -0.916215 0
M  V30 33855 O 3212.91 -0.878328 -1.59974 0
M  V30 33856 C 3212.96 -3.55896 0.634074 0
M  V30 33857 O 3212.68 -3.90534 1.98532 0
M  V30 33858 C 3214.18 -4.42547 0.258355 0
M  V30 33859 H 3211.4 -0.643113 0.191432 0
M  V30 33860 H 3213.95 -1.67932 1.16701 0
M  V30 33861 H 3212.1 -3.874 0.00508611 0
M  V30 33862 H 3212.52 -4.85252 1.99075 0
M  V30 33863 H 3213.99 -5.50477 0.40983 0
M  V30 33864 H 3214.47 -4.31811 -0.802225 0
M  V30 33865 H 3215.07 -4.16454 0.86291 0
M  V30 33866 N 3213.39 -0.62585 -1.4464 0
M  V30 33867 C 3214.32 0.0691778 -2.33398 0
M  V30 33868 C 3215.3 0.840215 -1.479 0
M  V30 33869 O 3216.49 0.807145 -1.76632 0
M  V30 33870 C 3213.62 1.05494 -3.3089 0
M  V30 33871 C 3212.57 0.395893 -4.26165 0
M  V30 33872 C 3211.9 1.49119 -5.13486 0
M  V30 33873 C 3213.2 -0.694524 -5.17662 0
M  V30 33874 H 3214.89 -0.671976 -2.91762 0
M  V30 33875 H 3212.44 -0.324598 -1.40294 0
M  V30 33876 H 3214.39 1.54986 -3.91864 0
M  V30 33877 H 3213.11 1.82692 -2.70724 0
M  V30 33878 H 3211.77 -0.0783336 -3.66516 0
M  V30 33879 H 3211.42 2.25391 -4.49675 0
M  V30 33880 H 3211.12 1.05562 -5.7804 0
M  V30 33881 H 3212.64 1.98802 -5.7733 0
M  V30 33882 H 3214.06 -0.282919 -5.72601 0
M  V30 33883 H 3212.45 -1.05291 -5.90791 0
M  V30 33884 H 3213.52 -1.5638 -4.58992 0
M  V30 33885 N 3214.87 1.53289 -0.36608 0
M  V30 33886 C 3215.8 2.28678 0.47207 0
M  V30 33887 C 3216.78 1.31127 1.0835 0
M  V30 33888 O 3217.96 1.59997 1.10066 0
M  V30 33889 C 3215.09 3.07639 1.61168 0
M  V30 33890 C 3214.05 4.12883 1.12747 0
M  V30 33891 C 3213.37 4.7993 2.35736 0
M  V30 33892 C 3214.67 5.2187 0.211862 0
M  V30 33893 H 3216.37 2.98989 -0.15689 0
M  V30 33894 H 3213.91 1.43795 -0.0768962 0
M  V30 33895 H 3215.87 3.59127 2.20467 0
M  V30 33896 H 3214.59 2.3502 2.26788 0
M  V30 33897 H 3213.25 3.62341 0.55717 0
M  V30 33898 H 3212.9 4.03882 2.99814 0
M  V30 33899 H 3212.6 5.51048 2.0401 0
M  V30 33900 H 3214.12 5.34212 2.9572 0
M  V30 33901 H 3215.54 5.68857 0.71234 0
M  V30 33902 H 3213.93 6.00098 -0.0145556 0
M  V30 33903 H 3215 4.7913 -0.745837 0
M  V30 33904 N 3216.35 0.0952613 1.57312 0
M  V30 33905 C 3217.28 -0.860715 2.17057 0
M  V30 33906 C 3218.26 -1.29409 1.10396 0
M  V30 33907 O 3219.44 -1.36095 1.38534 0
M  V30 33908 C 3216.57 -2.11979 2.75104 0
M  V30 33909 C 3215.53 -1.82503 3.87139 0
M  V30 33910 C 3214.85 -3.1524 4.31889 0
M  V30 33911 C 3216.15 -1.11185 5.10328 0
M  V30 33912 H 3217.85 -0.362931 2.97192 0
M  V30 33913 H 3215.39 -0.173126 1.42955 0
M  V30 33914 H 3217.34 -2.79293 3.15552 0
M  V30 33915 H 3216.07 -2.64041 1.92224 0
M  V30 33916 H 3214.73 -1.17586 3.47231 0
M  V30 33917 H 3214.38 -3.65189 3.45899 0
M  V30 33918 H 3214.08 -2.963 5.07425 0
M  V30 33919 H 3215.6 -3.83712 4.74971 0
M  V30 33920 H 3217.01 -1.6861 5.47945 0
M  V30 33921 H 3215.41 -1.02424 5.91295 0
M  V30 33922 H 3216.48 -0.0946374 4.84808 0
M  V30 33923 N 3217.82 -1.56587 -0.178432 0
M  V30 33924 C 3218.76 -1.9241 -1.24543 0
M  V30 33925 C 3219.77 -0.816446 -1.40847 0
M  V30 33926 O 3220.96 -1.09489 -1.40977 0
M  V30 33927 C 3218.06 -2.15548 -2.61519 0
M  V30 33928 C 3217.23 -3.46756 -2.66606 0
M  V30 33929 C 3216.29 -3.58807 -3.84895 0
M  V30 33930 O 3215.32 -4.31488 -3.71223 0
M  V30 33931 N 3216.52 -2.93129 -5.01055 0
M  V30 33932 H 3219.28 -2.84537 -0.941225 0
M  V30 33933 H 3216.84 -1.57656 -0.368247 0
M  V30 33934 H 3218.84 -2.20882 -3.39106 0
M  V30 33935 H 3217.41 -1.2984 -2.84359 0
M  V30 33936 H 3216.63 -3.53143 -1.75167 0
M  V30 33937 H 3217.91 -4.33108 -2.6701 0
M  V30 33938 H 3217.31 -2.33937 -5.15063 0
M  V30 33939 H 3215.87 -3.04067 -5.76529 0
M  V30 33940 N 3219.3 0.446741 -1.51136 0
M  V30 33941 C 3220.23 1.54913 -1.74712 0
M  V30 33942 C 3221.21 1.59292 -0.596656 0
M  V30 33943 O 3222.4 1.75171 -0.838386 0
M  V30 33944 C 3219.53 2.93067 -1.86358 0
M  V30 33945 C 3218.48 3.0355 -3.0173 0
M  V30 33946 C 3217.81 4.43591 -2.98548 0
M  V30 33947 C 3219.11 2.78502 -4.41853 0
M  V30 33948 H 3220.8 1.35435 -2.67016 0
M  V30 33949 H 3218.35 0.650108 -1.2849 0
M  V30 33950 H 3220.3 3.70138 -2.01435 0
M  V30 33951 H 3219.02 3.13755 -0.906942 0
M  V30 33952 H 3217.68 2.28917 -2.86343 0
M  V30 33953 H 3217.33 4.61233 -2.00681 0
M  V30 33954 H 3217.03 4.51537 -3.76015 0
M  V30 33955 H 3218.56 5.22649 -3.15705 0
M  V30 33956 H 3219.97 3.45311 -4.57639 0
M  V30 33957 H 3218.37 2.97868 -5.20955 0
M  V30 33958 H 3219.44 1.74174 -4.52539 0
M  V30 33959 N 3220.78 1.41123 0.701567 0
M  V30 33960 C 3222.02 1.4162 1.47387 0
M  V30 33961 C 3222.38 0.0219781 1.91987 0
M  V30 33962 O 3223.58 -0.0982321 2.6862 0
M  V30 33963 C 3221.86 2.3899 2.65741 0
M  V30 33964 S 3223.41 2.57966 3.54963 0
M  V30 33965 H 3220.23 0.501771 0.503733 0
M  V30 33966 H 3222.83 1.77511 0.819155 0
M  V30 33967 H 3221.54 3.391 2.3117 0
M  V30 33968 H 3221.07 2.04432 3.36112 0
M  V30 33969 H 3223.08 1.84257 4.60721 0
M  V30 33970 N 3222.26 -0.935219 1.26852 0
M  V30 33971 C 3223.49 -1.71633 1.15541 0
M  V30 33972 C 3223.9 -1.8658 -0.288665 0
M  V30 33973 O 3223.26 -1.37745 -1.19719 0
M  V30 33974 C 3223.31 -3.11995 1.82595 0
M  V30 33975 O 3223.03 -2.97757 3.2136 0
M  V30 33976 C 3224.53 -4.06294 1.77315 0
M  V30 33977 H 3221.75 -0.537201 0.402064 0
M  V30 33978 H 3224.29 -1.172 1.67584 0
M  V30 33979 H 3222.45 -3.63311 1.34476 0
M  V30 33980 H 3222.86 -3.8644 3.54633 0
M  V30 33981 H 3224.34 -5.02322 2.28859 0
M  V30 33982 H 3224.81 -4.32906 0.7409 0
M  V30 33983 H 3225.42 -3.609 2.25013 0
M  V30 33984 N 3223.74 -1.08752 -1.14065 0
M  V30 33985 C 3224.98 -0.819349 -1.85183 0
M  V30 33986 C 3225.31 0.654937 -1.83142 0
M  V30 33987 O 3224.57 1.49761 -1.25977 0
M  V30 33988 C 3224.87 -1.29095 -3.33271 0
M  V30 33989 C 3224.53 -2.77365 -3.55499 0
M  V30 33990 C 3223.19 -3.1786 -3.61274 0
M  V30 33991 C 3225.55 -3.72999 -3.64035 0
M  V30 33992 C 3222.87 -4.52775 -3.73111 0
M  V30 33993 C 3225.23 -5.07694 -3.77398 0
M  V30 33994 C 3223.89 -5.47789 -3.81424 0
M  V30 33995 H 3223.16 -0.299821 -0.677634 0
M  V30 33996 H 3225.81 -1.36108 -1.3471 0
M  V30 33997 H 3224.11 -0.668879 -3.86048 0
M  V30 33998 H 3225.81 -1.06016 -3.86732 0
M  V30 33999 H 3222.4 -2.45025 -3.51654 0
M  V30 34000 H 3226.58 -3.42831 -3.5886 0
M  V30 34001 H 3221.84 -4.83287 -3.74491 0
M  V30 34002 H 3226.01 -5.81658 -3.82946 0
M  V30 34003 H 3223.64 -6.52328 -3.90348 0
M  V30 34004 N 3225.21 1.31165 -0.873701 0
M  V30 34005 C 3226.44 2.00741 -0.501079 0
M  V30 34006 C 3226.86 1.65562 0.907447 0
M  V30 34007 O 3226.21 0.886799 1.59506 0
M  V30 34008 C 3226.27 3.55554 -0.652939 0
M  V30 34009 O 3225.99 3.89476 -2.006 0
M  V30 34010 C 3227.49 4.42403 -0.28182 0
M  V30 34011 H 3224.71 0.642089 -0.19484 0
M  V30 34012 H 3227.25 1.67311 -1.1759 0
M  V30 34013 H 3225.41 3.87392 -0.0256308 0
M  V30 34014 H 3225.82 4.84189 -2.01646 0
M  V30 34015 H 3227.29 5.50251 -0.439017 0
M  V30 34016 H 3227.77 4.32231 0.779313 0
M  V30 34017 H 3228.38 4.15991 -0.884983 0
M  V30 34018 N 3226.69 0.633512 1.44307 0
M  V30 34019 C 3228.11 0.299338 1.56768 0
M  V30 34020 C 3228.31 -1.19741 1.62063 0
M  V30 34021 O 3227.36 -1.98155 1.56496 0
M  V30 34022 C 3228.68 0.993357 2.83818 0
M  V30 34023 C 3230.23 0.971727 2.97534 0
M  V30 34024 C 3230.7 1.64626 4.2739 0
M  V30 34025 N 3232.19 1.61296 4.34209 0
M  V30 34026 C 3232.93 2.10379 5.33412 0
M  V30 34027 N 3232.42 2.67664 6.39005 0
M  V30 34028 N 3234.22 2.00994 5.24936 0
M  V30 34029 H 3226.37 1.60504 1.39113 0
M  V30 34030 H 3228.63 0.673863 0.666792 0
M  V30 34031 H 3228.34 2.04829 2.85899 0
M  V30 34032 H 3228.21 0.532603 3.73421 0
M  V30 34033 H 3230.6 -0.0747335 2.95005 0
M  V30 34034 H 3230.68 1.47099 2.09274 0
M  V30 34035 H 3230.32 2.69218 4.30679 0
M  V30 34036 H 3230.25 1.1218 5.14513 0
M  V30 34037 H 3232.74 1.19474 3.58517 0
M  V30 34038 H 3233.06 3.02844 7.10989 0
M  V30 34039 H 3231.4 2.71716 6.39684 0
M  V30 34040 H 3234.59 1.55961 4.41355 0
M  V30 34041 H 3234.76 2.39557 6.02093 0
M  V30 34042 N 3228.17 -1.53093 0.374204 0
M  V30 34043 C 3229.4 -2.06274 -0.215867 0
M  V30 34044 C 3229.82 -1.24528 -1.40977 0
M  V30 34045 O 3229.18 -0.266494 -1.79331 0
M  V30 34046 C 3229.23 -3.55921 -0.579026 0
M  V30 34047 O 3228.33 -3.76848 -1.67509 0
M  V30 34048 H 3227.67 -0.663349 -0.0293865 0
M  V30 34049 H 3230.2 -1.97419 0.537305 0
M  V30 34050 H 3230.21 -3.99098 -0.847608 0
M  V30 34051 H 3228.89 -4.1486 0.293916 0
M  V30 34052 H 3227.46 -3.45565 -1.4014 0
M  V30 34053 N 3229.65 -0.103603 -1.57259 0
M  V30 34054 C 3230.88 0.56624 -1.99001 0
M  V30 34055 C 3231.29 1.61195 -0.982938 0
M  V30 34056 O 3230.65 1.82481 0.0263129 0
M  V30 34057 C 3230.7 1.20629 -3.4078 0
M  V30 34058 O 3230.42 0.202395 -4.37632 0
M  V30 34059 C 3231.92 1.96093 -3.97571 0
M  V30 34060 H 3229.14 0.151153 -0.653754 0
M  V30 34061 H 3231.69 -0.185401 -2.03658 0
M  V30 34062 H 3229.84 1.9088 -3.3711 0
M  V30 34063 H 3230.25 0.665444 -5.20262 0
M  V30 34064 H 3231.73 2.36224 -4.98901 0
M  V30 34065 H 3232.21 2.83013 -3.35858 0
M  V30 34066 H 3232.81 1.30638 -4.04739 0
M  V30 34067 N 3231.13 1.56679 0.170126 0
M  V30 34068 C 3232.07 1.97422 1.22993 0
M  V30 34069 C 3233.07 0.863143 1.45761 0
M  V30 34070 O 3234.27 1.04826 1.46327 0
M  V30 34071 H 3230.65 0.628129 0.413471 0
M  V30 34072 H 3232.62 2.85755 0.859452 0
M  V30 34073 C 3231.37 2.35126 2.56146 0
M  V30 34074 H 3230.69 3.20162 2.3945 0
M  V30 34075 H 3232.13 2.67477 3.28986 0
M  V30 34076 C 3230.59 1.19512 3.14989 0
M  V30 34077 O 3231.12 0.483427 3.9878 0
M  V30 34078 N 3229.33 0.965381 2.74096 0
M  V30 34079 H 3228.87 1.54588 2.06059 0
M  V30 34080 H 3228.83 0.193667 3.13803 0
M  V30 34081 N 3232.6 -0.43872 1.5137 0
M  V30 34082 C 3233.83 -1.21534 1.6806 0
M  V30 34083 C 3234.25 -1.84287 0.37682 0
M  V30 34084 O 3233.61 -1.68747 -0.662881 0
M  V30 34085 C 3233.66 -2.27612 2.79688 0
M  V30 34086 O 3232.76 -3.33062 2.43195 0
M  V30 34087 H 3232.11 -0.356134 0.560415 0
M  V30 34088 H 3234.64 -0.518276 1.97927 0
M  V30 34089 H 3234.65 -2.72418 3.03731 0
M  V30 34090 H 3233.32 -1.81315 3.74296 0
M  V30 34091 H 3231.9 -2.93742 2.29718 0
M  V30 34092 N 3234.08 -1.41493 -0.694073 0
M  V30 34093 C 3235.5 -1.23996 -1.00485 0
M  V30 34094 C 3235.7 -0.130381 -2.01078 0
M  V30 34095 O 3234.75 0.504732 -2.47404 0
M  V30 34096 C 3236.07 -2.58982 -1.52803 0
M  V30 34097 C 3237.62 -2.66176 -1.64679 0
M  V30 34098 C 3238.09 -4.01483 -2.20399 0
M  V30 34099 N 3239.58 -4.03337 -2.27757 0
M  V30 34100 C 3240.32 -5.04834 -2.71902 0
M  V30 34101 N 3239.81 -6.1672 -3.1564 0
M  V30 34102 N 3241.61 -4.92195 -2.71479 0
M  V30 34103 H 3233.76 -2.12382 -0.0277087 0
M  V30 34104 H 3236.02 -0.94504 -0.0748575 0
M  V30 34105 H 3235.73 -3.40936 -0.863459 0
M  V30 34106 H 3235.6 -2.81571 -2.50993 0
M  V30 34107 H 3237.99 -1.8458 -2.30248 0
M  V30 34108 H 3238.07 -2.47396 -0.650307 0
M  V30 34109 H 3237.71 -4.83528 -1.55445 0
M  V30 34110 H 3237.64 -4.17604 -3.20802 0
M  V30 34111 H 3240.13 -3.22554 -1.96894 0
M  V30 34112 H 3240.45 -6.90035 -3.47954 0
M  V30 34113 H 3238.79 -6.20254 -3.13545 0
M  V30 34114 H 3241.98 -4.03869 -2.36659 0
M  V30 34115 H 3242.15 -5.71432 -3.05563 0
M  V30 34116 N 3235.56 0.928479 -1.27346 0
M  V30 34117 C 3236.81 1.67059 -1.13022 0
M  V30 34118 C 3237.12 1.92905 0.32358 0
M  V30 34119 O 3238.33 2.65063 0.587705 0
M  V30 34120 C 3236.78 3.00884 -1.97477 0
M  V30 34121 C 3236.39 2.82739 -3.47509 0
M  V30 34122 C 3238.14 3.787 -1.91798 0
M  V30 34123 C 3236.04 4.12114 -4.24165 0
M  V30 34124 H 3234.97 0.62661 -0.419375 0
M  V30 34125 H 3237.62 1.03155 -1.5176 0
M  V30 34126 H 3236.01 3.6584 -1.51582 0
M  V30 34127 H 3237.18 2.26555 -4.0126 0
M  V30 34128 H 3235.5 2.18353 -3.54557 0
M  V30 34129 H 3238.09 4.7457 -2.46347 0
M  V30 34130 H 3238.44 4.06643 -0.891446 0
M  V30 34131 H 3238.97 3.20539 -2.35584 0
M  V30 34132 H 3235.71 3.8935 -5.27339 0
M  V30 34133 H 3235.23 4.67965 -3.75191 0
M  V30 34134 H 3236.91 4.80482 -4.33297 0
M  V30 34135 N 3237.04 1.09355 1.13486 0
M  V30 34136 C 3237.99 0.732289 2.18875 0
M  V30 34137 C 3238.96 -0.286146 1.63617 0
M  V30 34138 O 3240.14 -0.167948 1.90059 0
M  V30 34139 C 3237.28 0.158218 3.44737 0
M  V30 34140 C 3236.39 1.23061 4.14102 0
M  V30 34141 C 3235.53 0.619365 5.27577 0
M  V30 34142 C 3234.57 1.67311 5.8879 0
M  V30 34143 N 3233.7 1.08295 6.93698 0
M  V30 34144 H 3238.54 1.63526 2.49125 0
M  V30 34145 H 3236.08 0.817017 1.22324 0
M  V30 34146 H 3238.04 -0.192415 4.16756 0
M  V30 34147 H 3236.67 -0.708026 3.14939 0
M  V30 34148 H 3235.72 1.69853 3.40373 0
M  V30 34149 H 3237.03 2.02873 4.5568 0
M  V30 34150 H 3236.19 0.217535 6.0631 0
M  V30 34151 H 3234.93 -0.210313 4.87246 0
M  V30 34152 H 3233.93 2.08449 5.08752 0
M  V30 34153 H 3235.16 2.50544 6.31193 0
M  V30 34154 H 3233.1 0.274542 6.55425 0
M  V30 34155 H 3233.02 1.81805 7.33814 0
M  V30 34156 H 3234.29 0.707304 7.76284 0
M  V30 34157 N 3238.52 -1.307 0.880644 0
M  V30 34158 C 3239.48 -2.26525 0.349127 0
M  V30 34159 C 3240.48 -1.52633 -0.505946 0
M  V30 34160 O 3241.67 -1.71352 -0.313721 0
M  V30 34161 C 3238.8 -3.37169 -0.502964 0
M  V30 34162 H 3240 -2.75054 1.19521 0
M  V30 34163 H 3237.55 -1.41815 0.657132 0
M  V30 34164 H 3238.28 -2.9395 -1.36981 0
M  V30 34165 H 3238.07 -3.91947 0.109458 0
M  V30 34166 H 3239.56 -4.08506 -0.866773 0
M  V30 34167 N 3240 -0.641156 -1.43969 0
M  V30 34168 C 3241.22 -0.155354 -2.06817 0
M  V30 34169 C 3241.65 1.16516 -1.47667 0
M  V30 34170 O 3241 1.71706 -0.58195 0
M  V30 34171 C 3241.05 -0.064817 -3.60542 0
M  V30 34172 O 3240.16 0.976377 -4.00675 0
M  V30 34173 H 3239.5 -0.089352 -0.657961 0
M  V30 34174 H 3242.03 -0.880672 -1.84676 0
M  V30 34175 H 3242.04 0.122481 -4.07816 0
M  V30 34176 H 3240.71 -1.02886 -4.02973 0
M  V30 34177 H 3239.29 0.762841 -3.65014 0
M  V30 34178 N 3241.47 1.52892 -0.382318 0
M  V30 34179 C 3242.41 2.22651 0.500155 0
M  V30 34180 C 3243.38 1.22461 1.06967 0
M  V30 34181 O 3244.57 1.51423 1.12264 0
M  V30 34182 C 3241.7 2.9343 1.69165 0
M  V30 34183 C 3240.74 4.07831 1.24803 0
M  V30 34184 S 3241.57 5.34982 0.235372 0
M  V30 34185 C 3242.73 6.09279 1.43281 0
M  V30 34186 H 3242.96 2.97157 -0.0922435 0
M  V30 34187 H 3240.5 1.535 -0.166477 0
M  V30 34188 H 3242.45 3.34819 2.37501 0
M  V30 34189 H 3241.12 2.18617 2.25533 0
M  V30 34190 H 3240.31 4.5643 2.13746 0
M  V30 34191 H 3239.91 3.68419 0.643679 0
M  V30 34192 H 3242.2 6.35027 2.36107 0
M  V30 34193 H 3243.15 7.01175 0.98788 0
M  V30 34194 H 3243.55 5.39956 1.64645 0
M  V30 34195 N 3242.95 0.111941 1.57202 0
M  V30 34196 C 3244.36 -0.414559 1.82039 0
M  V30 34197 C 3244.71 -1.67072 1.02866 0
M  V30 34198 O 3243.84 -2.14795 0.263106 0
M  V30 34199 C 3244.43 -0.758895 3.30191 0
M  V30 34200 C 3242.99 -1.23006 3.55734 0
M  V30 34201 C 3242.14 -0.235177 2.76301 0
M  V30 34202 H 3245.09 0.337169 1.55077 0
M  V30 34203 H 3245.11 -1.61695 3.44434 0
M  V30 34204 H 3244.62 0.155541 3.87788 0
M  V30 34205 H 3242.72 -2.16164 3.03487 0
M  V30 34206 H 3242.84 -1.18026 4.64335 0
M  V30 34207 H 3241.2 -0.720779 2.44288 0
M  V30 34208 H 3241.98 0.672233 3.36654 0
M  V30 34209 N 3244.43 -1.56767 -0.161814 0
M  V30 34210 C 3245.66 -1.86674 -0.892214 0
M  V30 34211 C 3246.07 -0.698441 -1.75406 0
M  V30 34212 O 3245.43 0.33222 -1.79451 0
M  V30 34213 C 3245.48 -3.15699 -1.76115 0
M  V30 34214 O 3245.2 -4.28027 -0.934056 0
M  V30 34215 C 3246.7 -3.59018 -2.6004 0
M  V30 34216 H 3243.92 -0.61911 -0.258736 0
M  V30 34217 H 3246.47 -2.03881 -0.159053 0
M  V30 34218 H 3244.62 -3.0029 -2.44754 0
M  V30 34219 H 3245.04 -5.01712 -1.52922 0
M  V30 34220 H 3246.51 -4.52175 -3.1661 0
M  V30 34221 H 3246.99 -2.83592 -3.35369 0
M  V30 34222 H 3247.59 -3.77071 -1.96717 0
M  V30 34223 N 3245.91 0.430686 -1.51601 0
M  V30 34224 C 3247.14 1.20182 -1.68416 0
M  V30 34225 C 3247.55 1.84847 -0.38433 0
M  V30 34226 O 3246.91 1.70993 0.637778 0
M  V30 34227 C 3246.96 2.28095 -2.80455 0
M  V30 34228 O 3246.68 1.66074 -4.05402 0
M  V30 34229 C 3248.18 3.18251 -3.08596 0
M  V30 34230 H 3245.4 0.36198 -0.564988 0
M  V30 34231 H 3247.94 0.509505 -1.98051 0
M  V30 34232 H 3246.1 2.93031 -2.534 0
M  V30 34233 H 3246.51 2.37445 -4.67675 0
M  V30 34234 H 3247.99 3.90089 -3.90557 0
M  V30 34235 H 3248.46 3.79389 -2.21271 0
M  V30 34236 H 3249.07 2.59008 -3.37335 0
M  V30 34237 N 3247.39 1.4186 0.686559 0
M  V30 34238 C 3248.63 1.40996 1.44232 0
M  V30 34239 C 3248.95 0.0255323 1.95583 0
M  V30 34240 O 3250.15 -0.105712 2.71294 0
M  V30 34241 C 3248.61 2.47957 2.60855 0
M  V30 34242 C 3248.22 3.9235 2.16253 0
M  V30 34243 C 3249.96 2.56243 3.38437 0
M  V30 34244 C 3247.87 4.90844 3.29888 0
M  V30 34245 H 3246.8 0.524374 0.541801 0
M  V30 34246 H 3249.45 1.6772 0.744456 0
M  V30 34247 H 3247.83 2.14379 3.32953 0
M  V30 34248 H 3249.01 4.35223 1.51385 0
M  V30 34249 H 3247.32 3.87807 1.51641 0
M  V30 34250 H 3249.92 3.27011 4.23046 0
M  V30 34251 H 3250.26 1.60216 3.84235 0
M  V30 34252 H 3250.79 2.88958 2.73401 0
M  V30 34253 H 3247.53 5.88307 2.89093 0
M  V30 34254 H 3247.05 4.52613 3.93576 0
M  V30 34255 H 3248.73 5.12019 3.95532 0
M  V30 34256 N 3248.86 -0.921712 1.27837 0
M  V30 34257 C 3249.83 -2.00467 1.11111 0
M  V30 34258 C 3250.83 -1.60712 0.0532312 0
M  V30 34259 O 3252.02 -1.71626 0.298338 0
M  V30 34260 C 3249.15 -3.33754 0.694328 0
M  V30 34261 H 3250.34 -2.16735 2.07283 0
M  V30 34262 H 3247.89 -1.10331 1.1071 0
M  V30 34263 H 3248.63 -3.23187 -0.268504 0
M  V30 34264 H 3248.41 -3.63968 1.45842 0
M  V30 34265 H 3249.9 -4.13271 0.599723 0
M  V30 34266 N 3250.34 -1.09956 -1.12905 0
M  V30 34267 C 3251.29 -0.743886 -2.18483 0
M  V30 34268 C 3252.26 0.277465 -1.63766 0
M  V30 34269 O 3253.44 0.157866 -1.90146 0
M  V30 34270 C 3250.58 -0.176498 -3.44648 0
M  V30 34271 C 3249.7 -1.25255 -4.13443 0
M  V30 34272 C 3248.83 -0.647335 -5.27241 0
M  V30 34273 C 3247.87 -1.70431 -5.87894 0
M  V30 34274 N 3247.01 -1.11973 -6.93114 0
M  V30 34275 H 3251.85 -1.64845 -2.48254 0
M  V30 34276 H 3249.38 -0.823493 -1.21889 0
M  V30 34277 H 3251.34 0.170311 -4.16852 0
M  V30 34278 H 3249.97 0.691314 -3.1531 0
M  V30 34279 H 3249.02 -1.71656 -3.39468 0
M  V30 34280 H 3250.34 -2.05287 -4.54597 0
M  V30 34281 H 3249.49 -0.249686 -6.06186 0
M  V30 34282 H 3248.23 0.184471 -4.87351 0
M  V30 34283 H 3247.23 -2.11144 -5.0764 0
M  V30 34284 H 3248.46 -2.53888 -6.29855 0
M  V30 34285 H 3246.41 -0.309297 -6.5527 0
M  V30 34286 H 3246.32 -1.85694 -7.3284 0
M  V30 34287 H 3247.59 -0.748462 -7.75898 0
M  V30 34288 N 3251.82 1.30231 -0.887563 0
M  V30 34289 C 3252.77 2.30015 -0.345805 0
M  V30 34290 C 3253.76 1.60272 0.548572 0
M  V30 34291 O 3254.97 1.74721 0.432719 0
M  V30 34292 H 3251.34 0.746205 -0.0931754 0
M  V30 34293 H 3253.31 2.73164 -1.201 0
M  V30 34294 C 3252.06 3.45125 0.422374 0
M  V30 34295 H 3251.39 3.98976 -0.256586 0
M  V30 34296 H 3252.83 4.17014 0.766498 0
M  V30 34297 C 3251.28 2.9537 1.62044 0
M  V30 34298 O 3251.81 2.95618 2.7198 0
M  V30 34299 N 3250.02 2.5135 1.45848 0
M  V30 34300 H 3249.57 2.51347 0.564113 0
M  V30 34301 H 3249.53 2.18417 2.26144 0
M  V30 34302 N 3253.3 0.648782 1.43627 0
M  V30 34303 C 3254.53 0.167981 2.06217 0
M  V30 34304 C 3254.94 -1.16459 1.48602 0
M  V30 34305 O 3254.3 -1.71803 0.615621 0
M  V30 34306 C 3254.35 0.066075 3.6144 0
M  V30 34307 O 3254.07 1.34597 4.16912 0
M  V30 34308 C 3255.57 -0.441331 4.41098 0
M  V30 34309 H 3252.79 0.0878354 0.665226 0
M  V30 34310 H 3255.34 0.888177 1.84206 0
M  V30 34311 H 3253.49 -0.604655 3.82652 0
M  V30 34312 H 3253.9 1.20227 5.10535 0
M  V30 34313 H 3255.38 -0.4616 5.50067 0
M  V30 34314 H 3255.86 -1.4718 4.13805 0
M  V30 34315 H 3256.46 0.196754 4.24845 0
M  V30 34316 N 3254.78 -1.52688 0.390421 0
M  V30 34317 C 3256.02 -2.01892 -0.191693 0
M  V30 34318 C 3256.36 -1.27633 -1.46367 0
M  V30 34319 O 3255.63 -0.377127 -1.90809 0
M  V30 34320 C 3255.91 -3.57169 -0.458473 0
M  V30 34321 C 3255.77 -4.42097 0.828874 0
M  V30 34322 C 3257.09 -4.22016 -1.24862 0
M  V30 34323 H 3254.2 -0.733838 -0.0681962 0
M  V30 34324 H 3256.85 -1.8274 0.520208 0
M  V30 34325 H 3255 -3.7362 -1.06492 0
M  V30 34326 H 3256.67 -4.37396 1.46569 0
M  V30 34327 H 3254.91 -4.09063 1.44395 0
M  V30 34328 H 3255.58 -5.48764 0.596842 0
M  V30 34329 H 3258.06 -4.0955 -0.73538 0
M  V30 34330 H 3256.93 -5.30639 -1.40403 0
M  V30 34331 H 3257.2 -3.79723 -2.26413 0
M  V30 34332 N 3256.25 -0.120276 -1.5714 0
M  V30 34333 C 3257.2 0.82946 -2.1538 0
M  V30 34334 C 3258.17 1.26268 -1.07915 0
M  V30 34335 O 3259.36 1.33997 -1.35829 0
M  V30 34336 C 3256.5 2.07366 -2.75851 0
M  V30 34337 C 3255.61 1.68868 -3.97627 0
M  V30 34338 C 3254.74 2.88264 -4.46181 0
M  V30 34339 C 3253.78 2.46013 -5.60486 0
M  V30 34340 N 3252.92 3.58327 -6.03777 0
M  V30 34341 H 3257.76 0.325979 -2.96212 0
M  V30 34342 H 3255.3 0.149209 -1.46341 0
M  V30 34343 H 3257.26 2.80266 -3.09041 0
M  V30 34344 H 3255.89 2.5517 -1.97707 0
M  V30 34345 H 3254.94 0.858366 -3.70589 0
M  V30 34346 H 3256.25 1.33819 -4.80514 0
M  V30 34347 H 3255.4 3.69388 -4.81287 0
M  V30 34348 H 3254.14 3.26542 -3.62246 0
M  V30 34349 H 3253.15 1.63322 -5.24982 0
M  V30 34350 H 3254.37 2.08851 -6.46187 0
M  V30 34351 H 3252.32 3.96275 -5.22783 0
M  V30 34352 H 3252.24 3.27205 -6.81523 0
M  V30 34353 H 3253.5 4.39887 -6.43521 0
M  V30 34354 N 3257.73 1.56851 0.153498 0
M  V30 34355 C 3258.96 1.87508 0.88631 0
M  V30 34356 C 3259.38 0.708595 1.74243 0
M  V30 34357 O 3258.74 -0.341966 1.78046 0
M  V30 34358 C 3258.79 3.16706 1.72422 0
M  V30 34359 O 3257.89 3.00183 2.82779 0
M  V30 34360 H 3257.23 0.61625 0.247248 0
M  V30 34361 H 3259.76 2.04076 0.146271 0
M  V30 34362 H 3259.77 3.48563 2.12056 0
M  V30 34363 H 3258.45 4.01212 1.09551 0
M  V30 34364 H 3257.03 2.7972 2.46599 0
M  V30 34365 N 3259.21 -0.42264 1.51827 0
M  V30 34366 C 3260.46 -1.17255 1.65466 0
M  V30 34367 C 3260.79 -1.90508 0.376867 0
M  V30 34368 O 3260.06 -1.84212 -0.624187 0
M  V30 34369 C 3260.35 -2.17783 2.8678 0
M  V30 34370 C 3260.2 -1.48516 4.24574 0
M  V30 34371 C 3261.52 -3.18606 3.03609 0
M  V30 34372 H 3258.64 -0.424915 0.602176 0
M  V30 34373 H 3261.28 -0.459927 1.84349 0
M  V30 34374 H 3259.43 -2.78556 2.70811 0
M  V30 34375 H 3261.1 -0.909659 4.52242 0
M  V30 34376 H 3259.35 -0.787279 4.26596 0
M  V30 34377 H 3260.02 -2.21801 5.05478 0
M  V30 34378 H 3262.49 -2.67898 3.18386 0
M  V30 34379 H 3261.37 -3.86223 3.90029 0
M  V30 34380 H 3261.63 -3.85559 2.16325 0
M  V30 34381 N 3260.69 -1.42222 -0.679027 0
M  V30 34382 C 3261.94 -1.42184 -1.43625 0
M  V30 34383 C 3262.26 -0.0377437 -1.94963 0
M  V30 34384 O 3261.53 0.923067 -1.7279 0
M  V30 34385 H 3260.11 -0.523412 -0.532963 0
M  V30 34386 H 3262.77 -1.77606 -0.802618 0
M  V30 34387 H 3261.87 -2.11906 -2.29134 0
M  V30 34388 N 3262.17 0.91492 -1.28324 0
M  V30 34389 C 3263.11 2.0172 -1.1215 0
M  V30 34390 C 3264.08 1.66089 -0.0189571 0
M  V30 34391 O 3265.27 1.89914 -0.183672 0
M  V30 34392 C 3262.41 3.3598 -0.788139 0
M  V30 34393 C 3261.52 3.84487 -1.9696 0
M  V30 34394 C 3260.66 5.07252 -1.57697 0
M  V30 34395 C 3259.7 5.48089 -2.72516 0
M  V30 34396 N 3258.83 6.62045 -2.33753 0
M  V30 34397 H 3263.67 2.14887 -2.06465 0
M  V30 34398 H 3261.21 1.05255 -1.02761 0
M  V30 34399 H 3263.17 4.1321 -0.575618 0
M  V30 34400 H 3261.8 3.22584 0.118076 0
M  V30 34401 H 3260.85 3.03425 -2.29429 0
M  V30 34402 H 3262.16 4.10714 -2.83047 0
M  V30 34403 H 3261.32 5.92022 -1.32645 0
M  V30 34404 H 3260.05 4.82832 -0.687376 0
M  V30 34405 H 3259.06 4.61862 -2.98268 0
M  V30 34406 H 3260.28 5.74499 -3.62116 0
M  V30 34407 H 3258.23 6.39257 -1.47261 0
M  V30 34408 H 3258.15 6.87991 -3.13376 0
M  V30 34409 H 3259.42 7.50123 -2.11981 0
M  V30 34410 N 3263.64 1.10553 1.1232 0
M  V30 34411 C 3264.89 0.848707 1.83857 0
M  V30 34412 C 3265.22 -0.625718 1.8416 0
M  V30 34413 O 3264.47 -1.47738 1.28344 0
M  V30 34414 C 3264.77 1.3438 3.31175 0
M  V30 34415 C 3264.44 2.82986 3.51041 0
M  V30 34416 C 3263.1 3.23567 3.56171 0
M  V30 34417 C 3265.45 3.78743 3.58055 0
M  V30 34418 C 3262.78 4.58654 3.6586 0
M  V30 34419 C 3265.13 5.13634 3.69274 0
M  V30 34420 C 3263.8 5.53787 3.7266 0
M  V30 34421 H 3263.07 0.310564 0.672779 0
M  V30 34422 H 3265.71 1.38234 1.32528 0
M  V30 34423 H 3264.02 0.730211 3.84935 0
M  V30 34424 H 3265.72 1.12155 3.84996 0
M  V30 34425 H 3262.31 2.50588 3.47712 0
M  V30 34426 H 3266.49 3.48497 3.5336 0
M  V30 34427 H 3261.75 4.89184 3.66755 0
M  V30 34428 H 3265.92 5.87676 3.73644 0
M  V30 34429 H 3263.55 6.58456 3.79921 0
M  V30 34430 N 3265.12 -1.29758 0.894457 0
M  V30 34431 C 3266.36 -1.97555 0.524536 0
M  V30 34432 C 3266.73 -1.69002 -0.911172 0
M  V30 34433 O 3267.93 -2.30209 -1.3877 0
M  V30 34434 C 3266.2 -3.48269 0.802698 0
M  V30 34435 S 3267.76 -4.3551 0.5363 0
M  V30 34436 H 3264.58 -0.683794 0.194798 0
M  V30 34437 H 3267.18 -1.57678 1.15576 0
M  V30 34438 H 3265.88 -3.66543 1.84592 0
M  V30 34439 H 3265.41 -3.93077 0.159385 0
M  V30 34440 H 3267.43 -4.92299 -0.62097 0
M  V30 34441 N 3266.6 -0.65639 -1.4328 0
M  V30 34442 C 3267.53 0.0196551 -2.33492 0
M  V30 34443 C 3268.51 0.808654 -1.49649 0
M  V30 34444 O 3269.7 0.769498 -1.78304 0
M  V30 34445 C 3266.83 0.984515 -3.33053 0
M  V30 34446 C 3265.78 0.305408 -4.26909 0
M  V30 34447 C 3265.11 1.38193 -5.16533 0
M  V30 34448 C 3266.41 -0.804172 -5.16072 0
M  V30 34449 H 3268.1 -0.733712 -2.90271 0
M  V30 34450 H 3265.65 -0.354283 -1.39574 0
M  V30 34451 H 3267.6 1.4664 -3.95063 0
M  V30 34452 H 3266.32 1.76908 -2.74538 0
M  V30 34453 H 3264.98 -0.156059 -3.66268 0
M  V30 34454 H 3264.63 2.15802 -4.54355 0
M  V30 34455 H 3264.33 0.932776 -5.80149 0
M  V30 34456 H 3265.85 1.86512 -5.81417 0
M  V30 34457 H 3267.27 -0.404312 -5.71873 0
M  V30 34458 H 3265.67 -1.17799 -5.88424 0
M  V30 34459 H 3266.74 -1.66081 -4.55571 0
M  V30 34460 N 3268.08 1.52478 -0.398513 0
M  V30 34461 C 3268.99 2.3045 0.439287 0
M  V30 34462 C 3270.01 1.3774 1.06319 0
M  V30 34463 O 3271.18 1.70812 1.06701 0
M  V30 34464 C 3268.25 3.10297 1.5465 0
M  V30 34465 C 3267.31 4.1873 0.94675 0
M  V30 34466 C 3266.54 4.9476 2.0012 0
M  V30 34467 O 3266.76 4.70977 3.21771 0
M  V30 34468 O 3265.7 5.79875 1.61335 0
M  V30 34469 H 3269.52 3.03066 -0.196171 0
M  V30 34470 H 3267.11 1.48519 -0.161987 0
M  V30 34471 H 3268.99 3.60053 2.18952 0
M  V30 34472 H 3267.67 2.40486 2.16675 0
M  V30 34473 H 3266.57 3.73148 0.266736 0
M  V30 34474 H 3267.91 4.90803 0.370578 0
M  V30 34475 N 3269.56 0.128608 1.57074 0
M  V30 34476 C 3270.52 -0.803776 2.14644 0
M  V30 34477 C 3271.52 -1.18801 1.08365 0
M  V30 34478 O 3272.71 -1.11194 1.34095 0
M  V30 34479 C 3269.84 -2.08824 2.69454 0
M  V30 34480 H 3271.04 -0.303294 2.98362 0
M  V30 34481 H 3268.59 -0.120708 1.55833 0
M  V30 34482 H 3269.32 -2.63281 1.8935 0
M  V30 34483 H 3269.11 -1.82212 3.4719 0
M  V30 34484 H 3270.6 -2.75455 3.1387 0
M  V30 34485 N 3271.04 -1.5693 -0.145178 0
M  V30 34486 C 3272.26 -1.87976 -0.876353 0
M  V30 34487 C 3272.69 -0.717826 -1.73865 0
M  V30 34488 O 3272.04 0.332519 -1.78225 0
M  V30 34489 C 3272.09 -3.17616 -1.7074 0
M  V30 34490 O 3271.2 -3.01679 -2.81183 0
M  V30 34491 H 3270.54 -0.617553 -0.243976 0
M  V30 34492 H 3273.07 -2.04151 -0.135446 0
M  V30 34493 H 3273.08 -3.49683 -2.10204 0
M  V30 34494 H 3271.75 -4.01788 -1.07422 0
M  V30 34495 H 3270.33 -2.81024 -2.45112 0
M  V30 34496 N 3272.51 0.414582 -1.52049 0
M  V30 34497 C 3273.76 1.16203 -1.6584 0
M  V30 34498 C 3274.09 1.90638 -0.385657 0
M  V30 34499 O 3273.34 1.85242 0.631182 0
M  V30 34500 C 3273.64 2.18617 -2.82739 0
M  V30 34501 C 3273.31 1.61029 -4.21165 0
M  V30 34502 C 3271.97 1.45048 -4.58819 0
M  V30 34503 C 3274.32 1.1892 -5.07452 0
M  V30 34504 C 3271.65 0.854659 -5.80442 0
M  V30 34505 C 3274 0.607575 -6.29676 0
M  V30 34506 C 3272.67 0.434851 -6.66082 0
M  V30 34507 H 3271.94 0.425219 -0.606853 0
M  V30 34508 H 3274.58 0.449976 -1.86138 0
M  V30 34509 H 3272.89 2.95947 -2.56754 0
M  V30 34510 H 3274.59 2.76313 -2.90606 0
M  V30 34511 H 3271.18 1.7445 -3.91491 0
M  V30 34512 H 3275.36 1.30078 -4.7895 0
M  V30 34513 H 3270.62 0.708803 -6.07277 0
M  V30 34514 H 3274.79 0.272866 -6.95865 0
M  V30 34515 H 3272.42 -0.0289452 -7.60194 0
M  V30 34516 N 3273.99 1.4258 0.671475 0
M  V30 34517 C 3274.94 1.46557 1.8062 0
M  V30 34518 C 3275.93 0.340961 1.65933 0
M  V30 34519 O 3277.14 0.514128 1.72501 0
M  V30 34520 H 3273.51 0.459077 0.595611 0
M  V30 34521 H 3275.49 2.42142 1.74384 0
M  V30 34522 C 3274.23 1.38807 3.18791 0
M  V30 34523 H 3273.56 2.24641 3.30721 0
M  V30 34524 H 3275 1.45652 3.98198 0
M  V30 34525 C 3273.46 0.103278 3.36742 0
M  V30 34526 O 3273.99 -0.842646 3.92762 0
M  V30 34527 N 3272.19 0.0193545 2.90594 0
M  V30 34528 H 3271.74 0.789903 2.4519 0
M  V30 34529 H 3271.7 -0.839633 3.02981 0
M  V30 34530 N 3275.47 -0.908102 1.28807 0
M  V30 34531 C 3276.7 -1.68898 1.18983 0
M  V30 34532 C 3277.11 -1.87497 -0.253301 0
M  V30 34533 O 3276.45 -1.40586 -1.18242 0
M  V30 34534 C 3276.51 -3.09867 1.82271 0
M  V30 34535 C 3276.18 -3.14532 3.3154 0
M  V30 34536 C 3277.17 -2.95306 4.27891 0
M  V30 34537 C 3274.86 -3.36866 3.72595 0
M  V30 34538 C 3276.85 -2.98333 5.63273 0
M  V30 34539 C 3274.54 -3.39525 5.08101 0
M  V30 34540 C 3275.54 -3.2028 6.03249 0
M  V30 34541 O 3275.23 -3.22711 7.36283 0
M  V30 34542 H 3274.96 -0.534566 0.413781 0
M  V30 34543 H 3277.51 -1.14461 1.70552 0
M  V30 34544 H 3275.74 -3.6587 1.25204 0
M  V30 34545 H 3277.43 -3.70005 1.66886 0
M  V30 34546 H 3278.2 -2.77872 3.97507 0
M  V30 34547 H 3274.08 -3.50889 2.98995 0
M  V30 34548 H 3277.62 -2.8323 6.37516 0
M  V30 34549 H 3273.52 -3.56488 5.38133 0
M  V30 34550 H 3274.28 -3.39035 7.44982 0
M  V30 34551 N 3276.95 -1.11147 -1.11732 0
M  V30 34552 C 3277.88 -0.78919 -2.19759 0
M  V30 34553 C 3278.86 0.241113 -1.68382 0
M  V30 34554 O 3280.04 0.105257 -1.93915 0
M  V30 34555 C 3277.17 -0.228265 -3.46549 0
M  V30 34556 C 3276.13 -1.19009 -4.11121 0
M  V30 34557 C 3275.45 -0.490021 -5.3245 0
M  V30 34558 C 3276.75 -2.53959 -4.56401 0
M  V30 34559 H 3278.45 -1.69245 -2.46975 0
M  V30 34560 H 3275.99 -0.815191 -1.18704 0
M  V30 34561 H 3277.95 0.00938501 -4.21399 0
M  V30 34562 H 3276.67 0.710274 -3.18783 0
M  V30 34563 H 3275.33 -1.41332 -3.38261 0
M  V30 34564 H 3274.98 0.453227 -5.00954 0
M  V30 34565 H 3274.68 -1.1315 -5.76603 0
M  V30 34566 H 3276.2 -0.261092 -6.10042 0
M  V30 34567 H 3277.62 -2.35742 -5.22588 0
M  V30 34568 H 3276.01 -3.1406 -5.11357 0
M  V30 34569 H 3277.08 -3.13408 -3.70004 0
M  V30 34570 N 3278.43 1.29282 -0.901326 0
M  V30 34571 C 3279.37 2.27672 -0.378706 0
M  V30 34572 C 3280.34 1.57075 0.540075 0
M  V30 34573 O 3281.53 1.85048 0.464964 0
M  V30 34574 C 3278.67 3.42931 0.38629 0
M  V30 34575 C 3277.78 4.28308 -0.563571 0
M  V30 34576 C 3276.92 5.3075 0.218637 0
M  V30 34577 C 3275.95 6.07784 -0.725643 0
M  V30 34578 N 3275.09 7.02096 0.022262 0
M  V30 34579 H 3279.93 2.71756 -1.22282 0
M  V30 34580 H 3277.47 1.33658 -0.614325 0
M  V30 34581 H 3279.43 4.08535 0.845895 0
M  V30 34582 H 3278.06 2.99872 1.19485 0
M  V30 34583 H 3277.11 3.62863 -1.1417 0
M  V30 34584 H 3278.42 4.81929 -1.28631 0
M  V30 34585 H 3277.57 6.02178 0.739368 0
M  V30 34586 H 3276.31 4.77865 0.974506 0
M  V30 34587 H 3275.32 5.35218 -1.25786 0
M  V30 34588 H 3276.54 6.62757 -1.48087 0
M  V30 34589 H 3274.49 6.51578 0.760367 0
M  V30 34590 H 3274.41 7.53282 -0.64054 0
M  V30 34591 H 3275.67 7.77742 0.523203 0
M  V30 34592 N 3279.9 0.663979 1.4293 0
M  V30 34593 C 3281.13 0.188237 2.06544 0
M  V30 34594 C 3281.55 -1.14152 1.49502 0
M  V30 34595 O 3280.91 -1.70759 0.609194 0
M  V30 34596 C 3280.96 0.122168 3.60393 0
M  V30 34597 O 3280.06 -0.912509 4.02178 0
M  V30 34598 H 3279.4 0.0998083 0.656456 0
M  V30 34599 H 3281.93 0.909941 1.83252 0
M  V30 34600 H 3281.94 -0.057585 4.07959 0
M  V30 34601 H 3280.62 1.09283 4.01285 0
M  V30 34602 H 3279.2 -0.704674 3.66181 0
M  V30 34603 N 3281.38 -1.52265 0.406593 0
M  V30 34604 C 3282.79 -1.86592 -0.0635742 0
M  V30 34605 C 3283.14 -1.32547 -1.44657 0
M  V30 34606 O 3282.27 -0.663728 -2.0597 0
M  V30 34607 C 3282.86 -3.3858 -0.122138 0
M  V30 34608 C 3281.42 -3.72555 -0.536636 0
M  V30 34609 C 3280.57 -2.75774 0.29047 0
M  V30 34610 H 3283.52 -1.45928 0.623764 0
M  V30 34611 H 3283.54 -3.6876 -0.937899 0
M  V30 34612 H 3283.05 -3.77885 0.884561 0
M  V30 34613 H 3281.15 -3.38827 -1.55007 0
M  V30 34614 H 3281.27 -4.78265 -0.282783 0
M  V30 34615 H 3279.63 -2.53501 -0.246819 0
M  V30 34616 H 3280.41 -3.17919 1.29547 0
M  V30 34617 N 3282.86 -0.136936 -1.57004 0
M  V30 34618 C 3283.81 0.823746 -2.17525 0
M  V30 34619 C 3284.8 1.26256 -1.12942 0
M  V30 34620 O 3286.01 1.23221 -1.31212 0
M  V30 34621 H 3282.38 0.283815 -0.696386 0
M  V30 34622 H 3284.35 0.289 -2.96997 0
M  V30 34623 C 3283.1 2.05688 -2.80335 0
M  V30 34624 H 3282.43 1.72819 -3.60519 0
M  V30 34625 H 3283.87 2.70872 -3.26197 0
M  V30 34626 C 3282.33 2.85834 -1.78327 0
M  V30 34627 O 3282.86 3.81836 -1.24757 0
M  V30 34628 N 3281.06 2.50172 -1.47858 0
M  V30 34629 H 3280.61 1.7217 -1.91613 0
M  V30 34630 H 3280.57 3.04091 -0.798518 0
M  V30 34631 N 3284.34 1.57005 0.136853 0
M  V30 34632 C 3285.59 1.83901 0.847743 0
M  V30 34633 C 3285.91 0.719364 1.80708 0
M  V30 34634 O 3285.17 -0.290804 1.93527 0
M  V30 34635 C 3285.47 3.17186 1.64705 0
M  V30 34636 C 3285.13 4.43127 0.833605 0
M  V30 34637 C 3283.8 4.77328 0.609222 0
M  V30 34638 C 3286.15 5.20524 0.265413 0
M  V30 34639 C 3283.48 5.8638 -0.193896 0
M  V30 34640 C 3285.83 6.30419 -0.524799 0
M  V30 34641 C 3284.49 6.63163 -0.759664 0
M  V30 34642 H 3283.76 0.672941 0.310211 0
M  V30 34643 H 3286.41 1.91179 0.110903 0
M  V30 34644 H 3284.71 3.05404 2.45429 0
M  V30 34645 H 3286.41 3.35214 2.20075 0
M  V30 34646 H 3283 4.16321 1.01857 0
M  V30 34647 H 3287.18 4.94468 0.426022 0
M  V30 34648 H 3282.44 6.10185 -0.38526 0
M  V30 34649 H 3286.61 6.89581 -0.972154 0
M  V30 34650 H 3284.24 7.47499 -1.38382 0
M  V30 34651 N 3285.82 -0.406513 1.52267 0
M  V30 34652 C 3287.04 -1.17942 1.706 0
M  V30 34653 C 3287.47 -1.83446 0.415825 0
M  V30 34654 O 3286.82 -1.70115 -0.626938 0
M  V30 34655 C 3286.87 -2.21628 2.84453 0
M  V30 34656 O 3285.98 -3.27828 2.50205 0
M  V30 34657 H 3285.32 -0.344167 0.567843 0
M  V30 34658 H 3287.85 -0.476176 1.98982 0
M  V30 34659 H 3287.86 -2.65914 3.09441 0
M  V30 34660 H 3286.53 -1.73335 3.78058 0
M  V30 34661 H 3285.11 -2.88803 2.35897 0
M  V30 34662 N 3287.29 -1.42934 -0.663904 0
M  V30 34663 C 3288.24 -1.47262 -1.77715 0
M  V30 34664 C 3289.21 -0.323416 -1.62921 0
M  V30 34665 O 3290.4 -0.529053 -1.83318 0
M  V30 34666 C 3287.54 -1.39129 -3.15812 0
M  V30 34667 C 3286.65 -2.64171 -3.41815 0
M  V30 34668 C 3285.78 -2.48103 -4.69701 0
M  V30 34669 C 3284.82 -3.68465 -4.88774 0
M  V30 34670 N 3283.96 -3.51272 -6.07908 0
M  V30 34671 H 3288.8 -2.42391 -1.7335 0
M  V30 34672 H 3286.34 -1.20331 -0.8461 0
M  V30 34673 H 3288.3 -1.3241 -3.9563 0
M  V30 34674 H 3286.93 -0.475885 -3.19273 0
M  V30 34675 H 3285.98 -2.81213 -2.56171 0
M  V30 34676 H 3287.29 -3.53609 -3.51799 0
M  V30 34677 H 3286.44 -2.39031 -5.57628 0
M  V30 34678 H 3285.18 -1.56172 -4.62019 0
M  V30 34679 H 3284.19 -3.77957 -3.99285 0
M  V30 34680 H 3285.41 -4.6139 -4.98293 0
M  V30 34681 H 3283.36 -2.62067 -6.01379 0
M  V30 34682 H 3283.28 -4.34304 -6.18802 0
M  V30 34683 H 3284.54 -3.46032 -6.98486 0
M  V30 34684 N 3288.77 0.901258 -1.29287 0
M  V30 34685 C 3289.7 2.02168 -1.16835 0
M  V30 34686 C 3290.68 1.69983 -0.0629564 0
M  V30 34687 O 3291.87 1.92684 -0.242157 0
M  V30 34688 C 3289 3.36927 -0.842465 0
M  V30 34689 C 3287.95 3.83316 -1.90401 0
M  V30 34690 C 3287.28 5.15183 -1.43147 0
M  V30 34691 C 3288.58 4.03811 -3.31261 0
M  V30 34692 H 3290.27 2.12843 -2.10566 0
M  V30 34693 H 3287.82 1.02268 -1.01377 0
M  V30 34694 H 3289.77 4.14815 -0.742072 0
M  V30 34695 H 3288.5 3.26339 0.13054 0
M  V30 34696 H 3287.15 3.07644 -1.99376 0
M  V30 34697 H 3286.8 5.01008 -0.447179 0
M  V30 34698 H 3286.5 5.47191 -2.14139 0
M  V30 34699 H 3288.03 5.95613 -1.34454 0
M  V30 34700 H 3289.44 4.72185 -3.25137 0
M  V30 34701 H 3287.84 4.47171 -4.00197 0
M  V30 34702 H 3288.91 3.08199 -3.74355 0
M  V30 34703 N 3290.25 1.11738 1.11141 0
M  V30 34704 C 3291.5 0.862907 1.8231 0
M  V30 34705 C 3291.81 -0.613294 1.85737 0
M  V30 34706 O 3293.02 -0.984124 2.53036 0
M  V30 34707 C 3291.47 1.49402 3.27425 0
M  V30 34708 C 3291.08 3.00448 3.32317 0
M  V30 34709 C 3292.83 1.31951 4.03471 0
M  V30 34710 C 3290.73 3.56529 4.71848 0
M  V30 34711 H 3289.66 0.319162 0.683119 0
M  V30 34712 H 3292.31 1.343 1.25043 0
M  V30 34713 H 3290.7 0.941595 3.84643 0
M  V30 34714 H 3291.87 3.62122 2.84964 0
M  V30 34715 H 3290.19 3.17211 2.69753 0
M  V30 34716 H 3292.78 1.7128 5.06525 0
M  V30 34717 H 3293.13 0.262412 4.15472 0
M  V30 34718 H 3293.66 1.84075 3.52649 0
M  V30 34719 H 3290.4 4.61966 4.65046 0
M  V30 34720 H 3289.92 2.99628 5.19599 0
M  V30 34721 H 3291.6 3.55154 5.40809 0
M  V30 34722 N 3291.73 -1.28802 0.90817 0
M  V30 34723 C 3292.68 -2.29436 0.382355 0
M  V30 34724 C 3293.67 -1.61124 -0.523005 0
M  V30 34725 O 3294.88 -1.75388 -0.404868 0
M  V30 34726 H 3291.25 -0.744629 0.105035 0
M  V30 34727 H 3293.22 -2.71219 1.2443 0
M  V30 34728 C 3291.97 -3.45753 -0.367414 0
M  V30 34729 H 3291.29 -3.98517 0.320027 0
M  V30 34730 H 3292.73 -4.18181 -0.700058 0
M  V30 34731 C 3291.19 -2.97911 -1.57324 0
M  V30 34732 O 3291.72 -2.99907 -2.67243 0
M  V30 34733 N 3289.93 -2.53638 -1.41831 0
M  V30 34734 H 3289.48 -2.52213 -0.524055 0
M  V30 34735 H 3289.43 -2.21987 -2.22641 0
M  V30 34736 N 3293.21 -0.67155 -1.42576 0
M  V30 34737 C 3294.46 -0.189698 -2.00806 0
M  V30 34738 C 3294.77 1.20975 -1.53702 0
M  V30 34739 O 3295.97 1.7878 -2.04328 0
M  V30 34740 C 3294.43 -0.28829 -3.58743 0
M  V30 34741 C 3294.04 -1.69159 -4.14836 0
M  V30 34742 C 3295.78 0.135016 -4.24285 0
M  V30 34743 C 3293.69 -1.74312 -5.65128 0
M  V30 34744 H 3292.62 -0.0671592 -0.751003 0
M  V30 34745 H 3295.27 -0.836259 -1.63337 0
M  V30 34746 H 3293.65 0.426106 -3.93701 0
M  V30 34747 H 3294.83 -2.43281 -3.91345 0
M  V30 34748 H 3293.14 -2.06246 -3.61734 0
M  V30 34749 H 3295.74 0.116615 -5.34573 0
M  V30 34750 H 3296.08 1.1697 -3.99529 0
M  V30 34751 H 3296.61 -0.52826 -3.94277 0
M  V30 34752 H 3293.35 -2.75752 -5.94677 0
M  V30 34753 H 3292.87 -1.04542 -5.90619 0
M  V30 34754 H 3294.55 -1.4951 -6.29489 0
M  V30 34755 N 3294.68 1.52047 -0.414663 0
M  V30 34756 C 3295.93 2.01059 0.160695 0
M  V30 34757 C 3296.25 1.30446 1.45751 0
M  V30 34758 O 3297.45 1.70304 2.11445 0
M  V30 34759 C 3295.91 3.58319 0.33693 0
M  V30 34760 C 3295.52 4.37852 -0.948114 0
M  V30 34761 C 3297.26 4.15546 0.86728 0
M  V30 34762 C 3295.17 5.86768 -0.738765 0
M  V30 34763 H 3294.1 0.751293 0.0638287 0
M  V30 34764 H 3296.75 1.75345 -0.540956 0
M  V30 34765 H 3295.13 3.80385 1.10105 0
M  V30 34766 H 3296.3 4.27544 -1.7188 0
M  V30 34767 H 3294.62 3.9197 -1.40529 0
M  V30 34768 H 3297.22 5.24488 1.04003 0
M  V30 34769 H 3297.56 3.73256 1.84351 0
M  V30 34770 H 3298.09 3.9747 0.162078 0
M  V30 34771 H 3294.83 6.33427 -1.68672 0
M  V30 34772 H 3294.35 5.998 -0.00746837 0
M  V30 34773 H 3296.03 6.45865 -0.383092 0
M  V30 34774 N 3296.16 0.145261 1.56929 0
M  V30 34775 C 3297.41 -0.506238 1.95244 0
M  V30 34776 C 3297.72 -1.66127 1.03253 0
M  V30 34777 O 3298.93 -2.37728 1.31139 0
M  V30 34778 C 3297.39 -0.951981 3.47081 0
M  V30 34779 C 3296.99 0.176025 4.47654 0
M  V30 34780 C 3298.74 -1.57337 3.94266 0
M  V30 34781 C 3296.65 -0.287889 5.90699 0
M  V30 34782 H 3295.58 -0.19289 0.72891 0
M  V30 34783 H 3298.23 0.229327 1.82061 0
M  V30 34784 H 3296.61 -1.74276 3.5559 0
M  V30 34785 H 3297.78 0.952927 4.50839 0
M  V30 34786 H 3296.1 0.705712 4.10376 0
M  V30 34787 H 3298.69 -1.93205 4.98574 0
M  V30 34788 H 3299.04 -2.46168 3.35719 0
M  V30 34789 H 3299.57 -0.847524 3.88667 0
M  V30 34790 H 3296.31 0.565004 6.5306 0
M  V30 34791 H 3295.83 -1.0307 5.90878 0
M  V30 34792 H 3297.51 -0.740473 6.42749 0
M  V30 34793 N 3297.64 -1.57075 -0.128525 0
M  V30 34794 C 3298.89 -1.85503 -0.834289 0
M  V30 34795 C 3299.24 -0.731757 -1.77941 0
M  V30 34796 O 3298.54 0.268969 -1.89703 0
M  V30 34797 C 3298.73 -3.18055 -1.63021 0
M  V30 34798 C 3298.56 -4.43169 -0.763659 0
M  V30 34799 C 3297.33 -5.03533 -0.422151 0
M  V30 34800 C 3299.53 -5.14229 -0.0855869 0
M  V30 34801 N 3297.51 -6.12204 0.456062 0
M  V30 34802 C 3298.88 -6.16562 0.652011 0
M  V30 34803 C 3300.93 -4.97899 -0.00817652 0
M  V30 34804 C 3299.64 -7.04332 1.45974 0
M  V30 34805 C 3301.66 -5.86149 0.786342 0
M  V30 34806 C 3301.03 -6.87977 1.51216 0
M  V30 34807 H 3297.12 -0.729181 -0.282522 0
M  V30 34808 H 3299.71 -1.9445 -0.0985582 0
M  V30 34809 H 3297.88 -3.1022 -2.33705 0
M  V30 34810 H 3299.61 -3.34323 -2.28057 0
M  V30 34811 H 3296.37 -4.67426 -0.762208 0
M  V30 34812 H 3296.79 -6.71168 0.886737 0
M  V30 34813 H 3301.43 -4.19142 -0.554977 0
M  V30 34814 H 3299.15 -7.82505 2.01773 0
M  V30 34815 H 3302.74 -5.7558 0.848473 0
M  V30 34816 H 3301.62 -7.55083 2.11707 0
M  V30 34817 N 3299.12 0.398432 -1.5248 0
M  V30 34818 C 3300.37 1.14438 -1.67063 0
M  V30 34819 C 3300.69 1.90218 -0.405855 0
M  V30 34820 O 3299.95 1.85901 0.611499 0
M  V30 34821 C 3300.25 2.15606 -2.85042 0
M  V30 34822 C 3299.91 1.56553 -4.2285 0
M  V30 34823 C 3298.58 1.40174 -4.60331 0
M  V30 34824 C 3300.93 1.13531 -5.08685 0
M  V30 34825 C 3298.26 0.793047 -5.81315 0
M  V30 34826 C 3300.61 0.540756 -6.30285 0
M  V30 34827 C 3299.27 0.36418 -6.66506 0
M  V30 34828 H 3298.54 0.418758 -0.611328 0
M  V30 34829 H 3301.19 0.430209 -1.86605 0
M  V30 34830 H 3299.49 2.93207 -2.59878 0
M  V30 34831 H 3301.19 2.73216 -2.9352 0
M  V30 34832 H 3297.78 1.70288 -3.93319 0
M  V30 34833 H 3301.97 1.24991 -4.80303 0
M  V30 34834 H 3297.22 0.644353 -6.07995 0
M  V30 34835 H 3301.4 0.199045 -6.96115 0
M  V30 34836 H 3299.02 -0.109572 -7.60121 0
M  V30 34837 N 3300.6 1.43284 0.656314 0
M  V30 34838 C 3301.53 1.51007 1.78098 0
M  V30 34839 C 3302.51 0.365009 1.66138 0
M  V30 34840 O 3303.69 0.581811 1.8528 0
M  V30 34841 C 3300.82 1.42967 3.16509 0
M  V30 34842 C 3299.78 2.55691 3.43229 0
M  V30 34843 C 3299.1 2.32705 4.81407 0
M  V30 34844 C 3300.4 3.97949 3.38281 0
M  V30 34845 H 3302.1 2.4514 1.71892 0
M  V30 34846 H 3299.64 1.17986 0.825554 0
M  V30 34847 H 3301.6 1.46975 3.94938 0
M  V30 34848 H 3300.32 0.453376 3.23438 0
M  V30 34849 H 3298.98 2.51031 2.67168 0
M  V30 34850 H 3298.63 1.33325 4.85009 0
M  V30 34851 H 3298.33 3.08266 5.00246 0
M  V30 34852 H 3299.85 2.38491 5.62098 0
M  V30 34853 H 3301.27 4.04113 4.06652 0
M  V30 34854 H 3299.66 4.73511 3.68656 0
M  V30 34855 H 3300.73 4.23305 2.36518 0
M  V30 34856 N 3302.08 -0.894389 1.29763 0
M  V30 34857 C 3303.01 -2.01545 1.17906 0
M  V30 34858 C 3303.99 -1.69948 0.0719701 0
M  V30 34859 O 3305.17 -1.92553 0.252372 0
M  V30 34860 C 3302.3 -3.36476 0.860321 0
M  V30 34861 C 3301.26 -3.82301 1.92431 0
M  V30 34862 C 3300.58 -5.14416 1.45877 0
M  V30 34863 C 3301.88 -4.02048 3.33398 0
M  V30 34864 H 3303.58 -2.11724 2.11692 0
M  V30 34865 H 3301.12 -1.01729 1.01918 0
M  V30 34866 H 3303.07 -4.14415 0.76406 0
M  V30 34867 H 3301.8 -3.26404 -0.113232 0
M  V30 34868 H 3300.46 -3.06582 2.01005 0
M  V30 34869 H 3300.11 -5.00764 0.473742 0
M  V30 34870 H 3299.81 -5.46048 2.17038 0
M  V30 34871 H 3301.33 -5.94891 1.37611 0
M  V30 34872 H 3302.74 -4.70454 3.27636 0
M  V30 34873 H 3301.14 -4.45043 4.02563 0
M  V30 34874 H 3302.21 -3.06209 3.75984 0
M  V30 34875 N 3303.55 -1.12326 -1.10547 0
M  V30 34876 C 3304.48 -0.812454 -2.1891 0
M  V30 34877 C 3305.46 0.223241 -1.68629 0
M  V30 34878 O 3306.65 0.0846843 -1.94015 0
M  V30 34879 C 3303.78 -0.265008 -3.46287 0
M  V30 34880 C 3302.73 -1.23363 -4.09836 0
M  V30 34881 C 3302.06 -0.546467 -5.319 0
M  V30 34882 C 3303.36 -2.58786 -4.53682 0
M  V30 34883 H 3305.05 -1.71855 -2.45166 0
M  V30 34884 H 3302.6 -0.827735 -1.17833 0
M  V30 34885 H 3304.55 -0.0353105 -4.21385 0
M  V30 34886 H 3303.28 0.676423 -3.19519 0
M  V30 34887 H 3301.94 -1.44912 -3.36743 0
M  V30 34888 H 3301.58 0.400068 -5.01406 0
M  V30 34889 H 3301.28 -1.19259 -5.7537 0
M  V30 34890 H 3302.81 -0.32578 -6.0973 0
M  V30 34891 H 3304.22 -2.41272 -5.20058 0
M  V30 34892 H 3302.62 -3.19466 -5.07998 0
M  V30 34893 H 3303.69 -3.17315 -3.66659 0
M  V30 34894 N 3305.03 1.28319 -0.914988 0
M  V30 34895 C 3306.26 1.99582 -0.564058 0
M  V30 34896 C 3306.68 1.67911 0.847792 0
M  V30 34897 O 3306.04 0.912199 1.5668 0
M  V30 34898 C 3306.09 3.52031 -0.78143 0
M  V30 34899 O 3305.19 4.12093 0.159 0
M  V30 34900 H 3304.53 0.626993 -0.218576 0
M  V30 34901 H 3307.06 1.63442 -1.23076 0
M  V30 34902 H 3307.07 4.02088 -0.692016 0
M  V30 34903 H 3305.75 3.74417 -1.81065 0
M  V30 34904 H 3304.32 3.72894 0.0207489 0
M  V30 34905 N 3306.51 0.679102 1.42218 0
M  V30 34906 C 3307.76 0.203455 2.01777 0
M  V30 34907 C 3308.09 -1.18838 1.53594 0
M  V30 34908 O 3307.36 -1.79873 0.739985 0
M  V30 34909 C 3307.65 0.242855 3.5928 0
M  V30 34910 C 3307.5 1.67046 4.17631 0
M  V30 34911 C 3308.82 -0.406547 4.38218 0
M  V30 34912 H 3305.94 0.0754045 0.733132 0
M  V30 34913 H 3308.58 0.864703 1.69183 0
M  V30 34914 H 3306.73 -0.32018 3.87178 0
M  V30 34915 H 3308.4 2.28607 4.0067 0
M  V30 34916 H 3306.64 2.20979 3.73297 0
M  V30 34917 H 3307.32 1.64968 5.26773 0
M  V30 34918 H 3309.79 0.0727809 4.16036 0
M  V30 34919 H 3308.67 -0.348361 5.47793 0
M  V30 34920 H 3308.93 -1.48479 4.16421 0
M  V30 34921 N 3307.99 -1.51825 0.42272 0
M  V30 34922 C 3309.23 -2.03864 -0.147962 0
M  V30 34923 C 3309.59 -1.30078 -1.41222 0
M  V30 34924 O 3310.79 -1.72413 -2.06221 0
M  V30 34925 C 3309.06 -3.55415 -0.376186 0
M  V30 34926 S 3310.62 -4.2921 -0.912368 0
M  V30 34927 H 3307.44 -0.709946 -0.038696 0
M  V30 34928 H 3310.04 -1.86737 0.578766 0
M  V30 34929 H 3308.75 -4.06691 0.550522 0
M  V30 34930 H 3308.28 -3.76809 -1.13041 0
M  V30 34931 H 3310.29 -4.45181 -2.19153 0
M  V30 34932 N 3309.47 -0.153581 -1.5685 0
M  V30 34933 C 3310.4 0.779562 -2.20102 0
M  V30 34934 C 3311.38 1.25223 -1.15123 0
M  V30 34935 O 3312.56 1.3086 -1.4349 0
M  V30 34936 C 3309.69 2.01623 -2.82782 0
M  V30 34937 C 3308.65 1.68009 -3.93646 0
M  V30 34938 C 3307.97 2.98993 -4.43291 0
M  V30 34939 C 3309.27 0.921684 -5.14103 0
M  V30 34940 H 3310.97 0.25238 -2.98334 0
M  V30 34941 H 3308.51 0.11995 -1.435 0
M  V30 34942 H 3310.46 2.67389 -3.25701 0
M  V30 34943 H 3309.19 2.56724 -2.01891 0
M  V30 34944 H 3307.85 1.04618 -3.51356 0
M  V30 34945 H 3307.5 3.52099 -3.59215 0
M  V30 34946 H 3307.2 2.77263 -5.18072 0
M  V30 34947 H 3308.72 3.6582 -4.88885 0
M  V30 34948 H 3310.13 1.48157 -5.53825 0
M  V30 34949 H 3308.53 0.80408 -5.94689 0
M  V30 34950 H 3309.6 -0.085361 -4.84825 0
M  V30 34951 N 3310.94 1.57141 0.120193 0
M  V30 34952 C 3312.19 1.84425 0.826554 0
M  V30 34953 C 3312.51 0.738584 1.80471 0
M  V30 34954 O 3311.78 -0.237516 1.94455 0
M  V30 34955 H 3310.36 0.680442 0.308234 0
M  V30 34956 H 3313.02 1.94602 0.107801 0
M  V30 34957 H 3312.12 2.80301 1.37251 0
M  V30 34958 N 3312.42 -0.39034 1.5269 0
M  V30 34959 C 3313.65 -1.16126 1.71841 0
M  V30 34960 C 3314.07 -1.82995 0.435258 0
M  V30 34961 O 3313.43 -1.70771 -0.60886 0
M  V30 34962 C 3313.48 -2.18598 2.86788 0
M  V30 34963 O 3312.58 -3.25156 2.53668 0
M  V30 34964 H 3311.92 -0.338125 0.571461 0
M  V30 34965 H 3314.45 -0.455045 1.99476 0
M  V30 34966 H 3314.46 -2.62617 3.12244 0
M  V30 34967 H 3313.14 -1.69315 3.79875 0
M  V30 34968 H 3311.72 -2.86285 2.38947 0
M  V30 34969 N 3313.9 -1.4363 -0.648706 0
M  V30 34970 C 3314.83 -1.5195 -1.77295 0
M  V30 34971 C 3315.81 -0.373814 -1.65942 0
M  V30 34972 O 3317 -0.591629 -1.84969 0
M  V30 34973 C 3314.13 -1.44643 -3.15746 0
M  V30 34974 C 3313.08 -2.57508 -3.41868 0
M  V30 34975 C 3312.41 -2.35254 -4.80166 0
M  V30 34976 C 3313.71 -3.99737 -3.36166 0
M  V30 34977 H 3315.4 -2.46048 -1.70589 0
M  V30 34978 H 3312.95 -1.18422 -0.819285 0
M  V30 34979 H 3314.9 -1.49067 -3.94153 0
M  V30 34980 H 3313.62 -0.470523 -3.23193 0
M  V30 34981 H 3312.28 -2.52444 -2.65833 0
M  V30 34982 H 3311.93 -1.35896 -4.84295 0
M  V30 34983 H 3311.63 -3.10914 -4.98604 0
M  V30 34984 H 3313.15 -2.41469 -5.60825 0
M  V30 34985 H 3314.57 -4.06264 -4.04503 0
M  V30 34986 H 3312.97 -4.75459 -3.6614 0
M  V30 34987 H 3314.04 -4.24553 -2.3427 0
M  V30 34988 N 3315.38 0.887495 -1.30236 0
M  V30 34989 C 3316.63 1.63379 -1.1828 0
M  V30 34990 C 3316.94 1.93837 0.262045 0
M  V30 34991 O 3318.15 2.66798 0.50308 0
M  V30 34992 C 3316.6 2.94449 -2.06949 0
M  V30 34993 C 3316.21 2.71541 -3.56328 0
M  V30 34994 C 3317.95 3.72406 -2.03749 0
M  V30 34995 C 3315.86 3.98411 -4.37061 0
M  V30 34996 H 3314.79 0.612951 -0.439098 0
M  V30 34997 H 3317.44 0.982751 -1.54965 0
M  V30 34998 H 3315.82 3.60832 -1.63144 0
M  V30 34999 H 3317 2.13674 -4.08265 0
M  V30 35000 H 3315.31 2.06962 -3.61325 0
M  V30 35001 H 3317.91 4.66493 -2.61321 0
M  V30 35002 H 3318.25 4.03602 -1.02037 0
M  V30 35003 H 3318.79 3.12882 -2.45662 0
M  V30 35004 H 3315.53 3.72376 -5.39459 0
M  V30 35005 H 3315.05 4.55792 -3.89889 0
M  V30 35006 H 3316.72 4.66454 -4.48364 0
M  V30 35007 N 3316.86 1.12911 1.0995 0
M  V30 35008 C 3318.09 0.909196 1.85519 0
M  V30 35009 C 3318.49 -0.545221 1.81174 0
M  V30 35010 O 3317.84 -1.38894 1.20226 0
M  V30 35011 C 3317.9 1.31234 3.34691 0
M  V30 35012 C 3317.56 2.77908 3.62789 0
M  V30 35013 C 3318.56 3.76084 3.58966 0
M  V30 35014 C 3316.25 3.14937 3.91306 0
M  V30 35015 C 3318.24 5.09303 3.83262 0
M  V30 35016 C 3315.93 4.48336 4.15257 0
M  V30 35017 C 3316.92 5.45328 4.11226 0
M  V30 35018 O 3316.61 6.76321 4.34564 0
M  V30 35019 H 3316.34 0.324497 0.593024 0
M  V30 35020 H 3318.9 1.50413 1.39875 0
M  V30 35021 H 3317.13 0.66064 3.81015 0
M  V30 35022 H 3318.82 1.06576 3.91658 0
M  V30 35023 H 3319.58 3.48823 3.36968 0
M  V30 35024 H 3315.46 2.40047 3.93571 0
M  V30 35025 H 3319.01 5.84998 3.80031 0
M  V30 35026 H 3314.9 4.75324 4.36735 0
M  V30 35027 H 3315.67 6.82342 4.52053 0
M  V30 35028 N 3318.33 -1.27832 0.92178 0
M  V30 35029 C 3319.56 -1.9928 0.574635 0
M  V30 35030 C 3319.98 -1.68358 -0.838875 0
M  V30 35031 O 3319.34 -0.920495 -1.56194 0
M  V30 35032 C 3319.39 -3.51612 0.800088 0
M  V30 35033 O 3318.49 -4.12172 -0.137143 0
M  V30 35034 H 3317.84 -0.625825 0.221898 0
M  V30 35035 H 3320.37 -1.62787 1.23941 0
M  V30 35036 H 3320.38 -4.01716 0.71333 0
M  V30 35037 H 3319.05 -3.73452 1.83048 0
M  V30 35038 H 3317.63 -3.729 -0.000973171 0
M  V30 35039 N 3319.81 -0.686634 -1.41856 0
M  V30 35040 C 3321.04 -0.222597 -2.05699 0
M  V30 35041 C 3321.46 1.12478 -1.51638 0
M  V30 35042 O 3320.81 1.70111 -0.660955 0
M  V30 35043 C 3320.86 -0.161881 -3.61137 0
M  V30 35044 O 3320.58 -1.45603 -4.13197 0
M  V30 35045 C 3322.09 0.324226 -4.42113 0
M  V30 35046 H 3319.31 -0.105442 -0.662664 0
M  V30 35047 H 3321.85 -0.936703 -1.81786 0
M  V30 35048 H 3320 0.502989 -3.84121 0
M  V30 35049 H 3320.42 -1.33721 -5.07168 0
M  V30 35050 H 3321.89 0.315597 -5.51097 0
M  V30 35051 H 3322.37 1.36157 -4.17562 0
M  V30 35052 H 3322.98 -0.309325 -4.24174 0
M  V30 35053 N 3321.29 1.51599 -0.430766 0
M  V30 35054 C 3322.25 2.26156 0.372279 0
M  V30 35055 C 3323.25 1.29346 0.955315 0
M  V30 35056 O 3324.44 1.53112 0.830796 0
M  V30 35057 C 3321.58 3.04834 1.52608 0
M  V30 35058 H 3322.77 2.9858 -0.281048 0
M  V30 35059 H 3320.32 1.55216 -0.183776 0
M  V30 35060 H 3321.06 2.36811 2.21565 0
M  V30 35061 H 3320.84 3.75934 1.11426 0
M  V30 35062 H 3322.33 3.61328 2.0936 0
M  V30 35063 N 3322.77 0.161897 1.56766 0
M  V30 35064 C 3323.73 -0.758066 2.16301 0
M  V30 35065 C 3324.73 -1.16476 1.10861 0
M  V30 35066 O 3325.92 -1.08325 1.36424 0
M  V30 35067 C 3323.05 -2.03062 2.73822 0
M  V30 35068 H 3324.25 -0.239939 2.98939 0
M  V30 35069 H 3321.8 -0.0876258 1.56054 0
M  V30 35070 H 3322.53 -2.59206 1.94892 0
M  V30 35071 H 3322.32 -1.74807 3.50977 0
M  V30 35072 H 3323.81 -2.68735 3.19642 0
M  V30 35073 N 3324.25 -1.57203 -0.111858 0
M  V30 35074 C 3325.18 -2.03896 -1.13793 0
M  V30 35075 C 3326.16 -0.924721 -1.42769 0
M  V30 35076 O 3327.34 -1.1949 -1.53087 0
M  V30 35077 C 3324.47 -2.4493 -2.46225 0
M  V30 35078 C 3323.43 -3.59863 -2.31696 0
M  V30 35079 C 3322.75 -3.86819 -3.69154 0
M  V30 35080 C 3324.05 -4.91341 -1.77149 0
M  V30 35081 H 3325.75 -2.89866 -0.74953 0
M  V30 35082 H 3323.29 -1.39451 -0.359101 0
M  V30 35083 H 3325.25 -2.76201 -3.18262 0
M  V30 35084 H 3323.97 -1.55938 -2.86968 0
M  V30 35085 H 3322.63 -3.28812 -1.62106 0
M  V30 35086 H 3322.28 -2.95022 -4.07396 0
M  V30 35087 H 3321.98 -4.64187 -3.60284 0
M  V30 35088 H 3323.5 -4.20549 -4.42686 0
M  V30 35089 H 3324.91 -5.21102 -2.39011 0
M  V30 35090 H 3323.31 -5.72756 -1.79081 0
M  V30 35091 H 3324.38 -4.7938 -0.729591 0
M  V30 35092 N 3325.72 0.382237 -1.52894 0
M  V30 35093 C 3326.97 1.12437 -1.67935 0
M  V30 35094 C 3327.29 1.90308 -0.425199 0
M  V30 35095 O 3326.56 1.8771 0.560524 0
M  V30 35096 H 3325.14 0.418068 -0.619054 0
M  V30 35097 H 3327.81 0.432895 -1.90032 0
M  V30 35098 H 3326.9 1.8235 -2.53288 0
M  V30 35099 N 3327.2 1.43972 0.64108 0
M  V30 35100 C 3328.45 1.46448 1.40289 0
M  V30 35101 C 3328.78 0.0929345 1.93978 0
M  V30 35102 O 3328.06 -0.888012 1.73045 0
M  V30 35103 C 3328.34 2.51678 2.57547 0
M  V30 35104 C 3328.19 3.98152 2.09272 0
M  V30 35105 C 3329.51 2.53514 3.59748 0
M  V30 35106 H 3326.63 0.533227 0.508761 0
M  V30 35107 H 3329.27 1.75593 0.725736 0
M  V30 35108 H 3327.42 2.26955 3.15315 0
M  V30 35109 H 3329.1 4.33974 1.56411 0
M  V30 35110 H 3327.34 4.10404 1.40538 0
M  V30 35111 H 3328.01 4.67414 2.93646 0
M  V30 35112 H 3330.49 2.7558 3.11761 0
M  V30 35113 H 3329.36 3.29064 4.39327 0
M  V30 35114 H 3329.62 1.57342 4.13154 0
M  V30 35115 N 3328.68 -0.880575 1.30704 0
M  V30 35116 C 3329.61 -2.00283 1.20037 0
M  V30 35117 C 3330.59 -1.69862 0.0899913 0
M  V30 35118 O 3331.78 -1.92275 0.27278 0
M  V30 35119 C 3328.91 -3.35544 0.89596 0
M  V30 35120 C 3327.86 -3.80239 1.96475 0
M  V30 35121 C 3327.19 -5.1284 1.51325 0
M  V30 35122 C 3328.49 -3.9849 3.37644 0
M  V30 35123 H 3330.18 -2.09466 2.13926 0
M  V30 35124 H 3327.73 -1.00642 1.02991 0
M  V30 35125 H 3329.68 -4.13582 0.807971 0
M  V30 35126 H 3328.4 -3.26505 -0.0786062 0
M  V30 35127 H 3327.06 -3.04433 2.04245 0
M  V30 35128 H 3326.71 -5.00233 0.526828 0
M  V30 35129 H 3326.41 -5.43715 2.22817 0
M  V30 35130 H 3327.94 -5.93398 1.43913 0
M  V30 35131 H 3329.35 -4.66953 3.32608 0
M  V30 35132 H 3327.75 -4.40748 4.07261 0
M  V30 35133 H 3328.82 -3.02204 3.7921 0
M  V30 35134 N 3330.16 -1.13492 -1.09349 0
M  V30 35135 C 3331.09 -0.756683 -2.15289 0
M  V30 35136 C 3332.07 0.257469 -1.60549 0
M  V30 35137 O 3333.25 0.148787 -1.87912 0
M  V30 35138 C 3330.38 -0.121858 -3.38481 0
M  V30 35139 C 3329.43 -1.10463 -4.11947 0
M  V30 35140 S 3330.26 -2.63746 -4.66045 0
M  V30 35141 C 3331.42 -2.01626 -5.92535 0
M  V30 35142 H 3331.65 -1.65403 -2.47041 0
M  V30 35143 H 3329.18 -0.95515 -1.21311 0
M  V30 35144 H 3331.14 0.238014 -4.09809 0
M  V30 35145 H 3329.8 0.752767 -3.04946 0
M  V30 35146 H 3328.99 -0.608283 -5.00316 0
M  V30 35147 H 3328.6 -1.40801 -3.46484 0
M  V30 35148 H 3330.89 -1.36581 -6.6359 0
M  V30 35149 H 3331.83 -2.88079 -6.46851 0
M  V30 35150 H 3332.24 -1.4675 -5.45091 0
M  V30 35151 N 3331.64 1.27341 -0.928546 0
M  V30 35152 C 3332.86 1.98973 -0.585195 0
M  V30 35153 C 3333.29 1.68801 0.829935 0
M  V30 35154 O 3332.65 0.928765 1.55704 0
M  V30 35155 C 3332.69 3.51183 -0.818724 0
M  V30 35156 O 3331.8 4.12239 0.115283 0
M  V30 35157 H 3331.14 0.62464 -0.225214 0
M  V30 35158 H 3333.67 1.62128 -1.24803 0
M  V30 35159 H 3333.68 4.01332 -0.734624 0
M  V30 35160 H 3332.35 3.72476 -1.85026 0
M  V30 35161 H 3330.93 3.72895 -0.0188026 0
M  V30 35162 N 3333.12 0.694147 1.4149 0
M  V30 35163 C 3334.06 0.0165113 2.32594 0
M  V30 35164 C 3335.06 -0.77006 1.50886 0
M  V30 35165 O 3336.26 -0.675842 1.6683 0
M  V30 35166 H 3332.64 -0.0134611 0.75188 0
M  V30 35167 H 3334.61 0.80196 2.87422 0
M  V30 35168 C 3333.36 -0.906971 3.35663 0
M  V30 35169 H 3332.68 -0.311135 3.98587 0
M  V30 35170 H 3334.12 -1.34945 4.01952 0
M  V30 35171 C 3332.58 -2.02248 2.69439 0
M  V30 35172 O 3333.11 -3.11111 2.54112 0
M  V30 35173 N 3331.32 -1.7998 2.28157 0
M  V30 35174 H 3330.86 -0.914449 2.40823 0
M  V30 35175 H 3330.82 -2.54802 1.84183 0
M  V30 35176 N 3334.59 -1.51368 0.438799 0
M  V30 35177 C 3335.52 -2.3067 -0.362427 0
M  V30 35178 C 3336.5 -1.36147 -1.01971 0
M  V30 35179 O 3337.69 -1.65067 -1.02307 0
M  V30 35180 C 3334.82 -3.14979 -1.46307 0
M  V30 35181 C 3333.77 -4.17792 -0.929198 0
M  V30 35182 C 3333.1 -4.9063 -2.1257 0
M  V30 35183 C 3334.4 -5.22287 0.03737 0
M  V30 35184 H 3336.09 -2.979 0.299363 0
M  V30 35185 H 3333.64 -1.43264 0.145415 0
M  V30 35186 H 3335.59 -3.69237 -2.03081 0
M  V30 35187 H 3334.32 -2.45573 -2.15317 0
M  V30 35188 H 3332.98 -3.64587 -0.383658 0
M  V30 35189 H 3332.62 -4.17727 -2.80203 0
M  V30 35190 H 3332.32 -5.60154 -1.77486 0
M  V30 35191 H 3333.85 -5.47713 -2.69895 0
M  V30 35192 H 3335.26 -5.71608 -0.440119 0
M  V30 35193 H 3333.66 -5.99345 0.300854 0
M  V30 35194 H 3334.73 -4.75026 0.973586 0
M  V30 35195 N 3336.07 -0.170208 -1.56678 0
M  V30 35196 C 3337.32 0.474091 -1.96461 0
M  V30 35197 C 3337.64 1.63853 -1.05722 0
M  V30 35198 O 3336.91 1.95511 -0.12335 0
M  V30 35199 H 3335.49 0.178136 -0.725449 0
M  V30 35200 H 3338.15 -0.251133 -1.93275 0
M  V30 35201 H 3337.25 0.834841 -3.00727 0
M  V30 35202 N 3337.55 1.5726 0.10352 0
M  V30 35203 C 3338.48 1.96692 1.15704 0
M  V30 35204 C 3339.46 0.838862 1.39291 0
M  V30 35205 O 3340.64 1.09842 1.5319 0
M  V30 35206 C 3337.77 2.27646 2.50789 0
M  V30 35207 C 3336.82 3.50133 2.43535 0
M  V30 35208 S 3337.65 5.02159 1.86 0
M  V30 35209 C 3338.81 5.36282 3.22727 0
M  V30 35210 H 3339.04 2.85744 0.820841 0
M  V30 35211 H 3336.57 1.51238 0.310879 0
M  V30 35212 H 3338.53 2.46156 3.28508 0
M  V30 35213 H 3337.19 1.39181 2.8158 0
M  V30 35214 H 3336.38 3.69206 3.43078 0
M  V30 35215 H 3335.99 3.31089 1.73942 0
M  V30 35216 H 3338.28 5.32411 4.18981 0
M  V30 35217 H 3339.22 6.37381 3.08466 0
M  V30 35218 H 3339.63 4.63746 3.2187 0
M  V30 35219 N 3339.03 -0.374123 1.53095 0
M  V30 35220 C 3340.44 -0.951353 1.60643 0
M  V30 35221 C 3340.79 -1.90524 0.468507 0
M  V30 35222 O 3339.91 -2.12551 -0.40631 0
M  V30 35223 C 3340.51 -1.73222 2.91169 0
M  V30 35224 C 3339.07 -2.25893 3.0108 0
M  V30 35225 C 3338.22 -1.0688 2.55875 0
M  V30 35226 H 3341.17 -0.153186 1.57959 0
M  V30 35227 H 3341.19 -2.59273 2.78492 0
M  V30 35228 H 3340.7 -1.03771 3.73969 0
M  V30 35229 H 3338.8 -2.98611 2.2285 0
M  V30 35230 H 3338.91 -2.5436 4.06002 0
M  V30 35231 H 3337.28 -1.43326 2.10547 0
M  V30 35232 H 3338.06 -0.38941 3.41084 0
M  V30 35233 N 3340.51 -1.4431 -0.633436 0
M  V30 35234 C 3341.73 -1.50671 -1.42524 0
M  V30 35235 C 3342.16 -0.131894 -1.87637 0
M  V30 35236 O 3341.51 0.878449 -1.58597 0
M  V30 35237 C 3341.56 -2.47424 -2.62324 0
M  V30 35238 O 3340.67 -1.97417 -3.62078 0
M  V30 35239 H 3340.01 -0.508872 -0.426551 0
M  V30 35240 H 3342.54 -1.89421 -0.773359 0
M  V30 35241 H 3342.55 -2.65384 -3.09896 0
M  V30 35242 H 3341.22 -3.47287 -2.28834 0
M  V30 35243 H 3339.8 -1.89213 -3.2133 0
M  V30 35244 N 3341.98 0.873632 -1.3117 0
M  V30 35245 C 3343.21 1.65684 -1.23419 0
M  V30 35246 C 3343.62 1.88102 0.203501 0
M  V30 35247 O 3342.97 1.43672 1.14473 0
M  V30 35248 C 3343.03 3.04925 -1.90423 0
M  V30 35249 C 3342.69 3.05631 -3.39762 0
M  V30 35250 C 3343.69 2.83857 -4.3557 0
M  V30 35251 C 3341.37 3.26869 -3.81395 0
M  V30 35252 C 3343.37 2.83294 -5.70984 0
M  V30 35253 C 3341.05 3.25934 -5.16924 0
M  V30 35254 C 3342.05 3.04173 -6.11529 0
M  V30 35255 O 3341.74 3.03076 -7.4458 0
M  V30 35256 H 3341.47 0.523408 -0.427809 0
M  V30 35257 H 3344.03 1.09899 -1.73526 0
M  V30 35258 H 3342.26 3.62422 -1.3486 0
M  V30 35259 H 3343.95 3.6545 -1.76638 0
M  V30 35260 H 3344.71 2.67236 -4.04735 0
M  V30 35261 H 3340.59 3.42838 -3.08193 0
M  V30 35262 H 3344.13 2.66228 -6.44801 0
M  V30 35263 H 3340.03 3.42095 -5.47395 0
M  V30 35264 H 3340.8 3.19164 -7.53709 0
M  V30 35265 N 3343.46 1.1407 1.08746 0
M  V30 35266 C 3344.7 0.917105 1.82671 0
M  V30 35267 C 3345.07 -0.546656 1.84053 0
M  V30 35268 O 3346.27 -0.888073 2.53706 0
M  V30 35269 C 3344.54 1.49733 3.24522 0
M  V30 35270 S 3346.1 1.4148 4.15366 0
M  V30 35271 H 3342.92 0.330398 0.62957 0
M  V30 35272 H 3345.52 1.45354 1.30738 0
M  V30 35273 H 3344.22 2.55588 3.21096 0
M  V30 35274 H 3343.75 0.959136 3.81529 0
M  V30 35275 H 3345.77 0.397967 4.94602 0
M  V30 35276 N 3344.94 -1.26847 0.935286 0
M  V30 35277 C 3346.17 -1.98121 0.596284 0
M  V30 35278 C 3346.58 -1.69703 -0.827422 0
M  V30 35279 O 3345.94 -0.961892 -1.55093 0
M  V30 35280 C 3345.99 -3.52034 0.821835 0
M  V30 35281 O 3345.71 -3.79461 2.18954 0
M  V30 35282 C 3347.21 -4.40555 0.492576 0
M  V30 35283 H 3344.43 -0.632062 0.225253 0
M  V30 35284 H 3346.98 -1.6151 1.25438 0
M  V30 35285 H 3345.13 -3.86828 0.210431 0
M  V30 35286 H 3345.55 -4.74017 2.24518 0
M  V30 35287 H 3347.02 -5.4753 0.701049 0
M  V30 35288 H 3347.5 -4.35457 -0.572203 0
M  V30 35289 H 3348.1 -4.11294 1.08245 0
M  V30 35290 N 3346.42 -0.701641 -1.4112 0
M  V30 35291 C 3347.67 -0.234717 -2.00732 0
M  V30 35292 C 3347.99 1.17171 -1.55872 0
M  V30 35293 O 3347.26 1.79177 -0.791997 0
M  V30 35294 H 3345.84 -0.0837875 -0.742286 0
M  V30 35295 H 3348.5 -0.904157 -1.72659 0
M  V30 35296 H 3347.6 -0.256885 -3.11041 0
M  V30 35297 N 3347.9 1.51133 -0.446821 0
M  V30 35298 C 3349.13 2.06281 0.11469 0
M  V30 35299 C 3349.53 1.31335 1.3619 0
M  V30 35300 O 3348.88 0.369014 1.79955 0
M  V30 35301 C 3348.94 3.56105 0.492905 0
M  V30 35302 C 3348.6 4.52371 -0.648834 0
M  V30 35303 C 3349.6 4.97068 -1.52378 0
M  V30 35304 C 3347.29 4.95357 -0.832264 0
M  V30 35305 C 3349.28 5.83434 -2.56677 0
M  V30 35306 C 3346.97 5.81511 -1.87851 0
M  V30 35307 C 3347.96 6.25448 -2.74415 0
M  V30 35308 O 3347.65 7.0989 -3.77242 0
M  V30 35309 H 3347.38 0.675962 0.00712611 0
M  V30 35310 H 3349.94 1.95581 -0.627487 0
M  V30 35311 H 3348.17 3.64622 1.28792 0
M  V30 35312 H 3349.86 3.93725 0.986669 0
M  V30 35313 H 3350.62 4.64546 -1.39364 0
M  V30 35314 H 3346.5 4.60694 -0.168035 0
M  V30 35315 H 3350.05 6.1765 -3.24275 0
M  V30 35316 H 3345.94 6.13447 -2.00881 0
M  V30 35317 H 3346.71 7.28089 -3.73937 0
M  V30 35318 N 3349.37 0.178515 1.56586 0
M  V30 35319 C 3350.79 -0.177562 1.58609 0
M  V30 35320 C 3350.99 -1.62304 1.19413 0
M  V30 35321 O 3350.05 -2.35567 0.909101 0
M  V30 35322 C 3351.36 0.109775 3.005 0
M  V30 35323 C 3352.91 0.0485586 3.12962 0
M  V30 35324 C 3353.38 0.308982 4.56957 0
M  V30 35325 N 3354.87 0.257011 4.62486 0
M  V30 35326 C 3355.61 0.432589 5.71766 0
M  V30 35327 N 3355.1 0.667615 6.89576 0
M  V30 35328 N 3356.9 0.367994 5.60894 0
M  V30 35329 H 3349.05 1.12196 1.80349 0
M  V30 35330 H 3351.31 0.446584 0.836222 0
M  V30 35331 H 3351.02 1.11139 3.33678 0
M  V30 35332 H 3350.89 -0.595308 3.72473 0
M  V30 35333 H 3353.28 -0.943638 2.79606 0
M  V30 35334 H 3353.36 0.786463 2.4341 0
M  V30 35335 H 3353 1.29842 4.91023 0
M  V30 35336 H 3352.93 -0.449618 5.24677 0
M  V30 35337 H 3355.42 0.0812972 3.77813 0
M  V30 35338 H 3355.74 0.790845 7.68743 0
M  V30 35339 H 3354.08 0.704315 6.91422 0
M  V30 35340 H 3357.27 0.184919 4.67735 0
M  V30 35341 H 3357.45 0.508252 6.46004 0
M  V30 35342 N 3350.85 -1.57312 -0.0951784 0
M  V30 35343 C 3351.76 -2.05381 -1.13384 0
M  V30 35344 C 3352.78 -0.978694 -1.43867 0
M  V30 35345 O 3353.95 -1.29185 -1.5451 0
M  V30 35346 C 3351.02 -2.46856 -2.43439 0
M  V30 35347 C 3350.08 -3.68561 -2.2014 0
M  V30 35348 C 3349.31 -4.08049 -3.43994 0
M  V30 35349 O 3349.54 -3.47631 -4.52227 0
M  V30 35350 O 3348.47 -5.01002 -3.33587 0
M  V30 35351 H 3352.3 -2.94151 -0.75557 0
M  V30 35352 H 3349.88 -1.46197 -0.307682 0
M  V30 35353 H 3351.76 -2.74161 -3.20022 0
M  V30 35354 H 3350.44 -1.61224 -2.80693 0
M  V30 35355 H 3349.35 -3.46373 -1.41338 0
M  V30 35356 H 3350.68 -4.54972 -1.87779 0
M  V30 35357 N 3352.33 0.365999 -1.53291 0
M  V30 35358 C 3353.58 1.1065 -1.69119 0
M  V30 35359 C 3353.9 1.89846 -0.44536 0
M  V30 35360 O 3353.17 1.88294 0.540583 0
M  V30 35361 H 3351.75 0.411479 -0.623453 0
M  V30 35362 H 3354.41 0.412715 -1.9048 0
M  V30 35363 H 3353.51 1.79654 -2.55208 0
M  V30 35364 N 3353.81 1.44644 0.625774 0
M  V30 35365 C 3355.04 1.50981 1.41025 0
M  V30 35366 C 3355.45 0.135125 1.88717 0
M  V30 35367 O 3354.79 -0.87024 1.61779 0
M  V30 35368 C 3354.85 2.41737 2.6609 0
M  V30 35369 C 3354.52 3.88809 2.40159 0
M  V30 35370 C 3355.51 4.792 2.01652 0
M  V30 35371 C 3353.2 4.33561 2.53633 0
M  V30 35372 C 3355.19 6.12344 1.76955 0
M  V30 35373 C 3352.88 5.66752 2.2855 0
M  V30 35374 C 3353.88 6.55962 1.90271 0
M  V30 35375 O 3353.56 7.86686 1.6547 0
M  V30 35376 H 3353.3 0.514272 0.438748 0
M  V30 35377 H 3355.85 1.9034 0.772001 0
M  V30 35378 H 3354.08 1.97315 3.32571 0
M  V30 35379 H 3355.77 2.38963 3.28103 0
M  V30 35380 H 3356.54 4.45895 1.90794 0
M  V30 35381 H 3352.41 3.6438 2.82398 0
M  V30 35382 H 3355.96 6.81936 1.47002 0
M  V30 35383 H 3351.86 5.99617 2.39019 0
M  V30 35384 H 3352.62 7.98536 1.79672 0
M  V30 35385 N 3355.29 -0.866663 1.31631 0
M  V30 35386 C 3356.22 -1.98999 1.22154 0
M  V30 35387 C 3357.2 -1.69757 0.108002 0
M  V30 35388 O 3358.38 -1.91975 0.293158 0
M  V30 35389 C 3355.51 -3.34575 0.931499 0
M  V30 35390 C 3354.47 -3.78134 2.00497 0
M  V30 35391 C 3353.79 -5.11206 1.56756 0
M  V30 35392 C 3355.09 -3.94886 3.41851 0
M  V30 35393 H 3356.79 -2.07186 2.16135 0
M  V30 35394 H 3354.33 -0.995444 1.04052 0
M  V30 35395 H 3356.29 -4.12701 0.851792 0
M  V30 35396 H 3355.01 -3.2657 -0.0439715 0
M  V30 35397 H 3353.67 -3.0225 2.07462 0
M  V30 35398 H 3353.32 -4.99647 0.579855 0
M  V30 35399 H 3353.02 -5.41322 2.28571 0
M  V30 35400 H 3354.54 -5.91838 1.50199 0
M  V30 35401 H 3355.95 -4.63399 3.37542 0
M  V30 35402 H 3354.35 -4.36403 4.11913 0
M  V30 35403 H 3355.42 -2.98165 3.82394 0
M  V30 35404 N 3356.77 -1.14645 -1.0814 0
M  V30 35405 C 3357.71 -0.831551 -2.17228 0
M  V30 35406 C 3358.71 0.191701 -1.68312 0
M  V30 35407 O 3359.91 0.047528 -1.79937 0
M  V30 35408 H 3356.29 -0.251202 -0.708803 0
M  V30 35409 H 3358.26 -1.75944 -2.41011 0
M  V30 35410 C 3357.01 -0.328408 -3.46146 0
M  V30 35411 H 3356.33 -1.10715 -3.84164 0
M  V30 35412 H 3357.77 -0.146643 -4.23746 0
M  V30 35413 C 3356.23 0.948537 -3.23271 0
M  V30 35414 O 3356.76 2.02174 -3.47115 0
M  V30 35415 N 3354.97 0.88486 -2.76801 0
M  V30 35416 H 3354.51 0.0113537 -2.57597 0
M  V30 35417 H 3354.47 1.7398 -2.61874 0
M  V30 35418 N 3358.24 1.26349 -0.942 0
M  V30 35419 C 3359.47 1.98341 -0.606266 0
M  V30 35420 C 3359.89 1.69672 0.811985 0
M  V30 35421 O 3359.25 0.945228 1.5471 0
M  V30 35422 C 3359.3 3.50295 -0.855926 0
M  V30 35423 O 3358.4 4.12338 0.0715526 0
M  V30 35424 H 3357.74 0.622216 -0.231826 0
M  V30 35425 H 3360.27 1.60795 -1.26516 0
M  V30 35426 H 3360.28 4.0053 -0.777149 0
M  V30 35427 H 3358.96 3.70492 -1.88967 0
M  V30 35428 H 3357.54 3.72854 -0.0583521 0
M  V30 35429 N 3359.72 0.709115 1.40746 0
M  V30 35430 C 3360.95 0.255294 2.05319 0
M  V30 35431 C 3361.36 -1.10052 1.53408 0
M  V30 35432 O 3360.72 -1.69038 0.687934 0
M  V30 35433 C 3360.77 0.219314 3.60834 0
M  V30 35434 O 3360.49 1.52158 4.10828 0
M  V30 35435 C 3361.99 -0.253849 4.42573 0
M  V30 35436 H 3359.21 0.115971 0.660902 0
M  V30 35437 H 3361.76 0.965505 1.80273 0
M  V30 35438 H 3359.91 -0.441815 3.84872 0
M  V30 35439 H 3360.33 1.41773 5.04976 0
M  V30 35440 H 3361.8 -0.227883 5.51529 0
M  V30 35441 H 3362.28 -1.29497 4.19675 0
M  V30 35442 H 3362.88 0.376768 4.23628 0
M  V30 35443 N 3361.2 -1.50894 0.454829 0
M  V30 35444 C 3362.15 -2.29767 -0.361934 0
M  V30 35445 C 3363.14 -1.36355 -1.00517 0
M  V30 35446 O 3364.35 -1.5362 -0.938132 0
M  V30 35447 H 3360.72 -0.739683 -0.135546 0
M  V30 35448 H 3362.69 -2.96637 0.323905 0
M  V30 35449 C 3361.44 -3.16446 -1.44073 0
M  V30 35450 H 3360.77 -3.88223 -0.955144 0
M  V30 35451 H 3362.21 -3.74659 -1.98512 0
M  V30 35452 C 3360.66 -2.32965 -2.4337 0
M  V30 35453 O 3361.19 -2.0014 -3.48292 0
M  V30 35454 N 3359.4 -1.95853 -2.14686 0
M  V30 35455 H 3358.95 -2.22747 -1.29388 0
M  V30 35456 H 3358.91 -1.40297 -2.81361 0
M  V30 35457 N 3362.68 -0.186817 -1.56489 0
M  V30 35458 C 3363.92 0.454796 -1.97635 0
M  V30 35459 C 3364.26 1.61841 -1.07337 0
M  V30 35460 O 3363.53 1.94107 -0.123646 0
M  V30 35461 C 3363.81 0.922901 -3.48073 0
M  V30 35462 C 3363.67 -0.241956 -4.49149 0
M  V30 35463 C 3364.99 1.79127 -4.01997 0
M  V30 35464 H 3362.11 0.163842 -0.718557 0
M  V30 35465 H 3364.75 -0.276073 -1.87984 0
M  V30 35466 H 3362.9 1.54568 -3.56428 0
M  V30 35467 H 3364.57 -0.879439 -4.52839 0
M  V30 35468 H 3362.81 -0.895039 -4.24466 0
M  V30 35469 H 3363.48 0.127954 -5.51852 0
M  V30 35470 H 3365.96 1.26611 -3.9637 0
M  V30 35471 H 3364.84 2.08778 -5.07645 0
M  V30 35472 H 3365.1 2.74254 -3.46752 0
M  V30 35473 N 3364.16 1.57361 0.0868344 0
M  V30 35474 C 3365.38 1.90718 0.802134 0
M  V30 35475 C 3365.8 0.781334 1.71874 0
M  V30 35476 O 3365.16 -0.246223 1.80831 0
M  V30 35477 C 3365.21 3.23742 1.60852 0
M  V30 35478 O 3364.93 4.31996 0.728775 0
M  V30 35479 C 3366.43 3.71016 2.42615 0
M  V30 35480 H 3363.65 0.630749 0.228903 0
M  V30 35481 H 3366.19 2.04407 0.0615981 0
M  V30 35482 H 3364.35 3.11626 2.30148 0
M  V30 35483 H 3364.76 5.08437 1.28811 0
M  V30 35484 H 3366.24 4.66766 2.94675 0
M  V30 35485 H 3366.71 2.9927 3.21456 0
M  V30 35486 H 3367.32 3.86027 1.78503 0
M  V30 35487 N 3365.63 -0.357865 1.53483 0
M  V30 35488 C 3366.88 -1.09703 1.69257 0
M  V30 35489 C 3367.2 -1.90236 0.454921 0
M  V30 35490 O 3368.4 -2.6698 0.493347 0
M  V30 35491 C 3366.86 -1.99956 2.99242 0
M  V30 35492 C 3366.47 -1.24698 4.30296 0
M  V30 35493 C 3368.21 -2.73818 3.24383 0
M  V30 35494 C 3366.12 -2.13898 5.51364 0
M  V30 35495 H 3365.05 -0.413254 0.630664 0
M  V30 35496 H 3367.7 -0.357487 1.79984 0
M  V30 35497 H 3366.08 -2.77672 2.82337 0
M  V30 35498 H 3367.25 -0.519915 4.57858 0
M  V30 35499 H 3365.57 -0.626664 4.11657 0
M  V30 35500 H 3368.17 -3.40797 4.12021 0
M  V30 35501 H 3368.51 -3.39608 2.40775 0
M  V30 35502 H 3369.04 -2.03181 3.41998 0
M  V30 35503 H 3365.78 -1.52673 6.37473 0
M  V30 35504 H 3365.3 -2.84433 5.2807 0
M  V30 35505 H 3366.98 -2.7328 5.86453 0
M  V30 35506 N 3367.11 -1.44974 -0.618094 0
M  V30 35507 C 3368.07 -1.52468 -1.71132 0
M  V30 35508 C 3369.07 -0.405273 -1.55609 0
M  V30 35509 O 3370.26 -0.668379 -1.60867 0
M  V30 35510 C 3367.4 -1.41114 -3.10322 0
M  V30 35511 H 3368.59 -2.49862 -1.65858 0
M  V30 35512 H 3366.14 -1.32259 -0.832908 0
M  V30 35513 H 3366.88 -0.44863 -3.21182 0
M  V30 35514 H 3366.66 -2.22296 -3.22997 0
M  V30 35515 H 3368.15 -1.49367 -3.89973 0
M  V30 35516 N 3368.59 0.85967 -1.32089 0
M  V30 35517 C 3369.82 1.64605 -1.25351 0
M  V30 35518 C 3370.23 1.87946 0.179392 0
M  V30 35519 O 3369.59 1.44491 1.11484 0
M  V30 35520 C 3369.64 3.00819 -2.00475 0
M  V30 35521 O 3369.36 2.78514 -3.38174 0
M  V30 35522 C 3370.86 3.95264 -2.00701 0
M  V30 35523 H 3368.08 0.512846 -0.432701 0
M  V30 35524 H 3370.63 1.0723 -1.74132 0
M  V30 35525 H 3368.78 3.54853 -1.55429 0
M  V30 35526 H 3369.2 3.65107 -3.7656 0
M  V30 35527 H 3370.67 4.88124 -2.57757 0
M  V30 35528 H 3371.15 4.2785 -0.992036 0
M  V30 35529 H 3371.75 3.47168 -2.45672 0
M  V30 35530 N 3370.07 1.15217 1.0753 0
M  V30 35531 C 3371.3 0.948343 1.83548 0
M  V30 35532 C 3371.71 -0.506669 1.8229 0
M  V30 35533 O 3371.05 -1.36312 1.23145 0
M  V30 35534 C 3371.11 1.38304 3.31832 0
M  V30 35535 C 3370.77 2.85541 3.56813 0
M  V30 35536 C 3371.77 3.83614 3.50908 0
M  V30 35537 C 3369.46 3.23166 3.84537 0
M  V30 35538 C 3371.45 5.17318 3.72372 0
M  V30 35539 C 3369.14 4.57043 4.05654 0
M  V30 35540 C 3370.14 5.53928 3.99566 0
M  V30 35541 O 3369.82 6.85386 4.2012 0
M  V30 35542 H 3369.56 0.337003 0.586008 0
M  V30 35543 H 3372.11 1.53346 1.36653 0
M  V30 35544 H 3370.34 0.741311 3.79528 0
M  V30 35545 H 3372.03 1.1486 3.8931 0
M  V30 35546 H 3372.79 3.55892 3.29493 0
M  V30 35547 H 3368.67 2.48342 3.88391 0
M  V30 35548 H 3372.22 5.92927 3.67537 0
M  V30 35549 H 3368.11 4.84481 4.26554 0
M  V30 35550 H 3368.88 6.91777 4.37478 0
M  V30 35551 N 3371.55 -1.25848 0.948687 0
M  V30 35552 C 3372.79 -1.95152 0.607854 0
M  V30 35553 C 3373.15 -1.72714 -0.838673 0
M  V30 35554 O 3374.35 -2.35888 -1.28881 0
M  V30 35555 C 3372.62 -3.44551 0.949688 0
M  V30 35556 S 3374.18 -4.32844 0.720532 0
M  V30 35557 H 3371 -0.674917 0.223624 0
M  V30 35558 H 3373.6 -1.52634 1.2216 0
M  V30 35559 H 3372.31 -3.58384 1.99973 0
M  V30 35560 H 3371.84 -3.92047 0.325959 0
M  V30 35561 H 3373.85 -4.9449 -0.41161 0
M  V30 35562 N 3373.02 -0.716569 -1.40368 0
M  V30 35563 C 3374.25 -0.266179 -2.05181 0
M  V30 35564 C 3374.67 1.09237 -1.5399 0
M  V30 35565 O 3374.02 1.6867 -0.696889 0
M  V30 35566 C 3374.08 -0.238447 -3.60713 0
M  V30 35567 O 3373.8 -1.54335 -4.10015 0
M  V30 35568 C 3375.3 0.230375 -4.42701 0
M  V30 35569 H 3372.52 -0.119474 -0.660278 0
M  V30 35570 H 3375.06 -0.975052 -1.79758 0
M  V30 35571 H 3373.22 0.421398 -3.85101 0
M  V30 35572 H 3373.63 -1.44449 -5.04217 0
M  V30 35573 H 3375.1 0.198631 -5.51643 0
M  V30 35574 H 3375.58 1.27269 -4.20356 0
M  V30 35575 H 3376.19 -0.399229 -4.23422 0
M  V30 35576 N 3374.5 1.50651 -0.462825 0
M  V30 35577 C 3375.75 2.01877 0.0948213 0
M  V30 35578 C 3376.07 1.34744 1.40958 0
M  V30 35579 O 3375.34 0.490093 1.89671 0
M  V30 35580 H 3373.92 0.746031 0.0380322 0
M  V30 35581 H 3376.58 1.85063 -0.61136 0
M  V30 35582 H 3375.68 3.11078 0.252323 0
M  V30 35583 N 3375.98 0.195113 1.56388 0
M  V30 35584 C 3377.21 -0.452363 2.02407 0
M  V30 35585 C 3377.63 -1.544 1.07435 0
M  V30 35586 O 3376.99 -1.81208 0.0578564 0
M  V30 35587 C 3377.04 -0.985717 3.46866 0
M  V30 35588 O 3376.14 -2.09861 3.5501 0
M  V30 35589 H 3375.48 -0.105708 0.655532 0
M  V30 35590 H 3378.01 0.305995 2.02299 0
M  V30 35591 H 3378.02 -1.30231 3.86657 0
M  V30 35592 H 3376.7 -0.186589 4.15481 0
M  V30 35593 H 3375.27 -1.79065 3.27093 0
M  V30 35594 N 3377.46 -1.57404 -0.0784879 0
M  V30 35595 C 3378.71 -1.86104 -0.777689 0
M  V30 35596 C 3379.02 -0.786802 -1.79078 0
M  V30 35597 O 3380.23 -0.961438 -2.53907 0
M  V30 35598 C 3378.68 -3.30097 -1.43401 0
M  V30 35599 C 3378.29 -4.45634 -0.459834 0
M  V30 35600 C 3380.03 -3.68004 -2.11597 0
M  V30 35601 C 3377.94 -5.80665 -1.12169 0
M  V30 35602 H 3376.87 -0.694238 -0.294193 0
M  V30 35603 H 3379.52 -1.83474 -0.030868 0
M  V30 35604 H 3377.9 -3.27319 -2.22886 0
M  V30 35605 H 3379.08 -4.59791 0.304723 0
M  V30 35606 H 3377.39 -4.16235 0.117315 0
M  V30 35607 H 3379.99 -4.6618 -2.61878 0
M  V30 35608 H 3380.33 -2.97465 -2.91239 0
M  V30 35609 H 3380.87 -3.72743 -1.38951 0
M  V30 35610 H 3377.61 -6.54479 -0.365727 0
M  V30 35611 H 3377.13 -5.70321 -1.85727 0
M  V30 35612 H 3378.8 -6.2578 -1.64344 0
M  V30 35613 N 3378.94 0.34972 -1.53671 0
M  V30 35614 C 3380.35 0.925676 -1.62136 0
M  V30 35615 C 3380.7 1.89755 -0.498759 0
M  V30 35616 O 3379.82 2.13171 0.372443 0
M  V30 35617 C 3380.42 1.68568 -2.93888 0
M  V30 35618 C 3378.98 2.21074 -3.04636 0
M  V30 35619 C 3378.12 1.02796 -2.57543 0
M  V30 35620 H 3381.08 0.128037 -1.58183 0
M  V30 35621 H 3381.1 2.5481 -2.82581 0
M  V30 35622 H 3380.61 0.978087 -3.75573 0
M  V30 35623 H 3378.71 2.95028 -2.27572 0
M  V30 35624 H 3378.82 2.47868 -4.09998 0
M  V30 35625 H 3377.19 1.39958 -2.128 0
M  V30 35626 H 3377.97 0.335097 -3.41661 0
M  V30 35627 N 3380.41 1.45299 0.610397 0
M  V30 35628 C 3381.65 1.50707 1.38082 0
M  V30 35629 C 3382.02 0.14403 1.91459 0
M  V30 35630 O 3383.22 0.0727993 2.68701 0
M  V30 35631 C 3381.49 2.55407 2.50004 0
M  V30 35632 S 3383.05 2.80018 3.37839 0
M  V30 35633 H 3379.87 0.532791 0.470802 0
M  V30 35634 H 3382.47 1.82361 0.704606 0
M  V30 35635 H 3381.17 3.53115 2.09136 0
M  V30 35636 H 3380.7 2.25394 3.2243 0
M  V30 35637 H 3382.72 2.13184 4.4807 0
M  V30 35638 N 3381.89 -0.852653 1.32543 0
M  V30 35639 C 3383.12 -1.6446 1.26363 0
M  V30 35640 C 3383.54 -1.87375 -0.165047 0
M  V30 35641 O 3382.9 -1.42796 -1.1171 0
M  V30 35642 C 3382.95 -2.97994 2.03057 0
M  V30 35643 O 3382.05 -3.88635 1.37974 0
M  V30 35644 H 3381.39 -0.50132 0.435402 0
M  V30 35645 H 3383.92 -1.06183 1.7489 0
M  V30 35646 H 3383.93 -3.478 2.13306 0
M  V30 35647 H 3382.61 -2.80637 3.06946 0
M  V30 35648 H 3381.19 -3.47103 1.36286 0
M  V30 35649 N 3383.37 -1.15786 -1.06918 0
M  V30 35650 C 3384.62 -0.936846 -1.79864 0
M  V30 35651 C 3384.95 0.534444 -1.86701 0
M  V30 35652 O 3384.22 1.39634 -1.35398 0
M  V30 35653 C 3384.51 -1.55722 -3.24688 0
M  V30 35654 C 3384.36 -3.09942 -3.2597 0
M  V30 35655 C 3385.68 -1.24666 -4.22074 0
M  V30 35656 H 3382.8 -0.341768 -0.652965 0
M  V30 35657 H 3385.44 -1.43019 -1.25083 0
M  V30 35658 H 3383.59 -1.1377 -3.71468 0
M  V30 35659 H 3385.26 -3.60832 -2.87399 0
M  V30 35660 H 3383.51 -3.43602 -2.64802 0
M  V30 35661 H 3384.18 -3.48465 -4.28108 0
M  V30 35662 H 3386.65 -1.60963 -3.83706 0
M  V30 35663 H 3385.53 -1.70684 -5.21688 0
M  V30 35664 H 3385.79 -0.164419 -4.41794 0
M  V30 35665 N 3384.85 1.25343 -0.955348 0
M  V30 35666 C 3386.09 1.94827 -0.618195 0
M  V30 35667 C 3386.45 1.73157 0.829501 0
M  V30 35668 O 3387.65 2.36568 1.27628 0
M  V30 35669 C 3385.92 3.44043 -0.967947 0
M  V30 35670 S 3387.48 4.32456 -0.743477 0
M  V30 35671 H 3384.3 0.673722 -0.227201 0
M  V30 35672 H 3386.9 1.51984 -1.22968 0
M  V30 35673 H 3385.61 3.57319 -2.0187 0
M  V30 35674 H 3385.14 3.91869 -0.346746 0
M  V30 35675 H 3387.15 4.94701 0.38538 0
M  V30 35676 N 3386.33 0.724003 1.39986 0
M  V30 35677 C 3387.26 0.0917692 2.3332 0
M  V30 35678 C 3388.24 -0.736334 1.53337 0
M  V30 35679 O 3389.42 -0.68355 1.81772 0
M  V30 35680 C 3386.55 -0.82449 3.37371 0
M  V30 35681 C 3385.51 -0.101376 4.2788 0
M  V30 35682 C 3384.83 -1.13392 5.22538 0
M  V30 35683 C 3386.13 1.04948 5.11648 0
M  V30 35684 H 3387.83 0.871368 2.86439 0
M  V30 35685 H 3385.37 0.420472 1.37724 0
M  V30 35686 H 3387.33 -1.27624 4.01609 0
M  V30 35687 H 3386.05 -1.63608 2.82666 0
M  V30 35688 H 3384.71 0.330633 3.65106 0
M  V30 35689 H 3384.36 -1.93878 4.64134 0
M  V30 35690 H 3384.06 -0.654917 5.83939 0
M  V30 35691 H 3385.58 -1.58559 5.89654 0
M  V30 35692 H 3387 0.6767 5.69292 0
M  V30 35693 H 3385.39 1.4574 5.82134 0
M  V30 35694 H 3386.46 1.87628 4.47128 0
M  V30 35695 N 3387.81 -1.50403 0.470808 0
M  V30 35696 C 3389.03 -2.07229 -0.0842475 0
M  V30 35697 C 3389.46 -1.33241 -1.32772 0
M  V30 35698 O 3388.81 -0.380002 -1.77273 0
M  V30 35699 C 3388.86 -3.58883 -0.351502 0
M  V30 35700 O 3387.97 -3.86738 -1.43204 0
M  V30 35701 H 3387.31 -0.663875 0.0128596 0
M  V30 35702 H 3389.84 -1.93602 0.661769 0
M  V30 35703 H 3389.85 -4.03681 -0.59208 0
M  V30 35704 H 3388.52 -4.12151 0.557157 0
M  V30 35705 H 3387.1 -3.53778 -1.17879 0
M  V30 35706 N 3389.28 -0.203404 -1.56282 0
M  V30 35707 C 3390.53 0.432312 -1.97422 0
M  V30 35708 C 3390.85 1.61574 -1.09173 0
M  V30 35709 O 3390.12 1.95206 -0.164793 0
M  V30 35710 H 3388.7 0.162708 -0.729065 0
M  V30 35711 H 3391.36 -0.292073 -1.92699 0
M  V30 35712 H 3390.46 0.770864 -3.0243 0
M  V30 35713 N 3390.76 1.57444 0.0701393 0
M  V30 35714 C 3391.69 2.06841 1.08347 0
M  V30 35715 C 3392.67 0.962249 1.40267 0
M  V30 35716 O 3393.86 1.23507 1.49865 0
M  V30 35717 C 3390.99 2.51372 2.39645 0
M  V30 35718 C 3389.94 3.65879 2.22073 0
M  V30 35719 C 3389.27 3.96471 3.58769 0
M  V30 35720 C 3390.57 4.95865 1.6406 0
M  V30 35721 H 3392.26 2.91752 0.672414 0
M  V30 35722 H 3389.81 1.40354 0.322002 0
M  V30 35723 H 3391.76 2.84542 3.10828 0
M  V30 35724 H 3390.48 1.63492 2.82733 0
M  V30 35725 H 3389.14 3.32994 1.53331 0
M  V30 35726 H 3388.79 3.05719 3.9943 0
M  V30 35727 H 3388.49 4.73576 3.4785 0
M  V30 35728 H 3390.02 4.32139 4.3138 0
M  V30 35729 H 3391.43 5.27255 2.25111 0
M  V30 35730 H 3389.83 5.77303 1.63833 0
M  V30 35731 H 3390.9 4.81146 0.602235 0
M  V30 35732 N 3392.24 -0.341566 1.53854 0
M  V30 35733 C 3393.52 -1.09872 1.61825 0
M  V30 35734 C 3393.9 -2.06448 0.440747 0
M  V30 35735 O 3393.24 -2.21359 -0.566794 0
M  V30 35736 C 3393.45 -1.81662 2.97993 0
M  V30 35737 C 3394.8 -2.35335 3.53416 0
M  V30 35738 O 3395.83 -1.91756 3.0018 0
M  V30 35739 O 3394.69 -3.15068 4.46536 0
M  V30 35740 H 3391.78 -0.505389 0.654608 0
M  V30 35741 H 3394.33 -0.342899 1.662 0
M  V30 35742 H 3393.1 -1.11317 3.75132 0
M  V30 35743 H 3392.72 -2.64098 2.97217 0
M  V30 35744 N 3393.72 -1.45621 -0.602683 0
M  V30 35745 C 3394.94 -1.5366 -1.39296 0
M  V30 35746 C 3395.37 -0.171665 -1.87315 0
M  V30 35747 O 3394.73 0.844611 -1.60424 0
M  V30 35748 C 3394.77 -2.52933 -2.57017 0
M  V30 35749 O 3393.88 -2.05053 -3.57809 0
M  V30 35750 H 3393.22 -0.517805 -0.415661 0
M  V30 35751 H 3395.75 -1.91019 -0.733006 0
M  V30 35752 H 3395.76 -2.71897 -3.04197 0
M  V30 35753 H 3394.43 -3.52062 -2.21416 0
M  V30 35754 H 3393.01 -1.95987 -3.17244 0
M  V30 35755 N 3395.2 0.845612 -1.32993 0
M  V30 35756 C 3396.13 1.9703 -1.25305 0
M  V30 35757 C 3397.11 1.69563 -0.134996 0
M  V30 35758 O 3398.29 1.91484 -0.323663 0
M  V30 35759 C 3395.42 3.33051 -0.984609 0
M  V30 35760 C 3394.38 3.74896 -2.06487 0
M  V30 35761 C 3393.7 5.08648 -1.64869 0
M  V30 35762 C 3395 3.89397 -3.4809 0
M  V30 35763 H 3396.7 2.03721 -2.19404 0
M  V30 35764 H 3394.24 0.978765 -1.05623 0
M  V30 35765 H 3396.19 4.11294 -0.917341 0
M  V30 35766 H 3394.92 3.26599 -0.00798856 0
M  V30 35767 H 3393.58 2.98911 -2.12245 0
M  V30 35768 H 3393.23 4.98661 -0.659271 0
M  V30 35769 H 3392.93 5.37617 -2.37154 0
M  V30 35770 H 3394.45 5.89374 -1.59595 0
M  V30 35771 H 3395.86 4.5797 -3.44871 0
M  V30 35772 H 3394.26 4.29795 -4.18803 0
M  V30 35773 H 3395.33 2.92044 -3.87089 0
M  V30 35774 N 3396.67 1.16351 1.06302 0
M  V30 35775 C 3397.95 0.855197 1.75914 0
M  V30 35776 C 3398.33 -0.646989 2.00941 0
M  V30 35777 O 3397.68 -1.59476 1.63645 0
M  V30 35778 C 3397.89 1.67779 3.06025 0
M  V30 35779 C 3399.24 1.89072 3.8018 0
M  V30 35780 O 3400.26 1.64644 3.15865 0
M  V30 35781 O 3399.12 2.30054 4.95719 0
M  V30 35782 H 3396.21 0.315565 0.764427 0
M  V30 35783 H 3398.76 1.26987 1.12571 0
M  V30 35784 H 3397.53 2.69717 2.83493 0
M  V30 35785 H 3397.15 1.26016 3.77102 0
M  V30 35786 N 3398.15 -1.24835 0.961982 0
M  V30 35787 C 3399.38 -1.96812 0.638174 0
M  V30 35788 C 3399.79 -1.7142 -0.791239 0
M  V30 35789 O 3399.15 -0.994573 -1.53018 0
M  V30 35790 C 3399.2 -3.50212 0.896322 0
M  V30 35791 O 3398.92 -3.74731 2.26954 0
M  V30 35792 C 3400.42 -4.39411 0.585913 0
M  V30 35793 H 3397.64 -0.627142 0.238609 0
M  V30 35794 H 3400.19 -1.58813 1.28836 0
M  V30 35795 H 3398.34 -3.86295 0.292436 0
M  V30 35796 H 3398.76 -4.69148 2.34522 0
M  V30 35797 H 3400.23 -5.4592 0.817031 0
M  V30 35798 H 3400.71 -4.36572 -0.479708 0
M  V30 35799 H 3401.31 -4.08906 1.16945 0
M  V30 35800 N 3399.63 -0.731417 -1.396 0
M  V30 35801 C 3400.86 -0.287508 -2.0459 0
M  V30 35802 C 3401.27 1.08136 -1.55252 0
M  V30 35803 O 3400.61 1.69384 -0.710979 0
M  V30 35804 C 3400.67 -0.207011 -3.58903 0
M  V30 35805 C 3400.34 -1.51376 -4.31201 0
M  V30 35806 C 3401.33 -2.45877 -4.58083 0
M  V30 35807 C 3399.02 -1.77706 -4.69815 0
M  V30 35808 C 3401.01 -3.64945 -5.22584 0
M  V30 35809 C 3398.7 -2.97052 -5.34044 0
M  V30 35810 C 3399.7 -3.90493 -5.60361 0
M  V30 35811 O 3399.39 -5.07743 -6.23259 0
M  V30 35812 H 3399.12 -0.124092 -0.664513 0
M  V30 35813 H 3401.67 -0.994846 -1.797 0
M  V30 35814 H 3399.9 0.556399 -3.82676 0
M  V30 35815 H 3401.59 0.204426 -4.05385 0
M  V30 35816 H 3402.36 -2.26804 -4.28702 0
M  V30 35817 H 3398.24 -1.05822 -4.4869 0
M  V30 35818 H 3401.78 -4.37894 -5.43042 0
M  V30 35819 H 3397.68 -3.16028 -5.62847 0
M  V30 35820 H 3398.44 -5.0803 -6.41754 0
M  V30 35821 N 3401.11 1.50152 -0.478778 0
M  V30 35822 C 3402.52 1.86683 -0.0255235 0
M  V30 35823 C 3402.87 1.39298 1.38169 0
M  V30 35824 O 3402 0.761243 2.02569 0
M  V30 35825 C 3402.59 3.38777 -0.0395414 0
M  V30 35826 C 3401.15 3.74691 0.358274 0
M  V30 35827 C 3400.3 2.74075 -0.421715 0
M  V30 35828 H 3403.25 1.42785 -0.692678 0
M  V30 35829 H 3403.27 3.72815 0.760891 0
M  V30 35830 H 3402.78 3.73234 -1.06385 0
M  V30 35831 H 3400.88 3.45837 1.38665 0
M  V30 35832 H 3400.99 4.79069 0.0542747 0
M  V30 35833 H 3399.36 2.5439 0.125589 0
M  V30 35834 H 3400.14 3.11376 -1.44568 0
M  V30 35835 N 3402.59 0.211689 1.56172 0
M  V30 35836 C 3403.81 -0.43087 2.02875 0
M  V30 35837 C 3404.24 -1.53252 1.09067 0
M  V30 35838 O 3403.59 -1.81136 0.0770727 0
M  V30 35839 C 3403.64 -0.948872 3.47892 0
M  V30 35840 O 3402.75 -2.06083 3.57216 0
M  V30 35841 H 3402.09 -0.0987492 0.656616 0
M  V30 35842 H 3404.62 0.327435 2.01963 0
M  V30 35843 H 3404.63 -1.26123 3.88017 0
M  V30 35844 H 3403.3 -0.142511 4.15656 0
M  V30 35845 H 3401.88 -1.75586 3.28974 0
M  V30 35846 N 3404.06 -1.57479 -0.0617887 0
M  V30 35847 C 3404.99 -2.07413 -1.07248 0
M  V30 35848 C 3405.98 -0.969674 -1.39755 0
M  V30 35849 O 3407.16 -1.243 -1.49208 0
M  V30 35850 C 3404.29 -2.52639 -2.38308 0
M  V30 35851 C 3403.24 -3.67052 -2.2013 0
M  V30 35852 C 3402.57 -3.98368 -3.56661 0
M  V30 35853 C 3403.87 -4.96728 -1.61428 0
M  V30 35854 H 3405.56 -2.92104 -0.656932 0
M  V30 35855 H 3403.11 -1.40522 -0.314554 0
M  V30 35856 H 3405.06 -2.86186 -3.09314 0
M  V30 35857 H 3403.79 -1.64989 -2.81862 0
M  V30 35858 H 3402.45 -3.33803 -1.51563 0
M  V30 35859 H 3402.09 -3.07833 -3.97804 0
M  V30 35860 H 3401.79 -4.75414 -3.45334 0
M  V30 35861 H 3403.32 -4.3442 -4.29082 0
M  V30 35862 H 3404.73 -5.28442 -2.22311 0
M  V30 35863 H 3403.13 -5.78164 -1.60769 0
M  V30 35864 H 3404.2 -4.81458 -0.57671 0
M  V30 35865 N 3405.54 0.333401 -1.54033 0
M  V30 35866 C 3406.45 1.4331 -1.8574 0
M  V30 35867 C 3407.47 1.57081 -0.748426 0
M  V30 35868 O 3408.64 1.72365 -1.04174 0
M  V30 35869 C 3405.71 2.78162 -2.06947 0
M  V30 35870 C 3404.77 2.73649 -3.30779 0
M  V30 35871 C 3404 4.02069 -3.50964 0
M  V30 35872 O 3404.23 4.9985 -2.74783 0
M  V30 35873 O 3403.16 4.05925 -4.44419 0
M  V30 35874 H 3406.99 1.19429 -2.79232 0
M  V30 35875 H 3404.57 0.526521 -1.39815 0
M  V30 35876 H 3406.45 3.58007 -2.22282 0
M  V30 35877 H 3405.13 3.01954 -1.16643 0
M  V30 35878 H 3404.04 1.9239 -3.20838 0
M  V30 35879 H 3405.37 2.54812 -4.21108 0
M  V30 35880 N 3407.02 1.45939 0.594952 0
M  V30 35881 C 3408.25 1.54162 1.37991 0
M  V30 35882 C 3408.66 0.178513 1.87954 0
M  V30 35883 O 3408.02 -0.822133 1.62933 0
M  V30 35884 C 3408.07 2.53642 2.57581 0
M  V30 35885 O 3407.79 3.84657 2.09692 0
M  V30 35886 C 3409.29 2.71687 3.50287 0
M  V30 35887 H 3406.51 0.521708 0.421974 0
M  V30 35888 H 3409.06 1.91239 0.724425 0
M  V30 35889 H 3407.21 2.19603 3.19145 0
M  V30 35890 H 3407.63 4.38695 2.87484 0
M  V30 35891 H 3409.1 3.45242 4.30711 0
M  V30 35892 H 3409.58 1.78163 4.01441 0
M  V30 35893 H 3410.18 3.06773 2.94568 0
M  V30 35894 N 3408.5 -0.838547 1.3344 0
M  V30 35895 C 3409.75 -1.58877 1.24262 0
M  V30 35896 C 3410.06 -1.94676 -0.189923 0
M  V30 35897 O 3411.27 -2.68482 -0.403713 0
M  V30 35898 C 3409.72 -2.86565 2.17735 0
M  V30 35899 C 3409.33 -2.58129 3.66161 0
M  V30 35900 C 3411.07 -3.64588 2.17431 0
M  V30 35901 C 3408.98 -3.81915 4.51547 0
M  V30 35902 H 3407.91 -0.596232 0.461545 0
M  V30 35903 H 3410.56 -0.92456 1.58506 0
M  V30 35904 H 3408.94 -3.54529 1.76424 0
M  V30 35905 H 3410.12 -1.98375 4.15914 0
M  V30 35906 H 3408.43 -1.93409 3.68757 0
M  V30 35907 H 3411.03 -4.56473 2.78454 0
M  V30 35908 H 3411.37 -3.99536 1.16946 0
M  V30 35909 H 3411.91 -3.03549 2.57105 0
M  V30 35910 H 3408.65 -3.52098 5.52908 0
M  V30 35911 H 3408.17 -4.41008 4.06537 0
M  V30 35912 H 3409.84 -4.49492 4.65367 0
M  V30 35913 N 3409.98 -1.16914 -1.05683 0
M  V30 35914 C 3410.91 -0.839082 -2.13289 0
M  V30 35915 C 3411.92 0.156363 -1.62047 0
M  V30 35916 O 3413.11 -0.0692506 -1.78366 0
M  V30 35917 C 3410.21 -0.229617 -3.38121 0
M  V30 35918 C 3409.38 -1.2667 -4.18657 0
M  V30 35919 C 3408.44 -0.675902 -5.21841 0
M  V30 35920 O 3407.47 -1.3464 -5.53047 0
M  V30 35921 N 3408.67 0.534431 -5.78035 0
M  V30 35922 H 3411.44 -1.7652 -2.422 0
M  V30 35923 H 3409 -1.06731 -1.21738 0
M  V30 35924 H 3410.99 0.178797 -4.04305 0
M  V30 35925 H 3409.56 0.600176 -3.06784 0
M  V30 35926 H 3408.78 -1.85105 -3.48037 0
M  V30 35927 H 3410.07 -1.96638 -4.69266 0
M  V30 35928 H 3409.46 1.09722 -5.54957 0
M  V30 35929 H 3408.02 0.884973 -6.45764 0
M  V30 35930 N 3411.45 1.24323 -0.968589 0
M  V30 35931 C 3412.7 1.91722 -0.626553 0
M  V30 35932 C 3413.02 1.76539 0.842219 0
M  V30 35933 O 3414.22 2.38635 1.29482 0
M  V30 35934 C 3412.68 3.43627 -1.06998 0
M  V30 35935 C 3412.29 3.67494 -2.56227 0
M  V30 35936 C 3414.03 4.16872 -0.80113 0
M  V30 35937 C 3411.94 5.12975 -2.94297 0
M  V30 35938 H 3410.87 0.717861 -0.230633 0
M  V30 35939 H 3413.52 1.40954 -1.17491 0
M  V30 35940 H 3411.9 3.93436 -0.449919 0
M  V30 35941 H 3413.07 3.28281 -3.2337 0
M  V30 35942 H 3411.39 3.07537 -2.80731 0
M  V30 35943 H 3413.99 5.24056 -1.06156 0
M  V30 35944 H 3414.33 4.15471 0.262669 0
M  V30 35945 H 3414.86 3.73015 -1.3822 0
M  V30 35946 H 3411.6 5.19499 -3.99752 0
M  V30 35947 H 3411.12 5.53183 -2.31838 0
M  V30 35948 H 3412.8 5.81214 -2.84252 0
M  V30 35949 N 3412.93 0.73881 1.3921 0
M  V30 35950 C 3414.16 0.298787 2.04731 0
M  V30 35951 C 3414.58 -1.06773 1.55708 0
M  V30 35952 O 3413.93 -1.6754 0.723635 0
M  V30 35953 C 3413.98 0.295803 3.60288 0
M  V30 35954 O 3413.7 1.60838 4.07508 0
M  V30 35955 C 3415.21 -0.159916 4.43011 0
M  V30 35956 H 3412.43 0.129964 0.658294 0
M  V30 35957 H 3414.97 1.00353 1.78184 0
M  V30 35958 H 3413.12 -0.360078 3.85723 0
M  V30 35959 H 3413.54 1.52452 5.01855 0
M  V30 35960 H 3415.01 -0.110844 5.51889 0
M  V30 35961 H 3415.49 -1.20566 4.22328 0
M  V30 35962 H 3416.1 0.466541 4.22733 0
M  V30 35963 N 3414.41 -1.49895 0.486734 0
M  V30 35964 C 3415.66 -2.01597 -0.0645843 0
M  V30 35965 C 3415.97 -1.37251 -1.39361 0
M  V30 35966 O 3417.18 -1.80198 -2.03079 0
M  V30 35967 C 3415.63 -3.59519 -0.165587 0
M  V30 35968 C 3415.24 -4.3283 1.15594 0
M  V30 35969 C 3416.99 -4.19211 -0.66803 0
M  V30 35970 C 3414.89 -5.82575 1.01788 0
M  V30 35971 H 3413.82 -0.753483 -0.0279108 0
M  V30 35972 H 3416.47 -1.72564 0.623999 0
M  V30 35973 H 3414.86 -3.85205 -0.918305 0
M  V30 35974 H 3416.03 -4.18856 1.92083 0
M  V30 35975 H 3414.35 -3.84819 1.59071 0
M  V30 35976 H 3416.94 -5.28853 -0.788605 0
M  V30 35977 H 3417.29 -3.81627 -1.66332 0
M  V30 35978 H 3417.82 -3.9779 0.0277446 0
M  V30 35979 H 3414.56 -6.24658 1.98701 0
M  V30 35980 H 3414.08 -5.99081 0.293632 0
M  V30 35981 H 3415.76 -6.43302 0.690806 0
M  V30 35982 N 3415.89 -0.219968 -1.56057 0
M  V30 35983 C 3417.11 0.420105 -2.03101 0
M  V30 35984 C 3417.54 1.52671 -1.09878 0
M  V30 35985 O 3416.9 1.81093 -0.0866777 0
M  V30 35986 C 3416.95 0.930409 -3.4839 0
M  V30 35987 O 3416.05 2.04186 -3.58304 0
M  V30 35988 H 3415.39 0.0952656 -0.65713 0
M  V30 35989 H 3417.92 -0.338141 -2.01786 0
M  V30 35990 H 3417.93 1.24063 -3.8868 0
M  V30 35991 H 3416.61 0.120466 -4.15725 0
M  V30 35992 H 3415.18 1.73839 -3.29901 0
M  V30 35993 N 3417.37 1.57509 0.0534363 0
M  V30 35994 C 3418.59 1.92765 0.765267 0
M  V30 35995 C 3419.02 0.817973 1.69384 0
M  V30 35996 O 3418.38 -0.228044 1.7986 0
M  V30 35997 C 3418.42 3.27031 1.51932 0
M  V30 35998 O 3417.53 3.17559 2.63116 0
M  V30 35999 H 3416.87 0.630727 0.207556 0
M  V30 36000 H 3419.4 2.04594 0.0161894 0
M  V30 36001 H 3419.41 3.61344 1.89459 0
M  V30 36002 H 3418.08 4.07367 0.838135 0
M  V30 36003 H 3416.66 2.94836 2.28311 0
M  V30 36004 N 3418.85 -0.325228 1.54208 0
M  V30 36005 C 3420.09 -1.06337 1.72333 0
M  V30 36006 C 3420.42 -1.88065 0.496148 0
M  V30 36007 O 3419.68 -1.88607 -0.522107 0
M  V30 36008 C 3419.97 -2.01761 2.95004 0
M  V30 36009 C 3419.64 -1.362 4.29837 0
M  V30 36010 C 3418.3 -1.18051 4.66495 0
M  V30 36011 C 3420.65 -0.891313 5.13522 0
M  V30 36012 C 3417.98 -0.514791 5.84437 0
M  V30 36013 C 3420.33 -0.239423 6.32147 0
M  V30 36014 C 3419 -0.0457665 6.67484 0
M  V30 36015 H 3418.27 -0.389114 0.630612 0
M  V30 36016 H 3420.92 -0.340687 1.88445 0
M  V30 36017 H 3419.22 -2.80474 2.73572 0
M  V30 36018 H 3420.92 -2.589 3.06222 0
M  V30 36019 H 3417.51 -1.51328 4.00996 0
M  V30 36020 H 3421.69 -1.01932 4.8572 0
M  V30 36021 H 3416.95 -0.353537 6.10377 0
M  V30 36022 H 3421.12 0.133307 6.96272 0
M  V30 36023 H 3418.75 0.472111 7.58733 0
M  V30 36024 N 3420.32 -1.46252 -0.587204 0
M  V30 36025 C 3421.27 -1.56475 -1.69659 0
M  V30 36026 C 3422.24 -0.409322 -1.60978 0
M  V30 36027 O 3423.43 -0.625482 -1.80256 0
M  V30 36028 C 3420.57 -1.55674 -3.07993 0
M  V30 36029 C 3419.68 -2.81918 -3.27332 0
M  V30 36030 C 3418.81 -2.72652 -4.55889 0
M  V30 36031 C 3417.85 -3.93856 -4.68555 0
M  V30 36032 N 3416.99 -3.83002 -5.88434 0
M  V30 36033 H 3421.83 -2.5124 -1.60258 0
M  V30 36034 H 3419.37 -1.24647 -0.781126 0
M  V30 36035 H 3421.32 -1.53196 -3.88055 0
M  V30 36036 H 3419.95 -0.644456 -3.16301 0
M  V30 36037 H 3419.01 -2.94396 -2.40904 0
M  V30 36038 H 3420.32 -3.71759 -3.3256 0
M  V30 36039 H 3419.47 -2.68253 -5.44174 0
M  V30 36040 H 3418.21 -1.80443 -4.53091 0
M  V30 36041 H 3417.22 -3.98591 -3.78689 0
M  V30 36042 H 3418.44 -4.87155 -4.73135 0
M  V30 36043 H 3416.39 -2.93577 -5.86642 0
M  V30 36044 H 3416.3 -4.66494 -5.94911 0
M  V30 36045 H 3417.57 -3.82571 -6.79161 0
M  V30 36046 N 3421.8 0.831459 -1.33883 0
M  V30 36047 C 3423.05 1.58916 -1.26954 0
M  V30 36048 C 3423.4 1.91722 0.161325 0
M  V30 36049 O 3422.7 1.565 1.10537 0
M  V30 36050 C 3422.89 2.90245 -2.08549 0
M  V30 36051 C 3422.72 2.70267 -3.59424 0
M  V30 36052 C 3421.49 2.67442 -4.28722 0
M  V30 36053 C 3423.69 2.4238 -4.53604 0
M  V30 36054 N 3421.67 2.38919 -5.65501 0
M  V30 36055 C 3423.04 2.23475 -5.78324 0
M  V30 36056 C 3425.09 2.28038 -4.42609 0
M  V30 36057 C 3423.8 1.91682 -6.9329 0
M  V30 36058 C 3425.82 1.97639 -5.57398 0
M  V30 36059 C 3425.19 1.79551 -6.81132 0
M  V30 36060 H 3421.28 0.584261 -0.519772 0
M  V30 36061 H 3423.87 0.97543 -1.68504 0
M  V30 36062 H 3422.04 3.49556 -1.69309 0
M  V30 36063 H 3423.77 3.55535 -1.93331 0
M  V30 36064 H 3420.53 2.81212 -3.81073 0
M  V30 36065 H 3420.95 2.27521 -6.37623 0
M  V30 36066 H 3425.59 2.40731 -3.47575 0
M  V30 36067 H 3423.31 1.77726 -7.88314 0
M  V30 36068 H 3426.9 1.87286 -5.50831 0
M  V30 36069 H 3425.78 1.56368 -7.68452 0
M  V30 36070 N 3423.28 1.17472 1.05062 0
M  V30 36071 C 3424.56 0.873807 1.74997 0
M  V30 36072 C 3424.94 -0.62564 2.01616 0
M  V30 36073 O 3424.28 -1.57731 1.65327 0
M  V30 36074 C 3424.49 1.71016 3.04228 0
M  V30 36075 C 3425.84 1.93093 3.78154 0
M  V30 36076 O 3426.87 1.67985 3.14101 0
M  V30 36077 O 3425.73 2.35299 4.93251 0
M  V30 36078 H 3422.82 0.323655 0.761037 0
M  V30 36079 H 3425.37 1.28174 1.11218 0
M  V30 36080 H 3424.14 2.72709 2.80616 0
M  V30 36081 H 3423.76 1.30008 3.75744 0
M  V30 36082 N 3424.76 -1.23807 0.975168 0
M  V30 36083 C 3425.69 -2.27395 0.530429 0
M  V30 36084 C 3426.67 -1.64477 -0.433734 0
M  V30 36085 O 3427.85 -1.91406 -0.328236 0
M  V30 36086 C 3424.98 -3.46869 -0.173005 0
M  V30 36087 C 3423.94 -4.22105 0.707919 0
M  V30 36088 C 3423.26 -5.34548 -0.127433 0
M  V30 36089 C 3424.56 -4.82649 1.99618 0
M  V30 36090 H 3426.26 -2.64849 1.39627 0
M  V30 36091 H 3423.8 -1.27315 0.672824 0
M  V30 36092 H 3425.76 -4.18478 -0.495408 0
M  V30 36093 H 3424.48 -3.08462 -1.07325 0
M  V30 36094 H 3423.14 -3.52306 1.0137 0
M  V30 36095 H 3422.79 -4.92382 -1.02805 0
M  V30 36096 H 3422.49 -5.85806 0.458831 0
M  V30 36097 H 3424.01 -6.08981 -0.444336 0
M  V30 36098 H 3425.43 -5.46293 1.73888 0
M  V30 36099 H 3423.82 -5.44171 2.52978 0
M  V30 36100 H 3424.89 -4.03686 2.68636 0
M  V30 36101 N 3426.24 -0.746182 -1.38816 0
M  V30 36102 C 3427.46 -0.309641 -2.0457 0
M  V30 36103 C 3427.88 1.05946 -1.56272 0
M  V30 36104 O 3427.24 1.67154 -0.73251 0
M  V30 36105 C 3427.29 -0.314906 -3.60126 0
M  V30 36106 O 3427.01 -1.62997 -4.06649 0
M  V30 36107 C 3428.51 0.13642 -4.4309 0
M  V30 36108 H 3425.73 -0.133453 -0.657595 0
M  V30 36109 H 3428.27 -1.01296 -1.77649 0
M  V30 36110 H 3426.43 0.339617 -3.85908 0
M  V30 36111 H 3426.84 -1.55111 -5.0104 0
M  V30 36112 H 3428.32 0.0815744 -5.5194 0
M  V30 36113 H 3428.79 1.18324 -4.22961 0
M  V30 36114 H 3429.4 -0.488953 -4.2248 0
M  V30 36115 N 3427.71 1.49635 -0.494676 0
M  V30 36116 C 3428.68 2.27532 0.276024 0
M  V30 36117 C 3429.68 1.33281 0.899596 0
M  V30 36118 O 3430.87 1.56498 0.765109 0
M  V30 36119 C 3428 3.11032 1.39541 0
M  V30 36120 H 3429.19 2.97119 -0.407433 0
M  V30 36121 H 3426.74 1.54297 -0.249443 0
M  V30 36122 H 3427.48 2.45995 2.11321 0
M  V30 36123 H 3427.26 3.80322 0.95381 0
M  V30 36124 H 3428.75 3.69883 1.93847 0
M  V30 36125 N 3429.19 0.228241 1.55939 0
M  V30 36126 C 3430.44 -0.401642 1.98477 0
M  V30 36127 C 3430.77 -1.59295 1.11603 0
M  V30 36128 O 3430.02 -1.95024 0.162499 0
M  V30 36129 C 3430.32 -0.872671 3.46582 0
M  V30 36130 C 3429.99 0.208846 4.50416 0
M  V30 36131 C 3428.65 0.505931 4.78533 0
M  V30 36132 C 3431 0.939943 5.12654 0
M  V30 36133 C 3428.33 1.53851 5.66168 0
M  V30 36134 C 3430.68 1.96191 6.01408 0
M  V30 36135 C 3429.34 2.26584 6.27866 0
M  V30 36136 H 3428.61 -0.146971 0.726278 0
M  V30 36137 H 3431.26 0.332161 1.88597 0
M  V30 36138 H 3429.57 -1.68535 3.53699 0
M  V30 36139 H 3431.26 -1.36999 3.76872 0
M  V30 36140 H 3427.85 -0.0328555 4.28587 0
M  V30 36141 H 3432.04 0.723667 4.90996 0
M  V30 36142 H 3427.29 1.77954 5.84929 0
M  V30 36143 H 3431.47 2.53344 6.48683 0
M  V30 36144 H 3429.09 3.06737 6.95569 0
M  V30 36145 N 3430.67 -1.57536 -0.0450825 0
M  V30 36146 C 3431.92 -1.88158 -0.737621 0
M  V30 36147 C 3432.24 -0.823848 -1.76742 0
M  V30 36148 O 3431.51 0.144469 -1.95367 0
M  V30 36149 H 3430.09 -0.694373 -0.275418 0
M  V30 36150 H 3432.75 -1.94894 -0.0148308 0
M  V30 36151 H 3431.85 -2.8653 -1.23721 0
M  V30 36152 N 3432.15 0.317045 -1.54378 0
M  V30 36153 C 3433.08 1.39549 -1.87212 0
M  V30 36154 C 3434.06 1.53662 -0.72951 0
M  V30 36155 O 3435.24 1.67435 -0.983828 0
M  V30 36156 C 3432.37 2.76218 -2.10525 0
M  V30 36157 C 3431.33 2.76887 -3.26371 0
M  V30 36158 C 3430.65 4.16693 -3.35068 0
M  V30 36159 C 3431.95 2.40053 -4.63866 0
M  V30 36160 H 3433.65 1.12318 -2.77534 0
M  V30 36161 H 3431.19 0.538874 -1.33537 0
M  V30 36162 H 3433.15 3.51735 -2.32079 0
M  V30 36163 H 3431.87 3.0494 -1.16959 0
M  V30 36164 H 3430.53 2.03826 -3.04714 0
M  V30 36165 H 3430.18 4.42566 -2.39049 0
M  V30 36166 H 3429.88 4.18045 -4.12931 0
M  V30 36167 H 3431.4 4.94013 -3.58864 0
M  V30 36168 H 3432.82 3.05283 -4.85258 0
M  V30 36169 H 3431.21 2.52645 -5.44326 0
M  V30 36170 H 3432.28 1.35194 -4.65672 0
M  V30 36171 N 3433.63 1.46561 0.57944 0
M  V30 36172 C 3434.87 1.52266 1.33951 0
M  V30 36173 C 3435.21 0.175123 1.93409 0
M  V30 36174 O 3434.48 -0.813819 1.76656 0
M  V30 36175 C 3434.76 2.62375 2.4664 0
M  V30 36176 C 3434.62 4.0667 1.92197 0
M  V30 36177 C 3435.94 2.68544 3.48672 0
M  V30 36178 H 3433.05 0.554325 0.485688 0
M  V30 36179 H 3435.7 1.78514 0.650608 0
M  V30 36180 H 3433.85 2.40125 3.05405 0
M  V30 36181 H 3435.52 4.40217 1.37864 0
M  V30 36182 H 3433.76 4.15995 1.23005 0
M  V30 36183 H 3434.43 4.79448 2.73557 0
M  V30 36184 H 3436.91 2.88554 2.99792 0
M  V30 36185 H 3435.78 3.47401 4.24975 0
M  V30 36186 H 3436.05 1.74724 4.06108 0
M  V30 36187 N 3435.1 -0.824347 1.34322 0
M  V30 36188 C 3436.07 -1.91673 1.25675 0
M  V30 36189 C 3437.07 -1.59874 0.172297 0
M  V30 36190 O 3438.26 -1.6894 0.424824 0
M  V30 36191 C 3435.39 -3.27684 0.939986 0
M  V30 36192 H 3436.58 -2.00762 2.22788 0
M  V30 36193 H 3434.14 -1.01815 1.18589 0
M  V30 36194 H 3434.87 -3.24288 -0.0280328 0
M  V30 36195 H 3434.66 -3.52147 1.72438 0
M  V30 36196 H 3436.15 -4.07684 0.904625 0
M  V30 36197 N 3436.58 -1.18028 -1.04437 0
M  V30 36198 C 3437.49 -0.918785 -2.1586 0
M  V30 36199 C 3438.51 0.115777 -1.73614 0
M  V30 36200 O 3439.68 -0.0652666 -2.01294 0
M  V30 36201 C 3436.75 -0.443982 -3.43845 0
M  V30 36202 C 3435.81 -1.54606 -4.00494 0
M  V30 36203 C 3435.04 -1.09382 -5.22371 0
M  V30 36204 O 3435.27 0.0489847 -5.70379 0
M  V30 36205 O 3434.2 -1.89002 -5.71456 0
M  V30 36206 H 3438.03 -1.85101 -2.40772 0
M  V30 36207 H 3435.61 -0.961789 -1.14324 0
M  V30 36208 H 3437.49 -0.187091 -4.20984 0
M  V30 36209 H 3436.17 0.459995 -3.20415 0
M  V30 36210 H 3435.08 -1.85692 -3.2476 0
M  V30 36211 H 3436.41 -2.42602 -4.28258 0
M  V30 36212 N 3438.06 1.23288 -0.98172 0
M  V30 36213 C 3439.31 1.92328 -0.661928 0
M  V30 36214 C 3439.66 1.75162 0.795989 0
M  V30 36215 O 3438.95 1.10274 1.56685 0
M  V30 36216 C 3439.15 3.43435 -0.989304 0
M  V30 36217 C 3438.98 3.753 -2.4775 0
M  V30 36218 C 3437.75 3.95918 -3.1397 0
M  V30 36219 C 3439.95 3.80671 -3.45824 0
M  V30 36220 N 3437.93 4.15 -4.52381 0
M  V30 36221 C 3439.3 4.04761 -4.69647 0
M  V30 36222 C 3441.35 3.63469 -3.40286 0
M  V30 36223 C 3440.06 4.13435 -5.88612 0
M  V30 36224 C 3442.08 3.73396 -4.58616 0
M  V30 36225 C 3441.44 3.97925 -5.81236 0
M  V30 36226 H 3437.54 0.724912 -0.293302 0
M  V30 36227 H 3440.13 1.48479 -1.25945 0
M  V30 36228 H 3438.3 3.86117 -0.420466 0
M  V30 36229 H 3440.03 3.99819 -0.626649 0
M  V30 36230 H 3436.79 3.92882 -2.64463 0
M  V30 36231 H 3437.21 4.28492 -5.24141 0
M  V30 36232 H 3441.85 3.435 -2.4651 0
M  V30 36233 H 3439.57 4.32211 -6.82803 0
M  V30 36234 H 3443.16 3.61439 -4.55909 0
M  V30 36235 H 3442.04 4.05422 -6.7127 0
M  V30 36236 N 3439.54 0.753533 1.38418 0
M  V30 36237 C 3440.79 0.309668 2.00118 0
M  V30 36238 C 3441.11 -1.1086 1.59813 0
M  V30 36239 O 3440.37 -1.77365 0.827044 0
M  V30 36240 C 3440.67 0.38 3.55374 0
M  V30 36241 C 3440.33 1.75391 4.1539 0
M  V30 36242 C 3439 2.12992 4.31495 0
M  V30 36243 C 3441.35 2.65516 4.48498 0
M  V30 36244 C 3438.68 3.40189 4.78005 0
M  V30 36245 C 3441.03 3.92104 4.96425 0
M  V30 36246 C 3439.69 4.29773 5.10736 0
M  V30 36247 H 3438.96 0.113315 0.732285 0
M  V30 36248 H 3441.61 0.964004 1.65467 0
M  V30 36249 H 3439.91 -0.3579 3.90162 0
M  V30 36250 H 3441.61 0.0181442 4.00996 0
M  V30 36251 H 3438.2 1.45163 4.03269 0
M  V30 36252 H 3442.38 2.37732 4.35657 0
M  V30 36253 H 3437.64 3.69293 4.87271 0
M  V30 36254 H 3441.81 4.62081 5.21013 0
M  V30 36255 H 3439.44 5.28396 5.46536 0
M  V30 36256 N 3441.02 -1.49371 0.502605 0
M  V30 36257 C 3441.95 -2.32 -0.264266 0
M  V30 36258 C 3442.93 -1.40349 -0.961045 0
M  V30 36259 O 3444.11 -1.69257 -0.952137 0
M  V30 36260 C 3441.24 -3.20901 -1.32816 0
M  V30 36261 C 3440.2 -4.21357 -0.751162 0
M  V30 36262 C 3439.52 -4.99205 -1.91569 0
M  V30 36263 C 3440.82 -5.21658 0.258856 0
M  V30 36264 H 3442.52 -2.96362 0.425443 0
M  V30 36265 H 3440.06 -1.42518 0.206047 0
M  V30 36266 H 3442.02 -3.77518 -1.87238 0
M  V30 36267 H 3440.74 -2.54484 -2.04708 0
M  V30 36268 H 3439.4 -3.65886 -0.228679 0
M  V30 36269 H 3439.05 -4.29235 -2.62233 0
M  V30 36270 H 3438.75 -5.67178 -1.53568 0
M  V30 36271 H 3440.27 -5.58667 -2.46422 0
M  V30 36272 H 3441.68 -5.7296 -0.197285 0
M  V30 36273 H 3440.08 -5.9753 0.554786 0
M  V30 36274 H 3441.15 -4.70469 1.17418 0
M  V30 36275 N 3442.49 -0.236508 -1.55815 0
M  V30 36276 C 3443.46 0.654002 -2.19671 0
M  V30 36277 C 3444.46 1.11054 -1.16292 0
M  V30 36278 O 3445.65 1.01692 -1.41436 0
M  V30 36279 C 3442.78 1.89766 -2.83199 0
M  V30 36280 H 3443.97 0.0970384 -2.99743 0
M  V30 36281 H 3441.53 0.0130706 -1.56295 0
M  V30 36282 H 3442.26 2.49612 -2.07037 0
M  V30 36283 H 3442.05 1.57862 -3.58918 0
M  V30 36284 H 3443.54 2.53179 -3.321 0
M  V30 36285 N 3443.97 1.57557 0.0367273 0
M  V30 36286 C 3445.2 1.92893 0.739978 0
M  V30 36287 C 3445.61 0.833994 1.69827 0
M  V30 36288 O 3444.95 -0.198942 1.8262 0
M  V30 36289 C 3445.02 3.23975 1.55822 0
M  V30 36290 C 3444.68 4.50543 0.765533 0
M  V30 36291 C 3445.68 5.19854 0.0691772 0
M  V30 36292 C 3443.36 4.97079 0.722337 0
M  V30 36293 C 3445.36 6.33976 -0.65976 0
M  V30 36294 C 3443.04 6.11099 -0.0103505 0
M  V30 36295 C 3444.04 6.79402 -0.700166 0
M  V30 36296 O 3443.73 7.91242 -1.42097 0
M  V30 36297 H 3443.46 0.641405 0.213485 0
M  V30 36298 H 3446.01 2.054 0.000629048 0
M  V30 36299 H 3444.24 3.07774 2.3412 0
M  V30 36300 H 3445.93 3.44695 2.14337 0
M  V30 36301 H 3446.7 4.8491 0.0936295 0
M  V30 36302 H 3442.58 4.43765 1.24875 0
M  V30 36303 H 3446.12 6.87224 -1.19873 0
M  V30 36304 H 3442.02 6.4549 -0.0367529 0
M  V30 36305 H 3442.79 8.07558 -1.33386 0
M  V30 36306 N 3445.45 -0.308854 1.54544 0
M  V30 36307 C 3446.7 -1.04263 1.72662 0
M  V30 36308 C 3447.01 -1.88693 0.515213 0
M  V30 36309 O 3448.22 -2.65275 0.578035 0
M  V30 36310 C 3446.68 -1.90335 3.05452 0
M  V30 36311 C 3446.28 -1.10945 4.34045 0
M  V30 36312 C 3448.03 -2.63359 3.3293 0
M  V30 36313 C 3445.93 -1.96248 5.57889 0
M  V30 36314 H 3444.86 -0.392981 0.643492 0
M  V30 36315 H 3447.52 -0.300045 1.8103 0
M  V30 36316 H 3445.9 -2.6855 2.91028 0
M  V30 36317 H 3447.07 -0.373988 4.5928 0
M  V30 36318 H 3445.39 -0.495381 4.13443 0
M  V30 36319 H 3447.98 -3.27517 4.22655 0
M  V30 36320 H 3448.33 -3.31776 2.51457 0
M  V30 36321 H 3448.86 -1.92197 3.48289 0
M  V30 36322 H 3445.6 -1.32315 6.42007 0
M  V30 36323 H 3445.12 -2.67489 5.36852 0
M  V30 36324 H 3446.8 -2.54484 5.9485 0
M  V30 36325 N 3446.93 -1.46867 -0.571659 0
M  V30 36326 C 3447.86 -1.61134 -1.68991 0
M  V30 36327 C 3448.84 -0.461251 -1.63727 0
M  V30 36328 O 3450.03 -0.688845 -1.81572 0
M  V30 36329 C 3447.16 -1.61177 -3.07635 0
M  V30 36330 C 3446.11 -2.75267 -3.27737 0
M  V30 36331 C 3445.44 -2.60376 -4.67021 0
M  V30 36332 C 3446.74 -4.16995 -3.14504 0
M  V30 36333 H 3448.43 -2.54745 -1.57307 0
M  V30 36334 H 3445.98 -1.22598 -0.755361 0
M  V30 36335 H 3447.93 -1.69751 -3.85697 0
M  V30 36336 H 3446.65 -0.641179 -3.20244 0
M  V30 36337 H 3445.31 -2.66181 -2.52078 0
M  V30 36338 H 3444.96 -1.61376 -4.7641 0
M  V30 36339 H 3444.66 -3.36907 -4.81422 0
M  V30 36340 H 3446.18 -2.70857 -5.47237 0
M  V30 36341 H 3447.6 -4.27134 -3.82399 0
M  V30 36342 H 3445.99 -4.94199 -3.40422 0
M  V30 36343 H 3447.06 -4.36375 -2.11436 0
M  V30 36344 N 3448.41 0.817212 -1.34757 0
M  V30 36345 C 3449.65 1.57375 -1.27434 0
M  V30 36346 C 3449.98 1.93888 0.154156 0
M  V30 36347 O 3449.24 1.60703 1.11683 0
M  V30 36348 C 3449.54 2.88017 -2.11616 0
M  V30 36349 C 3449.2 2.70769 -3.60548 0
M  V30 36350 C 3447.86 2.65773 -4.01146 0
M  V30 36351 C 3450.22 2.54045 -4.55094 0
M  V30 36352 C 3447.54 2.41982 -5.34473 0
M  V30 36353 C 3449.9 2.31785 -5.88607 0
M  V30 36354 C 3448.56 2.25204 -6.28362 0
M  V30 36355 H 3447.83 0.575874 -0.466315 0
M  V30 36356 H 3450.48 0.945099 -1.66554 0
M  V30 36357 H 3448.78 3.55203 -1.65343 0
M  V30 36358 H 3450.48 3.45649 -2.03293 0
M  V30 36359 H 3447.07 2.75501 -3.28325 0
M  V30 36360 H 3451.25 2.56925 -4.24621 0
M  V30 36361 H 3446.51 2.35349 -5.64288 0
M  V30 36362 H 3450.68 2.17832 -6.61454 0
M  V30 36363 H 3448.31 2.0653 -7.31607 0
M  V30 36364 N 3449.89 1.1858 1.0381 0
M  V30 36365 C 3451.11 1.00772 1.807 0
M  V30 36366 C 3451.53 -0.443801 1.8351 0
M  V30 36367 O 3450.89 -1.30826 1.27243 0
M  V30 36368 C 3450.94 1.55844 3.26182 0
M  V30 36369 O 3450.66 2.95313 3.23607 0
M  V30 36370 C 3452.16 1.4269 4.19708 0
M  V30 36371 H 3449.38 0.355695 0.568966 0
M  V30 36372 H 3451.92 1.57187 1.30814 0
M  V30 36373 H 3450.08 1.03599 3.73291 0
M  V30 36374 H 3450.49 3.21047 4.14764 0
M  V30 36375 H 3451.97 1.86017 5.19713 0
M  V30 36376 H 3452.44 0.376001 4.37588 0
M  V30 36377 H 3453.05 1.9402 3.78466 0
M  V30 36378 N 3451.36 -1.22766 0.988245 0
M  V30 36379 C 3452.78 -1.43518 0.698186 0
M  V30 36380 C 3452.98 -1.87701 -0.732839 0
M  V30 36381 O 3452.04 -2.02796 -1.50433 0
M  V30 36382 C 3453.35 -2.48047 1.69979 0
M  V30 36383 C 3454.9 -2.61852 1.71472 0
M  V30 36384 C 3455.37 -3.69598 2.70484 0
M  V30 36385 N 3456.86 -3.7705 2.69049 0
M  V30 36386 C 3457.6 -4.6 3.42327 0
M  V30 36387 N 3457.09 -5.46979 4.2519 0
M  V30 36388 N 3458.89 -4.54268 3.31055 0
M  V30 36389 H 3451.04 -0.923914 1.91253 0
M  V30 36390 H 3453.3 -0.467768 0.824559 0
M  V30 36391 H 3453.01 -2.22518 2.72358 0
M  V30 36392 H 3452.88 -3.46571 1.48891 0
M  V30 36393 H 3455.27 -2.86728 0.697939 0
M  V30 36394 H 3455.35 -1.63619 1.96628 0
M  V30 36395 H 3454.99 -3.4547 3.72308 0
M  V30 36396 H 3454.92 -4.6739 2.42599 0
M  V30 36397 H 3457.41 -3.14899 2.08919 0
M  V30 36398 H 3457.73 -6.07283 4.7794 0
M  V30 36399 H 3456.07 -5.46576 4.29278 0
M  V30 36400 H 3459.26 -3.8534 2.65764 0
M  V30 36401 H 3459.44 -5.18683 3.88422 0
M  V30 36402 N 3452.84 -0.760864 -1.38017 0
M  V30 36403 C 3454.09 -0.320276 -1.99951 0
M  V30 36404 C 3454.42 1.10011 -1.60399 0
M  V30 36405 O 3453.67 1.76924 -0.836439 0
M  V30 36406 C 3453.97 -0.398841 -3.55168 0
M  V30 36407 C 3453.64 -1.77592 -4.14454 0
M  V30 36408 C 3452.3 -2.15277 -4.3036 0
M  V30 36409 C 3454.65 -2.67891 -4.47084 0
M  V30 36410 C 3451.98 -3.42719 -4.76194 0
M  V30 36411 C 3454.33 -3.94731 -4.94338 0
M  V30 36412 C 3452.99 -4.32475 -5.0845 0
M  V30 36413 H 3452.26 -0.117197 -0.731673 0
M  V30 36414 H 3454.91 -0.972765 -1.64953 0
M  V30 36415 H 3453.22 0.337204 -3.90346 0
M  V30 36416 H 3454.91 -0.0394098 -4.00981 0
M  V30 36417 H 3451.5 -1.47299 -4.02493 0
M  V30 36418 H 3455.69 -2.40039 -4.3439 0
M  V30 36419 H 3450.94 -3.71871 -4.85306 0
M  V30 36420 H 3455.12 -4.64838 -5.18555 0
M  V30 36421 H 3452.74 -5.31287 -5.43726 0
M  V30 36422 N 3454.32 1.49102 -0.510519 0
M  V30 36423 C 3455.57 2.02477 0.030608 0
M  V30 36424 C 3455.89 1.38939 1.36111 0
M  V30 36425 O 3455.15 0.517618 1.88731 0
M  V30 36426 C 3455.45 3.56711 0.221859 0
M  V30 36427 C 3455.11 4.38935 -1.03183 0
M  V30 36428 C 3453.78 4.61123 -1.37547 0
M  V30 36429 C 3456.13 4.86701 -1.86472 0
M  V30 36430 C 3453.46 5.28322 -2.55133 0
M  V30 36431 C 3455.81 5.55194 -3.0322 0
M  V30 36432 C 3454.47 5.75625 -3.37953 0
M  V30 36433 H 3453.74 0.740915 0.0112003 0
M  V30 36434 H 3456.39 1.79299 -0.672605 0
M  V30 36435 H 3454.69 3.7862 1.00768 0
M  V30 36436 H 3456.39 3.95612 0.655153 0
M  V30 36437 H 3452.98 4.21912 -0.754179 0
M  V30 36438 H 3457.17 4.69378 -1.61238 0
M  V30 36439 H 3452.42 5.42341 -2.82269 0
M  V30 36440 H 3456.6 5.91178 -3.68078 0
M  V30 36441 H 3454.22 6.2747 -4.29169 0
M  V30 36442 N 3455.8 0.244768 1.55688 0
M  V30 36443 C 3457.03 -0.384215 2.02996 0
M  V30 36444 C 3457.44 -1.52237 1.12341 0
M  V30 36445 O 3456.78 -1.83241 0.129836 0
M  V30 36446 C 3456.84 -0.95564 3.46566 0
M  V30 36447 C 3456.5 0.0499979 4.56973 0
M  V30 36448 C 3457.5 0.858772 5.12758 0
M  V30 36449 C 3455.19 0.175471 5.01993 0
M  V30 36450 C 3457.18 1.7795 6.12056 0
M  V30 36451 C 3454.87 1.0997 6.01124 0
M  V30 36452 C 3455.87 1.90024 6.56033 0
M  V30 36453 O 3455.55 2.8089 7.5323 0
M  V30 36454 H 3455.29 -0.0957094 0.66919 0
M  V30 36455 H 3457.84 0.365586 2.0212 0
M  V30 36456 H 3456.07 -1.75496 3.44584 0
M  V30 36457 H 3457.76 -1.49447 3.77386 0
M  V30 36458 H 3458.52 0.772409 4.7881 0
M  V30 36459 H 3454.4 -0.437564 4.58919 0
M  V30 36460 H 3457.95 2.40477 6.54841 0
M  V30 36461 H 3453.84 1.187 6.34492 0
M  V30 36462 H 3454.61 2.75227 7.70839 0
M  V30 36463 N 3457.28 -1.57574 -0.0283712 0
M  V30 36464 C 3458.52 -1.89584 -0.720109 0
M  V30 36465 C 3458.85 -0.842592 -1.74969 0
M  V30 36466 O 3458.13 0.14226 -1.93979 0
M  V30 36467 C 3458.41 -3.32232 -1.38903 0
M  V30 36468 C 3458.27 -4.48251 -0.372919 0
M  V30 36469 C 3459.58 -3.73808 -2.32283 0
M  V30 36470 H 3456.7 -0.689495 -0.260318 0
M  V30 36471 H 3459.35 -1.89992 0.0170941 0
M  V30 36472 H 3457.5 -3.32015 -2.01739 0
M  V30 36473 H 3459.17 -4.60603 0.253573 0
M  V30 36474 H 3457.41 -4.32707 0.307726 0
M  V30 36475 H 3458.08 -5.44949 -0.879453 0
M  V30 36476 H 3460.56 -3.75396 -1.7949 0
M  V30 36477 H 3459.43 -4.74424 -2.76067 0
M  V30 36478 H 3459.69 -3.06105 -3.18986 0
M  V30 36479 N 3458.75 0.300654 -1.54706 0
M  V30 36480 C 3459.68 1.37555 -1.88682 0
M  V30 36481 C 3460.66 1.5288 -0.745767 0
M  V30 36482 O 3461.85 1.66382 -1.00153 0
M  V30 36483 C 3458.98 2.7397 -2.13443 0
M  V30 36484 C 3457.93 2.73409 -3.29289 0
M  V30 36485 C 3457.26 4.13116 -3.39469 0
M  V30 36486 C 3458.56 2.3512 -4.66386 0
M  V30 36487 H 3460.25 1.09368 -2.78709 0
M  V30 36488 H 3457.8 0.52468 -1.34101 0
M  V30 36489 H 3459.75 3.49253 -2.35797 0
M  V30 36490 H 3458.48 3.03682 -1.20187 0
M  V30 36491 H 3457.14 2.00582 -3.06859 0
M  V30 36492 H 3456.78 4.40006 -2.43729 0
M  V30 36493 H 3456.48 4.13642 -4.17341 0
M  V30 36494 H 3458.01 4.90179 -3.64084 0
M  V30 36495 H 3459.42 3.00119 -4.88468 0
M  V30 36496 H 3457.82 2.46858 -5.46975 0
M  V30 36497 H 3458.89 1.30248 -4.6708 0
M  V30 36498 N 3460.23 1.47168 0.563863 0
M  V30 36499 C 3461.48 1.53148 1.31872 0
M  V30 36500 C 3461.8 0.192552 1.94047 0
M  V30 36501 O 3461.07 -0.782841 1.79578 0
M  V30 36502 H 3459.65 0.564108 0.489684 0
M  V30 36503 H 3462.31 1.83423 0.658944 0
M  V30 36504 H 3461.41 2.29444 2.1157 0
M  V30 36505 N 3461.71 -0.810054 1.35188 0
M  V30 36506 C 3462.64 -1.93639 1.30484 0
M  V30 36507 C 3463.62 -1.69146 0.179905 0
M  V30 36508 O 3464.81 -1.90558 0.374317 0
M  V30 36509 C 3461.94 -3.30323 1.07257 0
M  V30 36510 C 3460.89 -3.6929 2.16354 0
M  V30 36511 C 3460.22 -5.04098 1.78297 0
M  V30 36512 C 3461.52 -3.80032 3.58292 0
M  V30 36513 H 3463.21 -1.97832 2.24728 0
M  V30 36514 H 3460.76 -0.950416 1.08181 0
M  V30 36515 H 3462.71 -4.08717 1.02607 0
M  V30 36516 H 3461.43 -3.26463 0.0945777 0
M  V30 36517 H 3460.09 -2.93179 2.20095 0
M  V30 36518 H 3459.74 -4.96738 0.79125 0
M  V30 36519 H 3459.44 -5.3114 2.51325 0
M  V30 36520 H 3460.96 -5.84935 1.75165 0
M  V30 36521 H 3462.38 -4.48665 3.56892 0
M  V30 36522 H 3460.78 -4.1854 4.30051 0
M  V30 36523 H 3461.85 -2.81678 3.94696 0
M  V30 36524 N 3463.19 -1.19129 -1.0318 0
M  V30 36525 C 3464.15 -0.928343 -2.09558 0
M  V30 36526 C 3465.15 0.089971 -1.60548 0
M  V30 36527 O 3466.34 -0.144452 -1.736 0
M  V30 36528 C 3463.47 -0.394621 -3.38608 0
M  V30 36529 H 3464.67 -1.87177 -2.34318 0
M  V30 36530 H 3462.22 -1.00454 -1.19744 0
M  V30 36531 H 3462.95 0.55499 -3.19516 0
M  V30 36532 H 3462.74 -1.1288 -3.755 0
M  V30 36533 H 3464.23 -0.229642 -4.16968 0
M  V30 36534 N 3464.67 1.2224 -0.994741 0
M  V30 36535 C 3465.63 2.22462 -0.551658 0
M  V30 36536 C 3466.63 1.56568 0.36647 0
M  V30 36537 O 3467.82 1.7348 0.158173 0
M  V30 36538 C 3464.95 3.40328 0.197356 0
M  V30 36539 H 3466.14 2.63176 -1.43799 0
M  V30 36540 H 3463.7 1.35323 -0.782144 0
M  V30 36541 H 3464.43 3.05089 1.09959 0
M  V30 36542 H 3464.22 3.8937 -0.461897 0
M  V30 36543 H 3465.71 4.1465 0.495461 0
M  V30 36544 N 3466.14 0.768172 1.37611 0
M  V30 36545 C 3467.39 0.327578 1.99022 0
M  V30 36546 C 3467.71 -1.101 1.61671 0
M  V30 36547 O 3468.91 -1.6428 2.16158 0
M  V30 36548 C 3467.37 0.534736 3.55905 0
M  V30 36549 C 3466.98 1.97334 4.02198 0
M  V30 36550 C 3468.72 0.157586 4.24207 0
M  V30 36551 C 3466.63 2.12829 5.51777 0
M  V30 36552 H 3465.56 0.118735 0.744593 0
M  V30 36553 H 3468.21 0.946792 1.57188 0
M  V30 36554 H 3466.59 -0.153881 3.95701 0
M  V30 36555 H 3467.76 2.69662 3.73656 0
M  V30 36556 H 3466.08 2.30675 3.46667 0
M  V30 36557 H 3468.68 0.251918 5.34106 0
M  V30 36558 H 3469.02 -0.891698 4.06638 0
M  V30 36559 H 3469.55 0.798614 3.89701 0
M  V30 36560 H 3466.29 3.16063 5.74268 0
M  V30 36561 H 3465.81 1.4498 5.82015 0
M  V30 36562 H 3467.49 1.92519 6.17694 0
M  V30 36563 N 3467.62 -1.48829 0.518419 0
M  V30 36564 C 3468.56 -2.2625 -0.297663 0
M  V30 36565 C 3469.53 -1.31595 -0.955073 0
M  V30 36566 O 3470.72 -1.60916 -0.981748 0
M  V30 36567 C 3467.84 -3.07468 -1.42059 0
M  V30 36568 C 3466.89 -4.17411 -0.87578 0
M  V30 36569 S 3467.72 -5.34929 0.247247 0
M  V30 36570 C 3468.88 -6.19705 -0.878435 0
M  V30 36571 H 3469.11 -2.9512 0.35941 0
M  V30 36572 H 3466.65 -1.51378 0.304002 0
M  V30 36573 H 3468.6 -3.54842 -2.06391 0
M  V30 36574 H 3467.26 -2.38035 -2.04934 0
M  V30 36575 H 3466.46 -4.73821 -1.71784 0
M  V30 36576 H 3466.06 -3.72718 -0.309364 0
M  V30 36577 H 3468.35 -6.53706 -1.77975 0
M  V30 36578 H 3469.29 -7.07222 -0.352576 0
M  V30 36579 H 3469.7 -5.52586 -1.15363 0
M  V30 36580 N 3469.1 -0.253021 -1.55556 0
M  V30 36581 C 3470.03 0.676798 -2.1898 0
M  V30 36582 C 3471.05 1.13419 -1.1679 0
M  V30 36583 O 3472.23 1.05991 -1.43625 0
M  V30 36584 C 3469.33 1.93243 -2.78407 0
M  V30 36585 C 3468.51 1.62548 -4.06075 0
M  V30 36586 C 3467.57 2.73132 -4.49762 0
M  V30 36587 O 3466.59 2.40257 -5.16009 0
M  V30 36588 N 3467.79 4.02752 -4.18056 0
M  V30 36589 H 3470.56 0.134089 -2.994 0
M  V30 36590 H 3468.12 -0.073225 -1.61734 0
M  V30 36591 H 3470.11 2.66474 -3.04587 0
M  V30 36592 H 3468.68 2.38476 -2.02108 0
M  V30 36593 H 3467.9 0.728047 -3.87419 0
M  V30 36594 H 3469.19 1.39512 -4.89299 0
M  V30 36595 H 3468.59 4.32292 -3.64884 0
M  V30 36596 H 3467.15 4.7243 -4.49058 0
M  V30 36597 N 3470.58 1.57587 0.0200142 0
M  V30 36598 C 3471.51 2.10183 1.01712 0
M  V30 36599 C 3472.49 1.00639 1.37134 0
M  V30 36600 O 3473.67 1.28213 1.4586 0
M  V30 36601 C 3470.8 2.58869 2.31526 0
M  V30 36602 C 3469.76 3.72759 2.1032 0
M  V30 36603 C 3469.08 4.07684 3.45974 0
M  V30 36604 C 3470.38 5.00833 1.48201 0
M  V30 36605 H 3472.08 2.93743 0.579255 0
M  V30 36606 H 3469.62 1.41307 0.277187 0
M  V30 36607 H 3471.58 2.94287 3.01618 0
M  V30 36608 H 3470.3 1.72404 2.77389 0
M  V30 36609 H 3468.96 3.37704 1.42659 0
M  V30 36610 H 3468.61 3.18272 3.89502 0
M  V30 36611 H 3468.31 4.84403 3.32608 0
M  V30 36612 H 3469.83 4.45644 4.17413 0
M  V30 36613 H 3471.25 5.3415 2.08222 0
M  V30 36614 H 3469.64 5.82223 1.45383 0
M  V30 36615 H 3470.71 4.82818 0.448857 0
M  V30 36616 N 3472.06 -0.292445 1.54863 0
M  V30 36617 C 3473.3 -1.02657 1.7455 0
M  V30 36618 C 3473.63 -1.86971 0.535928 0
M  V30 36619 O 3472.89 -1.89672 -0.481983 0
M  V30 36620 C 3473.19 -1.95458 2.99217 0
M  V30 36621 C 3472.85 -1.27052 4.3263 0
M  V30 36622 C 3471.51 -1.0813 4.68894 0
M  V30 36623 C 3473.87 -0.782187 5.15297 0
M  V30 36624 C 3471.19 -0.390707 5.85398 0
M  V30 36625 C 3473.55 -0.105281 6.32512 0
M  V30 36626 C 3472.21 0.0958271 6.67431 0
M  V30 36627 H 3471.48 -0.37565 0.638724 0
M  V30 36628 H 3474.13 -0.300638 1.89125 0
M  V30 36629 H 3472.43 -2.74608 2.79459 0
M  V30 36630 H 3474.13 -2.52347 3.11644 0
M  V30 36631 H 3470.72 -1.42788 4.04116 0
M  V30 36632 H 3474.9 -0.916065 4.87772 0
M  V30 36633 H 3470.16 -0.223988 6.1099 0
M  V30 36634 H 3474.33 0.280967 6.95833 0
M  V30 36635 H 3471.96 0.632943 7.5756 0
M  V30 36636 N 3473.53 -1.47465 -0.55605 0
M  V30 36637 C 3474.78 -1.54149 -1.31317 0
M  V30 36638 C 3475.11 -0.204255 -1.93425 0
M  V30 36639 O 3474.36 0.802971 -1.78468 0
M  V30 36640 C 3474.66 -2.60874 -2.44293 0
M  V30 36641 C 3474.33 -4.04113 -2.00009 0
M  V30 36642 C 3472.99 -4.43104 -1.87648 0
M  V30 36643 C 3475.34 -4.93984 -1.6622 0
M  V30 36644 C 3472.67 -5.69802 -1.39795 0
M  V30 36645 C 3475.02 -6.21146 -1.19837 0
M  V30 36646 C 3473.69 -6.59018 -1.06073 0
M  V30 36647 H 3472.96 -0.564072 -0.480524 0
M  V30 36648 H 3475.6 -1.81068 -0.623417 0
M  V30 36649 H 3473.91 -2.27716 -3.1883 0
M  V30 36650 H 3475.61 -2.63269 -3.02474 0
M  V30 36651 H 3472.2 -3.73305 -2.10573 0
M  V30 36652 H 3476.38 -4.64558 -1.74642 0
M  V30 36653 H 3471.64 -5.97893 -1.27803 0
M  V30 36654 H 3475.81 -6.90195 -0.927536 0
M  V30 36655 H 3473.44 -7.57083 -0.687701 0
M  V30 36656 N 3475.01 0.802873 -1.35616 0
M  V30 36657 C 3476.24 1.59657 -1.3238 0
M  V30 36658 C 3476.66 1.87858 0.0953905 0
M  V30 36659 O 3476.02 1.46843 1.06333 0
M  V30 36660 C 3476.07 2.90252 -2.13977 0
M  V30 36661 O 3475.17 3.83246 -1.52303 0
M  V30 36662 H 3474.51 0.484815 -0.453708 0
M  V30 36663 H 3477.04 0.996186 -1.7871 0
M  V30 36664 H 3477.05 3.39643 -2.26067 0
M  V30 36665 H 3475.73 2.69052 -3.1715 0
M  V30 36666 H 3474.31 3.41806 -1.49074 0
M  V30 36667 N 3476.49 1.19674 1.02547 0
M  V30 36668 C 3477.72 1.02534 1.79361 0
M  V30 36669 C 3478.13 -0.428898 1.84275 0
M  V30 36670 O 3477.47 -1.30967 1.28816 0
M  V30 36671 C 3477.53 1.52254 3.25667 0
M  V30 36672 C 3477.2 3.00418 3.44381 0
M  V30 36673 C 3478.2 3.98152 3.34322 0
M  V30 36674 C 3475.88 3.39185 3.70485 0
M  V30 36675 C 3477.87 5.32646 3.50096 0
M  V30 36676 C 3475.56 4.73837 3.85904 0
M  V30 36677 C 3476.56 5.70376 3.75713 0
M  V30 36678 O 3476.25 7.02588 3.90672 0
M  V30 36679 H 3475.98 0.361554 0.571187 0
M  V30 36680 H 3478.53 1.59004 1.30026 0
M  V30 36681 H 3476.76 0.901614 3.76042 0
M  V30 36682 H 3478.45 1.31269 3.84088 0
M  V30 36683 H 3479.22 3.69547 3.14102 0
M  V30 36684 H 3475.1 2.64591 3.77508 0
M  V30 36685 H 3478.64 6.07982 3.42058 0
M  V30 36686 H 3474.54 5.02136 4.05622 0
M  V30 36687 H 3475.31 7.0971 4.07743 0
M  V30 36688 N 3477.97 -1.21711 1.00121 0
M  V30 36689 C 3479.22 -1.90679 0.681757 0
M  V30 36690 C 3479.54 -1.77863 -0.78709 0
M  V30 36691 O 3478.8 -1.1469 -1.58571 0
M  V30 36692 C 3479.1 -3.41818 1.04382 0
M  V30 36693 C 3478.76 -3.74827 2.5063 0
M  V30 36694 C 3477.43 -3.83547 2.90594 0
M  V30 36695 C 3479.78 -3.90333 3.45384 0
M  V30 36696 C 3477.11 -4.05217 4.24283 0
M  V30 36697 C 3479.46 -4.13509 4.78741 0
M  V30 36698 C 3478.12 -4.20455 5.18434 0
M  V30 36699 H 3477.39 -0.697742 0.249472 0
M  V30 36700 H 3480.04 -1.44301 1.25894 0
M  V30 36701 H 3478.34 -3.89906 0.384825 0
M  V30 36702 H 3480.04 -3.93448 0.774558 0
M  V30 36703 H 3476.63 -3.68628 2.18657 0
M  V30 36704 H 3480.82 -3.82966 3.15675 0
M  V30 36705 H 3476.07 -4.08825 4.54612 0
M  V30 36706 H 3480.25 -4.24449 5.52101 0
M  V30 36707 H 3477.87 -4.36999 6.22042 0
M  V30 36708 N 3479.45 -0.775459 -1.37202 0
M  V30 36709 C 3480.41 -0.170447 -2.28565 0
M  V30 36710 C 3481.41 0.624059 -1.48196 0
M  V30 36711 O 3482.6 0.447103 -1.68365 0
M  V30 36712 C 3479.73 0.765771 -3.32188 0
M  V30 36713 H 3480.93 -0.975874 -2.83578 0
M  V30 36714 H 3478.48 -0.543921 -1.46531 0
M  V30 36715 H 3479.21 1.59606 -2.82305 0
M  V30 36716 H 3479 0.198183 -3.91599 0
M  V30 36717 H 3480.49 1.18439 -4.00452 0
M  V30 36718 N 3480.93 1.48552 -0.526305 0
M  V30 36719 C 3482.17 2.02798 0.00914443 0
M  V30 36720 C 3482.5 1.40293 1.34282 0
M  V30 36721 O 3481.78 0.547387 1.86638 0
M  V30 36722 C 3482.06 3.59847 0.135039 0
M  V30 36723 C 3481.92 4.32839 -1.22354 0
M  V30 36724 C 3483.23 4.31544 0.863597 0
M  V30 36725 H 3480.35 0.736998 0.00184921 0
M  V30 36726 H 3483 1.77314 -0.682622 0
M  V30 36727 H 3481.15 3.8169 0.724212 0
M  V30 36728 H 3482.82 4.22423 -1.85354 0
M  V30 36729 H 3481.06 3.94401 -1.80638 0
M  V30 36730 H 3481.73 5.41162 -1.08849 0
M  V30 36731 H 3484.21 4.14508 0.363661 0
M  V30 36732 H 3483.08 5.41125 0.920575 0
M  V30 36733 H 3483.34 3.98565 1.91306 0
M  V30 36734 N 3482.4 0.261267 1.55419 0
M  V30 36735 C 3483.35 -0.646404 2.18645 0
M  V30 36736 C 3484.34 -1.12866 1.14674 0
M  V30 36737 O 3485.53 -1.07604 1.40536 0
M  V30 36738 C 3482.66 -1.8365 2.90048 0
M  V30 36739 C 3481.74 -1.37207 4.01292 0
M  V30 36740 N 3482.14 -0.622839 5.01951 0
M  V30 36741 C 3480.43 -1.65618 4.14109 0
M  V30 36742 C 3481.13 -0.380467 5.80454 0
M  V30 36743 N 3480.11 -0.948875 5.35254 0
M  V30 36744 H 3483.91 -0.0659832 2.93826 0
M  V30 36745 H 3481.43 0.0642079 1.62273 0
M  V30 36746 H 3483.42 -2.4979 3.33782 0
M  V30 36747 H 3482.08 -2.421 2.16374 0
M  V30 36748 H 3483.09 -0.271528 5.17188 0
M  V30 36749 H 3479.77 -2.25104 3.51617 0
M  V30 36750 H 3481.16 0.218646 6.71544 0
M  V30 36751 N 3483.88 -1.57596 -0.0116567 0
M  V30 36752 C 3485.13 -1.90056 -0.698925 0
M  V30 36753 C 3485.46 -0.860689 -1.7442 0
M  V30 36754 O 3484.71 0.136098 -1.95226 0
M  V30 36755 C 3485.01 -3.29271 -1.38979 0
M  V30 36756 C 3484.68 -4.4835 -0.478837 0
M  V30 36757 C 3483.34 -4.8066 -0.227986 0
M  V30 36758 C 3485.69 -5.20987 0.149061 0
M  V30 36759 C 3483.02 -5.82984 0.65925 0
M  V30 36760 C 3485.37 -6.24255 1.0241 0
M  V30 36761 C 3484.03 -6.55029 1.28425 0
M  V30 36762 H 3483.3 -0.695464 -0.255755 0
M  V30 36763 H 3485.95 -1.91455 0.0413676 0
M  V30 36764 H 3484.26 -3.23941 -2.20384 0
M  V30 36765 H 3485.95 -3.51642 -1.92741 0
M  V30 36766 H 3482.54 -4.23099 -0.684515 0
M  V30 36767 H 3486.73 -4.9629 -0.0317454 0
M  V30 36768 H 3481.98 -6.05194 0.868926 0
M  V30 36769 H 3486.16 -6.79675 1.51706 0
M  V30 36770 H 3483.78 -7.34138 1.97345 0
M  V30 36771 N 3485.36 0.284228 -1.55016 0
M  V30 36772 C 3486.61 1.01503 -1.74299 0
M  V30 36773 C 3486.92 1.87849 -0.545167 0
M  V30 36774 O 3488.13 2.64322 -0.620165 0
M  V30 36775 C 3486.58 1.85451 -3.08441 0
M  V30 36776 C 3486.19 1.04026 -4.35755 0
M  V30 36777 C 3487.94 2.58029 -3.37078 0
M  V30 36778 C 3485.84 1.87348 -5.60941 0
M  V30 36779 H 3484.77 0.382693 -0.649663 0
M  V30 36780 H 3487.42 0.271207 -1.81485 0
M  V30 36781 H 3485.81 2.63886 -2.95263 0
M  V30 36782 H 3486.98 0.300873 -4.59817 0
M  V30 36783 H 3485.29 0.429543 -4.14179 0
M  V30 36784 H 3487.89 3.20751 -4.27812 0
M  V30 36785 H 3488.23 3.27733 -2.56704 0
M  V30 36786 H 3488.77 1.86632 -3.51302 0
M  V30 36787 H 3485.51 1.22084 -6.44031 0
M  V30 36788 H 3485.03 2.58914 -5.41039 0
M  V30 36789 H 3486.71 2.44988 -5.98824 0
M  V30 36790 N 3486.84 1.47758 0.548222 0
M  V30 36791 C 3488.06 1.58724 1.33497 0
M  V30 36792 C 3488.49 0.241067 1.86549 0
M  V30 36793 O 3487.85 -0.784488 1.63449 0
M  V30 36794 C 3487.89 2.62297 2.47452 0
M  V30 36795 O 3487 2.18191 3.49952 0
M  V30 36796 H 3486.34 0.532875 0.396156 0
M  V30 36797 H 3488.87 1.93608 0.661606 0
M  V30 36798 H 3488.88 2.83 2.93896 0
M  V30 36799 H 3487.55 3.60037 2.08197 0
M  V30 36800 H 3486.13 2.07626 3.09751 0
M  V30 36801 N 3488.32 -0.79567 1.3604 0
M  V30 36802 C 3489.26 -1.92944 1.29906 0
M  V30 36803 C 3490.26 -1.68309 0.191972 0
M  V30 36804 O 3491.46 -1.76392 0.358608 0
M  V30 36805 H 3487.84 -0.634094 0.404263 0
M  V30 36806 H 3489.81 -1.95237 2.25666 0
M  V30 36807 C 3488.56 -3.29877 1.09892 0
M  V30 36808 H 3487.88 -3.49397 1.94324 0
M  V30 36809 H 3489.32 -4.09578 1.09645 0
M  V30 36810 C 3487.78 -3.36325 -0.196743 0
M  V30 36811 O 3488.31 -3.83707 -1.18876 0
M  V30 36812 N 3486.52 -2.89613 -0.239274 0
M  V30 36813 H 3486.06 -2.51246 0.568616 0
M  V30 36814 H 3486.02 -2.94309 -1.10588 0
M  V30 36815 N 3489.79 -1.20217 -1.0191 0
M  V30 36816 C 3491.02 -1.03705 -1.79611 0
M  V30 36817 C 3491.44 0.409342 -1.83592 0
M  V30 36818 O 3490.8 1.29471 -1.26913 0
M  V30 36819 C 3490.85 -1.62225 -3.22049 0
M  V30 36820 O 3489.95 -0.858177 -4.03372 0
M  V30 36821 H 3489.3 -0.365899 -0.554088 0
M  V30 36822 H 3491.83 -1.59455 -1.282 0
M  V30 36823 H 3491.84 -1.65854 -3.72769 0
M  V30 36824 H 3490.51 -2.67493 -3.18466 0
M  V30 36825 H 3489.09 -0.895899 -3.61978 0
M  V30 36826 N 3491.27 1.21178 -1.00765 0
M  V30 36827 C 3492.52 1.90881 -0.702575 0
M  V30 36828 C 3492.87 1.76811 0.758655 0
M  V30 36829 O 3492.17 1.13572 1.54311 0
M  V30 36830 C 3492.36 3.41259 -1.06193 0
M  V30 36831 C 3492.19 3.69961 -2.55654 0
M  V30 36832 C 3490.96 3.89169 -3.22297 0
M  V30 36833 C 3493.16 3.7325 -3.5382 0
M  V30 36834 N 3491.14 4.05311 -4.61082 0
M  V30 36835 C 3492.51 3.94708 -4.78127 0
M  V30 36836 C 3494.57 3.56169 -3.47919 0
M  V30 36837 C 3493.27 4.00857 -5.97249 0
M  V30 36838 C 3495.29 3.63585 -4.66434 0
M  V30 36839 C 3494.66 3.85506 -5.89546 0
M  V30 36840 H 3490.76 0.718528 -0.308612 0
M  V30 36841 H 3493.34 1.45774 -1.29066 0
M  V30 36842 H 3491.51 3.85139 -0.502272 0
M  V30 36843 H 3493.24 3.984 -0.711316 0
M  V30 36844 H 3490 3.87184 -2.72737 0
M  V30 36845 H 3490.42 4.17277 -5.33112 0
M  V30 36846 H 3495.06 3.38194 -2.53741 0
M  V30 36847 H 3492.78 4.1763 -6.91817 0
M  V30 36848 H 3496.37 3.51687 -4.63473 0
M  V30 36849 H 3495.25 3.91092 -6.79718 0
M  V30 36850 N 3492.75 0.782725 1.36789 0
M  V30 36851 C 3493.68 0.190645 2.3272 0
M  V30 36852 C 3494.66 -0.670636 1.56322 0
M  V30 36853 O 3495.85 -0.605839 1.84508 0
M  V30 36854 C 3492.98 -0.680657 3.40565 0
M  V30 36855 C 3491.93 0.0801932 4.27925 0
M  V30 36856 C 3491.26 -0.911269 5.26878 0
M  V30 36857 C 3492.56 1.26554 5.06736 0
M  V30 36858 H 3494.25 0.992073 2.82486 0
M  V30 36859 H 3491.8 0.478508 1.35817 0
M  V30 36860 H 3493.75 -1.10475 4.06661 0
M  V30 36861 H 3492.47 -1.51472 2.89351 0
M  V30 36862 H 3491.13 0.485189 3.63375 0
M  V30 36863 H 3490.78 -1.74018 4.71939 0
M  V30 36864 H 3490.48 -0.406659 5.86191 0
M  V30 36865 H 3492 -1.33407 5.95848 0
M  V30 36866 H 3493.42 0.917547 5.6591 0
M  V30 36867 H 3491.82 1.70299 5.75429 0
M  V30 36868 H 3492.89 2.06423 4.38768 0
M  V30 36869 N 3494.23 -1.48271 0.534176 0
M  V30 36870 C 3495.16 -2.26553 -0.27365 0
M  V30 36871 C 3496.14 -1.326 -0.941062 0
M  V30 36872 O 3497.32 -1.61948 -0.964625 0
M  V30 36873 C 3494.45 -3.08958 -1.3879 0
M  V30 36874 C 3493.5 -4.18317 -0.831459 0
M  V30 36875 S 3494.33 -5.34637 0.303969 0
M  V30 36876 C 3495.49 -6.20602 -0.812658 0
M  V30 36877 H 3495.72 -2.94722 0.390691 0
M  V30 36878 H 3493.25 -1.51047 0.320041 0
M  V30 36879 H 3495.21 -3.57011 -2.02616 0
M  V30 36880 H 3493.87 -2.40195 -2.02398 0
M  V30 36881 H 3493.06 -4.75616 -1.66749 0
M  V30 36882 H 3492.67 -3.73025 -0.269815 0
M  V30 36883 H 3494.96 -6.55557 -1.71031 0
M  V30 36884 H 3495.9 -7.07556 -0.277545 0
M  V30 36885 H 3496.31 -5.53779 -1.09495 0
M  V30 36886 N 3495.71 -0.269505 -1.55279 0
M  V30 36887 C 3496.95 0.342412 -2.00497 0
M  V30 36888 C 3497.31 1.53903 -1.15462 0
M  V30 36889 O 3496.6 1.90386 -0.215375 0
M  V30 36890 C 3496.79 0.780474 -3.48774 0
M  V30 36891 C 3496.62 -0.372153 -4.48157 0
M  V30 36892 C 3495.39 -0.854134 -4.98029 0
M  V30 36893 C 3497.59 -1.20676 -4.99942 0
M  V30 36894 N 3495.57 -1.97681 -5.81202 0
M  V30 36895 C 3496.94 -2.17743 -5.80507 0
M  V30 36896 C 3499 -1.24075 -4.82193 0
M  V30 36897 C 3497.7 -3.17946 -6.45215 0
M  V30 36898 C 3499.73 -2.2312 -5.47697 0
M  V30 36899 C 3499.09 -3.18919 -6.28068 0
M  V30 36900 H 3495.19 0.0906248 -0.776731 0
M  V30 36901 H 3497.77 -0.392247 -1.90708 0
M  V30 36902 H 3495.94 1.48437 -3.58916 0
M  V30 36903 H 3497.68 1.36925 -3.80833 0
M  V30 36904 H 3494.43 -0.434393 -4.71604 0
M  V30 36905 H 3494.86 -2.5416 -6.27481 0
M  V30 36906 H 3499.5 -0.51391 -4.19665 0
M  V30 36907 H 3497.22 -3.91566 -7.06896 0
M  V30 36908 H 3500.8 -2.26483 -5.35907 0
M  V30 36909 H 3499.68 -3.94306 -6.77859 0
M  V30 36910 N 3497.18 1.576 0.00329885 0
M  V30 36911 C 3498.11 2.1125 0.994766 0
M  V30 36912 C 3499.1 1.02087 1.36059 0
M  V30 36913 O 3500.28 1.29752 1.44492 0
M  V30 36914 C 3497.41 2.6131 2.28767 0
M  V30 36915 C 3496.36 3.74969 2.06355 0
M  V30 36916 C 3495.69 4.1133 3.4163 0
M  V30 36917 C 3496.99 5.02377 1.42881 0
M  V30 36918 H 3498.68 2.94341 0.548067 0
M  V30 36919 H 3496.23 1.41593 0.262184 0
M  V30 36920 H 3498.18 2.97469 2.98479 0
M  V30 36921 H 3496.91 1.75336 2.75544 0
M  V30 36922 H 3495.57 3.39198 1.3907 0
M  V30 36923 H 3495.21 3.22385 3.86104 0
M  V30 36924 H 3494.91 4.87903 3.27451 0
M  V30 36925 H 3496.44 4.50046 4.12663 0
M  V30 36926 H 3497.85 5.36329 2.02545 0
M  V30 36927 H 3496.25 5.83732 1.392 0
M  V30 36928 H 3497.32 4.83267 0.397623 0
M  V30 36929 N 3498.66 -0.276003 1.55164 0
M  V30 36930 C 3499.91 -1.00577 1.74835 0
M  V30 36931 C 3500.22 -1.87557 0.555122 0
M  V30 36932 O 3501.43 -2.6399 0.634174 0
M  V30 36933 C 3499.89 -1.83813 3.0942 0
M  V30 36934 C 3499.49 -1.01714 4.36301 0
M  V30 36935 C 3501.24 -2.56238 3.38441 0
M  V30 36936 C 3499.15 -1.8437 5.61927 0
M  V30 36937 H 3498.08 -0.379243 0.651683 0
M  V30 36938 H 3500.73 -0.261579 1.81626 0
M  V30 36939 H 3499.11 -2.62316 2.96659 0
M  V30 36940 H 3500.28 -0.276484 4.5997 0
M  V30 36941 H 3498.6 -0.407572 4.14401 0
M  V30 36942 H 3501.19 -3.18478 4.29507 0
M  V30 36943 H 3501.54 -3.26367 2.58438 0
M  V30 36944 H 3502.07 -1.84766 3.52287 0
M  V30 36945 H 3498.81 -1.18667 6.44669 0
M  V30 36946 H 3498.33 -2.56041 5.42405 0
M  V30 36947 H 3500.01 -2.41809 6.00114 0
M  V30 36948 N 3500.14 -1.48046 -0.540378 0
M  V30 36949 C 3501.39 -1.5479 -1.29318 0
M  V30 36950 C 3501.7 -0.222143 -1.94334 0
M  V30 36951 O 3502.91 -0.167723 -2.70981 0
M  V30 36952 C 3501.36 -2.72939 -2.3459 0
M  V30 36953 C 3500.97 -4.12114 -1.75689 0
M  V30 36954 C 3502.72 -2.88988 -3.10944 0
M  V30 36955 C 3500.62 -5.21538 -2.7884 0
M  V30 36956 H 3499.55 -0.576214 -0.486305 0
M  V30 36957 H 3502.2 -1.74358 -0.571968 0
M  V30 36958 H 3500.59 -2.46783 -3.097 0
M  V30 36959 H 3501.76 -4.48244 -1.06837 0
M  V30 36960 H 3500.08 -4.01093 -1.11862 0
M  V30 36961 H 3502.67 -3.67907 -3.88006 0
M  V30 36962 H 3503.02 -1.98054 -3.6617 0
M  V30 36963 H 3503.55 -3.14994 -2.42948 0
M  V30 36964 H 3500.29 -6.14404 -2.28448 0
M  V30 36965 H 3499.81 -4.89907 -3.4605 0
M  V30 36966 H 3501.49 -5.49209 -3.42021 0
M  V30 36967 N 3501.62 0.788444 -1.3646 0
M  V30 36968 C 3502.57 1.92252 -1.30927 0
M  V30 36969 C 3503.56 1.68205 -0.200895 0
M  V30 36970 O 3504.77 1.76199 -0.367958 0
M  V30 36971 H 3501.14 0.631941 -0.40762 0
M  V30 36972 H 3503.11 1.94037 -2.26698 0
M  V30 36973 C 3501.86 3.2929 -1.1164 0
M  V30 36974 H 3501.18 3.48361 -1.96175 0
M  V30 36975 H 3502.62 4.08991 -1.11815 0
M  V30 36976 C 3501.08 3.36425 0.178904 0
M  V30 36977 O 3501.61 3.84332 1.16839 0
M  V30 36978 N 3499.82 2.89736 0.223911 0
M  V30 36979 H 3499.37 2.50941 -0.581932 0
M  V30 36980 H 3499.32 2.94891 1.09025 0
M  V30 36981 N 3503.1 1.20755 1.01271 0
M  V30 36982 C 3504.03 0.983842 2.11761 0
M  V30 36983 C 3505.01 -0.0885337 1.69869 0
M  V30 36984 O 3506.19 0.069758 1.94075 0
M  V30 36985 C 3503.32 0.539348 3.43086 0
M  V30 36986 C 3502.28 1.55541 3.98737 0
M  V30 36987 C 3501.6 0.967414 5.25876 0
M  V30 36988 C 3502.9 2.94019 4.31683 0
M  V30 36989 H 3504.6 1.90794 2.30734 0
M  V30 36990 H 3502.14 0.918754 1.10882 0
M  V30 36991 H 3504.1 0.370053 4.19772 0
M  V30 36992 H 3502.82 -0.420378 3.23883 0
M  V30 36993 H 3501.48 1.71213 3.24163 0
M  V30 36994 H 3501.13 -0.000359892 5.03 0
M  V30 36995 H 3500.83 1.64604 5.64074 0
M  V30 36996 H 3502.35 0.809273 6.05213 0
M  V30 36997 H 3503.76 2.81835 4.99241 0
M  V30 36998 H 3502.16 3.58824 4.81005 0
M  V30 36999 H 3503.23 3.45448 3.40284 0
M  V30 37000 N 3504.58 -1.20642 1.01406 0
M  V30 37001 C 3505.82 -1.90226 0.702982 0
M  V30 37002 C 3506.15 -1.78489 -0.765212 0
M  V30 37003 O 3505.43 -1.16744 -1.55567 0
M  V30 37004 C 3505.71 -3.41708 1.13612 0
M  V30 37005 C 3505.57 -3.62392 2.66443 0
M  V30 37006 C 3506.88 -4.34409 0.705438 0
M  V30 37007 H 3504 -0.690793 0.256855 0
M  V30 37008 H 3506.65 -1.42091 1.26136 0
M  V30 37009 H 3504.8 -3.82835 0.661044 0
M  V30 37010 H 3506.47 -3.30534 3.21784 0
M  V30 37011 H 3504.71 -3.05948 3.07535 0
M  V30 37012 H 3505.38 -4.68567 2.91803 0
M  V30 37013 H 3507.86 -4.00916 1.11382 0
M  V30 37014 H 3506.73 -5.39024 1.03656 0
M  V30 37015 H 3506.99 -4.4035 -0.393017 0
M  V30 37016 N 3506.05 -0.789968 -1.36372 0
M  V30 37017 C 3506.99 -0.146682 -2.2873 0
M  V30 37018 C 3508 0.644392 -1.49504 0
M  V30 37019 O 3509.19 0.479485 -1.7194 0
M  V30 37020 C 3506.29 0.815311 -3.28947 0
M  V30 37021 C 3505.46 0.0741747 -4.37337 0
M  V30 37022 C 3504.52 0.952193 -5.17513 0
M  V30 37023 O 3503.55 0.409237 -5.67727 0
M  V30 37024 N 3504.75 2.27638 -5.34005 0
M  V30 37025 H 3507.51 -0.940028 -2.84576 0
M  V30 37026 H 3505.07 -0.643924 -1.48544 0
M  V30 37027 H 3507.07 1.40654 -3.79471 0
M  V30 37028 H 3505.64 1.50953 -2.73737 0
M  V30 37029 H 3504.86 -0.698136 -3.87969 0
M  V30 37030 H 3506.14 -0.437237 -5.06918 0
M  V30 37031 H 3505.54 2.74164 -4.94824 0
M  V30 37032 H 3504.1 2.81724 -5.87771 0
M  V30 37033 N 3507.53 1.47986 -0.542031 0
M  V30 37034 C 3508.46 2.26695 0.261631 0
M  V30 37035 C 3509.44 1.33097 0.934016 0
M  V30 37036 O 3510.63 1.62458 0.956023 0
M  V30 37037 C 3507.75 3.0969 1.3715 0
M  V30 37038 C 3506.8 4.18752 0.809263 0
M  V30 37039 S 3507.63 5.34468 -0.332318 0
M  V30 37040 C 3508.79 6.21024 0.779734 0
M  V30 37041 H 3509.02 2.9451 -0.406315 0
M  V30 37042 H 3506.55 1.50875 -0.328047 0
M  V30 37043 H 3508.51 3.58081 2.0072 0
M  V30 37044 H 3507.17 2.41265 2.01122 0
M  V30 37045 H 3506.37 4.76494 1.64225 0
M  V30 37046 H 3505.97 3.73163 0.250029 0
M  V30 37047 H 3508.26 6.56454 1.67552 0
M  V30 37048 H 3509.2 7.07693 0.240018 0
M  V30 37049 H 3509.61 5.54352 1.06557 0
M  V30 37050 N 3509.01 0.277736 1.55133 0
M  V30 37051 C 3509.97 -0.595531 2.21328 0
M  V30 37052 C 3510.97 -1.07931 1.19195 0
M  V30 37053 O 3512.16 -0.979068 1.44083 0
M  V30 37054 C 3509.29 -1.82191 2.88131 0
M  V30 37055 H 3510.49 -0.0175328 2.99895 0
M  V30 37056 H 3508.04 0.0283728 1.56274 0
M  V30 37057 H 3508.78 -2.44035 2.13582 0
M  V30 37058 H 3508.56 -1.4829 3.62977 0
M  V30 37059 H 3510.05 -2.44285 3.38696 0
M  V30 37060 N 3510.49 -1.57599 0.00505908 0
M  V30 37061 C 3511.9 -1.78808 -0.537074 0
M  V30 37062 C 3512.25 -0.912976 -1.73664 0
M  V30 37063 O 3511.37 -0.116813 -2.16084 0
M  V30 37064 C 3511.97 -3.24284 -0.981103 0
M  V30 37065 C 3510.53 -3.46571 -1.46851 0
M  V30 37066 C 3509.68 -2.7407 -0.42204 0
M  V30 37067 H 3512.63 -1.57007 0.23121 0
M  V30 37068 H 3512.65 -3.32674 -1.84684 0
M  V30 37069 H 3512.16 -3.8795 -0.107839 0
M  V30 37070 H 3510.26 -2.88126 -2.3625 0
M  V30 37071 H 3510.37 -4.5526 -1.49248 0
M  V30 37072 H 3508.74 -2.38837 -0.884811 0
M  V30 37073 H 3509.52 -3.40438 0.442345 0
M  V30 37074 N 3511.97 0.267771 -1.55309 0
M  V30 37075 C 3513.21 0.996484 -1.75366 0
M  V30 37076 C 3513.53 1.8726 -0.56506 0
M  V30 37077 O 3514.73 2.6365 -0.648165 0
M  V30 37078 C 3513.19 1.82169 -3.10391 0
M  V30 37079 C 3512.8 0.993985 -4.36834 0
M  V30 37080 C 3514.54 2.54439 -3.39795 0
M  V30 37081 C 3512.45 1.81388 -5.62896 0
M  V30 37082 H 3511.38 0.375781 -0.653685 0
M  V30 37083 H 3514.03 0.251943 -1.81762 0
M  V30 37084 H 3512.41 2.60739 -2.98046 0
M  V30 37085 H 3513.59 0.252086 -4.6011 0
M  V30 37086 H 3511.9 0.385589 -4.14611 0
M  V30 37087 H 3514.5 3.16196 -4.3119 0
M  V30 37088 H 3514.84 3.24992 -2.60165 0
M  V30 37089 H 3515.37 1.82896 -3.53262 0
M  V30 37090 H 3512.11 1.15247 -6.45289 0
M  V30 37091 H 3511.63 2.53161 -5.43755 0
M  V30 37092 H 3513.31 2.38623 -6.01388 0
M  V30 37093 N 3513.44 1.48331 0.532519 0
M  V30 37094 C 3514.67 1.60131 1.31806 0
M  V30 37095 C 3515.09 0.26084 1.86283 0
M  V30 37096 O 3514.45 -0.767108 1.64272 0
M  V30 37097 C 3514.5 2.64907 2.44656 0
M  V30 37098 O 3513.6 2.21891 3.47618 0
M  V30 37099 H 3512.94 0.537047 0.390482 0
M  V30 37100 H 3515.47 1.94299 0.641034 0
M  V30 37101 H 3515.48 2.86101 2.90878 0
M  V30 37102 H 3514.16 3.62225 2.04366 0
M  V30 37103 H 3512.74 2.10899 3.07532 0
M  V30 37104 N 3514.92 -0.781196 1.36876 0
M  V30 37105 C 3515.88 -1.87577 1.3171 0
M  V30 37106 C 3516.88 -1.59245 0.223072 0
M  V30 37107 O 3518.07 -1.67503 0.478356 0
M  V30 37108 C 3515.21 -3.24528 1.04376 0
M  V30 37109 H 3516.4 -1.93572 2.29063 0
M  V30 37110 H 3513.95 -0.979909 1.21768 0
M  V30 37111 H 3514.69 -3.24213 0.0751511 0
M  V30 37112 H 3514.47 -3.46483 1.83554 0
M  V30 37113 H 3515.96 -4.046 1.03387 0
M  V30 37114 N 3516.4 -1.21291 -1.0063 0
M  V30 37115 C 3517.33 -0.914295 -2.09083 0
M  V30 37116 C 3518.31 0.137668 -1.62016 0
M  V30 37117 O 3519.49 0.00898818 -1.88498 0
M  V30 37118 C 3516.62 -0.372599 -3.36644 0
M  V30 37119 C 3515.67 -1.40716 -4.02618 0
M  V30 37120 S 3516.5 -2.97589 -4.45197 0
M  V30 37121 C 3517.66 -2.45023 -5.75947 0
M  V30 37122 H 3517.89 -1.83272 -2.34091 0
M  V30 37123 H 3515.42 -1.0425 -1.13891 0
M  V30 37124 H 3517.38 -0.0666283 -4.10446 0
M  V30 37125 H 3516.04 0.524492 -3.0969 0
M  V30 37126 H 3515.23 -0.977729 -4.94425 0
M  V30 37127 H 3514.84 -1.66114 -3.35085 0
M  V30 37128 H 3517.13 -1.85428 -6.51631 0
M  V30 37129 H 3518.07 -3.35268 -6.237 0
M  V30 37130 H 3518.48 -1.8678 -5.32704 0
M  V30 37131 N 3517.88 1.20103 -1.02045 0
M  V30 37132 C 3519.12 1.89851 -0.713061 0
M  V30 37133 C 3519.46 1.78892 0.755735 0
M  V30 37134 O 3518.73 1.17567 1.54946 0
M  V30 37135 C 3519.01 3.41101 -1.15423 0
M  V30 37136 C 3518.87 3.60974 -2.68362 0
M  V30 37137 C 3520.19 4.34029 -0.728466 0
M  V30 37138 H 3517.31 0.689421 -0.260514 0
M  V30 37139 H 3519.95 1.4142 -1.26887 0
M  V30 37140 H 3518.1 3.82479 -0.681337 0
M  V30 37141 H 3519.77 3.28823 -3.23532 0
M  V30 37142 H 3518.01 3.04313 -3.09154 0
M  V30 37143 H 3518.68 4.67013 -2.94284 0
M  V30 37144 H 3521.16 4.00319 -1.13506 0
M  V30 37145 H 3520.04 5.38466 -1.06514 0
M  V30 37146 H 3520.3 4.40552 0.369658 0
M  V30 37147 N 3519.36 0.797189 1.35951 0
M  V30 37148 C 3520.77 0.479792 1.52217 0
M  V30 37149 C 3520.97 -1.00061 1.749 0
M  V30 37150 O 3520.03 -1.7859 1.78498 0
M  V30 37151 C 3521.34 1.31699 2.70326 0
M  V30 37152 C 3522.89 1.31147 2.842 0
M  V30 37153 C 3523.36 2.13258 4.05321 0
M  V30 37154 N 3524.86 2.10745 4.12482 0
M  V30 37155 C 3525.59 2.71042 5.05296 0
M  V30 37156 N 3525.09 3.40229 6.03503 0
M  V30 37157 N 3526.88 2.60734 4.9797 0
M  V30 37158 H 3519.03 1.75606 1.19483 0
M  V30 37159 H 3521.29 0.746902 0.583817 0
M  V30 37160 H 3521 2.36717 2.60112 0
M  V30 37161 H 3520.87 0.963671 3.64682 0
M  V30 37162 H 3523.26 0.269183 2.9387 0
M  V30 37163 H 3523.34 1.7046 1.90727 0
M  V30 37164 H 3522.99 3.17522 3.96412 0
M  V30 37165 H 3522.92 1.71311 4.97956 0
M  V30 37166 H 3525.41 1.60396 3.42172 0
M  V30 37167 H 3525.72 3.83549 6.70902 0
M  V30 37168 H 3524.06 3.44333 6.03705 0
M  V30 37169 H 3527.26 2.06277 4.20199 0
M  V30 37170 H 3527.43 3.08017 5.70114 0
M  V30 37171 N 3520.83 -1.47696 0.549872 0
M  V30 37172 C 3521.77 -2.26831 -0.249605 0
M  V30 37173 C 3522.75 -1.33591 -0.926945 0
M  V30 37174 O 3523.93 -1.62962 -0.947394 0
M  V30 37175 C 3521.06 -3.10413 -1.35506 0
M  V30 37176 C 3520.1 -4.19175 -0.787044 0
M  V30 37177 S 3520.94 -5.34284 0.360658 0
M  V30 37178 C 3522.09 -6.21429 -0.746789 0
M  V30 37179 H 3522.32 -2.94291 0.421928 0
M  V30 37180 H 3519.86 -1.50699 0.336043 0
M  V30 37181 H 3521.82 -3.5914 -1.98818 0
M  V30 37182 H 3520.48 -2.42328 -1.99839 0
M  V30 37183 H 3519.67 -4.77358 -1.61695 0
M  V30 37184 H 3519.27 -3.73291 -0.230236 0
M  V30 37185 H 3521.56 -6.57334 -1.64069 0
M  V30 37186 H 3522.51 -7.0781 -0.202484 0
M  V30 37187 H 3522.91 -5.54909 -1.03615 0
M  V30 37188 N 3522.31 -0.285959 -1.54984 0
M  V30 37189 C 3523.54 0.330259 -2.03943 0
M  V30 37190 C 3523.95 1.49205 -1.16338 0
M  V30 37191 O 3523.29 1.82832 -0.178373 0
M  V30 37192 C 3523.36 0.863418 -3.48978 0
M  V30 37193 C 3523.02 -0.171139 -4.56679 0
M  V30 37194 C 3524.02 -0.994419 -5.10301 0
M  V30 37195 C 3521.7 -0.308504 -5.01352 0
M  V30 37196 C 3523.7 -1.94115 -6.07123 0
M  V30 37197 C 3521.38 -1.2587 -5.97997 0
M  V30 37198 C 3522.38 -2.07351 -6.50765 0
M  V30 37199 O 3522.07 -3.00762 -7.45518 0
M  V30 37200 H 3521.8 0.0779334 -0.671493 0
M  V30 37201 H 3524.35 -0.419046 -2.0108 0
M  V30 37202 H 3522.58 1.66299 -3.49116 0
M  V30 37203 H 3524.27 1.39389 -3.81216 0
M  V30 37204 H 3525.04 -0.899086 -4.76594 0
M  V30 37205 H 3520.92 0.315736 -4.59918 0
M  V30 37206 H 3524.46 -2.57754 -6.48235 0
M  V30 37207 H 3520.36 -1.35481 -6.31122 0
M  V30 37208 H 3521.13 -2.95568 -7.63271 0
M  V30 37209 N 3523.79 1.57594 -0.0134169 0
M  V30 37210 C 3525.04 1.90322 0.667862 0
M  V30 37211 C 3525.35 0.889871 1.74186 0
M  V30 37212 O 3526.56 1.10784 2.47869 0
M  V30 37213 C 3525.01 3.37896 1.23911 0
M  V30 37214 C 3524.62 4.47557 0.199234 0
M  V30 37215 C 3526.37 3.79715 1.89781 0
M  V30 37216 C 3524.27 5.86217 0.781236 0
M  V30 37217 H 3523.2 0.71021 0.253216 0
M  V30 37218 H 3525.85 1.83342 -0.0761551 0
M  V30 37219 H 3524.24 3.39757 2.03423 0
M  V30 37220 H 3525.41 4.57233 -0.572276 0
M  V30 37221 H 3523.73 4.14843 -0.359792 0
M  V30 37222 H 3526.32 4.80655 2.34253 0
M  V30 37223 H 3526.67 3.13939 2.73401 0
M  V30 37224 H 3527.2 3.8021 1.16983 0
M  V30 37225 H 3523.94 6.55498 -0.016475 0
M  V30 37226 H 3523.46 5.80179 1.52159 0
M  V30 37227 H 3525.14 6.34297 1.27579 0
M  V30 37228 N 3525.27 -0.259531 1.55448 0
M  V30 37229 C 3526.52 -0.989319 1.76688 0
M  V30 37230 C 3526.84 -1.85792 0.575467 0
M  V30 37231 O 3526.1 -1.90652 -0.441642 0
M  V30 37232 C 3526.4 -1.89067 3.03296 0
M  V30 37233 C 3526.06 -1.17847 4.35227 0
M  V30 37234 C 3524.73 -0.981592 4.71082 0
M  V30 37235 C 3527.08 -0.672709 5.1684 0
M  V30 37236 C 3524.41 -0.266448 5.86095 0
M  V30 37237 C 3526.76 0.0289077 6.32593 0
M  V30 37238 C 3525.42 0.237378 6.67078 0
M  V30 37239 H 3524.69 -0.362018 0.646548 0
M  V30 37240 H 3527.34 -0.260454 1.89721 0
M  V30 37241 H 3525.64 -2.68619 2.85221 0
M  V30 37242 H 3527.34 -2.45679 3.16927 0
M  V30 37243 H 3523.93 -1.34184 4.07053 0
M  V30 37244 H 3528.11 -0.812395 4.89606 0
M  V30 37245 H 3523.37 -0.0943372 6.11327 0
M  V30 37246 H 3527.54 0.4285 6.9508 0
M  V30 37247 H 3525.17 0.793491 7.56047 0
M  V30 37248 N 3526.75 -1.48611 -0.524645 0
M  V30 37249 C 3527.99 -1.569 -1.28018 0
M  V30 37250 C 3528.32 -0.245237 -1.92948 0
M  V30 37251 O 3527.58 0.764935 -1.80131 0
M  V30 37252 C 3527.88 -2.65998 -2.38705 0
M  V30 37253 C 3527.54 -4.08264 -1.91393 0
M  V30 37254 C 3526.2 -4.46985 -1.78207 0
M  V30 37255 C 3528.56 -4.97399 -1.55704 0
M  V30 37256 C 3525.88 -5.72639 -1.27677 0
M  V30 37257 C 3528.24 -6.23548 -1.06634 0
M  V30 37258 C 3526.9 -6.6112 -0.920702 0
M  V30 37259 H 3526.17 -0.574138 -0.468451 0
M  V30 37260 H 3528.82 -1.8235 -0.584869 0
M  V30 37261 H 3527.12 -2.34428 -3.13928 0
M  V30 37262 H 3528.82 -2.69625 -2.96822 0
M  V30 37263 H 3525.41 -3.77688 -2.02607 0
M  V30 37264 H 3529.59 -4.68158 -1.64749 0
M  V30 37265 H 3524.85 -6.0047 -1.15092 0
M  V30 37266 H 3529.02 -6.92008 -0.780926 0
M  V30 37267 H 3526.65 -7.58371 -0.526958 0
M  V30 37268 N 3528.22 0.773926 -1.37289 0
M  V30 37269 C 3529.19 1.86876 -1.32703 0
M  V30 37270 C 3530.19 1.59125 -0.231514 0
M  V30 37271 O 3531.38 1.67247 -0.487232 0
M  V30 37272 C 3528.51 3.2397 -1.06096 0
M  V30 37273 H 3529.7 1.92355 -2.30086 0
M  V30 37274 H 3527.26 0.973438 -1.22286 0
M  V30 37275 H 3527.99 3.24168 -0.0923438 0
M  V30 37276 H 3527.78 3.45504 -1.85389 0
M  V30 37277 H 3529.27 4.04046 -1.05531 0
M  V30 37278 N 3529.7 1.21823 0.99985 0
M  V30 37279 C 3530.93 1.06549 1.77938 0
M  V30 37280 C 3531.35 -0.380083 1.8422 0
M  V30 37281 O 3530.71 -1.27436 1.28957 0
M  V30 37282 C 3530.76 1.67328 3.19427 0
M  V30 37283 O 3529.86 0.922241 4.01956 0
M  V30 37284 H 3529.2 0.374668 0.548197 0
M  V30 37285 H 3531.73 1.61474 1.25647 0
M  V30 37286 H 3531.74 1.71763 3.70083 0
M  V30 37287 H 3530.42 2.72525 3.1417 0
M  V30 37288 H 3529 0.953373 3.60507 0
M  V30 37289 N 3531.18 -1.1956 1.0268 0
M  V30 37290 C 3532.43 -1.8919 0.722049 0
M  V30 37291 C 3532.76 -1.79492 -0.749186 0
M  V30 37292 O 3532.01 -1.18028 -1.56102 0
M  V30 37293 C 3532.31 -3.39527 1.11609 0
M  V30 37294 C 3531.98 -3.69426 2.58524 0
M  V30 37295 C 3530.64 -3.77297 2.98664 0
M  V30 37296 C 3532.99 -3.82919 3.53585 0
M  V30 37297 C 3530.32 -3.96127 4.32782 0
M  V30 37298 C 3532.67 -4.03261 4.87405 0
M  V30 37299 C 3531.33 -4.09364 5.27236 0
M  V30 37300 H 3530.6 -0.692294 0.264217 0
M  V30 37301 H 3533.25 -1.41598 1.28927 0
M  V30 37302 H 3531.56 -3.89002 0.467443 0
M  V30 37303 H 3533.25 -3.91717 0.85784 0
M  V30 37304 H 3529.84 -3.63907 2.26427 0
M  V30 37305 H 3534.03 -3.76184 3.23728 0
M  V30 37306 H 3529.28 -3.9909 4.63182 0
M  V30 37307 H 3533.46 -4.12643 5.6098 0
M  V30 37308 H 3531.08 -4.23707 6.31171 0
M  V30 37309 N 3532.66 -0.804387 -1.35526 0
M  V30 37310 C 3533.89 -0.395553 -2.02778 0
M  V30 37311 C 3534.3 0.997543 -1.60766 0
M  V30 37312 O 3533.64 1.65377 -0.799766 0
M  V30 37313 C 3533.7 -0.396967 -3.57302 0
M  V30 37314 C 3533.37 -1.7402 -4.22571 0
M  V30 37315 C 3534.36 -2.69813 -4.44406 0
M  V30 37316 C 3532.05 -2.0236 -4.59734 0
M  V30 37317 C 3534.04 -3.92133 -5.02505 0
M  V30 37318 C 3531.73 -3.24943 -5.17547 0
M  V30 37319 C 3532.73 -4.19647 -5.38874 0
M  V30 37320 O 3532.41 -5.40067 -5.95469 0
M  V30 37321 H 3532.15 -0.159142 -0.657001 0
M  V30 37322 H 3534.7 -1.0887 -1.74174 0
M  V30 37323 H 3532.93 0.352768 -3.85088 0
M  V30 37324 H 3534.62 -0.0107468 -4.05899 0
M  V30 37325 H 3535.39 -2.49209 -4.16077 0
M  V30 37326 H 3531.26 -1.29458 -4.4245 0
M  V30 37327 H 3534.81 -4.66064 -5.19066 0
M  V30 37328 H 3530.71 -3.45419 -5.45304 0
M  V30 37329 H 3531.47 -5.41334 -6.13922 0
M  V30 37330 N 3534.14 1.47403 -0.557697 0
M  V30 37331 C 3535.37 2.06564 -0.0386401 0
M  V30 37332 C 3535.78 1.41076 1.26072 0
M  V30 37333 O 3535.12 0.501484 1.76722 0
M  V30 37334 C 3535.18 3.5878 0.227397 0
M  V30 37335 C 3534.84 4.46311 -0.982604 0
M  V30 37336 C 3535.84 4.84396 -1.8883 0
M  V30 37337 C 3533.53 4.87819 -1.19741 0
M  V30 37338 C 3535.52 5.62787 -2.99248 0
M  V30 37339 C 3533.21 5.65975 -2.30469 0
M  V30 37340 C 3534.21 6.0337 -3.20053 0
M  V30 37341 O 3533.89 6.79951 -4.28861 0
M  V30 37342 H 3533.63 0.674629 -0.0430348 0
M  V30 37343 H 3536.18 1.90387 -0.770835 0
M  V30 37344 H 3534.41 3.73171 1.01391 0
M  V30 37345 H 3536.1 3.9996 0.691895 0
M  V30 37346 H 3536.86 4.52928 -1.73439 0
M  V30 37347 H 3532.74 4.58178 -0.509304 0
M  V30 37348 H 3536.29 5.91894 -3.69197 0
M  V30 37349 H 3532.18 5.96856 -2.45832 0
M  V30 37350 H 3532.95 6.98345 -4.26915 0
M  V30 37351 N 3535.62 0.294175 1.5483 0
M  V30 37352 C 3536.86 -0.31757 2.00298 0
M  V30 37353 C 3537.19 -1.54062 1.1823 0
M  V30 37354 O 3536.47 -1.92794 0.257068 0
M  V30 37355 C 3536.75 -0.680929 3.53603 0
M  V30 37356 C 3536.61 0.55079 4.46415 0
M  V30 37357 C 3537.92 -1.51008 4.13382 0
M  V30 37358 H 3535.04 -0.113953 0.728137 0
M  V30 37359 H 3537.69 0.404915 1.85635 0
M  V30 37360 H 3535.84 -1.29648 3.66229 0
M  V30 37361 H 3537.51 1.1893 4.45705 0
M  V30 37362 H 3535.75 1.18532 4.17292 0
M  V30 37363 H 3536.42 0.252509 5.51422 0
M  V30 37364 H 3538.9 -0.990049 4.0415 0
M  V30 37365 H 3537.77 -1.73311 5.20821 0
M  V30 37366 H 3538.03 -2.49716 3.64821 0
M  V30 37367 N 3537.09 -1.57585 0.0217743 0
M  V30 37368 C 3538.34 -1.9261 -0.653681 0
M  V30 37369 C 3538.69 -0.898028 -1.70156 0
M  V30 37370 O 3537.99 0.0869317 -1.91403 0
M  V30 37371 C 3538.18 -3.32145 -1.31964 0
M  V30 37372 C 3538.01 -4.4843 -0.337781 0
M  V30 37373 C 3536.78 -5.05265 0.059708 0
M  V30 37374 C 3538.98 -5.12703 0.404934 0
M  V30 37375 N 3536.96 -6.0507 1.0375 0
M  V30 37376 C 3538.33 -6.0754 1.23671 0
M  V30 37377 C 3540.39 -4.9571 0.466428 0
M  V30 37378 C 3539.09 -6.87213 2.12442 0
M  V30 37379 C 3541.12 -5.75985 1.34144 0
M  V30 37380 C 3540.48 -6.70432 2.16102 0
M  V30 37381 H 3536.58 -0.75279 -0.211735 0
M  V30 37382 H 3539.16 -1.94505 0.0872288 0
M  V30 37383 H 3537.33 -3.31083 -2.03072 0
M  V30 37384 H 3539.06 -3.54538 -1.95153 0
M  V30 37385 H 3535.82 -4.72563 -0.313216 0
M  V30 37386 H 3536.24 -6.5966 1.52242 0
M  V30 37387 H 3540.88 -4.22523 -0.15295 0
M  V30 37388 H 3538.6 -7.5971 2.75438 0
M  V30 37389 H 3542.19 -5.64872 1.39322 0
M  V30 37390 H 3541.07 -7.31466 2.82713 0
M  V30 37391 N 3538.57 0.251283 -1.55584 0
M  V30 37392 C 3539.52 1.31105 -1.89948 0
M  V30 37393 C 3540.49 1.48039 -0.753235 0
M  V30 37394 O 3541.67 1.62094 -1.00649 0
M  V30 37395 C 3538.81 2.6623 -2.19581 0
M  V30 37396 C 3537.93 2.57339 -3.46988 0
M  V30 37397 C 3537.06 3.84788 -3.66213 0
M  V30 37398 C 3536.1 3.70497 -4.87236 0
M  V30 37399 N 3535.24 4.89828 -5.03004 0
M  V30 37400 H 3540.08 1.01099 -2.80327 0
M  V30 37401 H 3537.61 0.487961 -1.38771 0
M  V30 37402 H 3539.57 3.44878 -2.34766 0
M  V30 37403 H 3538.2 2.94393 -1.32411 0
M  V30 37404 H 3537.25 1.70283 -3.40159 0
M  V30 37405 H 3538.57 2.42687 -4.3578 0
M  V30 37406 H 3537.72 4.7188 -3.81333 0
M  V30 37407 H 3536.46 4.02332 -2.75645 0
M  V30 37408 H 3535.46 2.81788 -4.72097 0
M  V30 37409 H 3536.69 3.54451 -5.79259 0
M  V30 37410 H 3534.64 5.07741 -4.15373 0
M  V30 37411 H 3534.55 4.7779 -5.85878 0
M  V30 37412 H 3535.82 5.7843 -5.22531 0
M  V30 37413 N 3540.05 1.48887 0.516757 0
M  V30 37414 C 3541.27 1.6152 1.301 0
M  V30 37415 C 3541.7 0.280583 1.85996 0
M  V30 37416 O 3541.06 -0.749642 1.65076 0
M  V30 37417 C 3541.11 2.67487 2.41833 0
M  V30 37418 O 3540.21 2.25565 3.45245 0
M  V30 37419 H 3539.55 0.541159 0.384764 0
M  V30 37420 H 3542.08 1.94968 0.62039 0
M  V30 37421 H 3542.09 2.8917 2.87827 0
M  V30 37422 H 3540.77 3.64373 2.00513 0
M  V30 37423 H 3539.34 2.14149 3.05278 0
M  V30 37424 N 3541.53 -0.766635 1.37697 0
M  V30 37425 C 3542.76 -1.55353 1.36195 0
M  V30 37426 C 3543.17 -1.89125 -0.0533815 0
M  V30 37427 O 3542.51 -1.52314 -1.02694 0
M  V30 37428 C 3542.57 -2.88829 2.14052 0
M  V30 37429 C 3542.23 -2.77666 3.62975 0
M  V30 37430 C 3543.23 -2.48347 4.56749 0
M  V30 37431 C 3540.92 -2.95527 4.06164 0
M  V30 37432 C 3542.91 -2.37025 5.91691 0
M  V30 37433 C 3540.6 -2.83826 5.41189 0
M  V30 37434 C 3541.6 -2.54616 6.33766 0
M  V30 37435 O 3541.28 -2.4295 7.6631 0
M  V30 37436 H 3541.02 -0.487757 0.468049 0
M  V30 37437 H 3543.57 -0.957618 1.81711 0
M  V30 37438 H 3541.8 -3.50559 1.63234 0
M  V30 37439 H 3543.49 -3.50258 2.0512 0
M  V30 37440 H 3544.25 -2.34228 4.24691 0
M  V30 37441 H 3540.13 -3.17263 3.34462 0
M  V30 37442 H 3543.68 -2.14147 6.63918 0
M  V30 37443 H 3539.57 -2.97514 5.72849 0
M  V30 37444 H 3540.34 -2.58261 7.76688 0
M  V30 37445 N 3543.01 -1.22351 -0.993375 0
M  V30 37446 C 3544.25 -1.04934 -1.73542 0
M  V30 37447 C 3544.58 0.414628 -1.89722 0
M  V30 37448 O 3543.86 1.30741 -1.44004 0
M  V30 37449 C 3544.14 -1.76056 -3.14128 0
M  V30 37450 C 3544 -3.30045 -3.05599 0
M  V30 37451 C 3545.31 -1.51256 -4.13291 0
M  V30 37452 H 3542.43 -0.382602 -0.629908 0
M  V30 37453 H 3545.08 -1.50684 -1.15734 0
M  V30 37454 H 3543.23 -1.37163 -3.63481 0
M  V30 37455 H 3544.9 -3.78379 -2.6387 0
M  V30 37456 H 3543.14 -3.59747 -2.42415 0
M  V30 37457 H 3543.81 -3.74986 -4.0508 0
M  V30 37458 H 3546.29 -1.85039 -3.72692 0
M  V30 37459 H 3545.16 -2.03516 -5.09777 0
M  V30 37460 H 3545.42 -0.445051 -4.39854 0
M  V30 37461 N 3544.48 1.19014 -1.03313 0
M  V30 37462 C 3545.43 2.20284 -0.588115 0
M  V30 37463 C 3546.42 1.56696 0.365414 0
M  V30 37464 O 3547.61 1.76023 0.185694 0
M  V30 37465 C 3544.74 3.43255 0.0552875 0
M  V30 37466 C 3543.82 4.1398 -0.920936 0
M  V30 37467 N 3544.22 4.60825 -2.08503 0
M  V30 37468 C 3542.51 4.39729 -0.745297 0
M  V30 37469 C 3543.21 5.15185 -2.70109 0
M  V30 37470 N 3542.19 5.06242 -1.9804 0
M  V30 37471 H 3545.99 2.54187 -1.47534 0
M  V30 37472 H 3543.51 1.35135 -0.900687 0
M  V30 37473 H 3545.5 4.15055 0.391747 0
M  V30 37474 H 3544.16 3.10852 0.938145 0
M  V30 37475 H 3545.17 4.55516 -2.46426 0
M  V30 37476 H 3541.85 4.17407 0.0881086 0
M  V30 37477 H 3543.24 5.6169 -3.6872 0
M  V30 37478 N 3545.96 0.811563 1.35098 0
M  V30 37479 C 3547.21 0.39485 1.98919 0
M  V30 37480 C 3547.54 -1.03658 1.64222 0
M  V30 37481 O 3546.82 -1.72001 0.908061 0
M  V30 37482 C 3547.1 0.584193 3.5533 0
M  V30 37483 C 3546.95 2.06091 3.99808 0
M  V30 37484 C 3548.27 0.0129869 4.40098 0
M  V30 37485 H 3545.39 0.144939 0.722608 0
M  V30 37486 H 3548.03 1.02202 1.60171 0
M  V30 37487 H 3546.18 0.0503129 3.88467 0
M  V30 37488 H 3547.85 2.65756 3.77057 0
M  V30 37489 H 3546.1 2.55554 3.50535 0
M  V30 37490 H 3546.77 2.14425 5.08651 0
M  V30 37491 H 3549.24 0.46899 4.13449 0
M  V30 37492 H 3548.12 0.175349 5.4862 0
M  V30 37493 H 3548.38 -1.08113 4.28677 0
M  V30 37494 N 3547.44 -1.47105 0.565506 0
M  V30 37495 C 3548.69 -2.02751 0.0446271 0
M  V30 37496 C 3549.02 -1.43804 -1.30515 0
M  V30 37497 O 3548.29 -0.596679 -1.85122 0
M  V30 37498 C 3548.58 -3.60078 -0.0395841 0
M  V30 37499 C 3548.43 -4.29443 1.33787 0
M  V30 37500 C 3549.75 -4.33682 -0.748877 0
M  V30 37501 H 3546.87 -0.736788 0.0176916 0
M  V30 37502 H 3549.51 -1.75442 0.729394 0
M  V30 37503 H 3547.66 -3.83476 -0.622759 0
M  V30 37504 H 3549.33 -4.17361 1.96489 0
M  V30 37505 H 3547.57 -3.89473 1.91031 0
M  V30 37506 H 3548.25 -5.38085 1.23159 0
M  V30 37507 H 3550.72 -4.15326 -0.253634 0
M  V30 37508 H 3549.6 -5.43376 -0.776782 0
M  V30 37509 H 3549.86 -4.03497 -1.80672 0
M  V30 37510 N 3548.92 -0.302382 -1.54672 0
M  V30 37511 C 3550.2 0.359677 -1.92265 0
M  V30 37512 C 3550.58 1.71581 -1.22976 0
M  V30 37513 O 3549.92 2.2555 -0.365982 0
M  V30 37514 C 3550.13 0.472958 -3.4578 0
M  V30 37515 C 3551.48 0.743178 -4.18045 0
M  V30 37516 O 3552.51 0.556716 -3.51823 0
M  V30 37517 O 3551.36 1.10145 -5.35285 0
M  V30 37518 H 3548.46 0.201345 -0.802115 0
M  V30 37519 H 3551 -0.350542 -1.6604 0
M  V30 37520 H 3549.78 -0.480333 -3.88341 0
M  V30 37521 H 3549.4 1.23159 -3.78044 0
M  V30 37522 N 3550.4 1.57571 -0.0301311 0
M  V30 37523 C 3551.64 1.91463 0.647008 0
M  V30 37524 C 3551.97 0.907236 1.7261 0
M  V30 37525 O 3551.24 -0.0510923 1.95833 0
M  V30 37526 H 3549.82 0.706723 0.241975 0
M  V30 37527 H 3552.48 1.94743 -0.0781727 0
M  V30 37528 H 3551.57 2.92107 1.0991 0
M  V30 37529 N 3551.87 -0.243029 1.55715 0
M  V30 37530 C 3553.11 -0.977835 1.79493 0
M  V30 37531 C 3553.48 -1.82375 0.600271 0
M  V30 37532 O 3554.68 -2.59064 0.716903 0
M  V30 37533 C 3552.95 -1.8124 3.08037 0
M  V30 37534 S 3554.51 -2.60577 3.53051 0
M  V30 37535 H 3551.33 -0.328844 0.630383 0
M  V30 37536 H 3553.93 -0.245337 1.93954 0
M  V30 37537 H 3552.63 -1.18072 3.93049 0
M  V30 37538 H 3552.16 -2.58758 2.96324 0
M  V30 37539 H 3554.18 -3.83647 3.1469 0
M  V30 37540 N 3553.35 -1.49159 -0.508854 0
M  V30 37541 C 3554.3 -1.65723 -1.63213 0
M  V30 37542 C 3555.29 -0.523265 -1.61116 0
M  V30 37543 O 3556.5 -0.702658 -1.65719 0
M  V30 37544 H 3552.88 -0.522429 -0.5409 0
M  V30 37545 H 3554.85 -2.60023 -1.46392 0
M  V30 37546 C 3553.6 -1.73377 -3.0139 0
M  V30 37547 H 3552.92 -2.60005 -3.03706 0
M  V30 37548 H 3554.36 -1.89004 -3.79544 0
M  V30 37549 C 3552.82 -0.476888 -3.33508 0
M  V30 37550 O 3553.35 0.400915 -3.99694 0
M  V30 37551 N 3551.55 -0.342196 -2.88578 0
M  V30 37552 H 3551.1 -1.05751 -2.34892 0
M  V30 37553 H 3551.06 0.497703 -3.10436 0
M  V30 37554 N 3554.83 0.759322 -1.38102 0
M  V30 37555 C 3556.06 1.55365 -1.37392 0
M  V30 37556 C 3556.48 1.88066 0.0355766 0
M  V30 37557 O 3555.84 1.50152 1.01607 0
M  V30 37558 C 3555.89 2.83298 -2.23103 0
M  V30 37559 O 3554.99 3.78207 -1.64419 0
M  V30 37560 H 3554.33 0.470135 -0.468902 0
M  V30 37561 H 3556.86 0.938826 -1.81789 0
M  V30 37562 H 3556.87 3.32279 -2.36758 0
M  V30 37563 H 3555.55 2.58826 -3.25549 0
M  V30 37564 H 3554.12 3.3689 -1.59873 0
M  V30 37565 N 3556.31 1.22876 0.986873 0
M  V30 37566 C 3557.53 1.0843 1.76798 0
M  V30 37567 C 3557.96 -0.360522 1.84613 0
M  V30 37568 O 3557.32 -1.26061 1.30301 0
M  V30 37569 C 3557.36 1.70706 3.17635 0
M  V30 37570 O 3556.47 0.964822 4.00955 0
M  V30 37571 H 3555.81 0.380461 0.544192 0
M  V30 37572 H 3558.34 1.62798 1.23928 0
M  V30 37573 H 3558.35 1.75679 3.6824 0
M  V30 37574 H 3557.02 2.75842 3.11262 0
M  V30 37575 H 3555.6 0.991556 3.59475 0
M  V30 37576 N 3557.79 -1.18464 1.03942 0
M  V30 37577 C 3559.01 -1.92355 0.762047 0
M  V30 37578 C 3559.43 -1.76105 -0.680621 0
M  V30 37579 O 3558.79 -1.08987 -1.46383 0
M  V30 37580 C 3558.84 -3.43803 1.11723 0
M  V30 37581 O 3558.56 -3.5954 2.50326 0
M  V30 37582 C 3560.06 -4.34795 0.864176 0
M  V30 37583 H 3557.28 -0.610697 0.27801 0
M  V30 37584 H 3559.82 -1.50298 1.38675 0
M  V30 37585 H 3557.98 -3.83653 0.537513 0
M  V30 37586 H 3558.39 -4.53284 2.63883 0
M  V30 37587 H 3559.87 -5.39619 1.16256 0
M  V30 37588 H 3560.34 -4.38739 -0.201093 0
M  V30 37589 H 3560.95 -4.00641 1.42713 0
M  V30 37590 N 3559.26 -0.818716 -1.34665 0
M  V30 37591 C 3560.5 -0.410595 -2.00234 0
M  V30 37592 C 3560.87 1.00642 -1.63509 0
M  V30 37593 O 3562.07 1.5172 -2.21889 0
M  V30 37594 C 3560.34 -0.60203 -3.52293 0
M  V30 37595 S 3561.9 -0.286132 -4.37866 0
M  V30 37596 H 3558.72 -0.155338 -0.693824 0
M  V30 37597 H 3561.32 -1.06361 -1.64035 0
M  V30 37598 H 3560.02 -1.63309 -3.76508 0
M  V30 37599 H 3559.55 0.065875 -3.93345 0
M  V30 37600 H 3561.57 0.901746 -4.87937 0
M  V30 37601 N 3560.74 1.46803 -0.573299 0
M  V30 37602 C 3561.68 2.27199 0.213487 0
M  V30 37603 C 3562.65 1.35049 0.905574 0
M  V30 37604 O 3563.84 1.64449 0.921348 0
M  V30 37605 C 3560.96 3.12529 1.3055 0
M  V30 37606 C 3560.01 4.20374 0.720257 0
M  V30 37607 S 3560.84 5.33643 -0.445612 0
M  V30 37608 C 3562 6.22538 0.64783 0
M  V30 37609 H 3562.23 2.93582 -0.468694 0
M  V30 37610 H 3559.77 1.50145 -0.359976 0
M  V30 37611 H 3561.72 3.62258 1.93079 0
M  V30 37612 H 3560.38 2.45477 1.95959 0
M  V30 37613 H 3559.58 4.7987 1.5408 0
M  V30 37614 H 3559.18 3.7361 0.170819 0
M  V30 37615 H 3561.47 6.59861 1.5359 0
M  V30 37616 H 3562.41 7.08043 0.0898519 0
M  V30 37617 H 3562.82 5.56487 0.947742 0
M  V30 37618 N 3562.22 0.31058 1.54509 0
M  V30 37619 C 3563.15 -0.603474 2.20076 0
M  V30 37620 C 3564.13 -1.12563 1.17338 0
M  V30 37621 O 3565.32 -1.19205 1.46022 0
M  V30 37622 C 3562.44 -1.82669 2.85219 0
M  V30 37623 C 3561.49 -1.43692 4.01565 0
M  V30 37624 S 3562.32 -0.484676 5.33302 0
M  V30 37625 C 3563.48 -1.71547 6.01932 0
M  V30 37626 H 3563.71 -0.0464755 2.97264 0
M  V30 37627 H 3561.24 0.0946909 1.54109 0
M  V30 37628 H 3563.2 -2.52861 3.23375 0
M  V30 37629 H 3561.86 -2.35486 2.07859 0
M  V30 37630 H 3561.06 -2.34805 4.45962 0
M  V30 37631 H 3560.66 -0.81484 3.65016 0
M  V30 37632 H 3562.95 -2.65473 6.23322 0
M  V30 37633 H 3563.89 -1.31389 6.95804 0
M  V30 37634 H 3564.3 -1.89654 5.31687 0
M  V30 37635 N 3563.7 -1.57553 0.0384871 0
M  V30 37636 C 3564.94 -1.94051 -0.642153 0
M  V30 37637 C 3565.3 -0.915808 -1.68751 0
M  V30 37638 O 3566.5 -1.1673 -2.42131 0
M  V30 37639 C 3564.78 -3.35415 -1.23416 0
M  V30 37640 S 3566.33 -3.93852 -1.93457 0
M  V30 37641 H 3563.15 -0.678912 -0.211186 0
M  V30 37642 H 3565.75 -1.95221 0.104393 0
M  V30 37643 H 3564.46 -4.07802 -0.46104 0
M  V30 37644 H 3563.99 -3.3771 -2.01781 0
M  V30 37645 H 3566 -3.78048 -3.21394 0
M  V30 37646 N 3565.18 0.234767 -1.55842 0
M  V30 37647 C 3566.41 0.976905 -1.82044 0
M  V30 37648 C 3566.82 1.78974 -0.613583 0
M  V30 37649 O 3566.16 1.78663 0.42724 0
M  V30 37650 C 3566.22 1.95364 -3.01783 0
M  V30 37651 C 3565.88 1.32658 -4.37322 0
M  V30 37652 C 3566.88 0.723016 -5.14848 0
M  V30 37653 C 3564.57 1.34231 -4.84032 0
M  V30 37654 C 3566.56 0.143534 -6.37238 0
M  V30 37655 C 3564.25 0.75898 -6.06368 0
M  V30 37656 C 3565.25 0.16063 -6.82811 0
M  V30 37657 O 3564.93 -0.413661 -8.02835 0
M  V30 37658 H 3564.67 0.292527 -0.609429 0
M  V30 37659 H 3567.22 0.25918 -2.03758 0
M  V30 37660 H 3565.45 2.71 -2.75855 0
M  V30 37661 H 3567.14 2.56022 -3.14972 0
M  V30 37662 H 3567.9 0.703286 -4.79874 0
M  V30 37663 H 3563.78 1.79743 -4.24516 0
M  V30 37664 H 3567.33 -0.324124 -6.96847 0
M  V30 37665 H 3563.22 0.776078 -6.40818 0
M  V30 37666 H 3563.99 -0.306698 -8.17925 0
M  V30 37667 N 3566.66 1.49427 0.500936 0
M  V30 37668 C 3567.6 1.66101 1.60247 0
M  V30 37669 C 3568.57 0.502481 1.58317 0
M  V30 37670 O 3569.76 0.729513 1.76303 0
M  V30 37671 C 3566.9 1.73366 2.98393 0
M  V30 37672 C 3566.01 3.00523 3.10338 0
M  V30 37673 C 3565.15 2.98767 4.39217 0
M  V30 37674 C 3564.18 4.20504 4.44796 0
M  V30 37675 N 3563.32 4.16658 5.65102 0
M  V30 37676 H 3568.16 2.60156 1.45337 0
M  V30 37677 H 3565.7 1.28989 0.707124 0
M  V30 37678 H 3567.66 1.7556 3.78464 0
M  V30 37679 H 3566.29 0.827772 3.12006 0
M  V30 37680 H 3565.34 3.07941 2.23331 0
M  V30 37681 H 3566.65 3.90516 3.1032 0
M  V30 37682 H 3565.8 2.99524 5.27608 0
M  V30 37683 H 3564.54 2.06553 4.418 0
M  V30 37684 H 3563.55 4.19991 3.54806 0
M  V30 37685 H 3564.77 5.13911 4.43928 0
M  V30 37686 H 3562.72 3.2728 5.68528 0
M  V30 37687 H 3562.64 5.00386 5.66701 0
M  V30 37688 H 3563.9 4.21517 6.55701 0
M  V30 37689 N 3568.13 -0.751987 1.38502 0
M  V30 37690 C 3569.55 -1.05526 1.19734 0
M  V30 37691 C 3569.75 -2.01445 0.0471235 0
M  V30 37692 O 3568.81 -2.45105 -0.606602 0
M  V30 37693 C 3570.12 -1.63382 2.52442 0
M  V30 37694 C 3571.67 -1.75545 2.59139 0
M  V30 37695 C 3572.14 -2.36812 3.92026 0
M  V30 37696 N 3573.63 -2.44241 3.93574 0
M  V30 37697 C 3574.37 -2.92544 4.93159 0
M  V30 37698 N 3573.86 -3.40871 6.03141 0
M  V30 37699 N 3575.66 -2.91599 4.80548 0
M  V30 37700 H 3567.81 -0.115505 2.12086 0
M  V30 37701 H 3570.07 -0.113871 0.941136 0
M  V30 37702 H 3569.78 -1.0037 3.37074 0
M  V30 37703 H 3569.65 -2.62422 2.70951 0
M  V30 37704 H 3572.04 -2.37684 1.74901 0
M  V30 37705 H 3572.12 -0.752049 2.44495 0
M  V30 37706 H 3571.76 -1.75306 4.76687 0
M  V30 37707 H 3571.69 -3.37796 4.03982 0
M  V30 37708 H 3574.18 -2.10063 3.14137 0
M  V30 37709 H 3574.5 -3.76189 6.75057 0
M  V30 37710 H 3572.84 -3.38924 6.06758 0
M  V30 37711 H 3576.03 -2.53156 3.93738 0
M  V30 37712 H 3576.21 -3.28931 5.58309 0
M  V30 37713 N 3569.61 -1.23398 -0.980343 0
M  V30 37714 C 3570.56 -1.01266 -2.09399 0
M  V30 37715 C 3571.55 0.048366 -1.69331 0
M  V30 37716 O 3572.76 -0.105141 -1.79693 0
M  V30 37717 H 3569.13 -0.31037 -0.684963 0
M  V30 37718 H 3571.11 -1.95736 -2.25233 0
M  V30 37719 C 3569.85 -0.620586 -3.42117 0
M  V30 37720 H 3569.18 -1.42874 -3.73399 0
M  V30 37721 H 3570.62 -0.505243 -4.20979 0
M  V30 37722 C 3569.08 0.67115 -3.30147 0
M  V30 37723 O 3569.61 1.72028 -3.63 0
M  V30 37724 N 3567.81 0.647087 -2.83304 0
M  V30 37725 H 3567.36 -0.207002 -2.56767 0
M  V30 37726 H 3567.32 1.5116 -2.75677 0
M  V30 37727 N 3571.09 1.17911 -1.04569 0
M  V30 37728 C 3572.51 1.40024 -0.765865 0
M  V30 37729 C 3572.71 1.90984 0.64245 0
M  V30 37730 O 3571.76 2.09742 1.40586 0
M  V30 37731 C 3573.07 2.39655 -1.81621 0
M  V30 37732 C 3574.62 2.53373 -1.8377 0
M  V30 37733 C 3575.1 3.56272 -2.8781 0
M  V30 37734 N 3576.59 3.63784 -2.86733 0
M  V30 37735 C 3577.32 4.43143 -3.63884 0
M  V30 37736 N 3576.82 5.26069 -4.50802 0
M  V30 37737 N 3578.61 4.37955 -3.52351 0
M  V30 37738 H 3570.76 0.831613 -1.95443 0
M  V30 37739 H 3573.03 0.427895 -0.845937 0
M  V30 37740 H 3572.73 2.0927 -2.82664 0
M  V30 37741 H 3572.61 3.39072 -1.65257 0
M  V30 37742 H 3574.99 2.83071 -0.833946 0
M  V30 37743 H 3575.07 1.54051 -2.0421 0
M  V30 37744 H 3574.72 3.27313 -3.88367 0
M  V30 37745 H 3574.65 4.55283 -2.64622 0
M  V30 37746 H 3577.14 3.04572 -2.23706 0
M  V30 37747 H 3577.45 5.83789 -5.0637 0
M  V30 37748 H 3575.8 5.25472 -4.54867 0
M  V30 37749 H 3578.99 3.72221 -2.83847 0
M  V30 37750 H 3579.16 4.99561 -4.12726 0
M  V30 37751 N 3572.57 0.825847 1.34229 0
M  V30 37752 C 3573.53 0.25516 2.27775 0
M  V30 37753 C 3574.53 -0.568627 1.5041 0
M  V30 37754 O 3575.72 -0.384307 1.69908 0
M  V30 37755 C 3572.85 -0.641954 3.34801 0
M  V30 37756 H 3574.05 1.08045 2.79761 0
M  V30 37757 H 3571.6 0.59793 1.44411 0
M  V30 37758 H 3572.33 -1.49019 2.88035 0
M  V30 37759 H 3572.12 -0.0527067 3.92065 0
M  V30 37760 H 3573.61 -1.03495 4.04572 0
M  V30 37761 N 3574.05 -1.46497 0.581077 0
M  V30 37762 C 3575.27 -2.06776 0.0716016 0
M  V30 37763 C 3575.69 -1.43008 -1.23265 0
M  V30 37764 O 3575.05 -0.534807 -1.74488 0
M  V30 37765 C 3575.1 -3.61354 -0.102602 0
M  V30 37766 O 3574.82 -4.22737 1.15002 0
M  V30 37767 C 3576.32 -4.38559 -0.646615 0
M  V30 37768 H 3573.54 -0.668599 0.0567081 0
M  V30 37769 H 3576.08 -1.88148 0.801281 0
M  V30 37770 H 3574.24 -3.79415 -0.782497 0
M  V30 37771 H 3574.65 -5.15587 0.962808 0
M  V30 37772 H 3576.13 -5.47314 -0.717694 0
M  V30 37773 H 3576.6 -4.06489 -1.66323 0
M  V30 37774 H 3577.21 -4.253 -0.00164263 0
M  V30 37775 N 3575.52 -0.31877 -1.54343 0
M  V30 37776 C 3576.94 0.0340399 -1.59564 0
M  V30 37777 C 3577.14 1.50894 -1.33541 0
M  V30 37778 O 3576.2 2.26425 -1.1175 0
M  V30 37779 C 3577.51 -0.379879 -2.98291 0
M  V30 37780 C 3579.06 -0.330132 -3.11254 0
M  V30 37781 C 3579.53 -0.719141 -4.52319 0
M  V30 37782 N 3581.02 -0.67236 -4.58294 0
M  V30 37783 C 3581.76 -0.945613 -5.65549 0
M  V30 37784 N 3581.25 -1.28575 -6.80764 0
M  V30 37785 N 3583.05 -0.871492 -5.55303 0
M  V30 37786 H 3575.2 -1.27978 -1.69515 0
M  V30 37787 H 3577.46 -0.520058 -0.792618 0
M  V30 37788 H 3577.17 -1.40729 -3.22317 0
M  V30 37789 H 3577.04 0.25754 -3.7632 0
M  V30 37790 H 3579.43 0.688066 -2.86966 0
M  V30 37791 H 3579.51 -1.00242 -2.35341 0
M  V30 37792 H 3579.15 -1.73523 -4.77339 0
M  V30 37793 H 3579.08 -0.0245926 -5.26594 0
M  V30 37794 H 3581.57 -0.421125 -3.75546 0
M  V30 37795 H 3581.89 -1.47976 -7.585 0
M  V30 37796 H 3580.23 -1.32397 -6.82273 0
M  V30 37797 H 3583.42 -0.605286 -4.6417 0
M  V30 37798 H 3583.6 -1.08781 -6.38804 0
M  V30 37799 N 3577 1.5753 -0.0468419 0
M  V30 37800 C 3578.25 1.92804 0.628835 0
M  V30 37801 C 3578.58 0.925113 1.70749 0
M  V30 37802 O 3577.86 -0.0495479 1.94437 0
M  V30 37803 C 3578.14 3.38481 1.22893 0
M  V30 37804 C 3577.99 4.4952 0.158628 0
M  V30 37805 C 3579.31 3.84465 2.14183 0
M  V30 37806 H 3576.43 0.70113 0.227125 0
M  V30 37807 H 3579.07 1.89694 -0.107722 0
M  V30 37808 H 3577.22 3.41262 1.85668 0
M  V30 37809 H 3578.89 4.58868 -0.473044 0
M  V30 37810 H 3577.14 4.30746 -0.513826 0
M  V30 37811 H 3577.81 5.48525 0.618449 0
M  V30 37812 H 3580.28 3.83533 1.61375 0
M  V30 37813 H 3579.16 4.87056 2.53117 0
M  V30 37814 H 3579.42 3.20975 3.04018 0
M  V30 37815 N 3578.48 -0.226499 1.55964 0
M  V30 37816 C 3579.39 -1.30175 1.95171 0
M  V30 37817 C 3580.41 -1.51553 0.854858 0
M  V30 37818 O 3581.58 -1.64779 1.15801 0
M  V30 37819 C 3578.65 -2.63245 2.25617 0
M  V30 37820 C 3577.71 -2.50212 3.48844 0
M  V30 37821 C 3576.94 -3.76937 3.77828 0
M  V30 37822 O 3577.16 -4.79734 3.08564 0
M  V30 37823 O 3576.1 -3.74345 4.71327 0
M  V30 37824 H 3579.92 -0.999095 2.86796 0
M  V30 37825 H 3577.51 -0.428955 1.4311 0
M  V30 37826 H 3579.39 -3.41844 2.46416 0
M  V30 37827 H 3578.07 -2.93201 1.37167 0
M  V30 37828 H 3576.97 -1.69831 3.33329 0
M  V30 37829 H 3578.31 -2.25197 4.37661 0
M  V30 37830 N 3579.96 -1.4969 -0.493005 0
M  V30 37831 C 3581.2 -1.61203 -1.2567 0
M  V30 37832 C 3581.56 -0.295718 -1.89709 0
M  V30 37833 O 3582.76 -0.286093 -2.67273 0
M  V30 37834 C 3581.03 -2.74466 -2.28918 0
M  V30 37835 S 3582.59 -3.05979 -3.14519 0
M  V30 37836 H 3579.41 -0.568518 -0.426975 0
M  V30 37837 H 3582.01 -1.87384 -0.557465 0
M  V30 37838 H 3580.72 -3.68617 -1.80415 0
M  V30 37839 H 3580.25 -2.50303 -3.03499 0
M  V30 37840 H 3582.26 -2.48116 -4.29713 0
M  V30 37841 N 3581.44 0.744631 -1.38899 0
M  V30 37842 C 3582.66 1.53389 -1.38851 0
M  V30 37843 C 3583.08 1.8879 0.0194617 0
M  V30 37844 O 3582.44 1.53419 0.988372 0
M  V30 37845 C 3582.49 2.82746 -2.25248 0
M  V30 37846 O 3582.21 2.48852 -3.60561 0
M  V30 37847 C 3583.71 3.76833 -2.33478 0
M  V30 37848 H 3580.93 0.474329 -0.474608 0
M  V30 37849 H 3583.47 0.92087 -1.82593 0
M  V30 37850 H 3581.63 3.40403 -1.84944 0
M  V30 37851 H 3582.04 3.31879 -4.06148 0
M  V30 37852 H 3583.52 4.64523 -2.98198 0
M  V30 37853 H 3583.99 4.17903 -1.35107 0
M  V30 37854 H 3584.6 3.25098 -2.74211 0
M  V30 37855 N 3582.91 1.23916 0.973785 0
M  V30 37856 C 3584.14 1.10209 1.75105 0
M  V30 37857 C 3584.56 -0.345903 1.85604 0
M  V30 37858 O 3583.91 -1.23898 1.33999 0
M  V30 37859 C 3583.97 1.72915 3.17463 0
M  V30 37860 O 3583.69 3.12052 3.07498 0
M  V30 37861 C 3585.19 1.64737 4.11554 0
M  V30 37862 H 3582.41 0.385355 0.549311 0
M  V30 37863 H 3584.95 1.639 1.22298 0
M  V30 37864 H 3583.11 1.23241 3.67274 0
M  V30 37865 H 3583.52 3.42582 3.97163 0
M  V30 37866 H 3584.99 2.13304 5.09122 0
M  V30 37867 H 3585.47 0.607428 4.34979 0
M  V30 37868 H 3586.08 2.13809 3.67649 0
M  V30 37869 N 3584.39 -1.17355 1.05193 0
M  V30 37870 C 3585.64 -1.8695 0.757137 0
M  V30 37871 C 3585.95 -1.81922 -0.718605 0
M  V30 37872 O 3587.16 -2.46988 -1.12735 0
M  V30 37873 C 3585.62 -3.3544 1.30415 0
M  V30 37874 C 3585.22 -3.4897 2.80934 0
M  V30 37875 C 3586.97 -4.10363 1.0864 0
M  V30 37876 C 3584.88 -4.91483 3.28936 0
M  V30 37877 H 3583.81 -0.700268 0.279537 0
M  V30 37878 H 3586.46 -1.32526 1.26922 0
M  V30 37879 H 3584.84 -3.89402 0.71988 0
M  V30 37880 H 3586.01 -3.05225 3.45216 0
M  V30 37881 H 3584.33 -2.87468 3.0125 0
M  V30 37882 H 3586.92 -5.15498 1.42005 0
M  V30 37883 H 3587.27 -4.16293 0.0241635 0
M  V30 37884 H 3587.8 -3.62607 1.63588 0
M  V30 37885 H 3584.54 -4.90726 4.34589 0
M  V30 37886 H 3584.06 -5.35898 2.69395 0
M  V30 37887 H 3585.74 -5.60252 3.23615 0
M  V30 37888 N 3585.87 -0.832954 -1.3379 0
M  V30 37889 C 3587.12 -0.426447 -1.98266 0
M  V30 37890 C 3587.45 1.01032 -1.6585 0
M  V30 37891 O 3586.72 1.70535 -0.93531 0
M  V30 37892 C 3587.01 -0.640649 -3.54355 0
M  V30 37893 C 3586.86 -2.12426 -3.96479 0
M  V30 37894 C 3588.18 -0.0830011 -4.40022 0
M  V30 37895 H 3585.3 -0.156417 -0.72021 0
M  V30 37896 H 3587.94 -1.04737 -1.58525 0
M  V30 37897 H 3586.09 -0.112108 -3.88338 0
M  V30 37898 H 3587.76 -2.71721 -3.72781 0
M  V30 37899 H 3586.01 -2.61098 -3.46425 0
M  V30 37900 H 3586.68 -2.2249 -5.05175 0
M  V30 37901 H 3589.15 -0.534707 -4.1265 0
M  V30 37902 H 3588.03 -0.262607 -5.48271 0
M  V30 37903 H 3588.29 1.01279 -4.30343 0
M  V30 37904 N 3587.35 1.46186 -0.588837 0
M  V30 37905 C 3588.3 2.32092 0.153597 0
M  V30 37906 C 3589.29 1.44851 0.87832 0
M  V30 37907 O 3590.5 1.61442 0.796013 0
M  V30 37908 H 3586.87 0.748883 0.0683997 0
M  V30 37909 H 3588.84 2.92516 -0.589662 0
M  V30 37910 C 3587.59 3.28133 1.14997 0
M  V30 37911 H 3586.91 3.95246 0.601734 0
M  V30 37912 H 3588.35 3.9101 1.63973 0
M  V30 37913 C 3586.81 2.5393 2.21407 0
M  V30 37914 O 3587.34 2.30685 3.28858 0
M  V30 37915 N 3585.55 2.14387 1.9618 0
M  V30 37916 H 3585.1 2.33492 1.08808 0
M  V30 37917 H 3585.05 1.6506 2.67587 0
M  V30 37918 N 3588.83 0.32695 1.54171 0
M  V30 37919 C 3590.07 -0.274063 2.00233 0
M  V30 37920 C 3590.4 -1.52388 1.21668 0
M  V30 37921 O 3589.67 -1.93279 0.319393 0
M  V30 37922 H 3588.25 -0.104258 0.739689 0
M  V30 37923 H 3590.91 0.444278 1.89769 0
M  V30 37924 H 3590 -0.5281 3.076 0
M  V30 37925 N 3590.3 -1.57503 0.0551955 0
M  V30 37926 C 3591.55 -1.93135 -0.618602 0
M  V30 37927 C 3591.88 -0.934155 -1.70256 0
M  V30 37928 O 3591.16 0.0392357 -1.9446 0
M  V30 37929 C 3591.44 -3.39128 -1.21097 0
M  V30 37930 C 3591.29 -4.49598 -0.134786 0
M  V30 37931 C 3592.61 -3.85596 -2.12141 0
M  V30 37932 H 3589.73 -0.702325 -0.223403 0
M  V30 37933 H 3592.37 -1.89635 0.117781 0
M  V30 37934 H 3590.52 -3.42242 -1.83856 0
M  V30 37935 H 3592.2 -4.58611 0.497372 0
M  V30 37936 H 3590.44 -4.30468 0.536662 0
M  V30 37937 H 3591.11 -5.48845 -0.589351 0
M  V30 37938 H 3593.59 -3.84383 -1.59339 0
M  V30 37939 H 3592.46 -4.88391 -2.5053 0
M  V30 37940 H 3592.72 -3.22583 -3.02312 0
M  V30 37941 N 3591.78 0.218225 -1.56082 0
M  V30 37942 C 3593.2 0.568072 -1.49148 0
M  V30 37943 C 3593.4 1.86985 -0.750926 0
M  V30 37944 O 3592.45 2.50807 -0.291948 0
M  V30 37945 C 3593.77 0.644221 -2.93718 0
M  V30 37946 C 3595.32 0.734623 -3.04257 0
M  V30 37947 C 3595.79 0.842088 -4.50192 0
M  V30 37948 N 3597.28 0.906222 -4.54249 0
M  V30 37949 C 3598.02 1.00914 -5.6445 0
M  V30 37950 N 3597.51 1.0758 -6.84396 0
M  V30 37951 N 3599.31 1.04454 -5.5231 0
M  V30 37952 H 3591.46 -0.635971 -2.02655 0
M  V30 37953 H 3593.72 -0.223579 -0.921258 0
M  V30 37954 H 3593.43 -0.242782 -3.50861 0
M  V30 37955 H 3593.3 1.50672 -3.458 0
M  V30 37956 H 3595.69 1.61207 -2.47177 0
M  V30 37957 H 3595.77 -0.153608 -2.55338 0
M  V30 37958 H 3595.41 -0.0309107 -5.07891 0
M  V30 37959 H 3595.34 1.74578 -4.9682 0
M  V30 37960 H 3597.83 0.86489 -3.6787 0
M  V30 37961 H 3598.15 1.1542 -7.64132 0
M  V30 37962 H 3596.49 1.04488 -6.87101 0
M  V30 37963 H 3599.68 0.989137 -4.5753 0
M  V30 37964 H 3599.85 1.12129 -6.38225 0
M  V30 37965 N 3593.26 1.4995 0.485059 0
M  V30 37966 C 3594.68 1.37066 0.817626 0
M  V30 37967 C 3594.88 0.415983 1.97159 0
M  V30 37968 O 3593.93 -0.146522 2.52075 0
M  V30 37969 C 3595.25 2.78136 1.14283 0
M  V30 37970 C 3596.79 2.86952 1.25011 0
M  V30 37971 C 3597.27 4.28825 1.60852 0
M  V30 37972 N 3598.76 4.3171 1.67871 0
M  V30 37973 C 3599.5 5.38467 1.97079 0
M  V30 37974 N 3598.99 6.5545 2.24404 0
M  V30 37975 N 3600.78 5.25898 1.98464 0
M  V30 37976 H 3592.94 2.10604 -0.275643 0
M  V30 37977 H 3595.2 0.946051 -0.0607653 0
M  V30 37978 H 3594.9 3.49768 0.368109 0
M  V30 37979 H 3594.78 3.14506 2.08245 0
M  V30 37980 H 3597.17 2.15547 2.01552 0
M  V30 37981 H 3597.25 2.54144 0.290619 0
M  V30 37982 H 3596.89 5.00761 0.848551 0
M  V30 37983 H 3596.82 4.59109 2.57927 0
M  V30 37984 H 3599.31 3.4735 1.4885 0
M  V30 37985 H 3599.62 7.32626 2.45925 0
M  V30 37986 H 3597.97 6.58649 2.21826 0
M  V30 37987 H 3601.16 4.33507 1.76605 0
M  V30 37988 H 3601.33 6.09188 2.20893 0
M  V30 37989 N 3594.74 -0.737255 1.39292 0
M  V30 37990 C 3595.96 -1.53159 1.39847 0
M  V30 37991 C 3596.39 -1.88099 -0.0056524 0
M  V30 37992 O 3595.75 -1.51749 -0.992058 0
M  V30 37993 C 3595.8 -2.79712 2.27582 0
M  V30 37994 O 3594.9 -3.75543 1.70415 0
M  V30 37995 H 3594.24 -0.462616 0.476322 0
M  V30 37996 H 3596.77 -0.909787 1.83259 0
M  V30 37997 H 3596.78 -3.2847 2.42015 0
M  V30 37998 H 3595.46 -2.53614 3.29626 0
M  V30 37999 H 3594.03 -3.34304 1.65212 0
M  V30 38000 N 3596.22 -1.24431 -0.967199 0
M  V30 38001 C 3597.46 -1.0843 -1.71024 0
M  V30 38002 C 3597.79 0.376778 -1.90816 0
M  V30 38003 O 3597.05 1.29475 -1.46747 0
M  V30 38004 C 3597.35 -1.7698 -3.10504 0
M  V30 38005 C 3597.01 -3.26908 -3.10551 0
M  V30 38006 C 3595.67 -3.67811 -3.10272 0
M  V30 38007 C 3598.03 -4.22752 -3.04845 0
M  V30 38008 C 3595.35 -5.02993 -3.02018 0
M  V30 38009 C 3597.71 -5.57942 -2.98134 0
M  V30 38010 C 3596.37 -5.98191 -2.96183 0
M  V30 38011 H 3595.64 -0.396775 -0.62582 0
M  V30 38012 H 3598.29 -1.5454 -1.13091 0
M  V30 38013 H 3596.59 -1.23266 -3.71904 0
M  V30 38014 H 3598.29 -1.62065 -3.66791 0
M  V30 38015 H 3594.88 -2.94354 -3.11534 0
M  V30 38016 H 3599.06 -3.92151 -3.0419 0
M  V30 38017 H 3594.32 -5.33373 -2.98869 0
M  V30 38018 H 3598.49 -6.31912 -2.92677 0
M  V30 38019 H 3596.12 -7.029 -2.89543 0
M  V30 38020 N 3597.7 1.16795 -1.05814 0
M  V30 38021 C 3598.93 1.90841 -0.791404 0
M  V30 38022 C 3599.33 1.7741 0.65745 0
M  V30 38023 O 3598.68 1.11305 1.4614 0
M  V30 38024 C 3598.74 3.42242 -1.10048 0
M  V30 38025 C 3598.4 3.79458 -2.54677 0
M  V30 38026 C 3599.4 3.81782 -3.52901 0
M  V30 38027 C 3597.08 4.10234 -2.8985 0
M  V30 38028 C 3599.08 4.1436 -4.84339 0
M  V30 38029 C 3596.77 4.42481 -4.2149 0
M  V30 38030 C 3597.76 4.44523 -5.18545 0
M  V30 38031 O 3597.45 4.76006 -6.47822 0
M  V30 38032 H 3597.18 0.612156 -0.286777 0
M  V30 38033 H 3599.74 1.49008 -1.41372 0
M  V30 38034 H 3597.97 3.84401 -0.421083 0
M  V30 38035 H 3599.66 3.97557 -0.818757 0
M  V30 38036 H 3600.42 3.58122 -3.27068 0
M  V30 38037 H 3596.3 4.07812 -2.14966 0
M  V30 38038 H 3599.85 4.15869 -5.60088 0
M  V30 38039 H 3595.74 4.65604 -4.47083 0
M  V30 38040 H 3596.51 4.93838 -6.52738 0
M  V30 38041 N 3599.17 0.840037 1.33346 0
M  V30 38042 C 3600.42 0.436955 1.98037 0
M  V30 38043 C 3600.75 -1.00151 1.66383 0
M  V30 38044 O 3600.03 -1.70037 0.944341 0
M  V30 38045 C 3600.31 0.659432 3.54011 0
M  V30 38046 C 3600.16 2.14525 3.95347 0
M  V30 38047 C 3601.48 0.106335 4.39972 0
M  V30 38048 H 3598.6 0.160234 0.719371 0
M  V30 38049 H 3601.24 1.05577 1.57967 0
M  V30 38050 H 3599.39 0.132701 3.88273 0
M  V30 38051 H 3601.07 2.73694 3.71335 0
M  V30 38052 H 3599.31 2.62932 3.45035 0
M  V30 38053 H 3599.98 2.25166 5.03988 0
M  V30 38054 H 3602.46 0.556583 4.12361 0
M  V30 38055 H 3601.33 0.29168 5.48124 0
M  V30 38056 H 3601.59 -0.989956 4.30874 0
M  V30 38057 N 3600.65 -1.45872 0.596582 0
M  V30 38058 C 3601.88 -2.06389 0.0933933 0
M  V30 38059 C 3602.29 -1.44369 -1.22288 0
M  V30 38060 O 3601.63 -0.548162 -1.75331 0
M  V30 38061 C 3601.69 -3.59257 -0.132193 0
M  V30 38062 C 3601.36 -4.43549 1.10059 0
M  V30 38063 C 3602.36 -4.79219 2.01606 0
M  V30 38064 C 3600.04 -4.84473 1.32633 0
M  V30 38065 C 3602.03 -5.54655 3.14064 0
M  V30 38066 C 3599.72 -5.59665 2.45394 0
M  V30 38067 C 3600.72 -5.94672 3.35938 0
M  V30 38068 O 3600.41 -6.68342 4.46738 0
M  V30 38069 H 3600.14 -0.673251 0.0609062 0
M  V30 38070 H 3602.69 -1.88277 0.821042 0
M  V30 38071 H 3600.92 -3.75728 -0.914612 0
M  V30 38072 H 3602.61 -4.01653 -0.58561 0
M  V30 38073 H 3603.38 -4.4817 1.85387 0
M  V30 38074 H 3599.26 -4.56667 0.630602 0
M  V30 38075 H 3602.8 -5.81898 3.84761 0
M  V30 38076 H 3598.7 -5.90128 2.6157 0
M  V30 38077 H 3599.47 -6.86781 4.4528 0
M  V30 38078 N 3602.13 -0.335122 -1.53996 0
M  V30 38079 C 3603.09 0.512976 -2.23386 0
M  V30 38080 C 3604.09 1.03433 -1.23119 0
M  V30 38081 O 3605.28 0.924918 -1.47617 0
M  V30 38082 C 3602.41 1.71372 -2.94694 0
M  V30 38083 H 3603.61 -0.0937833 -2.99753 0
M  V30 38084 H 3601.16 -0.0863534 -1.56061 0
M  V30 38085 H 3601.9 2.3594 -2.22492 0
M  V30 38086 H 3601.68 1.34717 -3.68231 0
M  V30 38087 H 3603.17 2.31546 -3.47529 0
M  V30 38088 N 3603.61 1.57472 -0.0635475 0
M  V30 38089 C 3604.56 2.13446 0.924321 0
M  V30 38090 C 3605.55 1.06929 1.31387 0
M  V30 38091 O 3606.76 1.25321 1.29208 0
M  V30 38092 H 3603.13 0.682388 0.315991 0
M  V30 38093 H 3605.1 2.95326 0.427229 0
M  V30 38094 C 3603.85 2.70435 2.18541 0
M  V30 38095 H 3603.17 3.52064 1.89449 0
M  V30 38096 H 3604.61 3.13206 2.85794 0
M  V30 38097 C 3603.07 1.64799 2.93842 0
M  V30 38098 O 3603.6 1.06809 3.8724 0
M  V30 38099 N 3601.81 1.36027 2.56797 0
M  V30 38100 H 3601.36 1.83373 1.80921 0
M  V30 38101 H 3601.31 0.655795 3.07484 0
M  V30 38102 N 3605.09 -0.209945 1.56195 0
M  V30 38103 C 3606.33 -0.930764 1.79391 0
M  V30 38104 C 3606.65 -1.84403 0.634071 0
M  V30 38105 O 3605.92 -1.92776 -0.348434 0
M  V30 38106 H 3604.5 -0.346678 0.661682 0
M  V30 38107 H 3607.17 -0.219015 1.93666 0
M  V30 38108 H 3606.26 -1.53071 2.71985 0
M  V30 38109 N 3606.56 -1.50205 -0.4771 0
M  V30 38110 C 3607.81 -1.60576 -1.22719 0
M  V30 38111 C 3608.13 -0.30536 -1.92594 0
M  V30 38112 O 3607.4 0.67681 -1.83837 0
M  V30 38113 H 3605.98 -0.591699 -0.455962 0
M  V30 38114 H 3608.64 -1.86953 -0.550883 0
M  V30 38115 H 3607.74 -2.41389 -1.97833 0
M  V30 38116 N 3608.04 0.729857 -1.39681 0
M  V30 38117 C 3608.99 1.84391 -1.38812 0
M  V30 38118 C 3609.96 1.64252 -0.247064 0
M  V30 38119 O 3611.14 1.85587 -0.442962 0
M  V30 38120 C 3608.28 3.21958 -1.24246 0
M  V30 38121 C 3607.4 3.53766 -2.47938 0
M  V30 38122 C 3606.53 4.80763 -2.25922 0
M  V30 38123 C 3605.57 5.0543 -3.45263 0
M  V30 38124 N 3604.71 6.23633 -3.22531 0
M  V30 38125 H 3609.55 1.84469 -2.34041 0
M  V30 38126 H 3607.09 0.901311 -1.16253 0
M  V30 38127 H 3609.04 4.01376 -1.13811 0
M  V30 38128 H 3607.67 3.21145 -0.326432 0
M  V30 38129 H 3606.73 2.6901 -2.68957 0
M  V30 38130 H 3608.04 3.67911 -3.36813 0
M  V30 38131 H 3607.19 5.68171 -2.12758 0
M  V30 38132 H 3605.93 4.68801 -1.3445 0
M  V30 38133 H 3604.94 4.16482 -3.58919 0
M  V30 38134 H 3606.16 5.19274 -4.37643 0
M  V30 38135 H 3604.11 6.12949 -2.33729 0
M  V30 38136 H 3604.02 6.38388 -4.04965 0
M  V30 38137 H 3605.29 7.13867 -3.13072 0
M  V30 38138 N 3609.52 1.24942 0.960587 0
M  V30 38139 C 3610.77 1.0912 1.7011 0
M  V30 38140 C 3611.09 -0.369511 1.91467 0
M  V30 38141 O 3610.36 -1.26299 1.49751 0
M  V30 38142 H 3608.94 0.40081 0.630365 0
M  V30 38143 H 3611.6 1.56973 1.15523 0
M  V30 38144 H 3610.7 1.59485 2.68274 0
M  V30 38145 N 3611 -1.16233 1.06432 0
M  V30 38146 C 3612.25 -1.86797 0.781873 0
M  V30 38147 C 3612.57 -1.81785 -0.691702 0
M  V30 38148 O 3611.83 -1.22934 -1.52268 0
M  V30 38149 C 3612.13 -3.35804 1.22354 0
M  V30 38150 C 3611.79 -3.61015 2.70147 0
M  V30 38151 C 3610.46 -3.67604 3.10517 0
M  V30 38152 C 3612.81 -3.71476 3.65589 0
M  V30 38153 C 3610.14 -3.82157 4.45166 0
M  V30 38154 C 3612.49 -3.87551 4.99987 0
M  V30 38155 C 3611.15 -3.92383 5.39993 0
M  V30 38156 H 3610.42 -0.683537 0.286108 0
M  V30 38157 H 3613.07 -1.37425 1.33366 0
M  V30 38158 H 3611.37 -3.87318 0.590964 0
M  V30 38159 H 3613.07 -3.88789 0.982027 0
M  V30 38160 H 3609.66 -3.5652 2.3789 0
M  V30 38161 H 3613.84 -3.65694 3.35532 0
M  V30 38162 H 3609.1 -3.84152 4.75644 0
M  V30 38163 H 3613.27 -3.94587 5.73824 0
M  V30 38164 H 3610.9 -4.03412 6.44331 0
M  V30 38165 N 3612.48 -0.847097 -1.32899 0
M  V30 38166 C 3613.72 -0.452975 -1.99318 0
M  V30 38167 C 3614.08 0.971506 -1.65607 0
M  V30 38168 O 3615.28 1.46979 -2.25057 0
M  V30 38169 C 3613.55 -0.676622 -3.50937 0
M  V30 38170 S 3615.11 -0.378946 -4.37161 0
M  V30 38171 H 3611.93 -0.17002 -0.690373 0
M  V30 38172 H 3614.53 -1.09817 -1.61742 0
M  V30 38173 H 3613.24 -1.71258 -3.7296 0
M  V30 38174 H 3612.77 -0.0175741 -3.93396 0
M  V30 38175 H 3614.78 0.798044 -4.8974 0
M  V30 38176 N 3613.95 1.45554 -0.604309 0
M  V30 38177 C 3614.9 2.30506 0.11645 0
M  V30 38178 C 3615.87 1.41909 0.863189 0
M  V30 38179 O 3617.06 1.70842 0.849576 0
M  V30 38180 C 3614.2 3.2676 1.11003 0
M  V30 38181 C 3613.31 4.30459 0.364504 0
M  V30 38182 C 3612.44 5.13824 1.34752 0
M  V30 38183 C 3611.48 6.09254 0.589617 0
M  V30 38184 N 3610.62 6.8541 1.52175 0
M  V30 38185 H 3615.46 2.91606 -0.613991 0
M  V30 38186 H 3613 1.43697 -0.314586 0
M  V30 38187 H 3614.96 3.8103 1.69918 0
M  V30 38188 H 3613.59 2.67421 1.80792 0
M  V30 38189 H 3612.64 3.78877 -0.340093 0
M  V30 38190 H 3613.95 4.98283 -0.226993 0
M  V30 38191 H 3613.1 5.72478 2.00883 0
M  V30 38192 H 3611.84 4.46011 1.97294 0
M  V30 38193 H 3610.85 5.49734 -0.0853452 0
M  V30 38194 H 3612.07 6.79093 -0.0307195 0
M  V30 38195 H 3610.02 6.20289 2.13488 0
M  V30 38196 H 3609.94 7.49574 0.983605 0
M  V30 38197 H 3611.2 7.48607 2.17274 0
M  V30 38198 N 3615.43 0.343284 1.53816 0
M  V30 38199 C 3616.36 -0.505965 2.27952 0
M  V30 38200 C 3617.34 -1.10285 1.29504 0
M  V30 38201 O 3618.53 -1.12429 1.58346 0
M  V30 38202 C 3615.66 -1.65718 3.05213 0
M  V30 38203 C 3614.61 -1.18864 4.11163 0
M  V30 38204 C 3613.94 -2.42835 4.76377 0
M  V30 38205 C 3615.24 -0.289311 5.21498 0
M  V30 38206 H 3616.93 0.112488 2.99189 0
M  V30 38207 H 3614.48 0.0555413 1.43893 0
M  V30 38208 H 3616.43 -2.25774 3.55815 0
M  V30 38209 H 3615.16 -2.30252 2.31628 0
M  V30 38210 H 3613.81 -0.610899 3.61474 0
M  V30 38211 H 3613.46 -3.05776 3.99387 0
M  V30 38212 H 3613.16 -2.12168 5.47959 0
M  V30 38213 H 3614.69 -3.03618 5.29763 0
M  V30 38214 H 3616.1 -0.796708 5.67737 0
M  V30 38215 H 3614.5 -0.0745311 6.00054 0
M  V30 38216 H 3615.57 0.674627 4.80184 0
M  V30 38217 N 3616.91 -1.57436 0.0718977 0
M  V30 38218 C 3617.86 -2.09252 -0.905407 0
M  V30 38219 C 3618.84 -1.00223 -1.25873 0
M  V30 38220 O 3620.04 -1.26531 -1.23769 0
M  V30 38221 C 3617.17 -2.65779 -2.17293 0
M  V30 38222 C 3616.25 -3.81812 -1.84608 0
M  V30 38223 N 3616.64 -4.90773 -1.22373 0
M  V30 38224 C 3614.94 -3.9111 -2.14357 0
M  V30 38225 C 3615.64 -5.71628 -1.07781 0
M  V30 38226 N 3614.62 -5.19902 -1.58755 0
M  V30 38227 H 3618.42 -2.90885 -0.419904 0
M  V30 38228 H 3615.93 -1.61863 -0.131989 0
M  V30 38229 H 3617.93 -3.01216 -2.88226 0
M  V30 38230 H 3616.59 -1.85593 -2.66431 0
M  V30 38231 H 3617.6 -5.10137 -0.89336 0
M  V30 38232 H 3614.28 -3.21899 -2.65871 0
M  V30 38233 H 3615.67 -6.69279 -0.592944 0
M  V30 38234 N 3618.39 0.201658 -1.56305 0
M  V30 38235 C 3619.34 1.26946 -1.94904 0
M  V30 38236 C 3620.33 1.4747 -0.8336 0
M  V30 38237 O 3621.54 1.48409 -1.01857 0
M  V30 38238 H 3617.91 0.426042 -0.619671 0
M  V30 38239 H 3619.88 0.91685 -2.83966 0
M  V30 38240 C 3618.63 2.60831 -2.29918 0
M  V30 38241 H 3617.95 2.45852 -3.15272 0
M  V30 38242 H 3619.39 3.34309 -2.60794 0
M  V30 38243 C 3617.85 3.17333 -1.13142 0
M  V30 38244 O 3618.38 3.99674 -0.402985 0
M  V30 38245 N 3616.59 2.75986 -0.909961 0
M  V30 38246 H 3616.14 2.09132 -1.50405 0
M  V30 38247 H 3616.09 3.14129 -0.130404 0
M  V30 38248 N 3619.87 1.50456 0.469128 0
M  V30 38249 C 3621.11 1.62751 1.21999 0
M  V30 38250 C 3621.47 0.324644 1.89641 0
M  V30 38251 O 3620.76 -0.677565 1.79219 0
M  V30 38252 C 3620.95 2.74674 2.28668 0
M  V30 38253 C 3620.78 4.15717 1.71491 0
M  V30 38254 C 3619.55 4.82092 1.51377 0
M  V30 38255 C 3621.75 4.99893 1.20877 0
M  V30 38256 N 3619.73 6.07346 0.894638 0
M  V30 38257 C 3621.1 6.15887 0.712976 0
M  V30 38258 C 3623.16 4.85654 1.0975 0
M  V30 38259 C 3621.86 7.19205 0.116889 0
M  V30 38260 C 3623.89 5.8915 0.515349 0
M  V30 38261 C 3623.25 7.04394 0.0299448 0
M  V30 38262 H 3619.35 0.649686 0.435237 0
M  V30 38263 H 3621.93 1.87581 0.521673 0
M  V30 38264 H 3620.1 2.51562 2.95924 0
M  V30 38265 H 3621.84 2.76316 2.95688 0
M  V30 38266 H 3618.59 4.39419 1.76658 0
M  V30 38267 H 3619.02 6.74305 0.603428 0
M  V30 38268 H 3623.66 3.96839 1.45871 0
M  V30 38269 H 3621.38 8.07693 -0.25652 0
M  V30 38270 H 3624.96 5.80197 0.431596 0
M  V30 38271 H 3623.84 7.83109 -0.413465 0
M  V30 38272 N 3621.34 -0.722439 1.40066 0
M  V30 38273 C 3622.29 -1.85786 1.39951 0
M  V30 38274 C 3623.29 -1.67054 0.280919 0
M  V30 38275 O 3624.49 -1.74243 0.451605 0
M  V30 38276 H 3620.87 -0.611774 0.437307 0
M  V30 38277 H 3622.84 -1.83 2.35698 0
M  V30 38278 C 3621.59 -3.23588 1.27224 0
M  V30 38279 H 3620.91 -3.38605 2.12572 0
M  V30 38280 H 3622.35 -4.0319 1.31202 0
M  V30 38281 C 3620.81 -3.36895 -0.0181873 0
M  V30 38282 O 3621.34 -3.89469 -0.983693 0
M  V30 38283 N 3619.55 -2.90474 -0.0854196 0
M  V30 38284 H 3619.09 -2.47879 0.700996 0
M  V30 38285 H 3619.05 -2.99757 -0.948315 0
M  V30 38286 N 3622.82 -1.2545 -0.953947 0
M  V30 38287 C 3624.06 -1.11444 -1.71346 0
M  V30 38288 C 3624.43 0.338715 -1.88989 0
M  V30 38289 O 3625.63 0.600606 -2.62004 0
M  V30 38290 C 3623.9 -1.84872 -3.05871 0
M  V30 38291 S 3625.46 -1.86766 -3.97069 0
M  V30 38292 H 3622.28 -0.39832 -0.58895 0
M  V30 38293 H 3624.88 -1.58984 -1.13773 0
M  V30 38294 H 3623.58 -2.89691 -2.90701 0
M  V30 38295 H 3623.11 -1.37722 -3.68505 0
M  V30 38296 H 3625.13 -0.945195 -4.87114 0
M  V30 38297 N 3624.3 1.15667 -1.07047 0
M  V30 38298 C 3625.55 1.86656 -0.792941 0
M  V30 38299 C 3625.88 1.81936 0.679181 0
M  V30 38300 O 3625.16 1.24033 1.4982 0
M  V30 38301 C 3625.44 3.35898 -1.29786 0
M  V30 38302 C 3625.29 3.49267 -2.8343 0
M  V30 38303 C 3626.61 4.30549 -0.911897 0
M  V30 38304 H 3623.73 0.677751 -0.289521 0
M  V30 38305 H 3626.37 1.35911 -1.32771 0
M  V30 38306 H 3624.52 3.79245 -0.842946 0
M  V30 38307 H 3626.19 3.14805 -3.37188 0
M  V30 38308 H 3624.44 2.90927 -3.21782 0
M  V30 38309 H 3625.11 4.54111 -3.13827 0
M  V30 38310 H 3627.58 3.95145 -1.30383 0
M  V30 38311 H 3626.46 5.33464 -1.29256 0
M  V30 38312 H 3626.72 4.41723 0.182473 0
M  V30 38313 N 3625.78 0.854133 1.32447 0
M  V30 38314 C 3626.73 0.287156 2.30821 0
M  V30 38315 C 3627.72 -0.589183 1.58824 0
M  V30 38316 O 3628.93 -0.477044 1.73563 0
M  V30 38317 H 3625.3 0.0741547 0.748335 0
M  V30 38318 H 3627.27 1.13109 2.76132 0
M  V30 38319 C 3626.02 -0.510069 3.43938 0
M  V30 38320 H 3625.35 0.154966 3.995 0
M  V30 38321 H 3626.79 -0.872378 4.14928 0
M  V30 38322 C 3625.24 -1.69508 2.9115 0
M  V30 38323 O 3625.77 -2.79415 2.886 0
M  V30 38324 N 3623.98 -1.52197 2.47557 0
M  V30 38325 H 3623.53 -0.627897 2.4983 0
M  V30 38326 H 3623.49 -2.3163 2.12591 0
M  V30 38327 N 3627.26 -1.45231 0.61202 0
M  V30 38328 C 3628.5 -2.04093 0.11201 0
M  V30 38329 C 3628.86 -1.46952 -1.23568 0
M  V30 38330 O 3630.06 -1.97195 -1.82668 0
M  V30 38331 C 3628.33 -3.57315 0.0780029 0
M  V30 38332 S 3629.89 -4.37319 -0.36017 0
M  V30 38333 H 3626.71 -0.709115 0.0517341 0
M  V30 38334 H 3629.31 -1.77879 0.811119 0
M  V30 38335 H 3628.02 -3.96413 1.0623 0
M  V30 38336 H 3627.55 -3.8811 -0.64296 0
M  V30 38337 H 3629.56 -4.69398 -1.60871 0
M  V30 38338 N 3628.74 -0.351436 -1.53632 0
M  V30 38339 C 3630.01 0.298328 -1.93312 0
M  V30 38340 C 3630.39 1.67582 -1.28372 0
M  V30 38341 O 3629.74 2.24272 -0.437553 0
M  V30 38342 C 3629.95 0.362712 -3.4711 0
M  V30 38343 C 3631.3 0.609804 -4.20198 0
M  V30 38344 O 3632.32 0.444504 -3.53416 0
M  V30 38345 O 3631.18 0.930596 -5.38518 0
M  V30 38346 H 3628.28 0.175725 -0.808115 0
M  V30 38347 H 3630.82 -0.403189 -1.64841 0
M  V30 38348 H 3629.59 -0.603638 -3.86616 0
M  V30 38349 H 3629.22 1.11069 -3.81771 0
M  V30 38350 N 3630.21 1.57396 -0.0802459 0
M  V30 38351 C 3631.44 1.98138 0.595719 0
M  V30 38352 C 3631.86 0.9589 1.62636 0
M  V30 38353 O 3631.21 -0.0533995 1.82422 0
M  V30 38354 C 3631.26 3.38952 1.25674 0
M  V30 38355 O 3630.99 4.37284 0.26734 0
M  V30 38356 C 3632.49 3.94616 2.01973 0
M  V30 38357 H 3629.71 0.651438 0.160841 0
M  V30 38358 H 3632.25 2.03911 -0.155147 0
M  V30 38359 H 3630.41 3.3424 1.95864 0
M  V30 38360 H 3630.82 5.19216 0.742604 0
M  V30 38361 H 3632.29 4.95339 2.43604 0
M  V30 38362 H 3632.77 3.3162 2.87967 0
M  V30 38363 H 3633.38 4.02755 1.36632 0
M  V30 38364 N 3631.69 -0.193366 1.56409 0
M  V30 38365 C 3632.94 -0.91349 1.80725 0
M  V30 38366 C 3633.27 -1.83184 0.65375 0
M  V30 38367 O 3632.52 -1.92353 -0.360383 0
M  V30 38368 C 3632.82 -1.76033 3.11042 0
M  V30 38369 C 3632.49 -0.992814 4.39834 0
M  V30 38370 C 3631.15 -0.780907 4.74821 0
M  V30 38371 C 3633.5 -0.452894 5.19229 0
M  V30 38372 C 3630.83 -0.0176255 5.86697 0
M  V30 38373 C 3633.18 0.297186 6.31902 0
M  V30 38374 C 3631.84 0.520094 6.65471 0
M  V30 38375 H 3631.11 -0.33427 0.661321 0
M  V30 38376 H 3633.76 -0.179753 1.90655 0
M  V30 38377 H 3632.07 -2.5628 2.96358 0
M  V30 38378 H 3633.76 -2.32016 3.27062 0
M  V30 38379 H 3630.35 -1.16799 4.12378 0
M  V30 38380 H 3634.54 -0.604006 4.92611 0
M  V30 38381 H 3629.79 0.165032 6.11177 0
M  V30 38382 H 3633.97 0.722922 6.92638 0
M  V30 38383 H 3631.59 1.11344 7.52002 0
M  V30 38384 N 3633.17 -1.50702 -0.461142 0
M  V30 38385 C 3634.41 -1.63833 -1.22222 0
M  V30 38386 C 3634.77 -0.335892 -1.89039 0
M  V30 38387 O 3635.97 -0.342721 -2.66606 0
M  V30 38388 C 3634.25 -2.79259 -2.23045 0
M  V30 38389 S 3635.8 -3.12581 -3.07958 0
M  V30 38390 H 3632.62 -0.577447 -0.41482 0
M  V30 38391 H 3635.22 -1.88524 -0.517592 0
M  V30 38392 H 3633.93 -3.72361 -1.72555 0
M  V30 38393 H 3633.46 -2.56684 -2.98122 0
M  V30 38394 H 3635.47 -2.57175 -4.24353 0
M  V30 38395 N 3634.65 0.715001 -1.40447 0
M  V30 38396 C 3635.61 1.8108 -1.40509 0
M  V30 38397 C 3636.61 1.58 -0.298796 0
M  V30 38398 O 3637.8 1.6503 -0.557729 0
M  V30 38399 C 3634.93 3.19179 -1.19741 0
M  V30 38400 H 3636.13 1.82423 -2.38037 0
M  V30 38401 H 3633.68 0.920696 -1.26305 0
M  V30 38402 H 3634.41 3.23485 -0.229752 0
M  V30 38403 H 3634.2 3.3733 -1.99877 0
M  V30 38404 H 3635.69 3.99206 -1.22573 0
M  V30 38405 N 3636.13 1.25954 0.947281 0
M  V30 38406 C 3637.37 1.10918 1.68943 0
M  V30 38407 C 3637.69 -0.349182 1.91848 0
M  V30 38408 O 3636.96 -1.24704 1.51082 0
M  V30 38409 H 3635.54 0.407473 0.626079 0
M  V30 38410 H 3638.21 1.58189 1.13851 0
M  V30 38411 H 3637.3 1.62321 2.66567 0
M  V30 38412 N 3637.6 -1.15097 1.07659 0
M  V30 38413 C 3638.83 -1.90374 0.822943 0
M  V30 38414 C 3639.25 -1.77645 -0.618384 0
M  V30 38415 O 3638.61 -1.11131 -1.43246 0
M  V30 38416 C 3638.66 -3.38612 1.23994 0
M  V30 38417 O 3637.76 -4.10579 0.387157 0
M  V30 38418 H 3637.11 -0.592596 0.299542 0
M  V30 38419 H 3639.64 -1.45738 1.43602 0
M  V30 38420 H 3639.65 -3.89412 1.21748 0
M  V30 38421 H 3638.32 -3.47195 2.28972 0
M  V30 38422 H 3636.9 -3.69896 0.472376 0
M  V30 38423 N 3639.08 -0.861145 -1.31993 0
M  V30 38424 C 3640.31 -0.481901 -2.0121 0
M  V30 38425 C 3640.73 0.923204 -1.64689 0
M  V30 38426 O 3640.08 1.60345 -0.871538 0
M  V30 38427 C 3640.13 -0.618982 -3.56161 0
M  V30 38428 O 3639.85 -1.96874 -3.91372 0
M  V30 38429 C 3641.36 -0.239592 -4.42652 0
M  V30 38430 H 3638.58 -0.188704 -0.643919 0
M  V30 38431 H 3641.12 -1.15988 -1.68425 0
M  V30 38432 H 3639.27 0.0113361 -3.87398 0
M  V30 38433 H 3639.69 -1.97017 -4.86091 0
M  V30 38434 H 3641.16 -0.386491 -5.50645 0
M  V30 38435 H 3641.64 0.820522 -4.31467 0
M  V30 38436 H 3642.25 -0.845248 -4.16816 0
M  V30 38437 N 3640.56 1.44905 -0.619713 0
M  V30 38438 C 3641.81 2.02146 -0.119669 0
M  V30 38439 C 3642.14 1.48653 1.2543 0
M  V30 38440 O 3641.39 0.656187 1.84371 0
M  V30 38441 C 3641.69 3.57374 -0.043352 0
M  V30 38442 C 3641.36 4.30072 -1.35458 0
M  V30 38443 C 3640.02 4.4965 -1.71373 0
M  V30 38444 C 3642.37 4.71528 -2.22061 0
M  V30 38445 C 3639.7 5.07941 -2.9362 0
M  V30 38446 C 3642.05 5.31172 -3.43568 0
M  V30 38447 C 3640.71 5.48971 -3.7972 0
M  V30 38448 H 3639.98 0.739705 -0.0437899 0
M  V30 38449 H 3642.63 1.73816 -0.803752 0
M  V30 38450 H 3640.94 3.85052 0.724052 0
M  V30 38451 H 3642.63 3.99382 0.359893 0
M  V30 38452 H 3639.22 4.15156 -1.06507 0
M  V30 38453 H 3643.41 4.56125 -1.95611 0
M  V30 38454 H 3638.66 5.19909 -3.21721 0
M  V30 38455 H 3642.84 5.62246 -4.10916 0
M  V30 38456 H 3640.46 5.93906 -4.7453 0
M  V30 38457 N 3642.04 0.359579 1.53443 0
M  V30 38458 C 3643.29 -0.233074 2.00349 0
M  V30 38459 C 3643.6 -1.50359 1.25107 0
M  V30 38460 O 3644.81 -2.17447 1.6257 0
M  V30 38461 C 3643.26 -0.465888 3.56872 0
M  V30 38462 C 3642.87 0.789648 4.40986 0
M  V30 38463 C 3644.61 -1.01652 4.12149 0
M  V30 38464 C 3642.52 0.52675 5.89049 0
M  V30 38465 H 3641.45 -0.090872 0.748504 0
M  V30 38466 H 3644.1 0.477391 1.77181 0
M  V30 38467 H 3642.48 -1.23746 3.76169 0
M  V30 38468 H 3643.66 1.56355 4.33462 0
M  V30 38469 H 3641.97 1.26307 3.96781 0
M  V30 38470 H 3644.57 -1.22844 5.20397 0
M  V30 38471 H 3644.91 -1.97687 3.66368 0
M  V30 38472 H 3645.45 -0.305264 3.96627 0
M  V30 38473 H 3642.19 1.45726 6.39096 0
M  V30 38474 H 3641.71 -0.20877 5.99437 0
M  V30 38475 H 3643.38 0.150003 6.46826 0
M  V30 38476 N 3643.52 -1.57351 0.0885919 0
M  V30 38477 C 3644.74 -1.98872 -0.588606 0
M  V30 38478 C 3645.17 -0.967153 -1.61331 0
M  V30 38479 O 3644.52 0.0651831 -1.81183 0
M  V30 38480 C 3644.57 -3.39381 -1.21871 0
M  V30 38481 O 3643.68 -3.39959 -2.33456 0
M  V30 38482 H 3643.02 -0.646852 -0.149927 0
M  V30 38483 H 3645.55 -2.03908 0.168079 0
M  V30 38484 H 3645.56 -3.76934 -1.56157 0
M  V30 38485 H 3644.23 -4.13259 -0.467964 0
M  V30 38486 H 3642.81 -3.14195 -2.00838 0
M  V30 38487 N 3644.99 0.185069 -1.5651 0
M  V30 38488 C 3646.27 0.930368 -1.72057 0
M  V30 38489 C 3646.65 2.00967 -0.646181 0
M  V30 38490 O 3646 2.25937 0.341251 0
M  V30 38491 C 3646.21 1.50765 -3.14755 0
M  V30 38492 C 3647.56 1.98591 -3.75296 0
M  V30 38493 O 3648.58 1.60588 -3.17947 0
M  V30 38494 O 3647.44 2.68552 -4.75964 0
M  V30 38495 H 3644.53 0.436977 -0.702125 0
M  V30 38496 H 3647.08 0.173977 -1.68806 0
M  V30 38497 H 3645.85 0.730168 -3.84427 0
M  V30 38498 H 3645.48 2.32861 -3.22276 0
M  V30 38499 N 3646.47 1.50945 0.453144 0
M  V30 38500 C 3647.38 1.73932 1.57432 0
M  V30 38501 C 3648.4 0.622963 1.62466 0
M  V30 38502 O 3649.57 0.903397 1.80002 0
M  V30 38503 C 3646.64 1.845 2.93531 0
M  V30 38504 C 3645.7 3.08305 2.98741 0
M  V30 38505 C 3644.93 3.1836 4.28349 0
M  V30 38506 O 3645.16 2.34747 5.19856 0
M  V30 38507 O 3644.09 4.11225 4.3952 0
M  V30 38508 H 3647.92 2.69009 1.40954 0
M  V30 38509 H 3645.5 1.35256 0.634521 0
M  V30 38510 H 3647.38 1.93528 3.74332 0
M  V30 38511 H 3646.06 0.926098 3.10169 0
M  V30 38512 H 3644.97 3.04766 2.16952 0
M  V30 38513 H 3646.3 3.99833 2.87044 0
M  V30 38514 N 3647.95 -0.707543 1.40825 0
M  V30 38515 C 3649.2 -1.46968 1.39744 0
M  V30 38516 C 3649.53 -1.942 0.00234607 0
M  V30 38517 O 3648.8 -1.68714 -0.967768 0
M  V30 38518 C 3649.09 -2.69007 2.3939 0
M  V30 38519 C 3648.94 -2.27617 3.87957 0
M  V30 38520 C 3650.26 -3.71182 2.36457 0
M  V30 38521 H 3647.38 -0.533082 0.508913 0
M  V30 38522 H 3650.02 -0.806857 1.72017 0
M  V30 38523 H 3648.17 -3.25559 2.11999 0
M  V30 38524 H 3649.84 -1.76485 4.26205 0
M  V30 38525 H 3648.09 -1.5953 4.03401 0
M  V30 38526 H 3648.76 -3.15131 4.53207 0
M  V30 38527 H 3651.23 -3.24277 2.60736 0
M  V30 38528 H 3650.11 -4.54199 3.08212 0
M  V30 38529 H 3650.37 -4.20044 1.37898 0
M  V30 38530 N 3649.43 -1.26454 -0.940588 0
M  V30 38531 C 3650.39 -1.08123 -2.02094 0
M  V30 38532 C 3651.39 -0.0293675 -1.60773 0
M  V30 38533 O 3652.58 -0.272827 -1.7205 0
M  V30 38534 C 3649.71 -0.644705 -3.34748 0
M  V30 38535 H 3650.91 -2.04042 -2.19788 0
M  V30 38536 H 3648.46 -1.0906 -1.11963 0
M  V30 38537 H 3649.19 0.316452 -3.22752 0
M  V30 38538 H 3648.98 -1.40423 -3.66093 0
M  V30 38539 H 3650.47 -0.538306 -4.14116 0
M  V30 38540 N 3650.91 1.14525 -1.08268 0
M  V30 38541 C 3652.32 1.37516 -0.810025 0
M  V30 38542 C 3652.52 1.92931 0.581365 0
M  V30 38543 O 3651.58 2.14109 1.33842 0
M  V30 38544 C 3652.89 2.33755 -1.89153 0
M  V30 38545 C 3654.44 2.47398 -1.91738 0
M  V30 38546 C 3654.91 3.46935 -2.98998 0
M  V30 38547 N 3656.41 3.54478 -2.98161 0
M  V30 38548 C 3657.14 4.31342 -3.77798 0
M  V30 38549 N 3656.64 5.11461 -4.67311 0
M  V30 38550 N 3658.43 4.26524 -3.66106 0
M  V30 38551 H 3650.58 0.769013 -1.9799 0
M  V30 38552 H 3652.84 0.400765 -0.859122 0
M  V30 38553 H 3652.55 2.00171 -2.89179 0
M  V30 38554 H 3652.42 3.33643 -1.75961 0
M  V30 38555 H 3654.81 2.80275 -0.923581 0
M  V30 38556 H 3654.89 1.47476 -2.09008 0
M  V30 38557 H 3654.54 3.14792 -3.98583 0
M  V30 38558 H 3654.47 4.46634 -2.78973 0
M  V30 38559 H 3656.96 2.97301 -2.33282 0
M  V30 38560 H 3657.27 5.67383 -5.24686 0
M  V30 38561 H 3655.61 5.10735 -4.71354 0
M  V30 38562 H 3658.81 3.63002 -2.95545 0
M  V30 38563 H 3658.98 4.86177 -4.28411 0
M  V30 38564 N 3652.39 0.868133 1.31534 0
M  V30 38565 C 3653.66 0.398899 1.91489 0
M  V30 38566 C 3654.04 -1.11887 1.7901 0
M  V30 38567 O 3653.39 -1.94662 1.19663 0
M  V30 38568 C 3653.6 0.878233 3.37769 0
M  V30 38569 C 3654.95 0.903289 4.14881 0
M  V30 38570 O 3655.97 0.823764 3.46544 0
M  V30 38571 O 3654.83 1.01803 5.36934 0
M  V30 38572 H 3651.93 0.118985 0.818396 0
M  V30 38573 H 3654.47 0.955924 1.40215 0
M  V30 38574 H 3653.24 1.92176 3.40858 0
M  V30 38575 H 3652.87 0.299415 3.96471 0
M  V30 38576 N 3653.86 -1.44574 0.627389 0
M  V30 38577 C 3654.79 -2.33405 -0.066694 0
M  V30 38578 C 3655.77 -1.47989 -0.83864 0
M  V30 38579 O 3656.96 -1.76718 -0.805265 0
M  V30 38580 C 3654.09 -3.31002 -1.05142 0
M  V30 38581 C 3653.04 -4.26207 -0.391358 0
M  V30 38582 C 3652.37 -5.13644 -1.48572 0
M  V30 38583 C 3653.67 -5.17588 0.700033 0
M  V30 38584 H 3655.36 -2.9169 0.67508 0
M  V30 38585 H 3652.91 -1.40259 0.326091 0
M  V30 38586 H 3654.86 -3.92028 -1.54569 0
M  V30 38587 H 3653.59 -2.70918 -1.82403 0
M  V30 38588 H 3652.25 -3.66508 0.0822339 0
M  V30 38589 H 3651.89 -4.49915 -2.24912 0
M  V30 38590 H 3651.59 -5.78152 -1.04947 0
M  V30 38591 H 3653.12 -5.77541 -1.98188 0
M  V30 38592 H 3654.53 -5.72571 0.289012 0
M  V30 38593 H 3652.93 -5.90678 1.0592 0
M  V30 38594 H 3654 -4.58825 1.56869 0
M  V30 38595 N 3655.34 -0.367711 -1.5325 0
M  V30 38596 C 3656.57 0.224609 -2.0618 0
M  V30 38597 C 3656.99 1.41503 -1.23929 0
M  V30 38598 O 3656.35 1.79442 -0.25889 0
M  V30 38599 C 3656.4 0.594109 -3.55672 0
M  V30 38600 O 3655.5 1.69105 -3.76135 0
M  V30 38601 H 3654.84 0.0321982 -0.663219 0
M  V30 38602 H 3657.37 -0.528932 -1.97645 0
M  V30 38603 H 3657.38 0.864518 -3.98736 0
M  V30 38604 H 3656.06 -0.276327 -4.14981 0
M  V30 38605 H 3654.63 1.41603 -3.44968 0
M  V30 38606 N 3656.82 1.57302 -0.0969353 0
M  V30 38607 C 3657.75 2.17149 0.858405 0
M  V30 38608 C 3658.73 1.10534 1.29292 0
M  V30 38609 O 3659.92 1.38679 1.35948 0
M  V30 38610 C 3657.05 2.75329 2.11686 0
M  V30 38611 C 3656 3.87333 1.82091 0
M  V30 38612 C 3655.33 4.32224 3.1478 0
M  V30 38613 C 3656.63 5.10446 1.10642 0
M  V30 38614 H 3658.32 2.97231 0.359768 0
M  V30 38615 H 3655.87 1.42974 0.171605 0
M  V30 38616 H 3657.82 3.15849 2.78957 0
M  V30 38617 H 3656.54 1.92505 2.63836 0
M  V30 38618 H 3655.2 3.47356 1.17216 0
M  V30 38619 H 3654.85 3.46288 3.6482 0
M  V30 38620 H 3654.55 5.0774 2.9576 0
M  V30 38621 H 3656.07 4.75379 3.83207 0
M  V30 38622 H 3657.49 5.48124 1.68027 0
M  V30 38623 H 3655.88 5.91403 1.01795 0
M  V30 38624 H 3656.95 4.84817 0.0894782 0
M  V30 38625 N 3658.3 -0.176766 1.56606 0
M  V30 38626 C 3659.23 -1.24339 1.92542 0
M  V30 38627 C 3660.24 -1.4076 0.817944 0
M  V30 38628 O 3661.43 -1.4086 1.09638 0
M  V30 38629 C 3658.53 -2.61289 2.15827 0
M  V30 38630 C 3657.7 -2.66237 3.4704 0
M  V30 38631 C 3656.76 -3.84513 3.59216 0
M  V30 38632 O 3655.79 -3.70764 4.31883 0
M  V30 38633 N 3656.99 -5.00742 2.93662 0
M  V30 38634 H 3659.76 -0.938196 2.84637 0
M  V30 38635 H 3657.32 -0.366569 1.57696 0
M  V30 38636 H 3659.31 -3.38871 2.21243 0
M  V30 38637 H 3657.88 -2.84221 1.30143 0
M  V30 38638 H 3657.1 -1.74792 3.53329 0
M  V30 38639 H 3658.39 -2.66549 4.33392 0
M  V30 38640 H 3657.79 -5.14814 2.34485 0
M  V30 38641 H 3656.34 -5.76206 3.04681 0
M  V30 38642 N 3659.78 -1.51183 -0.445132 0
M  V30 38643 C 3661.02 -1.63465 -1.19521 0
M  V30 38644 C 3661.35 -0.34717 -1.91377 0
M  V30 38645 O 3660.61 0.668375 -1.83933 0
M  V30 38646 C 3660.9 -2.78277 -2.24269 0
M  V30 38647 C 3660.57 -4.17836 -1.69482 0
M  V30 38648 C 3659.23 -4.55803 -1.54263 0
M  V30 38649 C 3661.58 -5.04953 -1.29119 0
M  V30 38650 C 3658.91 -5.78602 -0.97143 0
M  V30 38651 C 3661.26 -6.28324 -0.734316 0
M  V30 38652 C 3659.93 -6.65071 -0.568962 0
M  V30 38653 H 3659.2 -0.598162 -0.437359 0
M  V30 38654 H 3661.85 -1.85194 -0.487387 0
M  V30 38655 H 3660.15 -2.50739 -3.0106 0
M  V30 38656 H 3661.85 -2.8498 -2.82112 0
M  V30 38657 H 3658.44 -3.87897 -1.82302 0
M  V30 38658 H 3662.62 -4.76232 -1.39701 0
M  V30 38659 H 3657.88 -6.05726 -0.831011 0
M  V30 38660 H 3662.05 -6.95174 -0.41301 0
M  V30 38661 H 3659.68 -7.60099 -0.124221 0
M  V30 38662 N 3661.25 0.700065 -1.41198 0
M  V30 38663 C 3662.2 1.81405 -1.42692 0
M  V30 38664 C 3663.17 1.63691 -0.281849 0
M  V30 38665 O 3664.36 1.84606 -0.482228 0
M  V30 38666 C 3661.5 3.1925 -1.31047 0
M  V30 38667 C 3660.61 3.48428 -2.55386 0
M  V30 38668 C 3659.74 4.75862 -2.36069 0
M  V30 38669 C 3658.78 4.97993 -3.55906 0
M  V30 38670 N 3657.92 6.16651 -3.35687 0
M  V30 38671 H 3662.76 1.79463 -2.37901 0
M  V30 38672 H 3660.3 0.87645 -1.18139 0
M  V30 38673 H 3662.25 3.98872 -1.22299 0
M  V30 38674 H 3660.88 3.20381 -0.394478 0
M  V30 38675 H 3659.94 2.63245 -2.74602 0
M  V30 38676 H 3661.25 3.60684 -3.44541 0
M  V30 38677 H 3660.4 5.63531 -2.24762 0
M  V30 38678 H 3659.14 4.65844 -1.44363 0
M  V30 38679 H 3658.15 4.08775 -3.67673 0
M  V30 38680 H 3659.37 5.09874 -4.48559 0
M  V30 38681 H 3657.32 6.07854 -2.46678 0
M  V30 38682 H 3657.23 6.29655 -4.18415 0
M  V30 38683 H 3658.5 7.07066 -3.28144 0
M  V30 38684 N 3662.73 1.26951 0.933869 0
M  V30 38685 C 3664.15 1.04222 1.20871 0
M  V30 38686 C 3664.35 -0.228076 2.00205 0
M  V30 38687 O 3663.4 -0.935243 2.34541 0
M  V30 38688 C 3664.72 2.27798 1.96286 0
M  V30 38689 C 3666.26 2.32774 2.09249 0
M  V30 38690 C 3666.74 3.56062 2.88069 0
M  V30 38691 N 3668.23 3.56583 2.95639 0
M  V30 38692 C 3668.97 4.48649 3.57074 0
M  V30 38693 N 3668.46 5.51011 4.1995 0
M  V30 38694 N 3670.25 4.36285 3.54418 0
M  V30 38695 H 3662.41 2.08528 0.403699 0
M  V30 38696 H 3664.67 0.91681 0.241173 0
M  V30 38697 H 3664.37 3.20234 1.45407 0
M  V30 38698 H 3664.25 2.32626 2.96926 0
M  V30 38699 H 3666.64 1.40848 2.59318 0
M  V30 38700 H 3666.72 2.31953 1.0785 0
M  V30 38701 H 3666.36 4.48321 2.38685 0
M  V30 38702 H 3666.29 3.54133 3.8974 0
M  V30 38703 H 3668.78 2.8255 2.50946 0
M  V30 38704 H 3669.09 6.17438 4.64747 0
M  V30 38705 H 3667.44 5.54861 4.18515 0
M  V30 38706 H 3670.63 3.55529 3.04494 0
M  V30 38707 H 3670.8 5.08227 4.02007 0
M  V30 38708 N 3664.21 -1.13949 1.08873 0
M  V30 38709 C 3665.62 -1.66656 0.841581 0
M  V30 38710 C 3665.97 -1.8578 -0.6309 0
M  V30 38711 O 3665.1 -1.57245 -1.48671 0
M  V30 38712 C 3665.69 -3.02732 1.52115 0
M  V30 38713 C 3664.25 -3.52454 1.32111 0
M  V30 38714 C 3663.4 -2.27823 1.58088 0
M  V30 38715 H 3666.35 -0.979488 1.24867 0
M  V30 38716 H 3666.37 -3.68423 0.951043 0
M  V30 38717 H 3665.88 -2.88781 2.59281 0
M  V30 38718 H 3663.98 -3.71618 0.270359 0
M  V30 38719 H 3664.1 -4.3293 2.05204 0
M  V30 38720 H 3662.46 -2.34133 1.00269 0
M  V30 38721 H 3663.24 -2.16444 2.66471 0
M  V30 38722 N 3665.69 -0.875096 -1.31072 0
M  V30 38723 C 3666.94 -0.484696 -1.9579 0
M  V30 38724 C 3667.25 0.969044 -1.69909 0
M  V30 38725 O 3668.46 1.46583 -2.28529 0
M  V30 38726 C 3666.91 -0.815866 -3.50531 0
M  V30 38727 C 3666.52 -2.28671 -3.85245 0
M  V30 38728 C 3668.26 -0.494185 -4.21614 0
M  V30 38729 C 3666.17 -2.56003 -5.3312 0
M  V30 38730 H 3665.1 -0.177528 -0.732803 0
M  V30 38731 H 3667.75 -1.06871 -1.49167 0
M  V30 38732 H 3666.13 -0.16105 -3.95672 0
M  V30 38733 H 3667.31 -2.98502 -3.51046 0
M  V30 38734 H 3665.62 -2.57494 -3.2724 0
M  V30 38735 H 3668.22 -0.675549 -5.30415 0
M  V30 38736 H 3668.56 0.565743 -4.12438 0
M  V30 38737 H 3669.1 -1.10577 -3.82123 0
M  V30 38738 H 3665.83 -3.60698 -5.47336 0
M  V30 38739 H 3665.35 -1.90771 -5.68653 0
M  V30 38740 H 3667.03 -2.40995 -6.00442 0
M  V30 38741 N 3667.17 1.44239 -0.635047 0
M  V30 38742 C 3668.11 2.32463 0.079681 0
M  V30 38743 C 3669.11 1.47572 0.831792 0
M  V30 38744 O 3670.31 1.63893 0.744249 0
M  V30 38745 H 3666.69 0.75068 0.04454 0
M  V30 38746 H 3668.66 2.90492 -0.682425 0
M  V30 38747 C 3667.41 3.31625 1.04499 0
M  V30 38748 H 3666.73 3.9696 0.475685 0
M  V30 38749 H 3668.17 3.96029 1.51451 0
M  V30 38750 C 3666.63 2.60846 2.13216 0
M  V30 38751 O 3667.16 2.4103 3.21352 0
M  V30 38752 N 3665.37 2.20519 1.89261 0
M  V30 38753 H 3664.91 2.36835 1.01325 0
M  V30 38754 H 3664.87 1.73489 2.622 0
M  V30 38755 N 3668.64 0.375833 1.53053 0
M  V30 38756 C 3670.06 -0.101155 1.86426 0
M  V30 38757 C 3670.41 -1.47298 1.29606 0
M  V30 38758 O 3669.53 -2.07265 0.622095 0
M  V30 38759 C 3670.13 -0.190329 3.38265 0
M  V30 38760 C 3668.69 -0.611588 3.71398 0
M  V30 38761 C 3667.83 0.234849 2.76304 0
M  V30 38762 H 3670.78 0.594237 1.47155 0
M  V30 38763 H 3670.8 -1.012 3.66795 0
M  V30 38764 H 3670.32 0.808247 3.79591 0
M  V30 38765 H 3668.42 -1.61802 3.35635 0
M  V30 38766 H 3668.53 -0.379084 4.77598 0
M  V30 38767 H 3666.89 -0.297843 2.52953 0
M  V30 38768 H 3667.68 1.23115 3.20464 0
M  V30 38769 N 3670.12 -1.57248 0.105276 0
M  V30 38770 C 3671.35 -1.99061 -0.564122 0
M  V30 38771 C 3671.77 -0.984653 -1.6109 0
M  V30 38772 O 3671.12 0.024371 -1.82484 0
M  V30 38773 C 3671.17 -3.40908 -1.20266 0
M  V30 38774 O 3670.89 -4.37654 -0.197738 0
M  V30 38775 C 3672.4 -3.97779 -1.9567 0
M  V30 38776 H 3669.62 -0.653914 -0.150457 0
M  V30 38777 H 3672.16 -2.03638 0.187568 0
M  V30 38778 H 3670.31 -3.37313 -1.90522 0
M  V30 38779 H 3670.73 -5.20332 -0.659907 0
M  V30 38780 H 3672.2 -4.99152 -2.35693 0
M  V30 38781 H 3672.68 -3.36159 -2.82655 0
M  V30 38782 H 3673.29 -4.04878 -1.30207 0
M  V30 38783 N 3671.6 0.168458 -1.56697 0
M  V30 38784 C 3672.88 0.912067 -1.73034 0
M  V30 38785 C 3673.26 2.0027 -0.667459 0
M  V30 38786 O 3672.61 2.26287 0.317268 0
M  V30 38787 C 3672.82 1.47419 -3.16337 0
M  V30 38788 C 3674.16 1.94599 -3.77381 0
M  V30 38789 O 3675.19 1.57206 -3.19632 0
M  V30 38790 O 3674.05 2.63489 -4.78786 0
M  V30 38791 H 3671.14 0.429505 -0.706721 0
M  V30 38792 H 3673.69 0.156063 -1.68981 0
M  V30 38793 H 3672.46 0.689354 -3.8518 0
M  V30 38794 H 3672.08 2.29429 -3.24727 0
M  V30 38795 N 3673.08 1.51417 0.437109 0
M  V30 38796 C 3674.01 1.68942 1.54891 0
M  V30 38797 C 3675.02 0.570085 1.52492 0
M  V30 38798 O 3676.21 0.844408 1.57264 0
M  V30 38799 C 3673.31 1.6891 2.93807 0
M  V30 38800 C 3672.49 2.97431 3.20708 0
M  V30 38801 C 3671.54 2.89583 4.3935 0
M  V30 38802 O 3670.57 3.63526 4.37992 0
M  V30 38803 N 3671.77 2.0545 5.42928 0
M  V30 38804 H 3674.54 2.64852 1.40263 0
M  V30 38805 H 3672.1 1.49306 0.626049 0
M  V30 38806 H 3674.09 1.61227 3.71198 0
M  V30 38807 H 3672.66 0.805924 3.02032 0
M  V30 38808 H 3671.88 3.18979 2.31615 0
M  V30 38809 H 3673.17 3.82506 3.35509 0
M  V30 38810 H 3672.57 1.44752 5.46867 0
M  V30 38811 H 3671.12 2.03647 6.1917 0
M  V30 38812 N 3674.56 -0.692567 1.41567 0
M  V30 38813 C 3675.78 -1.48632 1.44648 0
M  V30 38814 C 3676.21 -1.88022 0.0541928 0
M  V30 38815 O 3675.56 -1.54829 -0.943278 0
M  V30 38816 C 3675.61 -2.7233 2.36365 0
M  V30 38817 O 3674.72 -3.69931 1.82276 0
M  V30 38818 H 3674.06 -0.447228 0.490799 0
M  V30 38819 H 3676.59 -0.851023 1.86061 0
M  V30 38820 H 3676.6 -3.20605 2.52342 0
M  V30 38821 H 3675.27 -2.42998 3.37527 0
M  V30 38822 H 3673.85 -3.28879 1.75764 0
M  V30 38823 N 3676.03 -1.27445 -0.927123 0
M  V30 38824 C 3677.26 -1.16742 -1.71424 0
M  V30 38825 C 3677.68 0.27203 -1.86123 0
M  V30 38826 O 3677.04 1.197 -1.36167 0
M  V30 38827 C 3677.09 -1.85667 -3.09128 0
M  V30 38828 O 3676.19 -1.15502 -3.95895 0
M  V30 38829 H 3675.54 -0.405992 -0.52542 0
M  V30 38830 H 3678.07 -1.68525 -1.16019 0
M  V30 38831 H 3678.08 -1.93048 -3.59439 0
M  V30 38832 H 3676.75 -2.90379 -2.97747 0
M  V30 38833 H 3675.33 -1.16194 -3.54335 0
M  V30 38834 N 3677.51 1.1337 -1.09476 0
M  V30 38835 C 3678.74 1.88227 -0.851718 0
M  V30 38836 C 3679.15 1.79412 0.600676 0
M  V30 38837 O 3678.49 1.15898 1.42525 0
M  V30 38838 C 3678.56 3.38568 -1.2088 0
M  V30 38839 C 3678.22 3.71164 -2.66621 0
M  V30 38840 C 3679.22 3.70361 -3.64868 0
M  V30 38841 C 3676.9 4.00805 -3.02755 0
M  V30 38842 C 3678.9 3.98742 -4.97276 0
M  V30 38843 C 3676.58 4.28847 -4.35354 0
M  V30 38844 C 3677.58 4.27801 -5.32424 0
M  V30 38845 O 3677.27 4.55155 -6.62638 0
M  V30 38846 H 3677 0.602722 -0.306107 0
M  V30 38847 H 3679.55 1.44434 -1.46041 0
M  V30 38848 H 3677.78 3.82866 -0.543164 0
M  V30 38849 H 3679.47 3.9475 -0.944823 0
M  V30 38850 H 3680.24 3.47535 -3.38296 0
M  V30 38851 H 3676.12 4.00767 -2.27831 0
M  V30 38852 H 3679.66 3.9784 -5.73035 0
M  V30 38853 H 3675.56 4.51145 -4.61669 0
M  V30 38854 H 3676.33 4.72821 -6.68118 0
M  V30 38855 N 3678.99 0.882035 1.30606 0
M  V30 38856 C 3680.24 0.495072 1.9553 0
M  V30 38857 C 3680.55 -0.96002 1.7042 0
M  V30 38858 O 3681.76 -1.45369 2.29303 0
M  V30 38859 C 3680.21 0.834444 3.50093 0
M  V30 38860 C 3679.82 2.30711 3.84027 0
M  V30 38861 C 3681.57 0.516537 4.21346 0
M  V30 38862 C 3679.47 2.58826 5.31755 0
M  V30 38863 H 3678.4 0.181412 0.731851 0
M  V30 38864 H 3681.05 1.0766 1.48598 0
M  V30 38865 H 3679.44 0.182031 3.95581 0
M  V30 38866 H 3680.61 3.00359 3.49458 0
M  V30 38867 H 3678.93 2.59225 3.2587 0
M  V30 38868 H 3681.52 0.703669 5.3005 0
M  V30 38869 H 3681.87 -0.543862 4.12732 0
M  V30 38870 H 3682.4 1.12601 3.81531 0
M  V30 38871 H 3679.14 3.63596 5.45416 0
M  V30 38872 H 3678.66 1.93784 5.67633 0
M  V30 38873 H 3680.34 2.44176 5.99155 0
M  V30 38874 N 3680.47 -1.439 0.642688 0
M  V30 38875 C 3681.71 -2.02229 0.152038 0
M  V30 38876 C 3682.05 -1.5052 -1.22709 0
M  V30 38877 O 3681.32 -0.693969 -1.81698 0
M  V30 38878 C 3681.61 -3.59782 0.151341 0
M  V30 38879 C 3681.46 -4.21747 1.56363 0
M  V30 38880 C 3682.78 -4.37042 -0.517939 0
M  V30 38881 H 3679.9 -0.734814 0.0567223 0
M  V30 38882 H 3682.54 -1.71329 0.821367 0
M  V30 38883 H 3680.69 -3.86238 -0.418611 0
M  V30 38884 H 3682.36 -4.06358 2.18336 0
M  V30 38885 H 3680.6 -3.788 2.11408 0
M  V30 38886 H 3681.27 -5.30801 1.51508 0
M  V30 38887 H 3683.75 -4.16087 -0.0331216 0
M  V30 38888 H 3682.63 -5.46729 -0.487658 0
M  V30 38889 H 3682.89 -4.12507 -1.59029 0
M  V30 38890 N 3681.95 -0.383945 -1.52852 0
M  V30 38891 C 3683.22 0.257256 -1.93901 0
M  V30 38892 C 3683.6 1.64821 -1.31898 0
M  V30 38893 O 3682.95 2.23293 -0.485026 0
M  V30 38894 C 3683.16 0.289003 -3.47801 0
M  V30 38895 C 3684.51 0.520537 -4.21397 0
M  V30 38896 O 3685.53 0.36944 -3.54279 0
M  V30 38897 O 3684.39 0.816159 -5.40371 0
M  V30 38898 H 3681.49 0.158544 -0.811661 0
M  V30 38899 H 3684.03 -0.438063 -1.63948 0
M  V30 38900 H 3682.81 -0.685509 -3.85249 0
M  V30 38901 H 3682.43 1.02947 -3.84041 0
M  V30 38902 N 3683.43 1.5719 -0.113614 0
M  V30 38903 C 3684.65 1.99784 0.556893 0
M  V30 38904 C 3685.08 0.992697 1.59772 0
M  V30 38905 O 3684.43 -0.0363502 1.81264 0
M  V30 38906 C 3684.48 3.41277 1.16457 0
M  V30 38907 O 3683.59 3.4363 2.28018 0
M  V30 38908 H 3682.93 0.649156 0.139617 0
M  V30 38909 H 3685.46 2.03615 -0.200498 0
M  V30 38910 H 3685.47 3.7937 1.5014 0
M  V30 38911 H 3684.14 4.13951 0.402159 0
M  V30 38912 H 3682.72 3.1735 1.95814 0
M  V30 38913 N 3684.9 -0.160146 1.56784 0
M  V30 38914 C 3686.15 -0.876246 1.82893 0
M  V30 38915 C 3686.48 -1.81406 0.693205 0
M  V30 38916 O 3685.76 -1.92108 -0.304102 0
M  V30 38917 C 3686.04 -1.6622 3.19442 0
M  V30 38918 C 3685.89 -0.746753 4.43558 0
M  V30 38919 C 3687.21 -2.62752 3.53057 0
M  V30 38920 H 3684.33 -0.317108 0.66529 0
M  V30 38921 H 3686.97 -0.141971 1.89469 0
M  V30 38922 H 3685.12 -2.28817 3.13966 0
M  V30 38923 H 3686.8 -0.132795 4.61109 0
M  V30 38924 H 3685.04 -0.0554863 4.33765 0
M  V30 38925 H 3685.71 -1.33244 5.35677 0
M  V30 38926 H 3688.19 -2.10277 3.59058 0
M  V30 38927 H 3687.06 -3.14803 4.49656 0
M  V30 38928 H 3687.32 -3.43485 2.78335 0
M  V30 38929 N 3686.38 -1.51647 -0.429072 0
M  V30 38930 C 3687.61 -1.68543 -1.20003 0
M  V30 38931 C 3688.02 -0.386297 -1.84806 0
M  V30 38932 O 3687.38 0.635958 -1.71061 0
M  V30 38933 C 3687.43 -2.80698 -2.27796 0
M  V30 38934 O 3687.15 -4.05579 -1.65642 0
M  V30 38935 C 3688.65 -3.08934 -3.17922 0
M  V30 38936 H 3685.87 -0.565373 -0.361378 0
M  V30 38937 H 3688.42 -1.98105 -0.507397 0
M  V30 38938 H 3686.57 -2.53712 -2.92761 0
M  V30 38939 H 3686.99 -4.67928 -2.36947 0
M  V30 38940 H 3688.46 -3.90972 -3.89673 0
M  V30 38941 H 3688.94 -2.21675 -3.79153 0
M  V30 38942 H 3689.54 -3.37611 -2.58648 0
M  V30 38943 N 3687.86 0.685049 -1.41932 0
M  V30 38944 C 3689.11 1.44726 -1.42064 0
M  V30 38945 C 3689.44 1.94172 -0.0332413 0
M  V30 38946 O 3688.71 1.70233 0.940805 0
M  V30 38947 C 3689 2.65164 -2.43639 0
M  V30 38948 C 3688.85 2.21416 -3.91529 0
M  V30 38949 C 3690.17 3.67373 -2.42332 0
M  V30 38950 H 3687.29 0.524918 -0.51733 0
M  V30 38951 H 3689.93 0.779389 -1.73279 0
M  V30 38952 H 3688.08 3.22145 -2.17152 0
M  V30 38953 H 3689.75 1.69682 -4.28959 0
M  V30 38954 H 3687.99 1.53092 -4.05888 0
M  V30 38955 H 3688.67 3.07881 -4.58163 0
M  V30 38956 H 3691.14 3.20088 -2.65862 0
M  V30 38957 H 3690.02 4.49238 -3.15399 0
M  V30 38958 H 3690.28 4.17797 -1.44563 0
M  V30 38959 N 3689.34 1.27935 0.920351 0
M  V30 38960 C 3690.28 1.11294 2.02194 0
M  V30 38961 C 3691.25 0.0119162 1.66096 0
M  V30 38962 O 3692.44 0.175619 1.8999 0
M  V30 38963 C 3689.58 0.77389 3.36311 0
M  V30 38964 C 3688.69 1.95329 3.85319 0
M  V30 38965 C 3687.83 1.55546 5.07916 0
M  V30 38966 C 3686.87 2.7019 5.49239 0
M  V30 38967 N 3686 2.30944 6.6303 0
M  V30 38968 H 3690.84 2.05552 2.1576 0
M  V30 38969 H 3688.38 1.02314 1.05689 0
M  V30 38970 H 3690.34 0.558097 4.1345 0
M  V30 38971 H 3688.97 -0.131749 3.22531 0
M  V30 38972 H 3688.02 2.28141 3.04395 0
M  V30 38973 H 3689.33 2.81304 4.1191 0
M  V30 38974 H 3688.49 1.30134 5.92579 0
M  V30 38975 H 3687.23 0.666902 4.83119 0
M  V30 38976 H 3686.23 2.96307 4.63122 0
M  V30 38977 H 3687.46 3.59677 5.76029 0
M  V30 38978 H 3685.4 1.4455 6.39876 0
M  V30 38979 H 3685.32 3.10456 6.89313 0
M  V30 38980 H 3686.59 2.08799 7.51015 0
M  V30 38981 N 3690.82 -1.12788 1.10076 0
M  V30 38982 C 3691.76 -2.20481 0.741016 0
M  V30 38983 C 3692.76 -1.67375 -0.261134 0
M  V30 38984 O 3693.96 -1.79587 -0.121892 0
M  V30 38985 H 3690.34 -0.718584 0.221678 0
M  V30 38986 H 3692.31 -2.4808 1.65827 0
M  V30 38987 C 3691.06 -3.47208 0.184995 0
M  V30 38988 H 3690.38 -3.88414 0.947347 0
M  V30 38989 H 3691.82 -4.2399 -0.0287023 0
M  V30 38990 C 3690.28 -3.19073 -1.0814 0
M  V30 38991 O 3690.81 -3.38458 -2.16354 0
M  V30 38992 N 3689.02 -2.72905 -0.998561 0
M  V30 38993 H 3688.56 -2.5733 -0.117861 0
M  V30 38994 H 3688.52 -2.54456 -1.8466 0
M  V30 38995 N 3692.29 -0.888949 -1.30136 0
M  V30 38996 C 3693.54 -0.508393 -1.95601 0
M  V30 38997 C 3693.86 0.946347 -1.70497 0
M  V30 38998 O 3693.13 1.6659 -1.03076 0
M  V30 38999 H 3691.71 -0.185018 -0.723725 0
M  V30 39000 H 3694.37 -1.13289 -1.58592 0
M  V30 39001 H 3693.47 -0.681968 -3.04558 0
M  V30 39002 N 3693.77 1.43557 -0.65031 0
M  V30 39003 C 3695 2.06714 -0.16852 0
M  V30 39004 C 3695.42 1.48406 1.15573 0
M  V30 39005 O 3694.78 0.592872 1.71332 0
M  V30 39006 C 3694.83 3.60493 -0.0877728 0
M  V30 39007 O 3693.93 4.01289 0.950844 0
M  V30 39008 H 3693.27 0.657378 -0.0935397 0
M  V30 39009 H 3695.8 1.84112 -0.892413 0
M  V30 39010 H 3695.81 4.07886 0.0965108 0
M  V30 39011 H 3694.49 4.0231 -1.05449 0
M  V30 39012 H 3693.06 3.65492 0.739584 0
M  V30 39013 N 3695.25 0.392045 1.52646 0
M  V30 39014 C 3696.5 -0.190525 2.00798 0
M  V30 39015 C 3696.81 -1.47671 1.28268 0
M  V30 39016 O 3698.02 -2.1395 1.67146 0
M  V30 39017 C 3696.47 -0.390085 3.5778 0
M  V30 39018 C 3696.08 0.88301 4.39212 0
M  V30 39019 C 3697.83 -0.928872 4.14213 0
M  V30 39020 C 3695.73 0.651577 5.878 0
M  V30 39021 H 3694.66 -0.0749747 0.750263 0
M  V30 39022 H 3697.31 0.514866 1.76129 0
M  V30 39023 H 3695.7 -1.15739 3.78709 0
M  V30 39024 H 3696.87 1.65515 4.30048 0
M  V30 39025 H 3695.18 1.34695 3.94013 0
M  V30 39026 H 3697.78 -1.11778 5.22886 0
M  V30 39027 H 3698.12 -1.89872 3.70479 0
M  V30 39028 H 3698.66 -0.221065 3.97185 0
M  V30 39029 H 3695.4 1.5925 6.35861 0
M  V30 39030 H 3694.92 -0.0815732 5.99745 0
M  V30 39031 H 3696.6 0.28717 6.46362 0
M  V30 39032 N 3696.73 -1.57127 0.121948 0
M  V30 39033 C 3697.68 -2.12027 -0.838376 0
M  V30 39034 C 3698.66 -1.04177 -1.22621 0
M  V30 39035 O 3699.85 -1.30405 -1.19681 0
M  V30 39036 C 3696.98 -2.72558 -2.08728 0
M  V30 39037 C 3696.07 -3.87492 -1.72367 0
M  V30 39038 N 3696.46 -4.94418 -1.06697 0
M  V30 39039 C 3694.76 -3.97731 -2.01806 0
M  V30 39040 C 3695.46 -5.74767 -0.895409 0
M  V30 39041 N 3694.44 -5.24689 -1.42135 0
M  V30 39042 H 3698.24 -2.92074 -0.327149 0
M  V30 39043 H 3695.75 -1.62201 -0.0804268 0
M  V30 39044 H 3697.75 -3.10234 -2.78497 0
M  V30 39045 H 3696.41 -1.93975 -2.60392 0
M  V30 39046 H 3697.42 -5.12721 -0.730612 0
M  V30 39047 H 3694.1 -3.30194 -2.55496 0
M  V30 39048 H 3695.49 -6.70826 -0.379718 0
M  V30 39049 N 3698.21 0.151829 -1.56867 0
M  V30 39050 C 3699.14 1.18945 -2.00934 0
M  V30 39051 C 3700.12 1.45076 -0.888088 0
M  V30 39052 O 3701.3 1.56079 -1.15556 0
M  V30 39053 C 3698.43 2.52379 -2.38584 0
M  V30 39054 C 3697.39 2.40779 -3.5385 0
M  V30 39055 C 3696.71 3.78879 -3.77299 0
M  V30 39056 C 3698.01 1.89596 -4.86673 0
M  V30 39057 H 3699.71 0.823057 -2.87865 0
M  V30 39058 H 3697.25 0.394474 -1.38492 0
M  V30 39059 H 3699.21 3.25188 -2.68012 0
M  V30 39060 H 3697.93 2.90844 -1.48584 0
M  V30 39061 H 3696.59 1.70421 -3.2458 0
M  V30 39062 H 3696.24 4.14772 -2.84558 0
M  V30 39063 H 3695.94 3.71981 -4.54867 0
M  V30 39064 H 3697.46 4.53245 -4.09147 0
M  V30 39065 H 3698.87 2.52195 -5.1485 0
M  V30 39066 H 3697.27 1.936 -5.68013 0
M  V30 39067 H 3698.34 0.851354 -4.77368 0
M  V30 39068 N 3699.68 1.51872 0.421024 0
M  V30 39069 C 3700.91 1.68932 1.18935 0
M  V30 39070 C 3701.32 0.393231 1.85068 0
M  V30 39071 O 3700.67 -0.639617 1.72205 0
M  V30 39072 C 3700.73 2.76016 2.30338 0
M  V30 39073 C 3700.39 4.18129 1.84438 0
M  V30 39074 C 3701.39 5.02368 1.33873 0
M  V30 39075 C 3699.07 4.64308 1.91633 0
M  V30 39076 C 3701.07 6.30855 0.911101 0
M  V30 39077 C 3698.75 5.92787 1.48482 0
M  V30 39078 C 3699.75 6.75889 0.983041 0
M  V30 39079 O 3699.44 8.01963 0.557712 0
M  V30 39080 H 3699.17 0.569697 0.363898 0
M  V30 39081 H 3701.73 1.99144 0.503054 0
M  V30 39082 H 3699.96 2.41154 3.02294 0
M  V30 39083 H 3701.65 2.81792 2.92144 0
M  V30 39084 H 3702.41 4.67888 1.27696 0
M  V30 39085 H 3698.29 3.99736 2.29634 0
M  V30 39086 H 3701.83 6.95669 0.518755 0
M  V30 39087 H 3697.73 6.26778 1.54334 0
M  V30 39088 H 3698.5 8.15653 0.682095 0
M  V30 39089 N 3701.16 -0.677513 1.42294 0
M  V30 39090 C 3702.41 -1.43757 1.42619 0
M  V30 39091 C 3702.74 -1.94455 0.0416609 0
M  V30 39092 O 3701.99 -1.71122 -0.949514 0
M  V30 39093 C 3702.29 -2.65269 2.39514 0
M  V30 39094 C 3701.96 -2.33128 3.85956 0
M  V30 39095 C 3700.62 -2.24073 4.25846 0
M  V30 39096 C 3702.97 -2.06978 4.7834 0
M  V30 39097 C 3700.3 -1.86991 5.56104 0
M  V30 39098 C 3702.65 -1.714 6.08937 0
M  V30 39099 C 3701.32 -1.60854 6.47829 0
M  V30 39100 H 3700.59 -0.526046 0.521878 0
M  V30 39101 H 3703.23 -0.772766 1.75216 0
M  V30 39102 H 3701.54 -3.36769 2.00235 0
M  V30 39103 H 3703.23 -3.23446 2.37031 0
M  V30 39104 H 3699.82 -2.41076 3.54373 0
M  V30 39105 H 3704.01 -2.12908 4.48312 0
M  V30 39106 H 3699.26 -1.77393 5.851 0
M  V30 39107 H 3703.44 -1.50191 6.80012 0
M  V30 39108 H 3701.07 -1.31889 7.48672 0
M  V30 39109 N 3702.64 -1.28421 -0.913554 0
M  V30 39110 C 3703.92 -1.06288 -1.64202 0
M  V30 39111 C 3704.3 0.397691 -2.0732 0
M  V30 39112 O 3703.65 1.3838 -1.81833 0
M  V30 39113 C 3703.86 -2.03768 -2.83337 0
M  V30 39114 C 3705.2 -2.33925 -3.54351 0
M  V30 39115 O 3706.23 -2.01853 -2.93485 0
M  V30 39116 O 3705.09 -2.8866 -4.64045 0
M  V30 39117 H 3702.18 -0.40623 -0.720351 0
M  V30 39118 H 3704.73 -1.39741 -0.962841 0
M  V30 39119 H 3703.5 -3.02207 -2.48569 0
M  V30 39120 H 3703.12 -1.70963 -3.58967 0
M  V30 39121 N 3704.12 1.12202 -1.10672 0
M  V30 39122 C 3705.07 2.18005 -0.757783 0
M  V30 39123 C 3706.04 1.63939 0.267032 0
M  V30 39124 O 3707.22 1.90242 0.145755 0
M  V30 39125 C 3704.36 3.44529 -0.19844 0
M  V30 39126 C 3703.47 4.12637 -1.27885 0
M  V30 39127 C 3702.61 5.26818 -0.680893 0
M  V30 39128 C 3701.65 5.86797 -1.74171 0
M  V30 39129 N 3700.78 6.92387 -1.16384 0
M  V30 39130 H 3705.62 2.47199 -1.66422 0
M  V30 39131 H 3703.16 1.21363 -0.831237 0
M  V30 39132 H 3705.12 4.16952 0.143765 0
M  V30 39133 H 3703.75 3.15744 0.671223 0
M  V30 39134 H 3702.8 3.38368 -1.73814 0
M  V30 39135 H 3704.11 4.53281 -2.08177 0
M  V30 39136 H 3703.27 6.06015 -0.288279 0
M  V30 39137 H 3702.01 4.87459 0.153435 0
M  V30 39138 H 3701.01 5.06285 -2.14372 0
M  V30 39139 H 3702.24 6.28226 -2.57893 0
M  V30 39140 H 3700.18 6.5506 -0.351014 0
M  V30 39141 H 3700.1 7.31642 -1.90356 0
M  V30 39142 H 3701.37 7.75406 -0.797851 0
M  V30 39143 N 3705.6 0.895838 1.29663 0
M  V30 39144 C 3706.56 0.37554 2.26102 0
M  V30 39145 C 3707.56 -0.488099 1.53213 0
M  V30 39146 O 3708.75 -0.293702 1.71706 0
M  V30 39147 C 3705.88 -0.46358 3.37733 0
M  V30 39148 H 3707.07 1.22723 2.73641 0
M  V30 39149 H 3704.63 0.673638 1.41038 0
M  V30 39150 H 3705.36 -1.33541 2.95529 0
M  V30 39151 H 3705.15 0.155192 3.91793 0
M  V30 39152 H 3706.64 -0.81904 4.09489 0
M  V30 39153 N 3707.07 -1.43211 0.657914 0
M  V30 39154 C 3708.32 -2.01359 0.17288 0
M  V30 39155 C 3708.64 -1.52195 -1.21909 0
M  V30 39156 O 3707.91 -0.736524 -1.81527 0
M  V30 39157 H 3706.49 -0.744512 0.0609222 0
M  V30 39158 H 3709.16 -1.75357 0.850636 0
M  V30 39159 H 3708.25 -3.11684 0.161117 0
M  V30 39160 N 3708.55 -0.400135 -1.52436 0
M  V30 39161 C 3709.48 0.464999 -2.24434 0
M  V30 39162 C 3710.5 1.01771 -1.27069 0
M  V30 39163 O 3711.69 0.918188 -1.53074 0
M  V30 39164 C 3708.79 1.65827 -2.95558 0
M  V30 39165 C 3707.96 1.23103 -4.19719 0
M  V30 39166 C 3707.02 2.2902 -4.73747 0
M  V30 39167 O 3706.04 1.8998 -5.3656 0
M  V30 39168 N 3707.25 3.61072 -4.5454 0
M  V30 39169 H 3710.01 -0.151891 -2.99315 0
M  V30 39170 H 3707.57 -0.227047 -1.603 0
M  V30 39171 H 3709.56 2.3623 -3.28599 0
M  V30 39172 H 3708.13 2.18127 -2.23918 0
M  V30 39173 H 3707.35 0.355468 -3.92594 0
M  V30 39174 H 3708.64 0.922399 -5.00369 0
M  V30 39175 H 3708.04 3.95545 -4.04426 0
M  V30 39176 H 3706.6 4.27478 -4.92043 0
M  V30 39177 N 3710.03 1.57061 -0.13028 0
M  V30 39178 C 3710.98 2.15904 0.815729 0
M  V30 39179 C 3711.95 1.08717 1.25578 0
M  V30 39180 O 3713.13 1.36679 1.33129 0
M  V30 39181 C 3710.27 2.77165 2.05605 0
M  V30 39182 C 3709.39 3.98694 1.66333 0
M  V30 39183 C 3708.52 4.48007 2.85418 0
M  V30 39184 C 3707.56 5.62041 2.42439 0
M  V30 39185 N 3706.7 6.06046 3.54475 0
M  V30 39186 H 3711.54 2.96413 0.307112 0
M  V30 39187 H 3709.07 1.46433 0.139888 0
M  V30 39188 H 3711.03 3.1082 2.78293 0
M  V30 39189 H 3709.66 1.99328 2.53906 0
M  V30 39190 H 3708.71 3.71128 0.834751 0
M  V30 39191 H 3710.03 4.81357 1.30756 0
M  V30 39192 H 3709.18 4.83629 3.66316 0
M  V30 39193 H 3707.92 3.64318 3.24228 0
M  V30 39194 H 3706.92 5.26011 1.59975 0
M  V30 39195 H 3708.15 6.47504 2.04733 0
M  V30 39196 H 3706.09 5.25296 3.92938 0
M  V30 39197 H 3706.01 6.83592 3.22859 0
M  V30 39198 H 3707.28 6.46309 4.3578 0
M  V30 39199 N 3711.51 -0.143508 1.56945 0
M  V30 39200 C 3712.74 -0.870368 1.87702 0
M  V30 39201 C 3713.15 -1.74579 0.718864 0
M  V30 39202 O 3712.51 -1.79826 -0.311255 0
M  V30 39203 C 3712.56 -1.72418 3.17733 0
M  V30 39204 O 3712.28 -0.884039 4.29088 0
M  V30 39205 C 3713.78 -2.55833 3.62028 0
M  V30 39206 H 3711 -0.251493 0.622087 0
M  V30 39207 H 3713.55 -0.135249 2.04052 0
M  V30 39208 H 3711.7 -2.41233 3.03126 0
M  V30 39209 H 3712.12 -1.47057 5.03463 0
M  V30 39210 H 3713.59 -3.11311 4.55839 0
M  V30 39211 H 3714.07 -3.32036 2.87486 0
M  V30 39212 H 3714.67 -1.92303 3.79341 0
M  V30 39213 N 3712.99 -1.52093 -0.412964 0
M  V30 39214 C 3714.22 -1.69561 -1.18037 0
M  V30 39215 C 3714.63 -0.40304 -1.84857 0
M  V30 39216 O 3713.97 0.630476 -1.72542 0
M  V30 39217 C 3714.03 -2.77234 -2.28871 0
M  V30 39218 C 3713.69 -4.19101 -1.82218 0
M  V30 39219 C 3714.69 -5.03071 -1.31207 0
M  V30 39220 C 3712.38 -4.65318 -1.89168 0
M  V30 39221 C 3714.37 -6.31329 -0.877632 0
M  V30 39222 C 3712.06 -5.93566 -1.45336 0
M  V30 39223 C 3713.06 -6.764 -0.947183 0
M  V30 39224 O 3712.74 -8.02248 -0.515174 0
M  V30 39225 H 3712.48 -0.571618 -0.360872 0
M  V30 39226 H 3715.03 -1.99408 -0.492486 0
M  V30 39227 H 3713.26 -2.42754 -3.01011 0
M  V30 39228 H 3714.95 -2.83338 -2.90645 0
M  V30 39229 H 3715.71 -4.68558 -1.25213 0
M  V30 39230 H 3711.59 -4.00949 -2.27511 0
M  V30 39231 H 3715.14 -6.95934 -0.481855 0
M  V30 39232 H 3711.03 -6.27588 -1.51008 0
M  V30 39233 H 3711.8 -8.16003 -0.638829 0
M  V30 39234 N 3714.47 0.669957 -1.42651 0
M  V30 39235 C 3715.38 1.81274 -1.4892 0
M  V30 39236 C 3716.39 1.69854 -0.377553 0
M  V30 39237 O 3717.57 1.9132 -0.629185 0
M  V30 39238 C 3714.63 3.17449 -1.39381 0
M  V30 39239 C 3713.69 3.40789 -2.61078 0
M  V30 39240 C 3712.93 4.70467 -2.51985 0
M  V30 39241 O 3713.15 5.48699 -1.55837 0
M  V30 39242 O 3712.08 4.95158 -3.42201 0
M  V30 39243 H 3715.91 1.78941 -2.45385 0
M  V30 39244 H 3713.49 0.826321 -1.24468 0
M  V30 39245 H 3715.38 3.987 -1.36442 0
M  V30 39246 H 3714.05 3.20409 -0.460432 0
M  V30 39247 H 3712.96 2.59367 -2.69591 0
M  V30 39248 H 3714.29 3.42663 -3.53331 0
M  V30 39249 N 3715.94 1.28904 0.90673 0
M  V30 39250 C 3717.36 1.06763 1.18633 0
M  V30 39251 C 3717.56 -0.185559 2.00644 0
M  V30 39252 O 3716.62 -0.885283 2.36472 0
M  V30 39253 C 3717.93 2.31911 1.9141 0
M  V30 39254 C 3719.48 2.3716 2.04265 0
M  V30 39255 C 3719.95 3.62093 2.80451 0
M  V30 39256 N 3721.44 3.62774 2.88009 0
M  V30 39257 C 3722.18 4.56122 3.47477 0
M  V30 39258 N 3721.67 5.59795 4.08168 0
M  V30 39259 N 3723.47 4.43704 3.45084 0
M  V30 39260 H 3715.62 2.09338 0.359376 0
M  V30 39261 H 3717.88 0.921719 0.221671 0
M  V30 39262 H 3717.59 3.23246 1.38581 0
M  V30 39263 H 3717.46 2.38872 2.91924 0
M  V30 39264 H 3719.85 1.46317 2.56272 0
M  V30 39265 H 3719.93 2.34188 1.02905 0
M  V30 39266 H 3719.57 4.53283 2.29122 0
M  V30 39267 H 3719.5 3.6232 3.82141 0
M  V30 39268 H 3721.99 2.87809 2.44896 0
M  V30 39269 H 3722.31 6.27157 4.51546 0
M  V30 39270 H 3720.65 5.63613 4.06651 0
M  V30 39271 H 3723.84 3.61908 2.96884 0
M  V30 39272 H 3724.02 5.16639 3.91136 0
M  V30 39273 N 3717.42 -1.11614 1.11266 0
M  V30 39274 C 3718.37 -2.1571 0.738467 0
M  V30 39275 C 3719.36 -1.58841 -0.256602 0
M  V30 39276 O 3720.55 -1.76884 -0.0639944 0
M  V30 39277 C 3717.68 -3.42821 0.181305 0
M  V30 39278 C 3716.76 -4.06653 1.20393 0
M  V30 39279 N 3717.15 -4.45367 2.39753 0
M  V30 39280 C 3715.45 -4.3355 1.04645 0
M  V30 39281 C 3716.15 -4.95354 3.04958 0
M  V30 39282 N 3715.13 -4.91397 2.32444 0
M  V30 39283 H 3718.93 -2.4342 1.64694 0
M  V30 39284 H 3716.44 -1.28609 0.991639 0
M  V30 39285 H 3718.44 -4.16768 -0.104893 0
M  V30 39286 H 3717.1 -3.16576 -0.721777 0
M  V30 39287 H 3718.11 -4.37458 2.77221 0
M  V30 39288 H 3714.79 -4.17022 0.199644 0
M  V30 39289 H 3716.18 -5.34955 4.06538 0
M  V30 39290 N 3718.9 -0.902701 -1.29186 0
M  V30 39291 C 3720.12 -0.544988 -2.00112 0
M  V30 39292 C 3720.55 0.863776 -1.67094 0
M  V30 39293 O 3719.91 1.57543 -0.897206 0
M  V30 39294 C 3719.96 -0.747803 -3.52761 0
M  V30 39295 O 3719.06 0.198315 -4.11923 0
M  V30 39296 H 3718.4 -0.212583 -0.62905 0
M  V30 39297 H 3720.93 -1.21511 -1.64609 0
M  V30 39298 H 3720.94 -0.653617 -4.0273 0
M  V30 39299 H 3719.62 -1.77484 -3.76128 0
M  V30 39300 H 3718.19 0.0563304 -3.72857 0
M  V30 39301 N 3720.38 1.4286 -0.6655 0
M  V30 39302 C 3721.31 2.335 0.0047874 0
M  V30 39303 C 3722.29 1.50161 0.799109 0
M  V30 39304 O 3723.47 1.78791 0.758129 0
M  V30 39305 C 3720.6 3.33674 0.963288 0
M  V30 39306 C 3719.56 4.27095 0.278219 0
M  V30 39307 C 3718.88 5.17403 1.34902 0
M  V30 39308 C 3720.18 5.1555 -0.837016 0
M  V30 39309 H 3721.88 2.89798 -0.752179 0
M  V30 39310 H 3719.42 1.39345 -0.363163 0
M  V30 39311 H 3721.38 3.95989 1.44121 0
M  V30 39312 H 3720.1 2.75659 1.75156 0
M  V30 39313 H 3718.76 3.66161 -0.179378 0
M  V30 39314 H 3718.41 4.5572 2.12904 0
M  V30 39315 H 3718.11 5.80731 0.895817 0
M  V30 39316 H 3719.63 5.82593 1.82806 0
M  V30 39317 H 3721.05 5.71604 -0.440718 0
M  V30 39318 H 3719.44 5.87662 -1.21544 0
M  V30 39319 H 3720.51 4.54505 -1.68978 0
M  V30 39320 N 3721.86 0.408213 1.52221 0
M  V30 39321 C 3723.08 -0.169865 2.06703 0
M  V30 39322 C 3723.51 -1.38168 1.27637 0
M  V30 39323 O 3722.86 -1.78693 0.306374 0
M  V30 39324 C 3722.91 -0.4996 3.57122 0
M  V30 39325 O 3722.02 -1.59073 3.80486 0
M  V30 39326 H 3721.36 -0.0146028 0.663839 0
M  V30 39327 H 3723.89 0.581148 1.96173 0
M  V30 39328 H 3723.9 -0.758497 4.00888 0
M  V30 39329 H 3722.57 0.386255 4.14103 0
M  V30 39330 H 3721.15 -1.32407 3.48601 0
M  V30 39331 N 3723.33 -1.56989 0.138607 0
M  V30 39332 C 3724.28 -2.12904 -0.815841 0
M  V30 39333 C 3725.27 -1.05472 -1.21509 0
M  V30 39334 O 3726.46 -1.31667 -1.18291 0
M  V30 39335 C 3723.59 -2.74756 -2.05825 0
M  V30 39336 C 3722.67 -3.89299 -1.68248 0
M  V30 39337 N 3723.07 -4.95522 -1.01447 0
M  V30 39338 C 3721.36 -3.9985 -1.97576 0
M  V30 39339 C 3722.06 -5.75685 -0.834397 0
M  V30 39340 N 3721.04 -5.26167 -1.36562 0
M  V30 39341 H 3724.84 -2.92404 -0.296152 0
M  V30 39342 H 3722.36 -1.62277 -0.0632187 0
M  V30 39343 H 3724.35 -3.1317 -2.75191 0
M  V30 39344 H 3723.01 -1.96726 -2.5832 0
M  V30 39345 H 3724.02 -5.13467 -0.67619 0
M  V30 39346 H 3720.7 -3.32885 -2.51979 0
M  V30 39347 H 3722.09 -6.71191 -0.308546 0
M  V30 39348 N 3724.81 0.135183 -1.57019 0
M  V30 39349 C 3726.06 0.845785 -1.83991 0
M  V30 39350 C 3726.39 1.80631 -0.721287 0
M  V30 39351 O 3725.64 1.93558 0.288744 0
M  V30 39352 C 3725.94 1.64368 -3.17361 0
M  V30 39353 C 3725.61 0.828889 -4.43216 0
M  V30 39354 C 3724.27 0.604142 -4.77392 0
M  V30 39355 C 3726.62 0.259874 -5.20552 0
M  V30 39356 C 3723.95 -0.200136 -5.86359 0
M  V30 39357 C 3726.3 -0.531508 -6.30363 0
M  V30 39358 C 3724.96 -0.766721 -6.63082 0
M  V30 39359 H 3724.23 0.309495 -0.673271 0
M  V30 39360 H 3726.88 0.108869 -1.9119 0
M  V30 39361 H 3725.19 2.45104 -3.05665 0
M  V30 39362 H 3726.88 2.19718 -3.35448 0
M  V30 39363 H 3723.47 1.01414 -4.16429 0
M  V30 39364 H 3727.66 0.42076 -4.94513 0
M  V30 39365 H 3722.91 -0.391753 -6.10144 0
M  V30 39366 H 3727.09 -0.979492 -6.89477 0
M  V30 39367 H 3724.71 -1.39178 -7.47351 0
M  V30 39368 N 3726.29 1.5231 0.404892 0
M  V30 39369 C 3727.54 1.66824 1.15316 0
M  V30 39370 C 3727.87 0.399075 1.90055 0
M  V30 39371 O 3727.14 -0.602646 1.84928 0
M  V30 39372 C 3727.43 2.89302 2.14421 0
M  V30 39373 C 3727.28 4.26278 1.4355 0
M  V30 39374 C 3728.6 3.07307 3.15041 0
M  V30 39375 H 3725.72 0.607094 0.417858 0
M  V30 39376 H 3728.36 1.84874 0.438382 0
M  V30 39377 H 3726.51 2.74044 2.75377 0
M  V30 39378 H 3728.18 4.53273 0.856819 0
M  V30 39379 H 3726.43 4.27486 0.73744 0
M  V30 39380 H 3727.1 5.08033 2.15886 0
M  V30 39381 H 3729.57 3.21491 2.64164 0
M  V30 39382 H 3728.45 3.9451 3.81645 0
M  V30 39383 H 3728.71 2.2081 3.83008 0
M  V30 39384 N 3727.77 -0.662382 1.43004 0
M  V30 39385 C 3728.72 -1.79683 1.47704 0
M  V30 39386 C 3729.71 -1.65713 0.35152 0
M  V30 39387 O 3730.92 -1.72171 0.525101 0
M  V30 39388 H 3727.29 -0.592675 0.46286 0
M  V30 39389 H 3729.26 -1.72839 2.43248 0
M  V30 39390 C 3728.01 -3.17901 1.40834 0
M  V30 39391 H 3727.33 -3.29284 2.26742 0
M  V30 39392 H 3728.77 -3.97262 1.48184 0
M  V30 39393 C 3727.23 -3.36669 0.124718 0
M  V30 39394 O 3727.76 -3.93291 -0.81762 0
M  V30 39395 N 3725.97 -2.90575 0.0378574 0
M  V30 39396 H 3725.52 -2.44682 0.805499 0
M  V30 39397 H 3725.47 -3.0351 -0.820324 0
M  V30 39398 N 3729.25 -1.29383 -0.899882 0
M  V30 39399 C 3730.18 -1.1705 -2.02043 0
M  V30 39400 C 3731.16 -0.0647652 -1.69977 0
M  V30 39401 O 3732.34 -0.244207 -1.92658 0
M  V30 39402 C 3729.47 -0.84605 -3.36837 0
M  V30 39403 C 3728.43 -1.90809 -3.83114 0
M  V30 39404 C 3727.75 -1.43695 -5.1503 0
M  V30 39405 C 3729.05 -3.31691 -4.03458 0
M  V30 39406 H 3730.75 -2.10792 -2.12619 0
M  V30 39407 H 3728.29 -1.01485 -1.0216 0
M  V30 39408 H 3730.25 -0.746486 -4.14736 0
M  V30 39409 H 3728.97 0.127068 -3.26353 0
M  V30 39410 H 3727.63 -1.99703 -3.07432 0
M  V30 39411 H 3727.28 -0.45251 -5.0096 0
M  V30 39412 H 3726.98 -2.14721 -5.46963 0
M  V30 39413 H 3728.5 -1.35088 -5.95469 0
M  V30 39414 H 3729.91 -3.25639 -4.71839 0
M  V30 39415 H 3728.31 -4.00673 -4.46745 0
M  V30 39416 H 3729.38 -3.74682 -3.07801 0
M  V30 39417 N 3730.72 1.11022 -1.11856 0
M  V30 39418 C 3732 1.793 -0.781725 0
M  V30 39419 C 3732.38 1.98094 0.729525 0
M  V30 39420 O 3731.73 1.5691 1.66106 0
M  V30 39421 C 3731.94 3.12701 -1.54982 0
M  V30 39422 C 3733.29 3.87673 -1.73189 0
M  V30 39423 O 3734.31 3.22403 -1.51443 0
M  V30 39424 O 3733.17 5.04808 -2.09359 0
M  V30 39425 H 3730.26 0.776821 -0.283686 0
M  V30 39426 H 3732.81 1.17726 -1.22224 0
M  V30 39427 H 3731.58 2.94403 -2.57764 0
M  V30 39428 H 3731.21 3.8199 -1.10315 0
M  V30 39429 N 3732.2 0.90954 1.28706 0
M  V30 39430 C 3733.15 0.384796 2.29395 0
M  V30 39431 C 3734.14 -0.52129 1.6118 0
M  V30 39432 O 3735.35 -0.403001 1.75431 0
M  V30 39433 H 3731.73 0.105827 0.744516 0
M  V30 39434 H 3733.7 1.24719 2.71086 0
M  V30 39435 C 3732.45 -0.363734 3.45792 0
M  V30 39436 H 3731.77 0.324268 3.98483 0
M  V30 39437 H 3733.21 -0.695607 4.18255 0
M  V30 39438 C 3731.67 -1.57007 2.98078 0
M  V30 39439 O 3732.2 -2.66923 3.00191 0
M  V30 39440 N 3730.4 -1.41561 2.53789 0
M  V30 39441 H 3729.95 -0.521371 2.52269 0
M  V30 39442 H 3729.91 -2.22404 2.22224 0
M  V30 39443 N 3733.68 -1.42505 0.673067 0
M  V30 39444 C 3734.61 -2.33499 0.00759571 0
M  V30 39445 C 3735.59 -1.50582 -0.791134 0
M  V30 39446 O 3736.78 -1.7919 -0.748636 0
M  V30 39447 C 3733.91 -3.3418 -0.945579 0
M  V30 39448 C 3732.86 -4.27236 -0.255565 0
M  V30 39449 C 3732.19 -5.18111 -1.32156 0
M  V30 39450 C 3733.49 -5.15098 0.864345 0
M  V30 39451 H 3735.18 -2.89395 0.767538 0
M  V30 39452 H 3732.73 -1.39151 0.370548 0
M  V30 39453 H 3734.68 -3.96747 -1.42019 0
M  V30 39454 H 3733.4 -2.76584 -1.73692 0
M  V30 39455 H 3732.06 -3.66061 0.198794 0
M  V30 39456 H 3731.71 -4.56843 -2.10484 0
M  V30 39457 H 3731.41 -5.81198 -0.865006 0
M  V30 39458 H 3732.93 -5.83554 -1.79714 0
M  V30 39459 H 3734.35 -5.71362 0.471025 0
M  V30 39460 H 3732.75 -5.8701 1.24658 0
M  V30 39461 H 3733.82 -4.53602 1.71386 0
M  V30 39462 N 3735.16 -0.41628 -1.52003 0
M  V30 39463 C 3736.57 -0.0675055 -1.59457 0
M  V30 39464 C 3736.77 1.42096 -1.42867 0
M  V30 39465 O 3735.83 2.1886 -1.25923 0
M  V30 39466 C 3737.14 -0.568812 -2.95271 0
M  V30 39467 C 3738.69 -0.52741 -3.08525 0
M  V30 39468 C 3739.17 -1.00534 -4.4683 0
M  V30 39469 N 3740.66 -0.962457 -4.53091 0
M  V30 39470 C 3741.39 -1.30337 -5.5839 0
M  V30 39471 N 3740.89 -1.71609 -6.71209 0
M  V30 39472 N 3742.68 -1.22288 -5.48637 0
M  V30 39473 H 3734.83 -1.38499 -1.61033 0
M  V30 39474 H 3737.1 -0.569413 -0.75794 0
M  V30 39475 H 3736.8 -1.60943 -3.12714 0
M  V30 39476 H 3736.68 0.0176932 -3.77196 0
M  V30 39477 H 3739.06 0.504174 -2.90761 0
M  V30 39478 H 3739.14 -1.15006 -2.28489 0
M  V30 39479 H 3738.79 -2.03529 -4.65337 0
M  V30 39480 H 3738.72 -0.359437 -5.25372 0
M  V30 39481 H 3741.21 -0.659106 -3.72108 0
M  V30 39482 H 3741.52 -1.95914 -7.47554 0
M  V30 39483 H 3739.87 -1.75519 -6.72472 0
M  V30 39484 H 3743.06 -0.899256 -4.59381 0
M  V30 39485 H 3743.23 -1.49186 -6.30593 0
M  V30 39486 N 3736.64 1.56914 -0.146931 0
M  V30 39487 C 3737.6 2.15568 0.778671 0
M  V30 39488 C 3738.6 1.09744 1.17528 0
M  V30 39489 O 3739.79 1.35384 1.09622 0
M  V30 39490 C 3736.92 2.71872 2.05665 0
M  V30 39491 H 3738.11 2.98696 0.268454 0
M  V30 39492 H 3735.67 1.55963 0.102513 0
M  V30 39493 H 3736.4 1.9241 2.61054 0
M  V30 39494 H 3736.19 3.49293 1.78148 0
M  V30 39495 H 3737.68 3.17063 2.71773 0
M  V30 39496 N 3738.11 -0.126854 1.57089 0
M  V30 39497 C 3739.06 -1.17502 2.00739 0
M  V30 39498 C 3740.06 -1.43325 0.903011 0
M  V30 39499 O 3741.26 -1.4338 1.08822 0
M  V30 39500 H 3737.64 -0.395992 0.639292 0
M  V30 39501 H 3739.61 -0.780322 2.88017 0
M  V30 39502 C 3738.36 -2.49565 2.42101 0
M  V30 39503 H 3737.68 -2.3053 3.26643 0
M  V30 39504 H 3739.12 -3.21485 2.76448 0
M  V30 39505 C 3737.58 -3.11574 1.28153 0
M  V30 39506 O 3738.11 -3.97296 0.593215 0
M  V30 39507 N 3736.32 -2.7133 1.0406 0
M  V30 39508 H 3735.86 -2.01717 1.60212 0
M  V30 39509 H 3735.82 -3.1315 0.28013 0
M  V30 39510 N 3739.59 -1.52523 -0.396809 0
M  V30 39511 C 3740.54 -1.77373 -1.50471 0
M  V30 39512 C 3741.53 -0.641335 -1.5679 0
M  V30 39513 O 3742.74 -0.823649 -1.6005 0
M  V30 39514 H 3739.12 -0.561112 -0.500657 0
M  V30 39515 H 3741.09 -2.70165 -1.26701 0
M  V30 39516 C 3739.84 -1.95256 -2.87699 0
M  V30 39517 H 3739.16 -2.81817 -2.83583 0
M  V30 39518 H 3740.6 -2.16637 -3.64478 0
M  V30 39519 C 3739.06 -0.722962 -3.29051 0
M  V30 39520 O 3739.59 0.103327 -4.01567 0
M  V30 39521 N 3737.79 -0.555314 -2.85245 0
M  V30 39522 H 3737.34 -1.22883 -2.26401 0
M  V30 39523 H 3737.3 0.266058 -3.13272 0
M  V30 39524 N 3741.07 0.654789 -1.43354 0
M  V30 39525 C 3742.3 1.44248 -1.48324 0
M  V30 39526 C 3742.71 1.88532 -0.100641 0
M  V30 39527 O 3742.07 1.59394 0.888803 0
M  V30 39528 C 3742.12 2.67849 -2.42774 0
M  V30 39529 O 3741.84 2.25418 -3.75657 0
M  V30 39530 C 3743.34 3.61222 -2.5697 0
M  V30 39531 H 3740.56 0.443186 -0.503813 0
M  V30 39532 H 3743.11 0.802883 -1.8808 0
M  V30 39533 H 3741.26 3.27952 -2.06218 0
M  V30 39534 H 3741.68 3.05378 -4.26432 0
M  V30 39535 H 3743.15 4.44619 -3.27137 0
M  V30 39536 H 3743.63 4.08464 -1.61411 0
M  V30 39537 H 3744.23 3.07001 -2.94331 0
M  V30 39538 N 3742.55 1.29858 0.893007 0
M  V30 39539 C 3743.5 1.15558 1.99788 0
M  V30 39540 C 3744.47 0.0471449 1.66033 0
M  V30 39541 O 3745.65 0.21588 1.89575 0
M  V30 39542 C 3742.79 0.845052 3.34594 0
M  V30 39543 C 3741.9 2.03458 3.81089 0
M  V30 39544 C 3741.04 1.66284 5.04503 0
M  V30 39545 C 3740.08 2.81779 5.43385 0
M  V30 39546 N 3739.22 2.44956 6.57982 0
M  V30 39547 H 3744.06 2.10082 2.11351 0
M  V30 39548 H 3741.59 1.04533 1.03495 0
M  V30 39549 H 3743.55 0.64567 4.12173 0
M  V30 39550 H 3742.18 -0.0633058 3.22738 0
M  V30 39551 H 3741.23 2.34546 2.99487 0
M  V30 39552 H 3742.54 2.89978 4.0585 0
M  V30 39553 H 3741.7 1.42674 5.89686 0
M  V30 39554 H 3740.44 0.769229 4.81595 0
M  V30 39555 H 3739.44 3.06064 4.56733 0
M  V30 39556 H 3740.67 3.71815 5.6827 0
M  V30 39557 H 3738.61 1.5809 6.36666 0
M  V30 39558 H 3738.53 3.25008 6.82573 0
M  V30 39559 H 3739.8 2.24682 7.46417 0
M  V30 39560 N 3744.03 -1.10427 1.12443 0
M  V30 39561 C 3745.28 -1.82029 0.878053 0
M  V30 39562 C 3745.6 -1.85612 -0.597754 0
M  V30 39563 O 3744.87 -1.33424 -1.43439 0
M  V30 39564 H 3743.45 -0.674107 0.321851 0
M  V30 39565 H 3746.11 -1.33613 1.41893 0
M  V30 39566 H 3745.2 -2.85552 1.25962 0
M  V30 39567 N 3745.51 -0.916353 -1.28221 0
M  V30 39568 C 3746.73 -0.566182 -1.99522 0
M  V30 39569 C 3747.16 0.846004 -1.68001 0
M  V30 39570 O 3746.51 1.56583 -0.913866 0
M  V30 39571 C 3746.56 -0.785176 -3.51948 0
M  V30 39572 O 3745.67 0.154614 -4.1211 0
M  V30 39573 H 3745.01 -0.219243 -0.62676 0
M  V30 39574 H 3747.54 -1.2325 -1.63311 0
M  V30 39575 H 3747.55 -0.696295 -4.02015 0
M  V30 39576 H 3746.22 -1.81464 -3.74224 0
M  V30 39577 H 3744.8 0.0167807 -3.72896 0
M  V30 39578 N 3746.98 1.42146 -0.680615 0
M  V30 39579 C 3747.91 2.33491 -0.0199786 0
M  V30 39580 C 3748.89 1.51 0.783137 0
M  V30 39581 O 3750.08 1.79585 0.739123 0
M  V30 39582 C 3747.21 3.34676 0.927843 0
M  V30 39583 C 3746.16 4.27366 0.232904 0
M  V30 39584 C 3745.49 5.18804 1.29406 0
M  V30 39585 C 3746.79 5.14633 -0.891649 0
M  V30 39586 H 3748.48 2.88983 -0.782874 0
M  V30 39587 H 3746.03 1.38952 -0.377922 0
M  V30 39588 H 3747.98 3.97495 1.39913 0
M  V30 39589 H 3746.71 2.77501 1.72223 0
M  V30 39590 H 3745.37 3.6595 -0.218204 0
M  V30 39591 H 3745.01 4.57953 2.08059 0
M  V30 39592 H 3744.71 5.81649 0.834172 0
M  V30 39593 H 3746.24 5.84499 1.76616 0
M  V30 39594 H 3747.65 5.71104 -0.501319 0
M  V30 39595 H 3746.05 5.8634 -1.2777 0
M  V30 39596 H 3747.12 4.52687 -1.73789 0
M  V30 39597 N 3748.46 0.424336 1.5178 0
M  V30 39598 C 3749.87 -0.0417938 1.86653 0
M  V30 39599 C 3750.22 -1.43101 1.34226 0
M  V30 39600 O 3749.35 -2.05181 0.68772 0
M  V30 39601 C 3749.94 -0.0826164 3.38699 0
M  V30 39602 C 3748.5 -0.493121 3.73156 0
M  V30 39603 C 3747.65 0.322634 2.75417 0
M  V30 39604 H 3750.6 0.640752 1.4519 0
M  V30 39605 H 3750.62 -0.894799 3.69829 0
M  V30 39606 H 3750.13 0.928602 3.76827 0
M  V30 39607 H 3748.23 -1.51042 3.40613 0
M  V30 39608 H 3748.35 -0.226948 4.78562 0
M  V30 39609 H 3746.71 -0.217218 2.53772 0
M  V30 39610 H 3747.49 1.33248 3.16385 0
M  V30 39611 N 3749.94 -1.56833 0.15525 0
M  V30 39612 C 3751.19 -1.95562 -0.493796 0
M  V30 39613 C 3751.5 -1.04308 -1.65466 0
M  V30 39614 O 3752.71 -1.3265 -2.36888 0
M  V30 39615 C 3751.16 -3.4768 -0.929862 0
M  V30 39616 C 3750.77 -4.47533 0.204526 0
M  V30 39617 C 3752.52 -3.95259 -1.54823 0
M  V30 39618 C 3750.42 -5.9087 -0.250271 0
M  V30 39619 H 3749.35 -0.730123 -0.188245 0
M  V30 39620 H 3752 -1.81912 0.240915 0
M  V30 39621 H 3750.39 -3.56692 -1.72008 0
M  V30 39622 H 3751.56 -4.50223 0.981614 0
M  V30 39623 H 3749.87 -4.09919 0.731828 0
M  V30 39624 H 3752.47 -4.99794 -1.90027 0
M  V30 39625 H 3752.81 -3.37279 -2.44025 0
M  V30 39626 H 3753.35 -3.89199 -0.822759 0
M  V30 39627 H 3750.09 -6.52687 0.606576 0
M  V30 39628 H 3749.61 -5.91522 -0.99306 0
M  V30 39629 H 3751.29 -6.43207 -0.699532 0
M  V30 39630 N 3751.42 0.118521 -1.57154 0
M  V30 39631 C 3752.37 1.16436 -2.01359 0
M  V30 39632 C 3753.36 1.42844 -0.910599 0
M  V30 39633 O 3754.57 1.42801 -1.0958 0
M  V30 39634 H 3750.94 0.392596 -0.641383 0
M  V30 39635 H 3752.91 0.765037 -2.88426 0
M  V30 39636 C 3751.66 2.48277 -2.43421 0
M  V30 39637 H 3750.98 2.28795 -3.27861 0
M  V30 39638 H 3752.42 3.20015 -2.78149 0
M  V30 39639 C 3750.88 3.1089 -1.29804 0
M  V30 39640 O 3751.41 3.96975 -0.614276 0
M  V30 39641 N 3749.62 2.70774 -1.05498 0
M  V30 39642 H 3749.17 2.00865 -1.61279 0
M  V30 39643 H 3749.12 3.12997 -0.296733 0
M  V30 39644 N 3752.9 1.52731 0.388715 0
M  V30 39645 C 3754.14 1.68037 1.1354 0
M  V30 39646 C 3754.47 0.41921 1.89621 0
M  V30 39647 O 3753.75 -0.582998 1.85557 0
M  V30 39648 C 3754.03 2.9156 2.11341 0
M  V30 39649 C 3753.89 4.27777 1.39021 0
M  V30 39650 C 3755.2 3.10631 3.11764 0
M  V30 39651 H 3752.32 0.611492 0.411396 0
M  V30 39652 H 3754.97 1.85328 0.418749 0
M  V30 39653 H 3753.12 2.76949 2.72455 0
M  V30 39654 H 3754.79 4.54156 0.808695 0
M  V30 39655 H 3753.03 4.28244 0.692058 0
M  V30 39656 H 3753.7 5.10294 2.10486 0
M  V30 39657 H 3756.18 3.24275 2.6074 0
M  V30 39658 H 3755.05 3.98536 3.7744 0
M  V30 39659 H 3755.31 2.2486 3.80645 0
M  V30 39660 N 3754.37 -0.647178 1.43699 0
M  V30 39661 C 3755.62 -1.40289 1.4492 0
M  V30 39662 C 3755.94 -1.95439 0.0794587 0
M  V30 39663 O 3757.14 -2.71482 -0.0308574 0
M  V30 39664 C 3755.6 -2.53918 2.55056 0
M  V30 39665 C 3755.21 -2.0535 3.98165 0
M  V30 39666 C 3756.95 -3.31242 2.65479 0
M  V30 39667 C 3754.86 -3.16226 4.99755 0
M  V30 39668 H 3753.79 -0.527134 0.539115 0
M  V30 39669 H 3756.44 -0.697921 1.6971 0
M  V30 39670 H 3754.82 -3.26915 2.23479 0
M  V30 39671 H 3755.99 -1.39325 4.39232 0
M  V30 39672 H 3754.31 -1.40889 3.91841 0
M  V30 39673 H 3756.91 -4.13867 3.38553 0
M  V30 39674 H 3757.25 -3.7967 1.70751 0
M  V30 39675 H 3757.78 -2.65329 2.96387 0
M  V30 39676 H 3754.52 -2.72759 5.96056 0
M  V30 39677 H 3754.04 -3.80944 4.63294 0
M  V30 39678 H 3755.72 -3.81261 5.22732 0
M  V30 39679 N 3755.85 -1.3033 -0.886108 0
M  V30 39680 C 3757.1 -1.19264 -1.64024 0
M  V30 39681 C 3757.43 0.252345 -1.92554 0
M  V30 39682 O 3756.71 1.18066 -1.54566 0
M  V30 39683 C 3756.99 -2.02045 -2.98077 0
M  V30 39684 C 3756.84 -3.54757 -2.76528 0
M  V30 39685 C 3758.16 -1.85738 -3.98985 0
M  V30 39686 H 3755.28 -0.434611 -0.595216 0
M  V30 39687 H 3757.92 -1.5995 -1.02547 0
M  V30 39688 H 3756.07 -1.67475 -3.50549 0
M  V30 39689 H 3757.74 -3.99381 -2.30853 0
M  V30 39690 H 3755.99 -3.78997 -2.11054 0
M  V30 39691 H 3756.66 -4.07967 -3.71842 0
M  V30 39692 H 3759.13 -2.15959 -3.55669 0
M  V30 39693 H 3758.01 -2.45987 -4.90695 0
M  V30 39694 H 3758.27 -0.816228 -4.345 0
M  V30 39695 N 3757.33 1.0983 -1.13028 0
M  V30 39696 C 3758.58 1.8192 -0.889451 0
M  V30 39697 C 3758.91 1.85508 0.58454 0
M  V30 39698 O 3758.16 1.31603 1.44842 0
M  V30 39699 C 3758.46 3.28099 -1.41724 0
M  V30 39700 C 3758.13 3.4465 -2.90735 0
M  V30 39701 C 3756.79 3.48875 -3.31421 0
M  V30 39702 C 3759.14 3.49529 -3.86625 0
M  V30 39703 C 3756.47 3.55553 -4.66689 0
M  V30 39704 C 3758.82 3.57741 -5.21732 0
M  V30 39705 C 3757.48 3.60232 -5.61951 0
M  V30 39706 H 3756.75 0.665694 -0.325473 0
M  V30 39707 H 3759.4 1.29416 -1.41152 0
M  V30 39708 H 3757.71 3.83213 -0.815776 0
M  V30 39709 H 3759.4 3.82403 -1.20703 0
M  V30 39710 H 3755.99 3.42044 -2.58272 0
M  V30 39711 H 3760.18 3.4551 -3.56282 0
M  V30 39712 H 3755.43 3.55767 -4.97232 0
M  V30 39713 H 3759.61 3.6046 -5.95854 0
M  V30 39714 H 3757.23 3.65159 -6.66755 0
M  V30 39715 N 3758.81 0.92314 1.27734 0
M  V30 39716 C 3760.09 0.479758 1.89625 0
M  V30 39717 C 3760.47 -1.04194 1.83594 0
M  V30 39718 O 3759.81 -1.89411 1.27811 0
M  V30 39719 C 3760.02 1.0207 3.3374 0
M  V30 39720 C 3761.37 1.07844 4.10676 0
M  V30 39721 O 3762.4 0.970003 3.42738 0
M  V30 39722 O 3761.25 1.24485 5.32133 0
M  V30 39723 H 3758.35 0.153589 0.812613 0
M  V30 39724 H 3760.89 1.01453 1.36034 0
M  V30 39725 H 3759.67 2.0646 3.324 0
M  V30 39726 H 3759.29 0.467303 3.94844 0
M  V30 39727 N 3760.29 -1.41783 0.688143 0
M  V30 39728 C 3761.53 -2.00947 0.215552 0
M  V30 39729 C 3761.86 -1.54746 -1.18653 0
M  V30 39730 O 3761.13 -0.774863 -1.79924 0
M  V30 39731 H 3759.71 -0.743052 0.0767006 0
M  V30 39732 H 3762.37 -1.73514 0.887641 0
M  V30 39733 H 3761.46 -3.11272 0.227193 0
M  V30 39734 N 3761.76 -0.432379 -1.51553 0
M  V30 39735 C 3762.71 0.381562 -2.27624 0
M  V30 39736 C 3763.68 1.02112 -1.31005 0
M  V30 39737 O 3764.87 1.04097 -1.59901 0
M  V30 39738 C 3762.01 1.47954 -3.11775 0
M  V30 39739 C 3761.12 0.858608 -4.23382 0
M  V30 39740 C 3760.25 1.93122 -4.94851 0
M  V30 39741 C 3759.29 1.28846 -5.98385 0
M  V30 39742 N 3758.43 2.30221 -6.63282 0
M  V30 39743 H 3763.27 -0.273524 -2.96742 0
M  V30 39744 H 3760.81 -0.146732 -1.46366 0
M  V30 39745 H 3762.77 2.12736 -3.58886 0
M  V30 39746 H 3761.4 2.10433 -2.44782 0
M  V30 39747 H 3760.45 0.0992129 -3.80271 0
M  V30 39748 H 3761.76 0.349294 -4.97576 0
M  V30 39749 H 3760.91 2.65577 -5.45485 0
M  V30 39750 H 3759.65 2.47425 -4.20276 0
M  V30 39751 H 3758.66 0.549344 -5.47049 0
M  V30 39752 H 3759.88 0.752822 -6.74914 0
M  V30 39753 H 3757.83 2.83614 -5.91523 0
M  V30 39754 H 3757.75 1.84168 -7.33225 0
M  V30 39755 H 3759.01 3.02176 -7.18547 0
M  V30 39756 N 3763.24 1.56749 -0.163565 0
M  V30 39757 C 3764.47 2.01454 0.493051 0
M  V30 39758 C 3764.89 1.04302 1.56533 0
M  V30 39759 O 3764.25 0.0213358 1.81287 0
M  V30 39760 C 3764.3 3.4481 1.0554 0
M  V30 39761 O 3763.4 3.5071 2.16971 0
M  V30 39762 H 3762.74 0.653269 0.118894 0
M  V30 39763 H 3765.27 2.02874 -0.265175 0
M  V30 39764 H 3765.28 3.83955 1.37995 0
M  V30 39765 H 3763.96 4.15021 0.27026 0
M  V30 39766 H 3762.54 3.23419 1.85619 0
M  V30 39767 N 3764.72 -0.110185 1.57214 0
M  V30 39768 C 3765.67 -1.1347 2.0098 0
M  V30 39769 C 3766.64 -1.40656 0.883461 0
M  V30 39770 O 3767.82 -1.52374 1.14834 0
M  V30 39771 C 3764.96 -2.45379 2.42659 0
M  V30 39772 C 3764.08 -2.25053 3.68748 0
M  V30 39773 C 3763.21 -3.50254 3.99369 0
M  V30 39774 C 3762.25 -3.25124 5.18614 0
M  V30 39775 N 3761.39 -4.42551 5.45062 0
M  V30 39776 H 3766.23 -0.754492 2.8829 0
M  V30 39777 H 3763.76 -0.361039 1.42601 0
M  V30 39778 H 3765.72 -3.22341 2.64863 0
M  V30 39779 H 3764.35 -2.81276 1.58379 0
M  V30 39780 H 3763.4 -1.38966 3.54108 0
M  V30 39781 H 3764.72 -2.02467 4.5586 0
M  V30 39782 H 3763.87 -4.3563 4.22269 0
M  V30 39783 H 3762.61 -3.7588 3.10749 0
M  V30 39784 H 3761.61 -2.38139 4.9555 0
M  V30 39785 H 3762.84 -3.00859 6.08819 0
M  V30 39786 H 3760.78 -4.68281 4.594 0
M  V30 39787 H 3760.7 -4.231 6.26516 0
M  V30 39788 H 3761.97 -5.29035 5.72487 0
M  V30 39789 N 3766.2 -1.52935 -0.38061 0
M  V30 39790 C 3767.44 -1.70081 -1.13366 0
M  V30 39791 C 3767.8 -0.435625 -1.86993 0
M  V30 39792 O 3769 -0.483562 -2.64415 0
M  V30 39793 C 3767.27 -2.9069 -2.07928 0
M  V30 39794 S 3768.83 -3.28466 -2.90956 0
M  V30 39795 H 3765.65 -0.598624 -0.383628 0
M  V30 39796 H 3768.25 -1.91002 -0.416932 0
M  V30 39797 H 3766.96 -3.80984 -1.52574 0
M  V30 39798 H 3766.49 -2.72126 -2.84096 0
M  V30 39799 H 3768.5 -2.79307 -4.10124 0
M  V30 39800 N 3767.68 0.639548 -1.4404 0
M  V30 39801 C 3768.59 1.78074 -1.52731 0
M  V30 39802 C 3769.6 1.69015 -0.413497 0
M  V30 39803 O 3770.78 1.89942 -0.669625 0
M  V30 39804 C 3767.84 3.14421 -1.46083 0
M  V30 39805 C 3766.9 3.35174 -2.68247 0
M  V30 39806 C 3766.14 4.65016 -2.61907 0
M  V30 39807 O 3766.36 5.4527 -1.6744 0
M  V30 39808 O 3765.29 4.87788 -3.52627 0
M  V30 39809 H 3769.12 1.73696 -2.49125 0
M  V30 39810 H 3766.71 0.799733 -1.26193 0
M  V30 39811 H 3768.59 3.95716 -1.44868 0
M  V30 39812 H 3767.26 3.1936 -0.528292 0
M  V30 39813 H 3766.17 2.5359 -2.75032 0
M  V30 39814 H 3767.5 3.35091 -3.6052 0
M  V30 39815 N 3769.15 1.30798 0.879184 0
M  V30 39816 C 3770.06 1.19607 2.0182 0
M  V30 39817 C 3771.08 0.114746 1.73621 0
M  V30 39818 O 3772.26 0.330792 1.98665 0
M  V30 39819 C 3769.32 0.894628 3.34959 0
M  V30 39820 C 3768.38 2.06192 3.76541 0
M  V30 39821 C 3767.62 1.77476 5.03327 0
M  V30 39822 O 3767.84 0.70545 5.66021 0
M  V30 39823 O 3766.77 2.62886 5.41456 0
M  V30 39824 H 3770.6 2.15305 2.1419 0
M  V30 39825 H 3768.18 1.10448 1.00606 0
M  V30 39826 H 3770.07 0.741964 4.14817 0
M  V30 39827 H 3768.74 -0.0323895 3.23684 0
M  V30 39828 H 3767.65 2.26994 2.97363 0
M  V30 39829 H 3768.98 2.97086 3.92429 0
M  V30 39830 N 3770.63 -1.09229 1.13608 0
M  V30 39831 C 3771.86 -1.85744 0.922699 0
M  V30 39832 C 3772.28 -1.80673 -0.523349 0
M  V30 39833 O 3771.64 -1.18568 -1.37154 0
M  V30 39834 C 3771.69 -3.31563 1.41768 0
M  V30 39835 O 3770.79 -4.07949 0.604252 0
M  V30 39836 H 3770.13 -0.575885 0.330533 0
M  V30 39837 H 3772.66 -1.37921 1.51126 0
M  V30 39838 H 3772.67 -3.82411 1.42219 0
M  V30 39839 H 3771.35 -3.3457 2.47054 0
M  V30 39840 H 3769.93 -3.66872 0.667785 0
M  V30 39841 N 3772.11 -0.929901 -1.27242 0
M  V30 39842 C 3773.34 -0.587312 -1.98911 0
M  V30 39843 C 3773.76 0.828138 -1.68889 0
M  V30 39844 O 3773.12 1.55605 -0.930422 0
M  V30 39845 C 3773.17 -0.822461 -3.51095 0
M  V30 39846 O 3772.27 0.110896 -4.12251 0
M  V30 39847 H 3771.61 -0.225878 -0.6244 0
M  V30 39848 H 3774.14 -1.24975 -1.61995 0
M  V30 39849 H 3774.15 -0.738895 -4.01253 0
M  V30 39850 H 3772.83 -1.85423 -3.72278 0
M  V30 39851 H 3771.4 -0.0227709 -3.72893 0
M  V30 39852 N 3773.59 1.41416 -0.695653 0
M  V30 39853 C 3774.55 2.29166 -0.0393352 0
M  V30 39854 C 3775.55 1.44381 0.707864 0
M  V30 39855 O 3776.74 1.65529 0.542742 0
M  V30 39856 C 3773.87 3.2726 0.954661 0
M  V30 39857 H 3775.07 2.88699 -0.811953 0
M  V30 39858 H 3772.62 1.49404 -0.459154 0
M  V30 39859 H 3773.36 2.72707 1.75504 0
M  V30 39860 H 3773.14 3.89822 0.422011 0
M  V30 39861 H 3774.63 3.93016 1.41167 0
M  V30 39862 N 3775.07 0.44041 1.51321 0
M  V30 39863 C 3776.01 -0.369486 2.27823 0
M  V30 39864 C 3776.98 -1.01416 1.31545 0
M  V30 39865 O 3778.17 -1.03248 1.60451 0
M  V30 39866 C 3775.31 -1.46298 3.12555 0
M  V30 39867 C 3774.42 -0.836143 4.23831 0
M  V30 39868 C 3773.56 -1.90495 4.95868 0
M  V30 39869 C 3772.6 -1.25671 5.9906 0
M  V30 39870 N 3771.73 -2.26701 6.64493 0
M  V30 39871 H 3776.57 0.289257 2.96593 0
M  V30 39872 H 3774.11 0.154492 1.46286 0
M  V30 39873 H 3776.07 -2.1083 3.60009 0
M  V30 39874 H 3774.7 -2.09131 2.45894 0
M  V30 39875 H 3773.75 -0.0790448 3.80318 0
M  V30 39876 H 3775.06 -0.322901 4.97754 0
M  V30 39877 H 3774.22 -2.62681 5.46886 0
M  V30 39878 H 3772.96 -2.45193 4.21582 0
M  V30 39879 H 3771.96 -0.520325 5.47332 0
M  V30 39880 H 3773.19 -0.717019 6.75304 0
M  V30 39881 H 3771.13 -2.80473 5.93019 0
M  V30 39882 H 3771.05 -1.80277 7.34191 0
M  V30 39883 H 3772.32 -2.98361 7.2014 0
M  V30 39884 N 3776.55 -1.5666 0.171876 0
M  V30 39885 C 3777.77 -2.01713 -0.482361 0
M  V30 39886 C 3778.2 -1.05131 -1.55978 0
M  V30 39887 O 3777.55 -0.0309496 -1.81274 0
M  V30 39888 C 3777.6 -3.45364 -1.0371 0
M  V30 39889 O 3776.71 -3.51856 -2.15108 0
M  V30 39890 H 3776.05 -0.65389 -0.115428 0
M  V30 39891 H 3778.58 -2.02731 0.27593 0
M  V30 39892 H 3778.59 -3.84681 -1.35957 0
M  V30 39893 H 3777.26 -4.15158 -0.248247 0
M  V30 39894 H 3775.84 -3.24399 -1.83901 0
M  V30 39895 N 3778.02 0.101846 -1.57271 0
M  V30 39896 C 3778.99 1.10822 -2.00627 0
M  V30 39897 C 3779.99 1.33335 -0.898804 0
M  V30 39898 O 3781.18 1.29562 -1.16445 0
M  V30 39899 C 3778.31 2.45889 -2.36117 0
M  V30 39900 H 3779.5 0.735187 -2.90749 0
M  V30 39901 H 3777.05 0.346686 -1.52407 0
M  V30 39902 H 3777.79 2.88081 -1.48928 0
M  V30 39903 H 3777.57 2.30899 -3.16904 0
M  V30 39904 H 3779.06 3.18285 -2.70342 0
M  V30 39905 N 3779.5 1.53135 0.372494 0
M  V30 39906 C 3780.73 1.73185 1.14113 0
M  V30 39907 C 3781.15 0.456585 1.82474 0
M  V30 39908 O 3780.51 -0.588889 1.7147 0
M  V30 39909 C 3780.56 2.89319 2.15236 0
M  V30 39910 O 3779.66 2.57445 3.22174 0
M  V30 39911 H 3779 0.575368 0.331432 0
M  V30 39912 H 3781.53 1.99993 0.431734 0
M  V30 39913 H 3781.54 3.15288 2.58955 0
M  V30 39914 H 3780.22 3.81825 1.6487 0
M  V30 39915 H 3778.79 2.42272 2.83476 0
M  V30 39916 N 3780.98 -0.6319 1.44377 0
M  V30 39917 C 3782.23 -1.39354 1.47338 0
M  V30 39918 C 3782.56 -1.93914 0.105284 0
M  V30 39919 O 3781.83 -1.73607 -0.876976 0
M  V30 39920 C 3782.12 -2.55939 2.53313 0
M  V30 39921 C 3781.97 -2.06732 3.99477 0
M  V30 39922 C 3783.29 -3.58126 2.558 0
M  V30 39923 H 3780.41 -0.505356 0.536455 0
M  V30 39924 H 3783.05 -0.714541 1.76052 0
M  V30 39925 H 3781.2 -3.13864 2.28958 0
M  V30 39926 H 3782.87 -1.53644 4.34961 0
M  V30 39927 H 3781.11 -1.37922 4.11291 0
M  V30 39928 H 3781.79 -2.90664 4.69274 0
M  V30 39929 H 3784.26 -3.1 2.77559 0
M  V30 39930 H 3783.14 -4.37222 3.31855 0
M  V30 39931 H 3783.4 -4.12143 1.59969 0
M  V30 39932 N 3782.46 -1.31262 -0.872235 0
M  V30 39933 C 3783.69 -1.23595 -1.65553 0
M  V30 39934 C 3784.1 0.201499 -1.88124 0
M  V30 39935 O 3783.44 1.1432 -1.43794 0
M  V30 39936 C 3783.5 -1.90747 -3.04722 0
M  V30 39937 C 3783.16 -3.40087 -3.0527 0
M  V30 39938 C 3784.16 -4.35872 -2.83394 0
M  V30 39939 C 3781.85 -3.81743 -3.26462 0
M  V30 39940 C 3783.84 -5.71285 -2.82686 0
M  V30 39941 C 3781.53 -5.1727 -3.25384 0
M  V30 39942 C 3782.53 -6.11852 -3.03522 0
M  V30 39943 O 3782.21 -7.44902 -3.02284 0
M  V30 39944 H 3781.95 -0.428366 -0.522952 0
M  V30 39945 H 3784.5 -1.73643 -1.09714 0
M  V30 39946 H 3782.73 -1.35246 -3.62278 0
M  V30 39947 H 3784.42 -1.77026 -3.65262 0
M  V30 39948 H 3785.18 -4.05019 -2.66805 0
M  V30 39949 H 3781.06 -3.08558 -3.4251 0
M  V30 39950 H 3784.61 -6.45084 -2.65542 0
M  V30 39951 H 3780.5 -5.47759 -3.41512 0
M  V30 39952 H 3781.27 -7.54048 -3.18361 0
M  V30 39953 N 3783.94 1.08625 -1.14186 0
M  V30 39954 C 3785.17 1.84445 -0.930785 0
M  V30 39955 C 3785.57 1.81798 0.52404 0
M  V30 39956 O 3784.92 1.21839 1.37481 0
M  V30 39957 C 3784.98 3.33136 -1.35131 0
M  V30 39958 C 3784.64 3.59521 -2.82123 0
M  V30 39959 C 3785.64 3.54552 -3.80248 0
M  V30 39960 C 3783.32 3.87604 -3.19482 0
M  V30 39961 C 3785.32 3.77292 -5.13741 0
M  V30 39962 C 3783.01 4.09997 -4.53151 0
M  V30 39963 C 3784 4.04834 -5.5009 0
M  V30 39964 O 3783.69 4.26641 -6.81346 0
M  V30 39965 H 3783.42 0.589197 -0.331395 0
M  V30 39966 H 3785.98 1.3811 -1.52035 0
M  V30 39967 H 3784.21 3.80218 -0.705062 0
M  V30 39968 H 3785.9 3.90388 -1.1114 0
M  V30 39969 H 3786.66 3.32874 -3.52732 0
M  V30 39970 H 3782.54 3.90743 -2.44624 0
M  V30 39971 H 3786.09 3.73178 -5.89393 0
M  V30 39972 H 3781.98 4.31158 -4.80388 0
M  V30 39973 H 3782.75 4.44059 -6.87571 0
M  V30 39974 N 3785.41 0.936635 1.26747 0
M  V30 39975 C 3786.64 0.597852 1.98596 0
M  V30 39976 C 3787.06 -0.81917 1.69326 0
M  V30 39977 O 3786.42 -1.55109 0.938661 0
M  V30 39978 C 3786.47 0.841069 3.50654 0
M  V30 39979 O 3785.57 -0.0890314 4.12304 0
M  V30 39980 H 3784.92 0.229187 0.623193 0
M  V30 39981 H 3787.45 1.25833 1.6133 0
M  V30 39982 H 3787.46 0.760164 4.00856 0
M  V30 39983 H 3786.13 1.87394 3.7129 0
M  V30 39984 H 3784.71 0.042546 3.72876 0
M  V30 39985 N 3786.89 -1.41045 0.703143 0
M  V30 39986 C 3787.82 -2.292 0.0033602 0
M  V30 39987 C 3788.84 -1.45182 -0.736622 0
M  V30 39988 O 3790.03 -1.68605 -0.586067 0
M  V30 39989 C 3787.13 -3.23204 -1.01942 0
M  V30 39990 C 3786.3 -4.36017 -0.347515 0
M  V30 39991 C 3785.36 -5.10546 -1.27395 0
M  V30 39992 O 3784.38 -5.64057 -0.763459 0
M  V30 39993 N 3785.59 -5.18724 -2.60586 0
M  V30 39994 H 3788.35 -2.89898 0.76023 0
M  V30 39995 H 3785.91 -1.5228 0.549774 0
M  V30 39996 H 3787.9 -3.69933 -1.64109 0
M  V30 39997 H 3786.47 -2.63761 -1.67776 0
M  V30 39998 H 3785.69 -3.91575 0.454156 0
M  V30 39999 H 3786.98 -5.0866 0.119384 0
M  V30 40000 H 3786.38 -4.7671 -3.04571 0
M  V30 40001 H 3784.94 -5.69003 -3.17929 0
M  V30 40002 N 3788.37 -0.448429 -1.51086 0
M  V30 40003 C 3789.3 0.347732 -2.30896 0
M  V30 40004 C 3790.28 1.01102 -1.36793 0
M  V30 40005 O 3791.47 1.01254 -1.65715 0
M  V30 40006 C 3788.6 1.44298 -3.15904 0
M  V30 40007 C 3787.55 0.902577 -4.18375 0
M  V30 40008 C 3786.88 2.09442 -4.91974 0
M  V30 40009 C 3788.18 -0.0706253 -5.22252 0
M  V30 40010 H 3789.87 -0.318325 -2.97703 0
M  V30 40011 H 3787.42 -0.154534 -1.43168 0
M  V30 40012 H 3789.37 2.00726 -3.70523 0
M  V30 40013 H 3788.09 2.13749 -2.46939 0
M  V30 40014 H 3786.75 0.360436 -3.64824 0
M  V30 40015 H 3786.4 2.77537 -4.19502 0
M  V30 40016 H 3786.1 1.73916 -5.61273 0
M  V30 40017 H 3787.62 2.66402 -5.4942 0
M  V30 40018 H 3789.04 0.403714 -5.71877 0
M  V30 40019 H 3787.44 -0.33901 -5.99142 0
M  V30 40020 H 3788.51 -1.00381 -4.74396 0
M  V30 40021 N 3789.85 1.56567 -0.180181 0
M  V30 40022 C 3790.78 2.14253 0.785539 0
M  V30 40023 C 3791.76 1.07506 1.21989 0
M  V30 40024 O 3792.94 1.35533 1.31008 0
M  V30 40025 C 3790.07 2.68931 2.05898 0
M  V30 40026 C 3789.12 3.88131 1.76795 0
M  V30 40027 S 3789.95 5.27375 0.929297 0
M  V30 40028 C 3791.11 5.85464 2.21321 0
M  V30 40029 H 3791.34 2.95832 0.295093 0
M  V30 40030 H 3788.87 1.54361 0.0346156 0
M  V30 40031 H 3790.83 3.01079 2.79037 0
M  V30 40032 H 3789.49 1.87422 2.52055 0
M  V30 40033 H 3788.68 4.24747 2.71304 0
M  V30 40034 H 3788.29 3.56916 1.11746 0
M  V30 40035 H 3790.58 5.98918 3.16708 0
M  V30 40036 H 3791.52 6.82367 1.8916 0
M  V30 40037 H 3791.93 5.1395 2.33486 0
M  V30 40038 N 3791.33 -0.0935042 1.57322 0
M  V30 40039 C 3792.57 -0.802302 1.87996 0
M  V30 40040 C 3792.93 -1.75824 0.771368 0
M  V30 40041 O 3794.13 -2.51051 0.960563 0
M  V30 40042 C 3792.4 -1.51054 3.23909 0
M  V30 40043 S 3793.96 -2.2574 3.7628 0
M  V30 40044 H 3790.78 -0.267263 0.658856 0
M  V30 40045 H 3793.38 -0.0593544 1.9541 0
M  V30 40046 H 3792.09 -0.800713 4.02513 0
M  V30 40047 H 3791.62 -2.29336 3.19638 0
M  V30 40048 H 3793.63 -3.51906 3.49824 0
M  V30 40049 N 3792.8 -1.5333 -0.364368 0
M  V30 40050 C 3793.74 -1.76139 -1.46655 0
M  V30 40051 C 3794.75 -0.642192 -1.49599 0
M  V30 40052 O 3795.94 -0.918479 -1.53056 0
M  V30 40053 C 3793.04 -1.82735 -2.85414 0
M  V30 40054 C 3792.21 -3.12393 -3.06152 0
M  V30 40055 C 3791.27 -3.10215 -4.25033 0
M  V30 40056 O 3790.3 -3.8401 -4.20149 0
M  V30 40057 N 3791.5 -2.3112 -5.32507 0
M  V30 40058 H 3794.26 -2.71242 -1.27467 0
M  V30 40059 H 3791.82 -1.52123 -0.5541 0
M  V30 40060 H 3793.82 -1.78754 -3.63083 0
M  V30 40061 H 3792.39 -0.94911 -2.97843 0
M  V30 40062 H 3791.61 -3.29667 -2.16133 0
M  V30 40063 H 3792.89 -3.98078 -3.16878 0
M  V30 40064 H 3792.29 -1.70678 -5.39338 0
M  V30 40065 H 3790.85 -2.32956 -6.08748 0
M  V30 40066 N 3794.28 0.624234 -1.4471 0
M  V30 40067 C 3795.69 1.20597 -1.42525 0
M  V30 40068 C 3796.04 1.9567 -0.144163 0
M  V30 40069 O 3795.17 2.02797 0.755139 0
M  V30 40070 C 3795.76 2.19361 -2.58198 0
M  V30 40071 C 3794.32 2.72946 -2.59186 0
M  V30 40072 C 3793.47 1.48061 -2.34464 0
M  V30 40073 H 3796.42 0.414505 -1.53191 0
M  V30 40074 H 3796.44 3.02092 -2.31345 0
M  V30 40075 H 3795.95 1.64693 -3.51422 0
M  V30 40076 H 3794.06 3.31598 -1.69922 0
M  V30 40077 H 3794.17 3.18515 -3.5789 0
M  V30 40078 H 3792.53 1.76436 -1.83692 0
M  V30 40079 H 3793.32 0.95286 -3.29811 0
M  V30 40080 N 3795.76 1.31723 0.865262 0
M  V30 40081 C 3797.01 1.21036 1.61348 0
M  V30 40082 C 3797.32 -0.229107 1.94254 0
M  V30 40083 O 3798.53 -0.457724 2.67614 0
M  V30 40084 C 3796.98 2.11917 2.90894 0
M  V30 40085 C 3796.59 3.60886 2.65453 0
M  V30 40086 C 3798.34 2.10041 3.68894 0
M  V30 40087 C 3796.24 4.4376 3.90936 0
M  V30 40088 H 3795.17 0.449438 0.60541 0
M  V30 40089 H 3797.82 1.56611 0.956307 0
M  V30 40090 H 3796.21 1.69245 3.58011 0
M  V30 40091 H 3797.38 4.11832 2.06714 0
M  V30 40092 H 3795.7 3.64785 2.008 0
M  V30 40093 H 3798.29 2.69201 4.6199 0
M  V30 40094 H 3798.64 1.08872 4.01812 0
M  V30 40095 H 3799.17 2.50937 3.08667 0
M  V30 40096 H 3795.91 5.45702 3.63166 0
M  V30 40097 H 3795.43 3.97569 4.49109 0
M  V30 40098 H 3797.11 4.56216 4.58776 0
M  V30 40099 N 3797.24 -1.08018 1.14761 0
M  V30 40100 C 3798.17 -2.17046 0.861016 0
M  V30 40101 C 3799.15 -1.69084 -0.185623 0
M  V30 40102 O 3800.33 -1.94156 -0.0414456 0
M  V30 40103 C 3797.46 -3.45611 0.342079 0
M  V30 40104 C 3796.42 -4.06986 1.32462 0
M  V30 40105 C 3795.74 -5.30551 0.664814 0
M  V30 40106 C 3797.04 -4.47805 2.68827 0
M  V30 40107 H 3798.74 -2.41277 1.77273 0
M  V30 40108 H 3796.28 -1.1596 0.853778 0
M  V30 40109 H 3798.24 -4.21202 0.129167 0
M  V30 40110 H 3796.96 -3.20946 -0.605081 0
M  V30 40111 H 3795.62 -3.33432 1.52377 0
M  V30 40112 H 3795.27 -5.02173 -0.288279 0
M  V30 40113 H 3794.97 -5.72571 1.32046 0
M  V30 40114 H 3796.49 -6.08853 0.461519 0
M  V30 40115 H 3797.91 -5.14555 2.52797 0
M  V30 40116 H 3796.3 -5.00755 3.30702 0
M  V30 40117 H 3797.37 -3.595 3.25404 0
M  V30 40118 N 3798.72 -0.943344 -1.26249 0
M  V30 40119 C 3799.65 -0.472387 -2.28672 0
M  V30 40120 C 3800.63 0.475452 -1.6332 0
M  V30 40121 O 3801.81 0.376841 -1.90509 0
M  V30 40122 C 3798.94 0.261225 -3.46316 0
M  V30 40123 C 3797.9 -0.600266 -4.2377 0
M  V30 40124 C 3797.22 0.263431 -5.34051 0
M  V30 40125 C 3798.52 -1.8727 -4.87573 0
M  V30 40126 H 3800.22 -1.32841 -2.68316 0
M  V30 40127 H 3797.76 -0.640205 -1.28986 0
M  V30 40128 H 3799.72 0.601747 -4.17081 0
M  V30 40129 H 3798.44 1.1514 -3.05631 0
M  V30 40130 H 3797.1 -0.923714 -3.54772 0
M  V30 40131 H 3796.75 1.15303 -4.89606 0
M  V30 40132 H 3796.45 -0.309598 -5.86784 0
M  V30 40133 H 3797.97 0.599175 -6.07653 0
M  V30 40134 H 3799.38 -1.59929 -5.50541 0
M  V30 40135 H 3797.78 -2.39047 -5.50433 0
M  V30 40136 H 3798.85 -2.58276 -4.10392 0
M  V30 40137 N 3800.2 1.4067 -0.710613 0
M  V30 40138 C 3801.13 2.33397 -0.0695011 0
M  V30 40139 C 3802.11 1.52627 0.750932 0
M  V30 40140 O 3803.29 1.81112 0.700864 0
M  V30 40141 C 3800.42 3.36569 0.856645 0
M  V30 40142 C 3799.38 4.27764 0.142201 0
M  V30 40143 C 3798.7 5.21433 1.18373 0
M  V30 40144 C 3800 5.12626 -1.00061 0
M  V30 40145 H 3801.7 2.87258 -0.843996 0
M  V30 40146 H 3799.24 1.38119 -0.407311 0
M  V30 40147 H 3801.19 4.00373 1.3145 0
M  V30 40148 H 3799.92 2.81092 1.66298 0
M  V30 40149 H 3798.58 3.65405 -0.295779 0
M  V30 40150 H 3798.23 4.62263 1.98298 0
M  V30 40151 H 3797.93 5.83287 0.710608 0
M  V30 40152 H 3799.45 5.88114 1.64179 0
M  V30 40153 H 3800.86 5.69912 -0.622346 0
M  V30 40154 H 3799.26 5.83498 -1.40178 0
M  V30 40155 H 3800.33 4.48899 -1.83352 0
M  V30 40156 N 3801.67 0.456435 1.50846 0
M  V30 40157 C 3802.95 -0.164451 1.94907 0
M  V30 40158 C 3803.33 -1.58341 1.39612 0
M  V30 40159 O 3802.68 -2.20725 0.59101 0
M  V30 40160 C 3802.89 -0.122733 3.48784 0
M  V30 40161 C 3804.24 -0.31889 4.23401 0
M  V30 40162 O 3805.26 -0.199988 3.55638 0
M  V30 40163 O 3804.12 -0.557412 5.4365 0
M  V30 40164 H 3801.21 -0.119638 0.818301 0
M  V30 40165 H 3803.76 0.515786 1.61672 0
M  V30 40166 H 3802.53 0.868535 3.81539 0
M  V30 40167 H 3802.15 -0.845062 3.88516 0
M  V30 40168 N 3803.15 -1.56469 0.188482 0
M  V30 40169 C 3804.08 -2.15994 -0.766768 0
M  V30 40170 C 3805.1 -1.12 -1.18151 0
M  V30 40171 O 3806.29 -1.3912 -1.11839 0
M  V30 40172 C 3803.39 -2.70178 -2.0459 0
M  V30 40173 C 3802.56 -3.99006 -1.792 0
M  V30 40174 C 3801.62 -4.38083 -2.91496 0
M  V30 40175 O 3800.64 -5.05633 -2.61389 0
M  V30 40176 N 3801.85 -4.01044 -4.19695 0
M  V30 40177 H 3804.61 -2.98589 -0.257777 0
M  V30 40178 H 3802.17 -1.61899 0.00628491 0
M  V30 40179 H 3804.16 -2.93308 -2.78841 0
M  V30 40180 H 3802.73 -1.92075 -2.4663 0
M  V30 40181 H 3801.95 -3.84077 -0.887622 0
M  V30 40182 H 3803.24 -4.83112 -1.59625 0
M  V30 40183 H 3802.64 -3.46696 -4.4701 0
M  V30 40184 H 3801.2 -4.29139 -4.90595 0
M  V30 40185 N 3804.63 0.0851597 -1.5737 0
M  V30 40186 C 3805.59 1.08688 -2.01791 0
M  V30 40187 C 3806.59 1.32374 -0.912895 0
M  V30 40188 O 3807.78 1.2832 -1.17812 0
M  V30 40189 C 3804.91 2.43371 -2.38712 0
M  V30 40190 H 3806.11 0.704308 -2.91512 0
M  V30 40191 H 3803.66 0.330502 -1.52766 0
M  V30 40192 H 3804.4 2.86486 -1.51975 0
M  V30 40193 H 3804.18 2.27524 -3.19335 0
M  V30 40194 H 3805.67 3.154 -2.73702 0
M  V30 40195 N 3806.11 1.53521 0.356231 0
M  V30 40196 C 3807.04 1.836 1.44268 0
M  V30 40197 C 3808.02 0.690168 1.55469 0
M  V30 40198 O 3809.2 0.940898 1.69885 0
M  V30 40199 C 3806.33 2.03427 2.81487 0
M  V30 40200 C 3805.29 3.19218 2.85103 0
M  V30 40201 C 3804.61 3.24355 4.25086 0
M  V30 40202 C 3805.91 4.57607 2.5178 0
M  V30 40203 H 3807.61 2.74585 1.19345 0
M  V30 40204 H 3805.15 1.32122 0.572684 0
M  V30 40205 H 3807.11 2.23053 3.57527 0
M  V30 40206 H 3805.83 1.0916 3.07817 0
M  V30 40207 H 3804.49 2.99428 2.11515 0
M  V30 40208 H 3804.14 2.27708 4.48506 0
M  V30 40209 H 3803.84 4.02158 4.28419 0
M  V30 40210 H 3805.36 3.46176 5.02986 0
M  V30 40211 H 3806.78 4.77331 3.17534 0
M  V30 40212 H 3805.17 5.3772 2.66416 0
M  V30 40213 H 3806.24 4.62081 1.47002 0
M  V30 40214 N 3807.59 -0.616551 1.45039 0
M  V30 40215 C 3808.83 -1.37783 1.48808 0
M  V30 40216 C 3809.16 -1.93792 0.125845 0
M  V30 40217 O 3808.44 -1.74527 -0.858513 0
M  V30 40218 C 3808.72 -2.53238 2.56013 0
M  V30 40219 C 3808.58 -2.02484 4.01647 0
M  V30 40220 C 3809.89 -3.55393 2.59584 0
M  V30 40221 H 3807.01 -0.499638 0.541785 0
M  V30 40222 H 3809.66 -0.695828 1.768 0
M  V30 40223 H 3807.81 -3.11418 2.32274 0
M  V30 40224 H 3809.48 -1.49022 4.36566 0
M  V30 40225 H 3807.72 -1.33552 4.1273 0
M  V30 40226 H 3808.39 -2.85671 4.72331 0
M  V30 40227 H 3810.87 -3.07039 2.80831 0
M  V30 40228 H 3809.74 -4.33678 3.36474 0
M  V30 40229 H 3810 -4.10424 1.64332 0
M  V30 40230 N 3809.06 -1.3218 -0.858264 0
M  V30 40231 C 3810.29 -1.25665 -1.64994 0
M  V30 40232 C 3810.71 0.172989 -1.87303 0
M  V30 40233 O 3810.07 1.12314 -1.42321 0
M  V30 40234 C 3810.12 -2.01792 -2.98852 0
M  V30 40235 O 3809.22 -1.36326 -3.89216 0
M  V30 40236 H 3808.56 -0.433272 -0.503161 0
M  V30 40237 H 3811.09 -1.74438 -1.06923 0
M  V30 40238 H 3811.1 -2.1183 -3.48701 0
M  V30 40239 H 3809.78 -3.05753 -2.81936 0
M  V30 40240 H 3808.36 -1.34813 -3.47678 0
M  V30 40241 N 3810.54 1.07407 -1.15332 0
M  V30 40242 C 3811.82 1.76722 -0.838372 0
M  V30 40243 C 3812.2 2.00314 0.666134 0
M  V30 40244 O 3811.55 1.62116 1.6103 0
M  V30 40245 C 3811.76 3.07612 -1.64852 0
M  V30 40246 C 3813.1 3.81967 -1.85435 0
M  V30 40247 O 3814.13 3.17422 -1.61623 0
M  V30 40248 O 3812.99 4.97892 -2.25313 0
M  V30 40249 H 3810.08 0.767403 -0.308256 0
M  V30 40250 H 3812.63 1.13778 -1.25907 0
M  V30 40251 H 3811.4 2.86054 -2.67 0
M  V30 40252 H 3811.02 3.78287 -1.22412 0
M  V30 40253 N 3812.02 0.950026 1.25747 0
M  V30 40254 C 3813.27 0.60322 1.93621 0
M  V30 40255 C 3813.6 -0.856895 1.74273 0
M  V30 40256 O 3812.87 -1.61422 1.08505 0
M  V30 40257 C 3813.16 0.957085 3.47148 0
M  V30 40258 C 3813.01 2.47259 3.75743 0
M  V30 40259 C 3814.33 0.478831 4.37487 0
M  V30 40260 H 3811.45 0.220624 0.703203 0
M  V30 40261 H 3814.09 1.18585 1.48451 0
M  V30 40262 H 3812.24 0.461287 3.85752 0
M  V30 40263 H 3813.91 3.0418 3.46803 0
M  V30 40264 H 3812.15 2.91228 3.2151 0
M  V30 40265 H 3812.83 2.6707 4.83092 0
M  V30 40266 H 3815.3 0.904058 4.0616 0
M  V30 40267 H 3814.18 0.755168 5.4368 0
M  V30 40268 H 3814.44 -0.621226 4.37714 0
M  V30 40269 N 3813.5 -1.40291 0.718063 0
M  V30 40270 C 3814.75 -2.00445 0.258128 0
M  V30 40271 C 3815.07 -1.57228 -1.15344 0
M  V30 40272 O 3814.34 -0.812853 -1.7824 0
M  V30 40273 H 3812.92 -0.741258 0.0924446 0
M  V30 40274 H 3815.58 -1.71592 0.924246 0
M  V30 40275 H 3814.67 -3.1072 0.293168 0
M  V30 40276 N 3814.98 -0.464428 -1.50602 0
M  V30 40277 C 3816.25 0.154112 -1.94992 0
M  V30 40278 C 3816.63 1.57598 -1.4045 0
M  V30 40279 O 3815.98 2.20408 -0.602707 0
M  V30 40280 C 3816.19 0.104235 -3.48844 0
M  V30 40281 C 3817.54 0.296431 -4.23564 0
M  V30 40282 O 3818.56 0.181125 -3.55739 0
M  V30 40283 O 3817.42 0.528573 -5.43938 0
M  V30 40284 H 3814.52 0.115297 -0.818923 0
M  V30 40285 H 3817.06 -0.524353 -1.61396 0
M  V30 40286 H 3815.83 -0.888757 -3.81073 0
M  V30 40287 H 3815.46 0.824446 -3.88958 0
M  V30 40288 N 3816.45 1.56367 -0.196777 0
M  V30 40289 C 3817.68 2.02455 0.450209 0
M  V30 40290 C 3818.1 1.07599 1.54285 0
M  V30 40291 O 3817.46 0.0597848 1.81201 0
M  V30 40292 C 3817.51 3.46971 0.982026 0
M  V30 40293 O 3816.61 3.55233 2.09483 0
M  V30 40294 H 3815.96 0.655644 0.10501 0
M  V30 40295 H 3818.49 2.02266 -0.308148 0
M  V30 40296 H 3818.5 3.86796 1.2982 0
M  V30 40297 H 3817.17 4.15501 0.182167 0
M  V30 40298 H 3815.75 3.27284 1.78717 0
M  V30 40299 N 3817.93 -0.0768128 1.57413 0
M  V30 40300 C 3818.9 -1.07616 2.02364 0
M  V30 40301 C 3819.9 -1.31888 0.919902 0
M  V30 40302 O 3821.09 -1.27693 1.18491 0
M  V30 40303 C 3818.22 -2.42101 2.39999 0
M  V30 40304 H 3819.41 -0.688838 2.91882 0
M  V30 40305 H 3816.96 -0.322395 1.52939 0
M  V30 40306 H 3817.7 -2.85676 1.53493 0
M  V30 40307 H 3817.48 -2.25828 3.20537 0
M  V30 40308 H 3818.97 -3.13944 2.75371 0
M  V30 40309 N 3819.41 -1.53708 -0.348084 0
M  V30 40310 C 3820.32 -1.84364 -1.45076 0
M  V30 40311 C 3821.34 -0.733403 -1.57788 0
M  V30 40312 O 3822.51 -1.02525 -1.73351 0
M  V30 40313 C 3819.58 -2.04283 -2.80124 0
M  V30 40314 C 3818.64 -3.28152 -2.76793 0
M  V30 40315 C 3817.87 -3.47112 -4.054 0
M  V30 40316 O 3818.09 -2.70001 -5.0245 0
M  V30 40317 O 3817.03 -4.40526 -4.10147 0
M  V30 40318 H 3820.85 -2.7808 -1.22088 0
M  V30 40319 H 3818.44 -1.39306 -0.539838 0
M  V30 40320 H 3820.32 -2.18856 -3.60111 0
M  V30 40321 H 3819 -1.13757 -3.03053 0
M  V30 40322 H 3817.9 -3.18988 -1.95442 0
M  V30 40323 H 3819.24 -4.18657 -2.58818 0
M  V30 40324 N 3820.89 0.608851 -1.45364 0
M  V30 40325 C 3822.13 1.36992 -1.49536 0
M  V30 40326 C 3822.47 1.93722 -0.136121 0
M  V30 40327 O 3821.74 1.7498 0.849246 0
M  V30 40328 C 3822.03 2.51877 -2.57352 0
M  V30 40329 C 3821.88 2.00351 -4.02715 0
M  V30 40330 C 3823.2 3.54011 -2.61465 0
M  V30 40331 H 3820.32 0.496757 -0.544427 0
M  V30 40332 H 3822.96 0.686442 -1.77167 0
M  V30 40333 H 3821.11 3.10181 -2.33923 0
M  V30 40334 H 3822.78 1.46705 -4.3735 0
M  V30 40335 H 3821.02 1.31361 -4.13433 0
M  V30 40336 H 3821.69 2.83162 -4.73839 0
M  V30 40337 H 3824.17 3.05545 -2.82456 0
M  V30 40338 H 3823.05 4.31888 -3.38769 0
M  V30 40339 H 3823.31 4.09546 -1.66506 0
M  V30 40340 N 3822.37 1.32633 0.851242 0
M  V30 40341 C 3823.33 1.21788 1.94166 0
M  V30 40342 C 3824.33 0.140051 1.60189 0
M  V30 40343 O 3825.52 0.3907 1.69762 0
M  V30 40344 C 3822.65 0.873774 3.29512 0
M  V30 40345 H 3823.84 2.18698 2.0521 0
M  V30 40346 H 3821.4 1.16514 1.04184 0
M  V30 40347 H 3822.13 -0.0933632 3.24166 0
M  V30 40348 H 3821.92 1.65309 3.5555 0
M  V30 40349 H 3823.41 0.822303 4.09424 0
M  V30 40350 N 3823.84 -1.06794 1.159 0
M  V30 40351 C 3825.09 -1.79764 0.93876 0
M  V30 40352 C 3825.42 -1.86758 -0.532457 0
M  V30 40353 O 3824.7 -1.35546 -1.3949 0
M  V30 40354 C 3824.98 -3.24523 1.56068 0
M  V30 40355 C 3824.83 -3.2564 3.10288 0
M  V30 40356 C 3826.15 -4.21941 1.25115 0
M  V30 40357 H 3823.27 -0.652601 0.342463 0
M  V30 40358 H 3825.91 -1.2493 1.43152 0
M  V30 40359 H 3824.06 -3.71347 1.14165 0
M  V30 40360 H 3825.74 -2.87015 3.61137 0
M  V30 40361 H 3823.98 -2.64437 3.43883 0
M  V30 40362 H 3824.65 -4.27737 3.4892 0
M  V30 40363 H 3827.13 -3.83534 1.61371 0
M  V30 40364 H 3826 -5.21506 1.71239 0
M  V30 40365 H 3826.26 -4.41776 0.16912 0
M  V30 40366 N 3825.32 -0.956681 -1.25241 0
M  V30 40367 C 3826.27 -0.477331 -2.2581 0
M  V30 40368 C 3827.24 0.471273 -1.59274 0
M  V30 40369 O 3828.42 0.384072 -1.86894 0
M  V30 40370 C 3825.56 0.23683 -3.44286 0
M  V30 40371 C 3824.68 -0.749252 -4.25453 0
M  V30 40372 C 3823.81 -0.0123214 -5.31199 0
M  V30 40373 C 3822.85 -0.989201 -6.04054 0
M  V30 40374 N 3821.99 -0.283007 -7.01529 0
M  V30 40375 H 3826.83 -1.33981 -2.66182 0
M  V30 40376 H 3824.37 -0.671855 -1.30861 0
M  V30 40377 H 3826.32 0.667478 -4.11826 0
M  V30 40378 H 3824.95 1.06334 -3.04783 0
M  V30 40379 H 3824.01 -1.29838 -3.57556 0
M  V30 40380 H 3825.32 -1.49462 -4.75881 0
M  V30 40381 H 3824.47 0.476862 -6.04823 0
M  V30 40382 H 3823.21 0.765825 -4.8165 0
M  V30 40383 H 3822.22 -1.48936 -5.29243 0
M  V30 40384 H 3823.44 -1.76761 -6.55692 0
M  V30 40385 H 3821.39 0.476364 -6.54268 0
M  V30 40386 H 3821.3 -0.967436 -7.49784 0
M  V30 40387 H 3822.57 0.184572 -7.79281 0
M  V30 40388 N 3826.8 1.39908 -0.725493 0
M  V30 40389 C 3827.73 2.28183 -0.028241 0
M  V30 40390 C 3828.71 1.43877 0.757514 0
M  V30 40391 O 3829.9 1.73279 0.742074 0
M  V30 40392 C 3827.02 3.24594 0.9673 0
M  V30 40393 C 3826.07 4.25637 0.271174 0
M  V30 40394 S 3826.9 5.25926 -1.00806 0
M  V30 40395 C 3828.06 6.25898 -0.0148705 0
M  V30 40396 H 3828.29 2.86971 -0.776865 0
M  V30 40397 H 3825.82 1.4549 -0.516906 0
M  V30 40398 H 3827.78 3.80663 1.53643 0
M  V30 40399 H 3826.44 2.64843 1.6887 0
M  V30 40400 H 3825.64 4.93485 1.02412 0
M  V30 40401 H 3825.24 3.73319 -0.225669 0
M  V30 40402 H 3827.53 6.72413 0.828698 0
M  V30 40403 H 3828.47 7.05015 -0.660234 0
M  V30 40404 H 3828.88 5.63393 0.353282 0
M  V30 40405 N 3828.28 0.472408 1.50353 0
M  V30 40406 C 3829.53 -0.0821273 2.02333 0
M  V30 40407 C 3829.85 -1.39603 1.3543 0
M  V30 40408 O 3829.11 -1.89987 0.469419 0
M  V30 40409 C 3829.41 -0.312568 3.56031 0
M  V30 40410 C 3829.07 0.919792 4.41419 0
M  V30 40411 C 3827.74 1.25767 4.64474 0
M  V30 40412 C 3830.09 1.74026 4.91289 0
M  V30 40413 C 3827.42 2.41605 5.34644 0
M  V30 40414 C 3829.77 2.88993 5.62731 0
M  V30 40415 C 3828.43 3.23194 5.84039 0
M  V30 40416 H 3827.7 -0.0300525 0.74039 0
M  V30 40417 H 3830.35 0.626757 1.80953 0
M  V30 40418 H 3828.65 -1.10371 3.75933 0
M  V30 40419 H 3830.35 -0.755622 3.93816 0
M  V30 40420 H 3826.94 0.646561 4.23695 0
M  V30 40421 H 3831.12 1.4924 4.7333 0
M  V30 40422 H 3826.38 2.68375 5.49349 0
M  V30 40423 H 3830.55 3.52914 6.00354 0
M  V30 40424 H 3828.18 4.13061 6.38189 0
M  V30 40425 N 3829.76 -1.5626 0.205067 0
M  V30 40426 C 3831.03 -1.89639 -0.479204 0
M  V30 40427 C 3831.41 -1.12005 -1.78936 0
M  V30 40428 O 3830.76 -0.224219 -2.27397 0
M  V30 40429 C 3830.97 -3.42146 -0.688264 0
M  V30 40430 C 3832.32 -4.1258 -1.00315 0
M  V30 40431 O 3833.34 -3.47653 -0.775636 0
M  V30 40432 O 3832.2 -5.2735 -1.43403 0
M  V30 40433 H 3829.3 -0.787955 -0.251111 0
M  V30 40434 H 3831.84 -1.67907 0.246024 0
M  V30 40435 H 3830.62 -3.90584 0.236547 0
M  V30 40436 H 3830.24 -3.69603 -1.46559 0
M  V30 40437 N 3831.24 0.0684638 -1.57451 0
M  V30 40438 C 3832.2 1.06542 -2.02932 0
M  V30 40439 C 3833.2 1.31398 -0.926884 0
M  V30 40440 O 3834.39 1.27063 -1.19167 0
M  V30 40441 C 3831.52 2.40825 -2.4128 0
M  V30 40442 H 3832.71 0.673349 -2.92243 0
M  V30 40443 H 3830.27 0.31428 -1.53108 0
M  V30 40444 H 3831 2.84858 -1.55005 0
M  V30 40445 H 3830.79 2.24125 -3.21731 0
M  V30 40446 H 3832.28 3.12479 -2.77032 0
M  V30 40447 N 3832.71 1.5389 0.339928 0
M  V30 40448 C 3833.94 1.74999 1.09813 0
M  V30 40449 C 3834.35 0.490779 1.82724 0
M  V30 40450 O 3833.69 -0.547436 1.75353 0
M  V30 40451 C 3833.76 2.87838 2.15383 0
M  V30 40452 C 3833.42 4.27317 1.62015 0
M  V30 40453 C 3834.42 5.08758 1.07055 0
M  V30 40454 C 3832.1 4.73813 1.66752 0
M  V30 40455 C 3834.1 6.34797 0.575418 0
M  V30 40456 C 3831.78 5.99824 1.16851 0
M  V30 40457 C 3832.78 6.80149 0.623385 0
M  V30 40458 O 3832.47 8.03792 0.131824 0
M  V30 40459 H 3832.2 0.588185 0.333188 0
M  V30 40460 H 3834.76 2.01531 0.396785 0
M  V30 40461 H 3832.99 2.56839 2.89086 0
M  V30 40462 H 3834.67 2.96882 2.76796 0
M  V30 40463 H 3835.44 4.73999 1.02715 0
M  V30 40464 H 3831.32 4.11347 2.08122 0
M  V30 40465 H 3834.86 6.9744 0.149267 0
M  V30 40466 H 3830.76 6.34078 1.20893 0
M  V30 40467 H 3831.53 8.18122 0.248776 0
M  V30 40468 N 3834.19 -0.601133 1.45685 0
M  V30 40469 C 3835.44 -1.36197 1.50261 0
M  V30 40470 C 3835.77 -1.93647 0.146392 0
M  V30 40471 O 3835.05 -1.75428 -0.839954 0
M  V30 40472 C 3835.33 -2.50508 2.58684 0
M  V30 40473 C 3835.18 -1.98212 4.03772 0
M  V30 40474 C 3836.5 -3.5262 2.63339 0
M  V30 40475 H 3833.62 -0.493863 0.547054 0
M  V30 40476 H 3836.26 -0.677037 1.77528 0
M  V30 40477 H 3834.41 -3.08936 2.35564 0
M  V30 40478 H 3836.08 -1.44384 4.38122 0
M  V30 40479 H 3834.33 -1.29167 4.14124 0
M  V30 40480 H 3835 -2.80645 4.75334 0
M  V30 40481 H 3837.47 -3.04043 2.84072 0
M  V30 40482 H 3836.35 -4.30085 3.41054 0
M  V30 40483 H 3836.61 -4.08658 1.68676 0
M  V30 40484 N 3835.67 -1.33083 -0.844196 0
M  V30 40485 C 3836.62 -1.22865 -1.97502 0
M  V30 40486 C 3837.61 -0.131171 -1.68891 0
M  V30 40487 O 3838.82 -0.294784 -1.7757 0
M  V30 40488 H 3835.19 -0.38114 -0.648256 0
M  V30 40489 H 3837.16 -2.18481 -2.03245 0
M  V30 40490 C 3835.91 -0.979287 -3.33624 0
M  V30 40491 H 3835.24 -1.81602 -3.56175 0
M  V30 40492 H 3836.68 -0.948079 -4.13264 0
M  V30 40493 C 3835.13 0.317863 -3.35397 0
M  V30 40494 O 3835.66 1.32632 -3.79172 0
M  V30 40495 N 3833.87 0.343526 -2.88562 0
M  V30 40496 H 3833.42 -0.477669 -2.53133 0
M  V30 40497 H 3833.38 1.21126 -2.90131 0
M  V30 40498 N 3837.15 1.06178 -1.16464 0
M  V30 40499 C 3838.38 1.82694 -0.971107 0
M  V30 40500 C 3838.79 1.82578 0.480684 0
M  V30 40501 O 3838.15 1.24581 1.33364 0
M  V30 40502 C 3838.2 3.29256 -1.49241 0
M  V30 40503 O 3837.92 3.29491 -2.88734 0
M  V30 40504 C 3839.42 4.22497 -1.34205 0
M  V30 40505 H 3836.64 0.576016 -0.34416 0
M  V30 40506 H 3839.18 1.33955 -1.5452 0
M  V30 40507 H 3837.34 3.75302 -0.960569 0
M  V30 40508 H 3837.75 4.21148 -3.12626 0
M  V30 40509 H 3839.23 5.23355 -1.75508 0
M  V30 40510 H 3839.7 4.38256 -0.287762 0
M  V30 40511 H 3840.31 3.82298 -1.86355 0
M  V30 40512 N 3838.63 0.96331 1.24732 0
M  V30 40513 C 3839.87 0.6228 1.92685 0
M  V30 40514 C 3840.2 -0.841412 1.75358 0
M  V30 40515 O 3839.46 -1.62023 1.09759 0
M  V30 40516 C 3839.75 0.938212 3.44866 0
M  V30 40517 C 3839.42 2.38986 3.82357 0
M  V30 40518 C 3838.08 2.78662 3.92302 0
M  V30 40519 C 3840.43 3.33217 4.00769 0
M  V30 40520 C 3837.76 4.11621 4.18073 0
M  V30 40521 C 3840.11 4.65799 4.28035 0
M  V30 40522 C 3838.78 5.0526 4.36198 0
M  V30 40523 H 3838.05 0.227899 0.705084 0
M  V30 40524 H 3840.7 1.21397 1.48104 0
M  V30 40525 H 3839 0.264744 3.90905 0
M  V30 40526 H 3840.7 0.653204 3.95644 0
M  V30 40527 H 3837.29 2.07218 3.75178 0
M  V30 40528 H 3841.47 3.0375 3.92492 0
M  V30 40529 H 3836.73 4.41826 4.22611 0
M  V30 40530 H 3840.9 5.38788 4.41226 0
M  V30 40531 H 3838.53 6.08309 4.55921 0
M  V30 40532 N 3840.1 -1.39522 0.732902 0
M  V30 40533 C 3841.33 -2.0538 0.288753 0
M  V30 40534 C 3841.75 -1.54892 -1.06724 0
M  V30 40535 O 3841.11 -0.691755 -1.67584 0
M  V30 40536 C 3841.16 -3.59368 0.297801 0
M  V30 40537 O 3840.26 -4.0615 -0.715264 0
M  V30 40538 H 3839.6 -0.650807 0.131708 0
M  V30 40539 H 3842.13 -1.78596 0.998238 0
M  V30 40540 H 3842.14 -4.07755 0.141462 0
M  V30 40541 H 3840.82 -3.95478 1.28726 0
M  V30 40542 H 3839.4 -3.69182 -0.525233 0
M  V30 40543 N 3841.58 -0.480375 -1.501 0
M  V30 40544 C 3842.81 0.0710508 -2.07278 0
M  V30 40545 C 3843.23 1.31921 -1.34084 0
M  V30 40546 O 3842.59 1.77027 -0.391282 0
M  V30 40547 C 3842.64 0.328643 -3.59099 0
M  V30 40548 O 3841.74 1.40739 -3.87642 0
M  V30 40549 H 3841.08 -0.0170865 -0.66378 0
M  V30 40550 H 3843.61 -0.674083 -1.93177 0
M  V30 40551 H 3843.62 0.566364 -4.0405 0
M  V30 40552 H 3842.3 -0.583388 -4.11788 0
M  V30 40553 H 3840.87 1.15624 -3.54521 0
M  V30 40554 N 3843.06 1.56149 -0.213351 0
M  V30 40555 C 3844.29 2.02474 0.425653 0
M  V30 40556 C 3844.7 1.09329 1.53924 0
M  V30 40557 O 3844.06 0.101396 1.82218 0
M  V30 40558 C 3844.11 3.48383 0.96496 0
M  V30 40559 O 3843.83 4.37976 -0.104222 0
M  V30 40560 C 3845.33 4.10314 1.67803 0
M  V30 40561 H 3842.55 0.662725 0.105053 0
M  V30 40562 H 3845.1 2.01862 -0.327404 0
M  V30 40563 H 3843.25 3.49637 1.66832 0
M  V30 40564 H 3843.67 5.23642 0.299893 0
M  V30 40565 H 3845.14 5.14203 2.00748 0
M  V30 40566 H 3845.62 3.54832 2.58826 0
M  V30 40567 H 3846.22 4.12886 1.02007 0
M  V30 40568 N 3844.54 -0.0601128 1.57485 0
M  V30 40569 C 3845.79 -0.757037 1.87817 0
M  V30 40570 C 3846.11 -1.76984 0.806647 0
M  V30 40571 O 3845.37 -1.94715 -0.196066 0
M  V30 40572 C 3845.67 -1.49039 3.24842 0
M  V30 40573 C 3845.33 -0.616481 4.46666 0
M  V30 40574 C 3844 -0.375684 4.79731 0
M  V30 40575 C 3846.35 -0.0112156 5.21199 0
M  V30 40576 C 3843.68 0.479667 5.84736 0
M  V30 40577 C 3846.03 0.831657 6.27109 0
M  V30 40578 C 3844.69 1.08221 6.58669 0
M  V30 40579 H 3843.96 -0.27702 0.687271 0
M  V30 40580 H 3846.61 -0.0175256 1.91492 0
M  V30 40581 H 3844.91 -2.30241 3.17011 0
M  V30 40582 H 3846.61 -2.03463 3.45549 0
M  V30 40583 H 3843.2 -0.814297 4.20793 0
M  V30 40584 H 3847.38 -0.184342 4.95958 0
M  V30 40585 H 3842.64 0.682414 6.0758 0
M  V30 40586 H 3846.81 1.30734 6.84019 0
M  V30 40587 H 3844.44 1.74676 7.3986 0
M  V30 40588 N 3846.02 -1.54068 -0.331762 0
M  V30 40589 C 3846.96 -1.83596 -1.42812 0
M  V30 40590 C 3847.96 -0.707258 -1.53929 0
M  V30 40591 O 3849.16 -0.89079 -1.56413 0
M  V30 40592 H 3845.54 -0.581842 -0.476408 0
M  V30 40593 H 3847.51 -2.75296 -1.15128 0
M  V30 40594 C 3846.26 -2.07282 -2.79158 0
M  V30 40595 H 3845.58 -2.93591 -2.71375 0
M  V30 40596 H 3847.02 -2.31901 -3.54962 0
M  V30 40597 C 3845.48 -0.861874 -3.25689 0
M  V30 40598 O 3846.01 -0.0670838 -4.01644 0
M  V30 40599 N 3844.22 -0.675796 -2.82633 0
M  V30 40600 H 3843.76 -1.32375 -2.20985 0
M  V30 40601 H 3843.72 0.132949 -3.14119 0
M  V30 40602 N 3847.49 0.593399 -1.46002 0
M  V30 40603 C 3848.74 1.35398 -1.50981 0
M  V30 40604 C 3849.07 1.93567 -0.15666 0
M  V30 40605 O 3848.35 1.75871 0.830639 0
M  V30 40606 C 3848.63 2.49133 -2.60009 0
M  V30 40607 C 3848.48 1.96068 -4.04818 0
M  V30 40608 C 3849.8 3.51218 -2.65205 0
M  V30 40609 H 3846.92 0.490955 -0.549665 0
M  V30 40610 H 3849.56 0.667612 -1.77885 0
M  V30 40611 H 3847.71 3.07683 -2.37199 0
M  V30 40612 H 3849.39 1.42058 -4.38882 0
M  V30 40613 H 3847.63 1.26969 -4.14803 0
M  V30 40614 H 3848.3 2.7812 -4.76816 0
M  V30 40615 H 3850.78 3.02532 -2.85681 0
M  V30 40616 H 3849.65 4.2827 -3.4333 0
M  V30 40617 H 3849.91 4.07757 -1.7084 0
M  V30 40618 N 3848.97 1.33529 0.837127 0
M  V30 40619 C 3850.38 1.22518 1.40876 0
M  V30 40620 C 3850.73 -0.155202 1.95585 0
M  V30 40621 O 3849.86 -1.05488 1.88948 0
M  V30 40622 C 3850.45 2.21819 2.56089 0
M  V30 40623 C 3849.01 2.14643 3.09201 0
M  V30 40624 C 3848.16 2.09209 1.82008 0
M  V30 40625 H 3851.11 1.45102 0.642741 0
M  V30 40626 H 3851.13 1.82693 3.33772 0
M  V30 40627 H 3850.64 3.22276 2.16241 0
M  V30 40628 H 3848.75 1.17495 3.5359 0
M  V30 40629 H 3848.86 3.05265 3.69256 0
M  V30 40630 H 3847.22 1.54711 2.02328 0
M  V30 40631 H 3848.01 3.11475 1.44353 0
M  V30 40632 N 3850.45 -1.05559 1.17026 0
M  V30 40633 C 3851.38 -2.12685 0.827057 0
M  V30 40634 C 3852.36 -1.61308 -0.204544 0
M  V30 40635 O 3853.55 -1.88299 -0.0869247 0
M  V30 40636 C 3850.67 -3.37897 0.233077 0
M  V30 40637 C 3849.72 -4.08092 1.23947 0
M  V30 40638 S 3850.55 -4.57122 2.78926 0
M  V30 40639 C 3851.71 -5.85586 2.20998 0
M  V30 40640 H 3851.94 -2.41469 1.73435 0
M  V30 40641 H 3849.47 -1.18105 0.994518 0
M  V30 40642 H 3851.43 -4.1037 -0.103149 0
M  V30 40643 H 3850.09 -3.07256 -0.6521 0
M  V30 40644 H 3849.29 -4.98045 0.772447 0
M  V30 40645 H 3848.89 -3.41667 1.52116 0
M  V30 40646 H 3851.18 -6.58741 1.58324 0
M  V30 40647 H 3852.12 -6.3703 3.09191 0
M  V30 40648 H 3852.53 -5.39972 1.64592 0
M  V30 40649 N 3851.93 -0.969911 -1.2422 0
M  V30 40650 C 3852.84 -0.509508 -2.29 0
M  V30 40651 C 3853.85 0.430608 -1.68588 0
M  V30 40652 O 3855.03 0.303107 -1.99106 0
M  V30 40653 C 3852.1 0.190845 -3.46174 0
M  V30 40654 C 3851.16 -0.789371 -4.2198 0
M  V30 40655 C 3850.39 -0.122346 -5.3356 0
M  V30 40656 O 3850.61 1.08887 -5.59911 0
M  V30 40657 O 3849.55 -0.815622 -5.96348 0
M  V30 40658 H 3853.37 -1.38063 -2.70504 0
M  V30 40659 H 3850.96 -0.737051 -1.29954 0
M  V30 40660 H 3852.84 0.58417 -4.17331 0
M  V30 40661 H 3851.51 1.0369 -3.06643 0
M  V30 40662 H 3850.42 -1.2332 -3.5319 0
M  V30 40663 H 3851.75 -1.60391 -4.65334 0
M  V30 40664 N 3853.41 1.39131 -0.740291 0
M  V30 40665 C 3854.35 2.30567 -0.103784 0
M  V30 40666 C 3855.32 1.49491 0.723999 0
M  V30 40667 O 3856.51 1.78161 0.682873 0
M  V30 40668 C 3853.65 3.35853 0.793528 0
M  V30 40669 C 3852.76 4.31974 -0.047443 0
M  V30 40670 C 3851.9 5.24329 0.851634 0
M  V30 40671 C 3850.94 6.121 0.00622874 0
M  V30 40672 N 3850.07 6.96794 0.86153 0
M  V30 40673 H 3854.91 2.84426 -0.889137 0
M  V30 40674 H 3852.45 1.40044 -0.450117 0
M  V30 40675 H 3854.41 3.95491 1.32827 0
M  V30 40676 H 3853.04 2.83436 1.5448 0
M  V30 40677 H 3852.09 3.7391 -0.699667 0
M  V30 40678 H 3853.4 4.93851 -0.700893 0
M  V30 40679 H 3852.56 5.89019 1.45403 0
M  V30 40680 H 3851.29 4.62786 1.53885 0
M  V30 40681 H 3850.3 5.46418 -0.608929 0
M  V30 40682 H 3851.52 6.75709 -0.67785 0
M  V30 40683 H 3849.47 6.37814 1.53394 0
M  V30 40684 H 3849.39 7.55537 0.264679 0
M  V30 40685 H 3850.66 7.65908 1.44932 0
M  V30 40686 N 3854.88 0.488329 1.49844 0
M  V30 40687 C 3855.81 -0.286392 2.31737 0
M  V30 40688 C 3856.8 -0.974394 1.39426 0
M  V30 40689 O 3857.98 -0.968245 1.68341 0
M  V30 40690 C 3855.11 -1.35872 3.19619 0
M  V30 40691 C 3854.06 -0.791335 4.20621 0
M  V30 40692 C 3853.39 -1.96324 4.97354 0
M  V30 40693 C 3854.69 0.209066 5.21881 0
M  V30 40694 H 3856.38 0.397144 2.96754 0
M  V30 40695 H 3853.93 0.192438 1.42708 0
M  V30 40696 H 3855.88 -1.90832 3.75714 0
M  V30 40697 H 3854.61 -2.07127 2.5252 0
M  V30 40698 H 3853.27 -0.263582 3.65651 0
M  V30 40699 H 3852.91 -2.66317 4.26713 0
M  V30 40700 H 3852.61 -1.58973 5.65686 0
M  V30 40701 H 3854.14 -2.51742 5.5629 0
M  V30 40702 H 3855.55 -0.251949 5.72746 0
M  V30 40703 H 3853.95 0.497743 5.98032 0
M  V30 40704 H 3855.02 1.12924 4.71568 0
M  V30 40705 N 3856.36 -1.56034 0.221629 0
M  V30 40706 C 3857.31 -2.20293 -0.688463 0
M  V30 40707 C 3858.28 -1.15853 -1.19026 0
M  V30 40708 O 3859.46 -1.44209 -1.24934 0
M  V30 40709 C 3856.6 -2.88681 -1.89096 0
M  V30 40710 C 3855.72 -4.07714 -1.42805 0
M  V30 40711 C 3854.85 -4.63886 -2.58812 0
M  V30 40712 C 3853.89 -5.7522 -2.09258 0
M  V30 40713 N 3853.03 -6.25682 -3.18538 0
M  V30 40714 H 3857.87 -2.977 -0.133772 0
M  V30 40715 H 3855.41 -1.47 -0.0542749 0
M  V30 40716 H 3857.36 -3.26516 -2.59698 0
M  V30 40717 H 3855.99 -2.13792 -2.41853 0
M  V30 40718 H 3855.05 -3.75364 -0.616953 0
M  V30 40719 H 3856.36 -4.88161 -1.02469 0
M  V30 40720 H 3855.51 -5.04164 -3.37496 0
M  V30 40721 H 3854.25 -3.82601 -3.02436 0
M  V30 40722 H 3853.26 -5.34444 -1.29035 0
M  V30 40723 H 3854.48 -6.58339 -1.66633 0
M  V30 40724 H 3852.43 -5.47311 -3.61644 0
M  V30 40725 H 3852.34 -7.01253 -2.82454 0
M  V30 40726 H 3853.61 -6.70617 -3.97357 0
M  V30 40727 N 3857.84 0.0517601 -1.57515 0
M  V30 40728 C 3859.07 0.759451 -1.92458 0
M  V30 40729 C 3859.48 1.70091 -0.819426 0
M  V30 40730 O 3858.84 1.81335 0.205881 0
M  V30 40731 C 3858.89 1.536 -3.27245 0
M  V30 40732 O 3858.61 0.632365 -4.33512 0
M  V30 40733 C 3860.11 2.3429 -3.76328 0
M  V30 40734 H 3857.33 0.214796 -0.635692 0
M  V30 40735 H 3859.88 0.0160503 -2.04494 0
M  V30 40736 H 3858.03 2.23149 -3.16675 0
M  V30 40737 H 3858.45 1.17453 -5.1118 0
M  V30 40738 H 3859.92 2.84205 -4.73214 0
M  V30 40739 H 3860.4 3.1471 -3.06356 0
M  V30 40740 H 3861 1.69859 -3.89907 0
M  V30 40741 N 3859.32 1.54242 0.323587 0
M  V30 40742 C 3860.25 1.86619 1.40341 0
M  V30 40743 C 3861.23 0.72299 1.5397 0
M  V30 40744 O 3862.42 0.976721 1.67851 0
M  V30 40745 C 3859.55 2.09352 2.77108 0
M  V30 40746 C 3858.5 3.25194 2.78268 0
M  V30 40747 C 3857.83 3.33299 4.1811 0
M  V30 40748 C 3859.13 4.62844 2.42017 0
M  V30 40749 H 3860.82 2.77055 1.13494 0
M  V30 40750 H 3858.37 1.33307 0.54453 0
M  V30 40751 H 3860.32 2.30586 3.52715 0
M  V30 40752 H 3859.04 1.15665 3.05433 0
M  V30 40753 H 3857.7 3.03847 2.05116 0
M  V30 40754 H 3857.35 2.3717 4.43576 0
M  V30 40755 H 3857.05 4.11155 4.19792 0
M  V30 40756 H 3858.57 3.56767 4.9553 0
M  V30 40757 H 3859.99 4.83959 3.07337 0
M  V30 40758 H 3858.38 5.4325 2.5495 0
M  V30 40759 H 3859.45 4.65095 1.37167 0
M  V30 40760 N 3860.8 -0.585648 1.46314 0
M  V30 40761 C 3862.04 -1.34596 1.51697 0
M  V30 40762 C 3862.38 -1.93481 0.166923 0
M  V30 40763 O 3861.65 -1.76309 -0.8213 0
M  V30 40764 C 3861.93 -2.4775 2.61327 0
M  V30 40765 C 3861.79 -1.93919 4.05852 0
M  V30 40766 C 3863.11 -3.49807 2.67064 0
M  V30 40767 H 3860.23 -0.488033 0.552261 0
M  V30 40768 H 3862.87 -0.658169 1.78236 0
M  V30 40769 H 3861.02 -3.06421 2.38828 0
M  V30 40770 H 3862.69 -1.39729 4.39629 0
M  V30 40771 H 3860.93 -1.24768 4.1547 0
M  V30 40772 H 3861.6 -2.75587 4.78284 0
M  V30 40773 H 3864.08 -3.01013 2.87281 0
M  V30 40774 H 3862.96 -4.26443 3.45597 0
M  V30 40775 H 3863.22 -4.06845 1.73 0
M  V30 40776 N 3862.28 -1.33971 -0.830033 0
M  V30 40777 C 3863.24 -1.24862 -1.92204 0
M  V30 40778 C 3864.24 -0.165518 -1.59946 0
M  V30 40779 O 3865.43 -0.417659 -1.69119 0
M  V30 40780 C 3862.56 -0.926086 -3.2808 0
M  V30 40781 H 3863.75 -2.21935 -2.01705 0
M  V30 40782 H 3861.31 -1.18156 -1.02317 0
M  V30 40783 H 3862.04 0.0417794 -3.24273 0
M  V30 40784 H 3861.83 -1.70944 -3.52875 0
M  V30 40785 H 3863.32 -0.887335 -4.08064 0
M  V30 40786 N 3863.75 1.04937 -1.17584 0
M  V30 40787 C 3864.98 1.81654 -0.99043 0
M  V30 40788 C 3865.4 1.83078 0.461292 0
M  V30 40789 O 3864.75 1.25988 1.32035 0
M  V30 40790 C 3864.8 3.27655 -1.52724 0
M  V30 40791 O 3864.53 3.2641 -2.92212 0
M  V30 40792 C 3866.03 4.2105 -1.38678 0
M  V30 40793 H 3863.25 0.572334 -0.35025 0
M  V30 40794 H 3865.79 1.32308 -1.55932 0
M  V30 40795 H 3863.95 3.74262 -1.00032 0
M  V30 40796 H 3864.36 4.17808 -3.17075 0
M  V30 40797 H 3865.83 5.21464 -1.81049 0
M  V30 40798 H 3866.31 4.37926 -0.334228 0
M  V30 40799 H 3866.92 3.803 -1.904 0
M  V30 40800 N 3865.23 0.976485 1.23703 0
M  V30 40801 C 3866.19 0.518572 2.23257 0
M  V30 40802 C 3867.19 -0.389673 1.56007 0
M  V30 40803 O 3868.38 -0.183909 1.73226 0
M  V30 40804 C 3865.52 -0.247856 3.39998 0
M  V30 40805 H 3866.71 1.39877 2.65282 0
M  V30 40806 H 3864.26 0.76197 1.36469 0
M  V30 40807 H 3865 -1.14476 3.03423 0
M  V30 40808 H 3864.78 0.404044 3.90013 0
M  V30 40809 H 3866.27 -0.556962 4.13869 0
M  V30 40810 N 3866.71 -1.38737 0.747659 0
M  V30 40811 C 3867.62 -2.34303 0.11792 0
M  V30 40812 C 3868.64 -1.58969 -0.70746 0
M  V30 40813 O 3869.81 -1.91194 -0.632991 0
M  V30 40814 C 3866.88 -3.3806 -0.769164 0
M  V30 40815 C 3865.94 -4.29243 0.0699113 0
M  V30 40816 C 3865.17 -5.28044 -0.774928 0
M  V30 40817 O 3865.39 -5.33692 -2.01319 0
M  V30 40818 O 3864.33 -6.01578 -0.196872 0
M  V30 40819 H 3868.15 -2.89839 0.907023 0
M  V30 40820 H 3865.74 -1.40481 0.508478 0
M  V30 40821 H 3867.62 -4.01606 -1.27634 0
M  V30 40822 H 3866.3 -2.8489 -1.53686 0
M  V30 40823 H 3865.2 -3.68878 0.622901 0
M  V30 40824 H 3866.54 -4.85653 0.800125 0
M  V30 40825 N 3868.19 -0.496268 -1.49583 0
M  V30 40826 C 3869.15 0.273602 -2.27561 0
M  V30 40827 C 3870.15 0.898177 -1.33377 0
M  V30 40828 O 3871.34 0.763443 -1.5658 0
M  V30 40829 C 3868.47 1.3921 -3.1118 0
M  V30 40830 H 3869.67 -0.410595 -2.97076 0
M  V30 40831 H 3867.22 -0.251085 -1.5427 0
M  V30 40832 H 3867.95 2.11059 -2.4622 0
M  V30 40833 H 3867.74 0.949762 -3.80423 0
M  V30 40834 H 3869.23 1.93453 -3.70089 0
M  V30 40835 N 3869.67 1.55914 -0.2299 0
M  V30 40836 C 3870.58 2.24288 0.687913 0
M  V30 40837 C 3871.59 1.25327 1.20702 0
M  V30 40838 O 3872.77 1.58161 1.24688 0
M  V30 40839 C 3869.83 2.91587 1.87558 0
M  V30 40840 C 3868.89 4.05913 1.39762 0
M  V30 40841 C 3868.13 4.69993 2.52867 0
M  V30 40842 O 3868.35 4.33089 3.71201 0
M  V30 40843 O 3867.28 5.58829 2.23593 0
M  V30 40844 H 3871.11 3.03398 0.13541 0
M  V30 40845 H 3868.69 1.494 0.000898911 0
M  V30 40846 H 3870.58 3.34036 2.56901 0
M  V30 40847 H 3869.25 2.1543 2.41602 0
M  V30 40848 H 3868.16 3.68016 0.671964 0
M  V30 40849 H 3869.49 4.83837 0.903458 0
M  V30 40850 N 3871.14 -0.043406 1.5754 0
M  V30 40851 C 3872.07 -1.04821 2.0865 0
M  V30 40852 C 3873.05 -1.38613 0.985918 0
M  V30 40853 O 3874.24 -1.47747 1.26033 0
M  V30 40854 C 3871.37 -2.35344 2.55403 0
M  V30 40855 C 3870.32 -2.15831 3.69596 0
M  V30 40856 C 3869.65 -3.51988 4.02503 0
M  V30 40857 C 3870.95 -1.5562 4.98578 0
M  V30 40858 H 3872.64 -0.622798 2.92851 0
M  V30 40859 H 3870.19 -0.298133 1.4088 0
M  V30 40860 H 3872.14 -3.05953 2.89777 0
M  V30 40861 H 3870.87 -2.79917 1.68267 0
M  V30 40862 H 3869.53 -1.47657 3.35549 0
M  V30 40863 H 3869.17 -3.94184 3.12455 0
M  V30 40864 H 3868.87 -3.39762 4.79412 0
M  V30 40865 H 3870.4 -4.23983 4.39398 0
M  V30 40866 H 3871.81 -2.16129 5.31 0
M  V30 40867 H 3870.21 -1.5401 5.80001 0
M  V30 40868 H 3871.28 -0.520483 4.82099 0
M  V30 40869 N 3872.62 -1.54412 -0.315402 0
M  V30 40870 C 3873.58 -1.83636 -1.37151 0
M  V30 40871 C 3874.58 -0.708543 -1.44348 0
M  V30 40872 O 3875.77 -0.97685 -1.44233 0
M  V30 40873 C 3872.91 -2.00373 -2.75796 0
M  V30 40874 H 3874.1 -2.78004 -1.12488 0
M  V30 40875 H 3871.65 -1.46254 -0.55132 0
M  V30 40876 H 3872.39 -1.08244 -3.05702 0
M  V30 40877 H 3872.17 -2.82449 -2.71965 0
M  V30 40878 H 3873.66 -2.24403 -3.52183 0
M  V30 40879 N 3874.1 0.57788 -1.46623 0
M  V30 40880 C 3875.05 1.68659 -1.57552 0
M  V30 40881 C 3876.02 1.60714 -0.419564 0
M  V30 40882 O 3877.2 1.79854 -0.636947 0
M  V30 40883 C 3874.34 3.06995 -1.57632 0
M  V30 40884 C 3873.46 3.2553 -2.83997 0
M  V30 40885 C 3872.59 4.54143 -2.75549 0
M  V30 40886 C 3871.63 4.66038 -3.96831 0
M  V30 40887 N 3870.77 5.85983 -3.86741 0
M  V30 40888 H 3875.61 1.58655 -2.52255 0
M  V30 40889 H 3873.14 0.773173 -1.25142 0
M  V30 40890 H 3875.1 3.87072 -1.55663 0
M  V30 40891 H 3873.73 3.15885 -0.664583 0
M  V30 40892 H 3872.78 2.39025 -2.95924 0
M  V30 40893 H 3874.1 3.30186 -3.73869 0
M  V30 40894 H 3873.25 5.42455 -2.71713 0
M  V30 40895 H 3871.99 4.51933 -1.83325 0
M  V30 40896 H 3870.99 3.76144 -4.00994 0
M  V30 40897 H 3872.22 4.70024 -4.90157 0
M  V30 40898 H 3870.16 5.84761 -2.97306 0
M  V30 40899 H 3870.08 5.91928 -4.70273 0
M  V30 40900 H 3871.35 6.76711 -3.86888 0
M  V30 40901 N 3875.58 1.34409 0.822917 0
M  V30 40902 C 3876.53 1.25992 1.95522 0
M  V30 40903 C 3877.52 0.158023 1.68661 0
M  V30 40904 O 3878.73 0.322997 1.77078 0
M  V30 40905 H 3875.1 0.391405 0.64211 0
M  V30 40906 H 3877.07 2.21687 1.99744 0
M  V30 40907 C 3875.82 1.03224 3.32024 0
M  V30 40908 H 3875.14 1.87245 3.53241 0
M  V30 40909 H 3876.58 1.01371 4.11704 0
M  V30 40910 C 3875.04 -0.264464 3.3586 0
M  V30 40911 O 3875.57 -1.26583 3.81235 0
M  V30 40912 N 3873.78 -0.297575 2.89072 0
M  V30 40913 H 3873.33 0.51788 2.52341 0
M  V30 40914 H 3873.28 -1.16495 2.92021 0
M  V30 40915 N 3877.06 -1.04312 1.18139 0
M  V30 40916 C 3878.3 -1.77732 0.976679 0
M  V30 40917 C 3878.64 -1.87845 -0.492723 0
M  V30 40918 O 3877.91 -1.38474 -1.36584 0
M  V30 40919 C 3878.19 -3.21139 1.62916 0
M  V30 40920 C 3878.05 -3.18985 3.17126 0
M  V30 40921 C 3879.37 -4.19192 1.34037 0
M  V30 40922 H 3876.48 -0.64519 0.356228 0
M  V30 40923 H 3879.13 -1.21866 1.45769 0
M  V30 40924 H 3877.28 -3.68842 1.22016 0
M  V30 40925 H 3878.95 -2.7929 3.67144 0
M  V30 40926 H 3877.19 -2.57083 3.49415 0
M  V30 40927 H 3877.86 -4.20239 3.57915 0
M  V30 40928 H 3880.34 -3.80025 1.6947 0
M  V30 40929 H 3879.21 -5.17756 1.82262 0
M  V30 40930 H 3879.48 -4.41318 0.26279 0
M  V30 40931 N 3878.53 -0.983032 -1.23184 0
M  V30 40932 C 3879.76 -0.671148 -1.96241 0
M  V30 40933 C 3880.18 0.755761 -1.72249 0
M  V30 40934 O 3879.54 1.51519 -0.995582 0
M  V30 40935 C 3879.59 -0.970632 -3.47291 0
M  V30 40936 O 3878.69 -0.0640539 -4.1235 0
M  V30 40937 H 3878.04 -0.252158 -0.614258 0
M  V30 40938 H 3880.57 -1.31734 -1.56548 0
M  V30 40939 H 3880.58 -0.908415 -3.97758 0
M  V30 40940 H 3879.25 -2.01045 -3.64079 0
M  V30 40941 H 3877.83 -0.180907 -3.72461 0
M  V30 40942 N 3880.01 1.38338 -0.755006 0
M  V30 40943 C 3880.94 2.33057 -0.143719 0
M  V30 40944 C 3881.92 1.54939 0.701995 0
M  V30 40945 O 3883.11 1.8325 0.64289 0
M  V30 40946 C 3880.24 3.39124 0.749134 0
M  V30 40947 C 3879.19 4.28 0.00603936 0
M  V30 40948 C 3878.52 5.24935 1.01724 0
M  V30 40949 C 3879.82 5.09183 -1.16319 0
M  V30 40950 H 3881.51 2.84427 -0.934957 0
M  V30 40951 H 3879.06 1.36754 -0.451047 0
M  V30 40952 H 3881.01 4.04353 1.18646 0
M  V30 40953 H 3879.74 2.8624 1.57271 0
M  V30 40954 H 3878.39 3.64279 -0.41188 0
M  V30 40955 H 3878.04 4.68337 1.83491 0
M  V30 40956 H 3877.74 5.85253 0.52468 0
M  V30 40957 H 3879.27 5.93039 1.45385 0
M  V30 40958 H 3880.68 5.67644 -0.803344 0
M  V30 40959 H 3879.08 5.78743 -1.58671 0
M  V30 40960 H 3880.15 4.42838 -1.97541 0
M  V30 40961 N 3881.49 0.504194 1.49317 0
M  V30 40962 C 3882.77 -0.102359 1.95332 0
M  V30 40963 C 3883.15 -1.53819 1.44579 0
M  V30 40964 O 3882.5 -2.18733 0.660933 0
M  V30 40965 C 3882.71 -0.011708 3.48998 0
M  V30 40966 C 3884.05 -0.184027 4.24201 0
M  V30 40967 O 3885.08 -0.086743 3.56094 0
M  V30 40968 O 3883.94 -0.384172 5.45148 0
M  V30 40969 H 3881.03 -0.0935437 0.821693 0
M  V30 40970 H 3883.58 0.56696 1.59949 0
M  V30 40971 H 3882.35 0.989479 3.78583 0
M  V30 40972 H 3881.97 -0.721031 3.91008 0
M  V30 40973 N 3882.97 -1.5579 0.238166 0
M  V30 40974 C 3883.92 -2.22396 -0.681374 0
M  V30 40975 C 3884.91 -1.20869 -1.18689 0
M  V30 40976 O 3886.12 -1.38905 -1.14479 0
M  V30 40977 H 3882.49 -0.713279 -0.238194 0
M  V30 40978 H 3884.46 -2.98244 -0.0963617 0
M  V30 40979 C 3883.21 -2.93048 -1.87132 0
M  V30 40980 H 3882.53 -3.70938 -1.49147 0
M  V30 40981 H 3883.97 -3.43028 -2.49214 0
M  V30 40982 C 3882.43 -1.96435 -2.73706 0
M  V30 40983 O 3882.96 -1.49184 -3.7297 0
M  V30 40984 N 3881.17 -1.63725 -2.40089 0
M  V30 40985 H 3880.72 -2.02344 -1.5942 0
M  V30 40986 H 3880.67 -0.993467 -2.98291 0
M  V30 40987 N 3884.45 0.0350506 -1.57561 0
M  V30 40988 C 3885.69 0.728139 -1.89278 0
M  V30 40989 C 3886.03 1.75324 -0.835168 0
M  V30 40990 O 3885.3 1.93917 0.150481 0
M  V30 40991 C 3885.58 1.4031 -3.3164 0
M  V30 40992 C 3885.44 0.391917 -4.48089 0
M  V30 40993 C 3886.76 2.33865 -3.7282 0
M  V30 40994 H 3883.87 0.263238 -0.688386 0
M  V30 40995 H 3886.52 -0.00904 -1.89998 0
M  V30 40996 H 3884.67 2.03144 -3.31157 0
M  V30 40997 H 3886.34 -0.234046 -4.60706 0
M  V30 40998 H 3884.58 -0.289381 -4.32834 0
M  V30 40999 H 3885.25 0.902546 -5.44571 0
M  V30 41000 H 3887.73 1.8108 -3.74632 0
M  V30 41001 H 3886.6 2.78075 -4.7325 0
M  V30 41002 H 3886.87 3.20281 -3.0475 0
M  V30 41003 N 3885.92 1.54577 0.307209 0
M  V30 41004 C 3886.85 1.88097 1.38354 0
M  V30 41005 C 3887.84 0.73928 1.53195 0
M  V30 41006 O 3889.02 0.994469 1.66805 0
M  V30 41007 C 3886.15 2.12279 2.74872 0
M  V30 41008 C 3885.1 3.28127 2.74803 0
M  V30 41009 C 3884.43 3.37715 4.14551 0
M  V30 41010 C 3885.73 4.65385 2.37095 0
M  V30 41011 H 3887.42 2.78243 1.10549 0
M  V30 41012 H 3884.97 1.33877 0.53036 0
M  V30 41013 H 3886.92 2.34314 3.5025 0
M  V30 41014 H 3885.65 1.18898 3.04189 0
M  V30 41015 H 3884.31 3.06006 2.01881 0
M  V30 41016 H 3883.95 2.41862 4.41035 0
M  V30 41017 H 3883.65 4.15584 4.15408 0
M  V30 41018 H 3885.18 3.62003 4.91718 0
M  V30 41019 H 3886.59 4.87192 3.02187 0
M  V30 41020 H 3884.99 5.45923 2.49174 0
M  V30 41021 H 3886.06 4.66524 1.32226 0
M  V30 41022 N 3887.4 -0.570096 1.46927 0
M  V30 41023 C 3888.63 -1.35839 1.56725 0
M  V30 41024 C 3889.05 -1.86886 0.213347 0
M  V30 41025 O 3888.41 -1.62266 -0.808666 0
M  V30 41026 C 3888.46 -2.51319 2.58595 0
M  V30 41027 O 3887.56 -3.53152 2.12972 0
M  V30 41028 H 3886.9 -0.404023 0.526936 0
M  V30 41029 H 3889.43 -0.690274 1.92604 0
M  V30 41030 H 3889.44 -2.98065 2.78606 0
M  V30 41031 H 3888.12 -2.13519 3.56907 0
M  V30 41032 H 3886.7 -3.12799 2.03005 0
M  V30 41033 N 3888.88 -1.34844 -0.815777 0
M  V30 41034 C 3890.11 -1.30695 -1.60394 0
M  V30 41035 C 3890.52 0.117503 -1.88434 0
M  V30 41036 O 3889.88 1.06673 -1.48078 0
M  V30 41037 C 3889.93 -2.10257 -2.94065 0
M  V30 41038 O 3889.65 -3.47148 -2.67245 0
M  V30 41039 C 3891.15 -2.13588 -3.88452 0
M  V30 41040 H 3888.37 -0.449328 -0.498343 0
M  V30 41041 H 3890.92 -1.77563 -1.01447 0
M  V30 41042 H 3889.07 -1.67012 -3.49551 0
M  V30 41043 H 3889.49 -3.8836 -3.52529 0
M  V30 41044 H 3890.96 -2.73666 -4.79386 0
M  V30 41045 H 3891.44 -1.13217 -4.24357 0
M  V30 41046 H 3892.04 -2.56953 -3.38903 0
M  V30 41047 N 3890.36 1.03684 -1.1869 0
M  V30 41048 C 3891.61 1.7695 -0.984632 0
M  V30 41049 C 3891.93 1.88346 0.485384 0
M  V30 41050 O 3891.19 1.39095 1.37662 0
M  V30 41051 C 3891.49 3.20125 -1.58917 0
M  V30 41052 C 3891.15 3.28755 -3.08596 0
M  V30 41053 C 3889.82 3.30817 -3.49448 0
M  V30 41054 C 3892.17 3.28544 -4.04609 0
M  V30 41055 C 3889.5 3.30315 -4.8488 0
M  V30 41056 C 3891.85 3.29582 -5.39962 0
M  V30 41057 C 3890.51 3.29938 -5.80256 0
M  V30 41058 H 3889.78 0.647505 -0.360302 0
M  V30 41059 H 3892.43 1.21752 -1.47813 0
M  V30 41060 H 3890.73 3.7835 -1.01776 0
M  V30 41061 H 3892.43 3.75467 -1.40804 0
M  V30 41062 H 3889.02 3.27872 -2.76039 0
M  V30 41063 H 3893.21 3.26138 -3.74096 0
M  V30 41064 H 3888.46 3.2891 -5.15392 0
M  V30 41065 H 3892.64 3.28368 -6.14123 0
M  V30 41066 H 3890.26 3.29303 -6.85174 0
M  V30 41067 N 3891.84 0.989551 1.22661 0
M  V30 41068 C 3893.09 0.659003 1.90631 0
M  V30 41069 C 3893.4 -0.812134 1.77943 0
M  V30 41070 O 3894.61 -1.25413 2.40799 0
M  V30 41071 C 3893.06 1.12815 3.41761 0
M  V30 41072 C 3892.67 2.62427 3.63092 0
M  V30 41073 C 3894.41 0.871771 4.15452 0
M  V30 41074 C 3892.32 3.02962 5.07906 0
M  V30 41075 H 3891.25 0.242784 0.713843 0
M  V30 41076 H 3893.9 1.19867 1.3894 0
M  V30 41077 H 3892.28 0.516633 3.92615 0
M  V30 41078 H 3893.46 3.28895 3.22745 0
M  V30 41079 H 3891.77 2.8591 3.02728 0
M  V30 41080 H 3894.37 1.15036 5.22179 0
M  V30 41081 H 3894.71 -0.192113 4.15856 0
M  V30 41082 H 3895.25 1.44531 3.70615 0
M  V30 41083 H 3891.98 4.08512 5.12639 0
M  V30 41084 H 3891.5 2.41194 5.49168 0
M  V30 41085 H 3893.18 2.94076 5.76306 0
M  V30 41086 N 3893.32 -1.37936 0.762332 0
M  V30 41087 C 3894.54 -2.04721 0.332253 0
M  V30 41088 C 3894.97 -1.57121 -1.03415 0
M  V30 41089 O 3894.32 -0.727146 -1.66079 0
M  V30 41090 C 3894.37 -3.58656 0.373962 0
M  V30 41091 O 3893.48 -4.07576 -0.628953 0
M  V30 41092 H 3892.82 -0.647866 0.145483 0
M  V30 41093 H 3895.35 -1.76438 1.0359 0
M  V30 41094 H 3895.36 -4.07363 0.227921 0
M  V30 41095 H 3894.03 -3.92658 1.37085 0
M  V30 41096 H 3892.61 -3.70214 -0.446806 0
M  V30 41097 N 3894.79 -0.512106 -1.49048 0
M  V30 41098 C 3895.76 0.249451 -2.27839 0
M  V30 41099 C 3896.76 0.88398 -1.34322 0
M  V30 41100 O 3897.95 0.746792 -1.57381 0
M  V30 41101 C 3895.08 1.35902 -3.12639 0
M  V30 41102 H 3896.27 -0.442081 -2.96624 0
M  V30 41103 H 3893.82 -0.267433 -1.53995 0
M  V30 41104 H 3894.56 2.08436 -2.48445 0
M  V30 41105 H 3894.34 0.90936 -3.81409 0
M  V30 41106 H 3895.83 1.89517 -3.7212 0
M  V30 41107 N 3896.27 1.55662 -0.246424 0
M  V30 41108 C 3897.23 2.20083 0.640002 0
M  V30 41109 C 3898.23 1.16996 1.10311 0
M  V30 41110 O 3899.42 1.42081 1.0079 0
M  V30 41111 C 3896.56 2.84401 1.87959 0
M  V30 41112 H 3897.75 2.99799 0.0779507 0
M  V30 41113 H 3895.3 1.563 0.00311841 0
M  V30 41114 H 3896.04 2.08622 2.48289 0
M  V30 41115 H 3895.82 3.59916 1.55573 0
M  V30 41116 H 3897.31 3.33705 2.51059 0
M  V30 41117 N 3897.75 -0.0266943 1.57577 0
M  V30 41118 C 3899.17 -0.382378 1.54952 0
M  V30 41119 C 3899.37 -1.76459 0.972857 0
M  V30 41120 O 3898.42 -2.45391 0.594943 0
M  V30 41121 C 3899.73 -0.282059 2.99374 0
M  V30 41122 C 3901.28 -0.358967 3.10935 0
M  V30 41123 C 3901.76 -0.28807 4.57093 0
M  V30 41124 N 3903.25 -0.346792 4.619 0
M  V30 41125 C 3903.98 -0.314861 5.72535 0
M  V30 41126 N 3903.48 -0.235083 6.92401 0
M  V30 41127 N 3905.27 -0.364765 5.60915 0
M  V30 41128 H 3897.42 0.877822 1.93412 0
M  V30 41129 H 3899.69 0.33401 0.88721 0
M  V30 41130 H 3899.39 0.667881 3.453 0
M  V30 41131 H 3899.27 -1.07478 3.61564 0
M  V30 41132 H 3901.65 -1.29934 2.64955 0
M  V30 41133 H 3901.73 0.463144 2.51572 0
M  V30 41134 H 3901.38 0.648646 5.03741 0
M  V30 41135 H 3901.31 -1.12832 5.1437 0
M  V30 41136 H 3903.8 -0.410866 3.7566 0
M  V30 41137 H 3904.11 -0.215883 7.72498 0
M  V30 41138 H 3902.46 -0.201097 6.94709 0
M  V30 41139 H 3905.65 -0.425098 4.66166 0
M  V30 41140 H 3905.82 -0.336412 6.47126 0
M  V30 41141 N 3899.23 -1.54738 -0.299007 0
M  V30 41142 C 3900.16 -1.82201 -1.39052 0
M  V30 41143 C 3901.17 -0.705064 -1.4674 0
M  V30 41144 O 3902.36 -0.982569 -1.49023 0
M  V30 41145 C 3899.46 -1.94676 -2.77407 0
M  V30 41146 C 3898.63 -3.25097 -2.92627 0
M  V30 41147 C 3897.69 -3.27963 -4.11493 0
M  V30 41148 O 3896.72 -4.01484 -4.03484 0
M  V30 41149 N 3897.92 -2.53497 -5.22225 0
M  V30 41150 H 3900.69 -2.76404 -1.15848 0
M  V30 41151 H 3898.25 -1.54336 -0.489081 0
M  V30 41152 H 3900.24 -1.93993 -3.55174 0
M  V30 41153 H 3898.81 -1.07458 -2.9355 0
M  V30 41154 H 3898.03 -3.38537 -2.01956 0
M  V30 41155 H 3899.32 -4.1116 -2.99709 0
M  V30 41156 H 3898.72 -1.934 -5.31614 0
M  V30 41157 H 3897.27 -2.58566 -5.9832 0
M  V30 41158 N 3900.71 0.562296 -1.47228 0
M  V30 41159 C 3901.95 1.31709 -1.53288 0
M  V30 41160 C 3902.27 1.94026 -0.194617 0
M  V30 41161 O 3901.54 1.79662 0.780929 0
M  V30 41162 H 3900.12 0.489084 -0.564629 0
M  V30 41163 H 3902.79 0.656992 -1.83493 0
M  V30 41164 H 3901.88 2.11326 -2.29669 0
M  V30 41165 N 3902.18 1.35274 0.808615 0
M  V30 41166 C 3903.43 1.28434 1.5656 0
M  V30 41167 C 3903.76 -0.141808 1.93982 0
M  V30 41168 O 3903.01 -1.10658 1.61411 0
M  V30 41169 C 3903.31 2.13445 2.86663 0
M  V30 41170 C 3902.98 3.62265 2.68468 0
M  V30 41171 C 3901.64 4.0283 2.63214 0
M  V30 41172 C 3903.99 4.56702 2.51143 0
M  V30 41173 C 3901.32 5.36003 2.38574 0
M  V30 41174 C 3903.67 5.90071 2.28032 0
M  V30 41175 C 3902.34 6.29784 2.21199 0
M  V30 41176 H 3901.61 0.469973 0.572893 0
M  V30 41177 H 3904.25 1.67152 0.934475 0
M  V30 41178 H 3902.56 1.67601 3.54143 0
M  V30 41179 H 3904.26 2.05489 3.44347 0
M  V30 41180 H 3900.85 3.30073 2.73404 0
M  V30 41181 H 3905.03 4.26249 2.54216 0
M  V30 41182 H 3900.29 5.65775 2.31751 0
M  V30 41183 H 3904.46 6.62828 2.13616 0
M  V30 41184 H 3902.09 7.32908 2.01868 0
M  V30 41185 N 3903.66 -1.03053 1.19239 0
M  V30 41186 C 3904.91 -1.76687 0.995475 0
M  V30 41187 C 3905.24 -1.88357 -0.472772 0
M  V30 41188 O 3904.52 -1.39915 -1.35107 0
M  V30 41189 C 3904.8 -3.19393 1.66313 0
M  V30 41190 C 3904.65 -3.15603 3.20491 0
M  V30 41191 C 3905.97 -4.17747 1.38475 0
M  V30 41192 H 3903.09 -0.641376 0.363051 0
M  V30 41193 H 3905.73 -1.20313 1.47054 0
M  V30 41194 H 3903.88 -3.67527 1.25921 0
M  V30 41195 H 3905.55 -2.7538 3.70086 0
M  V30 41196 H 3903.8 -2.53362 3.52122 0
M  V30 41197 H 3904.47 -4.16419 3.62352 0
M  V30 41198 H 3906.94 -3.78206 1.73491 0
M  V30 41199 H 3905.82 -5.15794 1.87744 0
M  V30 41200 H 3906.08 -4.41015 0.309583 0
M  V30 41201 N 3905.14 -0.996042 -1.22134 0
M  V30 41202 C 3906.42 -0.589498 -1.86505 0
M  V30 41203 C 3906.8 0.933126 -1.89357 0
M  V30 41204 O 3906.15 1.81637 -1.38637 0
M  V30 41205 C 3906.36 -1.21355 -3.27222 0
M  V30 41206 C 3907.7 -1.31604 -4.0369 0
M  V30 41207 O 3908.73 -1.16818 -3.365 0
M  V30 41208 O 3907.59 -1.55298 -5.2397 0
M  V30 41209 H 3904.68 -0.200706 -0.802276 0
M  V30 41210 H 3907.23 -1.09212 -1.29888 0
M  V30 41211 H 3906 -2.25489 -3.19798 0
M  V30 41212 H 3905.62 -0.696714 -3.91448 0
M  V30 41213 N 3906.62 1.37529 -0.769636 0
M  V30 41214 C 3907.84 2.04542 -0.343105 0
M  V30 41215 C 3908.27 1.57667 1.0258 0
M  V30 41216 O 3907.63 0.735944 1.65691 0
M  V30 41217 C 3907.67 3.58452 -0.392977 0
M  V30 41218 O 3906.78 4.07904 0.607329 0
M  V30 41219 H 3906.12 0.647086 -0.148916 0
M  V30 41220 H 3908.65 1.75886 -1.04524 0
M  V30 41221 H 3908.66 4.07236 -0.249522 0
M  V30 41222 H 3907.33 3.91926 -1.39166 0
M  V30 41223 H 3905.91 3.70445 0.427166 0
M  V30 41224 N 3908.1 0.520003 1.48774 0
M  V30 41225 C 3909.37 -0.0816358 1.9543 0
M  V30 41226 C 3909.75 -1.52277 1.46202 0
M  V30 41227 O 3909.1 -2.18019 0.684095 0
M  V30 41228 C 3909.31 0.0253085 3.48991 0
M  V30 41229 C 3910.66 -0.139024 4.24372 0
M  V30 41230 O 3911.68 -0.0489696 3.56166 0
M  V30 41231 O 3910.54 -0.32633 5.45525 0
M  V30 41232 H 3907.64 -0.0848233 0.822638 0
M  V30 41233 H 3910.18 0.583893 1.59339 0
M  V30 41234 H 3908.95 1.02958 3.77512 0
M  V30 41235 H 3908.58 -0.679519 3.9175 0
M  V30 41236 N 3909.57 -1.55529 0.254676 0
M  V30 41237 C 3910.82 -1.99425 -0.368442 0
M  V30 41238 C 3911.15 -1.14271 -1.57021 0
M  V30 41239 O 3910.43 -0.20792 -1.93385 0
M  V30 41240 C 3910.71 -3.51756 -0.770698 0
M  V30 41241 C 3910.56 -4.47672 0.437002 0
M  V30 41242 C 3911.88 -4.09405 -1.6148 0
M  V30 41243 H 3909 -0.725001 -0.132446 0
M  V30 41244 H 3911.64 -1.86606 0.357541 0
M  V30 41245 H 3909.79 -3.62811 -1.38926 0
M  V30 41246 H 3911.47 -4.48588 1.07549 0
M  V30 41247 H 3909.71 -4.20173 1.07874 0
M  V30 41248 H 3910.38 -5.51886 0.112093 0
M  V30 41249 H 3912.86 -4.01499 -1.09258 0
M  V30 41250 H 3911.73 -5.16242 -1.8651 0
M  V30 41251 H 3911.99 -3.58348 -2.58919 0
M  V30 41252 N 3911.05 0.0183372 -1.57589 0
M  V30 41253 C 3911.96 1.03232 -2.10666 0
M  V30 41254 C 3912.98 1.38922 -1.0477 0
M  V30 41255 O 3914.15 1.48025 -1.36567 0
M  V30 41256 C 3911.22 2.3111 -2.58436 0
M  V30 41257 C 3910.28 2.01902 -3.78859 0
M  V30 41258 C 3909.51 3.23682 -4.24341 0
M  V30 41259 O 3909.74 4.34733 -3.69274 0
M  V30 41260 O 3908.67 3.08754 -5.16677 0
M  V30 41261 H 3912.5 0.611201 -2.97486 0
M  V30 41262 H 3910.08 0.236009 -1.47524 0
M  V30 41263 H 3911.96 3.06269 -2.89443 0
M  V30 41264 H 3910.64 2.72495 -1.74723 0
M  V30 41265 H 3909.55 1.24276 -3.52854 0
M  V30 41266 H 3910.88 1.65365 -4.6359 0
M  V30 41267 N 3912.53 1.54894 0.290797 0
M  V30 41268 C 3913.76 1.78663 1.04341 0
M  V30 41269 C 3914.17 0.551115 1.80577 0
M  V30 41270 O 3913.53 -0.479363 1.76092 0
M  V30 41271 C 3913.58 3.00067 2.01599 0
M  V30 41272 O 3913.3 4.18845 1.28454 0
M  V30 41273 C 3914.8 3.36303 2.88816 0
M  V30 41274 H 3912.02 0.595613 0.309008 0
M  V30 41275 H 3914.57 2.01869 0.326975 0
M  V30 41276 H 3912.72 2.79039 2.6873 0
M  V30 41277 H 3913.14 4.87361 1.93856 0
M  V30 41278 H 3914.61 4.24467 3.5289 0
M  V30 41279 H 3915.09 2.54911 3.57655 0
M  V30 41280 H 3915.69 3.59527 2.27202 0
M  V30 41281 N 3914.01 -0.55448 1.47524 0
M  V30 41282 C 3914.96 -1.66131 1.60216 0
M  V30 41283 C 3915.93 -1.60026 0.445079 0
M  V30 41284 O 3917.11 -1.78818 0.66548 0
M  V30 41285 C 3914.25 -3.04449 1.62496 0
M  V30 41286 C 3913.36 -3.20971 2.8914 0
M  V30 41287 C 3912.5 -4.49702 2.82739 0
M  V30 41288 C 3911.54 -4.59666 4.04195 0
M  V30 41289 N 3910.67 -5.79756 3.96014 0
M  V30 41290 H 3915.51 -1.54622 2.54747 0
M  V30 41291 H 3913.05 -0.753166 1.26356 0
M  V30 41292 H 3915.01 -3.84547 1.61802 0
M  V30 41293 H 3913.64 -3.14787 0.714753 0
M  V30 41294 H 3912.69 -2.34287 2.9969 0
M  V30 41295 H 3914 -3.24197 3.79075 0
M  V30 41296 H 3913.16 -5.38063 2.80309 0
M  V30 41297 H 3911.9 -4.48959 1.90491 0
M  V30 41298 H 3910.9 -3.69717 4.06927 0
M  V30 41299 H 3912.13 -4.62166 4.97573 0
M  V30 41300 H 3910.07 -5.79957 3.06571 0
M  V30 41301 H 3909.99 -5.84372 4.79631 0
M  V30 41302 H 3911.26 -6.70471 3.97604 0
M  V30 41303 N 3915.49 -1.35701 -0.80143 0
M  V30 41304 C 3916.76 -1.19822 -1.54603 0
M  V30 41305 C 3917.14 0.220556 -2.09945 0
M  V30 41306 O 3916.49 1.22472 -1.92906 0
M  V30 41307 C 3916.7 -2.27048 -2.65048 0
M  V30 41308 C 3918.05 -2.63114 -3.33251 0
M  V30 41309 O 3919.07 -2.26 -2.75322 0
M  V30 41310 O 3917.93 -3.2695 -4.37911 0
M  V30 41311 H 3915.03 -0.465819 -0.683332 0
M  V30 41312 H 3917.57 -1.47398 -0.840946 0
M  V30 41313 H 3916.34 -3.22186 -2.22063 0
M  V30 41314 H 3915.97 -2.0077 -3.43187 0
M  V30 41315 N 3916.96 1.02419 -1.19783 0
M  V30 41316 C 3918.21 1.76156 -1.00483 0
M  V30 41317 C 3918.54 1.88605 0.462776 0
M  V30 41318 O 3917.82 1.4063 1.34363 0
M  V30 41319 C 3918.1 3.18507 -1.68005 0
M  V30 41320 C 3917.95 3.13899 -3.22161 0
M  V30 41321 C 3919.27 4.17007 -1.40689 0
M  V30 41322 H 3916.39 0.639441 -0.366448 0
M  V30 41323 H 3919.03 1.19531 -1.4769 0
M  V30 41324 H 3917.18 3.66854 -1.27868 0
M  V30 41325 H 3918.86 2.73414 -3.71541 0
M  V30 41326 H 3917.1 2.51491 -3.53461 0
M  V30 41327 H 3917.77 4.14492 -3.64555 0
M  V30 41328 H 3920.25 3.77281 -1.75495 0
M  V30 41329 H 3919.12 5.14791 -1.90476 0
M  V30 41330 H 3919.38 4.40844 -0.332966 0
M  V30 41331 N 3918.44 1.0025 1.21604 0
M  V30 41332 C 3919.69 0.684799 1.90888 0
M  V30 41333 C 3920.02 -0.782209 1.7775 0
M  V30 41334 O 3919.3 -1.56674 1.15254 0
M  V30 41335 C 3919.58 1.10346 3.42777 0
M  V30 41336 C 3919.43 2.62973 3.64918 0
M  V30 41337 C 3920.75 0.663953 4.35063 0
M  V30 41338 H 3917.87 0.250251 0.693212 0
M  V30 41339 H 3920.51 1.24774 1.43288 0
M  V30 41340 H 3918.66 0.624483 3.83448 0
M  V30 41341 H 3920.34 3.18615 3.3359 0
M  V30 41342 H 3918.58 3.04602 3.08869 0
M  V30 41343 H 3919.25 2.87319 4.7133 0
M  V30 41344 H 3921.73 1.07551 4.0196 0
M  V30 41345 H 3920.6 0.985082 5.39988 0
M  V30 41346 H 3920.86 -0.435018 4.39955 0
M  V30 41347 N 3919.92 -1.37119 0.776919 0
M  V30 41348 C 3920.83 -2.34001 0.167593 0
M  V30 41349 C 3921.85 -1.60433 -0.673581 0
M  V30 41350 O 3923.02 -1.92494 -0.592293 0
M  V30 41351 C 3920.09 -3.39616 -0.697283 0
M  V30 41352 C 3919.15 -4.28998 0.160944 0
M  V30 41353 C 3918.38 -5.29569 -0.662748 0
M  V30 41354 O 3918.61 -5.37842 -1.89953 0
M  V30 41355 O 3917.54 -6.0186 -0.0692246 0
M  V30 41356 H 3921.37 -2.8785 0.968298 0
M  V30 41357 H 3918.95 -1.39371 0.538162 0
M  V30 41358 H 3920.83 -4.04223 -1.19087 0
M  V30 41359 H 3919.51 -2.88086 -1.47609 0
M  V30 41360 H 3918.41 -3.67473 0.701005 0
M  V30 41361 H 3919.75 -4.83847 0.90296 0
M  V30 41362 N 3921.4 -0.527886 -1.48496 0
M  V30 41363 C 3922.64 0.00499744 -2.04399 0
M  V30 41364 C 3923 1.31777 -1.39638 0
M  V30 41365 O 3924.2 1.93656 -1.86416 0
M  V30 41366 C 3922.48 0.126654 -3.57176 0
M  V30 41367 S 3924.03 0.609903 -4.34541 0
M  V30 41368 H 3920.85 -0.0110592 -0.710914 0
M  V30 41369 H 3923.45 -0.70797 -1.82231 0
M  V30 41370 H 3922.16 -0.833652 -4.01844 0
M  V30 41371 H 3921.69 0.864062 -3.83794 0
M  V30 41372 H 3923.7 1.87476 -4.5942 0
M  V30 41373 N 3922.88 1.55391 -0.26292 0
M  V30 41374 C 3923.81 2.25016 0.623692 0
M  V30 41375 C 3924.79 1.236 1.16863 0
M  V30 41376 O 3925.97 1.52292 1.20502 0
M  V30 41377 C 3923.1 2.96193 1.81348 0
M  V30 41378 C 3922.06 4.04434 1.40062 0
M  V30 41379 C 3921.38 4.6312 2.67253 0
M  V30 41380 C 3922.68 5.19291 0.559813 0
M  V30 41381 H 3924.38 2.99369 0.043078 0
M  V30 41382 H 3921.92 1.43987 0.019279 0
M  V30 41383 H 3923.88 3.43607 2.43952 0
M  V30 41384 H 3922.6 2.19355 2.41973 0
M  V30 41385 H 3921.26 3.57813 0.797842 0
M  V30 41386 H 3920.91 3.82964 3.2611 0
M  V30 41387 H 3920.61 5.36198 2.40345 0
M  V30 41388 H 3922.13 5.13276 3.30726 0
M  V30 41389 H 3923.55 5.62832 1.09054 0
M  V30 41390 H 3921.94 5.98856 0.386129 0
M  V30 41391 H 3923.01 4.8304 -0.424284 0
M  V30 41392 N 3924.36 -0.00997961 1.57597 0
M  V30 41393 C 3925.3 -1.00459 2.0779 0
M  V30 41394 C 3926.27 -1.34753 0.971124 0
M  V30 41395 O 3927.46 -1.44762 1.24292 0
M  V30 41396 C 3924.6 -2.2945 2.57773 0
M  V30 41397 C 3923.71 -2.01147 3.82314 0
M  V30 41398 C 3922.85 -3.24146 4.20836 0
M  V30 41399 C 3921.88 -2.91484 5.38241 0
M  V30 41400 N 3921.02 -4.06991 5.72104 0
M  V30 41401 H 3925.86 -0.569623 2.92505 0
M  V30 41402 H 3923.4 -0.26962 1.44608 0
M  V30 41403 H 3925.36 -3.04844 2.84826 0
M  V30 41404 H 3923.99 -2.70634 1.75946 0
M  V30 41405 H 3923.04 -1.16165 3.62229 0
M  V30 41406 H 3924.35 -1.73066 4.67814 0
M  V30 41407 H 3923.5 -4.07894 4.49119 0
M  V30 41408 H 3922.24 -3.55357 3.34025 0
M  V30 41409 H 3921.25 -2.06142 5.09692 0
M  V30 41410 H 3922.47 -2.61532 6.2672 0
M  V30 41411 H 3920.42 -4.38117 4.88251 0
M  V30 41412 H 3920.34 -3.824 6.52155 0
M  V30 41413 H 3921.6 -4.91556 6.04973 0
M  V30 41414 N 3925.83 -1.55046 -0.282578 0
M  V30 41415 C 3926.76 -1.90274 -1.35344 0
M  V30 41416 C 3927.74 -0.763558 -1.51999 0
M  V30 41417 O 3928.93 -1.02088 -1.65202 0
M  V30 41418 C 3926.06 -2.16625 -2.7146 0
M  V30 41419 C 3925.01 -3.32457 -2.69548 0
M  V30 41420 C 3924.34 -3.44267 -4.09126 0
M  V30 41421 C 3925.64 -4.69098 -2.29661 0
M  V30 41422 H 3927.33 -2.79967 -1.06108 0
M  V30 41423 H 3924.88 -1.34704 -0.508994 0
M  V30 41424 H 3926.83 -2.39857 -3.46478 0
M  V30 41425 H 3925.56 -1.23722 -3.02259 0
M  V30 41426 H 3924.22 -3.09179 -1.96988 0
M  V30 41427 H 3923.86 -2.48848 -4.37131 0
M  V30 41428 H 3923.56 -4.2214 -4.08744 0
M  V30 41429 H 3925.09 -3.6978 -4.85896 0
M  V30 41430 H 3926.5 -4.91938 -2.94398 0
M  V30 41431 H 3924.9 -5.49818 -2.40457 0
M  V30 41432 H 3925.97 -4.68568 -1.24788 0
M  V30 41433 N 3927.31 0.546649 -1.47816 0
M  V30 41434 C 3928.54 1.33328 -1.58866 0
M  V30 41435 C 3928.96 1.86523 -0.243052 0
M  V30 41436 O 3928.32 1.63532 0.782748 0
M  V30 41437 C 3928.37 2.47173 -2.6256 0
M  V30 41438 O 3927.47 3.49719 -2.18564 0
M  V30 41439 H 3926.81 0.395589 -0.533297 0
M  V30 41440 H 3929.34 0.659545 -1.93678 0
M  V30 41441 H 3929.35 2.93595 -2.83313 0
M  V30 41442 H 3928.03 2.07813 -3.60259 0
M  V30 41443 H 3926.6 3.0953 -2.07955 0
M  V30 41444 N 3928.79 1.36124 0.794222 0
M  V30 41445 C 3929.74 1.26591 1.89628 0
M  V30 41446 C 3930.72 0.158443 1.60118 0
M  V30 41447 O 3931.92 0.390813 1.72632 0
M  V30 41448 C 3929.04 1.0526 3.26765 0
M  V30 41449 C 3928.13 2.20453 3.623 0
M  V30 41450 N 3928.52 3.45746 3.69179 0
M  V30 41451 C 3926.82 2.12113 3.92332 0
M  V30 41452 C 3927.52 4.21572 4.00814 0
M  V30 41453 N 3926.5 3.5046 4.15546 0
M  V30 41454 H 3930.3 2.21505 1.93166 0
M  V30 41455 H 3927.81 1.28775 0.989485 0
M  V30 41456 H 3929.81 0.965179 4.05574 0
M  V30 41457 H 3928.47 0.112431 3.24505 0
M  V30 41458 H 3929.48 3.79942 3.51944 0
M  V30 41459 H 3926.16 1.26023 3.98026 0
M  V30 41460 H 3927.55 5.29903 4.13101 0
M  V30 41461 N 3930.27 -1.01782 1.20325 0
M  V30 41462 C 3931.2 -2.10415 0.908753 0
M  V30 41463 C 3932.21 -1.62474 -0.103001 0
M  V30 41464 O 3933.4 -1.78042 0.127856 0
M  V30 41465 C 3930.5 -3.37184 0.34066 0
M  V30 41466 C 3929.67 -4.14266 1.40366 0
M  V30 41467 C 3928.73 -5.19337 0.847107 0
M  V30 41468 O 3927.76 -5.48321 1.5275 0
M  V30 41469 N 3928.96 -5.79479 -0.344096 0
M  V30 41470 H 3931.73 -2.36266 1.84387 0
M  V30 41471 H 3929.29 -1.18163 1.10675 0
M  V30 41472 H 3931.28 -4.04674 -0.0457732 0
M  V30 41473 H 3929.85 -3.08592 -0.498987 0
M  V30 41474 H 3929.07 -3.41763 1.96448 0
M  V30 41475 H 3930.36 -4.62548 2.1196 0
M  V30 41476 H 3929.76 -5.58265 -0.914165 0
M  V30 41477 H 3928.31 -6.48325 -0.672182 0
M  V30 41478 N 3931.75 -1.00894 -1.21071 0
M  V30 41479 C 3932.97 -0.712623 -1.94773 0
M  V30 41480 C 3933.4 0.719055 -1.73814 0
M  V30 41481 O 3932.75 1.49373 -1.0275 0
M  V30 41482 C 3932.8 -1.04408 -3.45154 0
M  V30 41483 O 3931.91 -0.151505 -4.12122 0
M  V30 41484 H 3931.25 -0.265131 -0.608771 0
M  V30 41485 H 3933.78 -1.35025 -1.53719 0
M  V30 41486 H 3933.79 -0.992581 -3.95742 0
M  V30 41487 H 3932.46 -2.08723 -3.59733 0
M  V30 41488 H 3931.04 -0.259871 -3.71993 0
M  V30 41489 N 3933.22 1.36705 -0.78418 0
M  V30 41490 C 3934.5 1.93609 -0.278372 0
M  V30 41491 C 3934.88 1.71663 1.22862 0
M  V30 41492 O 3934.23 1.07255 2.01764 0
M  V30 41493 C 3934.44 3.426 -0.665292 0
M  V30 41494 C 3935.79 4.19717 -0.642079 0
M  V30 41495 O 3936.81 3.51017 -0.605443 0
M  V30 41496 O 3935.67 5.4225 -0.680274 0
M  V30 41497 H 3932.76 0.824235 -0.0675748 0
M  V30 41498 H 3935.31 1.45918 -0.866371 0
M  V30 41499 H 3934.08 3.52208 -1.70485 0
M  V30 41500 H 3933.71 3.97567 -0.0508994 0
M  V30 41501 N 3934.7 0.535753 1.48214 0
M  V30 41502 C 3935.95 0.00173126 2.017 0
M  V30 41503 C 3936.26 -1.34773 1.41759 0
M  V30 41504 O 3937.47 -1.97044 1.86777 0
M  V30 41505 C 3935.93 -0.0472955 3.59869 0
M  V30 41506 C 3935.53 1.29762 4.28796 0
M  V30 41507 C 3937.28 -0.529841 4.2118 0
M  V30 41508 C 3935.19 1.20887 5.78913 0
M  V30 41509 H 3934.12 -0.00312281 0.753994 0
M  V30 41510 H 3936.77 0.680398 1.7042 0
M  V30 41511 H 3935.15 -0.791161 3.88016 0
M  V30 41512 H 3936.32 2.05751 4.12315 0
M  V30 41513 H 3934.64 1.71637 3.79381 0
M  V30 41514 H 3937.23 -0.614303 5.31159 0
M  V30 41515 H 3937.58 -1.53695 3.86889 0
M  V30 41516 H 3938.11 0.158514 3.97484 0
M  V30 41517 H 3934.85 2.19131 6.17788 0
M  V30 41518 H 3934.37 0.490438 5.97792 0
M  V30 41519 H 3936.05 0.901936 6.40683 0
M  V30 41520 N 3936.18 -1.5525 0.271158 0
M  V30 41521 C 3937.09 -2.26033 -0.628206 0
M  V30 41522 C 3938.11 -1.28484 -1.17337 0
M  V30 41523 O 3939.28 -1.61411 -1.2045 0
M  V30 41524 C 3936.35 -2.96457 -1.79761 0
M  V30 41525 C 3935.41 -4.09475 -1.28951 0
M  V30 41526 C 3934.64 -4.76532 -2.40318 0
M  V30 41527 O 3934.86 -4.42779 -3.59588 0
M  V30 41528 O 3933.8 -5.64561 -2.08698 0
M  V30 41529 H 3937.62 -3.0365 -0.0549222 0
M  V30 41530 H 3935.21 -1.4935 0.0387122 0
M  V30 41531 H 3937.09 -3.4073 -2.47954 0
M  V30 41532 H 3935.77 -2.2176 -2.35806 0
M  V30 41533 H 3934.67 -3.69668 -0.574155 0
M  V30 41534 H 3936.01 -4.86063 -0.774859 0
M  V30 41535 N 3937.66 0.00162173 -1.576 0
M  V30 41536 C 3938.9 0.687826 -1.90779 0
M  V30 41537 C 3939.24 1.73513 -0.872169 0
M  V30 41538 O 3938.51 1.94193 0.109315 0
M  V30 41539 C 3938.8 1.33244 -3.34542 0
M  V30 41540 C 3938.65 0.296783 -4.4882 0
M  V30 41541 C 3939.97 2.25905 -3.77697 0
M  V30 41542 H 3937.09 0.248577 -0.693814 0
M  V30 41543 H 3939.73 -0.0493393 -1.89936 0
M  V30 41544 H 3937.88 1.96074 -3.35391 0
M  V30 41545 H 3939.55 -0.331716 -4.60106 0
M  V30 41546 H 3937.79 -0.381126 -4.32123 0
M  V30 41547 H 3938.46 0.786831 -5.46363 0
M  V30 41548 H 3940.94 1.73093 -3.78389 0
M  V30 41549 H 3939.82 2.67974 -4.79042 0
M  V30 41550 H 3940.08 3.13745 -3.11475 0
M  V30 41551 N 3939.14 1.55194 0.274352 0
M  V30 41552 C 3940.36 1.7976 1.0244 0
M  V30 41553 C 3940.78 0.570237 1.79983 0
M  V30 41554 O 3940.14 -0.460659 1.7659 0
M  V30 41555 C 3940.19 3.02188 1.98405 0
M  V30 41556 O 3939.91 4.20184 1.24004 0
M  V30 41557 C 3941.41 3.39348 2.85233 0
M  V30 41558 H 3938.63 0.598857 0.302673 0
M  V30 41559 H 3941.17 2.02205 0.305546 0
M  V30 41560 H 3939.33 2.81874 2.65755 0
M  V30 41561 H 3939.74 4.89389 1.88676 0
M  V30 41562 H 3941.22 4.28186 3.48368 0
M  V30 41563 H 3941.69 2.5869 3.54931 0
M  V30 41564 H 3942.3 3.61916 2.23376 0
M  V30 41565 N 3940.61 -0.538802 1.48104 0
M  V30 41566 C 3941.86 -1.29254 1.55364 0
M  V30 41567 C 3942.18 -1.93692 0.225461 0
M  V30 41568 O 3941.45 -1.80881 -0.752248 0
M  V30 41569 H 3940.03 -0.480039 0.572339 0
M  V30 41570 H 3942.7 -0.627717 1.84515 0
M  V30 41571 H 3941.79 -2.07645 2.33002 0
M  V30 41572 N 3942.09 -1.36544 -0.786992 0
M  V30 41573 C 3943.37 -1.21455 -1.53323 0
M  V30 41574 C 3943.75 0.198276 -2.10167 0
M  V30 41575 O 3943.1 1.20419 -1.94195 0
M  V30 41576 C 3943.31 -2.29846 -2.62625 0
M  V30 41577 C 3944.66 -2.66634 -3.30441 0
M  V30 41578 O 3945.68 -2.28908 -2.7291 0
M  V30 41579 O 3944.54 -3.31576 -4.34419 0
M  V30 41580 H 3941.63 -0.47304 -0.678352 0
M  V30 41581 H 3944.18 -1.48282 -0.825266 0
M  V30 41582 H 3942.95 -3.24523 -2.18633 0
M  V30 41583 H 3942.57 -2.04399 -3.41038 0
M  V30 41584 N 3943.57 1.01143 -1.20863 0
M  V30 41585 C 3944.8 1.78947 -1.04846 0
M  V30 41586 C 3945.22 1.83849 0.397644 0
M  V30 41587 O 3944.58 1.27735 1.2866 0
M  V30 41588 C 3944.63 3.21009 -1.64272 0
M  V30 41589 O 3943.73 4.02818 -0.883844 0
M  V30 41590 H 3943.07 0.551747 -0.36942 0
M  V30 41591 H 3945.6 1.27183 -1.60268 0
M  V30 41592 H 3945.61 3.71705 -1.68224 0
M  V30 41593 H 3944.29 3.16756 -2.69515 0
M  V30 41594 H 3942.86 3.614 -0.918929 0
M  V30 41595 N 3945.05 1.01535 1.20534 0
M  V30 41596 C 3946.29 0.712485 1.9158 0
M  V30 41597 C 3946.65 -0.744058 1.76997 0
M  V30 41598 O 3947.85 -1.15938 2.42512 0
M  V30 41599 C 3946.12 1.1346 3.38912 0
M  V30 41600 S 3947.68 0.953519 4.28315 0
M  V30 41601 H 3944.5 0.25979 0.661838 0
M  V30 41602 H 3947.1 1.30234 1.45806 0
M  V30 41603 H 3945.81 2.19058 3.47047 0
M  V30 41604 H 3945.34 0.537464 3.89711 0
M  V30 41605 H 3947.35 -0.143635 4.95992 0
M  V30 41606 N 3946.53 -1.36288 0.791419 0
M  V30 41607 C 3947.47 -2.31909 0.179169 0
M  V30 41608 C 3948.47 -1.55902 -0.66263 0
M  V30 41609 O 3949.67 -1.71149 -0.557489 0
M  V30 41610 H 3946.05 -0.750979 0.0391654 0
M  V30 41611 H 3948.02 -2.81108 1.00105 0
M  V30 41612 C 3946.77 -3.41185 -0.669956 0
M  V30 41613 H 3946.09 -3.99788 -0.0315628 0
M  V30 41614 H 3947.53 -4.10407 -1.06499 0
M  V30 41615 C 3945.99 -2.82926 -1.82905 0
M  V30 41616 O 3946.52 -2.75252 -2.92574 0
M  V30 41617 N 3944.73 -2.40187 -1.6358 0
M  V30 41618 H 3944.27 -2.46629 -0.743755 0
M  V30 41619 H 3944.23 -2.01555 -2.41294 0
M  V30 41620 N 3948.01 -0.543606 -1.47928 0
M  V30 41621 C 3948.95 0.224894 -2.3151 0
M  V30 41622 C 3949.95 0.922448 -1.42082 0
M  V30 41623 O 3951.15 0.845281 -1.58918 0
M  V30 41624 H 3947.53 0.091396 -0.746425 0
M  V30 41625 H 3949.5 -0.499433 -2.94191 0
M  V30 41626 C 3948.25 1.25033 -3.24441 0
M  V30 41627 H 3947.57 0.72299 -3.93208 0
M  V30 41628 H 3949.01 1.7592 -3.85783 0
M  V30 41629 C 3947.47 2.29111 -2.47002 0
M  V30 41630 O 3948 3.35796 -2.20463 0
M  V30 41631 N 3946.21 2.0268 -2.08253 0
M  V30 41632 H 3945.75 1.15937 -2.30036 0
M  V30 41633 H 3945.71 2.72536 -1.56753 0
M  V30 41634 N 3949.48 1.55104 -0.279387 0
M  V30 41635 C 3950.71 2.03801 0.338901 0
M  V30 41636 C 3951.12 1.15705 1.49697 0
M  V30 41637 O 3950.46 0.170621 1.82906 0
M  V30 41638 C 3950.53 3.48608 0.878204 0
M  V30 41639 C 3950.19 4.56748 -0.151778 0
M  V30 41640 C 3951.19 5.10718 -0.972778 0
M  V30 41641 C 3948.87 5.01478 -0.287249 0
M  V30 41642 C 3950.87 6.0794 -1.91539 0
M  V30 41643 C 3948.55 5.98525 -1.23333 0
M  V30 41644 C 3949.55 6.51638 -2.04591 0
M  V30 41645 O 3949.24 7.46786 -2.97599 0
M  V30 41646 H 3948.97 0.671156 0.0807792 0
M  V30 41647 H 3951.53 2.01256 -0.410518 0
M  V30 41648 H 3949.76 3.48407 1.67777 0
M  V30 41649 H 3951.44 3.80621 1.41004 0
M  V30 41650 H 3952.21 4.7697 -0.878874 0
M  V30 41651 H 3948.09 4.5978 0.335229 0
M  V30 41652 H 3951.63 6.49322 -2.55004 0
M  V30 41653 H 3947.53 6.31691 -1.32804 0
M  V30 41654 H 3948.3 7.64517 -2.9233 0
M  V30 41655 N 3950.96 0.0067362 1.57599 0
M  V30 41656 C 3951.89 -1.01662 2.04304 0
M  V30 41657 C 3952.87 -1.33082 0.93424 0
M  V30 41658 O 3954.06 -1.45131 1.20288 0
M  V30 41659 C 3951.18 -2.34251 2.44631 0
M  V30 41660 C 3950.23 -2.18446 3.66311 0
M  V30 41661 S 3951.06 -1.50419 5.1394 0
M  V30 41662 C 3952.22 -2.84424 5.57543 0
M  V30 41663 H 3952.45 -0.618954 2.90786 0
M  V30 41664 H 3949.98 -0.204327 1.53042 0
M  V30 41665 H 3951.94 -3.10484 2.68532 0
M  V30 41666 H 3950.6 -2.71155 1.58536 0
M  V30 41667 H 3949.8 -3.16412 3.923 0
M  V30 41668 H 3949.4 -1.50357 3.42445 0
M  V30 41669 H 3951.69 -3.80712 5.60414 0
M  V30 41670 H 3952.63 -2.63126 6.57397 0
M  V30 41671 H 3953.04 -2.88643 4.85124 0
M  V30 41672 N 3952.44 -1.55337 -0.266118 0
M  V30 41673 C 3953.37 -1.91699 -1.33318 0
M  V30 41674 C 3954.35 -0.779637 -1.51181 0
M  V30 41675 O 3955.54 -1.03835 -1.6411 0
M  V30 41676 C 3952.67 -2.19492 -2.69147 0
M  V30 41677 C 3951.62 -3.35298 -2.66007 0
M  V30 41678 C 3950.95 -3.48587 -4.05452 0
M  V30 41679 C 3952.25 -4.71508 -2.24672 0
M  V30 41680 H 3953.94 -2.81076 -1.03133 0
M  V30 41681 H 3951.49 -1.35237 -0.494678 0
M  V30 41682 H 3953.44 -2.43518 -3.43914 0
M  V30 41683 H 3952.16 -1.26921 -3.00929 0
M  V30 41684 H 3950.82 -3.11251 -1.93697 0
M  V30 41685 H 3950.47 -2.5347 -4.34467 0
M  V30 41686 H 3950.17 -4.26452 -4.04243 0
M  V30 41687 H 3951.69 -3.74912 -4.81947 0
M  V30 41688 H 3953.11 -4.95032 -2.89164 0
M  V30 41689 H 3951.5 -5.52338 -2.34612 0
M  V30 41690 H 3952.57 -4.69865 -1.19811 0
M  V30 41691 N 3953.92 0.53094 -1.48387 0
M  V30 41692 C 3955.15 1.31158 -1.60016 0
M  V30 41693 C 3955.56 1.87 -0.26006 0
M  V30 41694 O 3954.92 1.66353 0.750518 0
M  V30 41695 C 3954.97 2.4631 -2.64601 0
M  V30 41696 O 3954.69 1.9277 -3.9341 0
M  V30 41697 C 3956.19 3.38144 -2.8666 0
M  V30 41698 H 3953.41 0.398893 -0.53956 0
M  V30 41699 H 3955.95 0.640596 -1.94208 0
M  V30 41700 H 3954.11 3.09295 -2.3327 0
M  V30 41701 H 3954.52 2.68139 -4.50779 0
M  V30 41702 H 3956 4.15294 -3.63641 0
M  V30 41703 H 3956.47 3.93315 -1.95448 0
M  V30 41704 H 3957.08 2.80952 -3.1929 0
M  V30 41705 N 3955.4 1.36959 0.779739 0
M  V30 41706 C 3956.63 1.34706 1.56645 0
M  V30 41707 C 3957.03 -0.0714258 1.89065 0
M  V30 41708 O 3956.38 -1.04143 1.51327 0
M  V30 41709 C 3956.44 2.11286 2.90858 0
M  V30 41710 C 3956.1 3.60309 2.81117 0
M  V30 41711 C 3957.1 4.54359 2.52694 0
M  V30 41712 C 3954.78 4.03325 2.99389 0
M  V30 41713 C 3956.78 5.89402 2.4266 0
M  V30 41714 C 3954.47 5.38457 2.88977 0
M  V30 41715 C 3955.46 6.31308 2.60652 0
M  V30 41716 O 3955.15 7.63957 2.50251 0
M  V30 41717 H 3954.88 0.463373 0.492201 0
M  V30 41718 H 3957.44 1.80789 0.974914 0
M  V30 41719 H 3955.67 1.59881 3.52101 0
M  V30 41720 H 3957.36 2.01768 3.52199 0
M  V30 41721 H 3958.12 4.22436 2.3827 0
M  V30 41722 H 3954 3.3142 3.2044 0
M  V30 41723 H 3957.55 6.61844 2.20472 0
M  V30 41724 H 3953.44 5.69984 3.02967 0
M  V30 41725 H 3954.21 7.74188 2.6566 0
M  V30 41726 N 3956.87 -1.00501 1.21398 0
M  V30 41727 C 3957.82 -2.11397 0.970267 0
M  V30 41728 C 3958.82 -1.69199 -0.0824722 0
M  V30 41729 O 3960.02 -1.79868 0.0689158 0
M  V30 41730 H 3956.4 -0.691077 0.296507 0
M  V30 41731 H 3958.37 -2.29131 1.91159 0
M  V30 41732 C 3957.12 -3.43298 0.551532 0
M  V30 41733 H 3956.44 -3.76202 1.35322 0
M  V30 41734 H 3957.88 -4.21911 0.420323 0
M  V30 41735 C 3956.34 -3.28728 -0.73753 0
M  V30 41736 O 3956.87 -3.59461 -1.79307 0
M  V30 41737 N 3955.07 -2.81943 -0.704034 0
M  V30 41738 H 3954.62 -2.57132 0.155228 0
M  V30 41739 H 3954.58 -2.72576 -1.56684 0
M  V30 41740 N 3958.35 -1.02172 -1.19994 0
M  V30 41741 C 3959.3 -0.596357 -2.22962 0
M  V30 41742 C 3960.27 0.386183 -1.61548 0
M  V30 41743 O 3961.45 0.284463 -1.88668 0
M  V30 41744 C 3958.59 0.0539983 -3.45058 0
M  V30 41745 C 3957.71 -0.973722 -4.20883 0
M  V30 41746 C 3956.84 -0.293881 -5.30386 0
M  V30 41747 C 3955.88 -1.30801 -5.97961 0
M  V30 41748 N 3955.02 -0.654474 -6.99043 0
M  V30 41749 H 3959.86 -1.47903 -2.58706 0
M  V30 41750 H 3957.39 -0.740276 -1.27115 0
M  V30 41751 H 3959.35 0.44824 -4.14785 0
M  V30 41752 H 3957.98 0.900287 -3.09991 0
M  V30 41753 H 3957.03 -1.48608 -3.50171 0
M  V30 41754 H 3958.35 -1.74478 -4.67289 0
M  V30 41755 H 3957.5 0.155588 -6.065 0
M  V30 41756 H 3956.24 0.509436 -4.85032 0
M  V30 41757 H 3955.24 -1.76781 -5.20604 0
M  V30 41758 H 3956.47 -2.11269 -6.45401 0
M  V30 41759 H 3954.42 0.128881 -6.55873 0
M  V30 41760 H 3954.33 -1.36352 -7.43602 0
M  V30 41761 H 3955.6 -0.228768 -7.79164 0
M  V30 41762 N 3959.83 1.35866 -0.798635 0
M  V30 41763 C 3961.08 1.99287 -0.375851 0
M  V30 41764 C 3961.41 1.63225 1.0522 0
M  V30 41765 O 3960.68 0.891607 1.7286 0
M  V30 41766 C 3960.97 3.55871 -0.55026 0
M  V30 41767 C 3960.82 4.01756 -2.02267 0
M  V30 41768 C 3962.14 4.4009 0.0290088 0
M  V30 41769 H 3959.26 0.723958 -0.138037 0
M  V30 41770 H 3961.9 1.61139 -1.00669 0
M  V30 41771 H 3960.05 3.88498 -0.0132422 0
M  V30 41772 H 3961.72 3.79575 -2.62145 0
M  V30 41773 H 3959.96 3.52957 -2.52197 0
M  V30 41774 H 3960.64 5.10674 -2.09562 0
M  V30 41775 H 3963.11 4.13877 -0.429516 0
M  V30 41776 H 3961.99 5.48762 -0.12299 0
M  V30 41777 H 3962.25 4.27626 1.12198 0
M  V30 41778 N 3961.31 0.551443 1.47638 0
M  V30 41779 C 3962.22 -0.202758 2.33722 0
M  V30 41780 C 3963.23 -0.917673 1.47834 0
M  V30 41781 O 3964.41 -0.887853 1.80774 0
M  V30 41782 C 3961.47 -1.22307 3.2441 0
M  V30 41783 C 3960.54 -0.516205 4.26185 0
M  V30 41784 C 3959.77 -1.48791 5.1254 0
M  V30 41785 O 3959.99 -2.7223 5.01246 0
M  V30 41786 O 3958.93 -1.01555 5.93271 0
M  V30 41787 H 3962.75 0.503222 2.99502 0
M  V30 41788 H 3960.34 0.312118 1.46103 0
M  V30 41789 H 3962.22 -1.81218 3.80444 0
M  V30 41790 H 3960.89 -1.91107 2.61265 0
M  V30 41791 H 3959.8 0.113951 3.73926 0
M  V30 41792 H 3961.13 0.130245 4.92028 0
M  V30 41793 N 3962.79 -1.54953 0.287609 0
M  V30 41794 C 3963.73 -2.24451 -0.610276 0
M  V30 41795 C 3964.73 -1.24584 -1.14784 0
M  V30 41796 O 3965.93 -1.42476 -1.10002 0
M  V30 41797 H 3962.31 -0.720496 -0.215381 0
M  V30 41798 H 3964.28 -2.984 -0.00142875 0
M  V30 41799 C 3963.03 -2.98853 -1.77714 0
M  V30 41800 H 3962.35 -3.75496 -1.3727 0
M  V30 41801 H 3963.79 -3.50783 -2.38175 0
M  V30 41802 C 3962.25 -2.05043 -2.67318 0
M  V30 41803 O 3962.78 -1.60975 -3.68035 0
M  V30 41804 N 3960.99 -1.7128 -2.34758 0
M  V30 41805 H 3960.53 -2.07313 -1.52902 0
M  V30 41806 H 3960.49 -1.08786 -2.9498 0
M  V30 41807 N 3964.26 -0.0150939 -1.57593 0
M  V30 41808 C 3965.2 1.00577 -2.0484 0
M  V30 41809 C 3966.18 1.32584 -0.941285 0
M  V30 41810 O 3967.36 1.44491 -1.21056 0
M  V30 41811 C 3964.49 2.3295 -2.4587 0
M  V30 41812 C 3963.53 2.16501 -3.67464 0
M  V30 41813 S 3964.37 1.47691 -5.14731 0
M  V30 41814 C 3965.52 2.81463 -5.59043 0
M  V30 41815 H 3965.75 0.603524 -2.9111 0
M  V30 41816 H 3963.29 0.196208 -1.53148 0
M  V30 41817 H 3965.25 3.09056 -2.70175 0
M  V30 41818 H 3963.91 2.70311 -1.59972 0
M  V30 41819 H 3963.1 3.14327 -3.93973 0
M  V30 41820 H 3962.7 1.48539 -3.43238 0
M  V30 41821 H 3964.99 3.77735 -5.62426 0
M  V30 41822 H 3965.94 2.59636 -6.58783 0
M  V30 41823 H 3966.34 2.86066 -4.86648 0
M  V30 41824 N 3965.74 1.55476 0.257876 0
M  V30 41825 C 3966.97 1.80836 1.00528 0
M  V30 41826 C 3967.39 0.589294 1.79368 0
M  V30 41827 O 3966.74 -0.441904 1.77069 0
M  V30 41828 C 3966.79 3.04276 1.95188 0
M  V30 41829 O 3966.51 4.21476 1.19541 0
M  V30 41830 C 3968.02 3.42354 2.81618 0
M  V30 41831 H 3965.24 0.602034 0.296305 0
M  V30 41832 H 3967.78 2.02517 0.284082 0
M  V30 41833 H 3965.93 2.84677 2.62751 0
M  V30 41834 H 3966.35 4.91363 1.83474 0
M  V30 41835 H 3967.82 4.31857 3.43807 0
M  V30 41836 H 3968.3 2.6244 3.52168 0
M  V30 41837 H 3968.91 3.64265 2.19525 0
M  V30 41838 N 3967.22 -0.523064 1.48667 0
M  V30 41839 C 3968.63 -1.10492 1.50494 0
M  V30 41840 C 3968.98 -1.94212 0.278614 0
M  V30 41841 O 3968.11 -2.07517 -0.613643 0
M  V30 41842 C 3968.7 -2.01053 2.72696 0
M  V30 41843 C 3967.26 -2.54443 2.77373 0
M  V30 41844 C 3966.41 -1.31558 2.44106 0
M  V30 41845 H 3969.36 -0.30799 1.55683 0
M  V30 41846 H 3969.38 -2.85437 2.51606 0
M  V30 41847 H 3968.89 -1.40093 3.61933 0
M  V30 41848 H 3966.99 -3.19105 1.92361 0
M  V30 41849 H 3967.11 -2.93104 3.78981 0
M  V30 41850 H 3965.47 -1.63362 1.95409 0
M  V30 41851 H 3966.25 -0.723396 3.35592 0
M  V30 41852 N 3968.7 -1.37371 -0.772465 0
M  V30 41853 C 3970.11 -1.18155 -1.07292 0
M  V30 41854 C 3970.31 -0.0172136 -2.01493 0
M  V30 41855 O 3969.37 0.642921 -2.44178 0
M  V30 41856 C 3970.68 -2.49989 -1.67111 0
M  V30 41857 C 3972.23 -2.56504 -1.79373 0
M  V30 41858 C 3972.71 -3.88467 -2.42605 0
M  V30 41859 N 3974.2 -3.89905 -2.50056 0
M  V30 41860 C 3974.93 -4.88762 -2.99833 0
M  V30 41861 N 3974.43 -5.98014 -3.49787 0
M  V30 41862 N 3976.22 -4.76166 -2.987 0
M  V30 41863 H 3968.37 -2.11891 -0.146977 0
M  V30 41864 H 3970.64 -0.939342 -0.12783 0
M  V30 41865 H 3970.34 -3.35547 -1.05363 0
M  V30 41866 H 3970.22 -2.67026 -2.66415 0
M  V30 41867 H 3972.6 -1.71354 -2.40254 0
M  V30 41868 H 3972.68 -2.43352 -0.788262 0
M  V30 41869 H 3972.33 -4.74032 -1.82363 0
M  V30 41870 H 3972.26 -3.98923 -3.43756 0
M  V30 41871 H 3974.75 -3.10984 -2.14703 0
M  V30 41872 H 3975.06 -6.69398 -3.86169 0
M  V30 41873 H 3973.41 -6.0166 -3.47894 0
M  V30 41874 H 3976.6 -3.89936 -2.58974 0
M  V30 41875 H 3976.77 -5.53364 -3.37183 0
M  V30 41876 N 3970.18 0.998553 -1.21929 0
M  V30 41877 C 3971.45 1.71033 -0.949064 0
M  V30 41878 C 3971.83 2.04145 0.537393 0
M  V30 41879 O 3971.18 1.72028 1.50394 0
M  V30 41880 C 3971.39 2.96505 -1.84081 0
M  V30 41881 C 3972.74 3.69401 -2.09352 0
M  V30 41882 O 3973.76 3.065 -1.81483 0
M  V30 41883 O 3972.62 4.82555 -2.56521 0
M  V30 41884 H 3969.72 0.746246 -0.356436 0
M  V30 41885 H 3972.26 1.0554 -1.32888 0
M  V30 41886 H 3971.03 2.68494 -2.84651 0
M  V30 41887 H 3970.66 3.69736 -1.46221 0
M  V30 41888 N 3971.65 1.02807 1.1945 0
M  V30 41889 C 3972.58 0.628792 2.24874 0
M  V30 41890 C 3973.57 -0.361815 1.66207 0
M  V30 41891 O 3974.75 -0.244709 1.92652 0
M  V30 41892 C 3971.88 -0.0220344 3.47293 0
M  V30 41893 C 3970.83 0.890766 4.18628 0
M  V30 41894 C 3970.16 0.105091 5.34597 0
M  V30 41895 C 3971.46 2.20413 4.73514 0
M  V30 41896 H 3973.15 1.51009 2.58528 0
M  V30 41897 H 3970.7 0.72754 1.24269 0
M  V30 41898 H 3972.65 -0.312999 4.20236 0
M  V30 41899 H 3971.38 -0.938127 3.12837 0
M  V30 41900 H 3970.04 1.16591 3.47566 0
M  V30 41901 H 3969.68 -0.813011 4.96386 0
M  V30 41902 H 3969.38 0.713086 5.83257 0
M  V30 41903 H 3970.91 -0.179152 6.10337 0
M  V30 41904 H 3972.32 1.97475 5.38216 0
M  V30 41905 H 3970.72 2.76398 5.32658 0
M  V30 41906 H 3971.79 2.85933 3.91625 0
M  V30 41907 N 3973.13 -1.35441 0.805829 0
M  V30 41908 C 3974.38 -1.98397 0.385081 0
M  V30 41909 C 3974.7 -1.64246 -1.05111 0
M  V30 41910 O 3973.97 -0.924562 -1.7271 0
M  V30 41911 H 3972.55 -0.733878 0.139399 0
M  V30 41912 H 3975.21 -1.65366 1.0315 0
M  V30 41913 H 3974.31 -3.08227 0.490181 0
M  V30 41914 N 3974.61 -0.559265 -1.47343 0
M  V30 41915 C 3975.57 0.17684 -2.28517 0
M  V30 41916 C 3976.57 0.840799 -1.37066 0
M  V30 41917 O 3977.76 0.696345 -1.59677 0
M  V30 41918 C 3974.9 1.25887 -3.16805 0
M  V30 41919 H 3976.09 -0.536226 -2.95067 0
M  V30 41920 H 3973.64 -0.31629 -1.53066 0
M  V30 41921 H 3974.38 2.00426 -2.5495 0
M  V30 41922 H 3974.16 0.787557 -3.84109 0
M  V30 41923 H 3975.65 1.77582 -3.77961 0
M  V30 41924 N 3976.09 1.54799 -0.295822 0
M  V30 41925 C 3977.33 2.01944 0.315907 0
M  V30 41926 C 3977.69 1.17964 1.51488 0
M  V30 41927 O 3978.89 1.54783 2.19762 0
M  V30 41928 C 3977.16 3.51091 0.668577 0
M  V30 41929 S 3978.72 4.20203 1.2639 0
M  V30 41930 H 3975.54 0.704321 0.0972262 0
M  V30 41931 H 3978.14 1.9088 -0.422487 0
M  V30 41932 H 3976.85 4.09849 -0.212592 0
M  V30 41933 H 3976.38 3.6618 1.4379 0
M  V30 41934 H 3978.39 4.2555 2.55189 0
M  V30 41935 N 3977.57 0.0234513 1.57583 0
M  V30 41936 C 3978.82 -0.65573 1.90743 0
M  V30 41937 C 3979.13 -1.73616 0.900944 0
M  V30 41938 O 3980.34 -2.47159 1.1236 0
M  V30 41939 C 3978.79 -1.21757 3.38679 0
M  V30 41940 C 3978.4 -0.170733 4.47675 0
M  V30 41941 C 3980.14 -1.87359 3.80916 0
M  V30 41942 C 3978.05 -0.743893 5.86703 0
M  V30 41943 H 3976.98 -0.248689 0.711807 0
M  V30 41944 H 3979.63 0.0878277 1.8329 0
M  V30 41945 H 3978.01 -2.01256 3.41046 0
M  V30 41946 H 3979.19 0.601378 4.56859 0
M  V30 41947 H 3977.5 0.3862 4.14605 0
M  V30 41948 H 3980.1 -2.31188 4.82137 0
M  V30 41949 H 3980.44 -2.71396 3.15674 0
M  V30 41950 H 3980.98 -1.14559 3.80947 0
M  V30 41951 H 3977.71 0.0582128 6.55474 0
M  V30 41952 H 3977.23 -1.48462 5.81136 0
M  V30 41953 H 3978.91 -1.23538 6.35096 0
M  V30 41954 N 3979.05 -1.5561 -0.249627 0
M  V30 41955 C 3980.32 -1.68062 -1.00072 0
M  V30 41956 C 3980.7 -0.562528 -2.03467 0
M  V30 41957 O 3980.05 0.434384 -2.24333 0
M  V30 41958 C 3980.26 -3.08252 -1.63652 0
M  V30 41959 C 3981.61 -3.66763 -2.13939 0
M  V30 41960 O 3982.63 -3.11034 -1.73597 0
M  V30 41961 O 3981.49 -4.64452 -2.88004 0
M  V30 41962 H 3978.59 -0.683456 -0.465636 0
M  V30 41963 H 3981.13 -1.67942 -0.24363 0
M  V30 41964 H 3979.9 -3.81079 -0.888505 0
M  V30 41965 H 3979.53 -3.12371 -2.45988 0
M  V30 41966 N 3980.52 0.515172 -1.48942 0
M  V30 41967 C 3981.76 1.28049 -1.5932 0
M  V30 41968 C 3982.13 1.90127 -0.267523 0
M  V30 41969 O 3983.33 2.67668 -0.246385 0
M  V30 41970 C 3981.6 2.32967 -2.71037 0
M  V30 41971 S 3983.16 3.19027 -3.01276 0
M  V30 41972 H 3979.98 0.435368 -0.562117 0
M  V30 41973 H 3982.58 0.58522 -1.86535 0
M  V30 41974 H 3981.28 1.85867 -3.65898 0
M  V30 41975 H 3980.81 3.07182 -2.4577 0
M  V30 41976 H 3982.83 4.33349 -2.41709 0
M  V30 41977 N 3982 1.37779 0.765169 0
M  V30 41978 C 3983.23 1.36732 1.55946 0
M  V30 41979 C 3983.65 -0.0435486 1.8805 0
M  V30 41980 O 3983.01 -1.02243 1.4972 0
M  V30 41981 C 3983.06 2.219 2.84241 0
M  V30 41982 O 3982.16 1.62814 3.789 0
M  V30 41983 H 3981.5 0.466905 0.472118 0
M  V30 41984 H 3984.03 1.81389 0.946524 0
M  V30 41985 H 3984.04 2.35348 3.3328 0
M  V30 41986 H 3982.72 3.24449 2.60203 0
M  V30 41987 H 3981.29 1.58443 3.37565 0
M  V30 41988 N 3983.48 -0.992073 1.22457 0
M  V30 41989 C 3984.44 -2.06392 0.99674 0
M  V30 41990 C 3985.44 -1.60757 -0.0371376 0
M  V30 41991 O 3986.63 -1.73031 0.20145 0
M  V30 41992 C 3983.76 -3.37128 0.505735 0
M  V30 41993 H 3984.96 -2.28037 1.9478 0
M  V30 41994 H 3982.51 -1.16377 1.04337 0
M  V30 41995 H 3983.25 -3.21168 -0.44964 0
M  V30 41996 H 3983.03 -3.71586 1.25165 0
M  V30 41997 H 3984.52 -4.15988 0.366608 0
M  V30 41998 N 3984.96 -1.03439 -1.18904 0
M  V30 41999 C 3986.37 -0.752469 -1.40748 0
M  V30 42000 C 3986.57 0.660645 -1.90362 0
M  V30 42001 O 3985.63 1.42581 -2.08391 0
M  V30 42002 C 3986.94 -1.79325 -2.41377 0
M  V30 42003 C 3988.49 -1.81344 -2.55115 0
M  V30 42004 C 3988.97 -2.84397 -3.59002 0
M  V30 42005 N 3990.46 -2.83248 -3.66503 0
M  V30 42006 C 3991.19 -3.59639 -4.46595 0
M  V30 42007 N 3990.69 -4.45762 -5.30347 0
M  V30 42008 N 3992.48 -3.48156 -4.41298 0
M  V30 42009 H 3984.63 -1.94641 -0.850224 0
M  V30 42010 H 3986.89 -0.841816 -0.435947 0
M  V30 42011 H 3986.6 -2.80654 -2.11958 0
M  V30 42012 H 3986.47 -1.62014 -3.40634 0
M  V30 42013 H 3988.86 -0.806897 -2.83854 0
M  V30 42014 H 3988.94 -2.02731 -1.55993 0
M  V30 42015 H 3988.59 -3.85226 -3.31004 0
M  V30 42016 H 3988.52 -2.60266 -4.57787 0
M  V30 42017 H 3991.01 -2.20789 -3.06693 0
M  V30 42018 H 3991.32 -5.00776 -5.88594 0
M  V30 42019 H 3989.67 -4.49832 -5.29789 0
M  V30 42020 H 3992.86 -2.80282 -3.74913 0
M  V30 42021 H 3993.03 -4.07941 -5.03476 0
M  V30 42022 N 3986.44 1.35011 -0.813001 0
M  V30 42023 C 3987.39 2.27117 -0.200415 0
M  V30 42024 C 3988.37 1.48074 0.629515 0
M  V30 42025 O 3989.56 1.70205 0.485721 0
M  V30 42026 C 3986.69 3.37188 0.64493 0
M  V30 42027 C 3985.78 4.23651 -0.195081 0
M  V30 42028 N 3986.17 4.89823 -1.26124 0
M  V30 42029 C 3984.47 4.45994 0.0222327 0
M  V30 42030 C 3985.17 5.5397 -1.77461 0
M  V30 42031 N 3984.14 5.32763 -1.08005 0
M  V30 42032 H 3987.94 2.75777 -1.0161 0
M  V30 42033 H 3985.46 1.48614 -0.654803 0
M  V30 42034 H 3987.46 4.0213 1.09988 0
M  V30 42035 H 3986.12 2.9008 1.45889 0
M  V30 42036 H 3987.13 4.91116 -1.64396 0
M  V30 42037 H 3983.8 4.09669 0.804817 0
M  V30 42038 H 3985.19 6.16744 -2.66602 0
M  V30 42039 N 3987.91 0.567071 1.47044 0
M  V30 42040 C 3989.16 0.0445144 2.01651 0
M  V30 42041 C 3989.48 -1.31736 1.44586 0
M  V30 42042 O 3990.68 -1.93038 1.90915 0
M  V30 42043 C 3989.14 0.0290487 3.59888 0
M  V30 42044 C 3988.75 1.38828 4.25947 0
M  V30 42045 C 3990.49 -0.440383 4.2221 0
M  V30 42046 C 3988.4 1.33139 5.76219 0
M  V30 42047 H 3987.33 0.0128712 0.75389 0
M  V30 42048 H 3989.98 0.716393 1.68938 0
M  V30 42049 H 3988.36 -0.708679 3.89607 0
M  V30 42050 H 3989.53 2.1445 4.07858 0
M  V30 42051 H 3987.85 1.79645 3.75655 0
M  V30 42052 H 3990.45 -0.501498 5.32343 0
M  V30 42053 H 3990.79 -1.45454 3.90062 0
M  V30 42054 H 3991.32 0.242791 3.97058 0
M  V30 42055 H 3988.06 2.32186 6.13001 0
M  V30 42056 H 3987.58 0.617128 5.96617 0
M  V30 42057 H 3989.26 1.03763 6.38625 0
M  V30 42058 N 3989.39 -1.5464 0.304027 0
M  V30 42059 C 3990.34 -2.25086 -0.586435 0
M  V30 42060 C 3991.33 -1.25794 -1.13456 0
M  V30 42061 O 3992.54 -1.43635 -1.08485 0
M  V30 42062 H 3988.91 -0.72274 -0.207727 0
M  V30 42063 H 3990.89 -2.98385 0.0302206 0
M  V30 42064 C 3989.63 -3.00721 -1.74534 0
M  V30 42065 H 3988.96 -3.7693 -1.3328 0
M  V30 42066 H 3990.4 -3.5329 -2.34441 0
M  V30 42067 C 3988.86 -2.07867 -2.65128 0
M  V30 42068 O 3989.39 -1.64869 -3.66307 0
M  V30 42069 N 3987.59 -1.7376 -2.32929 0
M  V30 42070 H 3987.14 -2.08923 -1.50694 0
M  V30 42071 H 3987.1 -1.11909 -2.93809 0
M  V30 42072 N 3990.87 -0.0318079 -1.57568 0
M  V30 42073 C 3991.83 0.934202 -2.09297 0
M  V30 42074 C 3992.83 1.25238 -1.00857 0
M  V30 42075 O 3994.02 1.19227 -1.27006 0
M  V30 42076 C 3991.15 2.24993 -2.56107 0
M  V30 42077 H 3992.35 0.486131 -2.95934 0
M  V30 42078 H 3989.9 0.216273 -1.54796 0
M  V30 42079 H 3990.64 2.74423 -1.72807 0
M  V30 42080 H 3990.42 2.0321 -3.35333 0
M  V30 42081 H 3991.91 2.94228 -2.96344 0
M  V30 42082 N 3992.35 1.55741 0.241371 0
M  V30 42083 C 3993.28 1.87236 1.32194 0
M  V30 42084 C 3994.29 0.75904 1.44022 0
M  V30 42085 O 3995.48 1.0372 1.45273 0
M  V30 42086 C 3992.58 2.04838 2.6999 0
M  V30 42087 C 3991.76 3.35734 2.8036 0
M  V30 42088 C 3990.81 3.4301 3.99037 0
M  V30 42089 O 3989.84 4.16182 3.88305 0
M  V30 42090 N 3991.04 2.72705 5.12457 0
M  V30 42091 H 3993.81 2.80514 1.05509 0
M  V30 42092 H 3991.37 1.56045 0.431463 0
M  V30 42093 H 3993.36 2.07041 3.4773 0
M  V30 42094 H 3991.93 1.18279 2.89359 0
M  V30 42095 H 3991.15 3.45799 1.89252 0
M  V30 42096 H 3992.44 4.22 2.84242 0
M  V30 42097 H 3991.84 2.12997 5.24069 0
M  V30 42098 H 3990.39 2.80594 5.88311 0
M  V30 42099 N 3993.83 -0.507266 1.49213 0
M  V30 42100 C 3995.07 -1.26365 1.58618 0
M  V30 42101 C 3995.41 -1.92324 0.269249 0
M  V30 42102 O 3994.68 -1.80415 -0.726688 0
M  V30 42103 C 3994.96 -2.3355 2.74092 0
M  V30 42104 C 3994.82 -1.72133 4.1556 0
M  V30 42105 C 3996.14 -3.35159 2.85231 0
M  V30 42106 H 3993.25 -0.458073 0.577355 0
M  V30 42107 H 3995.9 -0.562765 1.81474 0
M  V30 42108 H 3994.05 -2.9333 2.54735 0
M  V30 42109 H 3995.72 -1.16228 4.46418 0
M  V30 42110 H 3993.96 -1.02569 4.215 0
M  V30 42111 H 3994.63 -2.49847 4.9222 0
M  V30 42112 H 3997.11 -2.85362 3.02833 0
M  V30 42113 H 3995.98 -4.07525 3.67716 0
M  V30 42114 H 3996.25 -3.97103 1.94323 0
M  V30 42115 N 3995.3 -1.38182 -0.757851 0
M  V30 42116 C 3996.27 -1.34874 -1.85315 0
M  V30 42117 C 3997.27 -0.250069 -1.58844 0
M  V30 42118 O 3998.46 -0.506718 -1.66667 0
M  V30 42119 C 3995.59 -1.09869 -3.2271 0
M  V30 42120 H 3996.78 -2.32315 -1.89657 0
M  V30 42121 H 3994.34 -1.23414 -0.9591 0
M  V30 42122 H 3995.07 -0.130169 -3.24039 0
M  V30 42123 H 3994.86 -1.89409 -3.43317 0
M  V30 42124 H 3996.35 -1.10239 -4.02787 0
M  V30 42125 N 3996.78 0.985565 -1.22981 0
M  V30 42126 C 3997.73 2.07702 -1.00641 0
M  V30 42127 C 3998.7 1.65933 0.0743785 0
M  V30 42128 O 3999.88 1.90646 -0.0766918 0
M  V30 42129 C 3997.02 3.39877 -0.598148 0
M  V30 42130 C 3996.14 3.94945 -1.7505 0
M  V30 42131 C 3995.27 5.1531 -1.28952 0
M  V30 42132 C 3994.31 5.62533 -2.41295 0
M  V30 42133 N 3993.45 6.74132 -1.96191 0
M  V30 42134 H 3998.29 2.26146 -1.94067 0
M  V30 42135 H 3995.83 1.10861 -0.966861 0
M  V30 42136 H 3997.78 4.15791 -0.342576 0
M  V30 42137 H 3996.41 3.21411 0.29911 0
M  V30 42138 H 3995.47 3.15834 -2.12021 0
M  V30 42139 H 3996.78 4.25966 -2.59527 0
M  V30 42140 H 3995.93 5.98539 -0.991765 0
M  V30 42141 H 3994.67 4.85931 -0.415046 0
M  V30 42142 H 3993.68 4.77888 -2.7185 0
M  V30 42143 H 3994.9 5.93934 -3.2927 0
M  V30 42144 H 3992.85 6.46521 -1.11117 0
M  V30 42145 H 3992.76 7.04509 -2.74231 0
M  V30 42146 H 3994.03 7.60847 -1.69506 0
M  V30 42147 N 3998.26 1.04068 1.18353 0
M  V30 42148 C 3999.49 0.764013 1.92815 0
M  V30 42149 C 3999.91 -0.672718 1.75659 0
M  V30 42150 O 3999.27 -1.46596 1.06674 0
M  V30 42151 C 3999.32 1.13522 3.42265 0
M  V30 42152 O 3998.42 0.260719 4.11575 0
M  V30 42153 H 3997.76 0.281178 0.601527 0
M  V30 42154 H 4000.29 1.39053 1.50085 0
M  V30 42155 H 4000.3 1.09716 3.92971 0
M  V30 42156 H 3998.98 2.18187 3.54072 0
M  V30 42157 H 3997.55 0.358407 3.71174 0
M  V30 42158 N 3999.74 -1.34578 0.820149 0
M  V30 42159 C 4000.69 -2.27008 0.212457 0
M  V30 42160 C 4001.67 -1.48406 -0.621653 0
M  V30 42161 O 4002.86 -1.7046 -0.476688 0
M  V30 42162 C 3999.99 -3.37525 -0.627039 0
M  V30 42163 C 3999.08 -4.23542 0.217546 0
M  V30 42164 N 3999.47 -4.89147 1.2872 0
M  V30 42165 C 3997.77 -4.46 0.00141982 0
M  V30 42166 C 3998.47 -5.53021 1.80396 0
M  V30 42167 N 3997.45 -5.32182 1.10829 0
M  V30 42168 H 4001.25 -2.75234 1.03071 0
M  V30 42169 H 3998.76 -1.48265 0.662675 0
M  V30 42170 H 4000.76 -4.02707 -1.07854 0
M  V30 42171 H 3999.42 -2.9085 -1.44348 0
M  V30 42172 H 4000.43 -4.90237 1.66998 0
M  V30 42173 H 3997.11 -4.1009 -0.78308 0
M  V30 42174 H 3998.5 -6.15321 2.69869 0
M  V30 42175 N 4001.22 -0.574861 -1.46742 0
M  V30 42176 C 4002.16 0.175737 -2.31935 0
M  V30 42177 C 4003.16 0.892102 -1.44007 0
M  V30 42178 O 4004.36 0.811382 -1.60675 0
M  V30 42179 H 4000.74 0.0755426 -0.748196 0
M  V30 42180 H 4002.71 -0.561722 -2.93065 0
M  V30 42181 C 4001.46 1.18123 -3.2702 0
M  V30 42182 H 4000.78 0.639422 -3.94654 0
M  V30 42183 H 4002.22 1.67697 -3.89427 0
M  V30 42184 C 4000.68 2.2382 -2.51806 0
M  V30 42185 O 4001.21 3.31044 -2.27536 0
M  V30 42186 N 3999.42 1.98217 -2.12505 0
M  V30 42187 H 3998.96 1.11031 -2.32443 0
M  V30 42188 H 3998.92 2.6915 -1.62499 0
M  V30 42189 N 4002.69 1.54476 -0.312224 0
M  V30 42190 C 4003.94 1.99537 0.294572 0
M  V30 42191 C 4004.26 1.20424 1.54135 0
M  V30 42192 O 4005.46 1.55807 2.22343 0
M  V30 42193 C 4003.92 3.5527 0.575408 0
M  V30 42194 C 4003.53 4.43206 -0.653669 0
M  V30 42195 C 4005.27 4.08829 1.14278 0
M  V30 42196 C 4003.18 5.90391 -0.345364 0
M  V30 42197 H 4002.11 0.745356 0.113846 0
M  V30 42198 H 4004.76 1.78566 -0.422681 0
M  V30 42199 H 4003.14 3.72186 1.35255 0
M  V30 42200 H 4004.31 4.38065 -1.42952 0
M  V30 42201 H 4002.63 4.00478 -1.14046 0
M  V30 42202 H 4005.23 5.16374 1.38788 0
M  V30 42203 H 4005.57 3.60116 2.0886 0
M  V30 42204 H 4006.1 3.95501 0.427085 0
M  V30 42205 H 4002.84 6.43275 -1.26005 0
M  V30 42206 H 4002.36 5.98511 0.393001 0
M  V30 42207 H 4004.04 6.46981 0.048971 0
M  V30 42208 N 4004.17 0.0401637 1.57549 0
M  V30 42209 C 4005.14 -0.923089 2.0979 0
M  V30 42210 C 4006.14 -1.24701 1.0152 0
M  V30 42211 O 4007.33 -1.18552 1.27637 0
M  V30 42212 C 4004.46 -2.23632 2.57297 0
M  V30 42213 H 4005.65 -0.47043 2.96187 0
M  V30 42214 H 4003.2 -0.208061 1.54909 0
M  V30 42215 H 4003.94 -2.73503 1.7426 0
M  V30 42216 H 4003.72 -2.01429 3.36406 0
M  V30 42217 H 4005.21 -2.92652 2.979 0
M  V30 42218 N 4005.65 -1.55866 -0.233109 0
M  V30 42219 C 4006.58 -1.94484 -1.29222 0
M  V30 42220 C 4007.56 -0.811529 -1.49493 0
M  V30 42221 O 4008.75 -1.07292 -1.6187 0
M  V30 42222 C 4005.88 -2.25152 -2.64431 0
M  V30 42223 C 4004.83 -3.40865 -2.58835 0
M  V30 42224 C 4004.16 -3.57109 -3.97967 0
M  V30 42225 C 4005.46 -4.76167 -2.1462 0
M  V30 42226 H 4007.15 -2.83201 -0.971477 0
M  V30 42227 H 4004.7 -1.36255 -0.465881 0
M  V30 42228 H 4006.65 -2.50758 -3.38671 0
M  V30 42229 H 4005.37 -1.33276 -2.9817 0
M  V30 42230 H 4004.03 -3.15289 -1.87052 0
M  V30 42231 H 4003.68 -2.62629 -4.28993 0
M  V30 42232 H 4003.38 -4.34931 -3.95107 0
M  V30 42233 H 4004.9 -3.85051 -4.73886 0
M  V30 42234 H 4006.32 -5.01055 -2.78598 0
M  V30 42235 H 4004.72 -5.5719 -2.22844 0
M  V30 42236 H 4005.79 -4.72301 -1.09817 0
M  V30 42237 N 4007.13 0.499346 -1.4948 0
M  V30 42238 C 4008.38 1.25 -1.58297 0
M  V30 42239 C 4008.69 1.93648 -0.275651 0
M  V30 42240 O 4009.9 2.70416 -0.242388 0
M  V30 42241 C 4008.35 2.26974 -2.79304 0
M  V30 42242 C 4007.96 1.64257 -4.16802 0
M  V30 42243 C 4009.71 3.02857 -2.97453 0
M  V30 42244 C 4007.61 2.64351 -5.2903 0
M  V30 42245 H 4006.54 0.47023 -0.589406 0
M  V30 42246 H 4009.19 0.523667 -1.75869 0
M  V30 42247 H 4007.58 3.02776 -2.5523 0
M  V30 42248 H 4008.75 0.944353 -4.5102 0
M  V30 42249 H 4007.06 1.00758 -4.04026 0
M  V30 42250 H 4009.66 3.77712 -3.78467 0
M  V30 42251 H 4010 3.60569 -2.08077 0
M  V30 42252 H 4010.54 2.34169 -3.21574 0
M  V30 42253 H 4007.28 2.11418 -6.2047 0
M  V30 42254 H 4006.8 3.32408 -4.99264 0
M  V30 42255 H 4008.48 3.26745 -5.58432 0
M  V30 42256 N 4008.61 1.38582 0.750513 0
M  V30 42257 C 4009.85 1.36164 1.51099 0
M  V30 42258 C 4010.21 -0.0472244 1.92342 0
M  V30 42259 O 4009.5 -1.01051 1.62786 0
M  V30 42260 C 4009.7 2.25412 2.77352 0
M  V30 42261 C 4009.52 3.74835 2.48453 0
M  V30 42262 C 4008.29 4.43843 2.41519 0
M  V30 42263 C 4010.49 4.67193 2.15025 0
M  V30 42264 N 4008.47 5.78687 2.04927 0
M  V30 42265 C 4009.85 5.90571 1.88749 0
M  V30 42266 C 4011.9 4.55366 2.0136 0
M  V30 42267 C 4010.6 7.03446 1.50187 0
M  V30 42268 C 4012.63 5.68148 1.642 0
M  V30 42269 C 4011.99 6.9059 1.38799 0
M  V30 42270 H 4008.09 0.55354 0.552374 0
M  V30 42271 H 4010.67 1.73997 0.873677 0
M  V30 42272 H 4008.85 1.89761 3.38888 0
M  V30 42273 H 4010.58 2.14097 3.43431 0
M  V30 42274 H 4007.33 3.97095 2.58094 0
M  V30 42275 H 4007.76 6.50005 1.89267 0
M  V30 42276 H 4012.4 3.61253 2.19673 0
M  V30 42277 H 4010.12 7.97474 1.30614 0
M  V30 42278 H 4013.7 5.60978 1.54255 0
M  V30 42279 H 4012.58 7.7638 1.10473 0
M  V30 42280 N 4010.09 -0.979029 1.23502 0
M  V30 42281 C 4011.03 -2.09291 1.01489 0
M  V30 42282 C 4012.03 -1.69336 -0.046564 0
M  V30 42283 O 4013.23 -1.79681 0.107053 0
M  V30 42284 H 4009.61 -0.684632 0.311099 0
M  V30 42285 H 4011.58 -2.25024 1.95976 0
M  V30 42286 C 4010.33 -3.42051 0.624227 0
M  V30 42287 H 4009.65 -3.73247 1.43272 0
M  V30 42288 H 4011.09 -4.20925 0.509722 0
M  V30 42289 C 4009.55 -3.30218 -0.667636 0
M  V30 42290 O 4010.08 -3.63183 -1.71642 0
M  V30 42291 N 4008.29 -2.83373 -0.644072 0
M  V30 42292 H 4007.83 -2.56745 0.209735 0
M  V30 42293 H 4007.79 -2.75838 -1.50867 0
M  V30 42294 N 4011.56 -1.04695 -1.178 0
M  V30 42295 C 4012.81 -0.755174 -1.88215 0
M  V30 42296 C 4013.14 0.715699 -1.80531 0
M  V30 42297 O 4012.42 1.52289 -1.20989 0
M  V30 42298 C 4012.7 -1.22992 -3.38445 0
M  V30 42299 C 4012.55 -2.76336 -3.54906 0
M  V30 42300 C 4013.87 -0.824967 -4.32299 0
M  V30 42301 H 4010.99 -0.275807 -0.683447 0
M  V30 42302 H 4013.63 -1.30006 -1.38558 0
M  V30 42303 H 4011.78 -0.766367 -3.80866 0
M  V30 42304 H 4013.46 -3.30777 -3.21535 0
M  V30 42305 H 4011.7 -3.15856 -2.97351 0
M  V30 42306 H 4012.37 -3.04614 -4.60342 0
M  V30 42307 H 4014.85 -1.22396 -3.97692 0
M  V30 42308 H 4013.72 -1.18482 -5.3596 0
M  V30 42309 H 4013.98 0.271432 -4.41266 0
M  V30 42310 N 4013.04 1.34141 -0.827275 0
M  V30 42311 C 4013.99 2.2944 -0.250206 0
M  V30 42312 C 4014.96 1.53792 0.627463 0
M  V30 42313 O 4016.14 1.82144 0.568186 0
M  V30 42314 C 4013.28 3.4022 0.578332 0
M  V30 42315 C 4012.4 4.30798 -0.322066 0
M  V30 42316 C 4011.53 5.28683 0.516457 0
M  V30 42317 C 4010.57 6.109 -0.383056 0
M  V30 42318 N 4009.71 7.00863 0.416651 0
M  V30 42319 H 4014.55 2.78196 -1.06822 0
M  V30 42320 H 4012.08 1.36898 -0.538269 0
M  V30 42321 H 4014.04 4.03137 1.07407 0
M  V30 42322 H 4012.67 2.92686 1.36142 0
M  V30 42323 H 4011.72 3.68704 -0.936043 0
M  V30 42324 H 4013.04 4.88394 -1.01355 0
M  V30 42325 H 4012.19 5.97073 1.07649 0
M  V30 42326 H 4010.93 4.71635 1.24142 0
M  V30 42327 H 4009.93 5.41439 -0.955198 0
M  V30 42328 H 4011.16 6.7003 -1.1062 0
M  V30 42329 H 4009.11 6.46278 1.12521 0
M  V30 42330 H 4009.02 7.5569 -0.21635 0
M  V30 42331 H 4010.29 7.73575 0.959296 0
M  V30 42332 N 4014.52 0.582635 1.46435 0
M  V30 42333 C 4015.8 0.00132605 1.956 0
M  V30 42334 C 4016.18 -1.45939 1.52529 0
M  V30 42335 O 4015.52 -2.14922 0.775949 0
M  V30 42336 C 4015.73 0.173305 3.48569 0
M  V30 42337 C 4017.08 0.0410919 4.2458 0
M  V30 42338 O 4018.11 0.102137 3.56054 0
M  V30 42339 O 4016.97 -0.0946603 5.46418 0
M  V30 42340 H 4014.06 -0.0498561 0.825496 0
M  V30 42341 H 4016.61 0.650948 1.56719 0
M  V30 42342 H 4015.38 1.18877 3.72806 0
M  V30 42343 H 4015 -0.512752 3.9428 0
M  V30 42344 N 4016 -1.54309 0.320412 0
M  V30 42345 C 4017.24 -2.00511 -0.283108 0
M  V30 42346 C 4017.57 -1.20863 -1.52389 0
M  V30 42347 O 4016.83 -0.277989 -1.93716 0
M  V30 42348 C 4017.13 -3.51152 -0.665383 0
M  V30 42349 C 4016.79 -4.48382 0.475868 0
M  V30 42350 C 4015.45 -4.74685 0.789121 0
M  V30 42351 C 4017.81 -5.0617 1.24262 0
M  V30 42352 C 4015.13 -5.56036 1.87191 0
M  V30 42353 C 4017.49 -5.88701 2.31548 0
M  V30 42354 C 4016.15 -6.13308 2.63458 0
M  V30 42355 H 4015.42 -0.733723 -0.103596 0
M  V30 42356 H 4018.07 -1.86293 0.443537 0
M  V30 42357 H 4016.37 -3.63081 -1.47241 0
M  V30 42358 H 4018.07 -3.8434 -1.14385 0
M  V30 42359 H 4014.66 -4.28027 0.221634 0
M  V30 42360 H 4018.84 -4.85834 1.01387 0
M  V30 42361 H 4014.1 -5.73334 2.12364 0
M  V30 42362 H 4018.27 -6.32499 2.91406 0
M  V30 42363 H 4015.9 -6.76133 3.47489 0
M  V30 42364 N 4017.48 -0.0485183 -1.57525 0
M  V30 42365 C 4018.41 0.962092 -2.06928 0
M  V30 42366 C 4019.39 1.30558 -0.969196 0
M  V30 42367 O 4020.57 1.41891 -1.24094 0
M  V30 42368 C 4017.7 2.27682 -2.50756 0
M  V30 42369 C 4016.74 2.08658 -3.71973 0
M  V30 42370 S 4017.58 1.3674 -5.17748 0
M  V30 42371 C 4018.73 2.69542 -5.64888 0
M  V30 42372 H 4018.97 0.54164 -2.92324 0
M  V30 42373 H 4016.5 0.163679 -1.5353 0
M  V30 42374 H 4018.46 3.03256 -2.7667 0
M  V30 42375 H 4017.12 2.66857 -1.6567 0
M  V30 42376 H 4016.31 3.059 -4.00551 0
M  V30 42377 H 4015.91 1.41225 -3.46311 0
M  V30 42378 H 4018.2 3.6572 -5.70311 0
M  V30 42379 H 4019.15 2.45604 -6.64142 0
M  V30 42380 H 4019.56 2.75679 -4.92607 0
M  V30 42381 N 4018.95 1.55988 0.224839 0
M  V30 42382 C 4020.18 1.83273 0.970864 0
M  V30 42383 C 4020.6 0.62843 1.77292 0
M  V30 42384 O 4019.96 -0.422773 1.76302 0
M  V30 42385 C 4020.01 3.08517 1.8668 0
M  V30 42386 O 4019.11 2.86981 2.96169 0
M  V30 42387 H 4018.45 0.604339 0.275083 0
M  V30 42388 H 4020.98 2.03198 0.239147 0
M  V30 42389 H 4020.99 3.38534 2.27725 0
M  V30 42390 H 4019.67 3.95801 1.27726 0
M  V30 42391 H 4018.25 2.68188 2.59094 0
M  V30 42392 N 4020.43 -0.491412 1.49743 0
M  V30 42393 C 4021.36 -1.60031 1.70036 0
M  V30 42394 C 4022.34 -1.60993 0.549104 0
M  V30 42395 O 4023.53 -1.77582 0.786014 0
M  V30 42396 C 4020.66 -2.9847 1.77575 0
M  V30 42397 C 4019.61 -3.12374 2.92586 0
M  V30 42398 C 4018.94 -4.52259 2.85247 0
M  V30 42399 C 4020.24 -2.91497 4.3339 0
M  V30 42400 H 4021.93 -1.43303 2.62878 0
M  V30 42401 H 4019.48 -0.687966 1.26503 0
M  V30 42402 H 4021.43 -3.75955 1.90358 0
M  V30 42403 H 4020.15 -3.16309 0.813398 0
M  V30 42404 H 4018.81 -2.37317 2.79421 0
M  V30 42405 H 4018.46 -4.66988 1.869 0
M  V30 42406 H 4018.16 -4.62501 3.62445 0
M  V30 42407 H 4019.69 -5.31791 3.0005 0
M  V30 42408 H 4021.1 -3.58744 4.47186 0
M  V30 42409 H 4019.5 -3.13202 5.11883 0
M  V30 42410 H 4020.57 -1.87532 4.47169 0
M  V30 42411 N 4021.91 -1.38978 -0.743153 0
M  V30 42412 C 4023.14 -1.39196 -1.53751 0
M  V30 42413 C 4023.56 0.013626 -1.88095 0
M  V30 42414 O 4022.92 0.998482 -1.51328 0
M  V30 42415 C 4022.97 -2.26394 -2.80675 0
M  V30 42416 O 4022.07 -1.68821 -3.76262 0
M  V30 42417 H 4021.41 -0.474357 -0.464631 0
M  V30 42418 H 4023.94 -1.82872 -0.917547 0
M  V30 42419 H 4023.95 -2.4062 -3.29493 0
M  V30 42420 H 4022.63 -3.28547 -2.55009 0
M  V30 42421 H 4021.2 -1.63794 -3.35002 0
M  V30 42422 N 4023.39 0.972465 -1.2402 0
M  V30 42423 C 4024.3 2.10025 -1.04531 0
M  V30 42424 C 4025.31 1.73996 0.0125066 0
M  V30 42425 O 4026.49 2.00552 -0.18465 0
M  V30 42426 C 4023.56 3.40603 -0.647324 0
M  V30 42427 C 4022.62 3.9061 -1.78108 0
M  V30 42428 C 4021.85 5.14956 -1.40199 0
M  V30 42429 O 4022.07 5.69664 -0.289708 0
M  V30 42430 O 4021.01 5.59228 -2.22593 0
M  V30 42431 H 4024.83 2.29359 -1.99068 0
M  V30 42432 H 4022.42 1.08413 -1.02796 0
M  V30 42433 H 4024.3 4.19131 -0.436679 0
M  V30 42434 H 4022.97 3.22581 0.268968 0
M  V30 42435 H 4021.88 3.13164 -2.04644 0
M  V30 42436 H 4023.21 4.13101 -2.67598 0
M  V30 42437 N 4024.87 1.05318 1.17243 0
M  V30 42438 C 4025.8 0.613267 2.20843 0
M  V30 42439 C 4026.81 -0.323643 1.59551 0
M  V30 42440 O 4028 -0.116177 1.78122 0
M  V30 42441 C 4025.1 -0.122423 3.38679 0
M  V30 42442 C 4024.27 0.825504 4.2954 0
M  V30 42443 C 4023.33 0.130845 5.26037 0
M  V30 42444 O 4022.36 0.765347 5.64031 0
M  V30 42445 N 4023.56 -1.13126 5.69371 0
M  V30 42446 H 4026.33 1.50439 2.59207 0
M  V30 42447 H 4023.89 0.935244 1.32154 0
M  V30 42448 H 4025.88 -0.597298 4.00268 0
M  V30 42449 H 4024.45 -0.915226 2.98902 0
M  V30 42450 H 4023.67 1.47997 3.65363 0
M  V30 42451 H 4024.96 1.4689 4.87135 0
M  V30 42452 H 4024.35 -1.66706 5.40579 0
M  V30 42453 H 4022.91 -1.55018 6.33098 0
M  V30 42454 N 4026.34 -1.33701 0.834377 0
M  V30 42455 C 4027.27 -2.31823 0.279354 0
M  V30 42456 C 4028.26 -1.58768 -0.610467 0
M  V30 42457 O 4029.44 -1.86687 -0.534956 0
M  V30 42458 C 4026.57 -3.42915 -0.550141 0
M  V30 42459 C 4025.52 -4.27307 0.243507 0
M  V30 42460 C 4024.85 -5.29972 -0.709454 0
M  V30 42461 C 4026.15 -5.01535 1.45808 0
M  V30 42462 H 4027.84 -2.78492 1.0992 0
M  V30 42463 H 4025.39 -1.33891 0.530011 0
M  V30 42464 H 4027.34 -4.10582 -0.948692 0
M  V30 42465 H 4026.07 -2.94923 -1.40315 0
M  V30 42466 H 4024.73 -3.61258 0.623564 0
M  V30 42467 H 4024.37 -4.78239 -1.55874 0
M  V30 42468 H 4024.07 -5.87316 -0.182568 0
M  V30 42469 H 4025.6 -6.00507 -1.10562 0
M  V30 42470 H 4027.01 -5.61994 1.13293 0
M  V30 42471 H 4025.41 -5.68508 1.92143 0
M  V30 42472 H 4026.48 -4.30568 2.23024 0
M  V30 42473 N 4027.82 -0.590393 -1.46124 0
M  V30 42474 C 4029.24 -0.252667 -1.57587 0
M  V30 42475 C 4029.44 1.24499 -1.58437 0
M  V30 42476 O 4028.49 2.02713 -1.50544 0
M  V30 42477 C 4029.81 -0.908662 -2.86642 0
M  V30 42478 C 4031.36 -0.88297 -3.00288 0
M  V30 42479 C 4031.83 -1.51865 -4.32089 0
M  V30 42480 N 4033.32 -1.48334 -4.38806 0
M  V30 42481 C 4034.06 -1.94451 -5.39422 0
M  V30 42482 N 4033.55 -2.48576 -6.4667 0
M  V30 42483 N 4035.35 -1.85322 -5.30671 0
M  V30 42484 H 4027.5 -1.56303 -1.43816 0
M  V30 42485 H 4029.76 -0.653771 -0.686503 0
M  V30 42486 H 4029.47 -1.96251 -2.91854 0
M  V30 42487 H 4029.34 -0.421511 -3.74837 0
M  V30 42488 H 4031.73 0.162279 -2.94653 0
M  V30 42489 H 4031.81 -1.40822 -2.13548 0
M  V30 42490 H 4031.45 -2.56314 -4.38481 0
M  V30 42491 H 4031.38 -0.968565 -5.17616 0
M  V30 42492 H 4033.87 -1.08779 -3.61906 0
M  V30 42493 H 4034.19 -2.81603 -7.19666 0
M  V30 42494 H 4032.53 -2.52606 -6.47468 0
M  V30 42495 H 4035.72 -1.4279 -4.4579 0
M  V30 42496 H 4035.89 -2.21578 -6.0894 0
M  V30 42497 N 4029.3 1.54136 -0.328591 0
M  V30 42498 C 4030.25 2.24512 0.535073 0
M  V30 42499 C 4031.22 1.23778 1.10762 0
M  V30 42500 O 4032.4 1.52473 1.14703 0
M  V30 42501 C 4029.54 3.01022 1.6876 0
M  V30 42502 C 4028.66 4.16583 1.14379 0
M  V30 42503 C 4027.79 4.80613 2.26241 0
M  V30 42504 C 4026.83 5.88268 1.69135 0
M  V30 42505 N 4025.97 6.46139 2.74679 0
M  V30 42506 H 4030.81 2.97914 -0.071625 0
M  V30 42507 H 4028.34 1.47025 -0.0471192 0
M  V30 42508 H 4030.3 3.43631 2.36588 0
M  V30 42509 H 4028.93 2.29945 2.26551 0
M  V30 42510 H 4027.98 3.78722 0.356907 0
M  V30 42511 H 4029.3 4.94061 0.685976 0
M  V30 42512 H 4028.45 5.26216 3.01964 0
M  V30 42513 H 4027.19 4.02527 2.75361 0
M  V30 42514 H 4026.19 5.42063 0.919122 0
M  V30 42515 H 4027.42 6.68254 1.20886 0
M  V30 42516 H 4025.36 5.70924 3.23081 0
M  V30 42517 H 4025.28 7.19045 2.33475 0
M  V30 42518 H 4026.55 6.96397 3.50216 0
M  V30 42519 N 4030.78 0.0568716 1.57497 0
M  V30 42520 C 4031.71 -0.944843 2.08819 0
M  V30 42521 C 4032.72 -1.2711 1.01719 0
M  V30 42522 O 4033.91 -1.2309 1.29272 0
M  V30 42523 C 4031.01 -2.26483 2.52108 0
M  V30 42524 C 4030.19 -2.11964 3.82609 0
M  V30 42525 C 4029.24 -3.27136 4.12151 0
M  V30 42526 O 4028.27 -3.02788 4.81983 0
M  V30 42527 N 4029.47 -4.51786 3.64513 0
M  V30 42528 H 4032.24 -0.506762 2.95385 0
M  V30 42529 H 4029.8 -0.12923 1.61383 0
M  V30 42530 H 4031.79 -3.0241 2.68943 0
M  V30 42531 H 4030.36 -2.61839 1.7076 0
M  V30 42532 H 4029.58 -1.20594 3.75301 0
M  V30 42533 H 4030.87 -1.99497 4.68058 0
M  V30 42534 H 4030.27 -4.74457 3.0807 0
M  V30 42535 H 4028.82 -5.24788 3.86575 0
M  V30 42536 N 4032.26 -1.56105 -0.216564 0
M  V30 42537 C 4033.51 -1.78547 -0.938289 0
M  V30 42538 C 4033.82 -0.626322 -1.85301 0
M  V30 42539 O 4035.02 -0.734497 -2.61376 0
M  V30 42540 C 4033.48 -3.16212 -1.71866 0
M  V30 42541 C 4033.09 -4.39866 -0.849826 0
M  V30 42542 C 4034.83 -3.47977 -2.4313 0
M  V30 42543 C 4032.74 -5.68556 -1.62783 0
M  V30 42544 H 4031.67 -0.665687 -0.354086 0
M  V30 42545 H 4034.32 -1.82492 -0.192047 0
M  V30 42546 H 4032.7 -3.06457 -2.50799 0
M  V30 42547 H 4033.88 -4.6069 -0.100676 0
M  V30 42548 H 4032.19 -4.15654 -0.249066 0
M  V30 42549 H 4034.79 -4.41352 -3.01848 0
M  V30 42550 H 4035.13 -2.7071 -3.16263 0
M  V30 42551 H 4035.66 -3.59084 -1.71182 0
M  V30 42552 H 4032.4 -6.4873 -0.939687 0
M  V30 42553 H 4031.92 -5.51785 -2.35147 0
M  V30 42554 H 4033.6 -6.08909 -2.18722 0
M  V30 42555 N 4033.73 0.483463 -1.50001 0
M  V30 42556 C 4035.15 0.816167 -1.37153 0
M  V30 42557 C 4035.35 1.97115 -0.418081 0
M  V30 42558 O 4034.41 2.5209 0.14384 0
M  V30 42559 C 4035.72 1.13987 -2.78258 0
M  V30 42560 C 4037.27 1.24705 -2.87085 0
M  V30 42561 C 4037.74 1.60395 -4.28996 0
M  V30 42562 N 4039.23 1.67411 -4.31889 0
M  V30 42563 C 4039.97 1.96506 -5.38677 0
M  V30 42564 N 4039.46 2.23706 -6.55689 0
M  V30 42565 N 4041.26 1.97905 -5.26108 0
M  V30 42566 H 4033.41 -0.277884 -2.10574 0
M  V30 42567 H 4035.67 -0.061772 -0.945985 0
M  V30 42568 H 4035.38 0.364387 -3.49807 0
M  V30 42569 H 4035.25 2.0791 -3.14727 0
M  V30 42570 H 4037.64 2.01323 -2.15762 0
M  V30 42571 H 4037.72 0.287914 -2.54175 0
M  V30 42572 H 4037.36 0.843222 -5.00851 0
M  V30 42573 H 4037.29 2.57439 -4.59383 0
M  V30 42574 H 4039.78 1.48481 -3.47508 0
M  V30 42575 H 4040.1 2.45145 -7.32887 0
M  V30 42576 H 4038.44 2.21125 -6.58885 0
M  V30 42577 H 4041.63 1.76143 -4.33695 0
M  V30 42578 H 4041.81 2.20245 -6.09423 0
M  V30 42579 N 4035.21 1.39371 0.735772 0
M  V30 42580 C 4036.44 1.40009 1.5301 0
M  V30 42581 C 4036.86 -0.0036507 1.881 0
M  V30 42582 O 4036.22 -0.990443 1.51855 0
M  V30 42583 C 4036.27 2.27879 2.7947 0
M  V30 42584 O 4035.37 1.70814 3.75361 0
M  V30 42585 H 4034.71 0.476814 0.462108 0
M  V30 42586 H 4037.24 1.83356 0.907836 0
M  V30 42587 H 4037.25 2.42364 3.28213 0
M  V30 42588 H 4035.93 3.29895 2.53263 0
M  V30 42589 H 4034.51 1.65568 3.34128 0
M  V30 42590 N 4036.69 -0.965875 1.24534 0
M  V30 42591 C 4037.65 -2.04232 1.04029 0
M  V30 42592 C 4038.65 -1.608 -0.00303028 0
M  V30 42593 O 4039.84 -1.72565 0.238107 0
M  V30 42594 C 4036.98 -3.35979 0.577131 0
M  V30 42595 H 4038.17 -2.23854 1.99573 0
M  V30 42596 H 4035.72 -1.14137 1.06782 0
M  V30 42597 H 4036.46 -3.22049 -0.381415 0
M  V30 42598 H 4036.24 -3.68848 1.33018 0
M  V30 42599 H 4037.73 -4.15116 0.454763 0
M  V30 42600 N 4038.17 -1.05938 -1.16683 0
M  V30 42601 C 4039.13 -0.671137 -2.19154 0
M  V30 42602 C 4040.13 0.281277 -1.58321 0
M  V30 42603 O 4041.32 0.0641402 -1.74082 0
M  V30 42604 C 4038.45 0.0130502 -3.40898 0
M  V30 42605 H 4039.65 -1.57819 -2.55016 0
M  V30 42606 H 4037.2 -0.85417 -1.30895 0
M  V30 42607 H 4037.94 0.933023 -3.10588 0
M  V30 42608 H 4037.72 -0.671755 -3.86303 0
M  V30 42609 H 4039.21 0.270533 -4.16723 0
M  V30 42610 N 4039.65 1.33256 -0.841456 0
M  V30 42611 C 4040.59 2.29161 -0.274527 0
M  V30 42612 C 4041.56 1.54449 0.611116 0
M  V30 42613 O 4042.75 1.82736 0.548836 0
M  V30 42614 C 4039.89 3.40814 0.542215 0
M  V30 42615 C 4039 4.30432 -0.36774 0
M  V30 42616 C 4038.14 5.29201 0.460354 0
M  V30 42617 C 4037.18 6.1046 -0.447829 0
M  V30 42618 N 4036.31 7.01265 0.342291 0
M  V30 42619 H 4041.15 2.77047 -1.09767 0
M  V30 42620 H 4038.69 1.36319 -0.552759 0
M  V30 42621 H 4040.65 4.04254 1.03125 0
M  V30 42622 H 4039.28 2.94114 1.3303 0
M  V30 42623 H 4038.33 3.6769 -0.975097 0
M  V30 42624 H 4039.64 4.87292 -1.06529 0
M  V30 42625 H 4038.8 5.98181 1.0131 0
M  V30 42626 H 4037.54 4.72926 1.19133 0
M  V30 42627 H 4036.54 5.40395 -1.01257 0
M  V30 42628 H 4037.77 6.68819 -1.17721 0
M  V30 42629 H 4035.71 6.47435 1.0566 0
M  V30 42630 H 4035.63 7.55418 -0.296489 0
M  V30 42631 H 4036.9 7.74549 0.877195 0
M  V30 42632 N 4041.13 0.598134 1.45809 0
M  V30 42633 C 4042.07 -0.12622 2.30455 0
M  V30 42634 C 4043.04 -0.869196 1.41542 0
M  V30 42635 O 4044.23 -0.856811 1.7048 0
M  V30 42636 C 4041.37 -1.12387 3.26287 0
M  V30 42637 C 4040.48 -0.382749 4.30301 0
M  V30 42638 C 4039.62 -1.36928 5.13249 0
M  V30 42639 C 4038.65 -0.615438 6.08998 0
M  V30 42640 N 4037.79 -1.55079 6.84759 0
M  V30 42641 H 4042.63 0.601624 2.91864 0
M  V30 42642 H 4040.17 0.308492 1.43829 0
M  V30 42643 H 4042.13 -1.71532 3.80306 0
M  V30 42644 H 4040.76 -1.81924 2.66652 0
M  V30 42645 H 4039.81 0.324029 3.79017 0
M  V30 42646 H 4041.12 0.205868 4.98375 0
M  V30 42647 H 4040.27 -2.03308 5.71621 0
M  V30 42648 H 4039.01 -1.99183 4.45171 0
M  V30 42649 H 4038.02 0.0620407 5.49765 0
M  V30 42650 H 4039.24 0.00193188 6.791 0
M  V30 42651 H 4037.19 -2.16116 6.19379 0
M  V30 42652 H 4037.11 -1.01537 7.4915 0
M  V30 42653 H 4038.37 -2.20445 7.47679 0
M  V30 42654 N 4042.6 -1.5396 0.33676 0
M  V30 42655 C 4043.55 -2.26279 -0.538559 0
M  V30 42656 C 4044.55 -1.28172 -1.10762 0
M  V30 42657 O 4045.75 -1.45904 -1.05414 0
M  V30 42658 H 4042.13 -0.726984 -0.19235 0
M  V30 42659 H 4044.1 -2.98253 0.0935056 0
M  V30 42660 C 4042.85 -3.04355 -1.68116 0
M  V30 42661 H 4042.17 -3.79673 -1.25255 0
M  V30 42662 H 4043.61 -3.58183 -2.26894 0
M  V30 42663 C 4042.07 -2.13444 -2.60659 0
M  V30 42664 O 4042.6 -1.72602 -3.62728 0
M  V30 42665 N 4040.8 -1.78662 -2.2919 0
M  V30 42666 H 4040.35 -2.12073 -1.46229 0
M  V30 42667 H 4040.31 -1.18116 -2.91369 0
M  V30 42668 N 4044.08 -0.0652232 -1.57465 0
M  V30 42669 C 4045.03 0.922049 -2.13544 0
M  V30 42670 C 4046.02 1.31273 -1.07069 0
M  V30 42671 O 4047.23 1.29074 -1.25458 0
M  V30 42672 H 4043.6 0.315265 -0.682724 0
M  V30 42673 H 4045.58 0.424086 -2.95371 0
M  V30 42674 C 4044.32 2.18253 -2.70667 0
M  V30 42675 H 4043.65 1.89074 -3.52266 0
M  V30 42676 H 4045.09 2.8546 -3.1351 0
M  V30 42677 C 4043.55 2.93666 -1.65111 0
M  V30 42678 O 4044.08 3.87126 -1.07221 0
M  V30 42679 N 4042.28 2.56653 -1.363 0
M  V30 42680 H 4041.83 1.80725 -1.83565 0
M  V30 42681 H 4041.79 3.07414 -0.659067 0
M  V30 42682 N 4045.56 1.56218 0.208282 0
M  V30 42683 C 4046.49 1.96515 1.26112 0
M  V30 42684 C 4047.47 0.83521 1.48183 0
M  V30 42685 O 4048.66 1.09854 1.60143 0
M  V30 42686 C 4045.79 2.2933 2.60816 0
M  V30 42687 C 4044.74 3.44939 2.53379 0
M  V30 42688 C 4044.07 3.63395 3.92235 0
M  V30 42689 C 4045.37 4.79522 2.07018 0
M  V30 42690 H 4047.06 2.8471 0.9263 0
M  V30 42691 H 4044.61 1.36979 0.444145 0
M  V30 42692 H 4046.56 2.56114 3.34639 0
M  V30 42693 H 4045.28 1.38003 2.96012 0
M  V30 42694 H 4043.94 3.18225 1.82012 0
M  V30 42695 H 4043.59 2.6942 4.24761 0
M  V30 42696 H 4043.29 4.41161 3.88137 0
M  V30 42697 H 4044.81 3.92541 4.677 0
M  V30 42698 H 4046.23 5.05424 2.70592 0
M  V30 42699 H 4044.62 5.60665 2.13951 0
M  V30 42700 H 4045.69 4.73988 1.0229 0
M  V30 42701 N 4047.04 -0.475502 1.50256 0
M  V30 42702 C 4048.45 -1.05648 1.53933 0
M  V30 42703 C 4048.8 -1.93227 0.340259 0
M  V30 42704 O 4047.92 -2.09364 -0.547312 0
M  V30 42705 C 4048.52 -1.92276 2.78954 0
M  V30 42706 C 4047.08 -2.4549 2.85327 0
M  V30 42707 C 4046.23 -1.23725 2.48168 0
M  V30 42708 H 4049.18 -0.258305 1.56584 0
M  V30 42709 H 4049.2 -2.77288 2.6056 0
M  V30 42710 H 4048.71 -1.28508 3.66207 0
M  V30 42711 H 4046.81 -3.12824 2.02416 0
M  V30 42712 H 4046.92 -2.80899 3.88114 0
M  V30 42713 H 4045.29 -1.57063 2.00508 0
M  V30 42714 H 4046.07 -0.616264 3.37723 0
M  V30 42715 N 4048.52 -1.39759 -0.72837 0
M  V30 42716 C 4049.76 -1.37343 -1.48806 0
M  V30 42717 C 4050.09 0.028469 -1.94479 0
M  V30 42718 O 4049.35 1.01059 -1.67588 0
M  V30 42719 C 4049.64 -2.29795 -2.73731 0
M  V30 42720 C 4049.31 -3.77301 -2.4689 0
M  V30 42721 C 4047.97 -4.17491 -2.3928 0
M  V30 42722 C 4050.32 -4.70568 -2.24088 0
M  V30 42723 C 4047.65 -5.49001 -2.06918 0
M  V30 42724 C 4050 -6.02362 -1.93241 0
M  V30 42725 C 4048.67 -6.41609 -1.84104 0
M  V30 42726 H 4047.94 -0.502574 -0.544518 0
M  V30 42727 H 4050.59 -1.72316 -0.835431 0
M  V30 42728 H 4048.89 -1.87964 -3.43769 0
M  V30 42729 H 4050.59 -2.25216 -3.31781 0
M  V30 42730 H 4047.18 -3.45451 -2.53695 0
M  V30 42731 H 4051.36 -4.40345 -2.28932 0
M  V30 42732 H 4046.62 -5.78324 -1.98371 0
M  V30 42733 H 4050.79 -6.74155 -1.74608 0
M  V30 42734 H 4048.42 -7.4343 -1.58794 0
M  V30 42735 N 4049.99 0.959257 -1.25044 0
M  V30 42736 C 4050.94 2.05521 -1.05024 0
M  V30 42737 C 4051.91 1.66054 0.0391648 0
M  V30 42738 O 4053.1 1.9044 -0.117113 0
M  V30 42739 C 4050.24 3.38532 -0.670106 0
M  V30 42740 C 4049.35 3.91143 -1.83388 0
M  V30 42741 C 4048.48 5.12459 -1.39853 0
M  V30 42742 C 4047.52 5.57288 -2.53172 0
M  V30 42743 N 4046.66 6.69818 -2.10447 0
M  V30 42744 H 4051.5 2.21979 -1.9882 0
M  V30 42745 H 4049.04 1.08785 -0.990159 0
M  V30 42746 H 4050.99 4.14971 -0.430694 0
M  V30 42747 H 4049.62 3.21973 0.230867 0
M  V30 42748 H 4048.68 3.11266 -2.18672 0
M  V30 42749 H 4049.99 4.20365 -2.68504 0
M  V30 42750 H 4049.14 5.96301 -1.1185 0
M  V30 42751 H 4047.88 4.84941 -0.518025 0
M  V30 42752 H 4046.89 4.72015 -2.81926 0
M  V30 42753 H 4048.11 5.86816 -3.41794 0
M  V30 42754 H 4046.06 6.44018 -1.24805 0
M  V30 42755 H 4045.97 6.98534 -2.89113 0
M  V30 42756 H 4047.24 7.5708 -1.85606 0
M  V30 42757 N 4051.47 1.06556 1.16119 0
M  V30 42758 C 4052.4 0.700015 2.2276 0
M  V30 42759 C 4053.38 -0.308754 1.67274 0
M  V30 42760 O 4054.57 -0.183294 1.93333 0
M  V30 42761 C 4051.7 0.0884654 3.47187 0
M  V30 42762 C 4050.65 1.0235 4.15582 0
M  V30 42763 C 4049.98 0.275116 5.33992 0
M  V30 42764 C 4051.28 2.35366 4.66262 0
M  V30 42765 H 4052.97 1.59158 2.53593 0
M  V30 42766 H 4050.52 0.766707 1.21892 0
M  V30 42767 H 4052.47 -0.179146 4.21019 0
M  V30 42768 H 4051.2 -0.838125 3.15663 0
M  V30 42769 H 4049.85 1.2759 3.43681 0
M  V30 42770 H 4049.5 -0.654678 4.98721 0
M  V30 42771 H 4049.2 0.898283 5.80693 0
M  V30 42772 H 4050.73 0.0151129 6.10598 0
M  V30 42773 H 4052.14 2.14498 5.31661 0
M  V30 42774 H 4050.54 2.93204 5.23595 0
M  V30 42775 H 4051.61 2.98248 3.8233 0
M  V30 42776 N 4052.95 -1.32808 0.848511 0
M  V30 42777 C 4054.18 -2.0166 0.462679 0
M  V30 42778 C 4054.59 -1.638 -0.938877 0
M  V30 42779 O 4053.95 -0.856198 -1.61169 0
M  V30 42780 C 4054 -3.56736 0.584968 0
M  V30 42781 O 4053.72 -3.93233 1.93131 0
M  V30 42782 C 4055.22 -4.42861 0.197343 0
M  V30 42783 H 4052.44 -0.64569 0.182551 0
M  V30 42784 H 4054.99 -1.69525 1.14375 0
M  V30 42785 H 4053.14 -3.8737 -0.048302 0
M  V30 42786 H 4053.56 -4.87949 1.92369 0
M  V30 42787 H 4055.03 -5.50989 0.333929 0
M  V30 42788 H 4055.51 -4.30665 -0.861657 0
M  V30 42789 H 4056.11 -4.17604 0.805436 0
M  V30 42790 N 4054.43 -0.605858 -1.45489 0
M  V30 42791 C 4055.67 -0.103357 -2.04139 0
M  V30 42792 C 4056.03 1.2419 -1.46427 0
M  V30 42793 O 4057.23 1.83502 -1.96419 0
M  V30 42794 C 4055.5 -0.0628554 -3.57345 0
M  V30 42795 S 4057.06 0.378705 -4.37163 0
M  V30 42796 H 4053.88 -0.0487277 -0.709328 0
M  V30 42797 H 4056.48 -0.803571 -1.78222 0
M  V30 42798 H 4055.19 -1.04549 -3.9686 0
M  V30 42799 H 4054.72 0.659406 -3.87834 0
M  V30 42800 H 4056.73 1.6286 -4.68712 0
M  V30 42801 N 4055.91 1.53779 -0.34492 0
M  V30 42802 C 4056.87 2.23708 0.498742 0
M  V30 42803 C 4057.87 1.23775 1.02647 0
M  V30 42804 O 4059.06 1.48203 0.9155 0
M  V30 42805 C 4056.19 2.95779 1.69492 0
M  V30 42806 H 4057.38 2.99688 -0.112868 0
M  V30 42807 H 4054.94 1.56003 -0.0962887 0
M  V30 42808 H 4055.67 2.2399 2.34518 0
M  V30 42809 H 4055.46 3.69081 1.32369 0
M  V30 42810 H 4056.95 3.48996 2.29328 0
M  V30 42811 N 4057.38 0.0735731 1.57428 0
M  V30 42812 C 4058.61 -0.604113 1.97884 0
M  V30 42813 C 4059.03 -1.63041 0.951997 0
M  V30 42814 O 4058.38 -1.82398 -0.061132 0
M  V30 42815 C 4058.44 -1.2711 3.38416 0
M  V30 42816 O 4058.16 -0.285874 4.37166 0
M  V30 42817 C 4059.66 -2.03644 3.93756 0
M  V30 42818 H 4056.88 -0.163601 0.65075 0
M  V30 42819 H 4059.42 0.146502 2.03975 0
M  V30 42820 H 4057.58 -1.97279 3.33406 0
M  V30 42821 H 4057.99 -0.764607 5.18897 0
M  V30 42822 H 4059.46 -2.45702 4.94302 0
M  V30 42823 H 4059.94 -2.8937 3.30396 0
M  V30 42824 H 4060.55 -1.38338 4.02172 0
M  V30 42825 N 4058.86 -1.56326 -0.199995 0
M  V30 42826 C 4060.09 -1.84443 -0.93747 0
M  V30 42827 C 4060.51 -0.655459 -1.77057 0
M  V30 42828 O 4059.86 0.375881 -1.78587 0
M  V30 42829 C 4059.91 -3.1131 -1.83761 0
M  V30 42830 O 4059.63 -4.25622 -1.03815 0
M  V30 42831 C 4061.14 -3.5257 -2.68718 0
M  V30 42832 H 4058.36 -0.612616 -0.273756 0
M  V30 42833 H 4060.9 -2.03432 -0.208723 0
M  V30 42834 H 4059.05 -2.94233 -2.52004 0
M  V30 42835 H 4059.47 -4.97834 -1.65111 0
M  V30 42836 H 4060.94 -4.4432 -3.27542 0
M  V30 42837 H 4061.42 -2.75329 -3.42185 0
M  V30 42838 H 4062.03 -3.72162 -2.05854 0
M  V30 42839 N 4060.34 0.467527 -1.50506 0
M  V30 42840 C 4061.76 0.801575 -1.38011 0
M  V30 42841 C 4061.96 1.9666 -0.438965 0
M  V30 42842 O 4061.01 2.52228 0.117094 0
M  V30 42843 C 4062.33 1.11029 -2.79451 0
M  V30 42844 C 4063.87 1.21654 -2.88391 0
M  V30 42845 C 4064.35 1.55836 -4.30673 0
M  V30 42846 N 4065.84 1.62821 -4.3364 0
M  V30 42847 C 4066.57 1.90782 -5.40731 0
M  V30 42848 N 4066.07 2.16739 -6.58024 0
M  V30 42849 N 4067.86 1.92313 -5.28178 0
M  V30 42850 H 4060.01 -0.300202 -2.10268 0
M  V30 42851 H 4062.28 -0.0718019 -0.945277 0
M  V30 42852 H 4061.98 0.327264 -3.50174 0
M  V30 42853 H 4061.86 2.0456 -3.16915 0
M  V30 42854 H 4064.24 1.99023 -2.17885 0
M  V30 42855 H 4064.33 0.26094 -2.54466 0
M  V30 42856 H 4063.97 0.790052 -5.01718 0
M  V30 42857 H 4063.9 2.52552 -4.62088 0
M  V30 42858 H 4066.39 1.44786 -3.49063 0
M  V30 42859 H 4066.7 2.37358 -7.35446 0
M  V30 42860 H 4065.05 2.14124 -6.61193 0
M  V30 42861 H 4068.24 1.71534 -4.35539 0
M  V30 42862 H 4068.41 2.13769 -6.11725 0
M  V30 42863 N 4061.82 1.40143 0.720948 0
M  V30 42864 C 4062.75 1.35895 1.84568 0
M  V30 42865 C 4063.76 0.26526 1.60624 0
M  V30 42866 O 4064.95 0.525228 1.70598 0
M  V30 42867 C 4062.05 1.09069 3.20869 0
M  V30 42868 C 4061.23 2.29989 3.72054 0
M  V30 42869 C 4060.28 1.99406 4.86954 0
M  V30 42870 O 4059.31 2.72222 4.99884 0
M  V30 42871 N 4060.51 0.968746 5.7236 0
M  V30 42872 H 4063.28 2.32825 1.88713 0
M  V30 42873 H 4060.84 1.34427 0.902269 0
M  V30 42874 H 4062.83 0.866049 3.95325 0
M  V30 42875 H 4061.4 0.208243 3.11906 0
M  V30 42876 H 4060.62 2.68317 2.8879 0
M  V30 42877 H 4061.91 3.10612 4.02986 0
M  V30 42878 H 4061.31 0.365559 5.64518 0
M  V30 42879 H 4059.86 0.804 6.46822 0
M  V30 42880 N 4063.3 -0.952612 1.25551 0
M  V30 42881 C 4064.54 -1.69998 1.10583 0
M  V30 42882 C 4064.88 -1.90983 -0.352027 0
M  V30 42883 O 4064.15 -1.48224 -1.25936 0
M  V30 42884 C 4064.43 -3.0817 1.86289 0
M  V30 42885 C 4064.29 -2.94582 3.39914 0
M  V30 42886 C 4065.61 -4.08095 1.64762 0
M  V30 42887 H 4062.72 -0.616989 0.403105 0
M  V30 42888 H 4065.37 -1.10717 1.54408 0
M  V30 42889 H 4063.52 -3.58775 1.4904 0
M  V30 42890 H 4065.19 -2.51287 3.8685 0
M  V30 42891 H 4063.43 -2.30456 3.67522 0
M  V30 42892 H 4064.1 -3.92532 3.88101 0
M  V30 42893 H 4066.58 -3.66407 1.97193 0
M  V30 42894 H 4065.45 -5.0281 2.20166 0
M  V30 42895 H 4065.72 -4.38153 0.589425 0
M  V30 42896 N 4064.77 -1.0717 -1.15553 0
M  V30 42897 C 4066.02 -0.794927 -1.86571 0
M  V30 42898 C 4066.35 0.677244 -1.82008 0
M  V30 42899 O 4065.63 1.49688 -1.24192 0
M  V30 42900 C 4065.91 -1.30143 -3.3576 0
M  V30 42901 C 4065.76 -2.83802 -3.48965 0
M  V30 42902 C 4067.08 -0.916478 -4.30452 0
M  V30 42903 H 4064.2 -0.290242 -0.677443 0
M  V30 42904 H 4066.84 -1.32916 -1.35769 0
M  V30 42905 H 4064.99 -0.846982 -3.79155 0
M  V30 42906 H 4066.67 -3.37522 -3.14446 0
M  V30 42907 H 4064.91 -3.22092 -2.90585 0
M  V30 42908 H 4065.58 -3.1431 -4.53777 0
M  V30 42909 H 4068.06 -1.30804 -3.95006 0
M  V30 42910 H 4066.93 -1.29824 -5.33326 0
M  V30 42911 H 4067.19 0.177772 -4.41742 0
M  V30 42912 N 4066.25 1.32356 -0.855542 0
M  V30 42913 C 4067.2 2.3079 -0.289612 0
M  V30 42914 C 4068.2 1.58886 0.587492 0
M  V30 42915 O 4069.4 1.73614 0.475197 0
M  V30 42916 H 4065.78 0.748256 -0.074951 0
M  V30 42917 H 4067.75 2.76012 -1.13403 0
M  V30 42918 C 4066.5 3.43992 0.506409 0
M  V30 42919 H 4065.82 3.99483 -0.159217 0
M  V30 42920 H 4067.26 4.15021 0.867962 0
M  V30 42921 C 4065.72 2.91331 1.69198 0
M  V30 42922 O 4066.25 2.88897 2.79108 0
M  V30 42923 N 4064.45 2.47719 1.51934 0
M  V30 42924 H 4064 2.49897 0.625238 0
M  V30 42925 H 4063.96 2.12838 2.31403 0
M  V30 42926 N 4067.73 0.613565 1.45166 0
M  V30 42927 C 4068.98 0.111263 2.02495 0
M  V30 42928 C 4069.31 -1.25716 1.48017 0
M  V30 42929 O 4068.59 -1.8306 0.65722 0
M  V30 42930 C 4068.87 0.0788232 3.60014 0
M  V30 42931 C 4068.72 1.47834 4.24812 0
M  V30 42932 C 4070.04 -0.605887 4.35909 0
M  V30 42933 H 4067.16 0.0419061 0.735808 0
M  V30 42934 H 4069.8 0.786681 1.72949 0
M  V30 42935 H 4067.95 -0.496343 3.85316 0
M  V30 42936 H 4069.62 2.10105 4.10675 0
M  V30 42937 H 4067.87 2.03733 3.82982 0
M  V30 42938 H 4068.54 1.40783 5.33745 0
M  V30 42939 H 4071.01 -0.116946 4.15936 0
M  V30 42940 H 4069.89 -0.597712 5.45636 0
M  V30 42941 H 4070.15 -1.67308 4.09219 0
M  V30 42942 N 4069.21 -1.53594 0.353071 0
M  V30 42943 C 4070.46 -2.01365 -0.240869 0
M  V30 42944 C 4070.79 -1.24026 -1.49436 0
M  V30 42945 O 4070.06 -0.330485 -1.91672 0
M  V30 42946 C 4070.35 -3.55945 -0.545434 0
M  V30 42947 C 4070.2 -4.43987 0.72082 0
M  V30 42948 C 4071.52 -4.18846 -1.35116 0
M  V30 42949 H 4068.64 -0.731957 -0.0860709 0
M  V30 42950 H 4071.28 -1.83954 0.475491 0
M  V30 42951 H 4069.43 -3.70912 -1.15571 0
M  V30 42952 H 4071.1 -4.4084 1.35859 0
M  V30 42953 H 4069.34 -4.12463 1.34377 0
M  V30 42954 H 4070.02 -5.50056 0.462845 0
M  V30 42955 H 4072.49 -4.07635 -0.835032 0
M  V30 42956 H 4071.37 -5.27058 -1.53301 0
M  V30 42957 H 4071.63 -3.74089 -2.35606 0
M  V30 42958 N 4070.69 -0.0819208 -1.57387 0
M  V30 42959 C 4071.92 0.59361 -1.98202 0
M  V30 42960 C 4072.33 1.62534 -0.96063 0
M  V30 42961 O 4071.69 1.82427 0.0514582 0
M  V30 42962 C 4071.74 1.25314 -3.39085 0
M  V30 42963 O 4071.46 0.262686 -4.37312 0
M  V30 42964 C 4072.96 2.01553 -3.94831 0
M  V30 42965 H 4070.18 0.160148 -0.651609 0
M  V30 42966 H 4072.72 -0.157317 -2.03894 0
M  V30 42967 H 4070.88 1.95508 -3.34448 0
M  V30 42968 H 4071.29 0.737078 -5.19295 0
M  V30 42969 H 4072.77 2.43077 -4.95598 0
M  V30 42970 H 4073.24 2.87614 -3.31926 0
M  V30 42971 H 4073.85 1.36204 -4.029 0
M  V30 42972 N 4072.17 1.5643 0.191702 0
M  V30 42973 C 4073.39 1.84937 0.927676 0
M  V30 42974 C 4073.81 0.66484 1.76707 0
M  V30 42975 O 4073.17 -0.366405 1.78784 0
M  V30 42976 C 4073.22 3.12281 1.82107 0
M  V30 42977 O 4072.94 4.26166 1.01557 0
M  V30 42978 C 4074.44 3.5399 2.66844 0
M  V30 42979 H 4071.66 0.614059 0.270504 0
M  V30 42980 H 4074.2 2.0354 0.197932 0
M  V30 42981 H 4072.36 2.95565 2.5044 0
M  V30 42982 H 4072.77 4.98702 1.62469 0
M  V30 42983 H 4074.25 4.46051 3.25181 0
M  V30 42984 H 4074.72 2.7714 3.4072 0
M  V30 42985 H 4075.33 3.73248 2.03877 0
M  V30 42986 N 4073.64 -0.459538 1.50751 0
M  V30 42987 C 4074.59 -1.55606 1.70457 0
M  V30 42988 C 4075.56 -1.56871 0.545949 0
M  V30 42989 O 4076.75 -1.74224 0.777855 0
M  V30 42990 C 4073.89 -2.93498 1.81529 0
M  V30 42991 C 4073 -3.01933 3.08967 0
M  V30 42992 C 4072.13 -4.30811 3.10766 0
M  V30 42993 C 4071.17 -4.3303 4.3261 0
M  V30 42994 N 4070.31 -5.53397 4.32083 0
M  V30 42995 H 4075.15 -1.38108 2.64065 0
M  V30 42996 H 4072.69 -0.671284 1.3089 0
M  V30 42997 H 4074.64 -3.73478 1.8593 0
M  V30 42998 H 4073.27 -3.09605 0.9135 0
M  V30 42999 H 4072.33 -2.14753 3.13983 0
M  V30 43000 H 4073.64 -2.99433 3.98925 0
M  V30 43001 H 4072.79 -5.19147 3.1396 0
M  V30 43002 H 4071.53 -4.35936 2.18658 0
M  V30 43003 H 4070.54 -3.43089 4.29616 0
M  V30 43004 H 4071.76 -4.29587 5.25958 0
M  V30 43005 H 4069.71 -5.59286 3.42834 0
M  V30 43006 H 4069.62 -5.52686 5.15824 0
M  V30 43007 H 4070.89 -6.43827 4.39439 0
M  V30 43008 N 4075.12 -1.40523 -0.713506 0
M  V30 43009 C 4076.37 -1.38218 -1.46897 0
M  V30 43010 C 4076.68 0.0117966 -1.95596 0
M  V30 43011 O 4077.89 0.157466 -2.71043 0
M  V30 43012 C 4076.35 -2.42934 -2.6554 0
M  V30 43013 C 4075.95 -3.88152 -2.23701 0
M  V30 43014 C 4077.7 -2.49738 -3.43265 0
M  V30 43015 C 4075.6 -4.84459 -3.39195 0
M  V30 43016 H 4074.53 -0.513939 -0.551709 0
M  V30 43017 H 4077.19 -1.66269 -0.776328 0
M  V30 43018 H 4075.57 -2.07986 -3.36984 0
M  V30 43019 H 4076.74 -4.32255 -1.59663 0
M  V30 43020 H 4075.06 -3.84842 -1.59014 0
M  V30 43021 H 4077.65 -3.18878 -4.2921 0
M  V30 43022 H 4078 -1.52855 -3.87222 0
M  V30 43023 H 4078.53 -2.83688 -2.78866 0
M  V30 43024 H 4075.27 -5.82683 -3.00268 0
M  V30 43025 H 4074.79 -4.4502 -4.02141 0
M  V30 43026 H 4076.47 -5.04378 -4.05231 0
M  V30 43027 N 4076.6 0.94594 -1.26054 0
M  V30 43028 C 4077.56 2.02551 -1.07265 0
M  V30 43029 C 4078.56 1.60784 -0.0225519 0
M  V30 43030 O 4079.75 1.72164 -0.265531 0
M  V30 43031 C 4076.88 3.35018 -0.630509 0
M  V30 43032 H 4078.08 2.20651 -2.03109 0
M  V30 43033 H 4075.63 1.12424 -1.08584 0
M  V30 43034 H 4076.37 3.22615 0.330131 0
M  V30 43035 H 4076.15 3.66685 -1.3887 0
M  V30 43036 H 4077.64 4.1434 -0.520747 0
M  V30 43037 N 4078.08 1.07781 1.14983 0
M  V30 43038 C 4079.01 0.723603 2.22005 0
M  V30 43039 C 4079.99 -0.290995 1.67592 0
M  V30 43040 O 4081.17 -0.162778 1.93517 0
M  V30 43041 C 4078.3 0.125284 3.47074 0
M  V30 43042 C 4077.26 1.06752 4.14473 0
M  V30 43043 C 4076.58 0.331737 5.3367 0
M  V30 43044 C 4077.88 2.40298 4.63739 0
M  V30 43045 H 4079.58 1.61838 2.5189 0
M  V30 43046 H 4077.12 0.779592 1.21072 0
M  V30 43047 H 4079.08 -0.134481 4.21185 0
M  V30 43048 H 4077.8 -0.804598 3.16534 0
M  V30 43049 H 4076.46 1.31228 3.42308 0
M  V30 43050 H 4076.11 -0.601745 4.99388 0
M  V30 43051 H 4075.81 0.959823 5.79708 0
M  V30 43052 H 4077.33 0.0798741 6.10548 0
M  V30 43053 H 4078.75 2.20124 5.29356 0
M  V30 43054 H 4077.14 2.98741 5.20455 0
M  V30 43055 H 4078.21 3.02286 3.79145 0
M  V30 43056 N 4079.56 -1.31901 0.862549 0
M  V30 43057 C 4080.5 -2.28696 0.31095 0
M  V30 43058 C 4081.47 -1.55402 -0.586467 0
M  V30 43059 O 4082.66 -1.83586 -0.519694 0
M  V30 43060 C 4079.8 -3.41633 -0.487926 0
M  V30 43061 C 4078.91 -4.29792 0.436171 0
M  V30 43062 C 4078.05 -5.29867 -0.376104 0
M  V30 43063 C 4077.08 -6.0967 0.544891 0
M  V30 43064 N 4076.22 -7.01721 -0.230683 0
M  V30 43065 H 4081.06 -2.75266 1.1416 0
M  V30 43066 H 4078.6 -1.35423 0.574376 0
M  V30 43067 H 4080.56 -4.05843 -0.966803 0
M  V30 43068 H 4079.19 -2.96193 -1.28334 0
M  V30 43069 H 4078.24 -3.66092 1.03347 0
M  V30 43070 H 4079.55 -4.85535 1.14268 0
M  V30 43071 H 4078.7 -5.99718 -0.91781 0
M  V30 43072 H 4077.44 -4.74761 -1.11594 0
M  V30 43073 H 4076.45 -5.38716 1.09842 0
M  V30 43074 H 4077.67 -6.66861 1.28346 0
M  V30 43075 H 4075.62 -6.49034 -0.953466 0
M  V30 43076 H 4075.54 -7.54851 0.416632 0
M  V30 43077 H 4076.8 -7.75846 -0.75386 0
M  V30 43078 N 4081.03 -0.621255 -1.44838 0
M  V30 43079 C 4082.28 -0.121579 -2.01734 0
M  V30 43080 C 4082.6 1.25743 -1.49043 0
M  V30 43081 O 4081.87 1.83343 -0.690088 0
M  V30 43082 H 4080.45 -0.041955 -0.745821 0
M  V30 43083 H 4083.12 -0.805733 -1.77465 0
M  V30 43084 H 4082.21 -0.081743 -3.11993 0
M  V30 43085 N 4082.51 1.53405 -0.361211 0
M  V30 43086 C 4083.76 2.00794 0.229392 0
M  V30 43087 C 4084.08 1.25032 1.4964 0
M  V30 43088 O 4083.35 0.362367 1.92519 0
M  V30 43089 H 4081.93 0.741827 0.0877557 0
M  V30 43090 H 4084.59 1.88732 -0.486439 0
M  V30 43091 H 4083.69 3.087 0.45945 0
M  V30 43092 N 4083.99 0.0902663 1.57341 0
M  V30 43093 C 4084.94 -0.870411 2.13758 0
M  V30 43094 C 4085.91 -1.28304 1.05486 0
M  V30 43095 O 4087.09 -1.36565 1.33247 0
M  V30 43096 C 4084.23 -2.12592 2.71843 0
M  V30 43097 C 4083.35 -1.76426 3.94332 0
M  V30 43098 C 4082.48 -2.96727 4.40598 0
M  V30 43099 C 4081.52 -2.56664 5.55689 0
M  V30 43100 N 4080.66 -3.69784 5.96829 0
M  V30 43101 H 4085.5 -0.382448 2.95536 0
M  V30 43102 H 4083.03 -0.177109 1.4603 0
M  V30 43103 H 4084.99 -2.86113 3.03637 0
M  V30 43104 H 4083.62 -2.58897 1.92801 0
M  V30 43105 H 4082.67 -0.928931 3.68883 0
M  V30 43106 H 4083.99 -1.42964 4.77873 0
M  V30 43107 H 4083.14 -3.78506 4.7415 0
M  V30 43108 H 4081.88 -3.33395 3.55948 0
M  V30 43109 H 4080.88 -1.7331 5.2177 0
M  V30 43110 H 4082.11 -2.21145 6.42084 0
M  V30 43111 H 4080.05 -4.0618 5.15125 0
M  V30 43112 H 4079.97 -3.40151 6.75154 0
M  V30 43113 H 4081.24 -4.52087 6.3501 0
M  V30 43114 N 4085.47 -1.56529 -0.183403 0
M  V30 43115 C 4086.72 -1.80497 -0.900206 0
M  V30 43116 C 4087.03 -0.665486 -1.83931 0
M  V30 43117 O 4088.24 -0.789773 -2.59759 0
M  V30 43118 C 4086.69 -3.19787 -1.6512 0
M  V30 43119 C 4086.3 -4.41569 -0.756333 0
M  V30 43120 C 4088.04 -3.53056 -2.35694 0
M  V30 43121 C 4085.95 -5.71881 -1.50686 0
M  V30 43122 H 4084.88 -0.673048 -0.339887 0
M  V30 43123 H 4087.53 -1.82859 -0.153295 0
M  V30 43124 H 4085.91 -3.11708 -2.44242 0
M  V30 43125 H 4087.09 -4.608 -0.0029341 0
M  V30 43126 H 4085.4 -4.16089 -0.160843 0
M  V30 43127 H 4088 -4.47656 -2.92418 0
M  V30 43128 H 4088.34 -2.77357 -3.10449 0
M  V30 43129 H 4088.88 -3.62634 -1.63527 0
M  V30 43130 H 4085.62 -6.50577 -0.80187 0
M  V30 43131 H 4085.14 -5.56648 -2.23389 0
M  V30 43132 H 4086.81 -6.13411 -2.05757 0
M  V30 43133 N 4086.95 0.451537 -1.50993 0
M  V30 43134 C 4088.19 1.20391 -1.63199 0
M  V30 43135 C 4088.53 1.91193 -0.340443 0
M  V30 43136 O 4087.8 1.82988 0.659228 0
M  V30 43137 C 4088.08 2.23216 -2.82571 0
M  V30 43138 C 4087.94 1.56591 -4.21663 0
M  V30 43139 C 4089.26 3.24342 -2.97474 0
M  V30 43140 H 4086.37 0.436329 -0.593958 0
M  V30 43141 H 4089.02 0.495024 -1.83438 0
M  V30 43142 H 4087.17 2.83674 -2.65446 0
M  V30 43143 H 4088.84 0.995798 -4.50424 0
M  V30 43144 H 4087.08 0.868546 -4.25016 0
M  V30 43145 H 4087.75 2.31407 -5.01154 0
M  V30 43146 H 4090.23 2.73926 -3.13216 0
M  V30 43147 H 4089.1 3.93596 -3.82587 0
M  V30 43148 H 4089.37 3.89617 -2.08928 0
M  V30 43149 N 4088.42 1.409 0.706044 0
M  V30 43150 C 4089.37 1.42109 1.84141 0
M  V30 43151 C 4090.37 0.300396 1.66715 0
M  V30 43152 O 4091.57 0.47191 1.73704 0
M  V30 43153 H 4087.95 0.444416 0.606628 0
M  V30 43154 H 4089.92 2.37818 1.80237 0
M  V30 43155 C 4088.67 1.30992 3.22081 0
M  V30 43156 H 4087.99 2.16509 3.36101 0
M  V30 43157 H 4089.43 1.35898 4.01631 0
M  V30 43158 C 4087.89 0.021131 3.36893 0
M  V30 43159 O 4088.42 -0.938173 3.90591 0
M  V30 43160 N 4086.63 -0.0515142 2.90554 0
M  V30 43161 H 4086.17 0.729877 2.47044 0
M  V30 43162 H 4086.13 -0.913267 3.00843 0
M  V30 43163 N 4089.9 -0.939242 1.26554 0
M  V30 43164 C 4090.85 -2.05956 1.08096 0
M  V30 43165 C 4091.84 -1.69398 0.00733257 0
M  V30 43166 O 4093.05 -1.7925 0.164163 0
M  V30 43167 H 4089.43 -0.674389 0.332722 0
M  V30 43168 H 4091.4 -2.18676 2.03036 0
M  V30 43169 C 4090.15 -3.39892 0.732732 0
M  V30 43170 H 4089.47 -3.685 1.55074 0
M  V30 43171 H 4090.91 -4.1909 0.643378 0
M  V30 43172 C 4089.37 -3.32175 -0.562242 0
M  V30 43173 O 4089.9 -3.6846 -1.6 0
M  V30 43174 N 4088.1 -2.85278 -0.553593 0
M  V30 43175 H 4087.65 -2.55948 0.29131 0
M  V30 43176 H 4087.61 -2.80498 -1.42015 0
M  V30 43177 N 4091.38 -1.08389 -1.14409 0
M  V30 43178 C 4092.63 -0.824525 -1.85939 0
M  V30 43179 C 4092.98 0.642745 -1.81346 0
M  V30 43180 O 4092.27 1.46645 -1.23312 0
M  V30 43181 C 4092.47 -1.28036 -3.33679 0
M  V30 43182 C 4092.3 -2.79041 -3.52656 0
M  V30 43183 C 4091.07 -3.46786 -3.67516 0
M  V30 43184 C 4093.27 -3.77214 -3.49592 0
M  V30 43185 N 4091.25 -4.86324 -3.7465 0
M  V30 43186 C 4092.62 -5.02648 -3.62967 0
M  V30 43187 C 4094.67 -3.70221 -3.32928 0
M  V30 43188 C 4093.38 -6.21918 -3.61401 0
M  V30 43189 C 4095.4 -4.88966 -3.32665 0
M  V30 43190 C 4094.76 -6.13238 -3.46581 0
M  V30 43191 H 4090.86 -0.354425 -0.69707 0
M  V30 43192 H 4093.45 -1.38221 -1.37124 0
M  V30 43193 H 4091.62 -0.750245 -3.81085 0
M  V30 43194 H 4093.35 -0.967426 -3.92967 0
M  V30 43195 H 4090.11 -2.97201 -3.68739 0
M  V30 43196 H 4090.53 -5.58977 -3.81934 0
M  V30 43197 H 4095.17 -2.75077 -3.2108 0
M  V30 43198 H 4092.89 -7.17372 -3.72025 0
M  V30 43199 H 4096.48 -4.85243 -3.20984 0
M  V30 43200 H 4095.36 -7.03583 -3.46324 0
M  V30 43201 N 4092.86 1.31442 -0.869532 0
M  V30 43202 C 4093.79 2.31001 -0.340719 0
M  V30 43203 C 4094.77 1.60331 0.568158 0
M  V30 43204 O 4095.95 1.88039 0.485272 0
M  V30 43205 C 4093.08 3.44253 0.45903 0
M  V30 43206 C 4092.04 4.26511 -0.356714 0
M  V30 43207 C 4091.36 5.31667 0.568692 0
M  V30 43208 C 4092.66 4.97493 -1.59054 0
M  V30 43209 H 4094.36 2.7548 -1.17265 0
M  V30 43210 H 4091.9 1.32439 -0.565323 0
M  V30 43211 H 4093.86 4.12953 0.8395 0
M  V30 43212 H 4092.58 2.98539 1.32446 0
M  V30 43213 H 4091.24 3.59478 -0.719126 0
M  V30 43214 H 4090.89 4.82203 1.43139 0
M  V30 43215 H 4090.59 5.87594 0.0267873 0
M  V30 43216 H 4092.11 6.03227 0.946016 0
M  V30 43217 H 4093.53 5.58793 -1.28153 0
M  V30 43218 H 4091.92 5.63214 -2.07149 0
M  V30 43219 H 4092.99 4.24503 -2.34361 0
M  V30 43220 N 4094.34 0.628927 1.44507 0
M  V30 43221 C 4095.28 -0.0773092 2.3067 0
M  V30 43222 C 4096.25 -0.838978 1.43354 0
M  V30 43223 O 4097.44 -0.820457 1.72259 0
M  V30 43224 C 4094.58 -1.05441 3.28597 0
M  V30 43225 C 4093.69 -0.291389 4.31016 0
M  V30 43226 C 4092.83 -1.26011 5.16037 0
M  V30 43227 C 4091.87 -0.486122 6.10167 0
M  V30 43228 N 4091 -1.40519 6.87894 0
M  V30 43229 H 4095.84 0.663397 2.90522 0
M  V30 43230 H 4093.38 0.338931 1.43142 0
M  V30 43231 H 4095.34 -1.63426 3.83859 0
M  V30 43232 H 4093.97 -1.76227 2.70451 0
M  V30 43233 H 4093.02 0.404351 3.78245 0
M  V30 43234 H 4094.33 0.311535 4.97826 0
M  V30 43235 H 4093.49 -1.91137 5.75805 0
M  V30 43236 H 4092.22 -1.89696 4.49296 0
M  V30 43237 H 4091.23 0.17864 5.4951 0
M  V30 43238 H 4092.45 0.145979 6.78943 0
M  V30 43239 H 4090.4 -2.02929 6.23823 0
M  V30 43240 H 4090.32 -0.856237 7.51136 0
M  V30 43241 H 4091.59 -2.04536 7.52187 0
M  V30 43242 N 4095.82 -1.53211 0.369342 0
M  V30 43243 C 4096.75 -2.23451 -0.510122 0
M  V30 43244 C 4097.76 -1.24993 -1.04311 0
M  V30 43245 O 4098.95 -1.51193 -0.948842 0
M  V30 43246 C 4096.05 -2.92157 -1.71748 0
M  V30 43247 C 4095.22 -4.17154 -1.31534 0
M  V30 43248 C 4094.28 -4.69037 -2.38518 0
M  V30 43249 O 4093.31 -5.32623 -2.00752 0
M  V30 43250 N 4094.51 -4.47173 -3.70157 0
M  V30 43251 H 4097.27 -2.9956 0.0915557 0
M  V30 43252 H 4094.84 -1.60725 0.194704 0
M  V30 43253 H 4096.83 -3.23773 -2.42802 0
M  V30 43254 H 4095.4 -2.19478 -2.22594 0
M  V30 43255 H 4094.62 -3.91798 -0.434494 0
M  V30 43256 H 4095.91 -4.98409 -1.02302 0
M  V30 43257 H 4095.3 -3.96375 -4.03613 0
M  V30 43258 H 4093.86 -4.8333 -4.37304 0
M  V30 43259 N 4097.29 -0.0986092 -1.57291 0
M  V30 43260 C 4098.22 0.856093 -2.1724 0
M  V30 43261 C 4099.2 1.29174 -1.10671 0
M  V30 43262 O 4100.39 1.358 -1.38823 0
M  V30 43263 C 4097.52 2.11393 -2.75555 0
M  V30 43264 C 4096.47 1.81678 -3.87527 0
M  V30 43265 C 4095.8 3.1432 -4.32559 0
M  V30 43266 C 4097.1 1.10099 -5.10564 0
M  V30 43267 H 4098.79 0.356604 -2.97269 0
M  V30 43268 H 4096.34 0.170083 -1.42992 0
M  V30 43269 H 4098.29 2.78621 -3.16146 0
M  V30 43270 H 4097.02 2.63631 -1.92786 0
M  V30 43271 H 4095.68 1.16847 -3.4748 0
M  V30 43272 H 4095.32 3.64452 -3.46676 0
M  V30 43273 H 4095.02 2.95219 -5.08055 0
M  V30 43274 H 4096.55 3.827 -4.75786 0
M  V30 43275 H 4097.96 1.67443 -5.48302 0
M  V30 43276 H 4096.36 1.01165 -5.91511 0
M  V30 43277 H 4097.43 0.0843189 -4.84827 0
M  V30 43278 N 4098.77 1.56624 0.175099 0
M  V30 43279 C 4100.02 1.80972 0.890621 0
M  V30 43280 C 4100.33 0.675231 1.83576 0
M  V30 43281 O 4101.54 0.803538 2.59337 0
M  V30 43282 C 4100 3.20658 1.63422 0
M  V30 43283 C 4099.6 4.41964 0.732905 0
M  V30 43284 C 4101.35 3.54301 2.33819 0
M  V30 43285 C 4099.25 5.72672 1.47651 0
M  V30 43286 H 4098.18 0.674841 0.336313 0
M  V30 43287 H 4100.84 1.82937 0.143595 0
M  V30 43288 H 4099.22 3.12999 2.42586 0
M  V30 43289 H 4100.39 4.60795 -0.0215033 0
M  V30 43290 H 4098.71 4.16169 0.138775 0
M  V30 43291 H 4101.3 4.492 2.9004 0
M  V30 43292 H 4101.65 2.79 3.08974 0
M  V30 43293 H 4102.18 3.63497 1.61602 0
M  V30 43294 H 4098.92 6.50993 0.767357 0
M  V30 43295 H 4098.44 5.57825 2.20434 0
M  V30 43296 H 4100.12 6.14494 2.02501 0
M  V30 43297 N 4100.25 -0.443523 1.5123 0
M  V30 43298 C 4101.2 -1.53789 1.72097 0
M  V30 43299 C 4102.17 -1.56283 0.562556 0
M  V30 43300 O 4103.35 -1.73389 0.79629 0
M  V30 43301 C 4100.49 -2.91556 1.84632 0
M  V30 43302 C 4099.6 -2.98639 3.12152 0
M  V30 43303 C 4098.74 -4.2749 3.15318 0
M  V30 43304 C 4097.78 -4.28417 4.37178 0
M  V30 43305 N 4096.92 -5.48783 4.37928 0
M  V30 43306 H 4101.76 -1.35299 2.65515 0
M  V30 43307 H 4099.29 -0.657364 1.31595 0
M  V30 43308 H 4101.25 -3.71485 1.89881 0
M  V30 43309 H 4099.88 -3.08618 0.946286 0
M  V30 43310 H 4098.93 -2.11411 3.16243 0
M  V30 43311 H 4100.24 -2.95185 4.02079 0
M  V30 43312 H 4099.4 -5.15788 3.19449 0
M  V30 43313 H 4098.14 -4.33592 2.23269 0
M  V30 43314 H 4097.14 -3.38513 4.33231 0
M  V30 43315 H 4098.37 -4.23984 5.30485 0
M  V30 43316 H 4096.31 -5.55618 3.48747 0
M  V30 43317 H 4096.23 -5.47184 5.21656 0
M  V30 43318 H 4097.5 -6.3913 4.46243 0
M  V30 43319 N 4101.73 -1.41272 -0.698562 0
M  V30 43320 C 4102.97 -1.40677 -1.46075 0
M  V30 43321 C 4103.31 -0.0147115 -1.94194 0
M  V30 43322 O 4102.58 0.957006 -1.69327 0
M  V30 43323 C 4102.86 -2.41098 -2.67477 0
M  V30 43324 C 4102.72 -3.89398 -2.25142 0
M  V30 43325 C 4104.04 -2.38815 -3.69669 0
M  V30 43326 H 4101.16 -0.512297 -0.52983 0
M  V30 43327 H 4103.8 -1.72527 -0.795888 0
M  V30 43328 H 4101.95 -2.14068 -3.24202 0
M  V30 43329 H 4103.62 -4.2732 -1.73767 0
M  V30 43330 H 4101.86 -4.04409 -1.56958 0
M  V30 43331 H 4102.53 -4.55204 -3.12239 0
M  V30 43332 H 4105.01 -2.62796 -3.2261 0
M  V30 43333 H 4103.89 -3.11098 -4.52227 0
M  V30 43334 H 4104.15 -1.40569 -4.19157 0
M  V30 43335 N 4103.21 0.932517 -1.27051 0
M  V30 43336 C 4104.43 1.71387 -1.15906 0
M  V30 43337 C 4104.85 1.86641 0.284693 0
M  V30 43338 O 4104.21 1.38 1.19425 0
M  V30 43339 C 4104.26 3.11606 -1.83259 0
M  V30 43340 O 4103.98 2.97072 -3.21993 0
M  V30 43341 C 4105.48 4.05915 -1.78179 0
M  V30 43342 H 4102.7 0.536344 -0.403207 0
M  V30 43343 H 4105.24 1.16844 -1.67833 0
M  V30 43344 H 4103.4 3.63024 -1.35249 0
M  V30 43345 H 4103.81 3.85684 -3.55454 0
M  V30 43346 H 4105.29 5.01834 -2.29928 0
M  V30 43347 H 4105.76 4.32747 -0.750112 0
M  V30 43348 H 4106.37 3.60421 -2.25781 0
M  V30 43349 N 4104.68 1.08995 1.13833 0
M  V30 43350 C 4105.61 0.747109 2.21225 0
M  V30 43351 C 4106.59 -0.273203 1.67892 0
M  V30 43352 O 4107.78 -0.142244 1.93678 0
M  V30 43353 C 4104.91 0.162089 3.46922 0
M  V30 43354 C 4103.86 1.11142 4.13318 0
M  V30 43355 C 4103.19 0.388321 5.33288 0
M  V30 43356 C 4104.49 2.45203 4.61165 0
M  V30 43357 H 4106.18 1.64501 2.5016 0
M  V30 43358 H 4103.73 0.79239 1.20238 0
M  V30 43359 H 4105.68 -0.0898013 4.21304 0
M  V30 43360 H 4104.41 -0.77098 3.1737 0
M  V30 43361 H 4103.07 1.34851 3.40897 0
M  V30 43362 H 4102.71 -0.548744 4.99998 0
M  V30 43363 H 4102.41 1.02125 5.78657 0
M  V30 43364 H 4103.94 0.144626 6.10429 0
M  V30 43365 H 4105.35 2.25727 5.26992 0
M  V30 43366 H 4103.75 3.04244 5.17258 0
M  V30 43367 H 4104.82 3.0629 3.75918 0
M  V30 43368 N 4106.16 -1.30979 0.87649 0
M  V30 43369 C 4107.41 -1.96756 0.491402 0
M  V30 43370 C 4107.74 -1.69082 -0.955244 0
M  V30 43371 O 4107.02 -0.990872 -1.67368 0
M  V30 43372 C 4107.3 -3.52057 0.756807 0
M  V30 43373 C 4107.15 -3.8928 2.25346 0
M  V30 43374 C 4108.47 -4.39511 0.227626 0
M  V30 43375 H 4105.59 -0.714678 0.180011 0
M  V30 43376 H 4108.23 -1.54995 1.09893 0
M  V30 43377 H 4106.38 -3.8776 0.239725 0
M  V30 43378 H 4108.05 -3.63646 2.8383 0
M  V30 43379 H 4106.3 -3.37653 2.72347 0
M  V30 43380 H 4106.97 -4.97587 2.38979 0
M  V30 43381 H 4109.44 -4.10669 0.670088 0
M  V30 43382 H 4108.32 -5.47112 0.442725 0
M  V30 43383 H 4108.58 -4.3344 -0.870757 0
M  V30 43384 N 4107.64 -0.636582 -1.44171 0
M  V30 43385 C 4108.89 -0.143252 -2.01993 0
M  V30 43386 C 4109.21 1.23686 -1.50106 0
M  V30 43387 O 4108.47 1.83593 -0.677659 0
M  V30 43388 C 4108.77 -0.0850561 -3.57299 0
M  V30 43389 C 4108.43 -1.40468 -4.28462 0
M  V30 43390 C 4107.1 -1.76609 -4.47619 0
M  V30 43391 C 4109.45 -2.27549 -4.68904 0
M  V30 43392 C 4106.78 -2.99528 -5.0448 0
M  V30 43393 C 4109.13 -3.49744 -5.27126 0
M  V30 43394 C 4107.79 -3.86101 -5.44502 0
M  V30 43395 H 4107.06 -0.0524196 -0.739144 0
M  V30 43396 H 4109.71 -0.823983 -1.72866 0
M  V30 43397 H 4108.01 0.679066 -3.8587 0
M  V30 43398 H 4109.71 0.313259 -3.99775 0
M  V30 43399 H 4106.3 -1.11344 -4.13885 0
M  V30 43400 H 4110.49 -2.00921 -4.53811 0
M  V30 43401 H 4105.74 -3.27767 -5.16119 0
M  V30 43402 H 4109.92 -4.1745 -5.57412 0
M  V30 43403 H 4107.54 -4.81429 -5.88328 0
M  V30 43404 N 4109.12 1.53013 -0.377462 0
M  V30 43405 C 4110.05 2.29023 0.455063 0
M  V30 43406 C 4111.03 1.31928 1.07373 0
M  V30 43407 O 4112.21 1.60811 1.08874 0
M  V30 43408 C 4109.34 3.08829 1.58878 0
M  V30 43409 C 4108.3 4.13709 1.09676 0
M  V30 43410 C 4107.62 4.81668 2.32163 0
M  V30 43411 C 4108.92 5.22013 0.173073 0
M  V30 43412 H 4110.62 2.98864 -0.179105 0
M  V30 43413 H 4108.16 1.43733 -0.0875802 0
M  V30 43414 H 4110.12 3.60756 2.17792 0
M  V30 43415 H 4108.84 2.36699 2.25036 0
M  V30 43416 H 4107.5 3.62745 0.530227 0
M  V30 43417 H 4107.15 4.06099 2.96804 0
M  V30 43418 H 4106.85 5.52549 1.99909 0
M  V30 43419 H 4108.37 5.36395 2.91742 0
M  V30 43420 H 4109.79 5.69371 0.670045 0
M  V30 43421 H 4108.18 6.00071 -0.0591518 0
M  V30 43422 H 4109.25 4.78562 -0.781423 0
M  V30 43423 N 4110.6 0.106949 1.57237 0
M  V30 43424 C 4111.84 -0.553948 1.94776 0
M  V30 43425 C 4112.17 -1.6745 0.989481 0
M  V30 43426 O 4111.43 -1.95697 0.011174 0
M  V30 43427 C 4111.73 -1.13812 3.38794 0
M  V30 43428 C 4111.39 -0.140147 4.50682 0
M  V30 43429 C 4110.05 0.134302 4.81013 0
M  V30 43430 C 4112.41 0.540623 5.18389 0
M  V30 43431 C 4109.73 1.09601 5.76372 0
M  V30 43432 C 4112.09 1.49088 6.14781 0
M  V30 43433 C 4110.75 1.77344 6.4351 0
M  V30 43434 H 4110.02 -0.202704 0.712736 0
M  V30 43435 H 4112.67 0.185299 1.90601 0
M  V30 43436 H 4110.97 -1.95387 3.39605 0
M  V30 43437 H 4112.67 -1.65737 3.65147 0
M  V30 43438 H 4109.26 -0.364241 4.27049 0
M  V30 43439 H 4113.44 0.341747 4.95122 0
M  V30 43440 H 4108.7 1.3218 5.96941 0
M  V30 43441 H 4112.87 2.02414 6.66335 0
M  V30 43442 H 4110.5 2.52021 7.1721 0
M  V30 43443 N 4112.07 -1.56715 -0.166791 0
M  V30 43444 C 4113.32 -1.8252 -0.883991 0
M  V30 43445 C 4113.65 -0.685509 -1.81699 0
M  V30 43446 O 4112.93 0.312243 -1.91977 0
M  V30 43447 C 4113.21 -3.18734 -1.67573 0
M  V30 43448 C 4113.06 -4.43237 -0.765549 0
M  V30 43449 C 4114.38 -3.5194 -2.64246 0
M  V30 43450 H 4111.5 -0.66394 -0.319926 0
M  V30 43451 H 4114.14 -1.89407 -0.150001 0
M  V30 43452 H 4112.29 -3.12994 -2.30146 0
M  V30 43453 H 4113.97 -4.61048 -0.152341 0
M  V30 43454 H 4112.21 -4.33737 -0.0738735 0
M  V30 43455 H 4112.88 -5.35108 -1.35513 0
M  V30 43456 H 4115.36 -3.58163 -2.11798 0
M  V30 43457 H 4114.23 -4.48317 -3.16706 0
M  V30 43458 H 4114.49 -2.76876 -3.44662 0
M  V30 43459 N 4113.55 0.435497 -1.51463 0
M  V30 43460 C 4114.52 1.51126 -1.72318 0
M  V30 43461 C 4115.52 1.49459 -0.593187 0
M  V30 43462 O 4116.71 1.51448 -0.860757 0
M  V30 43463 C 4113.84 2.90657 -1.78132 0
M  V30 43464 H 4115.03 1.33939 -2.68329 0
M  V30 43465 H 4112.58 0.664292 -1.41481 0
M  V30 43466 H 4113.32 3.13248 -0.839422 0
M  V30 43467 H 4113.1 2.93273 -2.60257 0
M  V30 43468 H 4114.59 3.68693 -1.96099 0
M  V30 43469 N 4115.03 1.41641 0.69106 0
M  V30 43470 C 4115.99 1.43562 1.78669 0
M  V30 43471 C 4116.99 0.325571 1.5747 0
M  V30 43472 O 4118.18 0.58566 1.6406 0
M  V30 43473 C 4115.32 1.25141 3.171 0
M  V30 43474 H 4116.51 2.41099 1.78357 0
M  V30 43475 H 4114.06 1.27849 0.899126 0
M  V30 43476 H 4114.8 0.284624 3.23049 0
M  V30 43477 H 4114.58 2.05573 3.33889 0
M  V30 43478 H 4116.07 1.29331 3.97068 0
M  V30 43479 N 4116.51 -0.925766 1.27543 0
M  V30 43480 C 4117.76 -1.66818 1.13378 0
M  V30 43481 C 4118.07 -1.92973 -0.319473 0
M  V30 43482 O 4119.28 -2.65187 -0.582063 0
M  V30 43483 C 4117.73 -3.00463 1.98117 0
M  V30 43484 C 4117.34 -2.81999 3.4811 0
M  V30 43485 C 4119.08 -3.78291 1.92604 0
M  V30 43486 C 4116.99 -4.11211 4.25041 0
M  V30 43487 H 4115.92 -0.625716 0.420708 0
M  V30 43488 H 4118.57 -1.02832 1.5198 0
M  V30 43489 H 4116.95 -3.65517 1.5236 0
M  V30 43490 H 4118.13 -2.257 4.01741 0
M  V30 43491 H 4116.44 -2.17598 3.55021 0
M  V30 43492 H 4119.04 -4.74045 2.47357 0
M  V30 43493 H 4119.38 -4.06453 0.900099 0
M  V30 43494 H 4119.92 -3.20037 2.36265 0
M  V30 43495 H 4116.66 -3.88227 5.28167 0
M  V30 43496 H 4116.18 -4.67166 3.76186 0
M  V30 43497 H 4117.85 -4.79559 4.34319 0
M  V30 43498 N 4117.99 -1.09597 -1.13253 0
M  V30 43499 C 4119.23 -0.833088 -1.84569 0
M  V30 43500 C 4119.56 0.641308 -1.83623 0
M  V30 43501 O 4118.82 1.4882 -1.27086 0
M  V30 43502 C 4119.12 -1.31568 -3.32302 0
M  V30 43503 C 4118.78 -2.8 -3.53428 0
M  V30 43504 C 4117.44 -3.20536 -3.58901 0
M  V30 43505 C 4119.8 -3.75694 -3.61253 0
M  V30 43506 C 4117.12 -4.55535 -3.69736 0
M  V30 43507 C 4119.48 -5.10485 -3.73615 0
M  V30 43508 C 4118.14 -5.50608 -3.77342 0
M  V30 43509 H 4117.41 -0.304849 -0.675388 0
M  V30 43510 H 4120.06 -1.37105 -1.33695 0
M  V30 43511 H 4118.36 -0.69755 -3.85541 0
M  V30 43512 H 4120.06 -1.08887 -3.85933 0
M  V30 43513 H 4116.65 -2.47631 -3.49824 0
M  V30 43514 H 4120.83 -3.45489 -3.56302 0
M  V30 43515 H 4116.09 -4.86057 -3.70889 0
M  V30 43516 H 4120.26 -5.84487 -3.78613 0
M  V30 43517 H 4117.89 -6.55211 -3.8549 0
M  V30 43518 N 4119.46 1.30512 -0.883424 0
M  V30 43519 C 4120.69 2.00072 -0.515235 0
M  V30 43520 C 4121.1 1.66404 0.900345 0
M  V30 43521 O 4120.45 0.896532 1.60337 0
M  V30 43522 C 4120.51 3.54315 -0.60838 0
M  V30 43523 C 4120.17 4.11495 -1.98799 0
M  V30 43524 C 4121.17 4.27605 -2.9572 0
M  V30 43525 C 4118.85 4.4691 -2.29296 0
M  V30 43526 C 4120.85 4.78339 -4.21272 0
M  V30 43527 C 4118.53 4.97344 -3.55094 0
M  V30 43528 C 4119.53 5.13011 -4.50897 0
M  V30 43529 O 4119.22 5.62357 -5.74464 0
M  V30 43530 H 4118.95 0.646394 -0.197864 0
M  V30 43531 H 4121.51 1.67403 -1.19018 0
M  V30 43532 H 4119.74 3.86503 0.123538 0
M  V30 43533 H 4121.43 4.05119 -0.25169 0
M  V30 43534 H 4122.19 4.00548 -2.7347 0
M  V30 43535 H 4118.07 4.33984 -1.55495 0
M  V30 43536 H 4121.61 4.90483 -4.96057 0
M  V30 43537 H 4117.51 5.23836 -3.77182 0
M  V30 43538 H 4118.28 5.80703 -5.76825 0
M  V30 43539 N 4120.94 0.644219 1.43832 0
M  V30 43540 C 4121.87 -0.0394501 2.33467 0
M  V30 43541 C 4122.85 -0.821312 1.48958 0
M  V30 43542 O 4124.04 -0.784587 1.77645 0
M  V30 43543 C 4121.17 -1.01272 3.32207 0
M  V30 43544 C 4120.12 -0.341591 4.26635 0
M  V30 43545 C 4119.45 -1.42568 5.15343 0
M  V30 43546 C 4120.75 0.76039 5.16735 0
M  V30 43547 H 4122.44 0.709076 2.90882 0
M  V30 43548 H 4119.99 0.342437 1.39869 0
M  V30 43549 H 4121.94 -1.49984 3.93806 0
M  V30 43550 H 4120.67 -1.79229 2.73028 0
M  V30 43551 H 4119.32 0.125001 3.66387 0
M  V30 43552 H 4118.97 -2.19646 4.52509 0
M  V30 43553 H 4118.67 -0.981928 5.79337 0
M  V30 43554 H 4120.2 -1.91434 5.79815 0
M  V30 43555 H 4121.61 0.355814 5.72195 0
M  V30 43556 H 4120.01 1.12806 5.89402 0
M  V30 43557 H 4121.08 1.62213 4.56963 0
M  V30 43558 N 4122.42 -1.52811 0.385571 0
M  V30 43559 C 4123.67 -2.00716 -0.199035 0
M  V30 43560 C 4123.98 -1.27641 -1.48214 0
M  V30 43561 O 4125.19 -1.66237 -2.14656 0
M  V30 43562 C 4123.64 -3.57611 -0.405248 0
M  V30 43563 C 4123.25 -4.39582 0.864384 0
M  V30 43564 C 4125 -4.13815 -0.946423 0
M  V30 43565 C 4122.9 -5.88071 0.626654 0
M  V30 43566 H 4121.83 -0.749939 -0.0781544 0
M  V30 43567 H 4124.48 -1.76346 0.507395 0
M  V30 43568 H 4122.87 -3.78215 -1.17344 0
M  V30 43569 H 4124.04 -4.30746 1.6369 0
M  V30 43570 H 4122.36 -3.9458 1.33023 0
M  V30 43571 H 4124.95 -5.22408 -1.13993 0
M  V30 43572 H 4125.3 -3.6967 -1.9144 0
M  V30 43573 H 4125.83 -3.97088 -0.2379 0
M  V30 43574 H 4122.57 -6.36531 1.56553 0
M  V30 43575 H 4122.09 -5.99705 -0.106996 0
M  V30 43576 H 4123.77 -6.46478 0.259768 0
M  V30 43577 N 4123.9 -0.115287 -1.57178 0
M  V30 43578 C 4125.13 0.551435 -1.99416 0
M  V30 43579 C 4125.54 1.6046 -0.99489 0
M  V30 43580 O 4124.9 1.82496 0.0127511 0
M  V30 43581 C 4124.95 1.18093 -3.41667 0
M  V30 43582 O 4124.67 0.169867 -4.37771 0
M  V30 43583 C 4126.17 1.93133 -3.99017 0
M  V30 43584 H 4123.39 0.14629 -0.654859 0
M  V30 43585 H 4125.94 -0.20053 -2.03514 0
M  V30 43586 H 4124.09 1.8837 -3.3852 0
M  V30 43587 H 4124.5 0.626762 -5.20742 0
M  V30 43588 H 4125.98 2.3251 -5.00643 0
M  V30 43589 H 4126.46 2.80509 -3.37952 0
M  V30 43590 H 4127.06 1.27627 -4.05699 0
M  V30 43591 N 4125.38 1.56801 0.158477 0
M  V30 43592 C 4126.79 1.72271 0.719689 0
M  V30 43593 C 4127.14 0.727872 1.82199 0
M  V30 43594 O 4126.26 -0.108005 2.1613 0
M  V30 43595 C 4126.86 3.12355 1.31225 0
M  V30 43596 C 4125.42 3.29465 1.82015 0
M  V30 43597 C 4124.57 2.68212 0.704109 0
M  V30 43598 H 4127.52 1.58558 -0.0670674 0
M  V30 43599 H 4127.54 3.11718 2.18203 0
M  V30 43600 H 4127.05 3.84738 0.509755 0
M  V30 43601 H 4125.15 2.6206 2.64868 0
M  V30 43602 H 4125.26 4.37319 1.95676 0
M  V30 43603 H 4123.63 2.28368 1.12783 0
M  V30 43604 H 4124.41 3.4319 -0.0867532 0
M  V30 43605 N 4126.86 -0.427458 1.51692 0
M  V30 43606 C 4128.1 -1.1778 1.65093 0
M  V30 43607 C 4128.43 -1.90627 0.370817 0
M  V30 43608 O 4127.71 -1.84013 -0.630032 0
M  V30 43609 C 4127.99 -2.18692 2.86087 0
M  V30 43610 C 4127.85 -1.49863 4.241 0
M  V30 43611 C 4129.16 -3.19568 3.02596 0
M  V30 43612 H 4126.28 -0.426825 0.600824 0
M  V30 43613 H 4128.93 -0.465778 1.84202 0
M  V30 43614 H 4127.08 -2.79415 2.69925 0
M  V30 43615 H 4128.75 -0.924013 4.51951 0
M  V30 43616 H 4126.99 -0.800819 4.26344 0
M  V30 43617 H 4127.66 -2.23404 5.04772 0
M  V30 43618 H 4130.14 -2.68908 3.17534 0
M  V30 43619 H 4129.01 -3.8746 3.88801 0
M  V30 43620 H 4129.27 -3.86244 2.151 0
M  V30 43621 N 4128.33 -1.42005 -0.683539 0
M  V30 43622 C 4129.28 -1.4126 -1.78968 0
M  V30 43623 C 4130.27 -0.28518 -1.58353 0
M  V30 43624 O 4131.46 -0.526759 -1.6898 0
M  V30 43625 C 4128.59 -1.30894 -3.17367 0
M  V30 43626 C 4127.67 -2.48546 -3.43636 0
M  V30 43627 N 4128.07 -3.7399 -3.40537 0
M  V30 43628 C 4126.36 -2.42618 -3.74236 0
M  V30 43629 C 4127.06 -4.52089 -3.66047 0
M  V30 43630 N 4126.04 -3.82373 -3.86383 0
M  V30 43631 H 4129.84 -2.36154 -1.74953 0
M  V30 43632 H 4127.36 -1.36231 -0.884025 0
M  V30 43633 H 4129.35 -1.28442 -3.96621 0
M  V30 43634 H 4128.01 -0.369944 -3.22586 0
M  V30 43635 H 4129.02 -4.06707 -3.20639 0
M  V30 43636 H 4125.7 -1.57253 -3.86753 0
M  V30 43637 H 4127.09 -5.61055 -3.69685 0
M  V30 43638 N 4129.81 0.918989 -1.28033 0
M  V30 43639 C 4131.06 1.67006 -1.15051 0
M  V30 43640 C 4131.39 1.91849 0.301267 0
M  V30 43641 O 4130.67 1.51511 1.21961 0
M  V30 43642 C 4130.95 3.03122 -1.94394 0
M  V30 43643 C 4130.8 2.85466 -3.47605 0
M  V30 43644 C 4132.12 4.03583 -1.75524 0
M  V30 43645 H 4129.24 0.606084 -0.419322 0
M  V30 43646 H 4131.88 1.06584 -1.57289 0
M  V30 43647 H 4130.03 3.54697 -1.58499 0
M  V30 43648 H 4131.7 2.40942 -3.93376 0
M  V30 43649 H 4129.95 2.20631 -3.73503 0
M  V30 43650 H 4130.62 3.82104 -3.98372 0
M  V30 43651 H 4133.09 3.6105 -2.06838 0
M  V30 43652 H 4131.97 4.96796 -2.3342 0
M  V30 43653 H 4132.23 4.36436 -0.705386 0
M  V30 43654 N 4131.29 1.10196 1.12671 0
M  V30 43655 C 4132.22 0.692437 2.17441 0
M  V30 43656 C 4133.2 -0.305017 1.59714 0
M  V30 43657 O 4134.38 -0.204506 1.87387 0
M  V30 43658 C 4131.51 0.02132 3.38693 0
M  V30 43659 C 4130.56 0.981851 4.15045 0
M  V30 43660 S 4131.39 2.49794 4.7367 0
M  V30 43661 C 4132.55 1.83946 5.9826 0
M  V30 43662 H 4132.78 1.57996 2.51842 0
M  V30 43663 H 4130.31 0.918716 1.24093 0
M  V30 43664 H 4132.27 -0.359569 4.08922 0
M  V30 43665 H 4130.93 -0.842965 3.02577 0
M  V30 43666 H 4130.12 0.459486 5.01901 0
M  V30 43667 H 4129.73 1.30453 3.50511 0
M  V30 43668 H 4132.02 1.1682 6.67352 0
M  V30 43669 H 4132.96 2.68749 6.55118 0
M  V30 43670 H 4133.37 1.30503 5.49208 0
M  V30 43671 N 4132.77 -1.30042 0.890333 0
M  V30 43672 C 4133.99 -2.00623 0.525868 0
M  V30 43673 C 4134.42 -1.66263 -0.879681 0
M  V30 43674 O 4133.78 -0.882132 -1.58392 0
M  V30 43675 C 4133.82 -3.53458 0.714108 0
M  V30 43676 O 4132.93 -4.11715 -0.237613 0
M  V30 43677 H 4132.27 -0.63105 0.206571 0
M  V30 43678 H 4134.8 -1.65761 1.19935 0
M  V30 43679 H 4134.81 -4.03336 0.615157 0
M  V30 43680 H 4133.48 -3.77804 1.73887 0
M  V30 43681 H 4132.06 -3.72787 -0.0919067 0
M  V30 43682 N 4134.25 -0.651838 -1.43488 0
M  V30 43683 C 4135.19 0.0406017 -2.30764 0
M  V30 43684 C 4136.16 0.816065 -1.44671 0
M  V30 43685 O 4137.35 0.792948 -1.73542 0
M  V30 43686 C 4134.49 1.002 -3.30233 0
M  V30 43687 C 4133.6 0.222781 -4.31425 0
M  V30 43688 C 4132.74 1.17785 -5.17977 0
M  V30 43689 C 4131.77 0.388988 -6.10863 0
M  V30 43690 N 4130.91 1.29558 -6.90043 0
M  V30 43691 H 4135.75 -0.709533 -2.8943 0
M  V30 43692 H 4133.29 -0.361661 -1.42585 0
M  V30 43693 H 4135.25 1.57299 -3.8641 0
M  V30 43694 H 4133.88 1.71902 -2.73221 0
M  V30 43695 H 4132.93 -0.464476 -3.77554 0
M  V30 43696 H 4134.24 -0.390695 -4.97268 0
M  V30 43697 H 4133.39 1.81952 -5.78773 0
M  V30 43698 H 4132.13 1.82524 -4.52257 0
M  V30 43699 H 4131.14 -0.26604 -5.49156 0
M  V30 43700 H 4132.36 -0.253974 -6.78625 0
M  V30 43701 H 4130.31 1.92979 -6.26973 0
M  V30 43702 H 4130.23 0.73663 -7.52403 0
M  V30 43703 H 4131.49 1.92544 -7.55346 0
M  V30 43704 N 4135.72 1.52604 -0.39367 0
M  V30 43705 C 4136.67 2.23385 0.456399 0
M  V30 43706 C 4137.66 1.23936 1.02609 0
M  V30 43707 O 4138.85 1.49251 0.951475 0
M  V30 43708 C 4135.98 3.04737 1.58083 0
M  V30 43709 C 4135.06 4.11585 1.02266 0
M  V30 43710 N 4135.46 5.05444 0.189814 0
M  V30 43711 C 4133.75 4.26794 1.29472 0
M  V30 43712 C 4134.45 5.81578 -0.119029 0
M  V30 43713 N 4133.43 5.41423 0.486069 0
M  V30 43714 H 4137.23 2.93308 -0.186395 0
M  V30 43715 H 4134.75 1.61123 -0.203219 0
M  V30 43716 H 4136.74 3.53986 2.20227 0
M  V30 43717 H 4135.4 2.3635 2.2264 0
M  V30 43718 H 4136.41 5.1761 -0.173276 0
M  V30 43719 H 4133.09 3.69636 1.94101 0
M  V30 43720 H 4134.48 6.67191 -0.794097 0
M  V30 43721 N 4137.2 0.12362 1.57114 0
M  V30 43722 C 4138.43 -0.540852 1.99706 0
M  V30 43723 C 4138.84 -1.5993 1.00339 0
M  V30 43724 O 4138.2 -1.825 -0.00307269 0
M  V30 43725 C 4138.25 -1.16279 3.42288 0
M  V30 43726 O 4137.97 -0.146648 4.37854 0
M  V30 43727 C 4139.47 -1.91014 4.00036 0
M  V30 43728 H 4136.69 -0.142815 0.655626 0
M  V30 43729 H 4139.24 0.211321 2.03405 0
M  V30 43730 H 4137.39 -1.86572 3.39514 0
M  V30 43731 H 4137.81 -0.599137 5.21067 0
M  V30 43732 H 4139.28 -2.29852 5.01869 0
M  V30 43733 H 4139.76 -2.78713 3.39435 0
M  V30 43734 H 4140.36 -1.25473 4.0637 0
M  V30 43735 N 4138.68 -1.56883 -0.15016 0
M  V30 43736 C 4139.96 -1.74086 -0.891811 0
M  V30 43737 C 4140.34 -0.690786 -1.99478 0
M  V30 43738 O 4139.68 0.290837 -2.26642 0
M  V30 43739 C 4139.89 -3.18035 -1.43717 0
M  V30 43740 C 4141.24 -3.79626 -1.90182 0
M  V30 43741 O 4142.27 -3.21445 -1.53465 0
M  V30 43742 O 4141.13 -4.81828 -2.57883 0
M  V30 43743 H 4138.22 -0.711685 -0.421228 0
M  V30 43744 H 4140.77 -1.69151 -0.136332 0
M  V30 43745 H 4139.54 -3.85958 -0.644355 0
M  V30 43746 H 4139.16 -3.27383 -2.25624 0
M  V30 43747 N 4140.16 0.419408 -1.51917 0
M  V30 43748 C 4141.41 1.16729 -1.65471 0
M  V30 43749 C 4141.73 1.9076 -0.379602 0
M  V30 43750 O 4140.99 1.85041 0.63706 0
M  V30 43751 C 4141.29 2.19514 -2.82043 0
M  V30 43752 C 4140.95 1.62366 -4.20652 0
M  V30 43753 C 4139.62 1.46504 -4.58356 0
M  V30 43754 C 4141.97 1.2053 -5.07072 0
M  V30 43755 C 4139.3 0.873083 -5.80167 0
M  V30 43756 C 4141.65 0.627564 -6.29479 0
M  V30 43757 C 4140.31 0.455997 -6.65941 0
M  V30 43758 H 4139.58 0.427143 -0.605499 0
M  V30 43759 H 4142.23 0.455884 -1.85994 0
M  V30 43760 H 4140.53 2.96761 -2.55813 0
M  V30 43761 H 4142.23 2.77235 -2.89727 0
M  V30 43762 H 4138.82 1.75692 -3.90935 0
M  V30 43763 H 4143 1.31598 -4.78535 0
M  V30 43764 H 4138.26 0.72808 -6.07049 0
M  V30 43765 H 4142.43 0.294958 -6.95775 0
M  V30 43766 H 4140.06 -0.00480947 -7.602 0
M  V30 43767 N 4141.64 1.42366 0.675998 0
M  V30 43768 C 4142.86 1.46373 1.46934 0
M  V30 43769 C 4143.29 0.0761321 1.87946 0
M  V30 43770 O 4142.64 -0.925144 1.55919 0
M  V30 43771 C 4142.69 2.39527 2.69553 0
M  V30 43772 O 4141.8 1.86581 3.67779 0
M  V30 43773 H 4141.14 0.495985 0.441469 0
M  V30 43774 H 4143.67 1.87042 0.829251 0
M  V30 43775 H 4143.68 2.56067 3.17638 0
M  V30 43776 H 4142.35 3.4034 2.39043 0
M  V30 43777 H 4140.93 1.79591 3.26805 0
M  V30 43778 N 4143.11 -0.912187 1.28518 0
M  V30 43779 C 4144.34 -1.70049 1.18735 0
M  V30 43780 C 4144.76 -1.86427 -0.250291 0
M  V30 43781 O 4144.12 -1.37555 -1.18103 0
M  V30 43782 C 4144.17 -3.0694 1.89262 0
M  V30 43783 O 4143.27 -3.9452 1.20115 0
M  V30 43784 H 4142.62 -0.520647 0.412096 0
M  V30 43785 H 4145.15 -1.14045 1.69868 0
M  V30 43786 H 4145.16 -3.57162 1.9723 0
M  V30 43787 H 4143.83 -2.94337 2.93834 0
M  V30 43788 H 4142.41 -3.52955 1.20321 0
M  V30 43789 N 4144.59 -1.10792 -1.12085 0
M  V30 43790 C 4145.5 -0.772617 -2.21512 0
M  V30 43791 C 4146.52 0.231432 -1.72454 0
M  V30 43792 O 4147.69 0.069272 -2.01281 0
M  V30 43793 C 4144.76 -0.213425 -3.46042 0
M  V30 43794 C 4143.82 -1.27522 -4.09923 0
M  V30 43795 C 4143.05 -0.742617 -5.28508 0
M  V30 43796 O 4143.28 0.429686 -5.68779 0
M  V30 43797 O 4142.21 -1.50427 -5.828 0
M  V30 43798 H 4146.04 -1.68613 -2.52593 0
M  V30 43799 H 4143.62 -0.883316 -1.2049 0
M  V30 43800 H 4145.5 0.0943943 -4.21294 0
M  V30 43801 H 4144.18 0.672891 -3.16629 0
M  V30 43802 H 4143.09 -1.63595 -3.36433 0
M  V30 43803 H 4144.42 -2.13468 -4.435 0
M  V30 43804 N 4146.07 1.29568 -0.897217 0
M  V30 43805 C 4147.32 1.94939 -0.517858 0
M  V30 43806 C 4147.63 1.71529 0.940065 0
M  V30 43807 O 4148.84 2.30984 1.42683 0
M  V30 43808 C 4147.29 3.49095 -0.875245 0
M  V30 43809 C 4146.9 3.81308 -2.35177 0
M  V30 43810 C 4148.65 4.20714 -0.565675 0
M  V30 43811 C 4146.55 5.28698 -2.65014 0
M  V30 43812 H 4145.48 0.729684 -0.189941 0
M  V30 43813 H 4148.13 1.47332 -1.09387 0
M  V30 43814 H 4146.52 3.95342 -0.228185 0
M  V30 43815 H 4147.69 3.45929 -3.04417 0
M  V30 43816 H 4146.01 3.22822 -2.63011 0
M  V30 43817 H 4148.6 5.29192 -0.76548 0
M  V30 43818 H 4148.95 4.13339 0.495658 0
M  V30 43819 H 4149.48 3.80191 -1.17046 0
M  V30 43820 H 4146.22 5.41135 -3.69936 0
M  V30 43821 H 4145.74 5.65333 -2.00395 0
M  V30 43822 H 4147.42 5.96265 -2.51151 0
M  V30 43823 N 4147.55 0.659438 1.4314 0
M  V30 43824 C 4148.8 0.172667 2.0096 0
M  V30 43825 C 4149.11 -1.22274 1.52671 0
M  V30 43826 O 4150.32 -1.80506 2.02805 0
M  V30 43827 C 4148.77 0.257865 3.58975 0
M  V30 43828 C 4148.38 1.65636 4.16256 0
M  V30 43829 C 4150.12 -0.170982 4.24156 0
M  V30 43830 C 4148.03 1.69515 5.66585 0
M  V30 43831 H 4146.96 0.0607898 0.751545 0
M  V30 43832 H 4149.61 0.822381 1.6404 0
M  V30 43833 H 4147.99 -0.459469 3.93325 0
M  V30 43834 H 4149.17 2.39954 3.93394 0
M  V30 43835 H 4147.48 2.03172 3.6347 0
M  V30 43836 H 4150.08 -0.161933 5.34455 0
M  V30 43837 H 4150.42 -1.20353 3.98523 0
M  V30 43838 H 4150.96 0.494814 3.94711 0
M  V30 43839 H 4147.7 2.70701 5.96994 0
M  V30 43840 H 4147.22 0.995305 5.91484 0
M  V30 43841 H 4148.89 1.44167 6.30734 0
M  V30 43842 N 4149.03 -1.52393 0.401757 0
M  V30 43843 C 4150.27 -2.01332 -0.176074 0
M  V30 43844 C 4150.6 -1.28955 -1.46272 0
M  V30 43845 O 4149.87 -0.413283 -1.91491 0
M  V30 43846 H 4148.45 -0.743893 -0.0680566 0
M  V30 43847 H 4151.11 -1.87376 0.536307 0
M  V30 43848 H 4150.2 -3.09809 -0.377442 0
M  V30 43849 N 4150.5 -0.131951 -1.57047 0
M  V30 43850 C 4151.73 0.529485 -1.997 0
M  V30 43851 C 4152.14 1.59936 -1.0108 0
M  V30 43852 O 4151.49 1.837 0.00253579 0
M  V30 43853 C 4151.55 1.20287 -3.38779 0
M  V30 43854 C 4151.21 0.279403 -4.56145 0
M  V30 43855 C 4152.21 -0.487072 -5.17613 0
M  V30 43856 C 4149.89 0.186696 -5.01953 0
M  V30 43857 C 4151.89 -1.33386 -6.23287 0
M  V30 43858 C 4149.57 -0.663707 -6.07485 0
M  V30 43859 C 4150.57 -1.4226 -6.6802 0
M  V30 43860 O 4150.26 -2.25886 -7.71512 0
M  V30 43861 H 4149.99 0.143679 -0.660555 0
M  V30 43862 H 4152.55 -0.218998 -2.04229 0
M  V30 43863 H 4150.78 1.99869 -3.31043 0
M  V30 43864 H 4152.47 1.76252 -3.65637 0
M  V30 43865 H 4153.23 -0.425396 -4.83131 0
M  V30 43866 H 4149.11 0.7671 -4.54573 0
M  V30 43867 H 4152.65 -1.92667 -6.70466 0
M  V30 43868 H 4148.55 -0.72673 -6.41396 0
M  V30 43869 H 4149.32 -2.18969 -7.88666 0
M  V30 43870 N 4151.98 1.5696 0.141838 0
M  V30 43871 C 4152.93 1.98653 1.17497 0
M  V30 43872 C 4153.9 0.854943 1.42408 0
M  V30 43873 O 4155.08 1.11741 1.54656 0
M  V30 43874 C 4152.22 2.37666 2.50218 0
M  V30 43875 C 4151.34 3.64139 2.32437 0
M  V30 43876 C 4150.47 3.92231 3.58229 0
M  V30 43877 C 4149.51 5.11958 3.35507 0
M  V30 43878 N 4148.65 5.36035 4.53443 0
M  V30 43879 H 4153.49 2.86712 0.812423 0
M  V30 43880 H 4151.03 1.41844 0.389697 0
M  V30 43881 H 4152.98 2.58315 3.27612 0
M  V30 43882 H 4151.61 1.5268 2.8441 0
M  V30 43883 H 4150.67 3.51237 1.46072 0
M  V30 43884 H 4151.98 4.51689 2.1161 0
M  V30 43885 H 4151.13 4.13406 4.4405 0
M  V30 43886 H 4149.87 3.03113 3.82065 0
M  V30 43887 H 4148.88 4.90651 2.48075 0
M  V30 43888 H 4150.1 6.02634 3.13064 0
M  V30 43889 H 4148.05 4.49872 4.77442 0
M  V30 43890 H 4147.96 6.17864 4.35637 0
M  V30 43891 H 4149.23 5.61712 5.40462 0
M  V30 43892 N 4153.46 -0.411345 1.52137 0
M  V30 43893 C 4154.42 -1.48366 1.747 0
M  V30 43894 C 4155.42 -1.48496 0.61689 0
M  V30 43895 O 4156.61 -1.5006 0.884742 0
M  V30 43896 C 4153.75 -2.87787 1.82734 0
M  V30 43897 H 4154.94 -1.29653 2.70426 0
M  V30 43898 H 4152.49 -0.6417 1.4252 0
M  V30 43899 H 4153.23 -3.11873 0.889151 0
M  V30 43900 H 4153.01 -2.89095 2.64889 0
M  V30 43901 H 4154.5 -3.65527 2.0194 0
M  V30 43902 N 4154.94 -1.42722 -0.668439 0
M  V30 43903 C 4156.19 -1.42822 -1.42425 0
M  V30 43904 C 4156.5 -0.0504369 -1.95535 0
M  V30 43905 O 4157.71 0.0711559 -2.71407 0
M  V30 43906 C 4156.16 -2.51259 -2.57676 0
M  V30 43907 C 4155.77 -3.95072 -2.11239 0
M  V30 43908 C 4157.52 -2.60532 -3.35146 0
M  V30 43909 C 4155.42 -4.95005 -3.2361 0
M  V30 43910 H 4154.35 -0.531231 -0.53508 0
M  V30 43911 H 4157 -1.68655 -0.723037 0
M  V30 43912 H 4155.39 -2.18601 -3.30196 0
M  V30 43913 H 4156.56 -4.37116 -1.4583 0
M  V30 43914 H 4154.87 -3.89706 -1.4669 0
M  V30 43915 H 4157.47 -3.32372 -4.18847 0
M  V30 43916 H 4157.81 -1.65096 -3.82163 0
M  V30 43917 H 4158.35 -2.92416 -2.69699 0
M  V30 43918 H 4155.09 -5.91941 -2.81578 0
M  V30 43919 H 4154.61 -4.57588 -3.8778 0
M  V30 43920 H 4156.29 -5.17015 -3.88979 0
M  V30 43921 N 4156.42 0.905358 -1.29 0
M  V30 43922 C 4157.69 1.63521 -1.07332 0
M  V30 43923 C 4158.07 2.07569 0.384482 0
M  V30 43924 O 4157.42 1.8271 1.3722 0
M  V30 43925 C 4157.63 2.82033 -2.05568 0
M  V30 43926 C 4158.98 3.52854 -2.36176 0
M  V30 43927 O 4160 2.92194 -2.03718 0
M  V30 43928 O 4158.86 4.62197 -2.91609 0
M  V30 43929 H 4155.96 0.71775 -0.410809 0
M  V30 43930 H 4158.5 0.953924 -1.40351 0
M  V30 43931 H 4157.28 2.4664 -3.03783 0
M  V30 43932 H 4156.9 3.57872 -1.73245 0
M  V30 43933 N 4157.9 1.11385 1.11495 0
M  V30 43934 C 4159.14 0.860643 1.82859 0
M  V30 43935 C 4159.46 -0.615438 1.85033 0
M  V30 43936 O 4158.73 -1.44706 1.32049 0
M  V30 43937 H 4157.31 0.315404 0.677148 0
M  V30 43938 H 4159.98 1.40612 1.34961 0
M  V30 43939 H 4159.07 1.23232 2.86741 0
M  V30 43940 N 4159.37 -1.2909 0.904076 0
M  V30 43941 C 4160.62 -1.94994 0.531186 0
M  V30 43942 C 4160.94 -1.7159 -0.926385 0
M  V30 43943 O 4160.21 -1.05013 -1.65376 0
M  V30 43944 H 4158.79 -0.721516 0.193452 0
M  V30 43945 H 4161.45 -1.57259 1.15132 0
M  V30 43946 H 4160.55 -3.03741 0.717465 0
M  V30 43947 N 4160.85 -0.66702 -1.42789 0
M  V30 43948 C 4162.1 -0.186341 -2.01942 0
M  V30 43949 C 4162.43 1.20136 -1.52581 0
M  V30 43950 O 4161.71 1.80494 -0.724709 0
M  V30 43951 C 4161.99 -0.212386 -3.59473 0
M  V30 43952 C 4161.84 -1.63499 -4.19032 0
M  V30 43953 C 4163.16 0.443685 -4.37858 0
M  V30 43954 H 4160.28 -0.0691862 -0.733745 0
M  V30 43955 H 4162.92 -0.850328 -1.6991 0
M  V30 43956 H 4161.07 0.352994 -3.86893 0
M  V30 43957 H 4162.74 -2.25202 -4.02594 0
M  V30 43958 H 4160.99 -2.17807 -3.75157 0
M  V30 43959 H 4161.66 -1.60496 -5.28153 0
M  V30 43960 H 4164.13 -0.0375063 -4.16083 0
M  V30 43961 H 4163.01 0.394791 -5.47478 0
M  V30 43962 H 4163.27 1.52005 -4.15147 0
M  V30 43963 N 4162.33 1.52178 -0.409833 0
M  V30 43964 C 4163.56 2.06239 0.165199 0
M  V30 43965 C 4163.97 1.27983 1.38802 0
M  V30 43966 O 4163.33 0.331875 1.79457 0
M  V30 43967 C 4163.38 3.57814 0.514934 0
M  V30 43968 O 4163.1 4.3311 -0.659324 0
M  V30 43969 C 4164.6 4.28295 1.14362 0
M  V30 43970 H 4161.82 0.670699 0.0200799 0
M  V30 43971 H 4164.37 1.96073 -0.58099 0
M  V30 43972 H 4162.52 3.67985 1.21102 0
M  V30 43973 H 4162.94 5.23213 -0.367218 0
M  V30 43974 H 4164.41 5.35525 1.33853 0
M  V30 43975 H 4164.89 3.84816 2.11692 0
M  V30 43976 H 4165.49 4.22494 0.487721 0
M  V30 43977 N 4163.81 0.140278 1.56974 0
M  V30 43978 C 4165.22 -0.216187 1.58129 0
M  V30 43979 C 4165.42 -1.65168 1.1542 0
M  V30 43980 O 4164.48 -2.37713 0.851387 0
M  V30 43981 C 4165.79 0.0364636 3.00678 0
M  V30 43982 C 4167.34 -0.0277736 3.12988 0
M  V30 43983 C 4167.82 0.197458 4.57574 0
M  V30 43984 N 4169.31 0.144155 4.62976 0
M  V30 43985 C 4170.04 0.293032 5.72651 0
M  V30 43986 N 4169.54 0.49926 6.90999 0
M  V30 43987 N 4171.33 0.231107 5.61625 0
M  V30 43988 H 4163.48 1.07765 1.83031 0
M  V30 43989 H 4165.74 0.426059 0.846863 0
M  V30 43990 H 4165.45 1.02969 3.36289 0
M  V30 43991 H 4165.32 -0.68596 3.7091 0
M  V30 43992 H 4167.71 -1.01154 2.77222 0
M  V30 43993 H 4167.79 0.726872 2.45255 0
M  V30 43994 H 4167.44 1.17829 4.94043 0
M  V30 43995 H 4167.37 -0.57743 5.23425 0
M  V30 43996 H 4169.86 -0.0108588 3.77898 0
M  V30 43997 H 4170.17 0.603148 7.70443 0
M  V30 43998 H 4168.52 0.535498 6.92934 0
M  V30 43999 H 4171.71 0.0708046 4.68046 0
M  V30 44000 H 4171.88 0.350569 6.47051 0
M  V30 44001 N 4165.29 -1.57033 -0.133512 0
M  V30 44002 C 4166.56 -1.75023 -0.873297 0
M  V30 44003 C 4166.94 -0.711905 -1.98734 0
M  V30 44004 O 4166.29 0.266783 -2.26937 0
M  V30 44005 C 4166.5 -3.19542 -1.40335 0
M  V30 44006 C 4167.85 -3.81622 -1.86144 0
M  V30 44007 O 4168.87 -3.23055 -1.50047 0
M  V30 44008 O 4167.73 -4.84536 -2.52758 0
M  V30 44009 H 4164.83 -0.716113 -0.413656 0
M  V30 44010 H 4167.37 -1.69287 -0.118383 0
M  V30 44011 H 4166.14 -3.8662 -0.603382 0
M  V30 44012 H 4165.77 -3.29758 -2.22139 0
M  V30 44013 N 4166.76 0.403271 -1.52353 0
M  V30 44014 C 4168.01 1.1468 -1.65926 0
M  V30 44015 C 4168.33 1.91503 -0.398245 0
M  V30 44016 O 4169.53 2.68327 -0.413872 0
M  V30 44017 C 4167.99 2.08751 -2.93174 0
M  V30 44018 C 4167.6 1.37417 -4.26404 0
M  V30 44019 C 4169.34 2.83327 -3.16111 0
M  V30 44020 C 4167.25 2.30172 -5.44771 0
M  V30 44021 H 4166.18 0.431794 -0.618118 0
M  V30 44022 H 4168.83 0.410761 -1.78844 0
M  V30 44023 H 4167.21 2.85932 -2.73969 0
M  V30 44024 H 4168.38 0.65561 -4.56112 0
M  V30 44025 H 4166.7 0.748596 -4.09616 0
M  V30 44026 H 4169.3 3.52879 -4.01722 0
M  V30 44027 H 4169.64 3.46606 -2.30587 0
M  V30 44028 H 4170.17 2.13244 -3.35815 0
M  V30 44029 H 4166.91 1.7153 -6.32659 0
M  V30 44030 H 4166.43 2.99984 -5.19393 0
M  V30 44031 H 4168.11 2.90569 -5.78082 0
M  V30 44032 N 4168.24 1.43075 0.66086 0
M  V30 44033 C 4169.2 1.4732 1.75583 0
M  V30 44034 C 4170.2 0.358899 1.56744 0
M  V30 44035 O 4171.39 0.620328 1.62781 0
M  V30 44036 C 4168.53 1.31839 3.14374 0
M  V30 44037 H 4169.72 2.44828 1.73202 0
M  V30 44038 H 4167.27 1.29728 0.871805 0
M  V30 44039 H 4168.01 0.353084 3.22372 0
M  V30 44040 H 4167.79 2.12609 3.29454 0
M  V30 44041 H 4169.28 1.37725 3.94236 0
M  V30 44042 N 4169.72 -0.898504 1.29478 0
M  V30 44043 C 4170.95 -1.68781 1.20532 0
M  V30 44044 C 4171.37 -1.86682 -0.230503 0
M  V30 44045 O 4170.73 -1.388 -1.16637 0
M  V30 44046 C 4170.78 -3.04916 1.92507 0
M  V30 44047 O 4169.88 -3.93224 1.24292 0
M  V30 44048 H 4169.22 -0.516246 0.417595 0
M  V30 44049 H 4171.75 -1.12237 1.71068 0
M  V30 44050 H 4171.76 -3.5505 2.01007 0
M  V30 44051 H 4170.44 -2.91204 2.96939 0
M  V30 44052 H 4169.01 -3.51659 1.24058 0
M  V30 44053 N 4171.2 -1.11974 -1.10903 0
M  V30 44054 C 4172.43 -0.894732 -1.86553 0
M  V30 44055 C 4172.84 0.555769 -1.80435 0
M  V30 44056 O 4172.2 1.38401 -1.1896 0
M  V30 44057 C 4172.25 -1.35498 -3.35146 0
M  V30 44058 O 4171.97 -2.74862 -3.41149 0
M  V30 44059 C 4173.47 -1.1662 -4.27685 0
M  V30 44060 H 4170.69 -0.320047 -0.589755 0
M  V30 44061 H 4173.24 -1.48849 -1.4023 0
M  V30 44062 H 4171.39 -0.804559 -3.78953 0
M  V30 44063 H 4171.8 -2.94944 -4.33715 0
M  V30 44064 H 4173.28 -1.53717 -5.30165 0
M  V30 44065 H 4173.76 -0.106296 -4.39071 0
M  V30 44066 H 4174.36 -1.70388 -3.89677 0
M  V30 44067 N 4172.68 1.28609 -0.910909 0
M  V30 44068 C 4173.95 1.90074 -0.461641 0
M  V30 44069 C 4174.33 1.82592 1.05941 0
M  V30 44070 O 4173.68 1.25998 1.90622 0
M  V30 44071 C 4173.89 3.34699 -0.988809 0
M  V30 44072 C 4175.24 4.11686 -1.0392 0
M  V30 44073 O 4176.26 3.43648 -0.937254 0
M  V30 44074 O 4175.12 5.33297 -1.19402 0
M  V30 44075 H 4172.22 0.814041 -0.145828 0
M  V30 44076 H 4174.76 1.36996 -1.00151 0
M  V30 44077 H 4173.53 3.34355 -2.03279 0
M  V30 44078 H 4173.16 3.95272 -0.429605 0
M  V30 44079 N 4174.15 0.674583 1.42433 0
M  V30 44080 C 4175.38 0.20515 2.0588 0
M  V30 44081 C 4175.8 -1.1376 1.50679 0
M  V30 44082 O 4175.15 -1.70665 0.646509 0
M  V30 44083 C 4175.21 0.131258 3.61262 0
M  V30 44084 O 4174.93 1.42095 4.14416 0
M  V30 44085 C 4176.43 -0.361698 4.41822 0
M  V30 44086 H 4173.65 0.0998199 0.663534 0
M  V30 44087 H 4176.19 0.921258 1.82574 0
M  V30 44088 H 4174.35 -0.535537 3.83681 0
M  V30 44089 H 4174.76 1.29416 5.08283 0
M  V30 44090 H 4176.23 -0.362309 5.5081 0
M  V30 44091 H 4176.71 -1.39692 4.16393 0
M  V30 44092 H 4177.32 0.273352 4.24421 0
M  V30 44093 N 4175.63 -1.51958 0.417898 0
M  V30 44094 C 4176.87 -2.03816 -0.154433 0
M  V30 44095 C 4177.24 -1.29629 -1.41634 0
M  V30 44096 O 4178.44 -1.71757 -2.06768 0
M  V30 44097 C 4176.71 -3.55293 -0.387468 0
M  V30 44098 S 4178.27 -4.28918 -0.925991 0
M  V30 44099 H 4175.09 -0.70982 -0.0409498 0
M  V30 44100 H 4177.69 -1.86919 0.572835 0
M  V30 44101 H 4176.39 -4.06864 0.537607 0
M  V30 44102 H 4175.92 -3.76449 -1.14236 0
M  V30 44103 H 4177.94 -4.44483 -2.20566 0
M  V30 44104 N 4177.11 -0.1486 -1.56898 0
M  V30 44105 C 4178.36 0.502112 -1.96176 0
M  V30 44106 C 4178.69 1.64768 -1.03353 0
M  V30 44107 O 4177.94 1.95598 -0.0630556 0
M  V30 44108 C 4178.24 1.04789 -3.41693 0
M  V30 44109 C 4177.91 0.0206069 -4.50895 0
M  V30 44110 C 4176.57 -0.261787 -4.80487 0
M  V30 44111 C 4178.92 -0.677874 -5.16773 0
M  V30 44112 C 4176.25 -1.24844 -5.73263 0
M  V30 44113 C 4178.6 -1.65336 -6.10612 0
M  V30 44114 C 4177.26 -1.94343 -6.38582 0
M  V30 44115 H 4176.53 0.183736 -0.717859 0
M  V30 44116 H 4179.18 -0.235768 -1.90043 0
M  V30 44117 H 4177.49 1.86314 -3.44666 0
M  V30 44118 H 4179.18 1.55998 -3.69413 0
M  V30 44119 H 4175.77 0.250888 -4.27865 0
M  V30 44120 H 4179.96 -0.4729 -4.94042 0
M  V30 44121 H 4175.21 -1.47961 -5.93226 0
M  V30 44122 H 4179.39 -2.20009 -6.60734 0
M  V30 44123 H 4177.01 -2.70948 -7.10275 0
M  V30 44124 N 4178.59 1.57102 0.125182 0
M  V30 44125 C 4179.55 1.98959 1.13788 0
M  V30 44126 C 4180.55 0.878911 1.34654 0
M  V30 44127 O 4181.74 1.14508 1.31276 0
M  V30 44128 C 4178.87 2.32441 2.49367 0
M  V30 44129 H 4180.07 2.89626 0.778268 0
M  V30 44130 H 4177.62 1.51875 0.369273 0
M  V30 44131 H 4178.35 1.44635 2.9026 0
M  V30 44132 H 4178.14 3.13442 2.35578 0
M  V30 44133 H 4179.63 2.65587 3.22263 0
M  V30 44134 N 4180.07 -0.395186 1.52565 0
M  V30 44135 C 4181.01 -1.50282 1.77534 0
M  V30 44136 C 4182.01 -1.56722 0.643003 0
M  V30 44137 O 4183.21 -1.59962 0.825352 0
M  V30 44138 H 4179.59 -0.50006 0.561644 0
M  V30 44139 H 4181.56 -1.26414 2.703 0
M  V30 44140 C 4180.31 -2.87491 1.95562 0
M  V30 44141 H 4179.63 -2.83283 2.82119 0
M  V30 44142 H 4181.07 -3.64247 2.17025 0
M  V30 44143 C 4179.53 -3.28974 0.726463 0
M  V30 44144 O 4180.06 -4.01578 -0.099054 0
M  V30 44145 N 4178.27 -2.85186 0.558349 0
M  V30 44146 H 4177.81 -2.2627 1.23124 0
M  V30 44147 H 4177.77 -3.133 -0.262724 0
M  V30 44148 N 4181.54 -1.43423 -0.653263 0
M  V30 44149 C 4182.49 -1.48579 -1.76615 0
M  V30 44150 C 4183.46 -0.335515 -1.62676 0
M  V30 44151 O 4184.65 -0.542662 -1.8292 0
M  V30 44152 C 4181.79 -1.41472 -3.14769 0
M  V30 44153 C 4180.9 -2.66704 -3.39843 0
M  V30 44154 C 4180.03 -2.51586 -4.67844 0
M  V30 44155 C 4179.07 -3.72087 -4.86022 0
M  V30 44156 N 4178.21 -3.5578 -6.05281 0
M  V30 44157 H 4183.05 -2.43673 -1.71544 0
M  V30 44158 H 4180.59 -1.20956 -0.837134 0
M  V30 44159 H 4182.55 -1.35347 -3.94635 0
M  V30 44160 H 4181.18 -0.499599 -3.1891 0
M  V30 44161 H 4180.23 -2.83109 -2.54074 0
M  V30 44162 H 4181.54 -3.56213 -3.49161 0
M  V30 44163 H 4180.69 -2.43168 -5.55836 0
M  V30 44164 H 4179.43 -1.59601 -4.60846 0
M  V30 44165 H 4178.44 -3.80914 -3.96466 0
M  V30 44166 H 4179.66 -4.6508 -4.94851 0
M  V30 44167 H 4177.61 -2.66529 -5.99415 0
M  V30 44168 H 4177.53 -4.3889 -6.15558 0
M  V30 44169 H 4178.79 -3.51213 -6.95895 0
M  V30 44170 N 4183.02 0.891625 -1.29953 0
M  V30 44171 C 4183.97 1.98376 -1.12388 0
M  V30 44172 C 4184.96 1.60848 -0.040947 0
M  V30 44173 O 4186.15 1.75027 -0.263545 0
M  V30 44174 C 4183.28 3.33586 -0.810868 0
M  V30 44175 C 4182.36 3.77449 -1.93373 0
M  V30 44176 N 4182.75 3.93471 -3.17828 0
M  V30 44177 C 4181.05 4.06791 -1.82859 0
M  V30 44178 C 4181.75 4.30565 -3.91137 0
M  V30 44179 N 4180.73 4.40059 -3.19139 0
M  V30 44180 H 4184.53 2.08844 -2.06788 0
M  V30 44181 H 4182.05 1.08099 -1.21195 0
M  V30 44182 H 4184.04 4.11545 -0.666056 0
M  V30 44183 H 4182.7 3.24459 0.125136 0
M  V30 44184 H 4183.71 3.78782 -3.53192 0
M  V30 44185 H 4180.39 4.06175 -0.965831 0
M  V30 44186 H 4181.78 4.50739 -4.98281 0
M  V30 44187 N 4184.5 1.12561 1.10308 0
M  V30 44188 C 4185.46 0.797768 2.14868 0
M  V30 44189 C 4186.46 -0.188493 1.59691 0
M  V30 44190 O 4187.65 0.0374636 1.7416 0
M  V30 44191 C 4184.79 0.185725 3.40394 0
M  V30 44192 H 4185.98 1.72419 2.45381 0
M  V30 44193 H 4183.53 0.929033 1.25693 0
M  V30 44194 H 4184.27 -0.750354 3.155 0
M  V30 44195 H 4184.05 0.895838 3.81729 0
M  V30 44196 H 4185.54 -0.0271114 4.17591 0
M  V30 44197 N 4185.98 -1.28124 0.917717 0
M  V30 44198 C 4187.26 -1.89827 0.471715 0
M  V30 44199 C 4187.64 -1.83151 -1.04971 0
M  V30 44200 O 4186.98 -1.27007 -1.89951 0
M  V30 44201 C 4187.19 -3.3417 1.00655 0
M  V30 44202 C 4188.54 -4.1113 1.06102 0
M  V30 44203 O 4189.57 -3.43146 0.955466 0
M  V30 44204 O 4188.43 -5.32656 1.22228 0
M  V30 44205 H 4185.52 -0.813256 0.150143 0
M  V30 44206 H 4188.07 -1.36463 1.00876 0
M  V30 44207 H 4186.84 -3.33273 2.05049 0
M  V30 44208 H 4186.46 -3.95039 0.450561 0
M  V30 44209 N 4187.46 -0.682127 -1.42073 0
M  V30 44210 C 4188.7 -0.207442 -2.01435 0
M  V30 44211 C 4189.03 1.18848 -1.53965 0
M  V30 44212 O 4188.29 1.81344 -0.735725 0
M  V30 44213 C 4188.59 -0.198685 -3.56847 0
M  V30 44214 C 4188.25 -1.54028 -4.23776 0
M  V30 44215 C 4186.91 -1.9076 -4.41774 0
M  V30 44216 C 4189.27 -2.42351 -4.61427 0
M  V30 44217 C 4186.59 -3.15426 -4.94695 0
M  V30 44218 C 4188.95 -3.66337 -5.15733 0
M  V30 44219 C 4187.61 -4.03228 -5.31943 0
M  V30 44220 H 4186.88 -0.0759083 -0.737102 0
M  V30 44221 H 4189.53 -0.878562 -1.70157 0
M  V30 44222 H 4187.83 0.55596 -3.87835 0
M  V30 44223 H 4189.53 0.185915 -4.00569 0
M  V30 44224 H 4186.12 -1.24455 -4.10133 0
M  V30 44225 H 4190.3 -2.15257 -4.47189 0
M  V30 44226 H 4185.56 -3.44021 -5.0543 0
M  V30 44227 H 4189.73 -4.34972 -5.43849 0
M  V30 44228 H 4187.36 -4.99903 -5.72714 0
M  V30 44229 N 4188.94 1.51735 -0.425951 0
M  V30 44230 C 4190.21 1.94537 0.203686 0
M  V30 44231 C 4190.59 1.36393 1.61121 0
M  V30 44232 O 4189.94 0.546419 2.2187 0
M  V30 44233 C 4190.15 3.48466 0.19298 0
M  V30 44234 C 4191.5 4.22672 0.40413 0
M  V30 44235 O 4192.52 3.55163 0.2716 0
M  V30 44236 O 4191.38 5.42416 0.666831 0
M  V30 44237 H 4188.48 0.815724 0.1361 0
M  V30 44238 H 4191.02 1.62678 -0.483109 0
M  V30 44239 H 4189.79 3.83212 -0.791488 0
M  V30 44240 H 4189.42 3.86734 0.923167 0
M  V30 44241 N 4190.41 0.156919 1.56817 0
M  V30 44242 C 4191.64 -0.49837 2.00808 0
M  V30 44243 C 4192.06 -1.57766 1.03708 0
M  V30 44244 O 4191.41 -1.82465 0.0356389 0
M  V30 44245 C 4191.46 -1.08993 3.44678 0
M  V30 44246 O 4191.19 -0.05374 4.38067 0
M  V30 44247 C 4192.69 -1.82486 4.03997 0
M  V30 44248 H 4189.91 -0.128876 0.658507 0
M  V30 44249 H 4192.45 0.254418 2.02911 0
M  V30 44250 H 4190.61 -1.79328 3.43395 0
M  V30 44251 H 4191.02 -0.488476 5.2222 0
M  V30 44252 H 4192.49 -2.19155 5.06631 0
M  V30 44253 H 4192.97 -2.7145 3.4527 0
M  V30 44254 H 4193.58 -1.16826 4.0894 0
M  V30 44255 N 4191.89 -1.57166 -0.116849 0
M  V30 44256 C 4193.14 -1.86117 -0.82048 0
M  V30 44257 C 4193.49 -0.74496 -1.77393 0
M  V30 44258 O 4192.79 0.254864 -1.89897 0
M  V30 44259 C 4192.98 -3.19258 -1.60653 0
M  V30 44260 C 4192.81 -4.43724 -0.730704 0
M  V30 44261 C 4191.58 -5.03833 -0.384719 0
M  V30 44262 C 4193.78 -5.14278 -0.0473694 0
M  V30 44263 N 4191.76 -6.11848 0.501546 0
M  V30 44264 C 4193.13 -6.16061 0.697813 0
M  V30 44265 C 4195.18 -4.97892 0.0288253 0
M  V30 44266 C 4193.89 -7.03228 1.51204 0
M  V30 44267 C 4195.91 -5.85548 0.829881 0
M  V30 44268 C 4195.28 -6.86835 1.56325 0
M  V30 44269 H 4191.37 -0.731261 -0.277096 0
M  V30 44270 H 4193.96 -1.94518 -0.0841049 0
M  V30 44271 H 4192.13 -3.11949 -2.31393 0
M  V30 44272 H 4193.86 -3.36009 -2.25566 0
M  V30 44273 H 4190.62 -4.6798 -0.72745 0
M  V30 44274 H 4191.04 -6.7049 0.936591 0
M  V30 44275 H 4195.68 -4.19543 -0.523813 0
M  V30 44276 H 4193.4 -7.80983 2.07582 0
M  V30 44277 H 4196.99 -5.74933 0.891224 0
M  V30 44278 H 4195.87 -7.53488 2.17313 0
M  V30 44279 N 4193.37 0.38709 -1.52772 0
M  V30 44280 C 4194.62 1.13193 -1.67909 0
M  V30 44281 C 4194.94 1.89912 -0.41998 0
M  V30 44282 O 4194.2 1.8635 0.597667 0
M  V30 44283 C 4194.5 2.13482 -2.86636 0
M  V30 44284 C 4194.16 1.53407 -4.24001 0
M  V30 44285 C 4192.83 1.36749 -4.6136 0
M  V30 44286 C 4195.18 1.09747 -5.09514 0
M  V30 44287 C 4192.51 0.749825 -5.81889 0
M  V30 44288 C 4194.86 0.493901 -6.30669 0
M  V30 44289 C 4193.52 0.314638 -6.66758 0
M  V30 44290 H 4192.79 0.414204 -0.614424 0
M  V30 44291 H 4195.44 0.416329 -1.8692 0
M  V30 44292 H 4193.74 2.91268 -2.6205 0
M  V30 44293 H 4195.44 2.71027 -2.95543 0
M  V30 44294 H 4192.03 1.6736 -3.94574 0
M  V30 44295 H 4196.22 1.21418 -4.81219 0
M  V30 44296 H 4191.47 0.599152 -6.08457 0
M  V30 44297 H 4195.65 0.147307 -6.96244 0
M  V30 44298 H 4193.27 -0.166058 -7.60019 0
M  V30 44299 N 4194.85 1.43768 0.645648 0
M  V30 44300 C 4196.07 1.49457 1.43796 0
M  V30 44301 C 4196.5 0.115981 1.87742 0
M  V30 44302 O 4195.86 -0.891864 1.57846 0
M  V30 44303 C 4195.9 2.45191 2.64412 0
M  V30 44304 O 4195.01 1.9434 3.63738 0
M  V30 44305 H 4194.35 0.505237 0.430849 0
M  V30 44306 H 4196.88 1.88759 0.78939 0
M  V30 44307 H 4196.89 2.62747 3.12135 0
M  V30 44308 H 4195.56 3.45334 2.3177 0
M  V30 44309 H 4194.14 1.86482 3.22922 0
M  V30 44310 N 4196.33 -0.884721 1.30424 0
M  V30 44311 C 4197.26 -1.99612 1.12641 0
M  V30 44312 C 4198.27 -1.62651 0.0695835 0
M  V30 44313 O 4199.46 -1.75687 0.315624 0
M  V30 44314 C 4196.56 -3.31682 0.69571 0
M  V30 44315 C 4195.73 -3.97078 1.83434 0
M  V30 44316 C 4194.79 -5.0745 1.39215 0
M  V30 44317 O 4193.82 -5.29069 2.09941 0
M  V30 44318 N 4195.02 -5.79866 0.271312 0
M  V30 44319 H 4197.78 -2.15417 2.08364 0
M  V30 44320 H 4195.35 -1.05782 1.22563 0
M  V30 44321 H 4197.34 -4.02885 0.382899 0
M  V30 44322 H 4195.91 -3.1214 -0.169488 0
M  V30 44323 H 4195.13 -3.19045 2.31525 0
M  V30 44324 H 4196.42 -4.37509 2.59737 0
M  V30 44325 H 4195.81 -5.64805 -0.318012 0
M  V30 44326 H 4194.37 -6.51798 0.0179552 0
M  V30 44327 N 4197.8 -1.13144 -1.09709 0
M  V30 44328 C 4199.22 -0.869046 -1.33865 0
M  V30 44329 C 4199.42 0.496935 -1.95276 0
M  V30 44330 O 4198.48 1.24407 -2.19725 0
M  V30 44331 C 4199.79 -1.99137 -2.25311 0
M  V30 44332 C 4201.34 -2.02312 -2.38828 0
M  V30 44333 C 4201.81 -3.13799 -3.33608 0
M  V30 44334 N 4203.3 -3.1329 -3.41179 0
M  V30 44335 C 4204.04 -3.96194 -4.14509 0
M  V30 44336 N 4203.53 -4.89105 -4.9066 0
M  V30 44337 N 4205.33 -3.84304 -4.10204 0
M  V30 44338 H 4197.48 -2.01146 -0.682207 0
M  V30 44339 H 4199.74 -0.875734 -0.363035 0
M  V30 44340 H 4199.45 -2.97608 -1.87409 0
M  V30 44341 H 4199.32 -1.903 -3.25677 0
M  V30 44342 H 4201.71 -1.04456 -2.75994 0
M  V30 44343 H 4201.79 -2.15222 -1.3825 0
M  V30 44344 H 4201.43 -4.11893 -2.97165 0
M  V30 44345 H 4201.36 -2.98127 -4.34083 0
M  V30 44346 H 4203.85 -2.45987 -2.86878 0
M  V30 44347 H 4204.17 -5.48858 -5.44035 0
M  V30 44348 H 4202.51 -4.93114 -4.89759 0
M  V30 44349 H 4205.7 -3.11048 -3.4981 0
M  V30 44350 H 4205.88 -4.49143 -4.67092 0
M  V30 44351 N 4199.28 1.27635 -0.924498 0
M  V30 44352 C 4200.53 1.94125 -0.562141 0
M  V30 44353 C 4200.85 1.73042 0.898969 0
M  V30 44354 O 4200.12 1.0763 1.63684 0
M  V30 44355 H 4198.7 0.718347 -0.204906 0
M  V30 44356 H 4201.36 1.55408 -1.1762 0
M  V30 44357 H 4200.46 3.02562 -0.765697 0
M  V30 44358 N 4200.76 0.689652 1.41709 0
M  V30 44359 C 4202.01 0.217691 2.00924 0
M  V30 44360 C 4202.33 -1.18488 1.54873 0
M  V30 44361 O 4201.6 -1.79842 0.776777 0
M  V30 44362 H 4200.18 0.0774913 0.74297 0
M  V30 44363 H 4202.84 0.889487 1.73419 0
M  V30 44364 H 4201.94 0.230506 3.11248 0
M  V30 44365 N 4202.24 -1.51507 0.433991 0
M  V30 44366 C 4203.46 -2.06962 -0.134756 0
M  V30 44367 C 4203.89 -1.29964 -1.35981 0
M  V30 44368 O 4203.25 -0.33666 -1.78147 0
M  V30 44369 C 4203.29 -3.57919 -0.438913 0
M  V30 44370 O 4202.4 -3.83131 -1.52592 0
M  V30 44371 H 4201.74 -0.663992 -0.00333325 0
M  V30 44372 H 4204.27 -1.95158 0.614361 0
M  V30 44373 H 4204.28 -4.02117 -0.690344 0
M  V30 44374 H 4202.95 -4.13387 0.456485 0
M  V30 44375 H 4201.53 -3.50798 -1.26471 0
M  V30 44376 N 4203.72 -0.165233 -1.56731 0
M  V30 44377 C 4204.95 0.487006 -2.00778 0
M  V30 44378 C 4205.35 1.57756 -1.0445 0
M  V30 44379 O 4204.7 1.83664 -0.0364302 0
M  V30 44380 C 4204.76 1.13074 -3.41254 0
M  V30 44381 C 4204.42 0.182585 -4.56635 0
M  V30 44382 C 4205.42 -0.596756 -5.16464 0
M  V30 44383 C 4203.11 0.080182 -5.02236 0
M  V30 44384 C 4205.1 -1.46576 -6.20318 0
M  V30 44385 C 4202.79 -0.792414 -6.05941 0
M  V30 44386 C 4203.78 -1.56398 -6.64852 0
M  V30 44387 O 4203.47 -2.422 -7.66547 0
M  V30 44388 H 4203.2 0.129635 -0.663454 0
M  V30 44389 H 4205.76 -0.262269 -2.03719 0
M  V30 44390 H 4203.99 1.92802 -3.35208 0
M  V30 44391 H 4205.68 1.68456 -3.69293 0
M  V30 44392 H 4206.44 -0.527779 -4.8212 0
M  V30 44393 H 4202.32 0.670506 -4.56098 0
M  V30 44394 H 4205.87 -2.06845 -6.66229 0
M  V30 44395 H 4201.76 -0.862616 -6.3971 0
M  V30 44396 H 4202.53 -2.35649 -7.83844 0
M  V30 44397 N 4205.19 1.57226 0.108512 0
M  V30 44398 C 4206.42 1.89595 0.82834 0
M  V30 44399 C 4206.84 0.757574 1.72934 0
M  V30 44400 O 4206.19 -0.27112 1.80475 0
M  V30 44401 C 4206.25 3.21495 1.65298 0
M  V30 44402 O 4205.97 4.30951 0.788239 0
M  V30 44403 C 4207.47 3.67637 2.47705 0
M  V30 44404 H 4204.69 0.627535 0.237573 0
M  V30 44405 H 4207.23 2.04303 0.0897616 0
M  V30 44406 H 4205.39 3.08425 2.34421 0
M  V30 44407 H 4205.8 5.06613 1.35805 0
M  V30 44408 H 4207.27 4.62661 3.0108 0
M  V30 44409 H 4207.75 2.94811 3.2555 0
M  V30 44410 H 4208.36 3.8353 1.83806 0
M  V30 44411 N 4206.67 -0.378982 1.52975 0
M  V30 44412 C 4207.62 -1.4839 1.79117 0
M  V30 44413 C 4208.61 -1.56031 0.659589 0
M  V30 44414 O 4209.82 -1.59078 0.842271 0
M  V30 44415 H 4206.2 -0.494075 0.566917 0
M  V30 44416 H 4208.17 -1.2354 2.71626 0
M  V30 44417 C 4206.92 -2.854 1.986 0
M  V30 44418 H 4206.24 -2.80275 2.85107 0
M  V30 44419 H 4207.68 -3.61925 2.20876 0
M  V30 44420 C 4206.14 -3.28185 0.761315 0
M  V30 44421 O 4206.67 -4.0166 -0.0564558 0
M  V30 44422 N 4204.87 -2.84577 0.588565 0
M  V30 44423 H 4204.42 -2.24951 1.25517 0
M  V30 44424 H 4204.38 -3.13561 -0.22948 0
M  V30 44425 N 4208.15 -1.44108 -0.638015 0
M  V30 44426 C 4209.43 -1.37004 -1.39604 0
M  V30 44427 C 4209.81 -0.0253349 -2.11085 0
M  V30 44428 O 4209.16 0.991835 -2.05852 0
M  V30 44429 C 4209.37 -2.56358 -2.36816 0
M  V30 44430 C 4210.71 -3.00118 -3.00357 0
M  V30 44431 O 4211.74 -2.56513 -2.47142 0
M  V30 44432 O 4210.6 -3.75703 -3.96874 0
M  V30 44433 H 4207.69 -0.542197 -0.624461 0
M  V30 44434 H 4210.24 -1.56185 -0.663647 0
M  V30 44435 H 4209.01 -3.45845 -1.83048 0
M  V30 44436 H 4208.63 -2.39355 -3.17482 0
M  V30 44437 N 4209.63 0.877792 -1.30891 0
M  V30 44438 C 4210.58 1.98425 -1.17881 0
M  V30 44439 C 4211.55 1.65967 -0.0665185 0
M  V30 44440 O 4212.73 1.8931 -0.237989 0
M  V30 44441 C 4209.87 3.33585 -0.884043 0
M  V30 44442 C 4208.98 3.78689 -2.07892 0
M  V30 44443 C 4208.12 5.02528 -1.72161 0
M  V30 44444 C 4207.16 5.40059 -2.88101 0
M  V30 44445 N 4206.29 6.55079 -2.52618 0
M  V30 44446 H 4211.13 2.08885 -2.12535 0
M  V30 44447 H 4208.67 1.02268 -1.05734 0
M  V30 44448 H 4210.63 4.11392 -0.693729 0
M  V30 44449 H 4209.26 3.2279 0.0256366 0
M  V30 44450 H 4208.31 2.96729 -2.38025 0
M  V30 44451 H 4209.62 4.02438 -2.94694 0
M  V30 44452 H 4208.78 5.8798 -1.49546 0
M  V30 44453 H 4207.52 4.80665 -0.825381 0
M  V30 44454 H 4206.52 4.5313 -3.11374 0
M  V30 44455 H 4207.75 5.63892 -3.78422 0
M  V30 44456 H 4205.69 6.34778 -1.6551 0
M  V30 44457 H 4205.61 6.78733 -3.32952 0
M  V30 44458 H 4206.88 7.43744 -2.33378 0
M  V30 44459 N 4211.11 1.13725 1.09108 0
M  V30 44460 C 4212.07 0.820513 2.1401 0
M  V30 44461 C 4213.07 -0.171545 1.59882 0
M  V30 44462 O 4214.26 0.0559335 1.7411 0
M  V30 44463 C 4211.39 0.221818 3.40178 0
M  V30 44464 H 4212.58 1.75012 2.43538 0
M  V30 44465 H 4210.14 0.942312 1.247 0
M  V30 44466 H 4210.87 -0.716848 3.16278 0
M  V30 44467 H 4210.66 0.936275 3.80758 0
M  V30 44468 H 4212.15 0.0171813 4.17596 0
M  V30 44469 N 4212.58 -1.27143 0.931254 0
M  V30 44470 C 4213.82 -1.95972 0.580902 0
M  V30 44471 C 4214.19 -1.71542 -0.862395 0
M  V30 44472 O 4215.39 -2.3409 -1.32119 0
M  V30 44473 C 4213.66 -3.45827 0.902115 0
M  V30 44474 S 4215.22 -4.33796 0.660813 0
M  V30 44475 H 4212.04 -0.677935 0.214302 0
M  V30 44476 H 4214.64 -1.54303 1.20045 0
M  V30 44477 H 4213.34 -3.61106 1.95015 0
M  V30 44478 H 4212.87 -3.92459 0.2719 0
M  V30 44479 H 4214.89 -4.93876 -0.479717 0
M  V30 44480 N 4214.06 -0.697157 -1.41342 0
M  V30 44481 C 4215.47 -0.303393 -1.84218 0
M  V30 44482 C 4215.83 1.15871 -1.5833 0
M  V30 44483 O 4214.95 1.88965 -1.05457 0
M  V30 44484 C 4215.55 -0.543874 -3.34406 0
M  V30 44485 C 4214.1 -0.20401 -3.75847 0
M  V30 44486 C 4213.25 -0.825375 -2.64732 0
M  V30 44487 H 4216.2 -0.897694 -1.30871 0
M  V30 44488 H 4216.22 0.196908 -3.7999 0
M  V30 44489 H 4215.74 -1.60809 -3.53217 0
M  V30 44490 H 4213.84 0.855875 -3.62637 0
M  V30 44491 H 4213.95 -0.660138 -4.7453 0
M  V30 44492 H 4212.31 -0.254851 -2.53422 0
M  V30 44493 H 4213.1 -1.89349 -2.8636 0
M  V30 44494 N 4215.54 1.51274 -0.44202 0
M  V30 44495 C 4216.47 2.30747 0.357517 0
M  V30 44496 C 4217.45 1.36364 1.01681 0
M  V30 44497 O 4218.64 1.65284 1.01955 0
M  V30 44498 C 4215.77 3.15289 1.45636 0
M  V30 44499 C 4214.72 4.17989 0.920304 0
M  V30 44500 C 4214.05 4.91082 2.11525 0
M  V30 44501 C 4215.35 5.22277 -0.0484859 0
M  V30 44502 H 4217.04 2.97835 -0.305702 0
M  V30 44503 H 4214.59 1.43233 -0.148464 0
M  V30 44504 H 4216.54 3.69668 2.02295 0
M  V30 44505 H 4215.26 2.46031 2.14794 0
M  V30 44506 H 4213.92 3.64668 0.375898 0
M  V30 44507 H 4213.57 4.18322 2.79313 0
M  V30 44508 H 4213.27 5.6053 1.76293 0
M  V30 44509 H 4214.8 5.48286 2.68729 0
M  V30 44510 H 4216.21 5.717 0.427952 0
M  V30 44511 H 4214.61 5.9928 -0.313609 0
M  V30 44512 H 4215.68 4.74817 -0.983694 0
M  V30 44513 N 4217.02 0.173543 1.56642 0
M  V30 44514 C 4218.27 -0.47094 1.96125 0
M  V30 44515 C 4218.58 -1.64238 1.06232 0
M  V30 44516 O 4219.79 -2.35324 1.35406 0
M  V30 44517 C 4218.24 -0.889223 3.48742 0
M  V30 44518 C 4217.85 0.256741 4.47264 0
M  V30 44519 C 4219.6 -1.502 3.97039 0
M  V30 44520 C 4217.5 -0.181297 5.91122 0
M  V30 44521 H 4216.43 -0.179711 0.73227 0
M  V30 44522 H 4219.08 0.262128 1.81618 0
M  V30 44523 H 4217.47 -1.67833 3.58675 0
M  V30 44524 H 4218.64 1.03409 4.49047 0
M  V30 44525 H 4216.95 0.779618 4.09037 0
M  V30 44526 H 4219.55 -1.84181 5.01977 0
M  V30 44527 H 4219.89 -2.40072 3.40104 0
M  V30 44528 H 4220.43 -0.777282 3.90132 0
M  V30 44529 H 4217.17 0.682706 6.51935 0
M  V30 44530 H 4216.69 -0.923959 5.92641 0
M  V30 44531 H 4218.37 -0.624419 6.4398 0
M  V30 44532 N 4218.5 -1.57281 -0.100172 0
M  V30 44533 C 4219.46 -2.00745 -1.10609 0
M  V30 44534 C 4220.46 -0.900222 -1.33239 0
M  V30 44535 O 4221.65 -1.16582 -1.29438 0
M  V30 44536 C 4218.78 -2.36379 -2.45638 0
M  V30 44537 H 4219.98 -2.90827 -0.732092 0
M  V30 44538 H 4217.53 -1.52443 -0.345064 0
M  V30 44539 H 4218.26 -1.49235 -2.87923 0
M  V30 44540 H 4218.05 -3.1715 -2.30561 0
M  V30 44541 H 4219.54 -2.7068 -3.17997 0
M  V30 44542 N 4219.98 0.370864 -1.53174 0
M  V30 44543 C 4220.94 1.43682 -1.78573 0
M  V30 44544 C 4221.94 1.46808 -0.656044 0
M  V30 44545 O 4223.13 1.47661 -0.924217 0
M  V30 44546 C 4220.26 2.8284 -1.903 0
M  V30 44547 H 4221.45 1.22437 -2.73768 0
M  V30 44548 H 4219.01 0.603687 -1.44171 0
M  V30 44549 H 4219.74 3.09406 -0.971526 0
M  V30 44550 H 4219.53 2.8197 -2.72461 0
M  V30 44551 H 4221.02 3.60044 -2.1156 0
M  V30 44552 N 4221.45 1.44444 0.630363 0
M  V30 44553 C 4222.7 1.47486 1.39197 0
M  V30 44554 C 4223.03 0.107347 1.93903 0
M  V30 44555 O 4222.31 -0.875128 1.737 0
M  V30 44556 C 4222.59 2.53585 2.55669 0
M  V30 44557 C 4222.44 3.99697 2.06307 0
M  V30 44558 C 4223.76 2.56181 3.57854 0
M  V30 44559 H 4220.88 0.536993 0.504785 0
M  V30 44560 H 4223.52 1.76128 0.712667 0
M  V30 44561 H 4221.67 2.29292 3.1362 0
M  V30 44562 H 4223.35 4.35124 1.53181 0
M  V30 44563 H 4221.59 4.11437 1.37484 0
M  V30 44564 H 4222.26 4.69583 2.90165 0
M  V30 44565 H 4224.74 2.77889 3.09705 0
M  V30 44566 H 4223.61 3.3232 4.36869 0
M  V30 44567 H 4223.87 1.60408 4.11973 0
M  V30 44568 N 4222.93 -0.870838 1.31355 0
M  V30 44569 C 4224.18 -1.6186 1.20351 0
M  V30 44570 C 4224.49 -1.94155 -0.237339 0
M  V30 44571 O 4225.7 -2.67417 -0.469064 0
M  V30 44572 C 4224.16 -2.9179 2.10682 0
M  V30 44573 C 4223.76 -2.66981 3.59757 0
M  V30 44574 C 4225.51 -3.69781 2.08475 0
M  V30 44575 C 4223.41 -3.92813 4.42099 0
M  V30 44576 H 4222.34 -0.60731 0.446868 0
M  V30 44577 H 4225 -0.962938 1.56204 0
M  V30 44578 H 4223.38 -3.58725 1.67726 0
M  V30 44579 H 4224.55 -2.08458 4.10952 0
M  V30 44580 H 4222.87 -2.02344 3.63931 0
M  V30 44581 H 4225.46 -4.63127 2.6724 0
M  V30 44582 H 4225.81 -4.02269 1.07168 0
M  V30 44583 H 4226.34 -3.09728 2.49627 0
M  V30 44584 H 4223.08 -3.65476 5.44158 0
M  V30 44585 H 4222.6 -4.5079 3.95662 0
M  V30 44586 H 4224.28 -4.60706 4.54267 0
M  V30 44587 N 4224.41 -1.14302 -1.08503 0
M  V30 44588 C 4225.64 -0.934102 -1.84614 0
M  V30 44589 C 4226.05 0.517371 -1.81573 0
M  V30 44590 O 4225.41 1.35846 -1.21869 0
M  V30 44591 C 4225.46 -1.42577 -3.32196 0
M  V30 44592 O 4225.18 -2.82037 -3.35242 0
M  V30 44593 C 4226.68 -1.25665 -4.25115 0
M  V30 44594 H 4223.9 -0.332485 -0.582834 0
M  V30 44595 H 4226.45 -1.5179 -1.37041 0
M  V30 44596 H 4224.6 -0.88476 -3.77161 0
M  V30 44597 H 4225.02 -3.04077 -4.27361 0
M  V30 44598 H 4226.49 -1.64928 -5.26785 0
M  V30 44599 H 4226.97 -0.199405 -4.38747 0
M  V30 44600 H 4227.57 -1.78615 -3.85975 0
M  V30 44601 N 4225.89 1.26648 -0.937984 0
M  V30 44602 C 4227.3 1.46215 -0.6398 0
M  V30 44603 C 4227.5 1.84596 0.807863 0
M  V30 44604 O 4226.56 1.96571 1.58481 0
M  V30 44605 C 4227.87 2.54694 -1.59848 0
M  V30 44606 C 4229.42 2.68547 -1.60783 0
M  V30 44607 C 4229.9 3.80195 -2.55374 0
M  V30 44608 N 4231.39 3.87583 -2.53641 0
M  V30 44609 C 4232.12 4.73418 -3.23517 0
M  V30 44610 N 4231.62 5.63664 -4.02808 0
M  V30 44611 N 4233.41 4.67236 -3.12485 0
M  V30 44612 H 4225.56 1.00021 -1.87375 0
M  V30 44613 H 4227.82 0.500607 -0.805044 0
M  V30 44614 H 4227.53 2.3331 -2.63172 0
M  V30 44615 H 4227.4 3.52288 -1.34808 0
M  V30 44616 H 4229.79 2.89307 -0.581859 0
M  V30 44617 H 4229.87 1.71408 -1.89876 0
M  V30 44618 H 4229.52 3.60188 -3.58088 0
M  V30 44619 H 4229.45 4.76784 -2.23572 0
M  V30 44620 H 4231.94 3.2306 -1.96063 0
M  V30 44621 H 4232.25 6.26045 -4.53086 0
M  V30 44622 H 4230.6 5.63427 -4.0691 0
M  V30 44623 H 4233.79 3.95734 -2.50025 0
M  V30 44624 H 4233.96 5.33911 -3.6721 0
M  V30 44625 N 4227.37 0.704643 1.4097 0
M  V30 44626 C 4228.28 0.045815 2.34555 0
M  V30 44627 C 4229.29 -0.756009 1.56718 0
M  V30 44628 O 4230.47 -0.691485 1.89157 0
M  V30 44629 C 4227.53 -0.872756 3.35535 0
M  V30 44630 C 4226.59 -0.0621166 4.29255 0
M  V30 44631 C 4225.83 -0.936938 5.25411 0
M  V30 44632 O 4226.05 -2.17635 5.27249 0
M  V30 44633 O 4224.98 -0.381768 6.00688 0
M  V30 44634 H 4228.81 0.817467 2.92491 0
M  V30 44635 H 4226.39 0.465039 1.41978 0
M  V30 44636 H 4228.28 -1.39923 3.97491 0
M  V30 44637 H 4226.95 -1.62374 2.80029 0
M  V30 44638 H 4225.86 0.509174 3.70619 0
M  V30 44639 H 4227.19 0.650406 4.87884 0
M  V30 44640 N 4228.84 -1.51038 0.450036 0
M  V30 44641 C 4230.09 -2.02489 -0.112321 0
M  V30 44642 C 4230.42 -1.33279 -1.41246 0
M  V30 44643 O 4229.7 -0.451712 -1.89182 0
M  V30 44644 C 4229.98 -3.58693 -0.317962 0
M  V30 44645 C 4229.83 -4.38504 1.00172 0
M  V30 44646 C 4231.15 -4.26591 -1.08206 0
M  V30 44647 H 4228.27 -0.735949 -0.039347 0
M  V30 44648 H 4230.91 -1.80558 0.591517 0
M  V30 44649 H 4229.06 -3.77511 -0.917486 0
M  V30 44650 H 4230.74 -4.31307 1.6362 0
M  V30 44651 H 4228.98 -4.03082 1.60336 0
M  V30 44652 H 4229.65 -5.45999 0.811723 0
M  V30 44653 H 4232.13 -4.1212 -0.574101 0
M  V30 44654 H 4231 -5.3574 -1.19472 0
M  V30 44655 H 4231.26 -3.88315 -2.11338 0
M  V30 44656 N 4230.32 -0.181847 -1.56547 0
M  V30 44657 C 4231.57 0.459477 -1.96808 0
M  V30 44658 C 4231.89 1.63063 -1.06936 0
M  V30 44659 O 4231.16 1.95414 -0.137876 0
M  V30 44660 H 4229.74 0.17274 -0.726753 0
M  V30 44661 H 4232.4 -0.265489 -1.93083 0
M  V30 44662 H 4231.5 0.812469 -3.01339 0
M  V30 44663 N 4231.8 1.57332 0.09183 0
M  V30 44664 C 4233.05 1.86254 0.794724 0
M  V30 44665 C 4233.38 0.770825 1.78574 0
M  V30 44666 O 4232.63 -0.235257 1.94281 0
M  V30 44667 C 4232.93 3.21773 1.55553 0
M  V30 44668 C 4232.6 4.45333 0.706348 0
M  V30 44669 C 4231.26 4.78877 0.472262 0
M  V30 44670 C 4233.61 5.2107 0.116222 0
M  V30 44671 C 4230.94 5.85584 -0.36176 0
M  V30 44672 C 4233.29 6.28658 -0.705141 0
M  V30 44673 C 4231.95 6.60715 -0.949288 0
M  V30 44674 H 4231.22 0.68155 0.29081 0
M  V30 44675 H 4233.87 1.91418 0.056103 0
M  V30 44676 H 4232.18 3.12308 2.36582 0
M  V30 44677 H 4233.87 3.41379 2.10384 0
M  V30 44678 H 4230.46 4.19067 0.898911 0
M  V30 44679 H 4234.65 4.95485 0.284228 0
M  V30 44680 H 4229.9 6.08831 -0.559864 0
M  V30 44681 H 4234.08 6.86514 -1.16926 0
M  V30 44682 H 4231.7 7.43229 -1.59734 0
M  V30 44683 N 4233.28 -0.362736 1.53369 0
M  V30 44684 C 4234.52 -1.10671 1.6994 0
M  V30 44685 C 4234.86 -1.88883 0.451335 0
M  V30 44686 O 4234.13 -1.8652 -0.551419 0
M  V30 44687 C 4234.42 -2.06362 2.95105 0
M  V30 44688 C 4234.27 -1.3174 4.30075 0
M  V30 44689 C 4235.59 -3.06446 3.15878 0
M  V30 44690 H 4232.71 -0.400957 0.618387 0
M  V30 44691 H 4235.35 -0.387232 1.86012 0
M  V30 44692 H 4233.5 -2.67715 2.81533 0
M  V30 44693 H 4235.17 -0.731494 4.55463 0
M  V30 44694 H 4233.41 -0.619272 4.29357 0
M  V30 44695 H 4234.08 -2.01794 5.13793 0
M  V30 44696 H 4236.56 -2.55198 3.28653 0
M  V30 44697 H 4235.44 -3.70621 4.04884 0
M  V30 44698 H 4235.7 -3.76774 2.31288 0
M  V30 44699 N 4234.76 -1.44777 -0.622694 0
M  V30 44700 C 4236 -1.48222 -1.38413 0
M  V30 44701 C 4236.34 -0.117629 -1.93843 0
M  V30 44702 O 4235.61 0.865904 -1.74162 0
M  V30 44703 C 4235.89 -2.54937 -2.54321 0
M  V30 44704 C 4235.75 -4.00785 -2.04185 0
M  V30 44705 C 4237.07 -2.58075 -3.5649 0
M  V30 44706 H 4234.18 -0.539662 -0.50193 0
M  V30 44707 H 4236.83 -1.76503 -0.703316 0
M  V30 44708 H 4234.98 -2.30952 -3.12399 0
M  V30 44709 H 4236.65 -4.35931 -1.50872 0
M  V30 44710 H 4234.89 -4.1216 -1.35301 0
M  V30 44711 H 4235.56 -4.71116 -2.8767 0
M  V30 44712 H 4238.04 -2.79527 -3.08227 0
M  V30 44713 H 4236.91 -3.34632 -4.35101 0
M  V30 44714 H 4237.18 -1.6259 -4.11116 0
M  V30 44715 N 4236.23 0.863859 -1.31815 0
M  V30 44716 C 4237.65 1.43316 -1.19655 0
M  V30 44717 C 4238 1.95233 0.194576 0
M  V30 44718 O 4237.12 1.86784 1.09273 0
M  V30 44719 C 4237.72 2.60506 -2.16615 0
M  V30 44720 C 4236.28 3.13463 -2.0837 0
M  V30 44721 C 4235.42 1.86187 -2.05499 0
M  V30 44722 H 4238.37 0.671845 -1.43777 0
M  V30 44723 H 4238.39 3.37385 -1.75931 0
M  V30 44724 H 4237.91 2.2269 -3.17854 0
M  V30 44725 H 4236.01 3.55885 -1.10347 0
M  V30 44726 H 4236.12 3.75331 -2.97764 0
M  V30 44727 H 4234.48 2.05404 -1.50603 0
M  V30 44728 H 4235.27 1.506 -3.08504 0
M  V30 44729 N 4237.71 1.14875 1.07895 0
M  V30 44730 C 4238.96 0.918383 1.80028 0
M  V30 44731 C 4239.28 -0.55626 1.86898 0
M  V30 44732 O 4238.55 -1.40432 1.36586 0
M  V30 44733 H 4237.13 0.336787 0.666771 0
M  V30 44734 H 4239.79 1.44834 1.30419 0
M  V30 44735 H 4238.89 1.32292 2.82675 0
M  V30 44736 N 4239.19 -1.26148 0.944687 0
M  V30 44737 C 4240.12 -2.28621 0.47482 0
M  V30 44738 C 4241.1 -1.63371 -0.473714 0
M  V30 44739 O 4242.29 -1.90549 -0.374814 0
M  V30 44740 C 4239.42 -3.46344 -0.257539 0
M  V30 44741 C 4238.37 -4.23706 0.604775 0
M  V30 44742 C 4237.7 -5.34078 -0.257748 0
M  V30 44743 C 4239 -4.87373 1.87789 0
M  V30 44744 H 4240.69 -2.68175 1.33127 0
M  V30 44745 H 4238.24 -1.28918 0.641577 0
M  V30 44746 H 4240.19 -4.17145 -0.597309 0
M  V30 44747 H 4238.91 -3.05753 -1.14815 0
M  V30 44748 H 4237.57 -3.54673 0.927488 0
M  V30 44749 H 4237.22 -4.89729 -1.14782 0
M  V30 44750 H 4236.92 -5.86751 0.315842 0
M  V30 44751 H 4238.44 -6.07716 -0.592708 0
M  V30 44752 H 4239.86 -5.50371 1.60515 0
M  V30 44753 H 4238.26 -5.50178 2.39633 0
M  V30 44754 H 4239.33 -4.10117 2.58712 0
M  V30 44755 N 4240.67 -0.712109 -1.40594 0
M  V30 44756 C 4242.08 -0.322915 -1.83886 0
M  V30 44757 C 4242.43 1.14185 -1.5955 0
M  V30 44758 O 4241.56 1.87836 -1.07455 0
M  V30 44759 C 4242.15 -0.579311 -3.3381 0
M  V30 44760 C 4240.71 -0.243862 -3.75609 0
M  V30 44761 C 4239.86 -0.853407 -2.63841 0
M  V30 44762 H 4242.81 -0.911524 -1.29911 0
M  V30 44763 H 4242.83 0.156594 -3.80178 0
M  V30 44764 H 4242.34 -1.64546 -3.51491 0
M  V30 44765 H 4240.44 0.817365 -3.63524 0
M  V30 44766 H 4240.55 -0.710432 -4.73803 0
M  V30 44767 H 4238.92 -0.281715 -2.53137 0
M  V30 44768 H 4239.7 -1.92375 -2.84335 0
M  V30 44769 N 4242.15 1.50797 -0.45804 0
M  V30 44770 C 4243.39 2.01846 0.10123 0
M  V30 44771 C 4243.72 1.34295 1.41385 0
M  V30 44772 O 4242.99 0.484069 1.89825 0
M  V30 44773 H 4241.57 0.745907 0.0404006 0
M  V30 44774 H 4244.23 1.85256 -0.605481 0
M  V30 44775 H 4243.32 3.10997 0.262198 0
M  V30 44776 N 4243.63 0.190147 1.56449 0
M  V30 44777 C 4244.85 -0.455663 2.0182 0
M  V30 44778 C 4245.27 -1.5553 1.07031 0
M  V30 44779 O 4244.63 -1.82349 0.0743344 0
M  V30 44780 C 4244.68 -1.01657 3.46912 0
M  V30 44781 O 4244.4 0.0391926 4.38082 0
M  V30 44782 C 4245.9 -1.73875 4.07777 0
M  V30 44783 H 4243.12 -0.114879 0.661093 0
M  V30 44784 H 4245.66 0.297401 2.02326 0
M  V30 44785 H 4243.82 -1.72004 3.47121 0
M  V30 44786 H 4244.23 -0.377596 5.23139 0
M  V30 44787 H 4245.71 -2.08359 5.11166 0
M  V30 44788 H 4246.18 -2.64065 3.5095 0
M  V30 44789 H 4246.79 -1.08125 4.11326 0
M  V30 44790 N 4245.1 -1.57379 -0.083485 0
M  V30 44791 C 4246.35 -1.85857 -0.783594 0
M  V30 44792 C 4246.67 -0.781113 -1.79326 0
M  V30 44793 O 4247.87 -0.953372 -2.54211 0
M  V30 44794 C 4246.33 -3.2964 -1.44448 0
M  V30 44795 C 4245.94 -4.45486 -0.47398 0
M  V30 44796 C 4247.68 -3.67331 -2.12764 0
M  V30 44797 C 4245.59 -5.80306 -1.14012 0
M  V30 44798 H 4244.52 -0.693301 -0.296395 0
M  V30 44799 H 4247.17 -1.83463 -0.036693 0
M  V30 44800 H 4245.55 -3.2661 -2.23924 0
M  V30 44801 H 4246.72 -4.59886 0.290123 0
M  V30 44802 H 4245.04 -4.1627 0.104099 0
M  V30 44803 H 4247.64 -4.65346 -2.63357 0
M  V30 44804 H 4247.98 -2.96539 -2.92182 0
M  V30 44805 H 4248.51 -3.723 -1.40134 0
M  V30 44806 H 4245.25 -6.5436 -0.386504 0
M  V30 44807 H 4244.77 -5.69728 -1.87537 0
M  V30 44808 H 4246.45 -6.25255 -1.6633 0
M  V30 44809 N 4246.58 0.354597 -1.53559 0
M  V30 44810 C 4247.51 1.44073 -1.83754 0
M  V30 44811 C 4248.49 1.55396 -0.691822 0
M  V30 44812 O 4249.68 1.69784 -0.942705 0
M  V30 44813 C 4246.81 2.8127 -2.03726 0
M  V30 44814 C 4245.76 2.84763 -3.19522 0
M  V30 44815 C 4245.09 4.2474 -3.24807 0
M  V30 44816 C 4246.39 2.51293 -4.57874 0
M  V30 44817 H 4248.08 1.19053 -2.74712 0
M  V30 44818 H 4245.63 0.571277 -1.32183 0
M  V30 44819 H 4247.58 3.57289 -2.23433 0
M  V30 44820 H 4246.3 3.07701 -1.09488 0
M  V30 44821 H 4244.96 2.11196 -2.99653 0
M  V30 44822 H 4244.61 4.48264 -2.28185 0
M  V30 44823 H 4244.31 4.27991 -4.02614 0
M  V30 44824 H 4245.84 5.02617 -3.46711 0
M  V30 44825 H 4247.25 3.17026 -4.77669 0
M  V30 44826 H 4245.65 2.65844 -5.38003 0
M  V30 44827 H 4246.72 1.4651 -4.62237 0
M  V30 44828 N 4248.06 1.45105 0.615008 0
M  V30 44829 C 4249.48 1.29347 0.93496 0
M  V30 44830 C 4249.68 0.241043 2.00053 0
M  V30 44831 O 4248.73 -0.367563 2.4981 0
M  V30 44832 C 4250.04 2.67012 1.38293 0
M  V30 44833 C 4251.59 2.74851 1.49754 0
M  V30 44834 C 4252.07 4.13023 1.97929 0
M  V30 44835 N 4253.56 4.15281 2.05174 0
M  V30 44836 C 4254.29 5.19057 2.43655 0
M  V30 44837 N 4253.79 6.33184 2.81158 0
M  V30 44838 N 4255.58 5.06414 2.4393 0
M  V30 44839 H 4247.73 2.12212 -0.0894261 0
M  V30 44840 H 4250 0.94773 0.0226407 0
M  V30 44841 H 4249.7 3.45178 0.674177 0
M  V30 44842 H 4249.58 2.94981 2.35088 0
M  V30 44843 H 4251.96 1.96994 2.19722 0
M  V30 44844 H 4252.04 2.50605 0.512921 0
M  V30 44845 H 4251.69 4.91363 1.2855 0
M  V30 44846 H 4251.62 4.34656 2.97291 0
M  V30 44847 H 4254.11 3.32919 1.78811 0
M  V30 44848 H 4254.42 7.08169 3.09381 0
M  V30 44849 H 4252.77 6.36597 2.78871 0
M  V30 44850 H 4255.96 4.16303 2.14032 0
M  V30 44851 H 4256.13 5.8741 2.73594 0
M  V30 44852 N 4249.54 -0.856857 1.32271 0
M  V30 44853 C 4250.77 -1.64337 1.25701 0
M  V30 44854 C 4251.18 -1.87984 -0.175392 0
M  V30 44855 O 4250.54 -1.44728 -1.11176 0
M  V30 44856 C 4250.59 -3.00392 2.01115 0
M  V30 44857 O 4250.31 -2.77794 3.38766 0
M  V30 44858 C 4251.81 -3.94836 2.01542 0
M  V30 44859 H 4249.03 -0.511924 0.433791 0
M  V30 44860 H 4251.57 -1.0686 1.7436 0
M  V30 44861 H 4249.73 -3.54521 1.56184 0
M  V30 44862 H 4250.14 -3.64304 3.77336 0
M  V30 44863 H 4251.62 -4.87575 2.58795 0
M  V30 44864 H 4252.09 -4.27638 1.00114 0
M  V30 44865 H 4252.7 -3.46644 2.4641 0
M  V30 44866 N 4251.02 -1.15446 -1.07285 0
M  V30 44867 C 4252.24 -0.95363 -1.83612 0
M  V30 44868 C 4252.66 0.498084 -1.82111 0
M  V30 44869 O 4252.02 1.34546 -1.23303 0
M  V30 44870 C 4252.07 -1.46092 -3.30665 0
M  V30 44871 O 4251.79 -2.85576 -3.32231 0
M  V30 44872 C 4253.29 -1.30167 -4.23759 0
M  V30 44873 H 4250.51 -0.338648 -0.579274 0
M  V30 44874 H 4253.05 -1.53235 -1.35423 0
M  V30 44875 H 4251.21 -0.924713 -3.76202 0
M  V30 44876 H 4251.62 -3.08593 -4.24112 0
M  V30 44877 H 4253.1 -1.70506 -5.25006 0
M  V30 44878 H 4253.57 -0.245929 -4.38511 0
M  V30 44879 H 4254.18 -1.82699 -3.84059 0
M  V30 44880 N 4252.49 1.25646 -0.951364 0
M  V30 44881 C 4253.44 2.28006 -0.460008 0
M  V30 44882 C 4254.44 1.62807 0.468016 0
M  V30 44883 O 4255.64 1.76661 0.345105 0
M  V30 44884 H 4252.02 0.740634 -0.130248 0
M  V30 44885 H 4253.99 2.66839 -1.33564 0
M  V30 44886 C 4252.74 3.46801 0.249849 0
M  V30 44887 H 4252.06 3.97201 -0.455105 0
M  V30 44888 H 4253.5 4.20316 0.557718 0
M  V30 44889 C 4251.96 3.03079 1.47122 0
M  V30 44890 O 4252.49 3.08805 2.56909 0
M  V30 44891 N 4250.69 2.58306 1.3314 0
M  V30 44892 H 4250.24 2.53846 0.438148 0
M  V30 44893 H 4250.2 2.29416 2.14978 0
M  V30 44894 N 4253.97 0.719555 1.40215 0
M  V30 44895 C 4255.22 0.260261 2.00417 0
M  V30 44896 C 4255.54 -1.15177 1.57351 0
M  V30 44897 O 4254.81 -1.78153 0.81475 0
M  V30 44898 H 4253.39 0.0932334 0.741159 0
M  V30 44899 H 4256.05 0.926071 1.71493 0
M  V30 44900 H 4255.15 0.296474 3.10689 0
M  V30 44901 N 4255.45 -1.50552 0.466031 0
M  V30 44902 C 4256.73 -1.95008 -0.152037 0
M  V30 44903 C 4257.11 -1.40617 -1.57449 0
M  V30 44904 O 4256.45 -0.605052 -2.20344 0
M  V30 44905 C 4256.66 -3.48855 -0.100522 0
M  V30 44906 C 4258.01 -4.23595 -0.291924 0
M  V30 44907 O 4259.04 -3.55758 -0.177339 0
M  V30 44908 O 4257.9 -5.43994 -0.522784 0
M  V30 44909 H 4254.99 -0.819046 -0.114425 0
M  V30 44910 H 4257.54 -1.6134 0.52607 0
M  V30 44911 H 4256.31 -3.80978 0.892812 0
M  V30 44912 H 4255.93 -3.89046 -0.820306 0
M  V30 44913 N 4256.93 -0.198441 -1.56346 0
M  V30 44914 C 4258.17 0.439446 -1.97674 0
M  V30 44915 C 4258.5 1.61396 -1.08543 0
M  V30 44916 O 4257.76 1.95299 -0.125252 0
M  V30 44917 C 4258.06 0.938652 -3.44854 0
M  V30 44918 C 4257.72 -0.122852 -4.50733 0
M  V30 44919 C 4256.38 -0.414518 -4.79411 0
M  V30 44920 C 4258.74 -0.841939 -5.14355 0
M  V30 44921 C 4256.06 -1.43019 -5.69001 0
M  V30 44922 C 4258.42 -1.84678 -6.05043 0
M  V30 44923 C 4257.08 -2.14561 -6.32076 0
M  V30 44924 H 4256.35 0.160805 -0.723341 0
M  V30 44925 H 4259 -0.29611 -1.89197 0
M  V30 44926 H 4257.3 1.75254 -3.50419 0
M  V30 44927 H 4259 1.44166 -3.74189 0
M  V30 44928 H 4255.59 0.114639 -4.28447 0
M  V30 44929 H 4259.77 -0.629836 -4.92287 0
M  V30 44930 H 4255.03 -1.66759 -5.88219 0
M  V30 44931 H 4259.2 -2.40918 -6.534 0
M  V30 44932 H 4256.83 -2.93408 -7.01296 0
M  V30 44933 N 4258.41 1.57421 0.0751377 0
M  V30 44934 C 4259.34 2.06496 1.09003 0
M  V30 44935 C 4260.32 0.957791 1.40572 0
M  V30 44936 O 4261.5 1.23031 1.50257 0
M  V30 44937 C 4258.63 2.5061 2.40441 0
M  V30 44938 C 4257.59 3.65172 2.23234 0
M  V30 44939 C 4256.91 3.9533 3.60026 0
M  V30 44940 C 4258.21 4.95341 1.65633 0
M  V30 44941 H 4259.91 2.91537 0.681673 0
M  V30 44942 H 4257.45 1.40251 0.326457 0
M  V30 44943 H 4259.41 2.83554 3.11729 0
M  V30 44944 H 4258.13 1.62593 2.83251 0
M  V30 44945 H 4256.79 3.32506 1.54387 0
M  V30 44946 H 4256.44 3.0445 4.00399 0
M  V30 44947 H 4256.14 4.72469 3.49352 0
M  V30 44948 H 4257.66 4.30767 4.3275 0
M  V30 44949 H 4259.07 5.26538 2.26783 0
M  V30 44950 H 4257.47 5.7678 1.65665 0
M  V30 44951 H 4258.54 4.80952 0.617508 0
M  V30 44952 N 4259.88 -0.346449 1.53745 0
M  V30 44953 C 4260.83 -1.4259 1.7791 0
M  V30 44954 C 4261.82 -1.47874 0.63421 0
M  V30 44955 O 4263.01 -1.52792 0.893508 0
M  V30 44956 C 4260.14 -2.79771 1.98954 0
M  V30 44957 C 4259.23 -2.78891 3.195 0
M  V30 44958 N 4259.62 -2.47643 4.41029 0
M  V30 44959 C 4257.91 -3.1004 3.20611 0
M  V30 44960 C 4258.62 -2.54923 5.22866 0
M  V30 44961 N 4257.59 -2.90426 4.59514 0
M  V30 44962 H 4261.39 -1.17323 2.69467 0
M  V30 44963 H 4258.91 -0.554788 1.5263 0
M  V30 44964 H 4260.9 -3.57545 2.144 0
M  V30 44965 H 4259.56 -3.05987 1.08638 0
M  V30 44966 H 4260.58 -2.20893 4.6843 0
M  V30 44967 H 4257.25 -3.41446 2.40252 0
M  V30 44968 H 4258.64 -2.33948 6.29856 0
M  V30 44969 N 4261.36 -1.45429 -0.607304 0
M  V30 44970 C 4262.61 -1.4946 -1.3663 0
M  V30 44971 C 4262.94 -0.136455 -1.94021 0
M  V30 44972 O 4262.19 0.864921 -1.75549 0
M  V30 44973 C 4262.49 -2.52168 -2.53271 0
M  V30 44974 C 4262.16 -3.96867 -2.14026 0
M  V30 44975 C 4260.82 -4.36268 -2.03036 0
M  V30 44976 C 4263.17 -4.87866 -1.83401 0
M  V30 44977 C 4260.5 -5.64562 -1.59645 0
M  V30 44978 C 4262.85 -6.16573 -1.41496 0
M  V30 44979 C 4261.52 -6.54903 -1.29065 0
M  V30 44980 H 4260.79 -0.546915 -0.499966 0
M  V30 44981 H 4263.43 -1.78776 -0.686386 0
M  V30 44982 H 4261.74 -2.16422 -3.26602 0
M  V30 44983 H 4263.43 -2.52525 -3.115 0
M  V30 44984 H 4260.02 -3.65709 -2.23505 0
M  V30 44985 H 4264.21 -4.58163 -1.90789 0
M  V30 44986 H 4259.46 -5.93056 -1.48644 0
M  V30 44987 H 4263.64 -6.86528 -1.16845 0
M  V30 44988 H 4261.27 -7.54213 -0.952164 0
M  V30 44989 N 4262.84 0.84983 -1.32724 0
M  V30 44990 C 4263.77 1.97427 -1.24678 0
M  V30 44991 C 4264.75 1.69605 -0.129611 0
M  V30 44992 O 4265.94 1.91586 -0.317582 0
M  V30 44993 C 4263.07 3.33362 -0.97403 0
M  V30 44994 C 4262.02 3.7555 -2.05296 0
M  V30 44995 C 4261.35 5.09169 -1.63253 0
M  V30 44996 C 4262.65 3.90501 -3.46852 0
M  V30 44997 H 4264.34 2.04417 -2.18756 0
M  V30 44998 H 4261.89 0.982113 -1.05312 0
M  V30 44999 H 4263.84 4.11583 -0.904278 0
M  V30 45000 H 4262.56 3.266 0.00238075 0
M  V30 45001 H 4261.22 2.99583 -2.11295 0
M  V30 45002 H 4260.87 4.98868 -0.643436 0
M  V30 45003 H 4260.57 5.38367 -2.35446 0
M  V30 45004 H 4262.09 5.89878 -1.57723 0
M  V30 45005 H 4263.51 4.59063 -3.43416 0
M  V30 45006 H 4261.91 4.31123 -4.17437 0
M  V30 45007 H 4262.98 2.93272 -3.8616 0
M  V30 45008 N 4264.32 1.16013 1.06671 0
M  V30 45009 C 4265.73 0.947577 1.60866 0
M  V30 45010 C 4266.08 -0.509458 1.8947 0
M  V30 45011 O 4265.21 -1.38192 1.66529 0
M  V30 45012 C 4265.8 1.7137 2.92263 0
M  V30 45013 C 4264.36 1.54624 3.43174 0
M  V30 45014 C 4263.51 1.72488 2.17125 0
M  V30 45015 H 4266.46 1.30939 0.896702 0
M  V30 45016 H 4266.48 1.18727 3.61503 0
M  V30 45017 H 4265.99 2.77411 2.71413 0
M  V30 45018 H 4264.09 0.510075 3.69092 0
M  V30 45019 H 4264.2 2.32767 4.18755 0
M  V30 45020 H 4262.57 1.15197 2.2716 0
M  V30 45021 H 4263.35 2.79908 1.98762 0
M  V30 45022 N 4265.8 -1.25139 0.958014 0
M  V30 45023 C 4267.21 -1.45178 0.66298 0
M  V30 45024 C 4267.41 -1.85858 -0.778394 0
M  V30 45025 O 4266.47 -1.99067 -1.55333 0
M  V30 45026 C 4267.78 -2.52119 1.6388 0
M  V30 45027 C 4269.33 -2.65956 1.65035 0
M  V30 45028 C 4269.8 -3.76084 2.6139 0
M  V30 45029 N 4271.3 -3.83499 2.59775 0
M  V30 45030 C 4272.03 -4.68211 3.31008 0
M  V30 45031 N 4271.53 -5.57184 4.11725 0
M  V30 45032 N 4273.32 -4.62206 3.19879 0
M  V30 45033 H 4265.47 -0.970277 1.88943 0
M  V30 45034 H 4267.73 -0.487736 0.812907 0
M  V30 45035 H 4267.44 -2.29093 2.6685 0
M  V30 45036 H 4267.31 -3.50098 1.40396 0
M  V30 45037 H 4269.7 -2.88344 0.627811 0
M  V30 45038 H 4269.78 -1.68365 1.92579 0
M  V30 45039 H 4269.43 -3.54446 3.63773 0
M  V30 45040 H 4269.36 -4.73167 2.31129 0
M  V30 45041 H 4271.85 -3.199 2.01178 0
M  V30 45042 H 4272.16 -6.18758 4.62989 0
M  V30 45043 H 4270.5 -5.56882 4.15822 0
M  V30 45044 H 4273.7 -3.91706 2.56289 0
M  V30 45045 H 4273.87 -5.28001 3.75658 0
M  V30 45046 N 4267.27 -0.726981 -1.39831 0
M  V30 45047 C 4268.52 -0.271824 -2.0097 0
M  V30 45048 C 4268.85 1.13557 -1.57539 0
M  V30 45049 O 4268.13 1.77258 -0.800611 0
M  V30 45050 C 4268.41 -0.364659 -3.58249 0
M  V30 45051 C 4268.26 -1.81124 -4.11721 0
M  V30 45052 C 4269.58 0.257575 -4.39346 0
M  V30 45053 H 4266.7 -0.100245 -0.730151 0
M  V30 45054 H 4269.34 -0.921628 -1.66151 0
M  V30 45055 H 4267.49 0.188581 -3.88042 0
M  V30 45056 H 4269.17 -2.42074 -3.9268 0
M  V30 45057 H 4267.41 -2.33522 -3.65581 0
M  V30 45058 H 4268.08 -1.82752 -5.2087 0
M  V30 45059 H 4270.56 -0.213948 -4.1555 0
M  V30 45060 H 4269.43 0.162231 -5.4866 0
M  V30 45061 H 4269.69 1.3426 -4.2122 0
M  V30 45062 N 4268.75 1.50303 -0.474008 0
M  V30 45063 C 4270 2.02342 0.0799741 0
M  V30 45064 C 4270.33 1.35579 1.39458 0
M  V30 45065 O 4269.58 0.471441 1.89937 0
M  V30 45066 C 4269.88 3.56064 0.308779 0
M  V30 45067 C 4269.55 4.41321 -0.924489 0
M  V30 45068 C 4268.21 4.6434 -1.26261 0
M  V30 45069 C 4270.56 4.91103 -1.74549 0
M  V30 45070 C 4267.89 5.34386 -2.42174 0
M  V30 45071 C 4270.24 5.62423 -2.89592 0
M  V30 45072 C 4268.91 5.83695 -3.23815 0
M  V30 45073 H 4268.18 0.740422 0.0292646 0
M  V30 45074 H 4270.82 1.80886 -0.628682 0
M  V30 45075 H 4269.13 3.7605 1.09971 0
M  V30 45076 H 4270.82 3.93897 0.751431 0
M  V30 45077 H 4267.41 4.23626 -0.651069 0
M  V30 45078 H 4271.6 4.73171 -1.49744 0
M  V30 45079 H 4266.85 5.49063 -2.6896 0
M  V30 45080 H 4271.03 5.99978 -3.53552 0
M  V30 45081 H 4268.66 6.37749 -4.1374 0
M  V30 45082 N 4270.23 0.20673 1.56238 0
M  V30 45083 C 4271.46 -0.437309 2.02737 0
M  V30 45084 C 4271.88 -1.53597 1.0858 0
M  V30 45085 O 4271.24 -1.8116 0.0713213 0
M  V30 45086 C 4271.29 -0.959913 3.47589 0
M  V30 45087 O 4270.39 -2.07217 3.5656 0
M  V30 45088 H 4269.73 -0.100833 0.656299 0
M  V30 45089 H 4272.26 0.321021 2.02066 0
M  V30 45090 H 4272.27 -1.27354 3.87614 0
M  V30 45091 H 4270.95 -0.155707 4.15608 0
M  V30 45092 H 4269.52 -1.7663 3.28415 0
M  V30 45093 N 4271.71 -1.57458 -0.0667882 0
M  V30 45094 C 4272.67 -2.03046 -1.06326 0
M  V30 45095 C 4273.67 -0.928282 -1.313 0
M  V30 45096 O 4274.86 -1.19302 -1.26936 0
M  V30 45097 C 4271.99 -2.41536 -2.40568 0
M  V30 45098 H 4273.19 -2.92315 -0.670239 0
M  V30 45099 H 4270.74 -1.53141 -0.312651 0
M  V30 45100 H 4271.47 -1.55308 -2.84692 0
M  V30 45101 H 4271.26 -3.21969 -2.23782 0
M  V30 45102 H 4272.75 -2.77364 -3.12184 0
M  V30 45103 N 4273.19 0.33829 -1.53926 0
M  V30 45104 C 4274.43 1.07954 -1.71679 0
M  V30 45105 C 4274.77 1.88141 -0.481327 0
M  V30 45106 O 4274.04 1.87373 0.521676 0
M  V30 45107 C 4274.32 2.01641 -2.9835 0
M  V30 45108 C 4274.18 1.24882 -4.32116 0
M  V30 45109 C 4275.5 3.01382 -3.20713 0
M  V30 45110 H 4272.62 0.391069 -0.624687 0
M  V30 45111 H 4275.26 0.35759 -1.86605 0
M  V30 45112 H 4273.41 2.63202 -2.85757 0
M  V30 45113 H 4275.08 0.658941 -4.56569 0
M  V30 45114 H 4273.32 0.550886 -4.30288 0
M  V30 45115 H 4273.99 1.93595 -5.16938 0
M  V30 45116 H 4276.47 2.49937 -3.32672 0
M  V30 45117 H 4275.35 3.64133 -4.10729 0
M  V30 45118 H 4275.61 3.73046 -2.37253 0
M  V30 45119 N 4274.67 1.45749 0.599583 0
M  V30 45120 C 4275.91 1.49886 1.35567 0
M  V30 45121 C 4276.23 0.145176 1.94459 0
M  V30 45122 O 4275.5 -0.826399 1.77616 0
M  V30 45123 H 4274.08 0.551999 0.503295 0
M  V30 45124 H 4276.75 1.81761 0.703477 0
M  V30 45125 H 4275.84 2.24217 2.17102 0
M  V30 45126 N 4276.14 -0.84278 1.33173 0
M  V30 45127 C 4277.09 -1.97371 1.23076 0
M  V30 45128 C 4278.09 -1.68877 0.132968 0
M  V30 45129 O 4279.29 -1.77538 0.296674 0
M  V30 45130 H 4275.67 -0.64785 0.38183 0
M  V30 45131 H 4277.64 -2.03012 2.18697 0
M  V30 45132 C 4276.39 -3.3352 0.982836 0
M  V30 45133 H 4275.71 -3.55982 1.81981 0
M  V30 45134 H 4277.15 -4.13163 0.952477 0
M  V30 45135 C 4275.61 -3.35431 -0.314293 0
M  V30 45136 O 4276.14 -3.79313 -1.32228 0
M  V30 45137 N 4274.34 -2.88599 -0.340455 0
M  V30 45138 H 4273.89 -2.53082 0.480363 0
M  V30 45139 H 4273.85 -2.9026 -1.20817 0
M  V30 45140 N 4277.62 -1.16577 -1.06054 0
M  V30 45141 C 4278.87 -0.943251 -1.78285 0
M  V30 45142 C 4279.18 0.529959 -1.88284 0
M  V30 45143 O 4280.39 0.870446 -2.57168 0
M  V30 45144 C 4278.85 -1.63837 -3.20446 0
M  V30 45145 C 4278.45 -3.14952 -3.18606 0
M  V30 45146 C 4280.2 -1.49791 -3.97194 0
M  V30 45147 C 4278.1 -3.77191 -4.555 0
M  V30 45148 H 4277.03 -0.349272 -0.668226 0
M  V30 45149 H 4279.69 -1.39736 -1.18937 0
M  V30 45150 H 4278.07 -1.11198 -3.80067 0
M  V30 45151 H 4279.24 -3.74454 -2.68553 0
M  V30 45152 H 4277.56 -3.2891 -2.55356 0
M  V30 45153 H 4280.15 -1.9367 -4.98393 0
M  V30 45154 H 4280.5 -0.447202 -4.13891 0
M  V30 45155 H 4281.03 -1.996 -3.441 0
M  V30 45156 H 4277.77 -4.82221 -4.44008 0
M  V30 45157 H 4277.29 -3.22474 -5.05738 0
M  V30 45158 H 4278.97 -3.78889 -5.24454 0
M  V30 45159 N 4279.1 1.2463 -0.964637 0
M  V30 45160 C 4280.34 1.94363 -0.632656 0
M  V30 45161 C 4280.7 1.73768 0.81661 0
M  V30 45162 O 4281.9 2.3751 1.25867 0
M  V30 45163 C 4280.18 3.43314 -0.993488 0
M  V30 45164 S 4281.73 4.31891 -0.775594 0
M  V30 45165 H 4278.55 0.672015 -0.232201 0
M  V30 45166 H 4281.15 1.51066 -1.24094 0
M  V30 45167 H 4279.86 3.55808 -2.0452 0
M  V30 45168 H 4279.39 3.916 -0.375858 0
M  V30 45169 H 4281.4 4.94974 0.348606 0
M  V30 45170 N 4280.58 0.734386 1.39444 0
M  V30 45171 C 4281.81 0.291862 2.04528 0
M  V30 45172 C 4282.22 -1.07805 1.55482 0
M  V30 45173 O 4281.56 -1.69232 0.714582 0
M  V30 45174 C 4281.62 0.214649 3.58859 0
M  V30 45175 C 4281.28 1.52293 4.30878 0
M  V30 45176 C 4282.28 2.46852 4.57559 0
M  V30 45177 C 4279.97 1.78706 4.69435 0
M  V30 45178 C 4281.96 3.66056 5.21806 0
M  V30 45179 C 4279.65 2.98188 5.33411 0
M  V30 45180 C 4280.65 3.91684 5.59529 0
M  V30 45181 O 4280.33 5.09068 6.22177 0
M  V30 45182 H 4280.07 0.125506 0.664247 0
M  V30 45183 H 4282.62 0.998668 1.79488 0
M  V30 45184 H 4280.85 -0.548253 3.82794 0
M  V30 45185 H 4282.54 -0.195798 4.05427 0
M  V30 45186 H 4283.3 2.27716 4.28218 0
M  V30 45187 H 4279.18 1.06777 4.48464 0
M  V30 45188 H 4282.73 4.39049 5.42109 0
M  V30 45189 H 4278.62 3.17225 5.62173 0
M  V30 45190 H 4279.39 5.09395 6.40671 0
M  V30 45191 N 4282.06 -1.50049 0.481972 0
M  V30 45192 C 4283.28 -2.06793 -0.0666111 0
M  V30 45193 C 4283.7 -1.34459 -1.32537 0
M  V30 45194 O 4283.06 -0.417118 -1.77669 0
M  V30 45195 C 4283.11 -3.59863 -0.34363 0
M  V30 45196 O 4282.83 -4.29471 0.865216 0
M  V30 45197 C 4284.33 -4.33263 -0.937974 0
M  V30 45198 H 4281.55 -0.670894 0.0119429 0
M  V30 45199 H 4284.09 -1.93078 0.673877 0
M  V30 45200 H 4282.25 -3.73344 -1.03407 0
M  V30 45201 H 4282.66 -5.20865 0.616431 0
M  V30 45202 H 4284.14 -5.41302 -1.0815 0
M  V30 45203 H 4284.61 -3.94478 -1.93091 0
M  V30 45204 H 4285.22 -4.2434 -0.285588 0
M  V30 45205 N 4283.53 -0.215012 -1.56126 0
M  V30 45206 C 4284.94 0.294026 -1.8437 0
M  V30 45207 C 4285.3 1.5995 -1.13624 0
M  V30 45208 O 4284.42 2.12601 -0.4037 0
M  V30 45209 C 4285.02 0.540252 -3.34465 0
M  V30 45210 C 4283.57 0.993613 -3.63049 0
M  V30 45211 C 4282.72 0.0530832 -2.77249 0
M  V30 45212 H 4285.67 -0.438357 -1.52526 0
M  V30 45213 H 4285.69 1.38709 -3.54316 0
M  V30 45214 H 4285.21 -0.41006 -3.85928 0
M  V30 45215 H 4283.31 1.95751 -3.17037 0
M  V30 45216 H 4283.42 0.872546 -4.71088 0
M  V30 45217 H 4281.78 0.558674 -2.48497 0
M  V30 45218 H 4282.57 -0.892029 -3.31508 0
M  V30 45219 N 4285.01 1.57492 0.0584368 0
M  V30 45220 C 4286.24 1.92521 0.771384 0
M  V30 45221 C 4286.66 0.812591 1.69642 0
M  V30 45222 O 4286.02 -0.233753 1.79787 0
M  V30 45223 C 4286.07 3.26547 1.5297 0
M  V30 45224 O 4285.17 3.16722 2.64123 0
M  V30 45225 H 4284.51 0.630065 0.209558 0
M  V30 45226 H 4287.04 2.04587 0.022685 0
M  V30 45227 H 4287.05 3.6074 1.90606 0
M  V30 45228 H 4285.73 4.07099 0.851064 0
M  V30 45229 H 4284.3 2.9411 2.29246 0
M  V30 45230 N 4286.49 -0.330122 1.54104 0
M  V30 45231 C 4287.44 -1.406 1.83031 0
M  V30 45232 C 4288.41 -1.5168 0.676934 0
M  V30 45233 O 4289.59 -1.67005 0.922712 0
M  V30 45234 C 4286.73 -2.77058 2.0575 0
M  V30 45235 C 4285.84 -2.74661 3.33444 0
M  V30 45236 C 4284.98 -4.02923 3.46159 0
M  V30 45237 C 4284.02 -3.94808 4.67753 0
M  V30 45238 N 4283.16 -5.14787 4.77429 0
M  V30 45239 H 4288 -1.15231 2.74819 0
M  V30 45240 H 4285.53 -0.557939 1.36108 0
M  V30 45241 H 4287.49 -3.56377 2.16913 0
M  V30 45242 H 4286.12 -3.00749 1.1726 0
M  V30 45243 H 4285.17 -1.87371 3.31053 0
M  V30 45244 H 4286.48 -2.64546 4.22867 0
M  V30 45245 H 4285.64 -4.90671 3.56828 0
M  V30 45246 H 4284.38 -4.15836 2.54817 0
M  V30 45247 H 4283.38 -3.05445 4.57147 0
M  V30 45248 H 4284.61 -3.83466 5.60473 0
M  V30 45249 H 4282.55 -5.28218 3.89 0
M  V30 45250 H 4282.47 -5.06981 5.60808 0
M  V30 45251 H 4283.74 -6.04268 4.92423 0
M  V30 45252 N 4287.97 -1.46065 -0.591845 0
M  V30 45253 C 4288.9 -1.5879 -1.71196 0
M  V30 45254 C 4289.88 -0.438644 -1.64347 0
M  V30 45255 O 4291.06 -0.663757 -1.82505 0
M  V30 45256 C 4288.19 -1.56922 -3.09827 0
M  V30 45257 C 4287.15 -2.70725 -3.315 0
M  V30 45258 C 4286.47 -2.53915 -4.70565 0
M  V30 45259 C 4287.77 -4.12621 -3.20221 0
M  V30 45260 H 4289.47 -2.52553 -1.60803 0
M  V30 45261 H 4287.01 -1.21546 -0.772184 0
M  V30 45262 H 4288.97 -1.6442 -3.88 0
M  V30 45263 H 4287.69 -0.596985 -3.21098 0
M  V30 45264 H 4286.35 -2.62681 -2.55722 0
M  V30 45265 H 4286 -1.54795 -4.78589 0
M  V30 45266 H 4285.7 -3.30241 -4.86019 0
M  V30 45267 H 4287.22 -2.6329 -5.50918 0
M  V30 45268 H 4288.64 -4.21824 -3.88249 0
M  V30 45269 H 4287.03 -4.89461 -3.472 0
M  V30 45270 H 4288.1 -4.33419 -2.17429 0
M  V30 45271 N 4289.45 0.835705 -1.33618 0
M  V30 45272 C 4290.7 1.58612 -1.246 0
M  V30 45273 C 4291.01 1.94716 0.185779 0
M  V30 45274 O 4292.21 2.68567 0.397998 0
M  V30 45275 C 4290.67 2.86101 -2.18344 0
M  V30 45276 C 4290.28 2.57349 -3.66709 0
M  V30 45277 C 4292.02 3.64124 -2.18206 0
M  V30 45278 C 4289.93 3.80954 -4.52359 0
M  V30 45279 H 4288.86 0.595248 -0.462813 0
M  V30 45280 H 4291.51 0.921184 -1.58702 0
M  V30 45281 H 4289.89 3.54152 -1.77178 0
M  V30 45282 H 4291.07 1.97489 -4.16335 0
M  V30 45283 H 4289.38 1.92624 -3.69168 0
M  V30 45284 H 4291.98 4.55879 -2.79425 0
M  V30 45285 H 4292.32 3.99287 -1.17796 0
M  V30 45286 H 4292.85 3.03001 -2.57751 0
M  V30 45287 H 4289.59 3.5092 -5.53656 0
M  V30 45288 H 4289.11 4.40141 -4.07475 0
M  V30 45289 H 4290.79 4.485 -4.66323 0
M  V30 45290 N 4290.92 1.17138 1.05434 0
M  V30 45291 C 4291.83 0.900451 2.16631 0
M  V30 45292 C 4292.85 -0.130492 1.7351 0
M  V30 45293 O 4294.03 0.0481983 2.01342 0
M  V30 45294 C 4291.09 0.414815 3.44209 0
M  V30 45295 C 4290.15 1.51205 4.0179 0
M  V30 45296 C 4289.39 1.04949 5.23279 0
M  V30 45297 O 4289.61 -0.0973402 5.70317 0
M  V30 45298 O 4288.54 1.8415 5.73038 0
M  V30 45299 H 4292.37 1.83053 2.42333 0
M  V30 45300 H 4289.95 0.952062 1.15135 0
M  V30 45301 H 4291.84 0.151393 4.21128 0
M  V30 45302 H 4290.51 -0.487143 3.20013 0
M  V30 45303 H 4289.42 1.82932 3.26323 0
M  V30 45304 H 4290.75 2.38963 4.303 0
M  V30 45305 N 4292.4 -1.24116 0.971232 0
M  V30 45306 C 4293.63 -1.96048 0.651836 0
M  V30 45307 C 4294.04 -1.72211 -0.783574 0
M  V30 45308 O 4293.38 -1.00485 -1.5378 0
M  V30 45309 C 4293.45 -3.49282 0.851014 0
M  V30 45310 C 4293.11 -3.96822 2.26674 0
M  V30 45311 C 4294.11 -4.06217 3.24474 0
M  V30 45312 C 4291.79 -4.30053 2.59538 0
M  V30 45313 C 4293.79 -4.48182 4.53223 0
M  V30 45314 C 4291.47 -4.71701 3.88512 0
M  V30 45315 C 4292.47 -4.80731 4.85167 0
M  V30 45316 O 4292.16 -5.21448 6.11839 0
M  V30 45317 H 4291.89 -0.631228 0.241923 0
M  V30 45318 H 4294.44 -1.58807 1.30267 0
M  V30 45319 H 4292.67 -3.86435 0.143009 0
M  V30 45320 H 4294.36 -4.02423 0.53017 0
M  V30 45321 H 4295.13 -3.80758 3.00414 0
M  V30 45322 H 4291.01 -4.22241 1.85022 0
M  V30 45323 H 4294.55 -4.55146 5.28667 0
M  V30 45324 H 4290.45 -4.96608 4.12372 0
M  V30 45325 H 4291.22 -5.39587 6.15458 0
M  V30 45326 N 4293.88 -0.741771 -1.39052 0
M  V30 45327 C 4295.11 -0.303144 -2.04667 0
M  V30 45328 C 4295.52 1.06441 -1.55935 0
M  V30 45329 O 4294.88 1.67386 -0.727199 0
M  V30 45330 C 4294.93 -0.303471 -3.60224 0
M  V30 45331 O 4294.65 -1.61705 -4.07165 0
M  V30 45332 C 4296.15 0.150487 -4.43044 0
M  V30 45333 H 4293.37 -0.131364 -0.658016 0
M  V30 45334 H 4295.92 -1.00732 -1.7797 0
M  V30 45335 H 4294.07 0.351868 -3.85799 0
M  V30 45336 H 4294.49 -1.5352 -5.0153 0
M  V30 45337 H 4295.96 0.0990976 -5.51911 0
M  V30 45338 H 4296.44 1.19666 -4.22583 0
M  V30 45339 H 4297.04 -0.475538 -4.22633 0
M  V30 45340 N 4295.36 1.49792 -0.489923 0
M  V30 45341 C 4296.64 1.95225 0.120993 0
M  V30 45342 C 4297.02 1.43104 1.55191 0
M  V30 45343 O 4296.36 0.640031 2.19353 0
M  V30 45344 C 4296.57 3.48971 0.0450097 0
M  V30 45345 C 4297.92 4.24006 0.224496 0
M  V30 45346 O 4298.95 3.55995 0.120718 0
M  V30 45347 O 4297.8 5.44757 0.436173 0
M  V30 45348 H 4294.9 0.820762 0.10138 0
M  V30 45349 H 4297.44 1.60483 -0.551671 0
M  V30 45350 H 4296.22 3.7951 -0.953309 0
M  V30 45351 H 4295.84 3.90302 0.758309 0
M  V30 45352 N 4296.84 0.223289 1.5601 0
M  V30 45353 C 4298.08 -0.407942 1.98348 0
M  V30 45354 C 4298.41 -1.59649 1.11097 0
M  V30 45355 O 4297.67 -1.95075 0.156306 0
M  V30 45356 C 4297.97 -0.88367 3.46303 0
M  V30 45357 C 4297.63 0.194545 4.5048 0
M  V30 45358 C 4296.29 0.490736 4.78691 0
M  V30 45359 C 4298.65 0.923661 5.1295 0
M  V30 45360 C 4295.97 1.52053 5.66654 0
M  V30 45361 C 4298.33 1.9428 6.02028 0
M  V30 45362 C 4296.99 2.2459 6.28582 0
M  V30 45363 H 4296.26 -0.149276 0.725808 0
M  V30 45364 H 4298.91 0.326172 1.88702 0
M  V30 45365 H 4297.21 -1.69657 3.53162 0
M  V30 45366 H 4298.91 -1.38195 3.76435 0
M  V30 45367 H 4295.5 -0.0464627 4.28575 0
M  V30 45368 H 4299.68 0.708075 4.91223 0
M  V30 45369 H 4294.94 1.76096 5.85491 0
M  V30 45370 H 4299.11 2.51283 6.49484 0
M  V30 45371 H 4296.74 3.04528 6.96539 0
M  V30 45372 N 4298.31 -1.5752 -0.0500839 0
M  V30 45373 C 4299.28 -2.04162 -1.04166 0
M  V30 45374 C 4300.28 -0.942155 -1.30308 0
M  V30 45375 O 4301.47 -1.20641 -1.25663 0
M  V30 45376 C 4298.6 -2.44074 -2.37993 0
M  V30 45377 H 4299.79 -2.93009 -0.639197 0
M  V30 45378 H 4297.35 -1.53464 -0.29639 0
M  V30 45379 H 4298.08 -1.58319 -2.83029 0
M  V30 45380 H 4297.87 -3.24324 -2.20355 0
M  V30 45381 H 4299.36 -2.8066 -3.09224 0
M  V30 45382 N 4299.79 0.321945 -1.54277 0
M  V30 45383 C 4301.02 1.0792 -1.76525 0
M  V30 45384 C 4301.44 1.81651 -0.514621 0
M  V30 45385 O 4300.79 1.7509 0.514744 0
M  V30 45386 C 4300.84 2.07603 -2.95944 0
M  V30 45387 O 4300.56 1.36866 -4.16172 0
M  V30 45388 C 4302.07 2.95533 -3.30416 0
M  V30 45389 H 4299.29 0.320945 -0.589267 0
M  V30 45390 H 4301.83 0.36758 -2.01169 0
M  V30 45391 H 4299.98 2.74297 -2.73569 0
M  V30 45392 H 4300.4 2.03635 -4.83356 0
M  V30 45393 H 4301.87 3.6137 -4.17271 0
M  V30 45394 H 4302.35 3.62718 -2.47653 0
M  V30 45395 H 4302.96 2.34399 -3.54876 0
M  V30 45396 N 4301.27 1.46377 0.58409 0
M  V30 45397 C 4302.5 1.55421 1.37328 0
M  V30 45398 C 4302.92 0.195505 1.87081 0
M  V30 45399 O 4302.28 -0.824113 1.61487 0
M  V30 45400 C 4302.33 2.56185 2.53775 0
M  V30 45401 O 4301.43 2.09593 3.55168 0
M  V30 45402 H 4300.77 0.523056 0.409033 0
M  V30 45403 H 4303.3 1.91937 0.708621 0
M  V30 45404 H 4303.31 2.75749 3.0071 0
M  V30 45405 H 4301.99 3.54853 2.16914 0
M  V30 45406 H 4300.56 2.00011 3.14722 0
M  V30 45407 N 4302.75 -0.828607 1.34059 0
M  V30 45408 C 4303.71 -1.92071 1.25066 0
M  V30 45409 C 4304.71 -1.59928 0.16722 0
M  V30 45410 O 4305.9 -1.69075 0.419458 0
M  V30 45411 C 4303.03 -3.27981 0.929577 0
M  V30 45412 H 4304.23 -2.01468 2.2215 0
M  V30 45413 H 4301.78 -1.02191 1.18265 0
M  V30 45414 H 4302.52 -3.24277 -0.0383286 0
M  V30 45415 H 4302.3 -3.52693 1.7132 0
M  V30 45416 H 4303.79 -4.07969 0.891677 0
M  V30 45417 N 4304.23 -1.17696 -1.04812 0
M  V30 45418 C 4305.47 -0.978577 -1.79453 0
M  V30 45419 C 4305.83 0.483871 -1.85803 0
M  V30 45420 O 4307.03 0.80145 -2.56574 0
M  V30 45421 C 4305.3 -1.60661 -3.19253 0
M  V30 45422 S 4306.86 -1.55496 -4.10325 0
M  V30 45423 H 4303.68 -0.351576 -0.617993 0
M  V30 45424 H 4306.28 -1.49708 -1.25729 0
M  V30 45425 H 4304.99 -2.6634 -3.12236 0
M  V30 45426 H 4304.52 -1.08808 -3.78053 0
M  V30 45427 H 4306.53 -0.565613 -4.92966 0
M  V30 45428 N 4305.71 1.23599 -0.977801 0
M  V30 45429 C 4306.95 1.92229 -0.6462 0
M  V30 45430 C 4307.28 1.76138 0.817862 0
M  V30 45431 O 4306.56 1.12074 1.58965 0
M  V30 45432 C 4306.84 3.4493 -1.03418 0
M  V30 45433 C 4306.7 3.70142 -2.55568 0
M  V30 45434 C 4308.01 4.36312 -0.576164 0
M  V30 45435 H 4305.13 0.698114 -0.236234 0
M  V30 45436 H 4307.78 1.45773 -1.21862 0
M  V30 45437 H 4305.93 3.84628 -0.547101 0
M  V30 45438 H 4307.6 3.39941 -3.11829 0
M  V30 45439 H 4305.84 3.14943 -2.98317 0
M  V30 45440 H 4306.51 4.77023 -2.77764 0
M  V30 45441 H 4308.99 4.04045 -0.994308 0
M  V30 45442 H 4307.86 5.41863 -0.876088 0
M  V30 45443 H 4308.12 4.38989 0.52357 0
M  V30 45444 N 4307.18 0.749135 1.38657 0
M  V30 45445 C 4308.11 0.133838 2.33116 0
M  V30 45446 C 4309.09 -0.708556 1.5464 0
M  V30 45447 O 4310.28 -0.650652 1.82976 0
M  V30 45448 C 4307.41 -0.763503 3.38804 0
M  V30 45449 C 4306.36 -0.0241826 4.27993 0
M  V30 45450 C 4305.69 -1.03948 5.24499 0
M  V30 45451 C 4306.99 1.1416 5.09671 0
M  V30 45452 H 4308.68 0.922892 2.84821 0
M  V30 45453 H 4306.23 0.445245 1.36944 0
M  V30 45454 H 4308.18 -1.20359 4.03846 0
M  V30 45455 H 4306.91 -1.58483 2.85571 0
M  V30 45456 H 4305.57 0.396434 3.6445 0
M  V30 45457 H 4305.21 -1.85475 4.67555 0
M  V30 45458 H 4304.91 -0.549484 5.85025 0
M  V30 45459 H 4306.44 -1.47898 5.92418 0
M  V30 45460 H 4307.85 0.779274 5.67979 0
M  V30 45461 H 4306.25 1.56216 5.79411 0
M  V30 45462 H 4307.32 1.95662 4.43671 0
M  V30 45463 N 4308.66 -1.4953 0.49786 0
M  V30 45464 C 4309.62 -2.2759 -0.27118 0
M  V30 45465 C 4310.62 -1.33473 -0.896757 0
M  V30 45466 O 4311.81 -1.56661 -0.761776 0
M  V30 45467 C 4308.95 -3.11328 -1.38879 0
M  V30 45468 H 4310.14 -2.97032 0.413756 0
M  V30 45469 H 4307.69 -1.54243 0.252726 0
M  V30 45470 H 4308.43 -2.46445 -2.10797 0
M  V30 45471 H 4308.21 -3.80524 -0.945714 0
M  V30 45472 H 4309.7 -3.70294 -1.93059 0
M  V30 45473 N 4310.14 -0.23156 -1.5589 0
M  V30 45474 C 4311.1 0.660974 -2.19462 0
M  V30 45475 C 4312.1 1.11422 -1.15938 0
M  V30 45476 O 4313.29 1.02141 -1.41113 0
M  V30 45477 C 4310.42 1.90664 -2.82595 0
M  V30 45478 H 4311.62 0.106555 -2.99711 0
M  V30 45479 H 4309.17 0.0180327 -1.5629 0
M  V30 45480 H 4309.91 2.50268 -2.06244 0
M  V30 45481 H 4309.69 1.59001 -3.58415 0
M  V30 45482 H 4311.18 2.54232 -3.31294 0
M  V30 45483 N 4311.62 1.57545 0.0417295 0
M  V30 45484 C 4312.53 2.09111 1.06348 0
M  V30 45485 C 4313.54 1.02696 1.40462 0
M  V30 45486 O 4314.72 1.34355 1.50036 0
M  V30 45487 C 4311.78 2.54977 2.34921 0
M  V30 45488 C 4310.85 3.7582 2.07504 0
M  V30 45489 C 4310.08 4.19489 3.29946 0
M  V30 45490 O 4310.3 3.62779 4.40167 0
M  V30 45491 O 4309.24 5.12036 3.1639 0
M  V30 45492 H 4313.06 2.96546 0.655296 0
M  V30 45493 H 4310.65 1.47157 0.257883 0
M  V30 45494 H 4312.53 2.84865 3.10532 0
M  V30 45495 H 4311.2 1.70658 2.75059 0
M  V30 45496 H 4310.11 3.50971 1.29501 0
M  V30 45497 H 4311.44 4.61084 1.72229 0
M  V30 45498 N 4313.1 -0.313759 1.54445 0
M  V30 45499 C 4314.34 -1.05864 1.74849 0
M  V30 45500 C 4314.7 -1.84922 0.516511 0
M  V30 45501 O 4315.9 -2.62062 0.598063 0
M  V30 45502 C 4314.17 -1.95093 2.99455 0
M  V30 45503 S 4315.73 -2.764 3.40805 0
M  V30 45504 H 4312.55 -0.357239 0.614737 0
M  V30 45505 H 4315.15 -0.333497 1.92634 0
M  V30 45506 H 4313.85 -1.35866 3.87258 0
M  V30 45507 H 4313.39 -2.71997 2.84221 0
M  V30 45508 H 4315.4 -3.97593 2.96874 0
M  V30 45509 N 4314.57 -1.46684 -0.576319 0
M  V30 45510 C 4315.8 -1.55907 -1.36017 0
M  V30 45511 C 4316.22 -0.202434 -1.87712 0
M  V30 45512 O 4315.57 0.801317 -1.63967 0
M  V30 45513 C 4315.62 -2.56902 -2.5433 0
M  V30 45514 O 4315.35 -3.87296 -2.04776 0
M  V30 45515 C 4316.85 -2.76126 -3.46799 0
M  V30 45516 H 4314.07 -0.527039 -0.415296 0
M  V30 45517 H 4316.61 -1.92146 -0.700013 0
M  V30 45518 H 4314.77 -2.23649 -3.16322 0
M  V30 45519 H 4315.18 -4.4232 -2.81874 0
M  V30 45520 H 4316.65 -3.50699 -4.2628 0
M  V30 45521 H 4317.13 -1.8326 -3.99139 0
M  V30 45522 H 4317.74 -3.105 -2.90637 0
M  V30 45523 N 4316.05 0.821486 -1.34497 0
M  V30 45524 C 4317.3 1.57281 -1.26275 0
M  V30 45525 C 4317.61 1.94902 0.165116 0
M  V30 45526 O 4318.82 2.68974 0.36949 0
M  V30 45527 C 4317.28 2.83769 -2.21366 0
M  V30 45528 C 4316.88 2.53445 -3.69418 0
M  V30 45529 C 4318.63 3.61789 -2.22056 0
M  V30 45530 C 4316.53 3.76134 -4.56374 0
M  V30 45531 H 4315.46 0.590306 -0.4691 0
M  V30 45532 H 4318.12 0.9043 -1.5967 0
M  V30 45533 H 4316.5 3.52253 -1.80924 0
M  V30 45534 H 4317.67 1.93062 -4.18406 0
M  V30 45535 H 4315.99 1.88698 -3.7119 0
M  V30 45536 H 4318.58 4.5289 -2.84245 0
M  V30 45537 H 4318.93 3.98015 -1.22024 0
M  V30 45538 H 4319.46 3.0025 -2.6095 0
M  V30 45539 H 4316.2 3.45028 -5.57347 0
M  V30 45540 H 4315.72 4.35795 -4.1212 0
M  V30 45541 H 4317.4 4.43529 -4.71053 0
M  V30 45542 N 4317.53 1.1825 1.04186 0
M  V30 45543 C 4318.78 0.977122 1.77366 0
M  V30 45544 C 4319.11 -0.493364 1.88139 0
M  V30 45545 O 4318.36 -1.38251 1.38511 0
M  V30 45546 C 4318.66 1.57558 3.20796 0
M  V30 45547 C 4318.33 3.07199 3.3006 0
M  V30 45548 C 4316.99 3.48042 3.32295 0
M  V30 45549 C 4319.34 4.03213 3.30256 0
M  V30 45550 C 4316.67 4.83476 3.32367 0
M  V30 45551 C 4319.02 5.3856 3.31868 0
M  V30 45552 C 4317.68 5.78852 3.32395 0
M  V30 45553 H 4316.95 0.357554 0.649027 0
M  V30 45554 H 4319.6 1.47296 1.22377 0
M  V30 45555 H 4317.91 1.00171 3.78778 0
M  V30 45556 H 4319.6 1.39211 3.7606 0
M  V30 45557 H 4316.19 2.74647 3.29039 0
M  V30 45558 H 4320.38 3.7271 3.27721 0
M  V30 45559 H 4315.63 5.13993 3.31091 0
M  V30 45560 H 4319.81 6.12726 3.30969 0
M  V30 45561 H 4317.43 6.83772 3.32204 0
M  V30 45562 N 4319.01 -1.23079 0.984342 0
M  V30 45563 C 4319.96 -2.24691 0.527513 0
M  V30 45564 C 4320.93 -1.60284 -0.435678 0
M  V30 45565 O 4322.11 -1.87704 -0.342345 0
M  V30 45566 C 4319.25 -3.44729 -0.16008 0
M  V30 45567 C 4318.36 -4.23678 0.843838 0
M  V30 45568 C 4317.5 -5.31039 0.130645 0
M  V30 45569 C 4316.54 -6.01701 1.12351 0
M  V30 45570 N 4315.67 -7.00725 0.439205 0
M  V30 45571 H 4320.51 -2.63132 1.39877 0
M  V30 45572 H 4318.05 -1.29332 0.700838 0
M  V30 45573 H 4320.01 -4.13211 -0.575577 0
M  V30 45574 H 4318.64 -3.07076 -0.995186 0
M  V30 45575 H 4317.69 -3.54575 1.3777 0
M  V30 45576 H 4319 -4.72433 1.60026 0
M  V30 45577 H 4318.16 -6.05735 -0.342017 0
M  V30 45578 H 4316.9 -4.83236 -0.658346 0
M  V30 45579 H 4315.9 -5.25794 1.60689 0
M  V30 45580 H 4317.13 -6.51592 1.91323 0
M  V30 45581 H 4315.07 -6.55167 -0.330505 0
M  V30 45582 H 4314.99 -7.47443 1.13421 0
M  V30 45583 H 4316.26 -7.79499 -0.0109381 0
M  V30 45584 N 4320.49 -0.756478 -1.38258 0
M  V30 45585 C 4321.76 -0.239308 -1.94131 0
M  V30 45586 C 4322.14 1.26296 -1.69152 0
M  V30 45587 O 4321.49 2.03884 -1.03169 0
M  V30 45588 C 4321.7 -0.596132 -3.43871 0
M  V30 45589 C 4323.05 -0.557386 -4.20926 0
M  V30 45590 O 4324.07 -0.534599 -3.52165 0
M  V30 45591 O 4322.93 -0.570886 -5.4351 0
M  V30 45592 H 4320.03 -0.0509548 -0.825429 0
M  V30 45593 H 4322.57 -0.836796 -1.47634 0
M  V30 45594 H 4321.34 -1.63354 -3.55572 0
M  V30 45595 H 4320.97 0.029211 -3.97589 0
M  V30 45596 N 4321.96 1.49264 -0.505783 0
M  V30 45597 C 4322.93 2.27731 0.259107 0
M  V30 45598 C 4323.93 1.33946 0.889666 0
M  V30 45599 O 4325.12 1.57063 0.753457 0
M  V30 45600 C 4322.25 3.12061 1.37226 0
M  V30 45601 H 4323.44 2.96808 -0.429503 0
M  V30 45602 H 4321 1.54107 -0.260903 0
M  V30 45603 H 4321.73 2.47559 2.09487 0
M  V30 45604 H 4321.52 3.8102 0.92552 0
M  V30 45605 H 4323.01 3.71313 1.91092 0
M  V30 45606 N 4323.44 0.239823 1.55765 0
M  V30 45607 C 4324.67 -0.394207 2.03619 0
M  V30 45608 C 4325.09 -1.5126 1.11813 0
M  V30 45609 O 4324.45 -1.80968 0.109732 0
M  V30 45610 C 4324.5 -0.885968 3.49547 0
M  V30 45611 O 4323.6 -1.99607 3.60875 0
M  V30 45612 H 4322.94 -0.0868896 0.65829 0
M  V30 45613 H 4325.47 0.36381 2.01339 0
M  V30 45614 H 4325.48 -1.19104 3.90229 0
M  V30 45615 H 4324.16 -0.0675153 4.15845 0
M  V30 45616 H 4322.74 -1.69624 3.32088 0
M  V30 45617 N 4324.92 -1.57565 -0.0333739 0
M  V30 45618 C 4326.17 -1.88701 -0.723618 0
M  V30 45619 C 4326.49 -0.83696 -1.76125 0
M  V30 45620 O 4325.76 0.129946 -1.95469 0
M  V30 45621 H 4324.34 -0.6964 -0.270251 0
M  V30 45622 H 4327 -1.949 -0.00034676 0
M  V30 45623 H 4326.1 -2.87442 -1.21589 0
M  V30 45624 N 4326.4 0.305564 -1.54609 0
M  V30 45625 C 4327.35 1.3767 -1.85245 0
M  V30 45626 C 4328.32 1.50584 -0.700979 0
M  V30 45627 O 4329.5 1.65516 -0.949164 0
M  V30 45628 C 4326.64 2.73749 -2.10132 0
M  V30 45629 C 4325.75 2.69322 -3.37772 0
M  V30 45630 C 4324.89 3.97365 -3.52526 0
M  V30 45631 C 4323.93 3.87317 -4.73975 0
M  V30 45632 N 4323.06 5.07126 -4.85559 0
M  V30 45633 H 4327.9 1.10845 -2.76618 0
M  V30 45634 H 4325.44 0.536215 -1.36979 0
M  V30 45635 H 4327.4 3.52881 -2.22556 0
M  V30 45636 H 4326.03 2.98845 -1.2203 0
M  V30 45637 H 4325.08 1.8208 -3.33992 0
M  V30 45638 H 4326.39 2.57785 -4.27022 0
M  V30 45639 H 4325.55 4.84932 -3.64589 0
M  V30 45640 H 4324.29 4.1173 -2.614 0
M  V30 45641 H 4323.29 2.98133 -4.61949 0
M  V30 45642 H 4324.52 3.74501 -5.66503 0
M  V30 45643 H 4322.46 5.21963 -3.97355 0
M  V30 45644 H 4322.38 4.97995 -5.68803 0
M  V30 45645 H 4323.65 5.96358 -5.01974 0
M  V30 45646 N 4327.88 1.46988 0.568532 0
M  V30 45647 C 4329.29 1.47025 1.15068 0
M  V30 45648 C 4329.64 0.218761 1.94977 0
M  V30 45649 O 4328.76 -0.677165 2.05532 0
M  V30 45650 C 4329.36 2.66385 2.09344 0
M  V30 45651 C 4327.92 2.69417 2.62852 0
M  V30 45652 C 4327.06 2.39945 1.39002 0
M  V30 45653 H 4330.02 1.54662 0.355718 0
M  V30 45654 H 4330.04 2.4271 2.93039 0
M  V30 45655 H 4329.55 3.57454 1.51157 0
M  V30 45656 H 4327.65 1.82457 3.24869 0
M  V30 45657 H 4327.76 3.69789 3.04619 0
M  V30 45658 H 4326.13 1.90294 1.69294 0
M  V30 45659 H 4326.91 3.33209 0.826251 0
M  V30 45660 N 4329.35 -0.814342 1.3493 0
M  V30 45661 C 4330.6 -1.57336 1.27958 0
M  V30 45662 C 4330.93 -1.93636 -0.147862 0
M  V30 45663 O 4330.21 -1.60724 -1.09536 0
M  V30 45664 C 4330.49 -2.86716 2.17867 0
M  V30 45665 C 4330.34 -2.56941 3.6919 0
M  V30 45666 C 4331.66 -3.88359 2.0704 0
M  V30 45667 H 4328.78 -0.570846 0.466159 0
M  V30 45668 H 4331.42 -0.937484 1.65261 0
M  V30 45669 H 4329.57 -3.4098 1.86184 0
M  V30 45670 H 4331.25 -2.0892 4.11279 0
M  V30 45671 H 4329.49 -1.90252 3.89854 0
M  V30 45672 H 4330.16 -3.49239 4.27476 0
M  V30 45673 H 4332.64 -3.43472 2.34875 0
M  V30 45674 H 4331.51 -4.76676 2.7216 0
M  V30 45675 H 4331.77 -4.29451 1.04997 0
M  V30 45676 N 4330.83 -1.18801 -1.03557 0
M  V30 45677 C 4332.24 -0.989895 -1.58297 0
M  V30 45678 C 4332.59 0.459044 -1.90754 0
M  V30 45679 O 4331.72 1.33728 -1.70134 0
M  V30 45680 C 4332.31 -1.79059 -2.87617 0
M  V30 45681 C 4330.87 -1.63668 -3.38954 0
M  V30 45682 C 4330.02 -1.78184 -2.12475 0
M  V30 45683 H 4332.97 -1.3327 -0.86167 0
M  V30 45684 H 4332.99 -1.2827 -3.58228 0
M  V30 45685 H 4332.5 -2.84509 -2.63962 0
M  V30 45686 H 4330.61 -0.607754 -3.6761 0
M  V30 45687 H 4330.72 -2.43788 -4.12437 0
M  V30 45688 H 4329.08 -1.2118 -2.24026 0
M  V30 45689 H 4329.87 -2.8508 -1.9127 0
M  V30 45690 N 4332.31 1.22555 -0.990855 0
M  V30 45691 C 4333.54 1.94986 -0.682943 0
M  V30 45692 C 4333.95 1.73436 0.756077 0
M  V30 45693 O 4333.29 1.02919 1.52162 0
M  V30 45694 C 4333.35 3.47884 -0.906475 0
M  V30 45695 C 4333.02 3.93166 -2.32958 0
M  V30 45696 C 4334.02 4.01004 -3.30896 0
M  V30 45697 C 4331.7 4.25869 -2.66347 0
M  V30 45698 C 4333.69 4.40915 -4.60296 0
M  V30 45699 C 4331.38 4.6546 -3.95967 0
M  V30 45700 C 4332.38 4.72952 -4.92753 0
M  V30 45701 O 4332.07 5.11648 -6.20058 0
M  V30 45702 H 4331.8 0.6273 -0.251935 0
M  V30 45703 H 4334.35 1.56714 -1.32777 0
M  V30 45704 H 4332.58 3.86159 -0.204469 0
M  V30 45705 H 4334.27 4.01528 -0.594125 0
M  V30 45706 H 4335.04 3.75931 -3.06433 0
M  V30 45707 H 4330.92 4.19244 -1.91716 0
M  V30 45708 H 4334.46 4.46677 -5.35841 0
M  V30 45709 H 4330.36 4.89985 -4.2022 0
M  V30 45710 H 4331.13 5.29727 -6.23964 0
M  V30 45711 N 4333.79 0.763799 1.37855 0
M  V30 45712 C 4335.03 0.329594 2.01725 0
M  V30 45713 C 4335.39 -1.07147 1.59322 0
M  V30 45714 O 4336.59 -1.60536 2.15596 0
M  V30 45715 C 4334.87 0.459614 3.54432 0
M  V30 45716 S 4336.42 0.109497 4.38663 0
M  V30 45717 H 4333.24 0.12726 0.699518 0
M  V30 45718 H 4335.84 0.996666 1.68187 0
M  V30 45719 H 4334.55 1.48008 3.82782 0
M  V30 45720 H 4334.08 -0.224288 3.9276 0
M  V30 45721 H 4336.09 -1.09759 4.83908 0
M  V30 45722 N 4335.27 -1.48993 0.513692 0
M  V30 45723 C 4336.5 -2.06588 -0.0226993 0
M  V30 45724 C 4336.91 -1.37271 -1.30205 0
M  V30 45725 O 4336.25 -0.448799 -1.78133 0
M  V30 45726 C 4336.31 -3.57947 -0.333808 0
M  V30 45727 C 4335.97 -4.49032 0.849675 0
M  V30 45728 C 4336.97 -4.89788 1.74366 0
M  V30 45729 C 4334.66 -4.91159 1.05207 0
M  V30 45730 C 4336.65 -5.71423 2.82408 0
M  V30 45731 C 4334.34 -5.72567 2.13565 0
M  V30 45732 C 4335.34 -6.12605 3.02 0
M  V30 45733 O 4335.02 -6.92383 4.08486 0
M  V30 45734 H 4334.76 -0.675609 0.0229882 0
M  V30 45735 H 4337.31 -1.92592 0.713975 0
M  V30 45736 H 4335.54 -3.69997 -1.12424 0
M  V30 45737 H 4337.23 -3.97729 -0.810326 0
M  V30 45738 H 4337.99 -4.57877 1.59917 0
M  V30 45739 H 4333.87 -4.59488 0.37306 0
M  V30 45740 H 4337.42 -6.02594 3.51463 0
M  V30 45741 H 4333.31 -6.03891 2.28005 0
M  V30 45742 H 4334.08 -7.10711 4.05995 0
M  V30 45743 N 4336.75 -0.248081 -1.55635 0
M  V30 45744 C 4338.02 0.426725 -1.90888 0
M  V30 45745 C 4338.4 1.75779 -1.16897 0
M  V30 45746 O 4337.75 2.26692 -0.286844 0
M  V30 45747 C 4337.96 0.593648 -3.43914 0
M  V30 45748 C 4339.31 0.888986 -4.15189 0
M  V30 45749 O 4340.33 0.679468 -3.49659 0
M  V30 45750 O 4339.19 1.28806 -5.31104 0
M  V30 45751 H 4336.29 0.229286 -0.79458 0
M  V30 45752 H 4338.83 -0.292234 -1.67165 0
M  V30 45753 H 4337.6 -0.344169 -3.89783 0
M  V30 45754 H 4337.23 1.3631 -3.73504 0
M  V30 45755 N 4338.22 1.5758 0.0250174 0
M  V30 45756 C 4339.45 1.93719 0.726676 0
M  V30 45757 C 4339.87 0.848177 1.68675 0
M  V30 45758 O 4339.22 -0.175073 1.81658 0
M  V30 45759 C 4339.27 3.29805 1.48024 0
M  V30 45760 O 4339 4.34523 0.558693 0
M  V30 45761 C 4340.5 3.80251 2.27869 0
M  V30 45762 H 4337.72 0.639246 0.203975 0
M  V30 45763 H 4340.26 2.04491 -0.0186611 0
M  V30 45764 H 4338.42 3.20417 2.17742 0
M  V30 45765 H 4338.83 5.131 1.0876 0
M  V30 45766 H 4340.3 4.7797 2.76132 0
M  V30 45767 H 4340.78 3.11654 3.09465 0
M  V30 45768 H 4341.39 3.92734 1.63217 0
M  V30 45769 N 4339.7 -0.29736 1.54769 0
M  V30 45770 C 4340.65 -1.38687 1.86731 0
M  V30 45771 C 4341.64 -1.52316 0.741371 0
M  V30 45772 O 4342.85 -1.5439 0.925411 0
M  V30 45773 H 4339.22 -0.463329 0.592309 0
M  V30 45774 H 4341.2 -1.08968 2.77792 0
M  V30 45775 C 4339.94 -2.74472 2.13449 0
M  V30 45776 H 4339.27 -2.64768 2.99563 0
M  V30 45777 H 4340.71 -3.49708 2.39751 0
M  V30 45778 C 4339.17 -3.23688 0.934208 0
M  V30 45779 O 4339.7 -4.01395 0.156535 0
M  V30 45780 N 4337.9 -2.81057 0.738586 0
M  V30 45781 H 4337.45 -2.17982 1.37265 0
M  V30 45782 H 4337.41 -3.14337 -0.0629449 0
M  V30 45783 N 4341.18 -1.47287 -0.560729 0
M  V30 45784 C 4342.43 -1.53959 -1.32001 0
M  V30 45785 C 4342.76 -0.199739 -1.9317 0
M  V30 45786 O 4342.03 0.791257 -1.77678 0
M  V30 45787 C 4342.32 -2.65494 -2.43279 0
M  V30 45788 C 4342.17 -4.09085 -1.87002 0
M  V30 45789 C 4343.49 -2.72963 -3.45224 0
M  V30 45790 H 4340.61 -0.560465 -0.478589 0
M  V30 45791 H 4343.25 -1.79328 -0.627822 0
M  V30 45792 H 4341.4 -2.43994 -3.02323 0
M  V30 45793 H 4343.07 -4.41937 -1.32247 0
M  V30 45794 H 4341.31 -4.17528 -1.17698 0
M  V30 45795 H 4341.99 -4.82893 -2.6743 0
M  V30 45796 H 4344.46 -2.92349 -2.96094 0
M  V30 45797 H 4343.34 -3.52785 -4.20516 0
M  V30 45798 H 4343.6 -1.79881 -4.03851 0
M  V30 45799 N 4342.66 0.807175 -1.3536 0
M  V30 45800 C 4343.59 1.93361 -1.30896 0
M  V30 45801 C 4344.57 1.69107 -0.183504 0
M  V30 45802 O 4345.75 1.90478 -0.378372 0
M  V30 45803 C 4342.88 3.30094 -1.07959 0
M  V30 45804 C 4341.84 3.68828 -2.1714 0
M  V30 45805 C 4341.16 5.03717 -1.79369 0
M  V30 45806 C 4342.46 3.79268 -3.591 0
M  V30 45807 H 4344.16 1.97354 -2.25149 0
M  V30 45808 H 4341.7 0.948112 -1.08383 0
M  V30 45809 H 4343.66 4.08498 -1.03476 0
M  V30 45810 H 4342.38 3.26442 -0.101526 0
M  V30 45811 H 4341.04 2.92709 -2.20719 0
M  V30 45812 H 4340.69 4.96568 -0.801821 0
M  V30 45813 H 4340.39 5.30604 -2.52455 0
M  V30 45814 H 4341.91 5.84561 -1.7641 0
M  V30 45815 H 4343.33 4.47905 -3.57846 0
M  V30 45816 H 4341.72 4.17624 -4.30941 0
M  V30 45817 H 4342.79 2.80838 -3.95295 0
M  V30 45818 N 4344.14 1.19348 1.02926 0
M  V30 45819 C 4345.05 0.946199 2.14672 0
M  V30 45820 C 4346.06 -0.093659 1.73748 0
M  V30 45821 O 4347.24 0.0908951 2.01195 0
M  V30 45822 C 4344.3 0.487733 3.43252 0
M  V30 45823 C 4343.36 1.59693 3.98493 0
M  V30 45824 C 4342.6 1.16025 5.20936 0
M  V30 45825 O 4342.82 0.0236543 5.70395 0
M  V30 45826 O 4341.75 1.96264 5.69003 0
M  V30 45827 H 4345.58 1.88152 2.38396 0
M  V30 45828 H 4343.16 0.97627 1.1309 0
M  V30 45829 H 4345.05 0.240686 4.20712 0
M  V30 45830 H 4343.72 -0.419154 3.20975 0
M  V30 45831 H 4342.63 1.89813 3.22369 0
M  V30 45832 H 4343.96 2.48036 4.25134 0
M  V30 45833 N 4345.61 -1.22028 0.997341 0
M  V30 45834 C 4346.86 -1.90517 0.674365 0
M  V30 45835 C 4347.18 -1.77989 -0.796551 0
M  V30 45836 O 4346.45 -1.16991 -1.57131 0
M  V30 45837 H 4345.03 -0.705178 0.246439 0
M  V30 45838 H 4347.69 -1.48286 1.2648 0
M  V30 45839 H 4346.79 -2.97583 0.940797 0
M  V30 45840 N 4347.09 -0.771099 -1.37448 0
M  V30 45841 C 4348.32 -0.345281 -2.04506 0
M  V30 45842 C 4348.74 1.02412 -1.57776 0
M  V30 45843 O 4348.1 1.65613 -0.737707 0
M  V30 45844 C 4348.15 -0.396791 -3.5841 0
M  V30 45845 O 4347.25 0.602988 -4.07968 0
M  V30 45846 H 4346.59 -0.149605 -0.646927 0
M  V30 45847 H 4349.12 -1.04711 -1.75775 0
M  V30 45848 H 4349.13 -0.253855 -4.07209 0
M  V30 45849 H 4347.81 -1.39583 -3.91777 0
M  V30 45850 H 4346.39 0.423224 -3.70491 0
M  V30 45851 N 4348.57 1.48719 -0.521586 0
M  V30 45852 C 4349.82 2.02794 0.0155831 0
M  V30 45853 C 4350.15 1.39866 1.34726 0
M  V30 45854 O 4349.42 0.541459 1.86811 0
M  V30 45855 C 4349.71 3.59802 0.146463 0
M  V30 45856 C 4349.56 4.33225 -1.20979 0
M  V30 45857 C 4350.88 4.31267 0.877294 0
M  V30 45858 H 4348 0.736988 0.00418911 0
M  V30 45859 H 4350.64 1.7753 -0.676989 0
M  V30 45860 H 4348.79 3.81458 0.736326 0
M  V30 45861 H 4350.46 4.2301 -1.84012 0
M  V30 45862 H 4348.71 3.94973 -1.79385 0
M  V30 45863 H 4349.38 5.41504 -1.0713 0
M  V30 45864 H 4351.85 4.1439 0.376819 0
M  V30 45865 H 4350.73 5.4083 0.937751 0
M  V30 45866 H 4350.99 3.97956 1.92571 0
M  V30 45867 N 4350.05 0.256331 1.55501 0
M  V30 45868 C 4351.01 -0.625975 2.20486 0
M  V30 45869 C 4352.01 -1.09564 1.17696 0
M  V30 45870 O 4353.2 -0.998831 1.4272 0
M  V30 45871 C 4350.33 -1.86144 2.85593 0
M  V30 45872 H 4351.53 -0.0588597 2.99842 0
M  V30 45873 H 4349.08 0.00683387 1.56299 0
M  V30 45874 H 4349.81 -2.46955 2.10199 0
M  V30 45875 H 4349.6 -1.53279 3.60899 0
M  V30 45876 H 4351.09 -2.48929 3.35297 0
M  V30 45877 N 4351.53 -1.57591 -0.0166602 0
M  V30 45878 C 4352.76 -1.9382 -0.715353 0
M  V30 45879 C 4353.16 -0.855553 -1.68751 0
M  V30 45880 O 4352.51 0.17567 -1.82858 0
M  V30 45881 C 4352.57 -3.25933 -1.51683 0
M  V30 45882 C 4352.23 -4.51481 -0.708097 0
M  V30 45883 C 4353.23 -5.199 -0.00297061 0
M  V30 45884 C 4350.92 -4.97959 -0.658978 0
M  V30 45885 C 4352.91 -6.33085 0.740441 0
M  V30 45886 C 4350.6 -6.11036 0.0881702 0
M  V30 45887 C 4351.59 -6.78455 0.786628 0
M  V30 45888 O 4351.28 -7.89368 1.52162 0
M  V30 45889 H 4351.01 -0.644071 -0.2053 0
M  V30 45890 H 4353.57 -2.05384 0.0255277 0
M  V30 45891 H 4351.8 -3.1073 -2.30182 0
M  V30 45892 H 4353.49 -3.47396 -2.0993 0
M  V30 45893 H 4354.25 -4.8499 -0.031871 0
M  V30 45894 H 4350.13 -4.45319 -1.19214 0
M  V30 45895 H 4353.68 -6.85641 1.28615 0
M  V30 45896 H 4349.57 -6.4539 0.11895 0
M  V30 45897 H 4350.34 -8.05794 1.43659 0
M  V30 45898 N 4353 0.289148 -1.54925 0
M  V30 45899 C 4353.91 1.37932 -1.89768 0
M  V30 45900 C 4354.93 1.54873 -0.793108 0
M  V30 45901 O 4356.11 1.6931 -1.09068 0
M  V30 45902 C 4353.17 2.72121 -2.14828 0
M  V30 45903 C 4352.23 2.64063 -3.38481 0
M  V30 45904 C 4351.47 3.91852 -3.62336 0
M  V30 45905 O 4351.69 4.91775 -2.88987 0
M  V30 45906 O 4350.62 3.9303 -4.55863 0
M  V30 45907 H 4354.45 1.11383 -2.82538 0
M  V30 45908 H 4352.03 0.486261 -1.41265 0
M  V30 45909 H 4353.92 3.51493 -2.32444 0
M  V30 45910 H 4352.59 2.98489 -1.25244 0
M  V30 45911 H 4351.5 1.83122 -3.26217 0
M  V30 45912 H 4352.83 2.42646 -4.28233 0
M  V30 45913 N 4354.48 1.47583 0.55291 0
M  V30 45914 C 4355.71 1.58299 1.34 0
M  V30 45915 C 4356.13 0.235143 1.86624 0
M  V30 45916 O 4355.49 -0.789674 1.63199 0
M  V30 45917 C 4355.54 2.6151 2.48284 0
M  V30 45918 O 4354.64 2.17079 3.50643 0
M  V30 45919 H 4353.98 0.531615 0.397846 0
M  V30 45920 H 4356.51 1.93397 0.667749 0
M  V30 45921 H 4356.52 2.82065 2.94793 0
M  V30 45922 H 4355.2 3.59375 2.09339 0
M  V30 45923 H 4353.78 2.06641 3.10409 0
M  V30 45924 N 4355.96 -0.799985 1.35787 0
M  V30 45925 C 4356.89 -1.92664 1.3192 0
M  V30 45926 C 4357.87 -1.69008 0.19247 0
M  V30 45927 O 4359.06 -1.90275 0.388469 0
M  V30 45928 C 4356.19 -3.29517 1.09708 0
M  V30 45929 C 4355.14 -3.67672 2.19093 0
M  V30 45930 C 4354.47 -5.02759 1.82038 0
M  V30 45931 C 4355.77 -3.77358 3.61106 0
M  V30 45932 H 4357.46 -1.96157 2.26192 0
M  V30 45933 H 4355.01 -0.942351 1.08884 0
M  V30 45934 H 4356.96 -4.07944 1.05641 0
M  V30 45935 H 4355.68 -3.26384 0.118836 0
M  V30 45936 H 4354.34 -2.91535 2.22268 0
M  V30 45937 H 4353.99 -4.96136 0.828144 0
M  V30 45938 H 4353.69 -5.29258 2.55265 0
M  V30 45939 H 4355.21 -5.83618 1.79508 0
M  V30 45940 H 4356.63 -4.46001 3.60217 0
M  V30 45941 H 4355.03 -4.15333 4.3315 0
M  V30 45942 H 4356.1 -2.78737 3.96779 0
M  V30 45943 N 4357.44 -1.19892 -1.02292 0
M  V30 45944 C 4358.85 -0.95242 -1.28067 0
M  V30 45945 C 4359.05 0.371741 -1.98041 0
M  V30 45946 O 4358.11 1.10181 -2.27192 0
M  V30 45947 C 4359.42 -2.13063 -2.1219 0
M  V30 45948 C 4360.97 -2.17091 -2.25478 0
M  V30 45949 C 4361.45 -3.3438 -3.12976 0
M  V30 45950 N 4362.94 -3.34354 -3.20565 0
M  V30 45951 C 4363.67 -4.21754 -3.88473 0
M  V30 45952 N 4363.17 -5.1932 -4.58562 0
M  V30 45953 N 4364.96 -4.09613 -3.84933 0
M  V30 45954 H 4357.11 -2.05077 -0.552904 0
M  V30 45955 H 4359.38 -0.897049 -0.306606 0
M  V30 45956 H 4359.08 -3.08924 -1.68103 0
M  V30 45957 H 4358.96 -2.10627 -3.12916 0
M  V30 45958 H 4361.34 -1.21797 -2.68793 0
M  V30 45959 H 4361.42 -2.23579 -1.24283 0
M  V30 45960 H 4361.07 -4.29957 -2.70368 0
M  V30 45961 H 4361 -3.2513 -4.14244 0
M  V30 45962 H 4363.49 -2.63733 -2.70653 0
M  V30 45963 H 4363.8 -5.82346 -5.08029 0
M  V30 45964 H 4362.15 -5.23262 -4.57408 0
M  V30 45965 H 4365.34 -3.32665 -3.2932 0
M  V30 45966 H 4365.51 -4.77939 -4.37582 0
M  V30 45967 N 4358.92 1.21498 -1.0038 0
M  V30 45968 C 4360.33 1.72287 -0.71931 0
M  V30 45969 C 4360.68 1.80751 0.763123 0
M  V30 45970 O 4359.8 1.46124 1.59614 0
M  V30 45971 C 4360.4 3.12906 -1.29906 0
M  V30 45972 C 4358.96 3.61057 -1.06372 0
M  V30 45973 C 4358.1 2.38622 -1.41261 0
M  V30 45974 H 4361.06 1.06691 -1.17485 0
M  V30 45975 H 4361.08 3.74318 -0.683104 0
M  V30 45976 H 4360.59 3.06713 -2.37799 0
M  V30 45977 H 4358.69 3.726 -0.00188752 0
M  V30 45978 H 4358.8 4.4659 -1.73476 0
M  V30 45979 H 4357.17 2.40749 -0.831375 0
M  V30 45980 H 4357.95 2.35082 -2.50183 0
M  V30 45981 N 4360.39 0.778378 1.37037 0
M  V30 45982 C 4361.67 0.270163 1.93725 0
M  V30 45983 C 4362.05 -1.23589 1.7114 0
M  V30 45984 O 4361.4 -2.02216 1.06399 0
M  V30 45985 C 4361.61 0.650763 3.42879 0
M  V30 45986 C 4362.96 0.624281 4.19986 0
M  V30 45987 O 4363.98 0.590558 3.5127 0
M  V30 45988 O 4362.84 0.657281 5.42533 0
M  V30 45989 H 4359.93 0.0640802 0.824514 0
M  V30 45990 H 4362.48 0.860177 1.46284 0
M  V30 45991 H 4361.25 1.6899 3.52928 0
M  V30 45992 H 4360.88 0.0340457 3.97585 0
M  V30 45993 N 4361.87 -1.4844 0.529465 0
M  V30 45994 C 4363.1 -2.069 -0.000787806 0
M  V30 45995 C 4363.52 -1.38608 -1.28193 0
M  V30 45996 O 4362.87 -0.473431 -1.76252 0
M  V30 45997 C 4362.92 -3.60774 -0.228968 0
M  V30 45998 O 4362.65 -4.26501 1.00141 0
M  V30 45999 C 4364.15 -4.36028 -0.799659 0
M  V30 46000 H 4361.37 -0.670174 0.0332808 0
M  V30 46001 H 4363.91 -1.90836 0.734962 0
M  V30 46002 H 4362.07 -3.76445 -0.914766 0
M  V30 46003 H 4362.48 -5.1864 0.781828 0
M  V30 46004 H 4363.95 -5.44468 -0.908746 0
M  V30 46005 H 4364.43 -4.00421 -1.80443 0
M  V30 46006 H 4365.04 -4.25034 -0.150443 0
M  V30 46007 N 4363.35 -0.264574 -1.55363 0
M  V30 46008 C 4364.77 0.0898463 -1.59347 0
M  V30 46009 C 4364.97 1.55474 -1.2818 0
M  V30 46010 O 4364.02 2.30196 -1.03759 0
M  V30 46011 C 4365.34 -0.275282 -2.99437 0
M  V30 46012 C 4366.88 -0.22103 -3.12219 0
M  V30 46013 C 4367.36 -0.560446 -4.54558 0
M  V30 46014 N 4368.85 -0.511603 -4.60366 0
M  V30 46015 C 4369.59 -0.747163 -5.68511 0
M  V30 46016 N 4369.08 -1.04678 -6.84846 0
M  V30 46017 N 4370.87 -0.676672 -5.58012 0
M  V30 46018 H 4363.03 -1.21969 -1.73889 0
M  V30 46019 H 4365.29 -0.492008 -0.810328 0
M  V30 46020 H 4364.99 -1.29366 -3.27043 0
M  V30 46021 H 4364.87 0.389047 -3.75188 0
M  V30 46022 H 4367.26 0.788047 -2.84383 0
M  V30 46023 H 4367.34 -0.919466 -2.38704 0
M  V30 46024 H 4366.98 -1.56716 -4.83117 0
M  V30 46025 H 4366.91 0.159664 -5.26358 0
M  V30 46026 H 4369.4 -0.289473 -3.7679 0
M  V30 46027 H 4369.71 -1.21347 -7.63213 0
M  V30 46028 H 4368.06 -1.08445 -6.86487 0
M  V30 46029 H 4371.25 -0.442515 -4.66004 0
M  V30 46030 H 4371.42 -0.86364 -6.42219 0
M  V30 46031 N 4364.83 1.57598 0.00830251 0
M  V30 46032 C 4366.06 1.94197 0.705065 0
M  V30 46033 C 4366.47 0.86449 1.68295 0
M  V30 46034 O 4365.81 -0.16597 1.82949 0
M  V30 46035 C 4365.87 3.26733 1.49953 0
M  V30 46036 C 4365.54 4.5185 0.684144 0
M  V30 46037 C 4366.53 5.19894 -0.024601 0
M  V30 46038 C 4364.22 4.98301 0.632561 0
M  V30 46039 C 4366.21 6.32683 -0.774004 0
M  V30 46040 C 4363.9 6.10981 -0.120574 0
M  V30 46041 C 4364.9 6.78028 -0.822597 0
M  V30 46042 O 4364.59 7.8855 -1.56346 0
M  V30 46043 H 4364.32 0.645151 0.201881 0
M  V30 46044 H 4366.87 2.05368 -0.0364194 0
M  V30 46045 H 4365.1 3.11947 2.2853 0
M  V30 46046 H 4366.79 3.48505 2.08085 0
M  V30 46047 H 4367.56 4.85 0.00615035 0
M  V30 46048 H 4363.44 4.45945 1.16851 0
M  V30 46049 H 4366.98 6.8495 -1.32249 0
M  V30 46050 H 4362.88 6.45318 -0.153175 0
M  V30 46051 H 4363.64 8.05021 -1.4793 0
M  V30 46052 N 4366.31 -0.280928 1.55076 0
M  V30 46053 C 4367.55 -1.01508 1.75568 0
M  V30 46054 C 4367.89 -1.86225 0.550823 0
M  V30 46055 O 4367.16 -1.8918 -0.451774 0
M  V30 46056 C 4367.44 -1.90429 3.05629 0
M  V30 46057 C 4367.3 -1.08758 4.36454 0
M  V30 46058 C 4368.62 -2.89272 3.31678 0
M  V30 46059 H 4365.74 -0.367614 0.638771 0
M  V30 46060 H 4368.38 -0.288087 1.87803 0
M  V30 46061 H 4366.53 -2.52415 2.95329 0
M  V30 46062 H 4368.2 -0.489034 4.587 0
M  V30 46063 H 4366.44 -0.390808 4.32036 0
M  V30 46064 H 4367.11 -1.74276 5.23767 0
M  V30 46065 H 4369.59 -2.37418 3.41719 0
M  V30 46066 H 4368.47 -3.48638 4.23961 0
M  V30 46067 H 4368.73 -3.63984 2.50935 0
M  V30 46068 N 4367.79 -1.47874 -0.545076 0
M  V30 46069 C 4368.72 -1.64156 -1.66057 0
M  V30 46070 C 4369.7 -0.490708 -1.62868 0
M  V30 46071 O 4370.88 -0.721483 -1.803 0
M  V30 46072 C 4368.01 -1.667 -3.04678 0
M  V30 46073 C 4366.97 -2.81134 -3.22719 0
M  V30 46074 C 4366.29 -2.68757 -4.62248 0
M  V30 46075 C 4367.59 -4.226 -3.06931 0
M  V30 46076 H 4369.29 -2.57541 -1.52686 0
M  V30 46077 H 4366.83 -1.23941 -0.733125 0
M  V30 46078 H 4368.78 -1.7668 -3.82573 0
M  V30 46079 H 4367.51 -0.698837 -3.19036 0
M  V30 46080 H 4366.17 -2.70684 -2.47236 0
M  V30 46081 H 4365.82 -1.69943 -4.73422 0
M  V30 46082 H 4365.52 -3.45536 -4.75267 0
M  V30 46083 H 4367.04 -2.80684 -5.42263 0
M  V30 46084 H 4368.45 -4.33962 -3.74633 0
M  V30 46085 H 4366.85 -5.00259 -3.31453 0
M  V30 46086 H 4367.92 -4.40117 -2.0353 0
M  V30 46087 N 4369.26 0.792773 -1.36209 0
M  V30 46088 C 4370.2 1.91168 -1.24619 0
M  V30 46089 C 4371.17 1.62071 -0.131071 0
M  V30 46090 O 4372.36 1.86071 -0.301612 0
M  V30 46091 C 4369.49 3.25909 -0.922002 0
M  V30 46092 C 4368.53 3.73941 -2.0511 0
M  V30 46093 S 4369.36 3.90101 -3.66854 0
M  V30 46094 C 4370.52 5.27722 -3.36541 0
M  V30 46095 H 4370.75 2.00707 -2.19326 0
M  V30 46096 H 4368.29 0.951644 -1.21586 0
M  V30 46097 H 4370.24 4.03743 -0.74177 0
M  V30 46098 H 4368.91 3.14099 0.00723311 0
M  V30 46099 H 4368.1 4.71568 -1.77875 0
M  V30 46100 H 4367.7 3.03148 -2.19038 0
M  V30 46101 H 4369.99 6.12189 -2.90226 0
M  V30 46102 H 4370.94 5.59959 -4.33419 0
M  V30 46103 H 4371.34 4.94664 -2.71971 0
M  V30 46104 N 4370.74 1.20433 1.01654 0
M  V30 46105 C 4372.02 0.923569 1.72423 0
M  V30 46106 C 4372.4 -0.567639 2.03325 0
M  V30 46107 O 4371.75 -1.52932 1.69777 0
M  V30 46108 C 4371.96 1.79659 2.99205 0
M  V30 46109 C 4373.3 2.03845 3.72468 0
M  V30 46110 O 4374.33 1.76913 3.09161 0
M  V30 46111 O 4373.19 2.49329 4.8631 0
M  V30 46112 H 4370.28 0.345318 0.751455 0
M  V30 46113 H 4372.83 1.31307 1.07502 0
M  V30 46114 H 4371.6 2.80634 2.72691 0
M  V30 46115 H 4371.22 1.40717 3.71866 0
M  V30 46116 N 4372.22 -1.20963 1.01023 0
M  V30 46117 C 4373.47 -1.89791 0.694534 0
M  V30 46118 C 4373.79 -1.78824 -0.777628 0
M  V30 46119 O 4373.06 -1.18651 -1.55881 0
M  V30 46120 H 4371.64 -0.702525 0.253905 0
M  V30 46121 H 4374.3 -1.46936 1.28046 0
M  V30 46122 H 4373.4 -2.96568 0.972306 0
M  V30 46123 N 4373.7 -0.785634 -1.36622 0
M  V30 46124 C 4374.92 -0.366952 -2.04128 0
M  V30 46125 C 4375.35 1.00733 -1.58854 0
M  V30 46126 O 4374.71 1.64821 -0.755231 0
M  V30 46127 C 4374.75 -0.434783 -3.57969 0
M  V30 46128 O 4373.86 0.559683 -4.08585 0
M  V30 46129 H 4373.2 -0.156458 -0.645304 0
M  V30 46130 H 4375.73 -1.06569 -1.74654 0
M  V30 46131 H 4375.74 -0.297031 -4.06917 0
M  V30 46132 H 4374.41 -1.4373 -3.90275 0
M  V30 46133 H 4372.99 0.383905 -3.70919 0
M  V30 46134 N 4375.18 1.48157 -0.53733 0
M  V30 46135 C 4376.42 2.017 -0.00387768 0
M  V30 46136 C 4376.74 1.41902 1.34622 0
M  V30 46137 O 4377.94 1.86987 1.96846 0
M  V30 46138 C 4376.4 3.59874 0.0434659 0
M  V30 46139 C 4376.01 4.28657 -1.30218 0
M  V30 46140 C 4377.75 4.21237 0.525359 0
M  V30 46141 C 4375.66 5.78784 -1.21503 0
M  V30 46142 H 4374.59 0.753996 0.00232043 0
M  V30 46143 H 4377.24 1.70347 -0.682211 0
M  V30 46144 H 4375.62 3.881 0.787031 0
M  V30 46145 H 4376.8 4.12095 -2.06189 0
M  V30 46146 H 4375.11 3.79198 -1.7204 0
M  V30 46147 H 4377.71 5.31225 0.60865 0
M  V30 46148 H 4378.05 3.87053 1.53284 0
M  V30 46149 H 4378.58 3.97467 -0.162744 0
M  V30 46150 H 4375.32 6.17554 -2.19788 0
M  V30 46151 H 4374.84 5.97739 -0.496799 0
M  V30 46152 H 4376.52 6.40586 -0.908754 0
M  V30 46153 N 4376.65 0.272809 1.55221 0
M  V30 46154 C 4377.9 -0.345258 1.98723 0
M  V30 46155 C 4378.22 -1.57149 1.16462 0
M  V30 46156 O 4379.42 -2.26237 1.50098 0
M  V30 46157 C 4377.88 -0.665636 3.53691 0
M  V30 46158 C 4377.49 0.540664 4.44726 0
M  V30 46159 C 4379.23 -1.24646 4.05788 0
M  V30 46160 C 4377.14 0.195001 5.91078 0
M  V30 46161 H 4376.07 -0.132778 0.742217 0
M  V30 46162 H 4378.72 0.3771 1.79583 0
M  V30 46163 H 4377.1 -1.44683 3.68623 0
M  V30 46164 H 4378.27 1.31757 4.41562 0
M  V30 46165 H 4376.59 1.03817 4.0325 0
M  V30 46166 H 4379.19 -1.51884 5.12675 0
M  V30 46167 H 4379.53 -2.17957 3.54684 0
M  V30 46168 H 4380.06 -0.527599 3.94286 0
M  V30 46169 H 4376.8 1.09593 6.46274 0
M  V30 46170 H 4376.32 -0.545191 5.97317 0
M  V30 46171 H 4378 -0.213608 6.46647 0
M  V30 46172 N 4378.13 -1.576 5.54043e-05 0
M  V30 46173 C 4379.06 -2.05277 -1.01951 0
M  V30 46174 C 4380.08 -0.970708 -1.30695 0
M  V30 46175 O 4381.27 -1.2475 -1.2767 0
M  V30 46176 C 4378.37 -2.4378 -2.35425 0
M  V30 46177 C 4377.54 -3.74719 -2.2562 0
M  V30 46178 C 4376.6 -4.00089 -3.41782 0
M  V30 46179 O 4375.62 -4.70754 -3.19967 0
M  V30 46180 N 4376.83 -3.47989 -4.64633 0
M  V30 46181 H 4379.59 -2.93366 -0.612922 0
M  V30 46182 H 4377.15 -1.60813 -0.187327 0
M  V30 46183 H 4379.14 -2.57866 -3.11909 0
M  V30 46184 H 4377.71 -1.6121 -2.67825 0
M  V30 46185 H 4376.93 -3.70709 -1.34046 0
M  V30 46186 H 4378.22 -4.60562 -2.16241 0
M  V30 46187 H 4377.62 -2.90765 -4.85255 0
M  V30 46188 H 4376.18 -3.67405 -5.38383 0
M  V30 46189 N 4379.61 0.2727 -1.55223 0
M  V30 46190 C 4380.86 1.00426 -1.75843 0
M  V30 46191 C 4381.19 1.86273 -0.559695 0
M  V30 46192 O 4380.44 1.9027 0.45779 0
M  V30 46193 C 4380.74 1.91632 -3.01682 0
M  V30 46194 C 4380.41 1.21533 -4.34213 0
M  V30 46195 C 4379.07 1.0215 -4.70233 0
M  V30 46196 C 4381.42 0.716503 -5.16252 0
M  V30 46197 C 4378.75 0.316128 -5.85848 0
M  V30 46198 C 4381.1 0.0247252 -6.32595 0
M  V30 46199 C 4379.76 -0.180814 -6.67255 0
M  V30 46200 H 4379.03 0.367486 -0.643455 0
M  V30 46201 H 4381.68 0.27653 -1.89493 0
M  V30 46202 H 4379.99 2.71027 -2.82934 0
M  V30 46203 H 4381.68 2.48357 -3.14833 0
M  V30 46204 H 4378.27 1.37631 -4.05901 0
M  V30 46205 H 4382.46 0.853875 -4.88899 0
M  V30 46206 H 4377.71 0.146163 -6.11225 0
M  V30 46207 H 4381.89 -0.369555 -6.95419 0
M  V30 46208 H 4379.51 -0.729364 -7.56693 0
M  V30 46209 N 4381.09 1.48161 0.537226 0
M  V30 46210 C 4382.5 1.49433 1.11923 0
M  V30 46211 C 4382.85 0.260069 1.94469 0
M  V30 46212 O 4381.98 -0.633416 2.06922 0
M  V30 46213 C 4382.57 2.70765 2.03646 0
M  V30 46214 C 4381.13 2.74932 2.57078 0
M  V30 46215 C 4380.28 2.4284 1.33881 0
M  V30 46216 H 4383.23 1.55382 0.322831 0
M  V30 46217 H 4383.25 2.48871 2.87825 0
M  V30 46218 H 4382.76 3.6058 1.4354 0
M  V30 46219 H 4380.86 1.89307 3.20926 0
M  V30 46220 H 4380.97 3.76167 2.96707 0
M  V30 46221 H 4379.34 1.93842 1.65219 0
M  V30 46222 H 4380.12 3.34886 0.755386 0
M  V30 46223 N 4382.57 -0.785538 1.36627 0
M  V30 46224 C 4383.51 -1.91973 1.31336 0
M  V30 46225 C 4384.51 -1.68161 0.204475 0
M  V30 46226 O 4385.71 -1.7612 0.371707 0
M  V30 46227 H 4382.09 -0.631072 0.408964 0
M  V30 46228 H 4384.06 -1.93554 2.27111 0
M  V30 46229 C 4382.81 -3.29051 1.12341 0
M  V30 46230 H 4382.13 -3.47943 1.96916 0
M  V30 46231 H 4383.57 -4.08752 1.12686 0
M  V30 46232 C 4382.03 -3.36462 -0.171743 0
M  V30 46233 O 4382.56 -3.8458 -1.16021 0
M  V30 46234 N 4380.77 -2.89783 -0.217744 0
M  V30 46235 H 4380.31 -2.50816 0.587271 0
M  V30 46236 H 4380.27 -2.95123 -1.08397 0
M  V30 46237 N 4384.04 -1.20971 -1.01014 0
M  V30 46238 C 4385.27 -1.04962 -1.78299 0
M  V30 46239 C 4385.69 0.40085 -1.84496 0
M  V30 46240 O 4385.04 1.27821 -1.30261 0
M  V30 46241 C 4385.1 -1.63414 -3.22456 0
M  V30 46242 O 4384.82 -3.02786 -3.16627 0
M  V30 46243 C 4386.32 -1.52447 -4.16263 0
M  V30 46244 H 4383.54 -0.368878 -0.560509 0
M  V30 46245 H 4386.08 -1.60198 -1.2711 0
M  V30 46246 H 4384.24 -1.12283 -3.70771 0
M  V30 46247 H 4384.65 -3.3064 -4.07158 0
M  V30 46248 H 4386.12 -1.98096 -5.1523 0
M  V30 46249 H 4386.6 -0.478029 -4.36591 0
M  V30 46250 H 4387.21 -2.028 -3.73834 0
M  V30 46251 N 4385.52 1.20426 -1.01663 0
M  V30 46252 C 4386.75 1.93493 -0.724149 0
M  V30 46253 C 4387.16 1.75001 0.719119 0
M  V30 46254 O 4386.5 1.06124 1.49945 0
M  V30 46255 C 4386.57 3.45883 -0.980062 0
M  V30 46256 C 4386.23 3.88136 -2.41245 0
M  V30 46257 C 4387.23 3.93895 -3.39327 0
M  V30 46258 C 4384.91 4.20124 -2.7532 0
M  V30 46259 C 4386.91 4.31053 -4.69545 0
M  V30 46260 C 4384.59 4.56957 -4.05751 0
M  V30 46261 C 4385.59 4.62393 -5.02674 0
M  V30 46262 O 4385.28 4.9838 -6.30771 0
M  V30 46263 H 4385.01 0.621815 -0.265184 0
M  V30 46264 H 4387.56 1.53863 -1.36072 0
M  V30 46265 H 4385.79 3.85638 -0.286333 0
M  V30 46266 H 4387.48 4.00178 -0.679161 0
M  V30 46267 H 4388.25 3.69346 -3.14338 0
M  V30 46268 H 4384.13 4.15083 -2.00566 0
M  V30 46269 H 4387.67 4.35211 -5.45195 0
M  V30 46270 H 4383.57 4.80961 -4.30519 0
M  V30 46271 H 4384.34 5.16373 -6.3506 0
M  V30 46272 N 4387 0.792868 1.36203 0
M  V30 46273 C 4387.93 0.207935 2.32572 0
M  V30 46274 C 4388.91 -0.659 1.56816 0
M  V30 46275 O 4390.1 -0.59211 1.84953 0
M  V30 46276 C 4387.23 -0.655329 3.41061 0
M  V30 46277 C 4386.18 0.111992 4.27853 0
M  V30 46278 C 4385.51 -0.872089 5.2754 0
M  V30 46279 C 4386.81 1.30317 5.05781 0
M  V30 46280 H 4388.5 1.01304 2.81741 0
M  V30 46281 H 4386.05 0.488588 1.35458 0
M  V30 46282 H 4388 -1.0745 4.07471 0
M  V30 46283 H 4386.72 -1.49318 2.90468 0
M  V30 46284 H 4385.38 0.51218 3.63005 0
M  V30 46285 H 4385.03 -1.70506 4.7322 0
M  V30 46286 H 4384.73 -0.363085 5.86477 0
M  V30 46287 H 4386.25 -1.28975 5.96823 0
M  V30 46288 H 4387.67 0.959577 5.65212 0
M  V30 46289 H 4386.07 1.7457 5.74147 0
M  V30 46290 H 4387.14 2.09678 4.37222 0
M  V30 46291 N 4388.48 -1.4787 0.54518 0
M  V30 46292 C 4389.39 -2.33634 -0.212664 0
M  V30 46293 C 4390.4 -1.47443 -0.923931 0
M  V30 46294 O 4391.58 -1.80396 -0.895508 0
M  V30 46295 C 4388.65 -3.23889 -1.23681 0
M  V30 46296 C 4387.71 -4.25963 -0.534267 0
M  V30 46297 C 4386.94 -5.11904 -1.50962 0
M  V30 46298 O 4387.16 -5.00087 -2.74352 0
M  V30 46299 O 4386.1 -5.92835 -1.04069 0
M  V30 46300 H 4389.92 -2.99712 0.490522 0
M  V30 46301 H 4387.51 -1.46234 0.305922 0
M  V30 46302 H 4389.39 -3.79673 -1.82829 0
M  V30 46303 H 4388.06 -2.60453 -1.92213 0
M  V30 46304 H 4386.97 -3.73971 0.0980994 0
M  V30 46305 H 4388.3 -4.92078 0.109386 0
M  V30 46306 N 4389.96 -0.281037 -1.55074 0
M  V30 46307 C 4391.2 0.333385 -1.99331 0
M  V30 46308 C 4391.53 1.55932 -1.1709 0
M  V30 46309 O 4390.8 1.94142 -0.261873 0
M  V30 46310 H 4389.38 0.126172 -0.736267 0
M  V30 46311 H 4392.04 -0.387745 -1.91004 0
M  V30 46312 H 4391.13 0.619184 -3.05896 0
M  V30 46313 N 4391.44 1.57598 -0.00841331 0
M  V30 46314 C 4392.66 1.9562 0.689035 0
M  V30 46315 C 4393.09 0.883811 1.66043 0
M  V30 46316 O 4392.44 -0.157289 1.80616 0
M  V30 46317 C 4392.49 3.32741 1.38982 0
M  V30 46318 O 4391.6 3.2764 2.50452 0
M  V30 46319 H 4390.94 0.638386 0.182646 0
M  V30 46320 H 4393.47 2.045 -0.0641079 0
M  V30 46321 H 4393.48 3.685 1.75134 0
M  V30 46322 H 4392.15 4.10342 0.677634 0
M  V30 46323 H 4390.73 3.03569 2.16565 0
M  V30 46324 N 4392.91 -0.264465 1.55365 0
M  V30 46325 C 4394.16 -0.996398 1.76635 0
M  V30 46326 C 4394.49 -1.8563 0.570543 0
M  V30 46327 O 4393.77 -1.89649 -0.431683 0
M  V30 46328 C 4394.05 -1.87176 3.07631 0
M  V30 46329 C 4393.9 -1.04123 4.37583 0
M  V30 46330 C 4395.22 -2.85737 3.34727 0
M  V30 46331 H 4392.34 -0.360819 0.642634 0
M  V30 46332 H 4394.98 -0.268152 1.88098 0
M  V30 46333 H 4393.13 -2.49268 2.97989 0
M  V30 46334 H 4394.81 -0.440355 4.59193 0
M  V30 46335 H 4393.05 -0.344963 4.32426 0
M  V30 46336 H 4393.72 -1.68711 5.25586 0
M  V30 46337 H 4396.2 -2.33781 3.44218 0
M  V30 46338 H 4395.07 -3.44121 4.27635 0
M  V30 46339 H 4395.33 -3.61302 2.54781 0
M  V30 46340 N 4394.39 -1.48444 -0.529361 0
M  V30 46341 C 4395.81 -1.34578 -0.857957 0
M  V30 46342 C 4396.01 -0.35727 -1.98307 0
M  V30 46343 O 4395.06 0.221291 -2.51528 0
M  V30 46344 C 4396.38 -2.74621 -1.2249 0
M  V30 46345 C 4397.92 -2.83114 -1.33474 0
M  V30 46346 C 4398.4 -4.23861 -1.73511 0
M  V30 46347 N 4399.89 -4.26536 -1.80613 0
M  V30 46348 C 4400.63 -5.32379 -2.12978 0
M  V30 46349 N 4400.12 -6.48499 -2.43763 0
M  V30 46350 N 4401.91 -5.19774 -2.13989 0
M  V30 46351 H 4394.07 -2.11329 0.212999 0
M  V30 46352 H 4396.33 -0.947437 0.0326532 0
M  V30 46353 H 4396.03 -3.48521 -0.471782 0
M  V30 46354 H 4395.91 -3.08185 -2.1749 0
M  V30 46355 H 4398.3 -2.09469 -2.07862 0
M  V30 46356 H 4398.38 -2.53169 -0.365938 0
M  V30 46357 H 4398.02 -4.98022 -0.996838 0
M  V30 46358 H 4397.95 -4.51249 -2.71443 0
M  V30 46359 H 4400.44 -3.42778 -1.59096 0
M  V30 46360 H 4400.75 -7.25002 -2.67566 0
M  V30 46361 H 4399.1 -6.51773 -2.41281 0
M  V30 46362 H 4402.29 -4.28073 -1.89396 0
M  V30 46363 H 4402.46 -6.02362 -2.38881 0
M  V30 46364 N 4395.87 0.778281 -1.37042 0
M  V30 46365 C 4397.12 1.53888 -1.32085 0
M  V30 46366 C 4397.45 1.9396 0.0964704 0
M  V30 46367 O 4396.72 1.63571 1.05236 0
M  V30 46368 C 4397.01 2.80839 -2.25392 0
M  V30 46369 C 4396.86 2.47062 -3.75873 0
M  V30 46370 C 4398.18 3.82733 -2.17264 0
M  V30 46371 H 4395.3 0.558286 -0.48113 0
M  V30 46372 H 4397.94 0.893338 -1.67689 0
M  V30 46373 H 4396.09 3.35924 -1.95159 0
M  V30 46374 H 4397.76 1.97942 -4.16673 0
M  V30 46375 H 4396 1.79849 -3.94762 0
M  V30 46376 H 4396.68 3.37783 -4.36585 0
M  V30 46377 H 4399.15 3.37124 -2.43899 0
M  V30 46378 H 4398.03 4.69293 -2.84702 0
M  V30 46379 H 4398.29 4.26516 -1.16346 0
M  V30 46380 N 4397.35 1.21505 1.00371 0
M  V30 46381 C 4398.59 1.03459 1.74425 0
M  V30 46382 C 4398.93 -0.430697 1.89364 0
M  V30 46383 O 4398.2 -1.31957 1.4289 0
M  V30 46384 C 4398.48 1.73386 3.15609 0
M  V30 46385 C 4398.34 3.27442 3.08386 0
M  V30 46386 C 4399.66 1.47746 4.14559 0
M  V30 46387 H 4396.78 0.377248 0.633129 0
M  V30 46388 H 4399.42 1.49697 1.17007 0
M  V30 46389 H 4397.57 1.34077 3.64631 0
M  V30 46390 H 4399.24 3.76128 2.67068 0
M  V30 46391 H 4397.48 3.57678 2.45456 0
M  V30 46392 H 4398.15 3.71538 4.08244 0
M  V30 46393 H 4400.63 1.81873 3.74248 0
M  V30 46394 H 4399.51 1.99187 5.11484 0
M  V30 46395 H 4399.77 0.407744 4.40216 0
M  V30 46396 N 4398.83 -1.19885 1.023 0
M  V30 46397 C 4400.05 -1.93387 0.735467 0
M  V30 46398 C 4400.47 -1.7515 -0.704825 0
M  V30 46399 O 4399.83 -1.0696 -1.47871 0
M  V30 46400 C 4399.88 -3.4531 1.06974 0
M  V30 46401 O 4399.6 -3.62955 2.45347 0
M  V30 46402 C 4401.1 -4.35945 0.804175 0
M  V30 46403 H 4398.32 -0.614471 0.269568 0
M  V30 46404 H 4400.86 -1.52195 1.36591 0
M  V30 46405 H 4399.02 -3.84357 0.48459 0
M  V30 46406 H 4399.43 -4.56877 2.57611 0
M  V30 46407 H 4400.91 -5.4117 1.08809 0
M  V30 46408 H 4401.38 -4.38421 -0.261536 0
M  V30 46409 H 4401.99 -4.0257 1.37178 0
M  V30 46410 N 4400.3 -0.80008 -1.35781 0
M  V30 46411 C 4401.53 -0.389678 -2.03197 0
M  V30 46412 C 4401.95 0.997318 -1.60309 0
M  V30 46413 O 4401.3 1.64151 -0.797539 0
M  V30 46414 C 4401.35 -0.455981 -3.58613 0
M  V30 46415 O 4401.08 -1.78829 -3.9994 0
M  V30 46416 C 4402.58 -0.0375591 -4.43284 0
M  V30 46417 H 4399.8 -0.159155 -0.651852 0
M  V30 46418 H 4402.34 -1.08189 -1.73538 0
M  V30 46419 H 4400.5 0.187921 -3.86944 0
M  V30 46420 H 4400.91 -1.74653 -4.94567 0
M  V30 46421 H 4402.38 -0.135076 -5.51835 0
M  V30 46422 H 4402.86 1.01635 -4.27278 0
M  V30 46423 H 4403.47 -0.654363 -4.20236 0
M  V30 46424 N 4401.78 1.47579 -0.553014 0
M  V30 46425 C 4403.03 2.02481 -0.0273955 0
M  V30 46426 C 4403.36 1.4278 1.32076 0
M  V30 46427 O 4402.61 0.571459 1.87171 0
M  V30 46428 C 4402.91 3.572 0.119603 0
M  V30 46429 C 4402.58 4.358 -1.15712 0
M  V30 46430 C 4401.24 4.56994 -1.50697 0
M  V30 46431 C 4403.59 4.8116 -2.00335 0
M  V30 46432 C 4400.92 5.20798 -2.7016 0
M  V30 46433 C 4403.27 5.46282 -3.18997 0
M  V30 46434 C 4401.93 5.6571 -3.543 0
M  V30 46435 H 4401.2 0.740932 -0.0100247 0
M  V30 46436 H 4403.85 1.77299 -0.723682 0
M  V30 46437 H 4402.16 3.81351 0.898826 0
M  V30 46438 H 4403.85 3.97326 0.541578 0
M  V30 46439 H 4400.44 4.19579 -0.874709 0
M  V30 46440 H 4404.63 4.64568 -1.74615 0
M  V30 46441 H 4399.88 5.34034 -2.97686 0
M  V30 46442 H 4404.06 5.80394 -3.84859 0
M  V30 46443 H 4401.68 6.14921 -4.46964 0
M  V30 46444 N 4403.26 0.289257 1.54923 0
M  V30 46445 C 4404.54 -0.375965 1.91953 0
M  V30 46446 C 4404.92 -1.72618 1.21517 0
M  V30 46447 O 4404.26 -2.25852 0.346846 0
M  V30 46448 C 4404.47 -0.502257 3.45367 0
M  V30 46449 C 4405.82 -0.778594 4.174 0
M  V30 46450 O 4406.85 -0.586524 3.51338 0
M  V30 46451 O 4405.71 -1.14679 5.34332 0
M  V30 46452 H 4402.8 -0.208138 0.80038 0
M  V30 46453 H 4405.35 0.336452 1.66331 0
M  V30 46454 H 4404.12 0.447392 3.88734 0
M  V30 46455 H 4403.74 -1.2636 3.76987 0
M  V30 46456 N 4404.74 -1.57591 0.016771 0
M  V30 46457 C 4405.96 -1.95982 -0.678651 0
M  V30 46458 C 4406.39 -0.892604 -1.65572 0
M  V30 46459 O 4405.75 0.147708 -1.80697 0
M  V30 46460 C 4405.79 -3.33473 -1.37215 0
M  V30 46461 O 4404.9 -3.28963 -2.48711 0
M  V30 46462 H 4404.24 -0.639345 -0.179258 0
M  V30 46463 H 4406.77 -2.04463 0.0749521 0
M  V30 46464 H 4406.78 -3.69423 -1.73177 0
M  V30 46465 H 4405.45 -4.10696 -0.655863 0
M  V30 46466 H 4404.03 -3.04713 -2.14952 0
M  V30 46467 N 4406.22 0.256222 -1.55503 0
M  V30 46468 C 4407.13 1.33875 -1.92651 0
M  V30 46469 C 4408.14 1.53156 -0.825781 0
M  V30 46470 O 4409.32 1.66959 -1.12635 0
M  V30 46471 C 4406.38 2.67503 -2.20552 0
M  V30 46472 C 4405.44 2.56824 -3.44006 0
M  V30 46473 C 4404.68 3.84079 -3.70566 0
M  V30 46474 O 4404.9 4.85535 -2.99353 0
M  V30 46475 O 4403.83 3.83272 -4.64097 0
M  V30 46476 H 4407.66 1.05364 -2.84837 0
M  V30 46477 H 4405.25 0.456187 -1.42265 0
M  V30 46478 H 4407.13 3.46484 -2.39848 0
M  V30 46479 H 4405.8 2.95765 -1.31547 0
M  V30 46480 H 4404.71 1.76161 -3.30028 0
M  V30 46481 H 4406.04 2.33508 -4.33284 0
M  V30 46482 N 4407.69 1.48722 0.521481 0
M  V30 46483 C 4408.92 1.60615 1.29948 0
M  V30 46484 C 4409.33 0.268793 1.87281 0
M  V30 46485 O 4408.68 -0.753162 1.6755 0
M  V30 46486 C 4408.74 2.60022 2.48252 0
M  V30 46487 C 4408.4 4.04882 2.11943 0
M  V30 46488 C 4409.4 4.9231 1.67115 0
M  V30 46489 C 4407.08 4.50478 2.22205 0
M  V30 46490 C 4409.08 6.23364 1.33025 0
M  V30 46491 C 4406.76 5.81551 1.87728 0
M  V30 46492 C 4407.76 6.67817 1.4321 0
M  V30 46493 O 4407.45 7.9645 1.09189 0
M  V30 46494 H 4407.18 0.54413 0.401122 0
M  V30 46495 H 4409.74 1.95342 0.63489 0
M  V30 46496 H 4407.97 2.20433 3.1772 0
M  V30 46497 H 4409.66 2.61659 3.10305 0
M  V30 46498 H 4410.42 4.58318 1.58649 0
M  V30 46499 H 4406.3 3.83513 2.5581 0
M  V30 46500 H 4409.84 6.90653 0.982057 0
M  V30 46501 H 4405.74 6.15076 1.95837 0
M  V30 46502 H 4406.51 8.09279 1.22514 0
M  V30 46503 N 4409.17 -0.771003 1.37453 0
M  V30 46504 C 4410.41 -1.5426 1.34102 0
M  V30 46505 C 4410.78 -1.91859 -0.0736965 0
M  V30 46506 O 4411.98 -2.67797 -0.231936 0
M  V30 46507 C 4410.25 -2.77318 2.25454 0
M  V30 46508 S 4411.81 -3.67374 2.39961 0
M  V30 46509 H 4408.63 -0.528105 0.476052 0
M  V30 46510 H 4411.23 -0.906573 1.73209 0
M  V30 46511 H 4409.93 -2.47777 3.27162 0
M  V30 46512 H 4409.46 -3.45879 1.87434 0
M  V30 46513 H 4411.48 -4.69329 1.61075 0
M  V30 46514 N 4410.65 -1.22035 -0.997255 0
M  V30 46515 C 4412.07 -0.979371 -1.26018 0
M  V30 46516 C 4412.27 0.32965 -1.98785 0
M  V30 46517 O 4411.32 1.05337 -2.29478 0
M  V30 46518 C 4412.64 -2.17516 -2.07623 0
M  V30 46519 C 4414.18 -2.21825 -2.20823 0
M  V30 46520 C 4414.66 -3.40944 -3.05813 0
M  V30 46521 N 4416.15 -3.41078 -3.134 0
M  V30 46522 C 4416.88 -4.29899 -3.7944 0
M  V30 46523 N 4416.38 -5.28929 -4.47443 0
M  V30 46524 N 4418.17 -4.17686 -3.76158 0
M  V30 46525 H 4410.32 -2.06204 -0.50928 0
M  V30 46526 H 4412.59 -0.903351 -0.28751 0
M  V30 46527 H 4412.29 -3.1242 -1.61513 0
M  V30 46528 H 4412.17 -2.17217 -3.08378 0
M  V30 46529 H 4414.55 -1.27471 -2.66149 0
M  V30 46530 H 4414.64 -2.26165 -1.19512 0
M  V30 46531 H 4414.28 -4.35596 -2.61188 0
M  V30 46532 H 4414.21 -3.33843 -4.07254 0
M  V30 46533 H 4416.7 -2.69415 -2.64998 0
M  V30 46534 H 4417.01 -5.92991 -4.95562 0
M  V30 46535 H 4415.36 -5.32847 -4.46205 0
M  V30 46536 H 4418.55 -3.39575 -3.2219 0
M  V30 46537 H 4418.72 -4.87113 -4.27346 0
M  V30 46538 N 4412.13 1.19341 -1.02934 0
M  V30 46539 C 4413.08 2.2047 -0.581118 0
M  V30 46540 C 4414.06 1.56579 0.370387 0
M  V30 46541 O 4415.25 1.75963 0.191282 0
M  V30 46542 C 4412.38 3.43236 0.0661853 0
M  V30 46543 C 4411.47 4.1427 -0.907788 0
M  V30 46544 N 4411.86 4.61485 -2.07039 0
M  V30 46545 C 4410.16 4.39963 -0.731332 0
M  V30 46546 C 4410.86 5.1604 -2.68472 0
M  V30 46547 N 4409.84 5.06868 -1.96432 0
M  V30 46548 H 4413.64 2.54654 -1.46726 0
M  V30 46549 H 4411.15 1.3542 -0.896392 0
M  V30 46550 H 4413.15 4.14929 0.404922 0
M  V30 46551 H 4411.81 3.10553 0.948009 0
M  V30 46552 H 4412.82 4.56296 -2.44979 0
M  V30 46553 H 4409.5 4.17377 0.10136 0
M  V30 46554 H 4410.89 5.62857 -3.66935 0
M  V30 46555 N 4413.61 0.80727 1.35355 0
M  V30 46556 C 4414.85 0.387192 1.98356 0
M  V30 46557 C 4415.18 -1.04937 1.64357 0
M  V30 46558 O 4414.45 -1.72611 0.926399 0
M  V30 46559 H 4413.03 0.14018 0.733729 0
M  V30 46560 H 4415.69 1.03326 1.65257 0
M  V30 46561 H 4414.78 0.49346 3.08174 0
M  V30 46562 N 4415.08 -1.47283 0.560833 0
M  V30 46563 C 4416.31 -2.06855 0.0430989 0
M  V30 46564 C 4416.73 -1.41296 -1.25224 0
M  V30 46565 O 4416.08 -0.51071 -1.75208 0
M  V30 46566 C 4416.14 -3.61179 -0.152391 0
M  V30 46567 O 4415.86 -4.24281 1.09165 0
M  V30 46568 C 4417.36 -4.37626 -0.706991 0
M  V30 46569 H 4414.58 -0.669317 0.0474887 0
M  V30 46570 H 4417.12 -1.89235 0.775276 0
M  V30 46571 H 4415.28 -3.78301 -0.83471 0
M  V30 46572 H 4415.69 -5.16865 0.891664 0
M  V30 46573 H 4417.16 -5.46273 -0.793052 0
M  V30 46574 H 4417.64 -4.04158 -1.71909 0
M  V30 46575 H 4418.25 -4.25257 -0.0602532 0
M  V30 46576 N 4416.56 -0.297469 -1.54767 0
M  V30 46577 C 4417.8 0.313758 -2.01978 0
M  V30 46578 C 4418.17 1.51362 -1.18125 0
M  V30 46579 O 4419.37 2.19598 -1.55017 0
M  V30 46580 C 4417.64 0.664841 -3.51162 0
M  V30 46581 S 4419.2 1.25943 -4.20338 0
M  V30 46582 H 4416.02 0.0964766 -0.704424 0
M  V30 46583 H 4418.62 -0.424518 -1.90835 0
M  V30 46584 H 4417.32 -0.216954 -4.09826 0
M  V30 46585 H 4416.85 1.434 -3.66333 0
M  V30 46586 H 4418.87 2.54736 -4.25822 0
M  V30 46587 N 4418.04 1.5758 -0.0251282 0
M  V30 46588 C 4418.95 2.13433 0.97383 0
M  V30 46589 C 4419.97 1.08561 1.3598 0
M  V30 46590 O 4421.14 1.40597 1.44202 0
M  V30 46591 C 4418.21 2.64711 2.23895 0
M  V30 46592 C 4417.27 3.84283 1.91377 0
M  V30 46593 C 4416.5 4.33106 3.11857 0
M  V30 46594 O 4416.72 3.81122 4.24384 0
M  V30 46595 O 4415.66 5.24995 2.94388 0
M  V30 46596 H 4419.48 2.99059 0.528931 0
M  V30 46597 H 4417.07 1.48119 0.195236 0
M  V30 46598 H 4418.95 2.97779 2.9817 0
M  V30 46599 H 4417.63 1.82171 2.67573 0
M  V30 46600 H 4416.53 3.56147 1.14498 0
M  V30 46601 H 4417.87 4.67974 1.52517 0
M  V30 46602 N 4419.52 -0.247971 1.55637 0
M  V30 46603 C 4420.93 -0.596431 1.48037 0
M  V30 46604 C 4421.13 -1.88384 0.715106 0
M  V30 46605 O 4420.19 -2.51318 0.244032 0
M  V30 46606 C 4421.5 -0.700155 2.92435 0
M  V30 46607 C 4423.05 -0.792553 3.028 0
M  V30 46608 C 4423.53 -0.927847 4.48503 0
M  V30 46609 N 4425.02 -0.992744 4.52437 0
M  V30 46610 C 4425.75 -1.11667 5.62421 0
M  V30 46611 N 4425.25 -1.20621 6.82219 0
M  V30 46612 N 4427.04 -1.14975 5.50216 0
M  V30 46613 H 4419.19 0.597181 2.03832 0
M  V30 46614 H 4421.46 0.205958 0.925357 0
M  V30 46615 H 4421.16 0.175781 3.5126 0
M  V30 46616 H 4421.04 -1.57243 3.42862 0
M  V30 46617 H 4423.42 -1.65894 2.44056 0
M  V30 46618 H 4423.5 0.104852 2.55585 0
M  V30 46619 H 4423.15 -0.0660186 5.07857 0
M  V30 46620 H 4423.08 -1.84028 4.93398 0
M  V30 46621 H 4425.57 -0.934935 3.66152 0
M  V30 46622 H 4425.88 -1.29981 7.6179 0
M  V30 46623 H 4424.23 -1.17581 6.84982 0
M  V30 46624 H 4427.42 -1.07627 4.55559 0
M  V30 46625 H 4427.59 -1.24288 6.35969 0
M  V30 46626 N 4421 -1.48997 -0.513587 0
M  V30 46627 C 4422.22 -1.61796 -1.29756 0
M  V30 46628 C 4422.65 -0.284541 -1.85935 0
M  V30 46629 O 4422.01 0.746127 -1.65235 0
M  V30 46630 C 4422.05 -2.68001 -2.41263 0
M  V30 46631 O 4421.16 -2.263 -3.44764 0
M  V30 46632 H 4420.5 -0.541976 -0.383611 0
M  V30 46633 H 4423.03 -1.95099 -0.616239 0
M  V30 46634 H 4423.04 -2.89782 -2.87211 0
M  V30 46635 H 4421.71 -3.64799 -1.99737 0
M  V30 46636 H 4420.29 -2.14799 -3.04821 0
M  V30 46637 N 4422.48 0.763702 -1.3786 0
M  V30 46638 C 4423.39 1.90812 -1.36485 0
M  V30 46639 C 4424.4 1.71996 -0.263308 0
M  V30 46640 O 4425.58 1.95094 -0.500048 0
M  V30 46641 C 4422.64 3.26046 -1.17876 0
M  V30 46642 C 4421.7 3.57459 -2.37742 0
M  V30 46643 C 4420.94 4.86241 -2.20012 0
M  V30 46644 O 4421.16 5.5788 -1.18855 0
M  V30 46645 O 4420.09 5.169 -3.08379 0
M  V30 46646 H 4423.92 1.94925 -2.32891 0
M  V30 46647 H 4421.5 0.907577 -1.18673 0
M  V30 46648 H 4423.39 4.0692 -1.09518 0
M  V30 46649 H 4422.06 3.22768 -0.245486 0
M  V30 46650 H 4420.97 2.76788 -2.51673 0
M  V30 46651 H 4422.3 3.65489 -3.29665 0
M  V30 46652 N 4423.95 1.22562 0.990769 0
M  V30 46653 C 4424.92 0.998935 2.06286 0
M  V30 46654 C 4425.92 -0.0354269 1.60761 0
M  V30 46655 O 4427.11 0.203292 1.7301 0
M  V30 46656 C 4424.24 0.509322 3.37074 0
M  V30 46657 H 4425.43 1.95022 2.2783 0
M  V30 46658 H 4422.98 1.04461 1.16266 0
M  V30 46659 H 4423.72 -0.446222 3.21215 0
M  V30 46660 H 4423.5 1.2556 3.71453 0
M  V30 46661 H 4424.99 0.371035 4.15948 0
M  V30 46662 N 4425.43 -1.18793 1.03566 0
M  V30 46663 C 4426.68 -1.88275 0.734635 0
M  V30 46664 C 4427 -1.80433 -0.739522 0
M  V30 46665 O 4426.27 -1.2193 -1.53329 0
M  V30 46666 H 4424.85 -0.696981 0.268749 0
M  V30 46667 H 4427.51 -1.44187 1.31134 0
M  V30 46668 H 4426.61 -2.94439 1.03499 0
M  V30 46669 N 4426.91 -0.814437 -1.34925 0
M  V30 46670 C 4428.16 -0.399083 -1.98835 0
M  V30 46671 C 4428.49 1.03308 -1.64442 0
M  V30 46672 O 4427.76 1.71808 -0.911719 0
M  V30 46673 C 4428.05 -0.591754 -3.55205 0
M  V30 46674 C 4427.9 -2.06942 -3.99369 0
M  V30 46675 C 4429.22 -0.0223537 -4.40094 0
M  V30 46676 H 4426.34 -0.146477 -0.722297 0
M  V30 46677 H 4428.98 -1.02543 -1.59953 0
M  V30 46678 H 4427.13 -0.0585807 -3.88456 0
M  V30 46679 H 4428.8 -2.66557 -3.7649 0
M  V30 46680 H 4427.04 -2.56299 -3.4999 0
M  V30 46681 H 4427.72 -2.15508 -5.08193 0
M  V30 46682 H 4430.19 -0.477789 -4.13348 0
M  V30 46683 H 4429.07 -0.187025 -5.48581 0
M  V30 46684 H 4429.33 1.072 -4.28906 0
M  V30 46685 N 4428.39 1.46984 -0.568636 0
M  V30 46686 C 4429.63 2.04335 -0.0513717 0
M  V30 46687 C 4429.99 1.43219 1.27876 0
M  V30 46688 O 4431.19 1.91685 1.88441 0
M  V30 46689 C 4429.46 3.57389 0.0281072 0
M  V30 46690 S 4431.02 4.36057 0.489838 0
M  V30 46691 H 4427.84 0.710339 -0.0306599 0
M  V30 46692 H 4430.44 1.80209 -0.757954 0
M  V30 46693 H 4429.15 3.99392 -0.944151 0
M  V30 46694 H 4428.68 3.8603 0.757894 0
M  V30 46695 H 4430.69 4.64416 1.74736 0
M  V30 46696 N 4429.87 0.305673 1.54607 0
M  V30 46697 C 4431.11 -0.302676 2.00529 0
M  V30 46698 C 4431.44 -1.53179 1.19372 0
M  V30 46699 O 4430.72 -1.92597 0.271389 0
M  V30 46700 C 4431 -0.654632 3.541 0
M  V30 46701 C 4430.86 0.58395 4.45993 0
M  V30 46702 C 4432.17 -1.47932 4.14493 0
M  V30 46703 H 4429.29 -0.108538 0.728964 0
M  V30 46704 H 4431.94 0.4187 1.85329 0
M  V30 46705 H 4430.09 -1.26922 3.67182 0
M  V30 46706 H 4431.76 1.22239 4.44809 0
M  V30 46707 H 4430 1.2163 4.164 0
M  V30 46708 H 4430.67 0.293481 5.51219 0
M  V30 46709 H 4433.15 -0.959988 4.04875 0
M  V30 46710 H 4432.02 -1.69436 5.22094 0
M  V30 46711 H 4432.28 -2.46998 3.66667 0
M  V30 46712 N 4431.34 -1.57564 0.0334847 0
M  V30 46713 C 4432.57 -1.96691 -0.657826 0
M  V30 46714 C 4432.99 -0.910115 -1.64616 0
M  V30 46715 O 4432.35 0.128534 -1.80844 0
M  V30 46716 C 4432.4 -3.3491 -1.33671 0
M  V30 46717 O 4431.5 -3.31583 -2.45208 0
M  V30 46718 H 4430.84 -0.641211 -0.172467 0
M  V30 46719 H 4433.37 -2.04372 0.0966339 0
M  V30 46720 H 4433.38 -3.71239 -1.69249 0
M  V30 46721 H 4432.06 -4.11369 -0.612266 0
M  V30 46722 H 4430.64 -3.06976 -2.11708 0
M  V30 46723 N 4432.82 0.239714 -1.55766 0
M  V30 46724 C 4434.05 0.984106 -1.81997 0
M  V30 46725 C 4434.46 1.78668 -0.610187 0
M  V30 46726 O 4433.82 1.77573 0.421209 0
M  V30 46727 C 4433.87 1.91624 -3.06533 0
M  V30 46728 O 4433.59 1.14614 -4.22842 0
M  V30 46729 C 4435.09 2.77603 -3.45617 0
M  V30 46730 H 4432.31 0.289258 -0.605451 0
M  V30 46731 H 4434.86 0.260428 -2.02835 0
M  V30 46732 H 4433.01 2.5941 -2.87724 0
M  V30 46733 H 4433.43 1.77727 -4.93471 0
M  V30 46734 H 4434.9 3.38744 -4.3584 0
M  V30 46735 H 4435.38 3.49081 -2.66532 0
M  V30 46736 H 4435.98 2.15258 -3.66802 0
M  V30 46737 N 4434.3 1.49267 0.505678 0
M  V30 46738 C 4435.52 1.62482 1.28896 0
M  V30 46739 C 4435.95 0.294397 1.85782 0
M  V30 46740 O 4435.31 -0.737354 1.65628 0
M  V30 46741 C 4435.36 2.69277 2.39838 0
M  V30 46742 O 4434.46 2.28125 3.43559 0
M  V30 46743 H 4433.8 0.544003 0.380732 0
M  V30 46744 H 4436.33 1.95423 0.605883 0
M  V30 46745 H 4436.34 2.91301 2.8567 0
M  V30 46746 H 4435.02 3.65853 1.978 0
M  V30 46747 H 4433.59 2.16412 3.03678 0
M  V30 46748 N 4435.78 -0.756381 1.38263 0
M  V30 46749 C 4437.03 -1.51243 1.34052 0
M  V30 46750 C 4437.35 -1.94875 -0.0697687 0
M  V30 46751 O 4436.62 -1.6744 -1.0169 0
M  V30 46752 H 4435.2 -0.561001 0.493242 0
M  V30 46753 H 4437.86 -0.899286 1.72913 0
M  V30 46754 H 4436.96 -2.40465 1.98955 0
M  V30 46755 N 4437.26 -1.23086 -0.984255 0
M  V30 46756 C 4438.67 -0.992681 -1.24972 0
M  V30 46757 C 4438.87 0.308548 -1.99124 0
M  V30 46758 O 4437.93 1.02897 -2.30583 0
M  V30 46759 C 4439.24 -2.19706 -2.05304 0
M  V30 46760 C 4440.79 -2.24155 -2.18457 0
M  V30 46761 C 4441.26 -3.44168 -3.02179 0
M  V30 46762 N 4442.76 -3.44383 -3.09765 0
M  V30 46763 C 4443.49 -4.33899 -3.74859 0
M  V30 46764 N 4442.99 -5.33645 -4.41808 0
M  V30 46765 N 4444.78 -4.21652 -3.71707 0
M  V30 46766 H 4436.93 -2.06733 -0.487381 0
M  V30 46767 H 4439.19 -0.906349 -0.277912 0
M  V30 46768 H 4438.9 -3.14116 -1.5819 0
M  V30 46769 H 4438.77 -2.20475 -3.06056 0
M  V30 46770 H 4441.16 -1.30287 -2.64782 0
M  V30 46771 H 4441.24 -2.27419 -1.17107 0
M  V30 46772 H 4440.89 -4.38341 -2.56553 0
M  V30 46773 H 4440.82 -3.38144 -4.03691 0
M  V30 46774 H 4443.31 -2.72211 -2.62126 0
M  V30 46775 H 4443.62 -5.98214 -4.89245 0
M  V30 46776 H 4441.96 -5.37549 -4.40529 0
M  V30 46777 H 4445.16 -3.42973 -3.1857 0
M  V30 46778 H 4445.33 -4.91618 -4.22156 0
M  V30 46779 N 4438.73 1.18243 -1.04194 0
M  V30 46780 C 4439.98 1.8879 -0.756957 0
M  V30 46781 C 4440.34 1.78911 0.707704 0
M  V30 46782 O 4439.63 1.17945 1.50995 0
M  V30 46783 C 4439.82 3.38078 -1.15923 0
M  V30 46784 C 4439.65 3.62487 -2.66146 0
M  V30 46785 C 4438.42 3.79779 -3.33311 0
M  V30 46786 C 4440.62 3.62963 -3.64365 0
M  V30 46787 N 4438.6 3.91939 -4.72501 0
M  V30 46788 C 4439.97 3.80852 -4.89236 0
M  V30 46789 C 4442.03 3.46058 -3.57978 0
M  V30 46790 C 4440.73 3.83586 -6.08485 0
M  V30 46791 C 4442.76 3.50076 -4.76656 0
M  V30 46792 C 4442.12 3.68463 -6.00345 0
M  V30 46793 H 4438.22 0.709394 -0.329065 0
M  V30 46794 H 4440.8 1.42018 -1.33188 0
M  V30 46795 H 4438.97 3.83542 -0.612373 0
M  V30 46796 H 4440.7 3.96199 -0.825129 0
M  V30 46797 H 4437.46 3.79214 -2.83715 0
M  V30 46798 H 4437.88 4.01837 -5.44845 0
M  V30 46799 H 4442.53 3.30788 -2.63323 0
M  V30 46800 H 4440.24 3.97645 -7.03494 0
M  V30 46801 H 4443.83 3.38269 -4.73356 0
M  V30 46802 H 4442.71 3.71464 -6.90641 0
M  V30 46803 N 4440.21 0.821581 1.34491 0
M  V30 46804 C 4441.46 0.409622 1.9862 0
M  V30 46805 C 4441.79 -1.02434 1.64987 0
M  V30 46806 O 4441.07 -1.71322 0.920818 0
M  V30 46807 C 4441.35 0.610583 3.54886 0
M  V30 46808 C 4441.2 2.09057 3.98265 0
M  V30 46809 C 4442.52 0.0456926 4.40076 0
M  V30 46810 H 4439.64 0.150305 0.721511 0
M  V30 46811 H 4442.28 1.0339 1.59407 0
M  V30 46812 H 4440.43 0.0791806 3.88419 0
M  V30 46813 H 4442.1 2.6855 3.75071 0
M  V30 46814 H 4440.35 2.58152 3.48626 0
M  V30 46815 H 4441.02 2.182 5.07043 0
M  V30 46816 H 4443.49 0.499703 4.13089 0
M  V30 46817 H 4442.37 0.216115 5.48474 0
M  V30 46818 H 4442.63 -1.04924 4.29469 0
M  V30 46819 N 4441.69 -1.4668 0.576422 0
M  V30 46820 C 4442.62 -2.33028 -0.148315 0
M  V30 46821 C 4443.6 -1.44965 -0.889905 0
M  V30 46822 O 4444.79 -1.73792 -0.866601 0
M  V30 46823 C 4441.92 -3.27121 -1.16658 0
M  V30 46824 C 4440.87 -4.24577 -0.540237 0
M  V30 46825 C 4440.2 -5.08132 -1.66452 0
M  V30 46826 C 4441.5 -5.1972 0.518514 0
M  V30 46827 H 4443.19 -2.93873 0.572612 0
M  V30 46828 H 4440.74 -1.41314 0.276818 0
M  V30 46829 H 4442.69 -3.8638 -1.68191 0
M  V30 46830 H 4441.41 -2.6437 -1.9177 0
M  V30 46831 H 4440.07 -3.66571 -0.046048 0
M  V30 46832 H 4439.72 -4.41771 -2.40516 0
M  V30 46833 H 4439.42 -5.74126 -1.25111 0
M  V30 46834 H 4440.94 -5.70254 -2.18273 0
M  V30 46835 H 4442.36 -5.73232 0.0885074 0
M  V30 46836 H 4440.76 -5.94023 0.851888 0
M  V30 46837 H 4441.83 -4.64032 1.40719 0
M  V30 46838 N 4443.17 -0.313868 -1.54443 0
M  V30 46839 C 4444.12 0.572091 -2.25455 0
M  V30 46840 C 4445.11 1.12652 -1.26514 0
M  V30 46841 O 4446.32 1.07568 -1.44323 0
M  V30 46842 H 4442.69 0.203121 -0.724048 0
M  V30 46843 H 4444.66 -0.0492193 -2.98359 0
M  V30 46844 C 4443.41 1.72616 -3.01826 0
M  V30 46845 H 4442.73 1.30877 -3.77771 0
M  V30 46846 H 4444.17 2.32187 -3.54775 0
M  V30 46847 C 4442.63 2.63799 -2.09551 0
M  V30 46848 O 4443.16 3.6525 -1.67198 0
M  V30 46849 N 4441.37 2.31817 -1.7524 0
M  V30 46850 H 4440.92 1.49361 -2.09879 0
M  V30 46851 H 4440.87 2.93091 -1.13777 0
M  V30 46852 N 4444.65 1.57544 -0.0418402 0
M  V30 46853 C 4445.59 2.12152 0.953648 0
M  V30 46854 C 4446.59 1.05108 1.32848 0
M  V30 46855 O 4447.79 1.23529 1.30923 0
M  V30 46856 H 4444.17 0.677969 0.325365 0
M  V30 46857 H 4446.14 2.94709 0.467888 0
M  V30 46858 C 4444.89 2.67397 2.22247 0
M  V30 46859 H 4444.21 3.4942 1.94282 0
M  V30 46860 H 4445.65 3.09238 2.90083 0
M  V30 46861 C 4444.11 1.60734 2.96085 0
M  V30 46862 O 4444.64 1.01462 3.88675 0
M  V30 46863 N 4442.85 1.32475 2.58648 0
M  V30 46864 H 4442.39 1.80862 1.8343 0
M  V30 46865 H 4442.35 0.613359 3.08359 0
M  V30 46866 N 4446.12 -0.23145 1.55891 0
M  V30 46867 C 4447.4 -0.981036 1.69219 0
M  V30 46868 C 4447.78 -2.02797 0.586235 0
M  V30 46869 O 4447.13 -2.24825 -0.408174 0
M  V30 46870 C 4447.34 -1.60043 3.10141 0
M  V30 46871 C 4448.69 -2.09645 3.69235 0
M  V30 46872 O 4449.71 -1.69956 3.13039 0
M  V30 46873 O 4448.57 -2.82564 4.67782 0
M  V30 46874 H 4445.66 -0.457628 0.688843 0
M  V30 46875 H 4448.21 -0.224014 1.68215 0
M  V30 46876 H 4446.98 -0.843971 3.8209 0
M  V30 46877 H 4446.61 -2.42325 3.15221 0
M  V30 46878 N 4447.6 -1.49533 -0.497755 0
M  V30 46879 C 4448.83 -1.62662 -1.27376 0
M  V30 46880 C 4449.24 -0.298554 -1.8683 0
M  V30 46881 O 4448.58 0.726411 -1.68727 0
M  V30 46882 C 4448.65 -2.63938 -2.44084 0
M  V30 46883 C 4448.31 -4.08202 -2.05475 0
M  V30 46884 C 4449.31 -4.94906 -1.59261 0
M  V30 46885 C 4446.99 -4.53956 -2.1501 0
M  V30 46886 C 4448.99 -6.25402 -1.23091 0
M  V30 46887 C 4446.67 -5.84464 -1.78452 0
M  V30 46888 C 4447.67 -6.70011 -1.32568 0
M  V30 46889 O 4447.36 -7.98086 -0.965047 0
M  V30 46890 H 4447.09 -0.550443 -0.392414 0
M  V30 46891 H 4449.64 -1.96327 -0.603732 0
M  V30 46892 H 4447.87 -2.2546 -3.14173 0
M  V30 46893 H 4449.56 -2.66562 -3.06103 0
M  V30 46894 H 4450.33 -4.60784 -1.51338 0
M  V30 46895 H 4446.21 -3.87534 -2.49676 0
M  V30 46896 H 4449.75 -6.92128 -0.872056 0
M  V30 46897 H 4445.65 -6.18114 -1.86026 0
M  V30 46898 H 4446.42 -8.11126 -1.09623 0
M  V30 46899 N 4449.08 0.749038 -1.38662 0
M  V30 46900 C 4450.31 1.53606 -1.38162 0
M  V30 46901 C 4450.72 1.89177 0.029293 0
M  V30 46902 O 4450.06 1.5361 1.00746 0
M  V30 46903 C 4450.12 2.8608 -2.17712 0
M  V30 46904 C 4449.79 2.73021 -3.66481 0
M  V30 46905 C 4450.78 2.4251 -4.59875 0
M  V30 46906 C 4448.47 2.90331 -4.09894 0
M  V30 46907 C 4450.46 2.29471 -5.94661 0
M  V30 46908 C 4448.15 2.76911 -5.4476 0
M  V30 46909 C 4449.15 2.46524 -6.36957 0
M  V30 46910 O 4448.84 2.33172 -7.69341 0
M  V30 46911 H 4448.57 0.481757 -0.474222 0
M  V30 46912 H 4451.12 0.9344 -1.82916 0
M  V30 46913 H 4449.35 3.48452 -1.67685 0
M  V30 46914 H 4451.04 3.47618 -2.09563 0
M  V30 46915 H 4451.81 2.28801 -4.27639 0
M  V30 46916 H 4447.69 3.12978 -3.38475 0
M  V30 46917 H 4451.23 2.05675 -6.66591 0
M  V30 46918 H 4447.13 2.90195 -5.76591 0
M  V30 46919 H 4447.9 2.48349 -7.79913 0
M  V30 46920 N 4450.56 1.23606 0.977714 0
M  V30 46921 C 4451.98 0.999295 1.24444 0
M  V30 46922 C 4452.18 -0.297983 1.99284 0
M  V30 46923 O 4451.23 -1.01673 2.31125 0
M  V30 46924 C 4452.54 2.20791 2.04136 0
M  V30 46925 C 4454.09 2.2531 2.17266 0
M  V30 46926 C 4454.57 3.45766 3.0035 0
M  V30 46927 N 4456.06 3.46021 3.07934 0
M  V30 46928 C 4456.79 4.35881 3.72553 0
M  V30 46929 N 4456.29 5.35981 4.38972 0
M  V30 46930 N 4458.08 4.23618 3.69465 0
M  V30 46931 H 4450.23 2.06988 0.47641 0
M  V30 46932 H 4452.5 0.90781 0.273102 0
M  V30 46933 H 4452.2 3.1495 1.56522 0
M  V30 46934 H 4452.08 2.22095 3.04883 0
M  V30 46935 H 4454.46 1.31689 2.64087 0
M  V30 46936 H 4454.54 2.28037 1.15899 0
M  V30 46937 H 4454.19 4.39696 2.54225 0
M  V30 46938 H 4454.12 3.4028 4.01892 0
M  V30 46939 H 4456.61 2.73597 2.60678 0
M  V30 46940 H 4456.92 6.008 4.86065 0
M  V30 46941 H 4455.27 5.39878 4.37672 0
M  V30 46942 H 4458.46 3.44658 3.16747 0
M  V30 46943 H 4458.63 4.9385 4.19542 0
M  V30 46944 N 4452.04 -1.17688 1.0482 0
M  V30 46945 C 4453.26 -1.92325 0.776274 0
M  V30 46946 C 4453.69 -1.76084 -0.66152 0
M  V30 46947 O 4453.05 -1.07605 -1.45914 0
M  V30 46948 C 4453.09 -3.41535 1.15699 0
M  V30 46949 O 4452.2 -4.11401 0.28692 0
M  V30 46950 H 4451.54 -0.599725 0.285002 0
M  V30 46951 H 4454.07 -1.49196 1.40006 0
M  V30 46952 H 4454.08 -3.92265 1.12216 0
M  V30 46953 H 4452.75 -3.52676 2.20437 0
M  V30 46954 H 4451.33 -3.70938 0.382034 0
M  V30 46955 N 4453.52 -0.828702 -1.34053 0
M  V30 46956 C 4454.45 -0.269524 -2.31939 0
M  V30 46957 C 4455.43 0.617192 -1.58508 0
M  V30 46958 O 4456.61 0.542865 -1.86458 0
M  V30 46959 C 4453.74 0.564672 -3.42679 0
M  V30 46960 C 4452.7 -0.225391 -4.27406 0
M  V30 46961 C 4452.02 0.731914 -5.29667 0
M  V30 46962 C 4453.32 -1.43681 -5.02149 0
M  V30 46963 H 4455.02 -1.08738 -2.78956 0
M  V30 46964 H 4452.56 -0.52433 -1.34115 0
M  V30 46965 H 4454.51 0.966089 -4.10176 0
M  V30 46966 H 4453.24 1.41564 -2.94325 0
M  V30 46967 H 4451.9 -0.608244 -3.61519 0
M  V30 46968 H 4451.55 1.579 -4.77574 0
M  V30 46969 H 4451.25 0.207463 -5.87234 0
M  V30 46970 H 4452.77 1.13106 -6.00033 0
M  V30 46971 H 4454.18 -1.1091 -5.6247 0
M  V30 46972 H 4452.58 -1.89731 -5.69317 0
M  V30 46973 H 4453.65 -2.21197 -4.31509 0
M  V30 46974 N 4454.99 1.46373 -0.584193 0
M  V30 46975 C 4456.4 1.8603 -0.158024 0
M  V30 46976 C 4456.76 1.48758 1.27928 0
M  V30 46977 O 4455.88 0.903167 1.96652 0
M  V30 46978 C 4456.48 3.37641 -0.280011 0
M  V30 46979 C 4455.03 3.76289 0.0912977 0
M  V30 46980 C 4454.18 2.70388 -0.615273 0
M  V30 46981 H 4457.13 1.37506 -0.792322 0
M  V30 46982 H 4457.15 3.77277 0.494231 0
M  V30 46983 H 4456.67 3.64738 -1.3262 0
M  V30 46984 H 4454.77 3.5481 1.13756 0
M  V30 46985 H 4454.88 4.78245 -0.286054 0
M  V30 46986 H 4453.24 2.5464 -0.0553728 0
M  V30 46987 H 4454.03 3.00324 -1.66314 0
M  V30 46988 N 4456.47 0.322054 1.54274 0
M  V30 46989 C 4457.72 -0.280419 2.00145 0
M  V30 46990 C 4458.04 -1.52773 1.21183 0
M  V30 46991 O 4457.31 -1.93379 0.313255 0
M  V30 46992 H 4455.89 -0.106606 0.739354 0
M  V30 46993 H 4458.55 0.43825 1.89909 0
M  V30 46994 H 4457.65 -0.537863 3.0743 0
M  V30 46995 N 4457.95 -1.5752 0.0501946 0
M  V30 46996 C 4459.2 -1.92938 -0.62473 0
M  V30 46997 C 4459.53 -0.928745 -1.70552 0
M  V30 46998 O 4458.8 0.0454095 -1.94447 0
M  V30 46999 C 4459.09 -3.38742 -1.22173 0
M  V30 47000 C 4458.94 -4.49553 -0.14906 0
M  V30 47001 C 4460.26 -3.8492 -2.13365 0
M  V30 47002 H 4457.38 -0.701612 -0.225632 0
M  V30 47003 H 4460.02 -1.89671 0.11176 0
M  V30 47004 H 4458.17 -3.41656 -1.84941 0
M  V30 47005 H 4459.84 -4.58766 0.482809 0
M  V30 47006 H 4458.08 -4.30636 0.522993 0
M  V30 47007 H 4458.76 -5.48655 -0.606773 0
M  V30 47008 H 4461.23 -3.83875 -1.60558 0
M  V30 47009 H 4460.11 -4.87593 -2.5208 0
M  V30 47010 H 4460.37 -3.21622 -3.03335 0
M  V30 47011 N 4459.43 0.223179 -1.56012 0
M  V30 47012 C 4460.67 0.947812 -1.78949 0
M  V30 47013 C 4461 1.84398 -0.618673 0
M  V30 47014 O 4460.26 1.9163 0.397025 0
M  V30 47015 C 4460.56 1.81937 -3.07626 0
M  V30 47016 C 4460.22 1.07657 -4.37859 0
M  V30 47017 C 4458.88 0.871378 -4.73245 0
M  V30 47018 C 4461.24 0.551899 -5.1827 0
M  V30 47019 C 4458.56 0.129585 -5.86557 0
M  V30 47020 C 4460.92 -0.176543 -6.32354 0
M  V30 47021 C 4459.58 -0.393004 -6.66342 0
M  V30 47022 H 4458.85 0.346829 -0.654821 0
M  V30 47023 H 4461.5 0.216104 -1.90277 0
M  V30 47024 H 4459.8 2.61889 -2.91413 0
M  V30 47025 H 4461.5 2.38216 -3.22575 0
M  V30 47026 H 4458.09 1.24648 -4.10074 0
M  V30 47027 H 4462.27 0.697903 -4.91368 0
M  V30 47028 H 4457.53 -0.0483679 -6.11381 0
M  V30 47029 H 4461.7 -0.590611 -6.93891 0
M  V30 47030 H 4459.33 -0.969731 -7.5399 0
M  V30 47031 N 4460.91 1.49795 0.489818 0
M  V30 47032 C 4462.15 1.6147 1.25326 0
M  V30 47033 C 4462.51 0.299755 1.89646 0
M  V30 47034 O 4463.71 0.291781 2.67212 0
M  V30 47035 C 4461.98 2.74952 2.28333 0
M  V30 47036 S 4463.54 3.06648 3.13867 0
M  V30 47037 H 4460.36 0.569426 0.425764 0
M  V30 47038 H 4462.96 1.87502 0.553475 0
M  V30 47039 H 4461.66 3.69 1.7963 0
M  V30 47040 H 4461.2 2.50948 3.02966 0
M  V30 47041 H 4463.21 2.4903 4.29184 0
M  V30 47042 N 4462.38 -0.741673 1.39057 0
M  V30 47043 C 4463.63 -1.49813 1.35649 0
M  V30 47044 C 4463.95 -1.94938 -0.0490957 0
M  V30 47045 O 4463.22 -1.68509 -0.999082 0
M  V30 47046 H 4461.8 -0.555738 0.499164 0
M  V30 47047 H 4464.46 -0.880896 1.73857 0
M  V30 47048 H 4463.56 -2.38341 2.01494 0
M  V30 47049 N 4463.86 -1.24123 -0.971145 0
M  V30 47050 C 4465.11 -1.08047 -1.71621 0
M  V30 47051 C 4465.44 0.38034 -1.90439 0
M  V30 47052 O 4464.72 1.28122 -1.46339 0
M  V30 47053 C 4465 -1.81693 -3.10901 0
M  V30 47054 C 4464.85 -3.35503 -2.99596 0
M  V30 47055 C 4466.17 -1.58686 -4.10496 0
M  V30 47056 H 4463.29 -0.393902 -0.622905 0
M  V30 47057 H 4465.93 -1.52747 -1.12997 0
M  V30 47058 H 4464.08 -1.43697 -3.60948 0
M  V30 47059 H 4465.75 -3.83077 -2.57002 0
M  V30 47060 H 4464 -3.64061 -2.35886 0
M  V30 47061 H 4464.67 -3.82231 -3.9825 0
M  V30 47062 H 4467.14 -1.91731 -3.69294 0
M  V30 47063 H 4466.02 -2.12678 -5.06023 0
M  V30 47064 H 4466.28 -0.524316 -4.3898 0
M  V30 47065 N 4465.34 1.17131 -1.05443 0
M  V30 47066 C 4466.62 1.83408 -0.679763 0
M  V30 47067 C 4467 1.93683 0.839658 0
M  V30 47068 O 4466.35 1.47331 1.74659 0
M  V30 47069 C 4466.56 3.20913 -1.3717 0
M  V30 47070 C 4467.9 3.9679 -1.51137 0
M  V30 47071 O 4468.93 3.30401 -1.33091 0
M  V30 47072 O 4467.79 5.15772 -1.8067 0
M  V30 47073 H 4464.88 0.791532 -0.239597 0
M  V30 47074 H 4467.43 1.24406 -1.15417 0
M  V30 47075 H 4466.2 3.08419 -2.40818 0
M  V30 47076 H 4465.82 3.87584 -0.88681 0
M  V30 47077 N 4466.82 0.835799 1.33612 0
M  V30 47078 C 4467.78 0.27208 2.27579 0
M  V30 47079 C 4468.78 -0.557434 1.50829 0
M  V30 47080 O 4469.97 -0.37167 1.70189 0
M  V30 47081 C 4467.1 -0.617055 3.35269 0
M  V30 47082 H 4468.3 1.10121 2.7895 0
M  V30 47083 H 4465.85 0.608645 1.43962 0
M  V30 47084 H 4466.58 -1.46874 2.89134 0
M  V30 47085 H 4466.37 -0.0235688 3.92093 0
M  V30 47086 H 4467.86 -1.00485 4.0533 0
M  V30 47087 N 4468.3 -1.46061 0.591947 0
M  V30 47088 C 4469.54 -2.02637 0.0811903 0
M  V30 47089 C 4469.88 -1.46134 -1.279 0
M  V30 47090 O 4469.15 -0.629972 -1.84015 0
M  V30 47091 C 4469.43 -3.60091 0.0253702 0
M  V30 47092 C 4469.29 -4.2696 1.41511 0
M  V30 47093 C 4470.61 -4.34962 -0.670532 0
M  V30 47094 H 4467.72 -0.736349 0.0309783 0
M  V30 47095 H 4470.37 -1.74098 0.76092 0
M  V30 47096 H 4468.52 -3.84537 -0.553489 0
M  V30 47097 H 4470.19 -4.13749 2.03985 0
M  V30 47098 H 4468.43 -3.85964 1.98025 0
M  V30 47099 H 4469.1 -5.35776 1.32844 0
M  V30 47100 H 4471.58 -4.15716 -0.178679 0
M  V30 47101 H 4470.45 -5.44689 -0.678646 0
M  V30 47102 H 4470.72 -4.06691 -1.73364 0
M  V30 47103 N 4469.77 -0.330231 -1.54101 0
M  V30 47104 C 4470.72 0.548147 -2.26049 0
M  V30 47105 C 4471.72 1.11304 -1.27702 0
M  V30 47106 O 4472.92 1.06031 -1.45456 0
M  V30 47107 H 4469.3 0.19543 -0.726162 0
M  V30 47108 H 4471.27 -0.0808616 -2.9829 0
M  V30 47109 C 4470.02 1.69405 -3.0364 0
M  V30 47110 H 4469.34 1.26863 -3.79138 0
M  V30 47111 H 4470.78 2.28411 -3.57218 0
M  V30 47112 C 4469.24 2.61562 -2.12337 0
M  V30 47113 O 4469.77 3.63456 -1.71063 0
M  V30 47114 N 4467.98 2.29946 -1.77689 0
M  V30 47115 H 4467.52 1.47127 -2.11451 0
M  V30 47116 H 4467.48 2.91867 -1.1688 0
M  V30 47117 N 4471.25 1.57491 -0.0585476 0
M  V30 47118 C 4472.18 2.14991 0.911102 0
M  V30 47119 C 4473.16 1.07348 1.31949 0
M  V30 47120 O 4474.35 1.35322 1.39289 0
M  V30 47121 C 4471.48 2.70086 2.18337 0
M  V30 47122 C 4470.43 3.82778 1.91482 0
M  V30 47123 C 4469.76 4.2442 3.25226 0
M  V30 47124 C 4471.06 5.07597 1.23057 0
M  V30 47125 H 4472.75 2.96265 0.432142 0
M  V30 47126 H 4470.3 1.42513 0.206419 0
M  V30 47127 H 4472.25 3.08953 2.86577 0
M  V30 47128 H 4470.98 1.86014 2.68452 0
M  V30 47129 H 4469.63 3.44394 1.25652 0
M  V30 47130 H 4469.28 3.37288 3.73156 0
M  V30 47131 H 4468.98 5.00377 3.08053 0
M  V30 47132 H 4470.51 4.65893 3.94685 0
M  V30 47133 H 4471.92 5.43864 1.81343 0
M  V30 47134 H 4470.32 5.88745 1.16186 0
M  V30 47135 H 4471.39 4.84455 0.207677 0
M  V30 47136 N 4472.73 -0.214903 1.56128 0
M  V30 47137 C 4473.66 -1.26943 1.95979 0
M  V30 47138 C 4474.64 -1.48536 0.82892 0
M  V30 47139 O 4475.83 -1.60607 1.09174 0
M  V30 47140 C 4472.96 -2.61786 2.28223 0
M  V30 47141 C 4471.91 -2.54839 3.43862 0
M  V30 47142 C 4471.24 -3.93772 3.61729 0
M  V30 47143 C 4472.54 -2.09049 4.7864 0
M  V30 47144 H 4474.23 -0.93836 2.84315 0
M  V30 47145 H 4471.78 -0.449948 1.3679 0
M  V30 47146 H 4473.73 -3.35722 2.54694 0
M  V30 47147 H 4472.45 -2.96594 1.36747 0
M  V30 47148 H 4471.11 -1.83359 3.17451 0
M  V30 47149 H 4470.76 -4.25899 2.67617 0
M  V30 47150 H 4470.46 -3.90004 4.39512 0
M  V30 47151 H 4471.98 -4.6936 3.90555 0
M  V30 47152 H 4473.4 -2.72732 5.04272 0
M  V30 47153 H 4471.8 -2.16326 5.59753 0
M  V30 47154 H 4472.87 -1.04298 4.7355 0
M  V30 47155 N 4474.21 -1.50053 -0.481867 0
M  V30 47156 C 4475.44 -1.64242 -1.25826 0
M  V30 47157 C 4475.85 -0.321402 -1.86044 0
M  V30 47158 O 4475.21 0.695418 -1.68731 0
M  V30 47159 C 4475.26 -2.72556 -2.37477 0
M  V30 47160 O 4474.98 -3.99535 -1.79731 0
M  V30 47161 C 4476.48 -2.97622 -3.28536 0
M  V30 47162 H 4473.7 -0.552383 -0.380938 0
M  V30 47163 H 4476.25 -1.96209 -0.576398 0
M  V30 47164 H 4474.4 -2.43313 -3.01459 0
M  V30 47165 H 4474.81 -4.59351 -2.53174 0
M  V30 47166 H 4476.29 -3.77099 -4.03114 0
M  V30 47167 H 4476.77 -2.08273 -3.86677 0
M  V30 47168 H 4477.37 -3.28355 -2.70302 0
M  V30 47169 N 4475.69 0.734288 -1.39449 0
M  V30 47170 C 4476.63 1.86966 -1.3837 0
M  V30 47171 C 4477.63 1.67287 -0.266746 0
M  V30 47172 O 4478.83 1.74619 -0.436817 0
M  V30 47173 H 4475.21 0.615459 -0.432104 0
M  V30 47174 H 4477.18 1.84992 -2.34138 0
M  V30 47175 C 4475.93 3.24655 -1.24476 0
M  V30 47176 H 4475.25 3.40395 -2.09694 0
M  V30 47177 H 4476.69 4.04288 -1.27779 0
M  V30 47178 C 4475.15 3.36868 0.046749 0
M  V30 47179 O 4475.68 3.88621 1.01668 0
M  V30 47180 N 4473.89 2.90392 0.110043 0
M  V30 47181 H 4473.43 2.48464 -0.679956 0
M  V30 47182 H 4473.39 2.98942 0.973694 0
M  V30 47183 N 4477.16 1.24636 0.964549 0
M  V30 47184 C 4478.1 0.984734 2.0586 0
M  V30 47185 C 4479.08 -0.0825983 1.6239 0
M  V30 47186 O 4480.26 0.0549959 1.8842 0
M  V30 47187 C 4477.39 0.486646 3.35186 0
M  V30 47188 C 4476.43 1.543 3.9761 0
M  V30 47189 S 4477.27 3.12529 4.3484 0
M  V30 47190 C 4478.42 2.6443 5.67298 0
M  V30 47191 H 4478.65 1.91112 2.27736 0
M  V30 47192 H 4476.19 1.08056 1.10287 0
M  V30 47193 H 4478.15 0.205901 4.09983 0
M  V30 47194 H 4476.81 -0.419076 3.11292 0
M  V30 47195 H 4476 1.14498 4.90822 0
M  V30 47196 H 4475.6 1.77392 3.29254 0
M  V30 47197 H 4477.89 2.07438 6.44962 0
M  V30 47198 H 4478.84 3.56244 6.11961 0
M  V30 47199 H 4479.24 2.04753 5.26058 0
M  V30 47200 N 4478.64 -1.1657 1.06062 0
M  V30 47201 C 4479.89 -1.87044 0.775938 0
M  V30 47202 C 4480.22 -1.81564 -0.69747 0
M  V30 47203 O 4479.47 -1.2245 -1.52658 0
M  V30 47204 C 4479.77 -3.36191 1.21287 0
M  V30 47205 C 4479.44 -3.61871 2.68999 0
M  V30 47206 C 4478.1 -3.68588 3.09348 0
M  V30 47207 C 4480.45 -3.72635 3.64407 0
M  V30 47208 C 4477.78 -3.83569 4.4395 0
M  V30 47209 C 4480.13 -3.89136 4.98754 0
M  V30 47210 C 4478.8 -3.94095 5.38744 0
M  V30 47211 H 4478.07 -0.684442 0.283936 0
M  V30 47212 H 4480.71 -1.37848 1.32929 0
M  V30 47213 H 4479.02 -3.87503 0.578664 0
M  V30 47214 H 4480.71 -3.89099 0.969678 0
M  V30 47215 H 4477.3 -3.57273 2.36757 0
M  V30 47216 H 4481.49 -3.66758 3.34369 0
M  V30 47217 H 4476.74 -3.8566 4.74422 0
M  V30 47218 H 4480.92 -3.96407 5.72568 0
M  V30 47219 H 4478.55 -4.05455 6.43047 0
M  V30 47220 N 4480.12 -0.842873 -1.33167 0
M  V30 47221 C 4481.35 -0.454126 -2.01855 0
M  V30 47222 C 4481.76 0.945813 -1.63401 0
M  V30 47223 O 4481.12 1.61531 -0.849358 0
M  V30 47224 C 4481.17 -0.56984 -3.5698 0
M  V30 47225 O 4480.89 -1.91462 -3.94048 0
M  V30 47226 C 4482.39 -0.178568 -4.4294 0
M  V30 47227 H 4479.61 -0.179812 -0.646458 0
M  V30 47228 H 4482.16 -1.13656 -1.70008 0
M  V30 47229 H 4480.31 0.0647225 -3.87346 0
M  V30 47230 H 4480.73 -1.90299 -4.8876 0
M  V30 47231 H 4482.2 -0.31057 -5.51126 0
M  V30 47232 H 4482.68 0.879905 -4.30296 0
M  V30 47233 H 4483.28 -0.787726 -4.17941 0
M  V30 47234 N 4481.6 1.45745 -0.599685 0
M  V30 47235 C 4483.01 1.85852 -0.177746 0
M  V30 47236 C 4483.36 1.50106 1.26343 0
M  V30 47237 O 4482.49 0.923974 1.95683 0
M  V30 47238 C 4483.08 3.37325 -0.315806 0
M  V30 47239 C 4481.64 3.76365 0.0513821 0
M  V30 47240 C 4480.79 2.6972 -0.643917 0
M  V30 47241 H 4483.74 1.36658 -0.806862 0
M  V30 47242 H 4483.76 3.7778 0.454188 0
M  V30 47243 H 4483.27 3.63311 -1.36481 0
M  V30 47244 H 4481.37 3.55997 1.09987 0
M  V30 47245 H 4481.49 4.77915 -0.336762 0
M  V30 47246 H 4479.85 2.54567 -0.0823776 0
M  V30 47247 H 4480.63 2.98543 -1.6949 0
M  V30 47248 N 4483.08 0.338398 1.53924 0
M  V30 47249 C 4484.01 -0.5132 2.2779 0
M  V30 47250 C 4484.99 -1.10696 1.29153 0
M  V30 47251 O 4486.17 -1.12931 1.57988 0
M  V30 47252 C 4483.3 -1.66686 3.04685 0
M  V30 47253 C 4482.26 -1.20169 4.10784 0
M  V30 47254 C 4481.58 -2.44346 4.75604 0
M  V30 47255 C 4482.88 -0.305867 5.21404 0
M  V30 47256 H 4484.58 0.102988 2.99223 0
M  V30 47257 H 4482.12 0.0509725 1.4391 0
M  V30 47258 H 4484.08 -2.26902 3.55096 0
M  V30 47259 H 4482.8 -2.30987 2.30896 0
M  V30 47260 H 4481.46 -0.622372 3.61278 0
M  V30 47261 H 4481.11 -3.07043 3.98414 0
M  V30 47262 H 4480.81 -2.13906 5.47282 0
M  V30 47263 H 4482.33 -3.05298 5.28796 0
M  V30 47264 H 4483.75 -0.81473 5.67481 0
M  V30 47265 H 4482.14 -0.093582 6.00027 0
M  V30 47266 H 4483.21 0.659378 4.80396 0
M  V30 47267 N 4484.56 -1.57458 0.0668989 0
M  V30 47268 C 4485.8 -1.92479 -0.602879 0
M  V30 47269 C 4486.12 -0.948479 -1.71065 0
M  V30 47270 O 4487.32 -1.19133 -2.43966 0
M  V30 47271 C 4485.78 -3.41907 -1.12371 0
M  V30 47272 C 4485.39 -4.47975 -0.0472125 0
M  V30 47273 C 4487.13 -3.85938 -1.76784 0
M  V30 47274 C 4485.04 -5.88531 -0.581815 0
M  V30 47275 H 4483.97 -0.718395 -0.228965 0
M  V30 47276 H 4486.62 -1.82978 0.13834 0
M  V30 47277 H 4485 -3.46466 -1.91774 0
M  V30 47278 H 4486.18 -4.55027 0.727138 0
M  V30 47279 H 4484.49 -4.13382 0.500389 0
M  V30 47280 H 4487.09 -4.88329 -2.17804 0
M  V30 47281 H 4487.43 -3.23038 -2.62587 0
M  V30 47282 H 4487.96 -3.83962 -1.0401 0
M  V30 47283 H 4484.7 -6.55064 0.238951 0
M  V30 47284 H 4484.22 -5.85009 -1.3238 0
M  V30 47285 H 4485.9 -6.38262 -1.05977 0
M  V30 47286 N 4486.03 0.20662 -1.5624 0
M  V30 47287 C 4486.97 1.2799 -1.90134 0
M  V30 47288 C 4487.98 1.42296 -0.790933 0
M  V30 47289 O 4489.17 1.42927 -1.0693 0
M  V30 47290 C 4486.27 2.6536 -2.10801 0
M  V30 47291 C 4485.44 2.72812 -3.41896 0
M  V30 47292 C 4484.5 3.91298 -3.51813 0
M  V30 47293 O 4483.53 3.78938 -4.24729 0
M  V30 47294 N 4484.73 5.06255 -2.84052 0
M  V30 47295 H 4487.49 0.992344 -2.82794 0
M  V30 47296 H 4485.05 0.396596 -1.56967 0
M  V30 47297 H 4487.05 3.43032 -2.14736 0
M  V30 47298 H 4485.62 2.86653 -1.24695 0
M  V30 47299 H 4484.84 1.81502 -3.49929 0
M  V30 47300 H 4486.12 2.74771 -4.28227 0
M  V30 47301 H 4485.52 5.19195 -2.24618 0
M  V30 47302 H 4484.08 5.81915 -2.93629 0
M  V30 47303 N 4487.51 1.50306 0.473902 0
M  V30 47304 C 4488.92 1.54045 1.05484 0
M  V30 47305 C 4489.27 0.342316 1.93191 0
M  V30 47306 O 4488.4 -0.545084 2.09423 0
M  V30 47307 C 4488.99 2.79159 1.91979 0
M  V30 47308 C 4487.55 2.85588 2.45186 0
M  V30 47309 C 4486.7 2.483 1.23461 0
M  V30 47310 H 4489.65 1.56611 0.256638 0
M  V30 47311 H 4489.67 2.60855 2.77011 0
M  V30 47312 H 4489.18 3.66343 1.28118 0
M  V30 47313 H 4487.28 2.02749 3.12608 0
M  V30 47314 H 4487.4 3.88413 2.80486 0
M  V30 47315 H 4485.76 2.00675 1.56849 0
M  V30 47316 H 4486.54 3.37789 0.61267 0
M  V30 47317 N 4488.99 -0.726883 1.39836 0
M  V30 47318 C 4490.24 -1.48209 1.3681 0
M  V30 47319 C 4490.55 -1.95576 -0.0304603 0
M  V30 47320 O 4491.76 -2.7088 -0.183322 0
M  V30 47321 C 4490.21 -2.67846 2.40389 0
M  V30 47322 C 4489.82 -2.27394 3.86 0
M  V30 47323 C 4491.57 -3.45633 2.46451 0
M  V30 47324 C 4489.47 -3.43802 4.81201 0
M  V30 47325 H 4488.4 -0.556588 0.508651 0
M  V30 47326 H 4491.05 -0.792158 1.65521 0
M  V30 47327 H 4489.44 -3.38953 2.04761 0
M  V30 47328 H 4490.61 -1.6378 4.30712 0
M  V30 47329 H 4488.92 -1.62679 3.83307 0
M  V30 47330 H 4491.52 -4.32233 3.14768 0
M  V30 47331 H 4491.86 -3.88663 1.49153 0
M  V30 47332 H 4492.4 -2.8156 2.81014 0
M  V30 47333 H 4489.14 -3.05814 5.79791 0
M  V30 47334 H 4488.66 -4.0637 4.41162 0
M  V30 47335 H 4490.34 -4.10025 5.00488 0
M  V30 47336 N 4490.47 -1.25146 -0.957926 0
M  V30 47337 C 4491.72 -1.09482 -1.69877 0
M  V30 47338 C 4492.04 0.365435 -1.91545 0
M  V30 47339 O 4491.31 1.2598 -1.5002 0
M  V30 47340 H 4489.89 -0.402151 -0.629511 0
M  V30 47341 H 4492.55 -1.57219 -1.15188 0
M  V30 47342 H 4491.64 -1.60056 -2.67934 0
M  V30 47343 N 4491.95 1.16006 -1.06679 0
M  V30 47344 C 4492.91 2.18722 -0.685078 0
M  V30 47345 C 4493.91 1.58497 0.271191 0
M  V30 47346 O 4495.1 1.74119 0.0530544 0
M  V30 47347 C 4492.23 3.40899 -0.00865633 0
M  V30 47348 H 4493.42 2.54006 -1.5944 0
M  V30 47349 H 4490.98 1.30349 -0.862487 0
M  V30 47350 H 4491.71 3.11176 0.913227 0
M  V30 47351 H 4491.5 3.85867 -0.696339 0
M  V30 47352 H 4492.99 4.16887 0.243993 0
M  V30 47353 N 4493.42 0.849923 1.32718 0
M  V30 47354 C 4494.35 0.30639 2.31481 0
M  V30 47355 C 4495.33 -0.591896 1.5947 0
M  V30 47356 O 4496.52 -0.513133 1.87298 0
M  V30 47357 C 4493.65 -0.510084 3.43534 0
M  V30 47358 C 4492.6 0.293359 4.26993 0
M  V30 47359 C 4491.93 -0.647556 5.30764 0
M  V30 47360 C 4493.23 1.51651 4.99799 0
M  V30 47361 H 4494.92 1.13162 2.77191 0
M  V30 47362 H 4492.47 0.5456 1.33264 0
M  V30 47363 H 4494.42 -0.900711 4.11661 0
M  V30 47364 H 4493.15 -1.36863 2.9654 0
M  V30 47365 H 4491.81 0.665682 3.60506 0
M  V30 47366 H 4491.45 -1.50282 4.80025 0
M  V30 47367 H 4491.15 -0.114013 5.87489 0
M  V30 47368 H 4492.68 -1.03546 6.01756 0
M  V30 47369 H 4494.09 1.19844 5.60634 0
M  V30 47370 H 4492.49 1.98765 5.66227 0
M  V30 47371 H 4493.56 2.28033 4.27935 0
M  V30 47372 N 4494.9 -1.45425 0.607406 0
M  V30 47373 C 4496.18 -1.9557 0.0345253 0
M  V30 47374 C 4496.56 -1.54984 -1.43329 0
M  V30 47375 O 4495.91 -0.812316 -2.13574 0
M  V30 47376 C 4496.12 -3.48225 0.232443 0
M  V30 47377 C 4497.47 -4.24449 0.113151 0
M  V30 47378 O 4498.49 -3.55829 0.162556 0
M  V30 47379 O 4497.35 -5.465 -0.0019023 0
M  V30 47380 H 4494.44 -0.826223 -0.0358376 0
M  V30 47381 H 4496.99 -1.55591 0.677454 0
M  V30 47382 H 4495.76 -3.70734 1.25187 0
M  V30 47383 H 4495.38 -3.95093 -0.445757 0
M  V30 47384 N 4496.38 -0.346557 -1.53742 0
M  V30 47385 C 4497.63 0.250052 -2.00144 0
M  V30 47386 C 4497.94 1.51414 -1.23827 0
M  V30 47387 O 4499.15 2.18818 -1.60721 0
M  V30 47388 C 4497.6 0.496127 -3.56464 0
M  V30 47389 C 4497.21 -0.752233 -4.4164 0
M  V30 47390 C 4498.96 1.05143 -4.11273 0
M  V30 47391 C 4496.86 -0.476791 -5.89475 0
M  V30 47392 H 4495.79 0.0972146 -0.747707 0
M  V30 47393 H 4498.44 -0.462352 -1.7758 0
M  V30 47394 H 4496.83 1.26931 -3.75106 0
M  V30 47395 H 4498 -1.52675 -4.34772 0
M  V30 47396 H 4496.32 -1.22939 -3.97838 0
M  V30 47397 H 4498.91 1.27251 -5.19337 0
M  V30 47398 H 4499.26 2.00786 -3.64679 0
M  V30 47399 H 4499.79 0.338879 -3.96354 0
M  V30 47400 H 4496.53 -1.40303 -6.40309 0
M  V30 47401 H 4496.05 0.259583 -5.99238 0
M  V30 47402 H 4497.73 -0.0951589 -6.4693 0
M  V30 47403 N 4497.86 1.5742 -0.0752483 0
M  V30 47404 C 4499.08 1.98366 0.605446 0
M  V30 47405 C 4499.51 0.95344 1.62145 0
M  V30 47406 O 4498.87 -0.0805416 1.81121 0
M  V30 47407 C 4498.91 3.38336 1.24744 0
M  V30 47408 O 4498.02 3.37967 2.3633 0
M  V30 47409 H 4497.36 0.645558 0.155405 0
M  V30 47410 H 4499.89 2.04044 -0.150785 0
M  V30 47411 H 4499.9 3.75596 1.59347 0
M  V30 47412 H 4498.57 4.12847 0.502984 0
M  V30 47413 H 4497.15 3.12481 2.03495 0
M  V30 47414 N 4499.34 -0.198331 1.56347 0
M  V30 47415 C 4500.3 -1.22945 1.93435 0
M  V30 47416 C 4501.3 -1.38608 0.81514 0
M  V30 47417 O 4502.49 -1.36475 1.0826 0
M  V30 47418 C 4499.62 -2.59939 2.20556 0
M  V30 47419 H 4500.81 -0.912526 2.8568 0
M  V30 47420 H 4498.37 -0.439718 1.49987 0
M  V30 47421 H 4499.1 -2.96691 1.30938 0
M  V30 47422 H 4498.89 -2.49943 3.02111 0
M  V30 47423 H 4500.38 -3.34301 2.50265 0
M  V30 47424 N 4500.81 -1.50555 -0.465925 0
M  V30 47425 C 4502.04 -1.65843 -1.24543 0
M  V30 47426 C 4502.46 -0.343551 -1.84936 0
M  V30 47427 O 4501.82 0.693181 -1.67525 0
M  V30 47428 C 4501.87 -2.75541 -2.32614 0
M  V30 47429 O 4500.97 -2.37153 -3.3739 0
M  V30 47430 H 4500.32 -0.553906 -0.366175 0
M  V30 47431 H 4502.85 -1.96961 -0.553857 0
M  V30 47432 H 4502.86 -2.98773 -2.77847 0
M  V30 47433 H 4501.53 -3.70968 -1.8803 0
M  V30 47434 H 4500.11 -2.24388 -2.97833 0
M  V30 47435 N 4502.29 0.719457 -1.4022 0
M  V30 47436 C 4503.54 1.47481 -1.37594 0
M  V30 47437 C 4503.85 1.9559 0.020088 0
M  V30 47438 O 4505.06 2.70974 0.168954 0
M  V30 47439 C 4503.52 2.66567 -2.41806 0
M  V30 47440 C 4503.12 2.25344 -3.872 0
M  V30 47441 C 4504.87 3.44321 -2.48281 0
M  V30 47442 C 4502.78 3.41245 -4.83017 0
M  V30 47443 H 4501.71 0.553883 -0.511595 0
M  V30 47444 H 4504.36 0.783369 -1.65938 0
M  V30 47445 H 4502.74 3.37862 -2.06555 0
M  V30 47446 H 4503.91 1.61494 -4.31574 0
M  V30 47447 H 4502.23 1.60644 -3.84165 0
M  V30 47448 H 4504.82 4.30557 -3.17056 0
M  V30 47449 H 4505.17 3.87867 -1.51212 0
M  V30 47450 H 4505.7 2.80066 -2.82503 0
M  V30 47451 H 4502.44 3.02735 -5.81405 0
M  V30 47452 H 4501.96 4.04024 -4.43311 0
M  V30 47453 H 4503.64 4.07365 -5.02655 0
M  V30 47454 N 4503.77 1.25652 0.951275 0
M  V30 47455 C 4505.02 1.10763 1.6988 0
M  V30 47456 C 4505.35 -0.349994 1.9102 0
M  V30 47457 O 4504.62 -1.25778 1.48358 0
M  V30 47458 C 4504.91 1.86617 3.07971 0
M  V30 47459 C 4504.76 3.40227 2.9422 0
M  V30 47460 C 4506.08 1.65196 4.07919 0
M  V30 47461 H 4503.2 0.403762 0.616559 0
M  V30 47462 H 4505.84 1.54525 1.10553 0
M  V30 47463 H 4503.99 1.49421 3.58616 0
M  V30 47464 H 4505.66 3.87117 2.50875 0
M  V30 47465 H 4503.91 3.67767 2.30065 0
M  V30 47466 H 4504.58 3.88519 3.92119 0
M  V30 47467 H 4507.05 1.97582 3.66197 0
M  V30 47468 H 4505.93 2.20701 5.02576 0
M  V30 47469 H 4506.19 0.594087 4.3809 0
M  V30 47470 N 4505.25 -1.15438 1.07293 0
M  V30 47471 C 4506.21 -2.18356 0.696667 0
M  V30 47472 C 4507.21 -1.58638 -0.262781 0
M  V30 47473 O 4508.4 -1.74145 -0.0438197 0
M  V30 47474 C 4505.53 -3.4089 0.0267349 0
M  V30 47475 H 4506.73 -2.53157 1.60785 0
M  V30 47476 H 4504.28 -1.2989 0.869388 0
M  V30 47477 H 4505.01 -3.11656 -0.896712 0
M  V30 47478 H 4504.8 -3.85493 0.716793 0
M  V30 47479 H 4506.29 -4.1701 -0.221881 0
M  V30 47480 N 4506.73 -0.85695 -1.32265 0
M  V30 47481 C 4507.97 -0.460544 -1.96783 0
M  V30 47482 C 4508.3 0.987642 -1.68139 0
M  V30 47483 O 4507.57 1.69054 -0.989825 0
M  V30 47484 H 4506.15 -0.167315 -0.728021 0
M  V30 47485 H 4508.81 -1.09388 -1.61308 0
M  V30 47486 H 4507.9 -0.607497 -3.0613 0
M  V30 47487 N 4508.2 1.45101 -0.61511 0
M  V30 47488 C 4509.45 2.01784 -0.113026 0
M  V30 47489 C 4509.77 1.48509 1.26373 0
M  V30 47490 O 4509.04 0.68231 1.83634 0
M  V30 47491 H 4507.62 0.745992 -0.0387931 0
M  V30 47492 H 4510.29 1.77805 -0.798203 0
M  V30 47493 H 4509.38 3.12025 -0.0685166 0
M  V30 47494 N 4509.68 0.354705 1.53557 0
M  V30 47495 C 4510.93 -0.239434 2.00274 0
M  V30 47496 C 4511.25 -1.50755 1.24628 0
M  V30 47497 O 4512.45 -2.17962 1.61879 0
M  V30 47498 C 4510.91 -0.477216 3.56722 0
M  V30 47499 C 4510.52 0.775643 4.41234 0
M  V30 47500 C 4512.26 -1.0296 4.11824 0
M  V30 47501 C 4510.17 0.508045 5.89214 0
M  V30 47502 H 4509.1 -0.093248 0.748212 0
M  V30 47503 H 4511.75 0.471763 1.77332 0
M  V30 47504 H 4510.13 -1.2494 3.75774 0
M  V30 47505 H 4511.3 1.54978 4.33957 0
M  V30 47506 H 4509.62 1.25047 3.9718 0
M  V30 47507 H 4512.22 -1.24495 5.20005 0
M  V30 47508 H 4512.56 -1.9885 3.65738 0
M  V30 47509 H 4513.09 -0.317855 3.96528 0
M  V30 47510 H 4509.83 1.43697 6.39556 0
M  V30 47511 H 4509.35 -0.2278 5.99367 0
M  V30 47512 H 4511.03 0.129466 6.4687 0
M  V30 47513 N 4511.16 -1.57378 0.0835957 0
M  V30 47514 C 4512.41 -1.94219 -0.583665 0
M  V30 47515 C 4512.74 -0.964712 -1.68544 0
M  V30 47516 O 4512.02 0.0041542 -1.945 0
M  V30 47517 C 4512.3 -3.41257 -1.1496 0
M  V30 47518 C 4512.15 -4.49768 -0.0536696 0
M  V30 47519 C 4513.47 -3.89359 -2.05152 0
M  V30 47520 H 4510.59 -0.70624 -0.210699 0
M  V30 47521 H 4513.23 -1.89391 0.151966 0
M  V30 47522 H 4511.38 -3.45502 -1.77653 0
M  V30 47523 H 4513.05 -4.57639 0.580012 0
M  V30 47524 H 4511.3 -4.2943 0.614219 0
M  V30 47525 H 4511.97 -5.49819 -0.490259 0
M  V30 47526 H 4514.44 -3.87195 -1.5238 0
M  V30 47527 H 4513.32 -4.9283 -2.4168 0
M  V30 47528 H 4513.58 -3.27983 -2.96444 0
M  V30 47529 N 4512.64 0.190037 -1.5645 0
M  V30 47530 C 4513.6 1.21918 -1.94084 0
M  V30 47531 C 4514.6 1.38173 -0.82248 0
M  V30 47532 O 4515.79 1.35899 -1.08982 0
M  V30 47533 C 4512.92 2.58765 -2.21931 0
M  V30 47534 H 4514.12 0.897363 -2.8616 0
M  V30 47535 H 4511.67 0.431757 -1.50218 0
M  V30 47536 H 4512.41 2.95993 -1.32509 0
M  V30 47537 H 4512.19 2.48337 -3.03432 0
M  V30 47538 H 4513.68 3.32969 -2.52034 0
M  V30 47539 N 4514.12 1.508 0.457934 0
M  V30 47540 C 4515.37 1.61684 1.20587 0
M  V30 47541 C 4515.68 0.328948 1.92814 0
M  V30 47542 O 4516.89 0.316868 2.69645 0
M  V30 47543 C 4515.34 2.85458 2.19185 0
M  V30 47544 C 4514.95 4.21173 1.527 0
M  V30 47545 C 4516.69 3.05691 2.94539 0
M  V30 47546 C 4514.6 5.36119 2.49662 0
M  V30 47547 H 4513.53 0.60215 0.453797 0
M  V30 47548 H 4516.18 1.77246 0.474969 0
M  V30 47549 H 4514.56 2.63483 2.95623 0
M  V30 47550 H 4515.74 4.53452 0.819616 0
M  V30 47551 H 4514.05 4.06651 0.895779 0
M  V30 47552 H 4516.65 3.88739 3.67132 0
M  V30 47553 H 4516.99 2.17941 3.54693 0
M  V30 47554 H 4517.53 3.27909 2.25212 0
M  V30 47555 H 4514.26 6.26064 1.94227 0
M  V30 47556 H 4513.78 5.08241 3.18514 0
M  V30 47557 H 4515.46 5.67231 3.11221 0
M  V30 47558 N 4515.6 -0.71201 1.40599 0
M  V30 47559 C 4516.84 -1.47411 1.39277 0
M  V30 47560 C 4517.17 -1.942 -0.00381964 0
M  V30 47561 O 4516.45 -1.68406 -0.97312 0
M  V30 47562 C 4516.73 -2.69765 2.38534 0
M  V30 47563 C 4516.59 -2.28848 3.87232 0
M  V30 47564 C 4517.9 -3.71931 2.35277 0
M  V30 47565 H 4515.02 -0.534695 0.507218 0
M  V30 47566 H 4517.67 -0.812315 1.7176 0
M  V30 47567 H 4515.82 -3.2623 2.10964 0
M  V30 47568 H 4517.49 -1.77837 4.25643 0
M  V30 47569 H 4515.73 -1.6081 4.02893 0
M  V30 47570 H 4516.4 -3.16568 4.52204 0
M  V30 47571 H 4518.88 -3.25103 2.59706 0
M  V30 47572 H 4517.75 -4.55175 3.06769 0
M  V30 47573 H 4518.01 -4.20479 1.36563 0
M  V30 47574 N 4517.07 -1.26155 -0.944598 0
M  V30 47575 C 4518.32 -1.11663 -1.6929 0
M  V30 47576 C 4518.65 0.339859 -1.91203 0
M  V30 47577 O 4517.93 1.24989 -1.49023 0
M  V30 47578 C 4518.21 -1.88247 -3.06977 0
M  V30 47579 C 4518.06 -3.41783 -2.92412 0
M  V30 47580 C 4519.38 -1.67357 -4.07038 0
M  V30 47581 H 4516.5 -0.407026 -0.614409 0
M  V30 47582 H 4519.14 -1.55109 -1.09732 0
M  V30 47583 H 4517.29 -1.51321 -3.57819 0
M  V30 47584 H 4518.97 -3.88442 -2.48818 0
M  V30 47585 H 4517.21 -3.68982 -2.28111 0
M  V30 47586 H 4517.88 -3.90593 -3.90053 0
M  V30 47587 H 4520.36 -1.99522 -3.65144 0
M  V30 47588 H 4519.23 -2.23363 -5.01398 0
M  V30 47589 H 4519.49 -0.617312 -4.37769 0
M  V30 47590 N 4518.55 1.14868 -1.07903 0
M  V30 47591 C 4519.78 1.89658 -0.826896 0
M  V30 47592 C 4520.19 1.78314 0.620456 0
M  V30 47593 O 4519.55 1.13893 1.426 0
M  V30 47594 C 4519.6 3.39812 -1.23328 0
M  V30 47595 O 4519.32 3.50836 -2.62385 0
M  V30 47596 C 4520.82 4.31612 -1.01125 0
M  V30 47597 H 4518.04 0.60091 -0.298578 0
M  V30 47598 H 4520.59 1.45505 -1.43696 0
M  V30 47599 H 4518.74 3.81607 -0.66742 0
M  V30 47600 H 4519.16 4.44066 -2.79116 0
M  V30 47601 H 4520.63 5.35362 -1.34505 0
M  V30 47602 H 4521.11 4.39169 0.0520624 0
M  V30 47603 H 4521.71 3.95566 -1.56229 0
M  V30 47604 N 4520.03 0.863952 1.31809 0
M  V30 47605 C 4521.27 0.47832 1.98725 0
M  V30 47606 C 4521.63 -0.950338 1.66831 0
M  V30 47607 O 4522.83 -1.44101 2.26911 0
M  V30 47608 C 4521.11 0.721257 3.50047 0
M  V30 47609 S 4522.66 0.434585 4.36643 0
M  V30 47610 H 4519.48 0.178797 0.688151 0
M  V30 47611 H 4522.08 1.11868 1.6033 0
M  V30 47612 H 4520.79 1.75994 3.70748 0
M  V30 47613 H 4520.32 0.0676698 3.93342 0
M  V30 47614 H 4522.33 -0.735614 4.90717 0
M  V30 47615 N 4521.51 -1.44772 0.622796 0
M  V30 47616 C 4522.44 -2.33382 -0.0741041 0
M  V30 47617 C 4523.42 -1.47722 -0.843335 0
M  V30 47618 O 4524.6 -1.76461 -0.810872 0
M  V30 47619 C 4521.73 -3.30667 -1.06192 0
M  V30 47620 C 4520.69 -4.26081 -0.404887 0
M  V30 47621 C 4520.01 -5.1317 -1.50202 0
M  V30 47622 C 4521.31 -5.17807 0.683596 0
M  V30 47623 H 4523.01 -2.91903 0.665816 0
M  V30 47624 H 4520.55 -1.40362 0.321636 0
M  V30 47625 H 4522.51 -3.91536 -1.55813 0
M  V30 47626 H 4521.23 -2.70337 -1.83263 0
M  V30 47627 H 4519.89 -3.66532 0.0705971 0
M  V30 47628 H 4519.54 -4.49199 -2.26339 0
M  V30 47629 H 4519.24 -5.77816 -1.06782 0
M  V30 47630 H 4520.76 -5.76909 -2.00021 0
M  V30 47631 H 4522.18 -5.7266 0.270832 0
M  V30 47632 H 4520.57 -5.91012 1.04044 0
M  V30 47633 H 4521.64 -4.59321 1.55411 0
M  V30 47634 N 4522.99 -0.362844 -1.53366 0
M  V30 47635 C 4523.95 0.4726 -2.24275 0
M  V30 47636 C 4524.95 1.01196 -1.24964 0
M  V30 47637 O 4526.14 0.898142 -1.49262 0
M  V30 47638 C 4523.27 1.66028 -2.97737 0
M  V30 47639 H 4524.46 -0.147835 -2.99535 0
M  V30 47640 H 4522.02 -0.114488 -1.5588 0
M  V30 47641 H 4522.75 2.31888 -2.26712 0
M  V30 47642 H 4522.54 1.28053 -3.70601 0
M  V30 47643 H 4524.03 2.2524 -3.51649 0
M  V30 47644 N 4524.46 1.57332 -0.0919406 0
M  V30 47645 C 4525.69 1.98288 0.580135 0
M  V30 47646 C 4526.1 0.96977 1.62456 0
M  V30 47647 O 4525.45 -0.0492855 1.83634 0
M  V30 47648 C 4525.51 3.35608 1.2887 0
M  V30 47649 C 4525.17 4.55286 0.395399 0
M  V30 47650 C 4526.17 5.18685 -0.355184 0
M  V30 47651 C 4523.85 5.01315 0.314379 0
M  V30 47652 C 4525.85 6.2648 -1.1748 0
M  V30 47653 C 4523.53 6.08977 -0.508891 0
M  V30 47654 C 4524.53 6.71424 -1.25213 0
M  V30 47655 O 4524.22 7.77011 -2.06178 0
M  V30 47656 H 4523.95 0.656684 0.160443 0
M  V30 47657 H 4526.51 2.0472 -0.166952 0
M  V30 47658 H 4524.74 3.25849 2.08229 0
M  V30 47659 H 4526.43 3.61033 1.855 0
M  V30 47660 H 4527.19 4.84057 -0.302304 0
M  V30 47661 H 4523.07 4.52474 0.882538 0
M  V30 47662 H 4526.61 6.75152 -1.75542 0
M  V30 47663 H 4522.51 6.43038 -0.563263 0
M  V30 47664 H 4523.28 7.93984 -1.98827 0
M  V30 47665 N 4525.94 -0.181737 1.56549 0
M  V30 47666 C 4527.17 -0.914553 1.85255 0
M  V30 47667 C 4527.58 -1.76789 0.673976 0
M  V30 47668 O 4526.92 -1.8001 -0.366353 0
M  V30 47669 C 4526.99 -1.85008 3.0824 0
M  V30 47670 C 4526.65 -1.17739 4.41573 0
M  V30 47671 C 4527.65 -0.547853 5.17005 0
M  V30 47672 C 4525.33 -1.17725 4.88309 0
M  V30 47673 C 4527.33 0.0728368 6.37358 0
M  V30 47674 C 4525.01 -0.552733 6.08595 0
M  V30 47675 C 4526.01 0.0712181 6.82963 0
M  V30 47676 O 4525.7 0.685916 8.00968 0
M  V30 47677 H 4525.43 -0.271673 0.619007 0
M  V30 47678 H 4527.98 -0.189873 2.04521 0
M  V30 47679 H 4526.21 -2.61481 2.84894 0
M  V30 47680 H 4527.9 -2.45184 3.23481 0
M  V30 47681 H 4528.67 -0.540005 4.81984 0
M  V30 47682 H 4524.55 -1.65231 4.30372 0
M  V30 47683 H 4528.09 0.560457 6.95345 0
M  V30 47684 H 4523.99 -0.558128 6.43083 0
M  V30 47685 H 4524.76 0.584137 8.16413 0
M  V30 47686 N 4527.42 -1.51041 -0.44993 0
M  V30 47687 C 4528.67 -1.63085 -1.2004 0
M  V30 47688 C 4529 -0.341092 -1.91486 0
M  V30 47689 O 4528.25 0.674212 -1.8372 0
M  V30 47690 C 4528.55 -2.77563 -2.25152 0
M  V30 47691 C 4528.22 -4.17295 -1.70808 0
M  V30 47692 C 4526.88 -4.55311 -1.55709 0
M  V30 47693 C 4529.23 -5.04541 -1.30722 0
M  V30 47694 C 4526.56 -5.78291 -0.989795 0
M  V30 47695 C 4528.91 -6.28087 -0.754261 0
M  V30 47696 C 4527.57 -6.64887 -0.590075 0
M  V30 47697 H 4526.84 -0.596771 -0.439256 0
M  V30 47698 H 4529.49 -1.85038 -0.493265 0
M  V30 47699 H 4527.8 -2.49782 -3.01855 0
M  V30 47700 H 4529.49 -2.84083 -2.83016 0
M  V30 47701 H 4526.08 -3.87316 -1.83533 0
M  V30 47702 H 4530.27 -4.75786 -1.41212 0
M  V30 47703 H 4525.52 -6.05459 -0.850238 0
M  V30 47704 H 4529.7 -6.9504 -0.43508 0
M  V30 47705 H 4527.32 -7.60055 -0.148353 0
M  V30 47706 N 4528.9 0.704544 -1.40975 0
M  V30 47707 C 4529.83 1.82856 -1.36524 0
M  V30 47708 C 4530.81 1.60909 -0.233877 0
M  V30 47709 O 4531.99 1.83777 -0.419336 0
M  V30 47710 C 4529.12 3.19386 -1.1274 0
M  V30 47711 C 4528.17 3.6014 -2.28476 0
M  V30 47712 S 4529 3.6598 -3.9092 0
M  V30 47713 C 4530.16 5.05251 -3.69421 0
M  V30 47714 H 4530.39 1.86352 -2.31646 0
M  V30 47715 H 4527.92 0.872394 -1.27392 0
M  V30 47716 H 4529.88 3.98208 -0.997033 0
M  V30 47717 H 4528.54 3.13509 -0.192537 0
M  V30 47718 H 4527.73 4.59301 -2.07505 0
M  V30 47719 H 4527.34 2.88604 -2.37873 0
M  V30 47720 H 4529.63 5.92492 -3.28572 0
M  V30 47721 H 4530.57 5.31261 -4.68153 0
M  V30 47722 H 4530.98 4.76366 -3.02879 0
M  V30 47723 N 4530.38 1.26654 0.937895 0
M  V30 47724 C 4531.79 1.03838 1.21202 0
M  V30 47725 C 4531.99 -0.234432 2.00132 0
M  V30 47726 O 4531.05 -0.942685 2.34243 0
M  V30 47727 C 4532.36 2.27174 1.97009 0
M  V30 47728 C 4533.91 2.32108 2.09987 0
M  V30 47729 C 4534.38 3.55146 2.89198 0
M  V30 47730 N 4535.88 3.55643 2.9677 0
M  V30 47731 C 4536.61 4.47513 3.58497 0
M  V30 47732 N 4536.11 5.49675 4.21698 0
M  V30 47733 N 4537.9 4.35157 3.55801 0
M  V30 47734 H 4530.05 2.08399 0.410317 0
M  V30 47735 H 4532.31 0.916039 0.244082 0
M  V30 47736 H 4532.02 3.19771 1.46423 0
M  V30 47737 H 4531.89 2.31682 2.97663 0
M  V30 47738 H 4534.28 1.40024 2.59764 0
M  V30 47739 H 4534.36 2.31609 1.08586 0
M  V30 47740 H 4534.01 4.47561 2.40107 0
M  V30 47741 H 4533.94 3.52894 3.90862 0
M  V30 47742 H 4536.43 2.81752 2.51842 0
M  V30 47743 H 4536.74 6.15959 4.66705 0
M  V30 47744 H 4535.08 5.53529 4.20274 0
M  V30 47745 H 4538.28 3.54561 3.05621 0
M  V30 47746 H 4538.45 5.06948 4.03619 0
M  V30 47747 N 4531.85 -1.14294 1.08511 0
M  V30 47748 C 4533.1 -1.85356 0.815439 0
M  V30 47749 C 4533.43 -1.83003 -0.658801 0
M  V30 47750 O 4532.68 -1.25661 -1.50026 0
M  V30 47751 C 4532.98 -3.33542 1.28391 0
M  V30 47752 C 4532.65 -3.56083 2.76614 0
M  V30 47753 C 4531.31 -3.61944 3.17097 0
M  V30 47754 C 4533.66 -3.64821 3.7223 0
M  V30 47755 C 4530.99 -3.74066 4.51986 0
M  V30 47756 C 4533.34 -3.78469 5.06896 0
M  V30 47757 C 4532.01 -3.82579 5.46982 0
M  V30 47758 H 4531.28 -0.678266 0.29839 0
M  V30 47759 H 4533.92 -1.34997 1.35823 0
M  V30 47760 H 4532.23 -3.86189 0.660729 0
M  V30 47761 H 4533.93 -3.86955 1.05199 0
M  V30 47762 H 4530.52 -3.52171 2.44282 0
M  V30 47763 H 4534.7 -3.59583 3.42073 0
M  V30 47764 H 4529.96 -3.7551 4.82496 0
M  V30 47765 H 4534.13 -3.84173 5.80848 0
M  V30 47766 H 4531.76 -3.91724 6.51503 0
M  V30 47767 N 4533.33 -0.87093 -1.31349 0
M  V30 47768 C 4534.75 -0.562985 -1.49341 0
M  V30 47769 C 4534.95 0.902662 -1.80151 0
M  V30 47770 O 4534 1.68478 -1.88073 0
M  V30 47771 C 4535.32 -1.46402 -2.62653 0
M  V30 47772 C 4536.87 -1.46617 -2.76537 0
M  V30 47773 C 4537.34 -2.3528 -3.92947 0
M  V30 47774 N 4538.83 -2.33165 -4.00235 0
M  V30 47775 C 4539.57 -2.98488 -4.89584 0
M  V30 47776 N 4539.06 -3.72985 -5.83827 0
M  V30 47777 N 4540.86 -2.87792 -4.82837 0
M  V30 47778 H 4533.01 -1.81927 -1.0962 0
M  V30 47779 H 4535.27 -0.777953 -0.54175 0
M  V30 47780 H 4534.98 -2.50697 -2.46665 0
M  V30 47781 H 4534.85 -1.16327 -3.58815 0
M  V30 47782 H 4537.24 -0.430792 -2.91939 0
M  V30 47783 H 4537.32 -1.80716 -1.81039 0
M  V30 47784 H 4536.96 -3.38894 -3.78303 0
M  V30 47785 H 4536.89 -1.98504 -4.87754 0
M  V30 47786 H 4539.38 -1.79017 -3.32808 0
M  V30 47787 H 4539.7 -4.19955 -6.48736 0
M  V30 47788 H 4538.04 -3.77093 -5.83803 0
M  V30 47789 H 4541.23 -2.29131 -4.08187 0
M  V30 47790 H 4541.4 -3.3898 -5.52265 0
M  V30 47791 N 4534.81 1.4444 -0.630465 0
M  V30 47792 C 4536.23 1.56831 -0.296028 0
M  V30 47793 C 4536.43 1.6181 1.20082 0
M  V30 47794 O 4535.48 1.56077 1.98485 0
M  V30 47795 C 4536.8 2.84027 -0.987364 0
M  V30 47796 C 4538.34 2.97738 -0.965444 0
M  V30 47797 C 4538.82 4.27737 -1.63723 0
M  V30 47798 N 4540.31 4.34549 -1.60379 0
M  V30 47799 C 4541.04 5.33855 -2.09253 0
M  V30 47800 N 4540.54 6.39569 -2.66315 0
M  V30 47801 N 4542.33 5.25359 -1.99886 0
M  V30 47802 H 4534.48 1.39451 -1.6021 0
M  V30 47803 H 4536.75 0.668213 -0.672455 0
M  V30 47804 H 4536.45 2.86331 -2.04225 0
M  V30 47805 H 4536.33 3.73533 -0.52472 0
M  V30 47806 H 4538.71 2.94989 0.0809602 0
M  V30 47807 H 4538.8 2.09584 -1.46657 0
M  V30 47808 H 4538.44 4.31246 -2.68308 0
M  V30 47809 H 4538.37 5.14748 -1.11094 0
M  V30 47810 H 4540.86 3.58768 -1.18717 0
M  V30 47811 H 4541.17 7.11627 -3.01342 0
M  V30 47812 H 4539.52 6.40256 -2.70365 0
M  V30 47813 H 4542.71 4.41683 -1.55029 0
M  V30 47814 H 4542.88 6.02598 -2.38286 0
M  V30 47815 N 4536.29 0.370972 1.53172 0
M  V30 47816 C 4537.25 -0.460699 2.24522 0
M  V30 47817 C 4538.25 -1.00531 1.25499 0
M  V30 47818 O 4539.44 -0.890213 1.49736 0
M  V30 47819 C 4536.57 -1.64447 2.98613 0
M  V30 47820 H 4537.77 0.163718 2.99453 0
M  V30 47821 H 4535.32 0.122753 1.55817 0
M  V30 47822 H 4536.05 -2.30683 2.27938 0
M  V30 47823 H 4535.84 -1.26086 3.71275 0
M  V30 47824 H 4537.33 -2.23372 3.52838 0
M  V30 47825 N 4537.77 -1.57281 0.100283 0
M  V30 47826 C 4539.01 -1.94539 -0.5622 0
M  V30 47827 C 4539.34 -0.982374 -1.67868 0
M  V30 47828 O 4538.6 -0.00287815 -1.957 0
M  V30 47829 C 4538.9 -3.38309 -1.15247 0
M  V30 47830 C 4538.56 -4.50619 -0.15925 0
M  V30 47831 C 4537.22 -4.81065 0.11391 0
M  V30 47832 C 4539.58 -5.18613 0.518643 0
M  V30 47833 C 4536.9 -5.76831 1.07157 0
M  V30 47834 C 4539.26 -6.15407 1.46481 0
M  V30 47835 C 4537.92 -6.44256 1.74615 0
M  V30 47836 H 4537.19 -0.71187 -0.205723 0
M  V30 47837 H 4539.84 -1.90678 0.177217 0
M  V30 47838 H 4538.14 -3.38773 -1.96825 0
M  V30 47839 H 4539.84 -3.64441 -1.67284 0
M  V30 47840 H 4536.43 -4.26891 -0.382341 0
M  V30 47841 H 4540.61 -4.95262 0.320755 0
M  V30 47842 H 4535.87 -5.97496 1.29649 0
M  V30 47843 H 4540.04 -6.67187 1.99587 0
M  V30 47844 H 4537.67 -7.18271 2.48978 0
M  V30 47845 N 4539.25 0.173432 -1.56643 0
M  V30 47846 C 4540.49 0.888642 -1.81515 0
M  V30 47847 C 4540.81 1.82873 -0.676936 0
M  V30 47848 O 4540.08 1.93537 0.303346 0
M  V30 47849 H 4538.66 0.33114 -0.669593 0
M  V30 47850 H 4541.33 0.173755 -1.94124 0
M  V30 47851 H 4540.42 1.46681 -2.75483 0
M  V30 47852 N 4540.72 1.51278 0.441914 0
M  V30 47853 C 4541.63 1.75097 1.56135 0
M  V30 47854 C 4542.65 0.63502 1.61998 0
M  V30 47855 O 4543.83 0.916749 1.79326 0
M  V30 47856 C 4540.89 1.86677 2.92152 0
M  V30 47857 C 4539.95 3.10517 2.96442 0
M  V30 47858 C 4539.18 3.21534 4.25971 0
M  V30 47859 O 4539.41 2.38604 5.18097 0
M  V30 47860 O 4538.34 4.1448 4.36452 0
M  V30 47861 H 4542.17 2.70049 1.38951 0
M  V30 47862 H 4539.75 1.35724 0.624452 0
M  V30 47863 H 4541.63 1.96305 3.72884 0
M  V30 47864 H 4540.31 0.949123 3.09473 0
M  V30 47865 H 4539.22 3.0637 2.14681 0
M  V30 47866 H 4540.55 4.01955 2.84065 0
M  V30 47867 N 4542.2 -0.697058 1.41347 0
M  V30 47868 C 4543.43 -1.48372 1.43768 0
M  V30 47869 C 4543.84 -1.89156 0.0409391 0
M  V30 47870 O 4543.18 -1.57243 -0.949757 0
M  V30 47871 C 4543.24 -2.77802 2.2818 0
M  V30 47872 C 4542.91 -2.59231 3.76362 0
M  V30 47873 C 4543.91 -2.25275 4.68559 0
M  V30 47874 C 4541.59 -2.74918 4.20387 0
M  V30 47875 C 4543.58 -2.07242 6.02768 0
M  V30 47876 C 4541.27 -2.56502 5.54662 0
M  V30 47877 C 4542.27 -2.22714 6.45668 0
M  V30 47878 O 4541.96 -2.04457 7.77465 0
M  V30 47879 H 4541.69 -0.463824 0.491775 0
M  V30 47880 H 4544.24 -0.865869 1.86258 0
M  V30 47881 H 4542.47 -3.41988 1.80502 0
M  V30 47882 H 4544.16 -3.396 2.22321 0
M  V30 47883 H 4544.93 -2.12772 4.35836 0
M  V30 47884 H 4540.81 -3.002 3.49858 0
M  V30 47885 H 4544.35 -1.80793 6.73765 0
M  V30 47886 H 4540.25 -2.68595 5.86964 0
M  V30 47887 H 4541.02 -2.19232 7.88593 0
M  V30 47888 N 4543.68 -1.2715 -0.931165 0
M  V30 47889 C 4544.9 -1.16197 -1.71793 0
M  V30 47890 C 4545.33 0.277938 -1.86035 0
M  V30 47891 O 4544.69 1.20132 -1.35787 0
M  V30 47892 C 4544.74 -1.84684 -3.09716 0
M  V30 47893 O 4543.84 -1.14245 -3.9626 0
M  V30 47894 H 4543.18 -0.404322 -0.526707 0
M  V30 47895 H 4545.71 -1.68156 -1.16554 0
M  V30 47896 H 4545.72 -1.91906 -3.6005 0
M  V30 47897 H 4544.4 -2.89432 -2.98667 0
M  V30 47898 H 4542.97 -1.15068 -3.54702 0
M  V30 47899 N 4545.16 1.13717 -1.09116 0
M  V30 47900 C 4546.11 2.1708 -0.697167 0
M  V30 47901 C 4547.09 1.58322 0.286868 0
M  V30 47902 O 4548.28 1.7673 0.0977386 0
M  V30 47903 C 4545.41 3.43104 -0.11585 0
M  V30 47904 C 4544.5 4.08876 -1.12611 0
M  V30 47905 N 4544.89 4.49862 -2.3121 0
M  V30 47906 C 4543.19 4.35468 -0.963519 0
M  V30 47907 C 4543.89 5.01084 -2.95449 0
M  V30 47908 N 4542.86 4.95743 -2.23024 0
M  V30 47909 H 4546.67 2.46518 -1.60019 0
M  V30 47910 H 4544.18 1.30478 -0.966915 0
M  V30 47911 H 4546.18 4.16492 0.184408 0
M  V30 47912 H 4544.84 3.15141 0.782059 0
M  V30 47913 H 4545.85 4.42668 -2.68822 0
M  V30 47914 H 4542.53 4.17327 -0.120024 0
M  V30 47915 H 4543.92 5.42616 -3.96255 0
M  V30 47916 N 4546.64 0.877884 1.30885 0
M  V30 47917 C 4547.88 0.493495 1.96704 0
M  V30 47918 C 4548.21 -0.953444 1.69184 0
M  V30 47919 O 4547.49 -1.67262 0.992653 0
M  V30 47920 C 4547.77 0.760553 3.51977 0
M  V30 47921 C 4547.63 2.2576 3.8904 0
M  V30 47922 C 4548.94 0.232303 4.39486 0
M  V30 47923 H 4546.06 0.180771 0.714486 0
M  V30 47924 H 4548.71 1.10058 1.54878 0
M  V30 47925 H 4546.86 0.243851 3.87734 0
M  V30 47926 H 4548.53 2.84217 3.63344 0
M  V30 47927 H 4546.77 2.72706 3.37363 0
M  V30 47928 H 4547.44 2.39509 4.97332 0
M  V30 47929 H 4549.92 0.674458 4.10597 0
M  V30 47930 H 4548.79 0.448547 5.47064 0
M  V30 47931 H 4549.05 -0.866144 4.33532 0
M  V30 47932 N 4548.11 -1.44104 0.638116 0
M  V30 47933 C 4549.36 -2.02277 0.145617 0
M  V30 47934 C 4549.69 -1.5013 -1.23186 0
M  V30 47935 O 4548.97 -0.688197 -1.81918 0
M  V30 47936 C 4549.25 -3.59828 0.139918 0
M  V30 47937 C 4549.1 -4.22241 1.55023 0
M  V30 47938 C 4550.42 -4.36875 -0.531812 0
M  V30 47939 H 4547.54 -0.73499 0.054389 0
M  V30 47940 H 4550.18 -1.71589 0.815923 0
M  V30 47941 H 4548.33 -3.86103 -0.430871 0
M  V30 47942 H 4550.01 -4.07049 2.17045 0
M  V30 47943 H 4548.25 -3.79469 2.10204 0
M  V30 47944 H 4548.92 -5.31279 1.49822 0
M  V30 47945 H 4551.4 -4.16074 -0.0463318 0
M  V30 47946 H 4550.27 -5.46572 -0.505014 0
M  V30 47947 H 4550.53 -4.12 -1.60338 0
M  V30 47948 N 4549.59 -0.37909 -1.52973 0
M  V30 47949 C 4550.55 0.448786 -2.24763 0
M  V30 47950 C 4551.55 0.998645 -1.26031 0
M  V30 47951 O 4552.74 0.88226 -1.50206 0
M  V30 47952 C 4549.88 1.62861 -2.99481 0
M  V30 47953 H 4551.07 -0.179596 -2.99362 0
M  V30 47954 H 4548.62 -0.131015 -1.5575 0
M  V30 47955 H 4549.36 2.29471 -2.29159 0
M  V30 47956 H 4549.14 1.24115 -3.71938 0
M  V30 47957 H 4550.63 2.21497 -3.54018 0
M  V30 47958 N 4551.07 1.57225 -0.108623 0
M  V30 47959 C 4552.32 1.94835 0.551875 0
M  V30 47960 C 4552.64 0.991263 1.67345 0
M  V30 47961 O 4551.9 0.0132565 1.95696 0
M  V30 47962 C 4552.2 3.38915 1.13451 0
M  V30 47963 C 4551.86 4.50697 0.13535 0
M  V30 47964 C 4550.53 4.80998 -0.139421 0
M  V30 47965 C 4552.88 5.18331 -0.546139 0
M  V30 47966 C 4550.21 5.76255 -1.10214 0
M  V30 47967 C 4552.56 6.14622 -1.49742 0
M  V30 47968 C 4551.22 6.43321 -1.78029 0
M  V30 47969 H 4550.49 0.712951 0.201945 0
M  V30 47970 H 4553.14 1.90582 -0.187327 0
M  V30 47971 H 4551.44 3.39812 1.95025 0
M  V30 47972 H 4553.14 3.65323 1.65349 0
M  V30 47973 H 4549.73 4.27088 0.359696 0
M  V30 47974 H 4553.92 4.95085 -0.347016 0
M  V30 47975 H 4549.17 5.968 -1.32816 0
M  V30 47976 H 4553.35 6.66119 -2.03123 0
M  V30 47977 H 4550.97 7.16941 -2.52784 0
M  V30 47978 N 4552.55 -0.165123 1.56733 0
M  V30 47979 C 4553.5 -1.22363 1.97813 0
M  V30 47980 C 4554.49 -1.45484 0.867792 0
M  V30 47981 O 4555.7 -1.45991 1.05293 0
M  V30 47982 H 4552.07 -0.411463 0.629446 0
M  V30 47983 H 4554.04 -0.850324 2.86028 0
M  V30 47984 C 4552.79 -2.55394 2.35943 0
M  V30 47985 H 4552.11 -2.38427 3.20925 0
M  V30 47986 H 4553.55 -3.28131 2.68526 0
M  V30 47987 C 4552.01 -3.14606 1.20517 0
M  V30 47988 O 4552.54 -3.98624 0.496156 0
M  V30 47989 N 4550.75 -2.73787 0.974126 0
M  V30 47990 H 4550.3 -2.05564 1.55245 0
M  V30 47991 H 4550.25 -3.1374 0.203684 0
M  V30 47992 N 4554.03 -1.5151 -0.433885 0
M  V30 47993 C 4555.25 -1.68162 -1.20538 0
M  V30 47994 C 4555.67 -0.380427 -1.84928 0
M  V30 47995 O 4555.03 0.641386 -1.70858 0
M  V30 47996 C 4555.08 -2.79973 -2.28686 0
M  V30 47997 O 4554.8 -4.05051 -1.66929 0
M  V30 47998 C 4556.3 -3.07923 -3.18901 0
M  V30 47999 H 4553.52 -0.564223 -0.363171 0
M  V30 48000 H 4556.06 -1.97943 -0.513684 0
M  V30 48001 H 4554.22 -2.52781 -2.93565 0
M  V30 48002 H 4554.63 -4.67173 -2.38431 0
M  V30 48003 H 4556.11 -3.89733 -3.90912 0
M  V30 48004 H 4556.58 -2.2047 -3.79855 0
M  V30 48005 H 4557.19 -3.36788 -2.59719 0
M  V30 48006 N 4555.5 0.689552 -1.41714 0
M  V30 48007 C 4556.43 1.81572 -1.46813 0
M  V30 48008 C 4557.42 1.66944 -0.326163 0
M  V30 48009 O 4558.6 1.86586 -0.538442 0
M  V30 48010 C 4555.73 3.19757 -1.35547 0
M  V30 48011 C 4554.68 3.49099 -2.47617 0
M  V30 48012 C 4554.01 4.86703 -2.21414 0
M  V30 48013 C 4555.31 3.4747 -3.89951 0
M  V30 48014 H 4557 1.77562 -2.41065 0
M  V30 48015 H 4554.55 0.852846 -1.16028 0
M  V30 48016 H 4556.5 3.98259 -1.37724 0
M  V30 48017 H 4555.23 3.24407 -0.377822 0
M  V30 48018 H 4553.89 2.7295 -2.44732 0
M  V30 48019 H 4553.53 4.87986 -1.21978 0
M  V30 48020 H 4553.23 5.07299 -2.96515 0
M  V30 48021 H 4554.76 5.67507 -2.25317 0
M  V30 48022 H 4556.17 4.15966 -3.94519 0
M  V30 48023 H 4554.57 3.79599 -4.64785 0
M  V30 48024 H 4555.64 2.46326 -4.17674 0
M  V30 48025 N 4556.98 1.27642 0.924409 0
M  V30 48026 C 4557.91 1.13173 2.0424 0
M  V30 48027 C 4558.89 0.0323158 1.70069 0
M  V30 48028 O 4560.08 0.207396 1.93089 0
M  V30 48029 C 4557.21 0.781615 3.3839 0
M  V30 48030 C 4556.16 1.83463 3.86685 0
M  V30 48031 C 4555.49 1.3384 5.17678 0
M  V30 48032 C 4556.79 3.23931 4.09714 0
M  V30 48033 H 4558.48 2.06697 2.16603 0
M  V30 48034 H 4556.03 0.995173 1.04078 0
M  V30 48035 H 4557.98 0.667203 4.16085 0
M  V30 48036 H 4556.71 -0.189324 3.26051 0
M  V30 48037 H 4555.36 1.938 3.11187 0
M  V30 48038 H 4555.01 0.356826 5.01733 0
M  V30 48039 H 4554.71 2.04244 5.50961 0
M  V30 48040 H 4556.24 1.237 5.97939 0
M  V30 48041 H 4557.65 3.16576 4.77967 0
M  V30 48042 H 4556.05 3.92075 4.5431 0
M  V30 48043 H 4557.12 3.6874 3.14895 0
M  V30 48044 N 4558.46 -1.13137 1.09717 0
M  V30 48045 C 4559.71 -1.84481 0.835052 0
M  V30 48046 C 4560.04 -1.83691 -0.639354 0
M  V30 48047 O 4559.29 -1.27245 -1.48685 0
M  V30 48048 C 4559.59 -3.32162 1.31921 0
M  V30 48049 C 4559.26 -3.53129 2.80376 0
M  V30 48050 C 4557.92 -3.5856 3.20918 0
M  V30 48051 C 4560.27 -3.60853 3.76078 0
M  V30 48052 C 4557.6 -3.69251 4.55929 0
M  V30 48053 C 4559.95 -3.73072 5.10882 0
M  V30 48054 C 4558.61 -3.76756 5.51009 0
M  V30 48055 H 4557.88 -0.675063 0.305567 0
M  V30 48056 H 4560.53 -1.33549 1.37248 0
M  V30 48057 H 4558.84 -3.85466 0.701652 0
M  V30 48058 H 4560.53 -3.85817 1.09298 0
M  V30 48059 H 4557.12 -3.4956 2.48004 0
M  V30 48060 H 4561.31 -3.55934 3.45868 0
M  V30 48061 H 4556.56 -3.70371 4.86451 0
M  V30 48062 H 4560.74 -3.7799 5.8489 0
M  V30 48063 H 4558.36 -3.84792 6.55621 0
M  V30 48064 N 4559.94 -0.884812 -1.30418 0
M  V30 48065 C 4560.87 -0.367655 -2.30587 0
M  V30 48066 C 4561.85 0.549408 -1.60983 0
M  V30 48067 O 4563.03 0.463294 -1.88593 0
M  V30 48068 C 4560.16 0.418822 -3.44765 0
M  V30 48069 C 4559.12 -0.406466 -4.26066 0
M  V30 48070 C 4558.44 0.506606 -5.32295 0
M  V30 48071 C 4559.74 -1.64849 -4.95603 0
M  V30 48072 H 4561.44 -1.20472 -2.74093 0
M  V30 48073 H 4558.98 -0.580741 -1.3177 0
M  V30 48074 H 4560.94 0.79125 -4.13905 0
M  V30 48075 H 4559.66 1.28953 -3.00064 0
M  V30 48076 H 4558.32 -0.76103 -3.58614 0
M  V30 48077 H 4557.97 1.37502 -4.83841 0
M  V30 48078 H 4557.67 -0.0417893 -5.87585 0
M  V30 48079 H 4559.19 0.875552 -6.0429 0
M  V30 48080 H 4560.61 -1.34666 -5.57259 0
M  V30 48081 H 4559 -2.13707 -5.60758 0
M  V30 48082 H 4560.07 -2.39299 -4.21739 0
M  V30 48083 N 4561.42 1.43763 -0.645749 0
M  V30 48084 C 4562.35 2.27981 0.099992 0
M  V30 48085 C 4563.33 1.39394 0.837145 0
M  V30 48086 O 4564.51 1.68836 0.838247 0
M  V30 48087 C 4561.64 3.18647 1.14812 0
M  V30 48088 C 4560.68 4.23441 0.50986 0
M  V30 48089 S 4561.52 5.30759 -0.71101 0
M  V30 48090 C 4562.67 6.24993 0.33677 0
M  V30 48091 H 4562.91 2.90882 -0.614424 0
M  V30 48092 H 4560.44 1.48164 -0.434356 0
M  V30 48093 H 4562.4 3.7143 1.74786 0
M  V30 48094 H 4561.06 2.54938 1.83481 0
M  V30 48095 H 4560.25 4.86953 1.29974 0
M  V30 48096 H 4559.85 3.73997 -0.0155892 0
M  V30 48097 H 4562.15 6.66695 1.20514 0
M  V30 48098 H 4563.09 7.07611 -0.263128 0
M  V30 48099 H 4563.5 5.60519 0.669228 0
M  V30 48100 N 4562.89 0.387197 1.5277 0
M  V30 48101 C 4564.12 -0.198335 2.06449 0
M  V30 48102 C 4564.54 -1.39914 1.25721 0
M  V30 48103 O 4563.9 -1.79098 0.28172 0
M  V30 48104 C 4563.95 -0.548768 3.564 0
M  V30 48105 O 4563.05 -1.64302 3.78258 0
M  V30 48106 H 4562.4 -0.0237498 0.663575 0
M  V30 48107 H 4564.93 0.554058 1.96955 0
M  V30 48108 H 4564.94 -0.813671 3.99804 0
M  V30 48109 H 4563.61 0.32915 4.14595 0
M  V30 48110 H 4562.19 -1.37199 3.46743 0
M  V30 48111 N 4564.37 -1.57165 0.116959 0
M  V30 48112 C 4565.62 -1.95125 -0.541534 0
M  V30 48113 C 4565.95 -1.00012 -1.66817 0
M  V30 48114 O 4565.2 -0.0236346 -1.95686 0
M  V30 48115 C 4565.5 -3.39512 -1.11652 0
M  V30 48116 C 4565.17 -4.50762 -0.111447 0
M  V30 48117 C 4563.83 -4.80917 0.164927 0
M  V30 48118 C 4566.18 -5.18034 0.57362 0
M  V30 48119 C 4563.51 -5.75662 1.13269 0
M  V30 48120 C 4565.86 -6.13819 1.53 0
M  V30 48121 C 4564.53 -6.42368 1.81438 0
M  V30 48122 H 4563.8 -0.714012 -0.198161 0
M  V30 48123 H 4566.44 -1.9048 0.197431 0
M  V30 48124 H 4564.75 -3.40842 -1.9322 0
M  V30 48125 H 4566.44 -3.66195 -1.63409 0
M  V30 48126 H 4563.03 -4.27273 -0.337042 0
M  V30 48127 H 4567.22 -4.94894 0.373266 0
M  V30 48128 H 4562.47 -5.96087 1.35979 0
M  V30 48129 H 4566.65 -6.65032 2.06652 0
M  V30 48130 H 4564.28 -7.1559 2.56583 0
M  V30 48131 N 4565.85 0.156809 -1.56818 0
M  V30 48132 C 4567.08 0.88625 -1.86958 0
M  V30 48133 C 4567.49 1.75182 -0.704037 0
M  V30 48134 O 4566.85 1.79556 0.326489 0
M  V30 48135 C 4566.9 1.75106 -3.1626 0
M  V30 48136 O 4566.62 0.920386 -4.28323 0
M  V30 48137 C 4568.12 2.58893 -3.59846 0
M  V30 48138 H 4565.34 0.256758 -0.619932 0
M  V30 48139 H 4567.89 0.152544 -2.0393 0
M  V30 48140 H 4566.04 2.43794 -3.0107 0
M  V30 48141 H 4566.46 1.5132 -5.02198 0
M  V30 48142 H 4567.93 3.15165 -4.53184 0
M  V30 48143 H 4568.41 3.34462 -2.84661 0
M  V30 48144 H 4569.01 1.95512 -3.77697 0
M  V30 48145 N 4567.33 1.51738 0.425844 0
M  V30 48146 C 4568.57 1.65219 1.17604 0
M  V30 48147 C 4568.91 0.372845 1.90587 0
M  V30 48148 O 4568.18 -0.628074 1.8408 0
M  V30 48149 C 4568.47 2.86319 2.18388 0
M  V30 48150 C 4568.32 4.2426 1.49411 0
M  V30 48151 C 4569.64 3.02936 3.19246 0
M  V30 48152 H 4566.76 0.601278 0.426185 0
M  V30 48153 H 4569.4 1.84252 0.463818 0
M  V30 48154 H 4567.55 2.70223 2.79127 0
M  V30 48155 H 4569.22 4.52049 0.919203 0
M  V30 48156 H 4567.46 4.26429 0.796282 0
M  V30 48157 H 4568.13 5.05009 2.22867 0
M  V30 48158 H 4570.61 3.1782 2.6857 0
M  V30 48159 H 4569.49 3.89213 3.87046 0
M  V30 48160 H 4569.75 2.15511 3.86015 0
M  V30 48161 N 4568.81 -0.682027 1.42078 0
M  V30 48162 C 4569.74 -1.8079 1.47774 0
M  V30 48163 C 4570.72 -1.66768 0.335012 0
M  V30 48164 O 4571.9 -1.86298 0.54833 0
M  V30 48165 C 4569.03 -3.19033 1.3724 0
M  V30 48166 C 4567.99 -3.47781 2.49465 0
M  V30 48167 C 4567.31 -4.85522 2.23992 0
M  V30 48168 C 4568.61 -3.45397 3.91789 0
M  V30 48169 H 4570.31 -1.76281 2.42003 0
M  V30 48170 H 4567.85 -0.846681 1.16479 0
M  V30 48171 H 4569.81 -3.97523 1.39835 0
M  V30 48172 H 4568.53 -3.24202 0.395021 0
M  V30 48173 H 4567.19 -2.71649 2.46176 0
M  V30 48174 H 4566.84 -4.87332 1.24564 0
M  V30 48175 H 4566.54 -5.0572 2.99201 0
M  V30 48176 H 4568.06 -5.66304 2.28324 0
M  V30 48177 H 4569.48 -4.13868 3.9672 0
M  V30 48178 H 4567.87 -3.77129 4.66791 0
M  V30 48179 H 4568.94 -2.44107 4.18974 0
M  V30 48180 N 4570.29 -1.2813 -0.917626 0
M  V30 48181 C 4571.53 -1.16306 -1.68084 0
M  V30 48182 C 4571.89 0.284448 -1.89881 0
M  V30 48183 O 4573.09 0.52532 -2.63617 0
M  V30 48184 C 4571.36 -1.93557 -3.00451 0
M  V30 48185 S 4572.92 -1.98062 -3.91557 0
M  V30 48186 H 4569.74 -0.415025 -0.5773 0
M  V30 48187 H 4572.34 -1.62177 -1.09173 0
M  V30 48188 H 4571.04 -2.97898 -2.82285 0
M  V30 48189 H 4570.58 -1.4822 -3.6441 0
M  V30 48190 H 4572.59 -1.08432 -4.84208 0
M  V30 48191 N 4571.76 1.12553 -1.10316 0
M  V30 48192 C 4572.69 2.20338 -0.772876 0
M  V30 48193 C 4573.67 1.68199 0.253591 0
M  V30 48194 O 4574.86 1.93831 0.119631 0
M  V30 48195 C 4571.99 3.46709 -0.202565 0
M  V30 48196 C 4570.94 4.11992 -1.15958 0
M  V30 48197 C 4570.27 5.32799 -0.450532 0
M  V30 48198 C 4571.57 4.58271 -2.50568 0
M  V30 48199 H 4573.26 2.48223 -1.67409 0
M  V30 48200 H 4570.81 1.19305 -0.806368 0
M  V30 48201 H 4572.76 4.2138 0.0406271 0
M  V30 48202 H 4571.49 3.18248 0.733889 0
M  V30 48203 H 4570.15 3.393 -1.3882 0
M  V30 48204 H 4569.79 5.00604 0.490355 0
M  V30 48205 H 4569.49 5.77426 -1.08872 0
M  V30 48206 H 4571.02 6.10218 -0.215856 0
M  V30 48207 H 4572.43 5.24322 -2.31861 0
M  V30 48208 H 4570.83 5.13672 -3.1026 0
M  V30 48209 H 4571.9 3.72318 -3.10657 0
M  V30 48210 N 4573.24 0.891716 1.29947 0
M  V30 48211 C 4574.47 0.52873 2.0003 0
M  V30 48212 C 4574.88 -0.884516 1.66799 0
M  V30 48213 O 4574.24 -1.58267 0.908724 0
M  V30 48214 C 4574.29 0.701938 3.5462 0
M  V30 48215 O 4574.01 2.05955 3.86671 0
M  V30 48216 C 4575.51 0.342839 4.41972 0
M  V30 48217 H 4572.73 0.203681 0.639339 0
M  V30 48218 H 4575.28 1.19887 1.65672 0
M  V30 48219 H 4573.43 0.079083 3.87319 0
M  V30 48220 H 4573.85 2.08308 4.81361 0
M  V30 48221 H 4575.32 0.514902 5.49593 0
M  V30 48222 H 4575.8 -0.719597 4.33265 0
M  V30 48223 H 4576.4 0.9423 4.1473 0
M  V30 48224 N 4574.72 -1.43419 0.653364 0
M  V30 48225 C 4576.13 -1.85064 0.246602 0
M  V30 48226 C 4576.48 -1.54692 -1.20685 0
M  V30 48227 O 4575.61 -0.995964 -1.92119 0
M  V30 48228 C 4576.2 -3.3592 0.440784 0
M  V30 48229 C 4574.76 -3.76296 0.0883387 0
M  V30 48230 C 4573.91 -2.67145 0.743578 0
M  V30 48231 H 4576.86 -1.33569 0.857026 0
M  V30 48232 H 4576.88 -3.79205 -0.313665 0
M  V30 48233 H 4576.39 -3.57995 1.49871 0
M  V30 48234 H 4574.49 -3.59834 -0.966984 0
M  V30 48235 H 4574.61 -4.76336 0.513905 0
M  V30 48236 H 4572.97 -2.54086 0.176802 0
M  V30 48237 H 4573.75 -2.92047 1.80453 0
M  V30 48238 N 4576.2 -0.395293 -1.52562 0
M  V30 48239 C 4577.44 0.185247 -2.01952 0
M  V30 48240 C 4577.78 1.45959 -1.281 0
M  V30 48241 O 4577.05 1.90687 -0.383217 0
M  V30 48242 C 4577.33 0.447068 -3.57314 0
M  V30 48243 C 4577.19 -0.842984 -4.4183 0
M  V30 48244 C 4578.51 1.23514 -4.22412 0
M  V30 48245 H 4575.63 0.065853 -0.734052 0
M  V30 48246 H 4578.27 -0.52604 -1.82573 0
M  V30 48247 H 4576.42 1.05299 -3.73958 0
M  V30 48248 H 4578.09 -1.47965 -4.36926 0
M  V30 48249 H 4576.33 -1.457 -4.086 0
M  V30 48250 H 4577 -0.614358 -5.48571 0
M  V30 48251 H 4579.48 0.722301 -4.09783 0
M  V30 48252 H 4578.36 1.38708 -5.31085 0
M  V30 48253 H 4578.62 2.252 -3.80444 0
M  V30 48254 N 4577.68 1.57101 -0.125292 0
M  V30 48255 C 4578.91 1.99474 0.537945 0
M  V30 48256 C 4579.31 1.00401 1.60363 0
M  V30 48257 O 4578.66 -0.010323 1.83697 0
M  V30 48258 C 4578.72 3.38266 1.21722 0
M  V30 48259 C 4578.38 4.56023 0.298737 0
M  V30 48260 C 4579.38 5.17815 -0.465125 0
M  V30 48261 C 4577.06 5.01869 0.207972 0
M  V30 48262 C 4579.06 6.23847 -1.30742 0
M  V30 48263 C 4576.75 6.07761 -0.637949 0
M  V30 48264 C 4577.74 6.68617 -1.39427 0
M  V30 48265 O 4577.43 7.72463 -2.22614 0
M  V30 48266 H 4577.16 0.65994 0.146478 0
M  V30 48267 H 4579.72 2.0432 -0.210339 0
M  V30 48268 H 4577.95 3.30192 2.01271 0
M  V30 48269 H 4579.64 3.64886 1.778 0
M  V30 48270 H 4580.4 4.83307 -0.404911 0
M  V30 48271 H 4576.28 4.54244 0.786363 0
M  V30 48272 H 4579.83 6.71277 -1.89823 0
M  V30 48273 H 4575.72 6.41698 -0.699534 0
M  V30 48274 H 4576.49 7.89588 -2.15624 0
M  V30 48275 N 4579.15 -0.14849 1.56899 0
M  V30 48276 C 4580.38 -0.880319 1.8779 0
M  V30 48277 C 4580.8 -1.74016 0.714155 0
M  V30 48278 O 4580.16 -1.78154 -0.33628 0
M  V30 48279 C 4580.21 -1.7141 3.17255 0
M  V30 48280 O 4579.31 -2.81819 3.01084 0
M  V30 48281 H 4578.65 -0.245279 0.617037 0
M  V30 48282 H 4581.18 -0.139755 2.04122 0
M  V30 48283 H 4581.19 -2.10942 3.49238 0
M  V30 48284 H 4579.87 -1.08269 4.0156 0
M  V30 48285 H 4578.45 -2.45705 2.80506 0
M  V30 48286 N 4580.63 -1.51961 -0.417791 0
M  V30 48287 C 4581.88 -1.65595 -1.16553 0
M  V30 48288 C 4582.21 -0.381632 -1.90719 0
M  V30 48289 O 4581.46 0.635091 -1.85108 0
M  V30 48290 C 4581.76 -2.82277 -2.19214 0
M  V30 48291 C 4581.43 -4.20825 -1.61918 0
M  V30 48292 C 4580.09 -4.58511 -1.46016 0
M  V30 48293 C 4582.44 -5.072 -1.1999 0
M  V30 48294 C 4579.77 -5.8026 -0.866909 0
M  V30 48295 C 4582.12 -6.29546 -0.620865 0
M  V30 48296 C 4580.78 -6.65989 -0.44891 0
M  V30 48297 H 4580.05 -0.605954 -0.426499 0
M  V30 48298 H 4582.7 -1.86043 -0.453904 0
M  V30 48299 H 4581.01 -2.56128 -2.96489 0
M  V30 48300 H 4582.7 -2.90022 -2.76926 0
M  V30 48301 H 4579.29 -3.91122 -1.75276 0
M  V30 48302 H 4583.48 -4.78675 -1.31088 0
M  V30 48303 H 4578.73 -6.07127 -0.72162 0
M  V30 48304 H 4582.91 -6.95806 -0.287554 0
M  V30 48305 H 4580.53 -7.60199 0.0128993 0
M  V30 48306 N 4582.11 0.674483 -1.42438 0
M  V30 48307 C 4583.04 1.80004 -1.4873 0
M  V30 48308 C 4584.02 1.66588 -0.343852 0
M  V30 48309 O 4585.21 1.86005 -0.558202 0
M  V30 48310 C 4582.34 3.18301 -1.3893 0
M  V30 48311 C 4581.29 3.46453 -2.51306 0
M  V30 48312 C 4580.62 4.84327 -2.26564 0
M  V30 48313 C 4581.92 3.43314 -3.93615 0
M  V30 48314 H 4583.61 1.74995 -2.42934 0
M  V30 48315 H 4581.16 0.840491 -1.16926 0
M  V30 48316 H 4583.11 3.96776 -1.41941 0
M  V30 48317 H 4581.83 3.23988 -0.412208 0
M  V30 48318 H 4580.49 2.70339 -2.47613 0
M  V30 48319 H 4580.14 4.86665 -1.27147 0
M  V30 48320 H 4579.84 5.04126 -3.01879 0
M  V30 48321 H 4581.36 5.65086 -2.31324 0
M  V30 48322 H 4582.78 4.11758 -3.98909 0
M  V30 48323 H 4581.17 3.74648 -4.68785 0
M  V30 48324 H 4582.24 2.41882 -4.20263 0
M  V30 48325 N 4583.59 1.28615 0.910818 0
M  V30 48326 C 4585 1.14411 1.47537 0
M  V30 48327 C 4585.35 -0.264833 1.94404 0
M  V30 48328 O 4584.48 -1.15936 1.82723 0
M  V30 48329 C 4585.07 2.07083 2.68146 0
M  V30 48330 C 4583.63 1.96934 3.20771 0
M  V30 48331 C 4582.78 1.98653 1.93474 0
M  V30 48332 H 4585.73 1.41262 0.723241 0
M  V30 48333 H 4585.75 1.63654 3.43508 0
M  V30 48334 H 4585.26 3.09619 2.34004 0
M  V30 48335 H 4583.36 0.974456 3.59632 0
M  V30 48336 H 4583.47 2.84039 3.85822 0
M  V30 48337 H 4581.84 1.431 2.107 0
M  V30 48338 H 4582.62 3.02874 1.61624 0
M  V30 48339 N 4585.07 -1.11967 1.10911 0
M  V30 48340 C 4586.31 -1.83222 0.852884 0
M  V30 48341 C 4586.64 -1.84771 -0.623276 0
M  V30 48342 O 4585.91 -1.31435 -1.45264 0
M  V30 48343 H 4584.49 -0.678479 0.312531 0
M  V30 48344 H 4587.15 -1.35556 1.40038 0
M  V30 48345 H 4586.24 -2.87261 1.22015 0
M  V30 48346 N 4586.54 -0.898595 -1.29472 0
M  V30 48347 C 4587.79 -0.524726 -1.95894 0
M  V30 48348 C 4588.12 0.926408 -1.70679 0
M  V30 48349 O 4587.4 1.65662 -1.01914 0
M  V30 48350 C 4587.68 -0.816453 -3.50722 0
M  V30 48351 C 4587.53 -2.31921 -3.85399 0
M  V30 48352 C 4588.85 -0.302192 -4.39061 0
M  V30 48353 H 4585.97 -0.192115 -0.71152 0
M  V30 48354 H 4588.61 -1.12508 -1.53108 0
M  V30 48355 H 4586.76 -0.305505 -3.87297 0
M  V30 48356 H 4588.44 -2.89961 -3.58776 0
M  V30 48357 H 4586.68 -2.78039 -3.32982 0
M  V30 48358 H 4587.35 -2.4739 -4.93459 0
M  V30 48359 H 4589.83 -0.739695 -4.09472 0
M  V30 48360 H 4588.7 -0.535523 -5.46281 0
M  V30 48361 H 4588.96 0.797063 -4.34856 0
M  V30 48362 N 4588.02 1.4307 -0.660961 0
M  V30 48363 C 4589.25 2.05768 -0.185226 0
M  V30 48364 C 4589.66 1.49672 1.15736 0
M  V30 48365 O 4589 0.62571 1.72715 0
M  V30 48366 C 4589.07 3.59489 -0.0279501 0
M  V30 48367 C 4588.73 4.38207 -1.29705 0
M  V30 48368 C 4589.73 4.69764 -2.2275 0
M  V30 48369 C 4587.41 4.78084 -1.5408 0
M  V30 48370 C 4589.41 5.40117 -3.38456 0
M  V30 48371 C 4587.09 5.4818 -2.70078 0
M  V30 48372 C 4588.09 5.79119 -3.62091 0
M  V30 48373 O 4587.78 6.47781 -4.76062 0
M  V30 48374 H 4587.51 0.66987 -0.0908322 0
M  V30 48375 H 4590.06 1.84433 -0.904085 0
M  V30 48376 H 4588.29 3.79429 0.746356 0
M  V30 48377 H 4589.98 4.03863 0.406133 0
M  V30 48378 H 4590.75 4.39469 -2.05164 0
M  V30 48379 H 4586.63 4.53405 -0.833375 0
M  V30 48380 H 4590.17 5.64183 -4.10296 0
M  V30 48381 H 4586.07 5.77892 -2.87595 0
M  V30 48382 H 4586.84 6.66267 -4.75427 0
M  V30 48383 N 4589.5 0.403378 1.5235 0
M  V30 48384 C 4590.73 -0.176427 2.06648 0
M  V30 48385 C 4591.15 -1.38572 1.27198 0
M  V30 48386 O 4590.51 -1.78789 0.3007 0
M  V30 48387 C 4590.56 -0.510936 3.56962 0
M  V30 48388 O 4589.66 -1.6028 3.79979 0
M  V30 48389 H 4589 -0.0167104 0.66379 0
M  V30 48390 H 4591.53 0.574917 1.96356 0
M  V30 48391 H 4591.54 -0.771221 4.00645 0
M  V30 48392 H 4590.22 0.373105 4.14223 0
M  V30 48393 H 4588.79 -1.33513 3.48179 0
M  V30 48394 N 4590.98 -1.57033 0.133622 0
M  V30 48395 C 4592.22 -1.95978 -0.52158 0
M  V30 48396 C 4592.56 -1.01784 -1.65389 0
M  V30 48397 O 4591.83 -0.0577265 -1.94414 0
M  V30 48398 C 4592.12 -3.44741 -1.04045 0
M  V30 48399 C 4591.97 -4.49711 0.0894478 0
M  V30 48400 C 4593.29 -3.95689 -1.92661 0
M  V30 48401 H 4590.41 -0.712586 -0.188124 0
M  V30 48402 H 4593.05 -1.88812 0.212143 0
M  V30 48403 H 4591.2 -3.50979 -1.66571 0
M  V30 48404 H 4592.87 -4.55562 0.725312 0
M  V30 48405 H 4591.11 -4.27258 0.750528 0
M  V30 48406 H 4591.78 -5.511 -0.31509 0
M  V30 48407 H 4594.26 -3.91846 -1.39984 0
M  V30 48408 H 4593.14 -5.0027 -2.25879 0
M  V30 48409 H 4593.4 -3.37249 -2.8586 0
M  V30 48410 N 4592.46 0.140167 -1.56975 0
M  V30 48411 C 4593.71 0.850088 -1.82911 0
M  V30 48412 C 4594.02 1.82026 -0.715956 0
M  V30 48413 O 4595.22 2.57482 -0.861107 0
M  V30 48414 C 4593.68 1.56238 -3.24219 0
M  V30 48415 C 4593.29 0.634274 -4.43487 0
M  V30 48416 C 4595.03 2.25868 -3.59421 0
M  V30 48417 C 4592.94 1.34858 -5.75819 0
M  V30 48418 H 4591.87 0.321197 -0.682165 0
M  V30 48419 H 4594.52 0.102809 -1.83212 0
M  V30 48420 H 4592.9 2.35553 -3.18325 0
M  V30 48421 H 4594.08 -0.124142 -4.60633 0
M  V30 48422 H 4592.39 0.0460372 -4.16375 0
M  V30 48423 H 4594.99 2.79962 -4.55549 0
M  V30 48424 H 4595.33 3.02683 -2.85813 0
M  V30 48425 H 4595.86 1.53464 -3.67006 0
M  V30 48426 H 4592.6 0.622156 -6.52541 0
M  V30 48427 H 4592.12 2.07954 -5.62597 0
M  V30 48428 H 4593.8 1.88762 -6.18852 0
M  V30 48429 N 4593.93 1.52181 0.409726 0
M  V30 48430 C 4595.16 1.69811 1.17676 0
M  V30 48431 C 4595.57 0.406973 1.84771 0
M  V30 48432 O 4594.92 -0.626802 1.72676 0
M  V30 48433 C 4594.98 2.7772 2.2828 0
M  V30 48434 C 4594.64 4.19488 1.81326 0
M  V30 48435 C 4595.64 5.03349 1.30136 0
M  V30 48436 C 4593.32 4.65719 1.88178 0
M  V30 48437 C 4595.32 6.31514 0.864194 0
M  V30 48438 C 4593 5.93874 1.44073 0
M  V30 48439 C 4594 6.766 0.932785 0
M  V30 48440 O 4593.69 8.02355 0.498098 0
M  V30 48441 H 4593.42 0.572385 0.359654 0
M  V30 48442 H 4595.98 1.99513 0.488241 0
M  V30 48443 H 4594.21 2.43394 3.00494 0
M  V30 48444 H 4595.9 2.83956 2.90041 0
M  V30 48445 H 4596.66 4.68824 1.24215 0
M  V30 48446 H 4592.54 4.01432 2.26657 0
M  V30 48447 H 4596.08 6.96035 0.467042 0
M  V30 48448 H 4591.98 6.27908 1.49672 0
M  V30 48449 H 4592.75 8.16137 0.621461 0
M  V30 48450 N 4595.41 -0.666919 1.42793 0
M  V30 48451 C 4596.34 -1.79213 1.49683 0
M  V30 48452 C 4597.32 -1.66404 0.352681 0
M  V30 48453 O 4598.51 -1.85706 0.568058 0
M  V30 48454 C 4595.64 -3.1756 1.40616 0
M  V30 48455 C 4594.59 -3.45115 2.5314 0
M  V30 48456 C 4593.92 -4.83119 2.29129 0
M  V30 48457 C 4595.22 -3.41222 3.9543 0
M  V30 48458 H 4596.91 -1.73704 2.43859 0
M  V30 48459 H 4594.46 -0.834279 1.1737 0
M  V30 48460 H 4596.41 -3.96017 1.44043 0
M  V30 48461 H 4595.14 -3.23765 0.429384 0
M  V30 48462 H 4593.79 -2.69022 2.49043 0
M  V30 48463 H 4593.44 -4.85984 1.29726 0
M  V30 48464 H 4593.14 -5.02518 3.04548 0
M  V30 48465 H 4594.67 -5.63851 2.34317 0
M  V30 48466 H 4596.08 -4.09637 4.01087 0
M  V30 48467 H 4594.48 -3.72157 4.70765 0
M  V30 48468 H 4595.55 -2.3965 4.2154 0
M  V30 48469 N 4596.89 -1.29096 -0.903985 0
M  V30 48470 C 4598.12 -1.19522 -1.68518 0
M  V30 48471 C 4598.53 0.247314 -1.87577 0
M  V30 48472 O 4597.87 1.17793 -1.40963 0
M  V30 48473 C 4597.93 -1.8326 -3.09283 0
M  V30 48474 C 4597.6 -3.32542 -3.13472 0
M  V30 48475 C 4598.59 -4.28831 -2.93938 0
M  V30 48476 C 4596.28 -3.73668 -3.35674 0
M  V30 48477 C 4598.27 -5.64222 -2.96534 0
M  V30 48478 C 4595.96 -5.09182 -3.37901 0
M  V30 48479 C 4596.96 -6.04269 -3.18352 0
M  V30 48480 O 4596.65 -7.3731 -3.20359 0
M  V30 48481 H 4596.38 -0.415486 -0.533243 0
M  V30 48482 H 4598.93 -1.70916 -1.13916 0
M  V30 48483 H 4597.16 -1.26371 -3.65468 0
M  V30 48484 H 4598.85 -1.68067 -3.6947 0
M  V30 48485 H 4599.62 -3.98392 -2.76602 0
M  V30 48486 H 4595.5 -3.00114 -3.49932 0
M  V30 48487 H 4599.04 -6.38417 -2.81193 0
M  V30 48488 H 4594.94 -5.39268 -3.54768 0
M  V30 48489 H 4595.71 -7.4606 -3.36655 0
M  V30 48490 N 4598.37 1.11377 -1.11503 0
M  V30 48491 C 4599.3 2.19506 -0.796202 0
M  V30 48492 C 4600.28 1.68459 0.235737 0
M  V30 48493 O 4601.47 1.93947 0.0990662 0
M  V30 48494 C 4598.6 3.46474 -0.239327 0
M  V30 48495 C 4597.55 4.10739 -1.20321 0
M  V30 48496 C 4596.88 5.32291 -0.507017 0
M  V30 48497 C 4598.18 4.55588 -2.55415 0
M  V30 48498 H 4599.87 2.46433 -1.70032 0
M  V30 48499 H 4597.42 1.18443 -0.818976 0
M  V30 48500 H 4599.37 4.214 -0.00406821 0
M  V30 48501 H 4598.09 3.19008 0.700094 0
M  V30 48502 H 4596.75 3.37808 -1.42411 0
M  V30 48503 H 4596.4 5.01096 0.437232 0
M  V30 48504 H 4596.1 5.76239 -1.1499 0
M  V30 48505 H 4597.62 6.09955 -0.280566 0
M  V30 48506 H 4599.04 5.21833 -2.3741 0
M  V30 48507 H 4597.43 5.10352 -3.15691 0
M  V30 48508 H 4598.5 3.69002 -3.14588 0
M  V30 48509 N 4599.85 0.905449 1.28994 0
M  V30 48510 C 4601.08 0.549916 1.99458 0
M  V30 48511 C 4601.49 -0.866775 1.67727 0
M  V30 48512 O 4600.85 -1.57294 0.92546 0
M  V30 48513 C 4600.9 0.739511 3.53855 0
M  V30 48514 O 4600.62 2.10045 3.84464 0
M  V30 48515 C 4602.12 0.389697 4.41584 0
M  V30 48516 H 4599.34 0.210451 0.637143 0
M  V30 48517 H 4601.88 1.21637 1.64392 0
M  V30 48518 H 4600.04 0.120159 3.87214 0
M  V30 48519 H 4600.45 2.13402 4.79124 0
M  V30 48520 H 4601.93 0.573165 5.49016 0
M  V30 48521 H 4602.4 -0.673603 4.34004 0
M  V30 48522 H 4603.01 0.986235 4.13707 0
M  V30 48523 N 4601.33 -1.42718 0.668539 0
M  V30 48524 C 4602.57 -2.01623 0.188211 0
M  V30 48525 C 4602.9 -1.52824 -1.20312 0
M  V30 48526 O 4602.16 -0.718387 -1.82038 0
M  V30 48527 C 4602.45 -3.57021 0.164625 0
M  V30 48528 C 4602.12 -4.25227 1.49977 0
M  V30 48529 C 4600.78 -4.43574 1.86536 0
M  V30 48530 C 4603.13 -4.63719 2.37937 0
M  V30 48531 C 4600.46 -4.97683 3.10691 0
M  V30 48532 C 4602.81 -5.19205 3.61399 0
M  V30 48533 C 4601.48 -5.35766 3.98134 0
M  V30 48534 H 4600.75 -0.737792 0.0688713 0
M  V30 48535 H 4603.4 -1.70988 0.862285 0
M  V30 48536 H 4601.7 -3.87287 -0.592943 0
M  V30 48537 H 4603.4 -4.00373 -0.22413 0
M  V30 48538 H 4599.99 -4.11302 1.20536 0
M  V30 48539 H 4604.17 -4.49223 2.1098 0
M  V30 48540 H 4599.43 -5.0869 3.39182 0
M  V30 48541 H 4603.6 -5.47975 4.29763 0
M  V30 48542 H 4601.23 -5.77458 4.94415 0
M  V30 48543 N 4602.8 -0.411452 -1.52134 0
M  V30 48544 C 4604.03 0.162768 -2.05958 0
M  V30 48545 C 4604.44 1.39216 -1.28123 0
M  V30 48546 O 4603.78 1.80767 -0.326945 0
M  V30 48547 C 4603.85 0.575821 -3.54858 0
M  V30 48548 C 4603.51 -0.543157 -4.53761 0
M  V30 48549 C 4604.51 -1.40744 -5.00487 0
M  V30 48550 C 4602.19 -0.716512 -4.97163 0
M  V30 48551 C 4604.19 -2.43001 -5.89262 0
M  V30 48552 C 4601.87 -1.74238 -5.85734 0
M  V30 48553 C 4602.87 -2.59754 -6.31678 0
M  V30 48554 O 4602.56 -3.60584 -7.18495 0
M  V30 48555 H 4602.29 0.0228888 -0.675612 0
M  V30 48556 H 4604.85 -0.581703 -1.96991 0
M  V30 48557 H 4603.08 1.37261 -3.61519 0
M  V30 48558 H 4604.76 1.07822 -3.91317 0
M  V30 48559 H 4605.53 -1.28492 -4.67669 0
M  V30 48560 H 4601.41 -0.0605478 -4.6096 0
M  V30 48561 H 4604.95 -3.09782 -6.25045 0
M  V30 48562 H 4600.85 -1.8652 -6.17965 0
M  V30 48563 H 4601.62 -3.56855 -7.36612 0
M  V30 48564 N 4604.28 1.56959 -0.141948 0
M  V30 48565 C 4605.21 2.19518 0.795859 0
M  V30 48566 C 4606.19 1.14191 1.26073 0
M  V30 48567 O 4607.38 1.42516 1.3192 0
M  V30 48568 C 4604.51 2.81279 2.03714 0
M  V30 48569 C 4603.46 3.9239 1.70922 0
M  V30 48570 C 4602.79 4.41062 3.02271 0
M  V30 48571 C 4604.09 5.13406 0.959774 0
M  V30 48572 H 4605.78 2.98139 0.274491 0
M  V30 48573 H 4603.33 1.43407 0.130586 0
M  V30 48574 H 4605.28 3.23709 2.69797 0
M  V30 48575 H 4604 1.99983 2.58214 0
M  V30 48576 H 4602.66 3.5057 1.0722 0
M  V30 48577 H 4602.31 3.56594 3.54753 0
M  V30 48578 H 4602.01 5.16003 2.81096 0
M  V30 48579 H 4603.54 4.86159 3.69434 0
M  V30 48580 H 4604.95 5.52712 1.52259 0
M  V30 48581 H 4603.35 5.94076 0.848148 0
M  V30 48582 H 4604.42 4.84875 -0.0494139 0
M  V30 48583 N 4605.76 -0.13184 1.57048 0
M  V30 48584 C 4606.99 -0.856395 1.88344 0
M  V30 48585 C 4607.4 -1.7404 0.731818 0
M  V30 48586 O 4606.76 -1.80053 -0.297882 0
M  V30 48587 C 4606.81 -1.70052 3.19005 0
M  V30 48588 O 4606.53 -0.852127 4.29733 0
M  V30 48589 C 4608.03 -2.53135 3.6392 0
M  V30 48590 H 4605.25 -0.246863 0.623939 0
M  V30 48591 H 4607.8 -0.120081 2.04147 0
M  V30 48592 H 4605.95 -2.38973 3.04911 0
M  V30 48593 H 4606.37 -1.43311 5.04542 0
M  V30 48594 H 4607.84 -3.07915 4.5814 0
M  V30 48595 H 4608.32 -3.29891 2.89946 0
M  V30 48596 H 4608.92 -1.89479 3.8076 0
M  V30 48597 N 4607.24 -1.52396 -0.40165 0
M  V30 48598 C 4608.19 -1.76895 -1.51033 0
M  V30 48599 C 4609.18 -0.636354 -1.56993 0
M  V30 48600 O 4610.39 -0.818563 -1.60311 0
M  V30 48601 H 4606.76 -0.55952 -0.502436 0
M  V30 48602 H 4608.73 -2.69762 -1.27558 0
M  V30 48603 C 4607.48 -1.94341 -2.88317 0
M  V30 48604 H 4606.8 -2.80915 -2.84476 0
M  V30 48605 H 4608.24 -2.15479 -3.65164 0
M  V30 48606 C 4606.7 -0.712511 -3.29279 0
M  V30 48607 O 4607.23 0.116076 -4.01532 0
M  V30 48608 N 4605.44 -0.546255 -2.8542 0
M  V30 48609 H 4604.99 -1.22164 -2.2679 0
M  V30 48610 H 4604.94 0.276003 -3.13186 0
M  V30 48611 N 4608.72 0.659337 -1.43145 0
M  V30 48612 C 4609.99 1.41622 -1.34917 0
M  V30 48613 C 4610.37 2.11099 0.00600364 0
M  V30 48614 O 4609.72 2.04357 1.02228 0
M  V30 48615 C 4609.93 2.40596 -2.52814 0
M  V30 48616 C 4611.28 3.04779 -2.95627 0
M  V30 48617 O 4612.3 2.50923 -2.52816 0
M  V30 48618 O 4611.16 4.02408 -3.6977 0
M  V30 48619 H 4608.26 0.632441 -0.532867 0
M  V30 48620 H 4610.8 0.68676 -1.55183 0
M  V30 48621 H 4609.57 1.88162 -3.4309 0
M  V30 48622 H 4609.2 3.21001 -2.34615 0
M  V30 48623 N 4610.19 1.29574 0.897126 0
M  V30 48624 C 4611.44 1.17869 1.6503 0
M  V30 48625 C 4611.77 -0.268661 1.92333 0
M  V30 48626 O 4611.05 -1.19372 1.5356 0
M  V30 48627 C 4611.33 1.99511 2.99779 0
M  V30 48628 C 4611.18 3.524 2.79525 0
M  V30 48629 C 4612.5 1.82349 4.00546 0
M  V30 48630 H 4609.62 0.429549 0.59888 0
M  V30 48631 H 4612.26 1.59075 1.03899 0
M  V30 48632 H 4610.41 1.64497 3.51956 0
M  V30 48633 H 4612.09 3.97409 2.3423 0
M  V30 48634 H 4610.33 3.77194 2.14259 0
M  V30 48635 H 4611 4.048 3.75288 0
M  V30 48636 H 4613.48 2.12936 3.57488 0
M  V30 48637 H 4612.35 2.41818 4.92763 0
M  V30 48638 H 4612.61 0.779362 4.35176 0
M  V30 48639 N 4611.67 -1.10784 1.12092 0
M  V30 48640 C 4612.9 -1.86998 0.897014 0
M  V30 48641 C 4613.32 -1.79934 -0.548198 0
M  V30 48642 O 4612.68 -1.16667 -1.38775 0
M  V30 48643 C 4612.73 -3.33485 1.37186 0
M  V30 48644 O 4611.83 -4.08743 0.547975 0
M  V30 48645 H 4611.17 -0.580386 0.322566 0
M  V30 48646 H 4613.7 -1.39991 1.49211 0
M  V30 48647 H 4613.71 -3.84334 1.36935 0
M  V30 48648 H 4612.39 -3.37943 2.4242 0
M  V30 48649 H 4610.96 -3.67757 0.617163 0
M  V30 48650 N 4613.15 -0.912277 -1.28512 0
M  V30 48651 C 4614.4 -0.544667 -1.95037 0
M  V30 48652 C 4614.73 0.911375 -1.71826 0
M  V30 48653 O 4613.98 1.66313 -1.03143 0
M  V30 48654 C 4614.28 -0.798514 -3.48365 0
M  V30 48655 C 4613.95 -2.23388 -3.91674 0
M  V30 48656 C 4612.61 -2.62631 -4.0321 0
M  V30 48657 C 4614.96 -3.16801 -4.13868 0
M  V30 48658 C 4612.29 -3.94444 -4.34316 0
M  V30 48659 C 4614.64 -4.48177 -4.46453 0
M  V30 48660 C 4613.3 -4.87276 -4.56199 0
M  V30 48661 H 4612.57 -0.199308 -0.713693 0
M  V30 48662 H 4615.22 -1.15332 -1.52875 0
M  V30 48663 H 4613.53 -0.107046 -3.91654 0
M  V30 48664 H 4615.22 -0.493281 -3.97954 0
M  V30 48665 H 4611.81 -1.91935 -3.83222 0
M  V30 48666 H 4616 -2.87691 -4.0441 0
M  V30 48667 H 4611.25 -4.24441 -4.40068 0
M  V30 48668 H 4615.43 -5.20575 -4.62574 0
M  V30 48669 H 4613.05 -5.89448 -4.80058 0
M  V30 48670 N 4614.63 1.42361 -0.676098 0
M  V30 48671 C 4615.56 2.33497 -0.0125653 0
M  V30 48672 C 4616.54 1.5075 0.787928 0
M  V30 48673 O 4617.72 1.79349 0.744821 0
M  V30 48674 C 4614.85 3.3438 0.938465 0
M  V30 48675 C 4613.81 4.2729 0.246472 0
M  V30 48676 C 4613.13 5.18391 1.31053 0
M  V30 48677 C 4614.43 5.14913 -0.875306 0
M  V30 48678 H 4616.13 2.89231 -0.773695 0
M  V30 48679 H 4613.67 1.39072 -0.373509 0
M  V30 48680 H 4615.63 3.97049 1.41174 0
M  V30 48681 H 4614.35 2.76953 1.73103 0
M  V30 48682 H 4613.01 3.66017 -0.206584 0
M  V30 48683 H 4612.66 4.5729 2.09512 0
M  V30 48684 H 4612.36 5.81381 0.852635 0
M  V30 48685 H 4613.88 5.83935 1.78471 0
M  V30 48686 H 4615.3 5.7126 -0.483184 0
M  V30 48687 H 4613.69 5.86743 -1.25907 0
M  V30 48688 H 4614.76 4.53236 -1.72351 0
M  V30 48689 N 4616.11 0.419515 1.51914 0
M  V30 48690 C 4617.07 -0.389036 2.25874 0
M  V30 48691 C 4618.07 -0.964879 1.28634 0
M  V30 48692 O 4619.26 -0.842125 1.52492 0
M  V30 48693 C 4616.39 -1.54864 3.03694 0
M  V30 48694 H 4617.58 0.258904 2.9878 0
M  V30 48695 H 4615.14 0.172263 1.55348 0
M  V30 48696 H 4615.87 -2.23314 2.35162 0
M  V30 48697 H 4615.66 -1.1421 3.75098 0
M  V30 48698 H 4617.15 -2.12033 3.59766 0
M  V30 48699 N 4617.58 -1.56882 0.15027 0
M  V30 48700 C 4618.53 -2.13504 -0.799996 0
M  V30 48701 C 4619.52 -1.06372 -1.20722 0
M  V30 48702 O 4620.71 -1.32542 -1.1731 0
M  V30 48703 C 4617.84 -2.76278 -2.03778 0
M  V30 48704 C 4616.93 -3.90538 -1.6535 0
M  V30 48705 N 4617.32 -4.96262 -0.97762 0
M  V30 48706 C 4615.61 -4.01307 -1.94599 0
M  V30 48707 C 4616.32 -5.76289 -0.791592 0
M  V30 48708 N 4615.29 -5.27167 -1.32648 0
M  V30 48709 H 4619.09 -2.92616 -0.274414 0
M  V30 48710 H 4616.61 -1.62319 -0.0511573 0
M  V30 48711 H 4618.6 -3.15206 -2.72856 0
M  V30 48712 H 4617.26 -1.9864 -2.5685 0
M  V30 48713 H 4618.28 -5.13955 -0.638013 0
M  V30 48714 H 4614.95 -3.34749 -2.49499 0
M  V30 48715 H 4616.34 -6.71402 -0.258658 0
M  V30 48716 N 4619.06 0.12351 -1.57115 0
M  V30 48717 C 4620.31 0.83064 -1.83802 0
M  V30 48718 C 4620.62 1.81256 -0.735222 0
M  V30 48719 O 4621.83 2.56555 -0.888368 0
M  V30 48720 C 4620.29 1.52791 -3.25857 0
M  V30 48721 C 4619.89 0.5872 -4.44135 0
M  V30 48722 C 4621.64 2.22043 -3.61797 0
M  V30 48723 C 4619.55 1.28743 -5.77217 0
M  V30 48724 H 4618.48 0.313943 -0.685533 0
M  V30 48725 H 4621.13 0.0833715 -1.83311 0
M  V30 48726 H 4619.51 2.32164 -3.20805 0
M  V30 48727 H 4620.68 -0.172991 -4.60475 0
M  V30 48728 H 4619 0.00187253 -4.164 0
M  V30 48729 H 4621.59 2.75115 -4.58493 0
M  V30 48730 H 4621.94 2.99634 -2.89007 0
M  V30 48731 H 4622.47 1.49563 -3.68613 0
M  V30 48732 H 4619.21 0.55291 -6.53164 0
M  V30 48733 H 4618.73 2.01975 -5.64771 0
M  V30 48734 H 4620.41 1.82188 -6.20819 0
M  V30 48735 N 4620.54 1.52607 0.393562 0
M  V30 48736 C 4621.47 1.73309 1.49989 0
M  V30 48737 C 4622.49 0.613526 1.50797 0
M  V30 48738 O 4623.67 0.889103 1.54781 0
M  V30 48739 C 4620.77 1.77255 2.88849 0
M  V30 48740 C 4619.95 3.06494 3.12058 0
M  V30 48741 C 4619.01 3.02048 4.30875 0
M  V30 48742 O 4618.03 3.75922 4.27401 0
M  V30 48743 N 4619.23 2.20916 5.36821 0
M  V30 48744 H 4622 2.6876 1.3262 0
M  V30 48745 H 4619.56 1.51038 0.58303 0
M  V30 48746 H 4621.55 1.71793 3.66428 0
M  V30 48747 H 4620.12 0.892098 2.996 0
M  V30 48748 H 4619.34 3.25482 2.22385 0
M  V30 48749 H 4620.63 3.91958 3.24417 0
M  V30 48750 H 4620.03 1.60355 5.42497 0
M  V30 48751 H 4618.59 2.21297 6.13083 0
M  V30 48752 N 4622.02 -0.651737 1.43493 0
M  V30 48753 C 4623.26 -1.41205 1.464 0
M  V30 48754 C 4623.62 -1.92201 0.0874335 0
M  V30 48755 O 4622.91 -1.69455 -0.894172 0
M  V30 48756 C 4623.11 -2.60906 2.4426 0
M  V30 48757 C 4622.94 -2.21625 3.91296 0
M  V30 48758 C 4621.71 -2.09881 4.5965 0
M  V30 48759 C 4623.9 -1.81818 4.81089 0
M  V30 48760 N 4621.89 -1.63946 5.91604 0
M  V30 48761 C 4623.26 -1.46976 6.02327 0
M  V30 48762 C 4625.31 -1.69014 4.68336 0
M  V30 48763 C 4624.01 -1.00613 7.12228 0
M  V30 48764 C 4626.04 -1.24056 5.78242 0
M  V30 48765 C 4625.4 -0.901527 6.98607 0
M  V30 48766 H 4621.5 -0.512301 0.590823 0
M  V30 48767 H 4624.09 -0.749827 1.79682 0
M  V30 48768 H 4622.26 -3.24784 2.13002 0
M  V30 48769 H 4623.99 -3.27613 2.37595 0
M  V30 48770 H 4620.74 -2.29685 4.14176 0
M  V30 48771 H 4621.17 -1.43336 6.61652 0
M  V30 48772 H 4625.81 -1.93865 3.75734 0
M  V30 48773 H 4623.53 -0.745116 8.04657 0
M  V30 48774 H 4627.11 -1.14637 5.70394 0
M  V30 48775 H 4625.99 -0.558951 7.82205 0
M  V30 48776 N 4623.5 -1.30048 -0.890242 0
M  V30 48777 C 4624.43 -1.10308 -1.99768 0
M  V30 48778 C 4625.41 -0.0122203 -1.62595 0
M  V30 48779 O 4626.59 -0.164756 -1.87779 0
M  V30 48780 C 4623.72 -0.681241 -3.31778 0
M  V30 48781 C 4622.76 -1.7722 -3.87937 0
M  V30 48782 S 4623.6 -3.37349 -4.15879 0
M  V30 48783 C 4624.75 -2.97055 -5.50916 0
M  V30 48784 H 4624.99 -2.04064 -2.16206 0
M  V30 48785 H 4622.52 -1.14302 -1.038 0
M  V30 48786 H 4624.48 -0.444583 -4.08085 0
M  V30 48787 H 4623.14 0.236871 -3.13206 0
M  V30 48788 H 4622.33 -1.4292 -4.83311 0
M  V30 48789 H 4621.93 -1.96286 -3.18351 0
M  V30 48790 H 4624.23 -2.44688 -6.3177 0
M  V30 48791 H 4625.17 -3.91317 -5.9015 0
M  V30 48792 H 4625.58 -2.35075 -5.13225 0
M  V30 48793 N 4624.97 1.10188 -1.12678 0
M  V30 48794 C 4626.22 1.82472 -0.88498 0
M  V30 48795 C 4626.55 1.85095 0.587665 0
M  V30 48796 O 4625.83 1.31345 1.43453 0
M  V30 48797 C 4626.11 3.29013 -1.46365 0
M  V30 48798 C 4625.96 3.34708 -3.00484 0
M  V30 48799 C 4627.28 4.25469 -1.12534 0
M  V30 48800 H 4624.4 0.66248 -0.322938 0
M  V30 48801 H 4627.04 1.29125 -1.3938 0
M  V30 48802 H 4625.19 3.74573 -1.0309 0
M  V30 48803 H 4626.87 2.97609 -3.52458 0
M  V30 48804 H 4625.11 2.74529 -3.35881 0
M  V30 48805 H 4625.78 4.37906 -3.36068 0
M  V30 48806 H 4628.26 3.88156 -1.49914 0
M  V30 48807 H 4627.13 5.2636 -1.55682 0
M  V30 48808 H 4627.39 4.42084 -0.0378961 0
M  V30 48809 N 4626.45 0.919079 1.28026 0
M  V30 48810 C 4627.39 0.355966 2.25407 0
M  V30 48811 C 4628.36 -0.54282 1.53272 0
M  V30 48812 O 4629.55 -0.485274 1.82146 0
M  V30 48813 C 4626.67 -0.490642 3.35127 0
M  V30 48814 C 4625.72 0.343507 4.25114 0
M  V30 48815 S 4626.55 1.75362 5.05973 0
M  V30 48816 C 4627.71 0.914461 6.19184 0
M  V30 48817 H 4627.94 1.18132 2.72822 0
M  V30 48818 H 4625.48 0.720684 1.36549 0
M  V30 48819 H 4627.43 -0.973264 3.98795 0
M  V30 48820 H 4626.09 -1.29044 2.86368 0
M  V30 48821 H 4625.29 -0.304089 5.03082 0
M  V30 48822 H 4624.89 0.75998 3.66197 0
M  V30 48823 H 4627.18 0.14652 6.77342 0
M  V30 48824 H 4628.12 1.66685 6.88202 0
M  V30 48825 H 4628.53 0.46028 5.6262 0
M  V30 48826 N 4627.93 -1.42001 0.683638 0
M  V30 48827 C 4629.18 -2.01412 0.209585 0
M  V30 48828 C 4629.51 -1.54092 -1.18684 0
M  V30 48829 O 4628.76 -0.737654 -1.81265 0
M  V30 48830 C 4629.06 -3.56826 0.202482 0
M  V30 48831 C 4628.73 -4.23612 1.54479 0
M  V30 48832 C 4627.39 -4.4157 1.9123 0
M  V30 48833 C 4629.74 -4.61169 2.42842 0
M  V30 48834 C 4627.07 -4.94359 3.15952 0
M  V30 48835 C 4629.42 -5.15343 3.66885 0
M  V30 48836 C 4628.08 -5.31513 4.03794 0
M  V30 48837 H 4627.35 -0.737021 0.0766927 0
M  V30 48838 H 4630 -1.70064 0.880372 0
M  V30 48839 H 4628.31 -3.87894 -0.551833 0
M  V30 48840 H 4630 -4.00588 -0.181653 0
M  V30 48841 H 4626.59 -4.1 1.24892 0
M  V30 48842 H 4630.78 -4.4696 2.15732 0
M  V30 48843 H 4626.03 -5.05064 3.44558 0
M  V30 48844 H 4630.21 -5.43386 4.35551 0
M  V30 48845 H 4627.83 -5.72182 5.00512 0
M  V30 48846 N 4629.41 -0.427565 -1.51689 0
M  V30 48847 C 4630.64 0.141118 -2.06418 0
M  V30 48848 C 4631.05 1.37299 -1.29594 0
M  V30 48849 O 4630.41 1.79058 -0.352795 0
M  V30 48850 C 4630.46 0.47314 -3.5839 0
M  V30 48851 O 4630.18 -0.709825 -4.32311 0
M  V30 48852 C 4631.68 1.09356 -4.296 0
M  V30 48853 H 4628.9 0.0122512 -0.670888 0
M  V30 48854 H 4631.45 -0.603833 -1.95382 0
M  V30 48855 H 4629.6 1.16799 -3.69374 0
M  V30 48856 H 4630.02 -0.428254 -5.22749 0
M  V30 48857 H 4631.49 1.27595 -5.37051 0
M  V30 48858 H 4631.97 2.07187 -3.8726 0
M  V30 48859 H 4632.57 0.438381 -4.23035 0
M  V30 48860 N 4630.89 1.568 -0.158588 0
M  V30 48861 C 4632.3 1.8319 0.360302 0
M  V30 48862 C 4632.65 1.07784 1.63942 0
M  V30 48863 O 4631.77 0.326793 2.13918 0
M  V30 48864 C 4632.37 3.323 0.660478 0
M  V30 48865 C 4630.93 3.59231 1.12385 0
M  V30 48866 C 4630.08 2.76878 0.153 0
M  V30 48867 H 4633.03 1.54007 -0.383085 0
M  V30 48868 H 4633.05 3.49085 1.51393 0
M  V30 48869 H 4632.56 3.87155 -0.270663 0
M  V30 48870 H 4630.66 3.09774 2.07053 0
M  V30 48871 H 4630.77 4.67636 1.04181 0
M  V30 48872 H 4629.14 2.46322 0.647896 0
M  V30 48873 H 4629.92 3.34509 -0.771937 0
M  V30 48874 N 4632.37 -0.115176 1.57179 0
M  V30 48875 C 4633.3 -1.14223 2.03655 0
M  V30 48876 C 4634.28 -1.42964 0.921706 0
M  V30 48877 O 4635.46 -1.53339 1.19167 0
M  V30 48878 C 4632.59 -2.46741 2.44409 0
M  V30 48879 C 4631.55 -2.32455 3.59373 0
M  V30 48880 C 4630.87 -3.6997 3.86039 0
M  V30 48881 C 4632.17 -1.78186 4.90965 0
M  V30 48882 H 4633.87 -0.755647 2.89707 0
M  V30 48883 H 4631.41 -0.362044 1.39374 0
M  V30 48884 H 4633.36 -3.18845 2.75529 0
M  V30 48885 H 4632.09 -2.87297 1.55332 0
M  V30 48886 H 4630.75 -1.62799 3.28469 0
M  V30 48887 H 4630.4 -4.08017 2.94161 0
M  V30 48888 H 4630.1 -3.61263 4.63425 0
M  V30 48889 H 4631.62 -4.43572 4.19614 0
M  V30 48890 H 4633.03 -2.4011 5.20596 0
M  V30 48891 H 4631.43 -1.8029 5.72377 0
M  V30 48892 H 4632.5 -0.739708 4.79225 0
M  V30 48893 N 4633.84 -1.52813 -0.385464 0
M  V30 48894 C 4635.09 -1.68279 -1.13182 0
M  V30 48895 C 4635.42 -0.423245 -1.89532 0
M  V30 48896 O 4634.7 0.579047 -1.85681 0
M  V30 48897 C 4634.98 -2.92009 -2.1072 0
M  V30 48898 C 4634.83 -4.28072 -1.3811 0
M  V30 48899 C 4636.15 -3.11294 -3.11102 0
M  V30 48900 H 4633.27 -0.612366 -0.410093 0
M  V30 48901 H 4635.91 -1.85417 -0.414803 0
M  V30 48902 H 4634.06 -2.77528 -2.71865 0
M  V30 48903 H 4635.74 -4.54327 -0.799027 0
M  V30 48904 H 4633.98 -4.2839 -0.682942 0
M  V30 48905 H 4634.65 -5.10741 -2.09399 0
M  V30 48906 H 4637.13 -3.24829 -2.60049 0
M  V30 48907 H 4636 -3.99338 -3.7659 0
M  V30 48908 H 4636.26 -2.25669 -3.80165 0
M  V30 48909 N 4635.32 0.644118 -1.43836 0
M  V30 48910 C 4636.73 1.22549 -1.40849 0
M  V30 48911 C 4637.08 1.9585 -0.117184 0
M  V30 48912 O 4636.21 2.01737 0.783015 0
M  V30 48913 C 4636.8 2.22898 -2.55151 0
M  V30 48914 C 4635.36 2.76492 -2.554 0
M  V30 48915 C 4634.51 1.51278 -2.32401 0
M  V30 48916 H 4637.46 0.435577 -1.52605 0
M  V30 48917 H 4637.48 3.05251 -2.2716 0
M  V30 48918 H 4636.99 1.69521 -3.49119 0
M  V30 48919 H 4635.09 3.33908 -1.65336 0
M  V30 48920 H 4635.21 3.23417 -3.53466 0
M  V30 48921 H 4633.57 1.7895 -1.81243 0
M  V30 48922 H 4634.35 0.998221 -3.28467 0
M  V30 48923 N 4636.8 1.30518 0.883332 0
M  V30 48924 C 4638.05 1.19436 1.63528 0
M  V30 48925 C 4638.37 -0.250559 1.92879 0
M  V30 48926 O 4637.63 -1.19551 1.54939 0
M  V30 48927 C 4637.93 1.97004 2.98202 0
M  V30 48928 C 4637.59 3.4661 2.88396 0
M  V30 48929 C 4636.26 3.87407 2.85428 0
M  V30 48930 C 4638.61 4.41872 2.76403 0
M  V30 48931 C 4635.94 5.21754 2.68309 0
M  V30 48932 C 4638.29 5.76329 2.60821 0
M  V30 48933 C 4636.95 6.16363 2.56229 0
M  V30 48934 H 4636.22 0.437046 0.598391 0
M  V30 48935 H 4638.87 1.61638 1.0269 0
M  V30 48936 H 4637.17 1.47441 3.62999 0
M  V30 48937 H 4638.87 1.8582 3.55348 0
M  V30 48938 H 4635.46 3.14192 2.91515 0
M  V30 48939 H 4639.65 4.11294 2.7776 0
M  V30 48940 H 4634.9 5.51862 2.6317 0
M  V30 48941 H 4639.08 6.49781 2.50515 0
M  V30 48942 H 4636.7 7.2041 2.42722 0
M  V30 48943 N 4638.28 -1.09589 1.13261 0
M  V30 48944 C 4639.52 -1.82178 0.904585 0
M  V30 48945 C 4639.88 -1.83969 -0.563294 0
M  V30 48946 O 4639.17 -1.29571 -1.41145 0
M  V30 48947 C 4639.37 -3.27797 1.42422 0
M  V30 48948 C 4639.19 -3.40191 2.94109 0
M  V30 48949 C 4637.96 -3.52091 3.62436 0
M  V30 48950 C 4640.16 -3.32861 3.92056 0
M  V30 48951 N 4638.14 -3.53152 5.02152 0
M  V30 48952 C 4639.52 -3.40771 5.17953 0
M  V30 48953 C 4641.57 -3.16517 3.84345 0
M  V30 48954 C 4640.27 -3.3402 6.37042 0
M  V30 48955 C 4642.3 -3.11092 5.02967 0
M  V30 48956 C 4641.66 -3.19591 6.27727 0
M  V30 48957 H 4637.76 -0.681002 0.384397 0
M  V30 48958 H 4640.34 -1.30985 1.44052 0
M  V30 48959 H 4638.52 -3.77463 0.915219 0
M  V30 48960 H 4640.25 -3.88389 1.13736 0
M  V30 48961 H 4637 -3.55469 3.12952 0
M  V30 48962 H 4637.43 -3.5727 5.75054 0
M  V30 48963 H 4642.07 -3.08817 2.88776 0
M  V30 48964 H 4639.79 -3.40484 7.32869 0
M  V30 48965 H 4643.37 -2.99584 4.98739 0
M  V30 48966 H 4642.25 -3.15407 7.17975 0
M  V30 48967 N 4639.76 -0.925856 -1.27537 0
M  V30 48968 C 4641 -0.561152 -1.93737 0
M  V30 48969 C 4641.32 0.901624 -1.7358 0
M  V30 48970 O 4642.52 1.37503 -2.34105 0
M  V30 48971 C 4640.98 -0.95279 -3.47059 0
M  V30 48972 C 4640.59 -2.43612 -3.75975 0
M  V30 48973 C 4642.33 -0.65925 -4.1935 0
M  V30 48974 C 4640.24 -2.76726 -5.22663 0
M  V30 48975 H 4639.17 -0.206148 -0.725272 0
M  V30 48976 H 4641.82 -1.12642 -1.44859 0
M  V30 48977 H 4640.2 -0.316192 -3.94736 0
M  V30 48978 H 4641.38 -3.12047 -3.39062 0
M  V30 48979 H 4639.69 -2.70137 -3.16884 0
M  V30 48980 H 4642.29 -0.88317 -5.27356 0
M  V30 48981 H 4642.63 0.403462 -4.1434 0
M  V30 48982 H 4643.16 -1.25486 -3.77489 0
M  V30 48983 H 4639.9 -3.81898 -5.32761 0
M  V30 48984 H 4639.42 -2.12939 -5.60729 0
M  V30 48985 H 4641.1 -2.64371 -5.90523 0
M  V30 48986 N 4641.23 1.41636 -0.691159 0
M  V30 48987 C 4642.46 2.05627 -0.229163 0
M  V30 48988 C 4642.88 1.51996 1.11994 0
M  V30 48989 O 4642.23 0.666382 1.69899 0
M  V30 48990 C 4642.28 3.61084 -0.17341 0
M  V30 48991 O 4642.01 4.1273 -1.46921 0
M  V30 48992 C 4643.51 4.42214 0.31011 0
M  V30 48993 H 4640.73 0.662324 -0.107557 0
M  V30 48994 H 4643.27 1.81486 -0.942502 0
M  V30 48995 H 4641.43 3.84279 0.490723 0
M  V30 48996 H 4641.84 5.06738 -1.35339 0
M  V30 48997 H 4643.31 5.51195 0.298002 0
M  V30 48998 H 4643.79 4.17994 1.34823 0
M  V30 48999 H 4644.4 4.24073 -0.322865 0
M  V30 49000 N 4642.71 0.435603 1.5146 0
M  V30 49001 C 4643.96 -0.132936 2.01261 0
M  V30 49002 C 4644.27 -1.43937 1.32444 0
M  V30 49003 O 4645.48 -2.09075 1.73205 0
M  V30 49004 C 4643.94 -0.287454 3.5875 0
M  V30 49005 C 4643.54 1.00844 4.36503 0
M  V30 49006 C 4645.29 -0.809857 4.16703 0
M  V30 49007 C 4643.2 0.81966 5.85692 0
M  V30 49008 H 4642.13 -0.0534558 0.752103 0
M  V30 49009 H 4644.78 0.5651 1.74582 0
M  V30 49010 H 4643.16 -1.04845 3.81868 0
M  V30 49011 H 4644.33 1.77764 4.25131 0
M  V30 49012 H 4642.65 1.45925 3.89994 0
M  V30 49013 H 4645.24 -0.967558 5.25873 0
M  V30 49014 H 4645.59 -1.79183 3.75765 0
M  V30 49015 H 4646.12 -0.107217 3.97655 0
M  V30 49016 H 4642.86 1.77396 6.3104 0
M  V30 49017 H 4642.38 0.0902316 5.99732 0
M  V30 49018 H 4644.06 0.472176 6.45275 0
M  V30 49019 N 4644.19 -1.56714 0.166901 0
M  V30 49020 C 4645.15 -2.16542 -0.751156 0
M  V30 49021 C 4646.15 -1.11232 -1.16121 0
M  V30 49022 O 4647.34 -1.36769 -1.07889 0
M  V30 49023 C 4644.48 -2.74469 -2.02187 0
M  V30 49024 H 4645.67 -2.99014 -0.230394 0
M  V30 49025 H 4643.22 -1.56081 -0.0826433 0
M  V30 49026 H 4643.96 -1.95719 -2.58582 0
M  V30 49027 H 4643.74 -3.51534 -1.73685 0
M  V30 49028 H 4645.23 -3.20499 -2.67713 0
M  V30 49029 N 4645.67 0.106839 -1.57237 0
M  V30 49030 C 4646.9 0.825124 -1.89408 0
M  V30 49031 C 4647.31 1.73372 -0.757557 0
M  V30 49032 O 4646.65 1.81553 0.280051 0
M  V30 49033 C 4646.71 1.70091 -3.16716 0
M  V30 49034 C 4646.38 0.965366 -4.46687 0
M  V30 49035 C 4647.37 0.300559 -5.1903 0
M  V30 49036 C 4645.06 0.942931 -4.9337 0
M  V30 49037 C 4647.05 -0.376846 -6.36285 0
M  V30 49038 C 4644.74 0.261734 -6.10539 0
M  V30 49039 C 4645.74 -0.396987 -6.81845 0
M  V30 49040 O 4645.42 -1.06729 -7.96784 0
M  V30 49041 H 4645.16 0.24183 -0.631264 0
M  V30 49042 H 4647.71 0.092077 -2.05194 0
M  V30 49043 H 4645.94 2.4759 -2.97045 0
M  V30 49044 H 4647.63 2.29471 -3.3481 0
M  V30 49045 H 4648.4 0.309429 -4.84012 0
M  V30 49046 H 4644.27 1.44509 -4.37765 0
M  V30 49047 H 4647.82 -0.891577 -6.91879 0
M  V30 49048 H 4643.72 0.25067 -6.45013 0
M  V30 49049 H 4644.48 -0.972992 -8.12696 0
M  V30 49050 N 4647.15 1.53016 0.377354 0
M  V30 49051 C 4648.4 1.67849 1.11847 0
M  V30 49052 C 4648.71 0.430692 1.90799 0
M  V30 49053 O 4649.91 0.459355 2.67586 0
M  V30 49054 C 4648.37 2.96675 2.03745 0
M  V30 49055 C 4647.98 4.28675 1.3016 0
M  V30 49056 C 4649.72 3.20874 2.77921 0
M  V30 49057 C 4647.63 5.48599 2.20892 0
M  V30 49058 H 4646.56 0.625358 0.421241 0
M  V30 49059 H 4649.21 1.79515 0.380346 0
M  V30 49060 H 4647.59 2.78783 2.8124 0
M  V30 49061 H 4648.77 4.57159 0.578098 0
M  V30 49062 H 4647.08 4.10827 0.678963 0
M  V30 49063 H 4649.68 4.07654 3.46009 0
M  V30 49064 H 4650.02 2.36436 3.42642 0
M  V30 49065 H 4650.55 3.39386 2.07513 0
M  V30 49066 H 4647.29 6.35479 1.60767 0
M  V30 49067 H 4646.81 5.2441 2.91125 0
M  V30 49068 H 4648.49 5.8293 2.80716 0
M  V30 49069 N 4648.62 -0.636481 1.44176 0
M  V30 49070 C 4649.87 -1.39208 1.45959 0
M  V30 49071 C 4650.19 -1.95374 0.0939805 0
M  V30 49072 O 4651.39 -2.71498 -0.0106813 0
M  V30 49073 C 4649.85 -2.52016 2.56936 0
M  V30 49074 C 4649.46 -2.02386 3.9968 0
M  V30 49075 C 4651.2 -3.2926 2.67933 0
M  V30 49076 C 4649.11 -3.12504 5.02091 0
M  V30 49077 H 4648.04 -0.523113 0.543018 0
M  V30 49078 H 4650.69 -0.68529 1.70223 0
M  V30 49079 H 4649.07 -3.25245 2.25902 0
M  V30 49080 H 4650.24 -1.36057 4.40256 0
M  V30 49081 H 4648.56 -1.37973 3.92877 0
M  V30 49082 H 4651.16 -4.1134 3.41619 0
M  V30 49083 H 4651.5 -3.78391 1.73568 0
M  V30 49084 H 4652.03 -2.63119 2.98351 0
M  V30 49085 H 4648.77 -2.68322 5.98066 0
M  V30 49086 H 4648.29 -3.77491 4.66112 0
M  V30 49087 H 4649.97 -3.77366 5.25551 0
M  V30 49088 N 4650.1 -1.30985 -0.876398 0
M  V30 49089 C 4651.34 -1.21594 -1.64299 0
M  V30 49090 C 4651.71 0.223895 -1.9069 0
M  V30 49091 O 4652.91 0.441186 -2.65155 0
M  V30 49092 C 4651.18 -2.03017 -2.94141 0
M  V30 49093 S 4652.74 -2.10419 -3.85058 0
M  V30 49094 H 4649.56 -0.433181 -0.563804 0
M  V30 49095 H 4652.16 -1.65568 -1.03959 0
M  V30 49096 H 4650.86 -3.06728 -2.72665 0
M  V30 49097 H 4650.39 -1.59738 -3.5951 0
M  V30 49098 H 4652.41 -1.23782 -4.80513 0
M  V30 49099 N 4651.58 1.08987 -1.13841 0
M  V30 49100 C 4652.83 1.80628 -0.897573 0
M  V30 49101 C 4653.14 1.86874 0.577704 0
M  V30 49102 O 4654.35 2.5487 0.935612 0
M  V30 49103 C 4652.8 3.24511 -1.55629 0
M  V30 49104 C 4652.41 3.26518 -3.06741 0
M  V30 49105 C 4654.16 4.00877 -1.39634 0
M  V30 49106 C 4652.06 4.64952 -3.65477 0
M  V30 49107 H 4650.99 0.676898 -0.332153 0
M  V30 49108 H 4653.64 1.22455 -1.36664 0
M  V30 49109 H 4652.03 3.82774 -1.01489 0
M  V30 49110 H 4653.2 2.77995 -3.67499 0
M  V30 49111 H 4651.52 2.63644 -3.22305 0
M  V30 49112 H 4654.11 5.03161 -1.80924 0
M  V30 49113 H 4654.46 4.14895 -0.341724 0
M  V30 49114 H 4654.99 3.49068 -1.90778 0
M  V30 49115 H 4651.73 4.56137 -4.70765 0
M  V30 49116 H 4651.25 5.13781 -3.09499 0
M  V30 49117 H 4652.93 5.33927 -3.65419 0
M  V30 49118 N 4653.06 0.932607 1.27044 0
M  V30 49119 C 4654.28 0.591544 1.98785 0
M  V30 49120 C 4654.71 -0.824542 1.69065 0
M  V30 49121 O 4654.07 -1.55406 0.933731 0
M  V30 49122 C 4654.11 0.829931 3.5092 0
M  V30 49123 O 4653.22 -0.102121 4.12274 0
M  V30 49124 H 4652.56 0.227207 0.623918 0
M  V30 49125 H 4655.09 1.2532 1.61728 0
M  V30 49126 H 4655.1 0.747433 4.01095 0
M  V30 49127 H 4653.77 1.86215 3.71883 0
M  V30 49128 H 4652.35 0.0307072 3.72887 0
M  V30 49129 N 4654.54 -1.41267 0.698661 0
M  V30 49130 C 4655.76 -2.05503 0.240064 0
M  V30 49131 C 4656.18 -1.52588 -1.11186 0
M  V30 49132 O 4655.54 -0.675383 -1.69543 0
M  V30 49133 C 4655.59 -3.60987 0.192556 0
M  V30 49134 O 4655.31 -4.11945 1.49108 0
M  V30 49135 C 4656.81 -4.42372 -0.286654 0
M  V30 49136 H 4654.03 -0.661744 0.111068 0
M  V30 49137 H 4656.57 -1.80984 0.952113 0
M  V30 49138 H 4654.73 -3.84534 -0.470337 0
M  V30 49139 H 4655.14 -5.06013 1.38025 0
M  V30 49140 H 4656.62 -5.51345 -0.268767 0
M  V30 49141 H 4657.09 -4.18704 -1.32604 0
M  V30 49142 H 4657.7 -4.23896 0.345351 0
M  V30 49143 N 4656.01 -0.44363 -1.51227 0
M  V30 49144 C 4656.96 0.364636 -2.27901 0
M  V30 49145 C 4657.93 1.01136 -1.3176 0
M  V30 49146 O 4659.12 1.02906 -1.6067 0
M  V30 49147 C 4656.26 1.45633 -3.12866 0
M  V30 49148 C 4655.37 0.82712 -4.24008 0
M  V30 49149 C 4654.5 1.89439 -4.96272 0
M  V30 49150 C 4653.54 1.24395 -5.99326 0
M  V30 49151 N 4652.68 2.25286 -6.64974 0
M  V30 49152 H 4657.52 -0.295569 -2.96531 0
M  V30 49153 H 4655.06 -0.157605 -1.46253 0
M  V30 49154 H 4657.02 2.10063 -3.60457 0
M  V30 49155 H 4655.65 2.08608 -2.46339 0
M  V30 49156 H 4654.7 0.0709502 -3.80334 0
M  V30 49157 H 4656.01 0.312306 -4.97821 0
M  V30 49158 H 4655.16 2.61516 -5.47443 0
M  V30 49159 H 4653.9 2.44295 -4.22103 0
M  V30 49160 H 4652.91 0.508675 -5.47442 0
M  V30 49161 H 4654.13 0.702645 -6.75455 0
M  V30 49162 H 4652.08 2.7921 -5.93614 0
M  V30 49163 H 4652 1.78714 -7.34573 0
M  V30 49164 H 4653.26 2.96827 -7.20773 0
M  V30 49165 N 4657.49 1.56623 -0.175209 0
M  V30 49166 C 4658.44 2.1475 0.765929 0
M  V30 49167 C 4659.43 1.08279 1.19015 0
M  V30 49168 O 4660.62 1.34392 1.15186 0
M  V30 49169 C 4657.75 2.79485 1.99357 0
M  V30 49170 C 4656.83 3.93119 1.59116 0
M  V30 49171 N 4657.23 4.97755 0.898545 0
M  V30 49172 C 4655.52 4.04352 1.8819 0
M  V30 49173 C 4656.22 5.77475 0.699809 0
M  V30 49174 N 4655.2 5.29211 1.24244 0
M  V30 49175 H 4659 2.93016 0.227826 0
M  V30 49176 H 4656.52 1.6238 0.0253272 0
M  V30 49177 H 4658.51 3.19507 2.67807 0
M  V30 49178 H 4657.17 2.02701 2.53658 0
M  V30 49179 H 4658.18 5.14905 0.556166 0
M  V30 49180 H 4654.86 3.38676 2.44141 0
M  V30 49181 H 4656.25 6.71728 0.151811 0
M  V30 49182 N 4658.97 -0.0984986 1.57292 0
M  V30 49183 C 4660.22 -0.802613 1.85915 0
M  V30 49184 C 4660.55 -1.78899 0.763248 0
M  V30 49185 O 4659.8 -1.94179 -0.243491 0
M  V30 49186 C 4660.1 -1.56916 3.21111 0
M  V30 49187 C 4659.77 -0.72522 4.4503 0
M  V30 49188 C 4658.43 -0.492558 4.78672 0
M  V30 49189 C 4660.78 -0.13831 5.21016 0
M  V30 49190 C 4658.11 0.336933 5.85732 0
M  V30 49191 C 4660.46 0.678485 6.28951 0
M  V30 49192 C 4659.12 0.921271 6.61112 0
M  V30 49193 H 4658.39 -0.293697 0.680311 0
M  V30 49194 H 4661.04 -0.0642169 1.91392 0
M  V30 49195 H 4659.35 -2.37903 3.11302 0
M  V30 49196 H 4661.04 -2.11829 3.40484 0
M  V30 49197 H 4657.63 -0.916668 4.18683 0
M  V30 49198 H 4661.82 -0.30523 4.95361 0
M  V30 49199 H 4657.07 0.53405 6.09063 0
M  V30 49200 H 4661.25 1.14014 6.87003 0
M  V30 49201 H 4658.87 1.56582 7.43899 0
M  V30 49202 N 4660.45 -1.53214 -0.369234 0
M  V30 49203 C 4661.68 -1.72872 -1.13132 0
M  V30 49204 C 4662.09 -0.455819 -1.83627 0
M  V30 49205 O 4661.43 0.5808 -1.74277 0
M  V30 49206 C 4661.49 -2.83675 -2.20837 0
M  V30 49207 C 4661.16 -4.24148 -1.7014 0
M  V30 49208 C 4662.15 -5.06623 -1.16745 0
M  V30 49209 C 4659.84 -4.70545 -1.75764 0
M  V30 49210 C 4661.83 -6.33584 -0.696455 0
M  V30 49211 C 4659.52 -5.97485 -1.28276 0
M  V30 49212 C 4660.52 -6.78836 -0.753068 0
M  V30 49213 O 4660.21 -8.03394 -0.285193 0
M  V30 49214 H 4659.94 -0.58172 -0.344352 0
M  V30 49215 H 4662.49 -2.00737 -0.435172 0
M  V30 49216 H 4660.72 -2.51275 -2.93935 0
M  V30 49217 H 4662.41 -2.91546 -2.82411 0
M  V30 49218 H 4663.18 -4.71952 -1.11742 0
M  V30 49219 H 4659.06 -4.073 -2.15934 0
M  V30 49220 H 4662.6 -6.97028 -0.282336 0
M  V30 49221 H 4658.5 -6.31656 -1.32972 0
M  V30 49222 H 4659.26 -8.17498 -0.404858 0
M  V30 49223 N 4661.93 0.628826 -1.44511 0
M  V30 49224 C 4663.17 1.38858 -1.48627 0
M  V30 49225 C 4663.53 1.92038 -0.118 0
M  V30 49226 O 4662.82 1.70856 0.8671 0
M  V30 49227 C 4663.02 2.56987 -2.4838 0
M  V30 49228 C 4662.84 2.15372 -3.94772 0
M  V30 49229 C 4661.61 2.02542 -4.62931 0
M  V30 49230 C 4663.81 1.74141 -4.83921 0
M  V30 49231 N 4661.79 1.54513 -5.94137 0
M  V30 49232 C 4663.17 1.37375 -6.04589 0
M  V30 49233 C 4665.22 1.61542 -4.70966 0
M  V30 49234 C 4663.92 0.892697 -7.13739 0
M  V30 49235 C 4665.95 1.14841 -5.80143 0
M  V30 49236 C 4665.31 0.79027 -6.99953 0
M  V30 49237 H 4661.41 0.502837 -0.598898 0
M  V30 49238 H 4663.99 0.721146 -1.80852 0
M  V30 49239 H 4662.17 3.21355 -2.18142 0
M  V30 49240 H 4663.9 3.23792 -2.42777 0
M  V30 49241 H 4660.65 2.23067 -4.17778 0
M  V30 49242 H 4661.08 1.32792 -6.63849 0
M  V30 49243 H 4665.72 1.87863 -3.78771 0
M  V30 49244 H 4663.44 0.617007 -8.05741 0
M  V30 49245 H 4667.02 1.05548 -5.72146 0
M  V30 49246 H 4665.9 0.434438 -7.82996 0
M  V30 49247 N 4663.41 1.31448 0.869439 0
M  V30 49248 C 4664.65 1.21163 1.62252 0
M  V30 49249 C 4664.98 -0.230088 1.93134 0
M  V30 49250 O 4664.24 -1.17901 1.56198 0
M  V30 49251 C 4664.53 2.00156 2.96095 0
M  V30 49252 C 4664.2 3.4965 2.84703 0
M  V30 49253 C 4662.86 3.90412 2.81303 0
M  V30 49254 C 4665.21 4.44779 2.717 0
M  V30 49255 C 4662.54 5.24571 2.6276 0
M  V30 49256 C 4664.89 5.79063 2.54694 0
M  V30 49257 C 4663.56 6.19046 2.49678 0
M  V30 49258 H 4662.83 0.443369 0.593722 0
M  V30 49259 H 4665.48 1.62718 1.0097 0
M  V30 49260 H 4663.78 1.51283 3.61415 0
M  V30 49261 H 4665.48 1.89579 3.53357 0
M  V30 49262 H 4662.07 3.17266 2.88167 0
M  V30 49263 H 4666.25 4.14217 2.73382 0
M  V30 49264 H 4661.51 5.54622 2.57301 0
M  V30 49265 H 4665.68 6.52401 2.43609 0
M  V30 49266 H 4663.31 7.22943 2.35068 0
M  V30 49267 N 4664.88 -1.08381 1.14417 0
M  V30 49268 C 4666.13 -1.80773 0.912545 0
M  V30 49269 C 4666.46 -1.86238 -0.560869 0
M  V30 49270 O 4665.71 -1.33437 -1.43154 0
M  V30 49271 C 4666.01 -3.26268 1.45891 0
M  V30 49272 C 4665.68 -3.4092 2.95101 0
M  V30 49273 C 4664.34 -3.44626 3.35837 0
M  V30 49274 C 4666.69 -3.44577 3.91045 0
M  V30 49275 C 4664.02 -3.49581 4.71179 0
M  V30 49276 C 4666.37 -3.51068 5.26246 0
M  V30 49277 C 4665.04 -3.53047 5.66493 0
M  V30 49278 H 4664.31 -0.661495 0.333924 0
M  V30 49279 H 4666.95 -1.27608 1.42788 0
M  V30 49280 H 4665.26 -3.82143 0.86451 0
M  V30 49281 H 4666.96 -3.80834 1.25563 0
M  V30 49282 H 4663.55 -3.38727 2.62606 0
M  V30 49283 H 4667.73 -3.40944 3.60653 0
M  V30 49284 H 4662.99 -3.49406 5.01722 0
M  V30 49285 H 4667.16 -3.52843 6.00396 0
M  V30 49286 H 4664.79 -3.56639 6.71351 0
M  V30 49287 N 4666.36 -0.939331 -1.26548 0
M  V30 49288 C 4667.59 -0.602078 -1.98469 0
M  V30 49289 C 4668.01 0.815564 -1.695 0
M  V30 49290 O 4667.37 1.54909 -0.94196 0
M  V30 49291 C 4667.42 -0.84853 -3.50474 0
M  V30 49292 O 4666.52 0.0802559 -4.12322 0
M  V30 49293 H 4665.86 -0.230512 -0.622704 0
M  V30 49294 H 4668.39 -1.26176 -1.61061 0
M  V30 49295 H 4668.4 -0.768693 -4.00693 0
M  V30 49296 H 4667.08 -1.88184 -3.7089 0
M  V30 49297 H 4665.65 -0.0504819 -3.72866 0
M  V30 49298 N 4667.84 1.40895 -0.706143 0
M  V30 49299 C 4668.79 2.32572 -0.0362711 0
M  V30 49300 C 4669.78 1.51534 0.757213 0
M  V30 49301 O 4670.99 1.67399 0.661644 0
M  V30 49302 H 4667.36 0.751967 0.00707291 0
M  V30 49303 H 4669.33 2.8673 -0.82635 0
M  V30 49304 C 4668.08 3.36421 0.878422 0
M  V30 49305 H 4667.41 3.98837 0.277261 0
M  V30 49306 H 4668.85 4.03084 1.31526 0
M  V30 49307 C 4667.3 2.71148 1.99951 0
M  V30 49308 O 4667.83 2.56746 3.08941 0
M  V30 49309 N 4666.04 2.29678 1.78035 0
M  V30 49310 H 4665.59 2.41591 0.893957 0
M  V30 49311 H 4665.55 1.86341 2.53228 0
M  V30 49312 N 4669.32 0.451643 1.5099 0
M  V30 49313 C 4670.55 -0.108104 2.06317 0
M  V30 49314 C 4670.96 -1.3577 1.31769 0
M  V30 49315 O 4670.3 -1.79837 0.374757 0
M  V30 49316 C 4670.36 -0.481534 3.5626 0
M  V30 49317 C 4670.02 0.663273 4.52161 0
M  V30 49318 C 4671.02 1.53964 4.96579 0
M  V30 49319 C 4668.71 0.848074 4.95089 0
M  V30 49320 C 4670.7 2.58539 5.82612 0
M  V30 49321 C 4668.39 1.89707 5.80908 0
M  V30 49322 C 4669.39 2.7641 6.24569 0
M  V30 49323 O 4669.07 3.79507 7.08682 0
M  V30 49324 H 4668.81 -0.00496807 0.675982 0
M  V30 49325 H 4671.36 0.633727 1.95379 0
M  V30 49326 H 4669.59 -1.27628 3.65032 0
M  V30 49327 H 4671.28 -0.974095 3.94038 0
M  V30 49328 H 4672.04 1.40847 4.64098 0
M  V30 49329 H 4667.92 0.182742 4.60638 0
M  V30 49330 H 4671.47 3.26245 6.16612 0
M  V30 49331 H 4667.36 2.02839 6.12802 0
M  V30 49332 H 4668.13 3.7626 7.26891 0
M  V30 49333 N 4670.8 -1.56528 0.183513 0
M  V30 49334 C 4671.73 -2.21551 -0.737378 0
M  V30 49335 C 4672.71 -1.17494 -1.23001 0
M  V30 49336 O 4673.89 -1.45963 -1.28095 0
M  V30 49337 C 4671.02 -2.86582 -1.96184 0
M  V30 49338 C 4669.98 -3.96783 -1.60459 0
M  V30 49339 C 4669.3 -4.48922 -2.90471 0
M  V30 49340 C 4670.6 -5.1577 -0.823316 0
M  V30 49341 H 4672.3 -2.98762 -0.195348 0
M  V30 49342 H 4669.84 -1.43702 -0.0925181 0
M  V30 49343 H 4671.79 -3.30749 -2.61119 0
M  V30 49344 H 4670.52 -2.06758 -2.52821 0
M  V30 49345 H 4669.18 -3.5329 -0.978872 0
M  V30 49346 H 4668.83 -3.65875 -3.45174 0
M  V30 49347 H 4668.53 -5.23274 -2.67317 0
M  V30 49348 H 4670.05 -4.95783 -3.56415 0
M  V30 49349 H 4671.46 -5.56554 -1.37551 0
M  V30 49350 H 4669.86 -5.96116 -0.690341 0
M  V30 49351 H 4670.93 -4.84573 0.177953 0
M  V30 49352 N 4672.27 0.0901557 -1.57342 0
M  V30 49353 C 4673.22 1.10902 -2.02409 0
M  V30 49354 C 4674.19 1.3952 -0.901301 0
M  V30 49355 O 4675.38 1.50899 -1.16765 0
M  V30 49356 C 4672.52 2.42269 -2.45764 0
M  V30 49357 C 4671.63 2.20339 -3.71584 0
M  V30 49358 C 4670.76 3.4514 -4.03797 0
M  V30 49359 C 4669.8 3.18494 -5.22712 0
M  V30 49360 N 4668.94 4.35574 -5.50654 0
M  V30 49361 H 4673.78 0.717719 -2.89228 0
M  V30 49362 H 4671.32 0.342851 -1.43049 0
M  V30 49363 H 4673.28 3.18942 -2.68946 0
M  V30 49364 H 4671.91 2.79236 -1.61948 0
M  V30 49365 H 4670.96 1.34445 -3.55849 0
M  V30 49366 H 4672.27 1.96645 -4.58402 0
M  V30 49367 H 4671.42 4.30218 -4.27782 0
M  V30 49368 H 4670.16 3.71893 -3.15511 0
M  V30 49369 H 4669.17 2.31809 -4.98542 0
M  V30 49370 H 4670.39 2.93082 -6.12601 0
M  V30 49371 H 4668.34 4.62393 -4.65326 0
M  V30 49372 H 4668.26 4.15088 -6.31853 0
M  V30 49373 H 4669.52 5.21702 -5.79178 0
M  V30 49374 N 4673.75 1.53407 0.361103 0
M  V30 49375 C 4675.17 1.4328 0.703073 0
M  V30 49376 C 4675.37 0.575452 1.93108 0
M  V30 49377 O 4674.42 0.0596249 2.5243 0
M  V30 49378 C 4675.74 2.86533 0.912099 0
M  V30 49379 C 4677.29 2.96194 1.01183 0
M  V30 49380 C 4677.76 4.40519 1.25329 0
M  V30 49381 N 4679.25 4.43967 1.32089 0
M  V30 49382 C 4679.99 5.52751 1.52491 0
M  V30 49383 N 4679.48 6.71573 1.7018 0
M  V30 49384 N 4681.28 5.40336 1.54897 0
M  V30 49385 H 4673.43 2.07653 -0.446548 0
M  V30 49386 H 4675.69 0.937939 -0.137748 0
M  V30 49387 H 4675.4 3.51606 0.0815178 0
M  V30 49388 H 4675.27 3.30447 1.81891 0
M  V30 49389 H 4677.66 2.31273 1.83295 0
M  V30 49390 H 4677.74 2.55668 0.082303 0
M  V30 49391 H 4677.38 5.06015 0.437168 0
M  V30 49392 H 4677.31 4.78622 2.1961 0
M  V30 49393 H 4679.8 3.58336 1.20015 0
M  V30 49394 H 4680.12 7.50248 1.85333 0
M  V30 49395 H 4678.46 6.74551 1.67349 0
M  V30 49396 H 4681.65 4.4647 1.40648 0
M  V30 49397 H 4681.82 6.25179 1.70455 0
M  V30 49398 N 4675.23 -0.621153 1.44843 0
M  V30 49399 C 4676.65 -0.940435 1.2895 0
M  V30 49400 C 4676.85 -2.00153 0.23256 0
M  V30 49401 O 4675.9 -2.49652 -0.378149 0
M  V30 49402 C 4677.22 -1.39423 2.66424 0
M  V30 49403 C 4678.76 -1.50918 2.74213 0
M  V30 49404 C 4679.24 -1.99678 4.12181 0
M  V30 49405 N 4680.73 -2.06932 4.14407 0
M  V30 49406 C 4681.46 -2.45853 5.18019 0
M  V30 49407 N 4680.96 -2.83839 6.31987 0
M  V30 49408 N 4682.75 -2.46074 5.05375 0
M  V30 49409 H 4674.9 0.0804295 2.12248 0
M  V30 49410 H 4677.17 -0.026658 0.947625 0
M  V30 49411 H 4676.87 -0.688804 3.44889 0
M  V30 49412 H 4676.75 -2.36336 2.93981 0
M  V30 49413 H 4679.13 -2.20555 1.9606 0
M  V30 49414 H 4679.22 -0.523539 2.50385 0
M  V30 49415 H 4678.86 -1.30632 4.90813 0
M  V30 49416 H 4678.79 -2.99131 4.33392 0
M  V30 49417 H 4681.28 -1.8022 3.32158 0
M  V30 49418 H 4681.59 -3.1238 7.06851 0
M  V30 49419 H 4679.94 -2.81567 6.35409 0
M  V30 49420 H 4683.13 -2.15795 4.15392 0
M  V30 49421 H 4683.3 -2.76081 5.86245 0
M  V30 49422 N 4676.71 -1.31907 -0.862456 0
M  V30 49423 C 4677.95 -1.22203 -1.61846 0
M  V30 49424 C 4678.29 0.217573 -1.92977 0
M  V30 49425 O 4677.56 1.15259 -1.5667 0
M  V30 49426 C 4677.85 -2.07389 -2.94384 0
M  V30 49427 C 4677.7 -3.59687 -2.70084 0
M  V30 49428 C 4679.02 -1.92905 -3.9557 0
M  V30 49429 H 4676.14 -0.445276 -0.58728 0
M  V30 49430 H 4678.78 -1.61774 -0.996453 0
M  V30 49431 H 4676.93 -1.73771 -3.47471 0
M  V30 49432 H 4678.6 -4.03479 -2.23611 0
M  V30 49433 H 4676.84 -3.82742 -2.04183 0
M  V30 49434 H 4677.51 -4.14608 -3.64423 0
M  V30 49435 H 4679.99 -2.2234 -3.51716 0
M  V30 49436 H 4678.87 -2.54798 -4.86178 0
M  V30 49437 H 4679.13 -0.894467 -4.32957 0
M  V30 49438 N 4678.19 1.07773 -1.1499 0
M  V30 49439 C 4679.43 1.80554 -0.923485 0
M  V30 49440 C 4679.77 1.863 0.548272 0
M  V30 49441 O 4679.04 1.34359 1.40634 0
M  V30 49442 C 4679.32 3.25834 -1.53311 0
M  V30 49443 C 4679.18 3.28258 -3.07517 0
M  V30 49444 C 4680.5 4.22987 -1.21533 0
M  V30 49445 H 4677.61 0.655481 -0.336918 0
M  V30 49446 H 4680.26 1.26139 -1.42087 0
M  V30 49447 H 4678.41 3.72302 -1.11012 0
M  V30 49448 H 4680.08 2.90066 -3.58691 0
M  V30 49449 H 4678.32 2.67343 -3.41629 0
M  V30 49450 H 4678.99 4.30679 -3.45282 0
M  V30 49451 H 4681.47 3.84889 -1.58114 0
M  V30 49452 H 4680.34 5.22939 -1.66811 0
M  V30 49453 H 4680.61 4.41904 -0.13166 0
M  V30 49454 N 4679.66 0.946029 1.26048 0
M  V30 49455 C 4680.91 0.596187 1.93525 0
M  V30 49456 C 4681.24 -0.865498 1.74182 0
M  V30 49457 O 4680.49 -1.6352 1.07516 0
M  V30 49458 C 4680.79 0.890597 3.46126 0
M  V30 49459 C 4680.46 2.33694 3.85614 0
M  V30 49460 C 4679.12 2.7323 3.96105 0
M  V30 49461 C 4681.47 3.27663 4.05323 0
M  V30 49462 C 4678.8 4.05821 4.23706 0
M  V30 49463 C 4681.15 4.59856 4.34413 0
M  V30 49464 C 4679.82 4.992 4.4312 0
M  V30 49465 H 4679.09 0.21816 0.708158 0
M  V30 49466 H 4681.73 1.19345 1.49763 0
M  V30 49467 H 4680.04 0.210848 3.91232 0
M  V30 49468 H 4681.74 0.598618 3.96507 0
M  V30 49469 H 4678.33 2.02028 3.77998 0
M  V30 49470 H 4682.51 2.98312 3.96641 0
M  V30 49471 H 4677.77 4.3596 4.2866 0
M  V30 49472 H 4681.94 5.32656 4.48609 0
M  V30 49473 H 4679.57 6.01969 4.64261 0
M  V30 49474 N 4681.14 -1.40518 0.713605 0
M  V30 49475 C 4682.09 -2.32549 0.0486044 0
M  V30 49476 C 4683.08 -1.51934 -0.749166 0
M  V30 49477 O 4684.29 -1.67747 -0.652757 0
M  V30 49478 H 4680.67 -0.751994 -0.00308495 0
M  V30 49479 H 4682.64 -2.86288 0.841544 0
M  V30 49480 C 4681.39 -3.36882 -0.860568 0
M  V30 49481 H 4680.71 -3.98979 -0.256106 0
M  V30 49482 H 4682.15 -4.03776 -1.29386 0
M  V30 49483 C 4680.61 -2.72204 -1.98511 0
M  V30 49484 O 4681.14 -2.58381 -3.07575 0
M  V30 49485 N 4679.34 -2.30619 -1.76815 0
M  V30 49486 H 4678.89 -2.42062 -0.881132 0
M  V30 49487 H 4678.85 -1.87681 -2.52236 0
M  V30 49488 N 4682.62 -0.459644 -1.50748 0
M  V30 49489 C 4683.87 0.0990822 -2.01857 0
M  V30 49490 C 4684.19 1.41242 -1.34446 0
M  V30 49491 O 4683.46 1.89774 -0.486088 0
M  V30 49492 H 4682.04 0.0396068 -0.745949 0
M  V30 49493 H 4684.7 -0.607452 -1.85192 0
M  V30 49494 H 4683.8 0.258889 -3.11024 0
M  V30 49495 N 4684.1 1.56428 -0.191812 0
M  V30 49496 C 4685.34 1.97779 0.448485 0
M  V30 49497 C 4685.68 1.07853 1.61498 0
M  V30 49498 O 4684.95 0.129842 1.94066 0
M  V30 49499 C 4685.24 3.48365 0.911784 0
M  V30 49500 C 4685.09 4.49069 -0.256294 0
M  V30 49501 C 4686.41 4.02567 1.77842 0
M  V30 49502 H 4683.53 0.719077 0.161547 0
M  V30 49503 H 4686.17 1.87895 -0.282073 0
M  V30 49504 H 4684.32 3.5692 1.5343 0
M  V30 49505 H 4685.99 4.52556 -0.893892 0
M  V30 49506 H 4684.23 4.24178 -0.908585 0
M  V30 49507 H 4684.9 5.5189 0.110336 0
M  V30 49508 H 4687.38 3.96772 1.25345 0
M  V30 49509 H 4686.26 5.08308 2.07156 0
M  V30 49510 H 4686.52 3.47626 2.73146 0
M  V30 49511 N 4685.58 -0.0818102 1.57388 0
M  V30 49512 C 4686.8 -0.799879 1.91355 0
M  V30 49513 C 4687.23 -1.7083 0.787318 0
M  V30 49514 O 4686.58 -1.7942 -0.260417 0
M  V30 49515 C 4686.63 -1.578 3.2424 0
M  V30 49516 O 4685.74 -2.68795 3.12766 0
M  V30 49517 H 4685.08 -0.218888 0.626884 0
M  V30 49518 H 4687.61 -0.0530537 2.04531 0
M  V30 49519 H 4687.62 -1.9594 3.57871 0
M  V30 49520 H 4686.29 -0.911405 4.05791 0
M  V30 49521 H 4684.87 -2.33587 2.90675 0
M  V30 49522 N 4687.06 -1.53597 -0.352963 0
M  V30 49523 C 4688.3 -1.70389 -1.09425 0
M  V30 49524 C 4688.63 -0.462179 -1.88929 0
M  V30 49525 O 4687.89 0.556008 -1.87635 0
M  V30 49526 C 4688.18 -2.9132 -2.07044 0
M  V30 49527 C 4687.85 -4.27313 -1.43924 0
M  V30 49528 C 4686.51 -4.64292 -1.26438 0
M  V30 49529 C 4688.86 -5.11833 -0.983703 0
M  V30 49530 C 4686.19 -5.83415 -0.620021 0
M  V30 49531 C 4688.54 -6.31613 -0.353294 0
M  V30 49532 C 4687.21 -6.67293 -0.166037 0
M  V30 49533 H 4686.48 -0.623498 -0.400414 0
M  V30 49534 H 4689.13 -1.87801 -0.374589 0
M  V30 49535 H 4687.43 -2.68473 -2.85358 0
M  V30 49536 H 4689.13 -3.01507 -2.64376 0
M  V30 49537 H 4685.72 -3.98204 -1.58529 0
M  V30 49538 H 4689.9 -4.83804 -1.10668 0
M  V30 49539 H 4685.16 -6.09641 -0.463467 0
M  V30 49540 H 4689.33 -6.964 0.00782037 0
M  V30 49541 H 4686.96 -7.5946 0.335314 0
M  V30 49542 N 4688.53 0.613463 -1.4517 0
M  V30 49543 C 4689.76 1.40431 -1.52623 0
M  V30 49544 C 4690.18 1.87437 -0.157773 0
M  V30 49545 O 4689.54 1.59794 0.856481 0
M  V30 49546 C 4689.59 2.58885 -2.5102 0
M  V30 49547 O 4688.69 3.59319 -2.02394 0
M  V30 49548 H 4688.03 0.419488 -0.514709 0
M  V30 49549 H 4690.56 0.747148 -1.9047 0
M  V30 49550 H 4690.57 3.06205 -2.69634 0
M  V30 49551 H 4689.25 2.2402 -3.50411 0
M  V30 49552 H 4687.83 3.18688 -1.93629 0
M  V30 49553 N 4690.01 1.32363 0.855449 0
M  V30 49554 C 4691.24 1.25876 1.64204 0
M  V30 49555 C 4691.65 -0.173391 1.88002 0
M  V30 49556 O 4691.01 -1.11022 1.44846 0
M  V30 49557 C 4691.06 2.01434 3.00177 0
M  V30 49558 O 4690.78 3.39061 2.77433 0
M  V30 49559 C 4692.28 2.01962 3.94622 0
M  V30 49560 H 4689.5 0.434336 0.511462 0
M  V30 49561 H 4692.05 1.74473 1.06674 0
M  V30 49562 H 4690.2 1.56562 3.54355 0
M  V30 49563 H 4690.62 3.77724 3.63903 0
M  V30 49564 H 4692.09 2.59314 4.87299 0
M  V30 49565 H 4692.57 1.00569 4.27531 0
M  V30 49566 H 4693.17 2.46779 3.46382 0
M  V30 49567 N 4691.49 -1.07162 1.1556 0
M  V30 49568 C 4692.74 -1.79795 0.931667 0
M  V30 49569 C 4693.06 -1.86822 -0.541084 0
M  V30 49570 O 4692.32 -1.34947 -1.41731 0
M  V30 49571 C 4692.62 -3.24702 1.49343 0
M  V30 49572 C 4692.28 -3.37771 2.987 0
M  V30 49573 C 4690.95 -3.41045 3.39473 0
M  V30 49574 C 4693.3 -3.4041 3.94677 0
M  V30 49575 C 4690.63 -3.44564 4.74861 0
M  V30 49576 C 4692.98 -3.45466 5.29939 0
M  V30 49577 C 4691.64 -3.47019 5.70206 0
M  V30 49578 H 4690.91 -0.657916 0.340921 0
M  V30 49579 H 4693.56 -1.26086 1.44134 0
M  V30 49580 H 4691.86 -3.81205 0.904993 0
M  V30 49581 H 4693.56 -3.79481 1.29595 0
M  V30 49582 H 4690.15 -3.35922 2.66184 0
M  V30 49583 H 4694.34 -3.371 3.64249 0
M  V30 49584 H 4689.59 -3.44065 5.054 0
M  V30 49585 H 4693.77 -3.46455 6.04104 0
M  V30 49586 H 4691.39 -3.49498 6.75096 0
M  V30 49587 N 4692.97 -0.9527 -1.25544 0
M  V30 49588 C 4693.88 -0.477901 -2.29681 0
M  V30 49589 C 4694.89 0.4538 -1.67978 0
M  V30 49590 O 4696.07 0.330517 -1.98669 0
M  V30 49591 C 4693.13 0.238533 -3.45878 0
M  V30 49592 C 4692.2 -0.731142 -4.23028 0
M  V30 49593 C 4691.43 -0.0488041 -5.33678 0
M  V30 49594 O 4691.65 1.16592 -5.58357 0
M  V30 49595 O 4690.59 -0.733362 -5.97416 0
M  V30 49596 H 4694.41 -1.34322 -2.72381 0
M  V30 49597 H 4692 -0.719072 -1.30957 0
M  V30 49598 H 4693.88 0.641627 -4.16487 0
M  V30 49599 H 4692.55 1.07906 -3.05185 0
M  V30 49600 H 4691.46 -1.18441 -3.54856 0
M  V30 49601 H 4692.79 -1.53963 -4.675 0
M  V30 49602 N 4694.45 1.40138 -0.721047 0
M  V30 49603 C 4695.36 2.34486 -0.0731855 0
M  V30 49604 C 4696.37 1.5759 0.737668 0
M  V30 49605 O 4697.55 1.89951 0.669362 0
M  V30 49606 C 4694.61 3.36531 0.833538 0
M  V30 49607 C 4693.67 4.29298 0.0120164 0
M  V30 49608 C 4692.91 5.26469 0.875557 0
M  V30 49609 O 4693.13 5.29753 2.11467 0
M  V30 49610 O 4692.06 6.01093 0.311639 0
M  V30 49611 H 4695.89 2.91517 -0.851546 0
M  V30 49612 H 4693.47 1.41426 -0.481577 0
M  V30 49613 H 4695.36 3.99097 1.35275 0
M  V30 49614 H 4694.03 2.81905 1.59095 0
M  V30 49615 H 4692.94 3.69999 -0.552392 0
M  V30 49616 H 4694.27 4.87091 -0.7073 0
M  V30 49617 N 4695.92 0.467632 1.50502 0
M  V30 49618 C 4696.89 -0.316979 2.26998 0
M  V30 49619 C 4697.89 -0.923466 1.31639 0
M  V30 49620 O 4699.08 -0.793185 1.55094 0
M  V30 49621 C 4696.21 -1.45123 3.08467 0
M  V30 49622 H 4697.4 0.353827 2.97805 0
M  V30 49623 H 4694.95 0.221599 1.54721 0
M  V30 49624 H 4695.69 -2.1572 2.42148 0
M  V30 49625 H 4695.47 -1.02219 3.78542 0
M  V30 49626 H 4696.96 -2.0048 3.6633 0
M  V30 49627 N 4697.4 -1.56324 0.200105 0
M  V30 49628 C 4698.36 -2.18086 -0.705056 0
M  V30 49629 C 4699.36 -1.1367 -1.13736 0
M  V30 49630 O 4700.55 -1.39026 -1.04963 0
M  V30 49631 C 4697.69 -2.78696 -1.96319 0
M  V30 49632 H 4698.88 -2.99435 -0.166917 0
M  V30 49633 H 4696.43 -1.56222 -0.0495176 0
M  V30 49634 H 4697.17 -2.01159 -2.54373 0
M  V30 49635 H 4696.95 -3.55139 -1.6619 0
M  V30 49636 H 4698.44 -3.26105 -2.60855 0
M  V30 49637 N 4698.88 0.0734624 -1.57429 0
M  V30 49638 C 4699.81 1.08783 -2.06612 0
M  V30 49639 C 4700.79 1.4047 -0.959286 0
M  V30 49640 O 4701.98 1.50126 -1.23191 0
M  V30 49641 C 4699.11 2.40175 -2.50865 0
M  V30 49642 C 4698.06 2.22845 -3.6541 0
M  V30 49643 C 4697.39 3.59605 -3.95712 0
M  V30 49644 C 4698.69 1.65106 -4.95517 0
M  V30 49645 H 4700.38 0.678571 -2.91609 0
M  V30 49646 H 4697.93 0.324964 -1.40285 0
M  V30 49647 H 4699.88 3.11427 -2.83885 0
M  V30 49648 H 4698.6 2.83078 -1.62895 0
M  V30 49649 H 4697.26 1.54033 -3.3267 0
M  V30 49650 H 4696.91 4.00075 -3.04876 0
M  V30 49651 H 4696.61 3.48849 -4.7284 0
M  V30 49652 H 4698.13 4.32291 -4.31227 0
M  V30 49653 H 4699.55 2.26223 -5.26779 0
M  V30 49654 H 4697.94 1.65051 -5.76956 0
M  V30 49655 H 4699.01 0.61239 -4.81017 0
M  V30 49656 N 4700.36 1.53782 0.344812 0
M  V30 49657 C 4701.6 1.72681 1.09365 0
M  V30 49658 C 4701.96 0.479149 1.85925 0
M  V30 49659 O 4703.16 0.545142 2.63214 0
M  V30 49660 C 4701.43 2.95464 2.01087 0
M  V30 49661 S 4702.99 3.35167 2.83211 0
M  V30 49662 H 4699.81 0.607415 0.369552 0
M  V30 49663 H 4702.41 1.91923 0.37224 0
M  V30 49664 H 4701.12 3.84442 1.43641 0
M  V30 49665 H 4700.65 2.78683 2.77668 0
M  V30 49666 H 4702.66 2.88803 4.03494 0
M  V30 49667 N 4701.84 -0.605756 1.45494 0
M  V30 49668 C 4703.06 -1.3913 1.53135 0
M  V30 49669 C 4703.48 -1.88081 0.164573 0
M  V30 49670 O 4702.84 -1.62319 -0.83419 0
M  V30 49671 C 4702.89 -2.59455 2.51725 0
M  V30 49672 O 4702.61 -2.12538 3.83092 0
M  V30 49673 C 4704.11 -3.52292 2.69083 0
M  V30 49674 H 4701.33 -0.42583 0.518565 0
M  V30 49675 H 4703.87 -0.738583 1.90697 0
M  V30 49676 H 4702.03 -3.20764 2.17231 0
M  V30 49677 H 4702.44 -2.90728 4.36551 0
M  V30 49678 H 4703.92 -4.33259 3.42039 0
M  V30 49679 H 4704.39 -4.02751 1.75182 0
M  V30 49680 H 4705 -2.96834 3.04581 0
M  V30 49681 N 4703.31 -1.32814 -0.848417 0
M  V30 49682 C 4704.56 -1.23729 -1.60304 0
M  V30 49683 C 4704.89 0.199332 -1.93476 0
M  V30 49684 O 4704.14 1.15401 -1.58054 0
M  V30 49685 C 4704.44 -2.04841 -2.92874 0
M  V30 49686 C 4704.11 -3.54135 -2.79104 0
M  V30 49687 C 4702.77 -3.94838 -2.75057 0
M  V30 49688 C 4705.12 -4.49045 -2.6459 0
M  V30 49689 C 4702.45 -5.28684 -2.54381 0
M  V30 49690 C 4704.8 -5.83042 -2.45449 0
M  V30 49691 C 4703.47 -6.22939 -2.39797 0
M  V30 49692 H 4702.74 -0.452758 -0.586593 0
M  V30 49693 H 4705.38 -1.64304 -0.983685 0
M  V30 49694 H 4703.69 -1.57014 -3.58962 0
M  V30 49695 H 4705.39 -1.95176 -3.50296 0
M  V30 49696 H 4701.98 -3.21811 -2.83083 0
M  V30 49697 H 4706.16 -4.18514 -2.66758 0
M  V30 49698 H 4701.42 -5.58646 -2.48445 0
M  V30 49699 H 4705.59 -6.56194 -2.33199 0
M  V30 49700 H 4703.22 -7.26592 -2.23537 0
M  V30 49701 N 4704.79 1.06547 -1.16127 0
M  V30 49702 C 4705.72 2.15931 -0.888585 0
M  V30 49703 C 4706.7 1.69307 0.164075 0
M  V30 49704 O 4707.89 1.94193 0.0167174 0
M  V30 49705 C 4705.02 3.45148 -0.386063 0
M  V30 49706 C 4703.97 4.05267 -1.37634 0
M  V30 49707 C 4703.3 5.29661 -0.732324 0
M  V30 49708 C 4704.6 4.44345 -2.74508 0
M  V30 49709 H 4706.29 2.39 -1.80332 0
M  V30 49710 H 4703.84 1.14863 -0.868475 0
M  V30 49711 H 4705.79 4.21003 -0.182795 0
M  V30 49712 H 4704.52 3.21691 0.564161 0
M  V30 49713 H 4703.17 3.31464 -1.56611 0
M  V30 49714 H 4702.82 5.025 0.224306 0
M  V30 49715 H 4702.52 5.70843 -1.39327 0
M  V30 49716 H 4704.05 6.08216 -0.539016 0
M  V30 49717 H 4705.46 5.11294 -2.59329 0
M  V30 49718 H 4703.86 4.96503 -3.37053 0
M  V30 49719 H 4704.93 3.55327 -3.29956 0
M  V30 49720 N 4706.27 0.959345 1.25037 0
M  V30 49721 C 4707.2 0.501469 2.28052 0
M  V30 49722 C 4708.18 -0.454615 1.63912 0
M  V30 49723 O 4709.37 -0.35255 1.90973 0
M  V30 49724 C 4706.5 -0.217102 3.46621 0
M  V30 49725 C 4705.45 0.654183 4.22971 0
M  V30 49726 C 4704.78 -0.195401 5.34343 0
M  V30 49727 C 4706.08 1.93464 4.85148 0
M  V30 49728 H 4707.77 1.36247 2.66603 0
M  V30 49729 H 4705.32 0.656579 1.2816 0
M  V30 49730 H 4707.27 -0.548585 4.17814 0
M  V30 49731 H 4705.99 -1.11239 3.07072 0
M  V30 49732 H 4704.65 0.968817 3.53567 0
M  V30 49733 H 4704.3 -1.09059 4.91035 0
M  V30 49734 H 4704 0.384297 5.86342 0
M  V30 49735 H 4705.52 -0.521744 6.08367 0
M  V30 49736 H 4706.94 1.66927 5.4846 0
M  V30 49737 H 4705.34 2.46038 5.47344 0
M  V30 49738 H 4706.41 2.63481 4.0707 0
M  V30 49739 N 4707.75 -1.39754 0.728469 0
M  V30 49740 C 4708.7 -2.32485 0.0732666 0
M  V30 49741 C 4709.69 -1.5272 -0.73301 0
M  V30 49742 O 4710.9 -1.6843 -0.634929 0
M  V30 49743 H 4707.27 -0.751984 0.00489112 0
M  V30 49744 H 4709.24 -2.85379 0.871861 0
M  V30 49745 C 4707.99 -3.37776 -0.824789 0
M  V30 49746 H 4707.31 -3.99228 -0.213774 0
M  V30 49747 H 4708.75 -4.05126 -1.25096 0
M  V30 49748 C 4707.21 -2.74294 -1.95612 0
M  V30 49749 O 4707.74 -2.61628 -3.04817 0
M  V30 49750 N 4705.95 -2.32481 -1.74359 0
M  V30 49751 H 4705.5 -2.42983 -0.855409 0
M  V30 49752 H 4705.45 -1.90346 -2.50232 0
M  V30 49753 N 4709.23 -0.475607 -1.50252 0
M  V30 49754 C 4710.17 0.316213 -2.28624 0
M  V30 49755 C 4711.14 0.98318 -1.33876 0
M  V30 49756 O 4712.33 0.994748 -1.62817 0
M  V30 49757 C 4709.47 1.38964 -3.15885 0
M  V30 49758 C 4708.58 0.736996 -4.25667 0
M  V30 49759 C 4707.72 1.7887 -5.00179 0
M  V30 49760 C 4706.76 1.11655 -6.0183 0
M  V30 49761 N 4705.89 2.1113 -6.69603 0
M  V30 49762 H 4710.73 -0.358401 -2.95837 0
M  V30 49763 H 4708.27 -0.188592 -1.45886 0
M  V30 49764 H 4710.23 2.0237 -3.64832 0
M  V30 49765 H 4708.86 2.03335 -2.50708 0
M  V30 49766 H 4707.91 -0.00974023 -3.80399 0
M  V30 49767 H 4709.22 0.206641 -4.98372 0
M  V30 49768 H 4708.38 2.49845 -5.52867 0
M  V30 49769 H 4707.11 2.35287 -4.2719 0
M  V30 49770 H 4706.12 0.39244 -5.48398 0
M  V30 49771 H 4707.34 0.559213 -6.76794 0
M  V30 49772 H 4705.29 2.66556 -5.99403 0
M  V30 49773 H 4705.21 1.63092 -7.38198 0
M  V30 49774 H 4706.48 2.81472 -7.26907 0
M  V30 49775 N 4710.7 1.56216 -0.208392 0
M  V30 49776 C 4711.61 2.23318 0.718757 0
M  V30 49777 C 4712.63 1.23652 1.22418 0
M  V30 49778 O 4713.81 1.56428 1.26855 0
M  V30 49779 C 4710.87 2.88975 1.91558 0
M  V30 49780 C 4709.93 4.03948 1.45343 0
M  V30 49781 C 4709.17 4.66464 2.5932 0
M  V30 49782 O 4709.39 4.27932 3.77134 0
M  V30 49783 O 4708.32 5.55694 2.31273 0
M  V30 49784 H 4712.15 3.03183 0.177209 0
M  V30 49785 H 4709.73 1.49385 0.0214877 0
M  V30 49786 H 4711.62 3.30464 2.6148 0
M  V30 49787 H 4710.29 2.1208 2.44548 0
M  V30 49788 H 4709.2 3.67055 0.722617 0
M  V30 49789 H 4710.53 4.82546 0.97005 0
M  V30 49790 N 4712.18 -0.0651125 1.57465 0
M  V30 49791 C 4713.12 -1.10869 1.99457 0
M  V30 49792 C 4714.09 -1.37202 0.872603 0
M  V30 49793 O 4715.28 -1.50464 1.13547 0
M  V30 49794 C 4712.4 -2.45159 2.33698 0
M  V30 49795 C 4711.45 -2.34918 3.55972 0
M  V30 49796 S 4712.28 -1.73691 5.06549 0
M  V30 49797 C 4713.44 -3.09544 5.43997 0
M  V30 49798 H 4713.67 -0.750866 2.87662 0
M  V30 49799 H 4711.21 -0.27388 1.51952 0
M  V30 49800 H 4713.16 -3.22403 2.541 0
M  V30 49801 H 4711.82 -2.781 1.46011 0
M  V30 49802 H 4711.02 -3.33966 3.77469 0
M  V30 49803 H 4710.62 -1.65811 3.35235 0
M  V30 49804 H 4712.91 -4.05863 5.42477 0
M  V30 49805 H 4713.85 -2.9282 6.44719 0
M  V30 49806 H 4714.26 -3.10457 4.71462 0
M  V30 49807 N 4713.66 -1.53962 -0.336652 0
M  V30 49808 C 4714.89 -1.75232 -1.0944 0
M  V30 49809 C 4715.3 -0.494666 -1.82619 0
M  V30 49810 O 4714.64 0.543703 -1.7547 0
M  V30 49811 C 4714.7 -2.88295 -2.1477 0
M  V30 49812 C 4714.37 -4.27661 -1.61105 0
M  V30 49813 C 4715.36 -5.08985 -1.05972 0
M  V30 49814 C 4713.05 -4.74167 -1.65743 0
M  V30 49815 C 4715.04 -6.34918 -0.561906 0
M  V30 49816 C 4712.73 -6.00072 -1.15574 0
M  V30 49817 C 4713.73 -6.8028 -0.608908 0
M  V30 49818 O 4713.42 -8.03818 -0.114717 0
M  V30 49819 H 4713.15 -0.588893 -0.331936 0
M  V30 49820 H 4715.7 -2.01615 -0.392495 0
M  V30 49821 H 4713.93 -2.57453 -2.88539 0
M  V30 49822 H 4715.62 -2.97471 -2.76163 0
M  V30 49823 H 4716.39 -4.74216 -1.01706 0
M  V30 49824 H 4712.27 -4.11789 -2.07246 0
M  V30 49825 H 4715.81 -6.9747 -0.134423 0
M  V30 49826 H 4711.71 -6.34334 -1.19544 0
M  V30 49827 H 4712.48 -8.18173 -0.231363 0
M  V30 49828 N 4715.14 0.598031 -1.45813 0
M  V30 49829 C 4716.07 1.71867 -1.58063 0
M  V30 49830 C 4717.05 1.64531 -0.431673 0
M  V30 49831 O 4718.23 1.82784 -0.656014 0
M  V30 49832 C 4715.36 3.10489 -1.55608 0
M  V30 49833 C 4714.32 3.32644 -2.69317 0
M  V30 49834 C 4713.64 4.71637 -2.51918 0
M  V30 49835 C 4714.94 3.21967 -4.1126 0
M  V30 49836 H 4716.64 1.61872 -2.51869 0
M  V30 49837 H 4714.18 0.77733 -1.21217 0
M  V30 49838 H 4716.14 3.88694 -1.62773 0
M  V30 49839 H 4714.86 3.21348 -0.583368 0
M  V30 49840 H 4713.52 2.56834 -2.61595 0
M  V30 49841 H 4713.17 4.79241 -1.52765 0
M  V30 49842 H 4712.87 4.87415 -3.28177 0
M  V30 49843 H 4714.39 5.52029 -2.60952 0
M  V30 49844 H 4715.81 3.90034 -4.20174 0
M  V30 49845 H 4714.2 3.49272 -4.87985 0
M  V30 49846 H 4715.27 2.19265 -4.32494 0
M  V30 49847 N 4716.62 1.33262 0.841362 0
M  V30 49848 C 4717.56 1.23308 1.95099 0
M  V30 49849 C 4718.53 0.112262 1.6572 0
M  V30 49850 O 4719.72 0.290105 1.88582 0
M  V30 49851 C 4716.86 0.975699 3.3102 0
M  V30 49852 C 4715.97 2.18256 3.72812 0
M  V30 49853 C 4715.11 1.85954 4.97589 0
M  V30 49854 C 4714.15 3.02885 5.31909 0
M  V30 49855 N 4713.28 2.70588 6.47863 0
M  V30 49856 H 4718.12 2.18214 2.02945 0
M  V30 49857 H 4715.66 1.08514 0.993135 0
M  V30 49858 H 4717.62 0.806914 4.09322 0
M  V30 49859 H 4716.25 0.063389 3.22738 0
M  V30 49860 H 4715.3 2.46117 2.90052 0
M  V30 49861 H 4716.61 3.0568 3.94159 0
M  V30 49862 H 4715.77 1.65704 5.83633 0
M  V30 49863 H 4714.51 0.95762 4.78206 0
M  V30 49864 H 4713.51 3.23751 4.44371 0
M  V30 49865 H 4714.74 3.93828 5.53242 0
M  V30 49866 H 4712.68 1.82952 6.29972 0
M  V30 49867 H 4712.6 3.51543 6.69294 0
M  V30 49868 H 4713.87 2.53799 7.37025 0
M  V30 49869 N 4718.1 -1.0593 1.1669 0
M  V30 49870 C 4719.03 -2.15457 0.900024 0
M  V30 49871 C 4720.01 -1.69391 -0.155094 0
M  V30 49872 O 4721.19 -1.94199 -0.00641866 0
M  V30 49873 C 4718.32 -3.44938 0.404362 0
M  V30 49874 C 4717.28 -4.04531 1.39781 0
M  V30 49875 C 4716.6 -5.29266 0.760403 0
M  V30 49876 C 4717.9 -4.42883 2.76861 0
M  V30 49877 H 4719.6 -2.3804 1.81597 0
M  V30 49878 H 4717.14 -1.14401 0.874554 0
M  V30 49879 H 4719.09 -4.209 0.205119 0
M  V30 49880 H 4717.82 -3.21985 -0.547093 0
M  V30 49881 H 4716.48 -3.30629 1.58366 0
M  V30 49882 H 4716.13 -5.02612 -0.197654 0
M  V30 49883 H 4715.83 -5.70096 1.42352 0
M  V30 49884 H 4717.35 -6.07922 0.571264 0
M  V30 49885 H 4718.76 -5.09912 2.62037 0
M  V30 49886 H 4717.16 -4.94709 3.39681 0
M  V30 49887 H 4718.23 -3.53572 3.31835 0
M  V30 49888 N 4719.57 -0.965962 -1.24527 0
M  V30 49889 C 4720.99 -0.672211 -1.44753 0
M  V30 49890 C 4721.19 0.766543 -1.8635 0
M  V30 49891 O 4720.25 1.54063 -2.00052 0
M  V30 49892 C 4721.56 -1.65482 -2.5107 0
M  V30 49893 C 4723.11 -1.66725 -2.64899 0
M  V30 49894 C 4723.58 -2.6378 -3.74412 0
M  V30 49895 N 4725.07 -2.62211 -3.81837 0
M  V30 49896 C 4725.81 -3.33982 -4.66094 0
M  V30 49897 N 4725.3 -4.15264 -5.54552 0
M  V30 49898 N 4727.1 -3.22815 -4.6016 0
M  V30 49899 H 4719.25 -1.89557 -0.958227 0
M  V30 49900 H 4721.51 -0.815996 -0.48255 0
M  V30 49901 H 4721.22 -2.68304 -2.27389 0
M  V30 49902 H 4721.09 -1.42622 -3.49197 0
M  V30 49903 H 4723.48 -0.646159 -2.87939 0
M  V30 49904 H 4723.56 -1.93648 -1.67135 0
M  V30 49905 H 4723.2 -3.66022 -3.52122 0
M  V30 49906 H 4723.13 -2.34137 -4.71686 0
M  V30 49907 H 4725.62 -2.03211 -3.18612 0
M  V30 49908 H 4725.94 -4.66919 -6.15797 0
M  V30 49909 H 4724.28 -4.19359 -5.54223 0
M  V30 49910 H 4727.47 -2.58778 -3.90066 0
M  V30 49911 H 4727.65 -3.79012 -5.25598 0
M  V30 49912 N 4721.05 1.39365 -0.73587 0
M  V30 49913 C 4722.28 2.05318 -0.293124 0
M  V30 49914 C 4722.7 1.55119 1.06394 0
M  V30 49915 O 4722.06 0.69532 1.67437 0
M  V30 49916 C 4722.11 3.59304 -0.305449 0
M  V30 49917 O 4721.21 4.06301 0.706618 0
M  V30 49918 H 4720.55 0.650525 -0.133092 0
M  V30 49919 H 4723.08 1.78383 -1.00204 0
M  V30 49920 H 4723.09 4.07724 -0.150141 0
M  V30 49921 H 4721.77 3.95203 -1.29567 0
M  V30 49922 H 4720.34 3.69293 0.517375 0
M  V30 49923 N 4722.53 0.483569 1.49998 0
M  V30 49924 C 4723.81 -0.129268 1.95172 0
M  V30 49925 C 4724.19 -1.55797 1.42445 0
M  V30 49926 O 4723.53 -2.19623 0.630726 0
M  V30 49927 C 4723.74 -0.0598024 3.48949 0
M  V30 49928 C 4725.09 -0.242468 4.23907 0
M  V30 49929 O 4726.12 -0.135808 3.55941 0
M  V30 49930 O 4724.98 -0.459262 5.44567 0
M  V30 49931 H 4722.07 -0.104859 0.820325 0
M  V30 49932 H 4724.62 0.544863 1.60715 0
M  V30 49933 H 4723.39 0.937213 3.79911 0
M  V30 49934 H 4723.01 -0.774847 3.89977 0
M  V30 49935 N 4724.01 -1.56103 0.216674 0
M  V30 49936 C 4725.25 -1.98467 -0.416963 0
M  V30 49937 C 4725.59 -1.10408 -1.59761 0
M  V30 49938 O 4724.86 -0.1607 -1.93835 0
M  V30 49939 C 4725.14 -3.49772 -0.856247 0
M  V30 49940 C 4725 -4.48605 0.327704 0
M  V30 49941 C 4726.32 -4.05345 -1.71415 0
M  V30 49942 H 4723.44 -0.721556 -0.150087 0
M  V30 49943 H 4726.08 -1.87422 0.31193 0
M  V30 49944 H 4724.23 -3.59315 -1.47732 0
M  V30 49945 H 4725.9 -4.51077 0.965776 0
M  V30 49946 H 4724.14 -4.22679 0.975953 0
M  V30 49947 H 4724.81 -5.51995 -0.0225209 0
M  V30 49948 H 4727.29 -3.98716 -1.19017 0
M  V30 49949 H 4726.17 -5.1154 -1.99043 0
M  V30 49950 H 4726.43 -3.51927 -2.67581 0
M  V30 49951 N 4725.49 0.0567608 -1.57498 0
M  V30 49952 C 4726.42 1.06586 -2.07754 0
M  V30 49953 C 4727.4 1.39444 -0.974131 0
M  V30 49954 O 4728.58 1.48811 -1.24776 0
M  V30 49955 C 4725.71 2.375 -2.53399 0
M  V30 49956 C 4724.67 2.18957 -3.67753 0
M  V30 49957 C 4723.99 3.55388 -3.99504 0
M  V30 49958 C 4725.29 1.59841 -4.9724 0
M  V30 49959 H 4726.99 0.647603 -2.92312 0
M  V30 49960 H 4724.53 0.310066 -1.40622 0
M  V30 49961 H 4726.48 3.08399 -2.87173 0
M  V30 49962 H 4725.21 2.81334 -1.65888 0
M  V30 49963 H 4723.87 1.50496 -3.34285 0
M  V30 49964 H 4723.52 3.96819 -3.09102 0
M  V30 49965 H 4723.22 3.43814 -4.76514 0
M  V30 49966 H 4724.74 4.27693 -4.35788 0
M  V30 49967 H 4726.15 2.20623 -5.29149 0
M  V30 49968 H 4724.55 1.58922 -5.78674 0
M  V30 49969 H 4725.62 0.561337 -4.8164 0
M  V30 49970 N 4726.96 1.54139 0.328482 0
M  V30 49971 C 4727.89 1.86172 1.40933 0
M  V30 49972 C 4728.87 0.718098 1.54199 0
M  V30 49973 O 4730.06 0.971387 1.6816 0
M  V30 49974 C 4727.19 2.08471 2.77772 0
M  V30 49975 C 4726.14 3.24309 2.79299 0
M  V30 49976 C 4725.47 3.3197 4.19166 0
M  V30 49977 C 4726.77 4.62074 2.43485 0
M  V30 49978 H 4728.46 2.76693 1.14373 0
M  V30 49979 H 4726.01 1.33134 0.548759 0
M  V30 49980 H 4727.96 2.29465 3.53446 0
M  V30 49981 H 4726.69 1.14695 3.05798 0
M  V30 49982 H 4725.35 3.03194 2.06079 0
M  V30 49983 H 4724.99 2.35761 4.44326 0
M  V30 49984 H 4724.69 4.0982 4.21095 0
M  V30 49985 H 4726.22 3.55192 4.9666 0
M  V30 49986 H 4727.63 4.82981 3.08872 0
M  V30 49987 H 4726.03 5.42438 2.56674 0
M  V30 49988 H 4727.1 4.64657 1.38643 0
M  V30 49989 N 4728.44 -0.59029 1.46128 0
M  V30 49990 C 4729.85 -1.17237 1.45301 0
M  V30 49991 C 4730.2 -1.9528 0.189792 0
M  V30 49992 O 4729.33 -2.04504 -0.707602 0
M  V30 49993 C 4729.92 -2.13275 2.63247 0
M  V30 49994 C 4728.48 -2.66823 2.65485 0
M  V30 49995 C 4727.63 -1.42549 2.37855 0
M  V30 49996 H 4730.58 -0.378638 1.54117 0
M  V30 49997 H 4730.6 -2.9661 2.38333 0
M  V30 49998 H 4730.11 -1.56446 3.55171 0
M  V30 49999 H 4728.21 -3.27542 1.77615 0
M  V30 50000 H 4728.33 -3.10075 3.65226 0
M  V30 50001 H 4726.69 -1.721 1.87759 0
M  V30 50002 H 4727.47 -0.875625 3.31945 0
M  V30 50003 N 4729.92 -1.33707 -0.834283 0
M  V30 50004 C 4730.85 -1.26974 -1.95959 0
M  V30 50005 C 4731.83 -0.149396 -1.69443 0
M  V30 50006 O 4733.02 -0.339919 -1.91202 0
M  V30 50007 C 4730.15 -1.01287 -3.32202 0
M  V30 50008 C 4729.1 -2.09665 -3.73128 0
M  V30 50009 C 4728.43 -1.69184 -5.07229 0
M  V30 50010 C 4729.73 -3.51386 -3.86426 0
M  V30 50011 H 4731.42 -2.21127 -2.0185 0
M  V30 50012 H 4728.97 -1.06451 -0.969756 0
M  V30 50013 H 4730.92 -0.95225 -4.105 0
M  V30 50014 H 4729.64 -0.0357351 -3.2658 0
M  V30 50015 H 4728.3 -2.14777 -2.97097 0
M  V30 50016 H 4727.95 -0.701612 -4.98083 0
M  V30 50017 H 4727.65 -2.41713 -5.35582 0
M  V30 50018 H 4729.17 -1.64597 -5.87997 0
M  V30 50019 H 4730.59 -3.4875 -4.55024 0
M  V30 50020 H 4728.98 -4.2244 -4.26222 0
M  V30 50021 H 4730.05 -3.89557 -2.88745 0
M  V30 50022 N 4731.4 1.0531 -1.1725 0
M  V30 50023 C 4732.63 1.81967 -0.984657 0
M  V30 50024 C 4733.04 1.82931 0.467102 0
M  V30 50025 O 4732.4 1.25569 1.32434 0
M  V30 50026 C 4732.45 3.28138 -1.51683 0
M  V30 50027 O 4732.17 3.27336 -2.91174 0
M  V30 50028 C 4733.67 4.21488 -1.37341 0
M  V30 50029 H 4730.89 0.573443 -0.348431 0
M  V30 50030 H 4733.44 1.32803 -1.55511 0
M  V30 50031 H 4731.59 3.74578 -0.988433 0
M  V30 50032 H 4732 4.18813 -3.15747 0
M  V30 50033 H 4733.48 5.22037 -1.79393 0
M  V30 50034 H 4733.96 4.3803 -0.320323 0
M  V30 50035 H 4734.56 3.80902 -1.89191 0
M  V30 50036 N 4732.88 0.972553 1.24013 0
M  V30 50037 C 4733.81 0.464454 2.24445 0
M  V30 50038 C 4734.82 -0.429444 1.57034 0
M  V30 50039 O 4736.01 -0.23484 1.76948 0
M  V30 50040 C 4733.11 -0.348267 3.37106 0
M  V30 50041 C 4732.28 0.536883 4.34093 0
M  V30 50042 C 4731.34 -0.220653 5.25737 0
M  V30 50043 O 4730.37 0.387067 5.67882 0
M  V30 50044 N 4731.57 -1.50887 5.60547 0
M  V30 50045 H 4734.34 1.32797 2.68673 0
M  V30 50046 H 4731.9 0.844925 1.38104 0
M  V30 50047 H 4733.89 -0.863202 3.95387 0
M  V30 50048 H 4732.46 -1.11274 2.92125 0
M  V30 50049 H 4731.68 1.23274 3.74429 0
M  V30 50050 H 4732.97 1.14039 4.95855 0
M  V30 50051 H 4732.36 -2.02426 5.28243 0
M  V30 50052 H 4730.92 -1.9694 6.21335 0
M  V30 50053 N 4734.35 -1.38973 0.74325 0
M  V30 50054 C 4735.58 -2.04338 0.304879 0
M  V30 50055 C 4735.99 -1.56165 -1.06813 0
M  V30 50056 O 4735.34 -0.725344 -1.68773 0
M  V30 50057 C 4735.4 -3.58715 0.237495 0
M  V30 50058 C 4735.06 -4.299 1.55033 0
M  V30 50059 C 4736.06 -4.55978 2.4976 0
M  V30 50060 C 4733.74 -4.68288 1.81691 0
M  V30 50061 C 4735.74 -5.19465 3.69371 0
M  V30 50062 C 4733.42 -5.31501 3.01579 0
M  V30 50063 C 4734.42 -5.57023 3.95239 0
M  V30 50064 O 4734.11 -6.18923 5.1302 0
M  V30 50065 H 4733.84 -0.663435 0.129733 0
M  V30 50066 H 4736.4 -1.78848 1.01008 0
M  V30 50067 H 4734.63 -3.83135 -0.523868 0
M  V30 50068 H 4736.32 -4.05544 -0.169979 0
M  V30 50069 H 4737.08 -4.26759 2.30438 0
M  V30 50070 H 4732.96 -4.47775 1.0963 0
M  V30 50071 H 4736.5 -5.39302 4.42492 0
M  V30 50072 H 4732.4 -5.60142 3.20798 0
M  V30 50073 H 4733.17 -6.37414 5.13464 0
M  V30 50074 N 4735.83 -0.491517 -1.49739 0
M  V30 50075 C 4736.78 0.305756 -2.30582 0
M  V30 50076 C 4737.77 0.971594 -1.38767 0
M  V30 50077 O 4738.98 0.900365 -1.55863 0
M  V30 50078 H 4735.36 0.117455 -0.742771 0
M  V30 50079 H 4737.33 -0.396197 -2.95758 0
M  V30 50080 C 4736.08 1.36307 -3.19868 0
M  V30 50081 H 4735.4 0.860121 -3.90438 0
M  V30 50082 H 4736.84 1.8931 -3.79391 0
M  V30 50083 C 4735.3 2.37612 -2.38835 0
M  V30 50084 O 4735.83 3.43304 -2.08579 0
M  V30 50085 N 4734.03 2.09842 -2.01034 0
M  V30 50086 H 4733.58 1.23914 -2.25839 0
M  V30 50087 H 4733.54 2.77853 -1.47122 0
M  V30 50088 N 4737.31 1.55986 -0.224949 0
M  V30 50089 C 4738.73 1.59067 0.13037 0
M  V30 50090 C 4738.93 1.24182 1.58686 0
M  V30 50091 O 4737.98 0.978674 2.32762 0
M  V30 50092 C 4739.3 3.00041 -0.198988 0
M  V30 50093 C 4740.84 3.1268 -0.141501 0
M  V30 50094 C 4741.32 4.55837 -0.444582 0
M  V30 50095 N 4742.81 4.61519 -0.394277 0
M  V30 50096 C 4743.54 5.70229 -0.602238 0
M  V30 50097 N 4743.04 6.87288 -0.872155 0
M  V30 50098 N 4744.83 5.59554 -0.534442 0
M  V30 50099 H 4736.98 1.76937 -1.17504 0
M  V30 50100 H 4739.25 0.822587 -0.471226 0
M  V30 50101 H 4738.95 3.3023 -1.21001 0
M  V30 50102 H 4738.83 3.74077 0.484404 0
M  V30 50103 H 4741.21 2.82286 0.860166 0
M  V30 50104 H 4741.3 2.40966 -0.85842 0
M  V30 50105 H 4740.94 4.86949 -1.4437 0
M  V30 50106 H 4740.87 5.25781 0.293567 0
M  V30 50107 H 4743.36 3.77404 -0.193489 0
M  V30 50108 H 4743.67 7.66054 -1.01885 0
M  V30 50109 H 4742.02 6.89025 -0.909387 0
M  V30 50110 H 4745.21 4.66979 -0.323776 0
M  V30 50111 H 4745.38 6.44209 -0.699919 0
M  V30 50112 N 4738.79 -0.0484076 1.57526 0
M  V30 50113 C 4740.02 -0.754258 1.9234 0
M  V30 50114 C 4740.43 -1.70441 0.82138 0
M  V30 50115 O 4739.77 -1.82467 -0.212476 0
M  V30 50116 C 4739.83 -1.58219 3.22811 0
M  V30 50117 C 4739.5 -0.798915 4.49963 0
M  V30 50118 C 4740.49 -0.107717 5.19788 0
M  V30 50119 C 4738.18 -0.759171 4.9653 0
M  V30 50120 C 4740.17 0.612739 6.34448 0
M  V30 50121 C 4737.86 -0.0349565 6.1109 0
M  V30 50122 C 4738.86 0.649776 6.79902 0
M  V30 50123 O 4738.54 1.36227 7.92274 0
M  V30 50124 H 4738.28 -0.218234 0.639804 0
M  V30 50125 H 4740.83 -0.0158573 2.05394 0
M  V30 50126 H 4739.06 -2.36395 3.0603 0
M  V30 50127 H 4740.75 -2.16886 3.43096 0
M  V30 50128 H 4741.52 -0.129578 4.84827 0
M  V30 50129 H 4737.39 -1.28162 4.42827 0
M  V30 50130 H 4740.94 1.14775 6.88093 0
M  V30 50131 H 4736.84 -0.0111044 6.45499 0
M  V30 50132 H 4737.6 1.27395 8.08525 0
M  V30 50133 N 4740.27 -1.54311 -0.320303 0
M  V30 50134 C 4741.2 -1.86917 -1.39944 0
M  V30 50135 C 4742.18 -0.726265 -1.53816 0
M  V30 50136 O 4743.36 -0.980292 -1.67642 0
M  V30 50137 C 4740.49 -2.09941 -2.76662 0
M  V30 50138 C 4739.45 -3.25786 -2.77575 0
M  V30 50139 C 4738.77 -3.34188 -4.174 0
M  V30 50140 C 4740.07 -4.63358 -2.41032 0
M  V30 50141 H 4741.77 -2.77296 -1.12904 0
M  V30 50142 H 4739.31 -1.33423 -0.541691 0
M  V30 50143 H 4741.27 -2.31336 -3.52224 0
M  V30 50144 H 4739.99 -1.16315 -3.05186 0
M  V30 50145 H 4738.65 -3.04283 -2.04469 0
M  V30 50146 H 4738.3 -2.38114 -4.4307 0
M  V30 50147 H 4738 -4.12047 -4.18916 0
M  V30 50148 H 4739.52 -3.57821 -4.94769 0
M  V30 50149 H 4740.93 -4.84612 -3.06307 0
M  V30 50150 H 4739.33 -5.43791 -2.53794 0
M  V30 50151 H 4740.4 -4.65386 -1.36177 0
M  V30 50152 N 4741.74 0.582532 -1.46439 0
M  V30 50153 C 4742.71 1.67361 -1.56598 0
M  V30 50154 C 4743.71 1.54574 -0.443126 0
M  V30 50155 O 4744.9 1.59188 -0.707436 0
M  V30 50156 C 4742.03 3.06786 -1.48645 0
M  V30 50157 H 4743.22 1.59711 -2.53835 0
M  V30 50158 H 4740.78 0.800385 -1.34252 0
M  V30 50159 H 4741.51 3.19991 -0.526875 0
M  V30 50160 H 4741.3 3.17476 -2.30112 0
M  V30 50161 H 4742.79 3.86212 -1.5884 0
M  V30 50162 N 4743.22 1.34147 0.82718 0
M  V30 50163 C 4744.15 1.28011 1.95283 0
M  V30 50164 C 4745.13 0.15838 1.69361 0
M  V30 50165 O 4746.32 0.350054 1.91019 0
M  V30 50166 C 4743.45 1.03047 3.3166 0
M  V30 50167 C 4742.4 2.11641 3.72011 0
M  V30 50168 C 4741.73 1.71872 5.06324 0
M  V30 50169 C 4743.03 3.5343 3.84557 0
M  V30 50170 H 4744.72 2.22194 2.00674 0
M  V30 50171 H 4742.27 1.06963 0.964097 0
M  V30 50172 H 4744.22 0.974007 4.09989 0
M  V30 50173 H 4742.95 0.0530539 3.26557 0
M  V30 50174 H 4741.6 2.16349 2.95954 0
M  V30 50175 H 4741.25 0.728016 4.97704 0
M  V30 50176 H 4740.95 2.4455 5.34293 0
M  V30 50177 H 4742.48 1.67713 5.87116 0
M  V30 50178 H 4743.89 3.51158 4.53168 0
M  V30 50179 H 4742.29 4.24694 4.23975 0
M  V30 50180 H 4743.36 3.91082 2.86675 0
M  V30 50181 N 4744.7 -1.04686 1.17807 0
M  V30 50182 C 4745.93 -1.8118 0.992852 0
M  V30 50183 C 4746.34 -1.83472 -0.462034 0
M  V30 50184 O 4745.68 -1.26435 -1.33267 0
M  V30 50185 C 4745.74 -3.28358 1.46361 0
M  V30 50186 C 4745.41 -3.49738 2.94163 0
M  V30 50187 C 4746.4 -3.41442 3.92063 0
M  V30 50188 C 4744.09 -3.76537 3.32454 0
M  V30 50189 C 4746.08 -3.59637 5.26251 0
M  V30 50190 C 4743.77 -3.9438 4.66806 0
M  V30 50191 C 4744.77 -3.8593 5.63513 0
M  V30 50192 O 4744.46 -4.03269 6.95434 0
M  V30 50193 H 4744.19 -0.57761 0.351203 0
M  V30 50194 H 4746.74 -1.32871 1.56635 0
M  V30 50195 H 4744.97 -3.77606 0.833707 0
M  V30 50196 H 4746.66 -3.86391 1.24326 0
M  V30 50197 H 4747.43 -3.2071 3.63827 0
M  V30 50198 H 4743.31 -3.82215 2.57746 0
M  V30 50199 H 4746.85 -3.52958 6.0172 0
M  V30 50200 H 4742.75 -4.14604 4.94746 0
M  V30 50201 H 4743.52 -4.20466 7.02247 0
M  V30 50202 N 4746.18 -0.979116 -1.23495 0
M  V30 50203 C 4747.13 -0.510683 -2.26925 0
M  V30 50204 C 4748.12 0.431634 -1.63809 0
M  V30 50205 O 4749.33 0.305668 -1.77386 0
M  V30 50206 H 4745.7 -0.146714 -0.737549 0
M  V30 50207 H 4747.67 -1.39475 -2.63798 0
M  V30 50208 C 4746.42 0.172535 -3.47272 0
M  V30 50209 H 4745.75 -0.54347 -3.96089 0
M  V30 50210 H 4747.19 0.463953 -4.21454 0
M  V30 50211 C 4745.64 1.40334 -3.06281 0
M  V30 50212 O 4746.17 2.49967 -3.14451 0
M  V30 50213 N 4744.38 1.27353 -2.61208 0
M  V30 50214 H 4743.93 0.381494 -2.54759 0
M  V30 50215 H 4743.89 2.09814 -2.34148 0
M  V30 50216 N 4747.66 1.38577 -0.75061 0
M  V30 50217 C 4748.6 2.30483 -0.120916 0
M  V30 50218 C 4749.57 1.50025 0.71287 0
M  V30 50219 O 4750.76 1.78664 0.669614 0
M  V30 50220 C 4747.9 3.36433 0.768547 0
M  V30 50221 C 4747.01 4.31927 -0.079544 0
M  V30 50222 C 4746.15 5.24947 0.812645 0
M  V30 50223 C 4745.19 6.12087 -0.0392598 0
M  V30 50224 N 4744.32 6.97415 0.809723 0
M  V30 50225 H 4749.16 2.83758 -0.91025 0
M  V30 50226 H 4746.7 1.39706 -0.460512 0
M  V30 50227 H 4748.66 3.96467 1.29884 0
M  V30 50228 H 4747.29 2.84576 1.5237 0
M  V30 50229 H 4746.34 3.7338 -0.727435 0
M  V30 50230 H 4747.65 4.93317 -0.737574 0
M  V30 50231 H 4746.81 5.90083 1.41022 0
M  V30 50232 H 4745.55 4.63917 1.50442 0
M  V30 50233 H 4744.55 5.4595 -0.64952 0
M  V30 50234 H 4745.78 6.75186 -0.728047 0
M  V30 50235 H 4743.72 6.38936 1.4865 0
M  V30 50236 H 4743.64 7.55712 0.208524 0
M  V30 50237 H 4744.91 7.66964 1.39236 0
M  V30 50238 N 4749.14 0.499451 1.49477 0
M  V30 50239 C 4750.37 -0.0424113 2.06556 0
M  V30 50240 C 4750.77 -1.31509 1.36022 0
M  V30 50241 O 4750.12 -1.78553 0.431781 0
M  V30 50242 C 4750.18 -0.367949 3.57612 0
M  V30 50243 C 4749.84 0.806789 4.49822 0
M  V30 50244 C 4750.84 1.69684 4.9143 0
M  V30 50245 C 4748.52 1.00515 4.9214 0
M  V30 50246 C 4750.52 2.76943 5.74092 0
M  V30 50247 C 4748.21 2.08092 5.74579 0
M  V30 50248 C 4749.2 2.9614 6.15459 0
M  V30 50249 O 4748.89 4.01861 6.96249 0
M  V30 50250 H 4748.62 0.0165403 0.675798 0
M  V30 50251 H 4751.18 0.695565 1.93264 0
M  V30 50252 H 4749.41 -1.1595 3.68907 0
M  V30 50253 H 4751.1 -0.848241 3.96938 0
M  V30 50254 H 4751.86 1.5554 4.59382 0
M  V30 50255 H 4747.74 0.329198 4.59823 0
M  V30 50256 H 4751.29 3.45697 6.0592 0
M  V30 50257 H 4747.18 2.22232 6.06039 0
M  V30 50258 H 4747.95 3.99195 7.14553 0
M  V30 50259 N 4750.61 -1.55865 0.233218 0
M  V30 50260 C 4751.56 -2.20798 -0.672073 0
M  V30 50261 C 4752.53 -1.16735 -1.18162 0
M  V30 50262 O 4753.72 -1.45133 -1.23859 0
M  V30 50263 C 4750.86 -2.90079 -1.86945 0
M  V30 50264 C 4749.97 -4.08764 -1.39771 0
M  V30 50265 C 4749.1 -4.65796 -2.55357 0
M  V30 50266 C 4748.14 -5.76759 -2.04977 0
M  V30 50267 N 4747.28 -6.28032 -3.13879 0
M  V30 50268 H 4752.12 -2.97791 -0.111644 0
M  V30 50269 H 4749.66 -1.47036 -0.043349 0
M  V30 50270 H 4751.61 -3.28437 -2.57264 0
M  V30 50271 H 4750.24 -2.15584 -2.40257 0
M  V30 50272 H 4749.3 -3.75812 -0.589041 0
M  V30 50273 H 4750.61 -4.88909 -0.988388 0
M  V30 50274 H 4749.76 -5.06658 -3.3374 0
M  V30 50275 H 4748.5 -3.84838 -2.99584 0
M  V30 50276 H 4747.51 -5.35388 -1.2506 0
M  V30 50277 H 4748.73 -6.59559 -1.61736 0
M  V30 50278 H 4746.68 -5.49984 -3.57566 0
M  V30 50279 H 4746.59 -7.03333 -2.77235 0
M  V30 50280 H 4747.86 -6.73552 -3.92363 0
M  V30 50281 N 4752.09 0.0400529 -1.57549 0
M  V30 50282 C 4753.32 0.744047 -1.92737 0
M  V30 50283 C 4753.73 1.70003 -0.830408 0
M  V30 50284 O 4753.07 1.82577 0.202796 0
M  V30 50285 C 4753.13 1.56505 -3.23645 0
M  V30 50286 C 4752.8 0.775042 -4.5038 0
M  V30 50287 C 4753.8 0.0801499 -5.19838 0
M  V30 50288 C 4751.48 0.732828 -4.96925 0
M  V30 50289 C 4753.47 -0.646377 -6.34114 0
M  V30 50290 C 4751.16 0.00254838 -6.111 0
M  V30 50291 C 4752.16 -0.685824 -6.79548 0
M  V30 50292 O 4751.85 -1.40427 -7.9154 0
M  V30 50293 H 4751.58 0.214838 -0.640953 0
M  V30 50294 H 4754.13 0.00496455 -2.05399 0
M  V30 50295 H 4752.36 2.34769 -3.07279 0
M  V30 50296 H 4754.05 2.15064 -3.44242 0
M  V30 50297 H 4754.82 0.103865 -4.84889 0
M  V30 50298 H 4750.7 1.25812 -4.435 0
M  V30 50299 H 4754.24 -1.18422 -6.87475 0
M  V30 50300 H 4750.14 -0.0231281 -6.45496 0
M  V30 50301 H 4750.91 -1.31681 -8.07838 0
M  V30 50302 N 4753.57 1.54478 0.312115 0
M  V30 50303 C 4754.82 1.7323 1.04869 0
M  V30 50304 C 4755.14 0.512108 1.87637 0
M  V30 50305 O 4754.4 -0.506065 1.89044 0
M  V30 50306 C 4754.7 2.96707 1.99247 0
M  V30 50307 C 4754.36 4.30979 1.32544 0
M  V30 50308 C 4753.03 4.67481 1.14084 0
M  V30 50309 C 4755.38 5.14261 0.847654 0
M  V30 50310 C 4752.71 5.84853 0.465121 0
M  V30 50311 C 4755.06 6.32327 0.185709 0
M  V30 50312 C 4753.72 6.67499 -0.0109424 0
M  V30 50313 H 4752.99 0.633895 0.383743 0
M  V30 50314 H 4755.64 1.88728 0.324665 0
M  V30 50315 H 4753.94 2.75944 2.7814 0
M  V30 50316 H 4755.64 3.0841 2.56289 0
M  V30 50317 H 4752.23 4.02267 1.47916 0
M  V30 50318 H 4756.42 4.86568 0.978021 0
M  V30 50319 H 4751.67 6.10655 0.301669 0
M  V30 50320 H 4755.85 6.96134 -0.192456 0
M  V30 50321 H 4753.47 7.58304 -0.536554 0
M  V30 50322 N 4755.05 -0.574758 1.46746 0
M  V30 50323 C 4756.27 -1.36336 1.56293 0
M  V30 50324 C 4756.7 -1.86953 0.207413 0
M  V30 50325 O 4756.06 -1.62009 -0.813814 0
M  V30 50326 C 4756.1 -2.52138 2.57796 0
M  V30 50327 O 4755.21 -3.53827 2.1185 0
M  V30 50328 H 4754.55 -0.405694 0.52565 0
M  V30 50329 H 4757.08 -0.696385 1.92384 0
M  V30 50330 H 4757.09 -2.98948 2.77658 0
M  V30 50331 H 4755.76 -2.14651 3.56227 0
M  V30 50332 H 4754.34 -3.13442 2.02011 0
M  V30 50333 N 4756.53 -1.34584 -0.820054 0
M  V30 50334 C 4757.77 -1.26851 -1.57332 0
M  V30 50335 C 4758.09 0.160599 -1.94338 0
M  V30 50336 O 4757.36 1.0939 -1.62514 0
M  V30 50337 H 4755.94 -0.466535 -0.583399 0
M  V30 50338 H 4758.61 -1.6853 -0.978968 0
M  V30 50339 H 4757.7 -1.87521 -2.49484 0
M  V30 50340 N 4758 1.0406 -1.18361 0
M  V30 50341 C 4758.97 2.1024 -0.912781 0
M  V30 50342 C 4759.97 1.60477 0.101872 0
M  V30 50343 O 4761.16 1.73702 -0.131578 0
M  V30 50344 C 4758.29 3.38892 -0.369506 0
M  V30 50345 H 4759.48 2.35699 -1.85434 0
M  V30 50346 H 4757.03 1.20486 -0.995636 0
M  V30 50347 H 4757.77 3.19096 0.578664 0
M  V30 50348 H 4757.55 3.76327 -1.10093 0
M  V30 50349 H 4759.04 4.17127 -0.198722 0
M  V30 50350 N 4759.48 0.985651 1.22974 0
M  V30 50351 C 4760.41 0.474949 2.23203 0
M  V30 50352 C 4761.39 -0.460811 1.55934 0
M  V30 50353 O 4762.58 -0.38804 1.84463 0
M  V30 50354 C 4759.7 -0.312308 3.37257 0
M  V30 50355 C 4758.75 0.568368 4.22696 0
M  V30 50356 S 4759.58 2.01936 4.95966 0
M  V30 50357 C 4760.74 1.24139 6.13466 0
M  V30 50358 H 4760.97 1.32428 2.66177 0
M  V30 50359 H 4758.5 0.792052 1.32536 0
M  V30 50360 H 4760.46 -0.760503 4.03394 0
M  V30 50361 H 4759.12 -1.13683 2.92805 0
M  V30 50362 H 4758.32 -0.0369885 5.03986 0
M  V30 50363 H 4757.92 0.953025 3.61654 0
M  V30 50364 H 4760.21 0.505358 6.75613 0
M  V30 50365 H 4761.15 2.02931 6.78399 0
M  V30 50366 H 4761.56 0.757866 5.5939 0
M  V30 50367 N 4760.96 -1.38177 0.757949 0
M  V30 50368 C 4762.24 -1.94105 0.241374 0
M  V30 50369 C 4762.62 -1.69287 -1.26116 0
M  V30 50370 O 4761.97 -1.03385 -2.03774 0
M  V30 50371 C 4762.18 -3.43807 0.599791 0
M  V30 50372 C 4763.52 -4.20866 0.561865 0
M  V30 50373 O 4764.55 -3.52108 0.538346 0
M  V30 50374 O 4763.41 -5.43449 0.576669 0
M  V30 50375 H 4760.5 -0.825374 0.0518332 0
M  V30 50376 H 4763.05 -1.47545 0.838367 0
M  V30 50377 H 4761.82 -3.55398 1.63732 0
M  V30 50378 H 4761.44 -3.97592 -0.02498 0
M  V30 50379 N 4762.44 -0.507371 -1.4921 0
M  V30 50380 C 4763.67 0.0315022 -2.06876 0
M  V30 50381 C 4764.08 1.30236 -1.36689 0
M  V30 50382 O 4763.44 1.76936 -0.447214 0
M  V30 50383 C 4763.49 0.2825 -3.60394 0
M  V30 50384 O 4763.21 -0.937986 -4.27941 0
M  V30 50385 C 4764.71 0.8643 -4.34793 0
M  V30 50386 H 4761.93 -0.0233284 -0.670594 0
M  V30 50387 H 4764.48 -0.706551 -1.91906 0
M  V30 50388 H 4762.63 0.970548 -3.75045 0
M  V30 50389 H 4763.04 -0.704749 -5.19744 0
M  V30 50390 H 4764.52 0.989473 -5.43059 0
M  V30 50391 H 4765 1.86368 -3.97698 0
M  V30 50392 H 4765.6 0.213523 -4.24764 0
M  V30 50393 N 4763.92 1.55739 -0.241481 0
M  V30 50394 C 4765.14 2.03209 0.389063 0
M  V30 50395 C 4765.56 1.12087 1.51927 0
M  V30 50396 O 4764.92 0.134247 1.82006 0
M  V30 50397 C 4764.97 3.50067 0.901964 0
M  V30 50398 O 4764.69 4.37717 -0.183203 0
M  V30 50399 C 4766.19 4.13273 1.60374 0
M  V30 50400 H 4763.41 0.664512 0.093082 0
M  V30 50401 H 4765.95 2.01239 -0.363761 0
M  V30 50402 H 4764.11 3.52589 1.60499 0
M  V30 50403 H 4764.52 5.24098 0.205395 0
M  V30 50404 H 4766 5.1774 1.9144 0
M  V30 50405 H 4766.47 3.59443 2.52384 0
M  V30 50406 H 4767.08 4.14659 0.94543 0
M  V30 50407 N 4765.39 -0.0316971 1.57568 0
M  V30 50408 C 4766.62 -0.738596 1.93803 0
M  V30 50409 C 4767.04 -1.68239 0.841268 0
M  V30 50410 O 4766.4 -1.80158 -0.203204 0
M  V30 50411 C 4766.45 -1.47405 3.29096 0
M  V30 50412 O 4765.55 -2.58709 3.2116 0
M  V30 50413 H 4764.9 -0.198833 0.633531 0
M  V30 50414 H 4767.43 0.0120432 2.04596 0
M  V30 50415 H 4767.44 -1.84455 3.63923 0
M  V30 50416 H 4766.11 -0.781844 4.08485 0
M  V30 50417 H 4764.69 -2.24221 2.97959 0
M  V30 50418 N 4766.87 -1.54642 -0.303919 0
M  V30 50419 C 4768.1 -1.77514 -1.05699 0
M  V30 50420 C 4768.51 -0.533291 -1.81529 0
M  V30 50421 O 4767.85 0.506361 -1.76583 0
M  V30 50422 C 4767.92 -2.92786 -2.08606 0
M  V30 50423 C 4767.58 -4.30982 -1.51997 0
M  V30 50424 C 4768.58 -5.11118 -0.951521 0
M  V30 50425 C 4766.26 -4.77576 -1.55648 0
M  V30 50426 C 4768.26 -6.35967 -0.427104 0
M  V30 50427 C 4765.94 -6.02388 -1.0282 0
M  V30 50428 C 4766.94 -6.81419 -0.464473 0
M  V30 50429 O 4766.63 -8.03881 0.0558109 0
M  V30 50430 H 4766.36 -0.595801 -0.31937 0
M  V30 50431 H 4768.91 -2.02402 -0.349641 0
M  V30 50432 H 4767.14 -2.63516 -2.83013 0
M  V30 50433 H 4768.83 -3.03261 -2.69791 0
M  V30 50434 H 4769.6 -4.76267 -0.916239 0
M  V30 50435 H 4765.48 -4.16092 -1.98465 0
M  V30 50436 H 4769.02 -6.97599 0.0135514 0
M  V30 50437 H 4764.92 -6.36727 -1.06061 0
M  V30 50438 H 4765.69 -8.1848 -0.0577645 0
M  V30 50439 N 4768.35 0.566968 -1.47048 0
M  V30 50440 C 4769.77 0.891928 -1.32351 0
M  V30 50441 C 4769.97 1.99152 -0.306686 0
M  V30 50442 O 4769.02 2.50884 0.285232 0
M  V30 50443 C 4770.34 1.29439 -2.71415 0
M  V30 50444 C 4771.88 1.40636 -2.79625 0
M  V30 50445 C 4772.36 1.84242 -4.19308 0
M  V30 50446 N 4773.85 1.91409 -4.21802 0
M  V30 50447 C 4774.58 2.26458 -5.26787 0
M  V30 50448 N 4774.08 2.60188 -6.42086 0
M  V30 50449 N 4775.87 2.27148 -5.1416 0
M  V30 50450 H 4768.02 -0.159148 -2.11803 0
M  V30 50451 H 4770.29 -0.00853085 -0.947962 0
M  V30 50452 H 4769.99 0.560326 -3.47208 0
M  V30 50453 H 4769.87 2.25262 -3.0255 0
M  V30 50454 H 4772.25 2.13126 -2.04111 0
M  V30 50455 H 4772.34 0.43025 -2.52156 0
M  V30 50456 H 4771.98 1.12326 -4.95323 0
M  V30 50457 H 4771.91 2.82839 -4.44195 0
M  V30 50458 H 4774.4 1.67768 -3.38618 0
M  V30 50459 H 4774.71 2.8593 -7.17958 0
M  V30 50460 H 4773.06 2.5779 -6.45422 0
M  V30 50461 H 4776.25 2.00229 -4.23114 0
M  V30 50462 H 4776.42 2.54133 -5.96088 0
M  V30 50463 N 4769.83 1.35017 0.812906 0
M  V30 50464 C 4770.74 1.29517 1.95608 0
M  V30 50465 C 4771.75 0.201131 1.72834 0
M  V30 50466 O 4772.93 0.42939 1.96769 0
M  V30 50467 C 4770 1.06045 3.30084 0
M  V30 50468 C 4769.06 2.24701 3.65798 0
M  V30 50469 C 4768.29 2.0234 4.93857 0
M  V30 50470 O 4768.51 0.986662 5.61802 0
M  V30 50471 O 4767.45 2.89544 5.27682 0
M  V30 50472 H 4771.27 2.25712 2.03194 0
M  V30 50473 H 4768.86 1.15324 0.94977 0
M  V30 50474 H 4770.74 0.947774 4.10603 0
M  V30 50475 H 4769.41 0.128965 3.23443 0
M  V30 50476 H 4768.32 2.41531 2.85681 0
M  V30 50477 H 4769.65 3.16274 3.77136 0
M  V30 50478 N 4771.31 -1.03431 1.18911 0
M  V30 50479 C 4772.27 -2.09753 0.923918 0
M  V30 50480 C 4773.27 -1.60529 -0.0933596 0
M  V30 50481 O 4774.46 -1.7363 0.140788 0
M  V30 50482 C 4771.59 -3.38691 0.387473 0
M  V30 50483 H 4772.78 -2.34712 1.86682 0
M  V30 50484 H 4770.34 -1.19956 1.00201 0
M  V30 50485 H 4771.07 -3.19398 -0.561733 0
M  V30 50486 H 4770.86 -3.75738 1.12087 0
M  V30 50487 H 4772.35 -4.17016 0.22084 0
M  V30 50488 N 4772.78 -0.992159 -1.2245 0
M  V30 50489 C 4773.75 -0.546961 -2.22578 0
M  V30 50490 C 4774.75 0.369774 -1.56491 0
M  V30 50491 O 4775.94 0.161835 -1.73447 0
M  V30 50492 C 4773.07 0.204539 -3.40286 0
M  V30 50493 H 4774.26 -1.43244 -2.63479 0
M  V30 50494 H 4771.82 -0.779286 -1.35487 0
M  V30 50495 H 4772.55 1.10603 -3.04856 0
M  V30 50496 H 4772.34 -0.453677 -3.89467 0
M  V30 50497 H 4773.83 0.504212 -4.14545 0
M  V30 50498 N 4774.26 1.37773 -0.765266 0
M  V30 50499 C 4775.5 2.0169 -0.33174 0
M  V30 50500 C 4775.87 1.59436 1.06978 0
M  V30 50501 O 4777.07 2.15767 1.60306 0
M  V30 50502 C 4775.34 3.54383 -0.463385 0
M  V30 50503 S 4776.9 4.38651 -0.114165 0
M  V30 50504 H 4773.72 0.699383 -0.128004 0
M  V30 50505 H 4776.32 1.68081 -0.998455 0
M  V30 50506 H 4775.02 3.82624 -1.48415 0
M  V30 50507 H 4774.55 3.92784 0.220108 0
M  V30 50508 H 4776.57 4.84025 1.09244 0
M  V30 50509 N 4775.74 0.515277 1.48938 0
M  V30 50510 C 4776.98 -0.0223264 2.04388 0
M  V30 50511 C 4777.35 -1.32956 1.38516 0
M  V30 50512 O 4778.55 -1.95229 1.84767 0
M  V30 50513 C 4776.82 -0.156931 3.57055 0
M  V30 50514 S 4778.38 -0.646722 4.34008 0
M  V30 50515 H 4775.19 0.00503161 0.710982 0
M  V30 50516 H 4777.8 0.692495 1.82824 0
M  V30 50517 H 4776.5 0.799553 4.02536 0
M  V30 50518 H 4776.03 -0.896569 3.83047 0
M  V30 50519 H 4778.05 -1.91365 4.57814 0
M  V30 50520 N 4777.22 -1.55609 0.249737 0
M  V30 50521 C 4778.17 -2.1816 -0.662596 0
M  V30 50522 C 4779.15 -1.13834 -1.13713 0
M  V30 50523 O 4780.35 -1.39735 -1.08643 0
M  V30 50524 C 4777.47 -2.88678 -1.85795 0
M  V30 50525 C 4776.56 -4.00263 -1.40178 0
M  V30 50526 N 4776.95 -5.01475 -0.660037 0
M  V30 50527 C 4775.25 -4.1287 -1.68684 0
M  V30 50528 C 4775.95 -5.80156 -0.423491 0
M  V30 50529 N 4774.93 -5.34536 -0.988533 0
M  V30 50530 H 4778.73 -2.93769 -0.0877655 0
M  V30 50531 H 4776.24 -1.62316 0.0521753 0
M  V30 50532 H 4778.24 -3.31921 -2.52258 0
M  V30 50533 H 4776.9 -2.14573 -2.43698 0
M  V30 50534 H 4777.91 -5.16972 -0.309865 0
M  V30 50535 H 4774.59 -3.49938 -2.27705 0
M  V30 50536 H 4775.98 -6.71688 0.168852 0
M  V30 50537 N 4778.7 0.0233405 -1.57583 0
M  V30 50538 C 4779.63 1.02155 -2.09968 0
M  V30 50539 C 4780.61 1.37347 -1.00349 0
M  V30 50540 O 4781.79 1.4613 -1.27904 0
M  V30 50541 C 4778.92 2.32072 -2.58379 0
M  V30 50542 C 4777.88 2.11107 -3.72314 0
M  V30 50543 C 4777.2 3.46834 -4.06953 0
M  V30 50544 C 4778.5 1.49258 -5.00519 0
M  V30 50545 H 4780.2 0.585454 -2.9362 0
M  V30 50546 H 4777.74 0.280169 -1.41248 0
M  V30 50547 H 4779.7 3.02238 -2.93649 0
M  V30 50548 H 4778.42 2.77752 -1.71818 0
M  V30 50549 H 4777.08 1.43372 -3.37402 0
M  V30 50550 H 4776.73 3.90173 -3.17449 0
M  V30 50551 H 4776.43 3.33629 -4.83699 0
M  V30 50552 H 4777.95 4.18353 -4.44762 0
M  V30 50553 H 4779.37 2.09349 -5.33709 0
M  V30 50554 H 4777.76 1.46612 -5.81915 0
M  V30 50555 H 4778.83 0.459048 -4.82722 0
M  V30 50556 N 4780.18 1.54801 0.295713 0
M  V30 50557 C 4781.14 1.85368 1.34801 0
M  V30 50558 C 4782.14 0.726868 1.43434 0
M  V30 50559 O 4783.33 0.995138 1.42978 0
M  V30 50560 C 4780.46 2.03869 2.73222 0
M  V30 50561 H 4781.65 2.79414 1.08939 0
M  V30 50562 H 4779.21 1.46944 0.53265 0
M  V30 50563 H 4779.94 1.12128 3.04299 0
M  V30 50564 H 4779.73 2.8589 2.68346 0
M  V30 50565 H 4781.22 2.2887 3.49297 0
M  V30 50566 N 4781.65 -0.559161 1.47347 0
M  V30 50567 C 4782.6 -1.66639 1.59687 0
M  V30 50568 C 4783.57 -1.60166 0.439996 0
M  V30 50569 O 4784.76 -1.79029 0.659799 0
M  V30 50570 C 4781.9 -3.04963 1.61529 0
M  V30 50571 C 4781.01 -3.21887 2.88119 0
M  V30 50572 C 4780.14 -4.50598 2.8131 0
M  V30 50573 C 4779.18 -4.60947 4.02734 0
M  V30 50574 N 4778.32 -5.8101 3.94172 0
M  V30 50575 H 4783.16 -1.5543 2.54255 0
M  V30 50576 H 4780.7 -0.757174 1.26116 0
M  V30 50577 H 4782.65 -3.85058 1.6058 0
M  V30 50578 H 4781.28 -3.15013 0.704756 0
M  V30 50579 H 4780.34 -2.35237 2.98944 0
M  V30 50580 H 4781.65 -3.25399 3.78044 0
M  V30 50581 H 4780.8 -5.3895 2.78599 0
M  V30 50582 H 4779.54 -4.49562 1.89065 0
M  V30 50583 H 4778.55 -3.71007 4.05751 0
M  V30 50584 H 4779.77 -4.63744 4.96103 0
M  V30 50585 H 4777.72 -5.80927 3.04729 0
M  V30 50586 H 4777.63 -5.85892 4.77773 0
M  V30 50587 H 4778.9 -6.7173 3.95474 0
M  V30 50588 N 4783.13 -1.35446 -0.805734 0
M  V30 50589 C 4784.09 -1.28308 -1.8992 0
M  V30 50590 C 4785.09 -0.194341 -1.59621 0
M  V30 50591 O 4786.28 -0.448095 -1.68338 0
M  V30 50592 C 4783.42 -0.985112 -3.26356 0
M  V30 50593 H 4784.61 -2.25537 -1.97669 0
M  V30 50594 H 4782.16 -1.19983 -1.00169 0
M  V30 50595 H 4782.9 -0.016717 -3.24296 0
M  V30 50596 H 4782.68 -1.77281 -3.49734 0
M  V30 50597 H 4784.17 -0.960794 -4.06397 0
M  V30 50598 N 4784.61 1.02799 -1.19458 0
M  V30 50599 C 4785.54 2.12995 -0.956833 0
M  V30 50600 C 4786.52 1.69743 0.110129 0
M  V30 50601 O 4787.71 1.94148 -0.045072 0
M  V30 50602 C 4784.84 3.43745 -0.495674 0
M  V30 50603 C 4783.79 4.00683 -1.50457 0
M  V30 50604 C 4783.12 5.27063 -0.900461 0
M  V30 50605 C 4784.42 4.35387 -2.88506 0
M  V30 50606 H 4786.11 2.33142 -1.87844 0
M  V30 50607 H 4783.66 1.12042 -0.904578 0
M  V30 50608 H 4785.61 4.20209 -0.316641 0
M  V30 50609 H 4784.33 3.23323 0.461532 0
M  V30 50610 H 4782.99 3.26314 -1.67077 0
M  V30 50611 H 4782.64 5.02959 0.0643261 0
M  V30 50612 H 4782.34 5.66122 -1.57417 0
M  V30 50613 H 4783.86 6.06194 -0.732243 0
M  V30 50614 H 4785.28 5.02785 -2.75464 0
M  V30 50615 H 4783.67 4.85529 -3.52678 0
M  V30 50616 H 4784.74 3.4465 -3.41093 0
M  V30 50617 N 4786.09 0.998639 1.21922 0
M  V30 50618 C 4787.04 0.546721 2.26083 0
M  V30 50619 C 4788.03 -0.405518 1.64475 0
M  V30 50620 O 4789.24 -0.277408 1.7785 0
M  V30 50621 H 4785.61 0.158429 0.735122 0
M  V30 50622 H 4787.58 1.43654 2.61546 0
M  V30 50623 C 4786.33 -0.117266 3.47502 0
M  V30 50624 H 4785.65 0.606416 3.95174 0
M  V30 50625 H 4787.09 -0.396844 4.22139 0
M  V30 50626 C 4785.55 -1.35444 3.08475 0
M  V30 50627 O 4786.08 -2.44933 3.18388 0
M  V30 50628 N 4784.29 -1.23182 2.63201 0
M  V30 50629 H 4783.84 -0.340916 2.55334 0
M  V30 50630 H 4783.79 -2.06063 2.37456 0
M  V30 50631 N 4787.57 -1.37365 0.772562 0
M  V30 50632 C 4788.84 -1.93838 0.261948 0
M  V30 50633 C 4789.22 -1.70615 -1.24313 0
M  V30 50634 O 4788.57 -1.05541 -2.02666 0
M  V30 50635 C 4788.78 -3.43152 0.636222 0
M  V30 50636 C 4790.13 -4.20246 0.606472 0
M  V30 50637 O 4791.15 -3.51518 0.575662 0
M  V30 50638 O 4790.01 -5.42807 0.634277 0
M  V30 50639 H 4787.11 -0.824778 0.0605845 0
M  V30 50640 H 4789.65 -1.46647 0.853969 0
M  V30 50641 H 4788.42 -3.53641 1.67492 0
M  V30 50642 H 4788.05 -3.97596 0.0171914 0
M  V30 50643 N 4789.04 -0.523168 -1.48663 0
M  V30 50644 C 4790.29 0.0134051 -2.02496 0
M  V30 50645 C 4790.62 1.34926 -1.4009 0
M  V30 50646 O 4789.87 1.88284 -0.533633 0
M  V30 50647 C 4790.17 0.191546 -3.56886 0
M  V30 50648 C 4789.84 -1.06909 -4.38043 0
M  V30 50649 C 4788.5 -1.41459 -4.59938 0
M  V30 50650 C 4790.85 -1.90601 -4.85099 0
M  V30 50651 C 4788.18 -2.59612 -5.26135 0
M  V30 50652 C 4790.53 -3.07926 -5.52598 0
M  V30 50653 C 4789.2 -3.42831 -5.72733 0
M  V30 50654 H 4788.47 0.00490528 -0.740984 0
M  V30 50655 H 4791.11 -0.687814 -1.78721 0
M  V30 50656 H 4789.42 0.975477 -3.79462 0
M  V30 50657 H 4791.12 0.62152 -3.96154 0
M  V30 50658 H 4787.71 -0.789996 -4.21256 0
M  V30 50659 H 4791.89 -1.6522 -4.67992 0
M  V30 50660 H 4787.15 -2.86866 -5.39924 0
M  V30 50661 H 4791.32 -3.73087 -5.8803 0
M  V30 50662 H 4788.95 -4.34484 -6.23801 0
M  V30 50663 N 4790.52 1.55474 -0.257986 0
M  V30 50664 C 4791.75 2.04065 0.370417 0
M  V30 50665 C 4792.17 1.13571 1.49944 0
M  V30 50666 O 4791.53 0.130844 1.80827 0
M  V30 50667 C 4791.58 3.50557 0.845114 0
M  V30 50668 O 4790.68 3.6318 1.95382 0
M  V30 50669 H 4790.02 0.65926 0.0792012 0
M  V30 50670 H 4792.55 2.00901 -0.387282 0
M  V30 50671 H 4792.56 3.91592 1.14541 0
M  V30 50672 H 4791.24 4.15896 0.0189797 0
M  V30 50673 H 4789.82 3.34045 1.65737 0
M  V30 50674 N 4792 -0.0149831 1.57593 0
M  V30 50675 C 4792.95 -1.02951 2.08576 0
M  V30 50676 C 4793.94 -1.36551 1.00251 0
M  V30 50677 O 4795.15 -1.35291 1.18728 0
M  V30 50678 H 4791.52 -0.349595 0.665798 0
M  V30 50679 H 4793.49 -0.573829 2.92831 0
M  V30 50680 C 4792.24 -2.31743 2.59211 0
M  V30 50681 H 4791.57 -2.06753 3.42189 0
M  V30 50682 H 4793.01 -3.01043 2.98579 0
M  V30 50683 C 4791.47 -3.01687 1.49955 0
M  V30 50684 O 4792 -3.9208 0.873841 0
M  V30 50685 N 4790.2 -2.63255 1.23065 0
M  V30 50686 H 4789.75 -1.89831 1.74132 0
M  V30 50687 H 4789.71 -3.1037 0.501794 0
M  V30 50688 N 4793.48 -1.54955 -0.2875 0
M  V30 50689 C 4794.7 -1.79213 -1.04391 0
M  V30 50690 C 4795.13 -0.556494 -1.7968 0
M  V30 50691 O 4794.49 0.493457 -1.74455 0
M  V30 50692 C 4794.53 -3.00746 -1.98958 0
M  V30 50693 O 4793.64 -2.74816 -3.0749 0
M  V30 50694 H 4792.98 -0.592766 -0.299206 0
M  V30 50695 H 4795.51 -2.02069 -0.320815 0
M  V30 50696 H 4795.52 -3.29085 -2.41178 0
M  V30 50697 H 4794.19 -3.90334 -1.43568 0
M  V30 50698 H 4792.77 -2.57532 -2.69688 0
M  V30 50699 N 4794.96 0.551339 -1.47641 0
M  V30 50700 C 4796.2 1.30566 -1.54262 0
M  V30 50701 C 4796.53 1.93876 -0.209031 0
M  V30 50702 O 4795.8 1.80237 0.767556 0
M  V30 50703 H 4794.38 0.484874 -0.568248 0
M  V30 50704 H 4797.04 0.643337 -1.83976 0
M  V30 50705 H 4796.13 2.09613 -2.31233 0
M  V30 50706 N 4796.43 1.35872 0.79854 0
M  V30 50707 C 4797.66 1.32889 1.59233 0
M  V30 50708 C 4798.08 -0.0893926 1.87887 0
M  V30 50709 O 4797.44 -1.05864 1.47182 0
M  V30 50710 C 4797.49 2.14902 2.89567 0
M  V30 50711 O 4796.59 1.53526 3.82758 0
M  V30 50712 H 4795.94 0.455253 0.483364 0
M  V30 50713 H 4798.47 1.79027 0.990476 0
M  V30 50714 H 4798.48 2.27151 3.3892 0
M  V30 50715 H 4797.15 3.18007 2.68038 0
M  V30 50716 H 4795.73 1.50165 3.41328 0
M  V30 50717 N 4797.91 -1.02164 1.20001 0
M  V30 50718 C 4799.19 -1.72813 0.916252 0
M  V30 50719 C 4799.57 -2.03083 -0.576253 0
M  V30 50720 O 4798.92 -1.69127 -1.5365 0
M  V30 50721 C 4799.13 -2.99964 1.78389 0
M  V30 50722 C 4800.48 -3.73329 2.02264 0
M  V30 50723 O 4801.5 -3.09908 1.756 0
M  V30 50724 O 4800.36 -4.87362 2.47266 0
M  V30 50725 H 4797.45 -0.752912 0.34213 0
M  V30 50726 H 4800 -1.08057 1.3085 0
M  V30 50727 H 4798.77 -2.73878 2.79476 0
M  V30 50728 H 4798.39 -3.7246 1.39139 0
M  V30 50729 N 4799.39 -1.00509 -1.21391 0
M  V30 50730 C 4800.64 -0.68886 -1.90742 0
M  V30 50731 C 4800.97 0.778424 -1.77916 0
M  V30 50732 O 4800.24 1.56429 -1.15587 0
M  V30 50733 C 4800.53 -1.11075 -3.42541 0
M  V30 50734 C 4800.38 -2.63749 -3.64357 0
M  V30 50735 C 4801.7 -0.673211 -4.34921 0
M  V30 50736 H 4798.82 -0.251726 -0.692678 0
M  V30 50737 H 4801.46 -1.25079 -1.43022 0
M  V30 50738 H 4799.61 -0.632642 -3.83314 0
M  V30 50739 H 4801.28 -3.19324 -3.32911 0
M  V30 50740 H 4799.53 -3.05259 -3.0822 0
M  V30 50741 H 4800.2 -2.88321 -4.70717 0
M  V30 50742 H 4802.67 -1.08406 -4.0173 0
M  V30 50743 H 4801.55 -0.996573 -5.39777 0
M  V30 50744 H 4801.81 0.425653 -4.40046 0
M  V30 50745 N 4800.87 1.36954 -0.779835 0
M  V30 50746 C 4801.8 2.3276 -0.185733 0
M  V30 50747 C 4802.78 1.5618 0.673934 0
M  V30 50748 O 4803.96 1.8438 0.609732 0
M  V30 50749 C 4801.09 3.4042 0.687844 0
M  V30 50750 C 4800.05 4.27941 -0.0711606 0
M  V30 50751 C 4799.37 5.26684 0.922388 0
M  V30 50752 C 4800.67 5.07002 -1.25484 0
M  V30 50753 H 4802.37 2.82695 -0.986108 0
M  V30 50754 H 4799.91 1.35918 -0.47564 0
M  V30 50755 H 4801.87 4.06427 1.11333 0
M  V30 50756 H 4800.59 2.8903 1.52082 0
M  V30 50757 H 4799.25 3.63477 -0.477518 0
M  V30 50758 H 4798.9 4.71571 1.75014 0
M  V30 50759 H 4798.6 5.86104 0.419031 0
M  V30 50760 H 4800.12 5.95565 1.34665 0
M  V30 50761 H 4801.54 5.66102 -0.9056 0
M  V30 50762 H 4799.93 5.75787 -1.69084 0
M  V30 50763 H 4801 4.39203 -2.05496 0
M  V30 50764 N 4802.35 0.531045 1.48384 0
M  V30 50765 C 4803.58 0.00141191 2.066 0
M  V30 50766 C 4803.98 -1.28594 1.38781 0
M  V30 50767 O 4803.33 -1.77597 0.469558 0
M  V30 50768 C 4803.39 -0.292011 3.58312 0
M  V30 50769 C 4803.05 0.902021 4.4801 0
M  V30 50770 C 4804.05 1.8007 4.8772 0
M  V30 50771 C 4801.74 1.10932 4.89897 0
M  V30 50772 C 4803.73 2.89058 5.68088 0
M  V30 50773 C 4801.42 2.20233 5.70036 0
M  V30 50774 C 4802.41 3.09129 6.09039 0
M  V30 50775 O 4802.1 4.16539 6.87569 0
M  V30 50776 H 4801.83 0.0308712 0.675295 0
M  V30 50777 H 4804.39 0.736403 1.91745 0
M  V30 50778 H 4802.62 -1.08099 3.71284 0
M  V30 50779 H 4804.31 -0.763854 3.98648 0
M  V30 50780 H 4805.07 1.6525 4.5598 0
M  V30 50781 H 4800.95 0.426659 4.59021 0
M  V30 50782 H 4804.5 3.58472 5.98451 0
M  V30 50783 H 4800.39 2.35037 6.01189 0
M  V30 50784 H 4801.16 4.14262 7.05925 0
M  V30 50785 N 4803.82 -1.55335 0.266227 0
M  V30 50786 C 4804.76 -2.19547 -0.65817 0
M  V30 50787 C 4805.77 -1.17749 -1.12423 0
M  V30 50788 O 4806.96 -1.4452 -1.04767 0
M  V30 50789 C 4804.06 -2.80039 -1.9087 0
M  V30 50790 C 4803.23 -4.07441 -1.59092 0
M  V30 50791 C 4802.29 -4.52066 -2.69301 0
M  V30 50792 O 4801.32 -5.18031 -2.35864 0
M  V30 50793 N 4802.52 -4.21462 -3.99186 0
M  V30 50794 H 4805.28 -2.99503 -0.108648 0
M  V30 50795 H 4802.84 -1.61666 0.0869628 0
M  V30 50796 H 4804.84 -3.0684 -2.63877 0
M  V30 50797 H 4803.41 -2.04127 -2.36751 0
M  V30 50798 H 4802.63 -3.88023 -0.695106 0
M  V30 50799 H 4803.91 -4.90467 -1.3535 0
M  V30 50800 H 4803.31 -3.68543 -4.29176 0
M  V30 50801 H 4801.87 -4.53055 -4.68598 0
M  V30 50802 N 4805.3 0.0066254 -1.57599 0
M  V30 50803 C 4806.71 0.550316 -1.78405 0
M  V30 50804 C 4807.07 1.74336 -0.900075 0
M  V30 50805 O 4806.19 2.16165 -0.100789 0
M  V30 50806 C 4806.79 1.00512 -3.23547 0
M  V30 50807 C 4805.34 1.49416 -3.45473 0
M  V30 50808 C 4804.49 0.442348 -2.73749 0
M  V30 50809 H 4807.44 -0.219563 -1.57174 0
M  V30 50810 H 4807.46 1.87146 -3.31295 0
M  V30 50811 H 4806.98 0.136598 -3.8786 0
M  V30 50812 H 4805.08 2.3838 -2.86367 0
M  V30 50813 H 4805.19 1.52619 -4.54141 0
M  V30 50814 H 4803.55 0.902494 -2.38175 0
M  V30 50815 H 4804.34 -0.417093 -3.40757 0
M  V30 50816 N 4806.78 1.55106 0.279278 0
M  V30 50817 C 4808.19 1.66189 0.850774 0
M  V30 50818 C 4808.54 0.584773 1.87283 0
M  V30 50819 O 4807.67 -0.274844 2.14648 0
M  V30 50820 C 4808.26 3.01269 1.54991 0
M  V30 50821 C 4806.82 3.14401 2.06952 0
M  V30 50822 C 4805.97 2.61963 0.909444 0
M  V30 50823 H 4808.92 1.58602 0.0557678 0
M  V30 50824 H 4808.94 2.93907 2.41658 0
M  V30 50825 H 4808.45 3.79643 0.805797 0
M  V30 50826 H 4806.55 2.40789 2.84343 0
M  V30 50827 H 4806.67 4.20875 2.28914 0
M  V30 50828 H 4805.03 2.18961 1.30108 0
M  V30 50829 H 4805.81 3.42833 0.178942 0
M  V30 50830 N 4808.26 -0.543502 1.47932 0
M  V30 50831 C 4809.19 -1.66494 1.57519 0
M  V30 50832 C 4810.2 -1.56155 0.460387 0
M  V30 50833 O 4811.39 -1.62862 0.73063 0
M  V30 50834 C 4808.49 -3.05058 1.47625 0
M  V30 50835 C 4807.67 -3.41015 2.73912 0
M  V30 50836 C 4806.73 -4.588 2.57662 0
M  V30 50837 O 4805.75 -4.62695 3.31515 0
M  V30 50838 N 4806.95 -5.56143 1.66387 0
M  V30 50839 H 4809.72 -1.58712 2.54226 0
M  V30 50840 H 4807.28 -0.730466 1.44485 0
M  V30 50841 H 4809.27 -3.81707 1.34468 0
M  V30 50842 H 4807.84 -3.06992 0.589467 0
M  V30 50843 H 4807.06 -2.53677 3.01731 0
M  V30 50844 H 4808.35 -3.61818 3.57722 0
M  V30 50845 H 4807.75 -5.55764 1.05562 0
M  V30 50846 H 4806.3 -6.32065 1.59176 0
M  V30 50847 N 4809.74 -1.36293 -0.791323 0
M  V30 50848 C 4810.97 -1.33567 -1.58011 0
M  V30 50849 C 4811.38 0.0834953 -1.88615 0
M  V30 50850 O 4810.74 1.03985 -1.49978 0
M  V30 50851 C 4810.79 -2.15527 -2.90225 0
M  V30 50852 O 4810.51 -3.51912 -2.6094 0
M  V30 50853 C 4812.01 -2.2056 -3.84536 0
M  V30 50854 H 4809.23 -0.458244 -0.490157 0
M  V30 50855 H 4811.77 -1.79364 -0.982282 0
M  V30 50856 H 4809.93 -1.7329 -3.46481 0
M  V30 50857 H 4810.34 -3.94656 -3.45467 0
M  V30 50858 H 4811.82 -2.82268 -4.74372 0
M  V30 50859 H 4812.29 -1.20852 -4.22246 0
M  V30 50860 H 4812.9 -2.63024 -3.34213 0
M  V30 50861 N 4811.22 1.01526 -1.20541 0
M  V30 50862 C 4812.44 1.79279 -1.04278 0
M  V30 50863 C 4812.87 1.83722 0.403479 0
M  V30 50864 O 4812.22 1.27326 1.29065 0
M  V30 50865 C 4812.27 3.21529 -1.63252 0
M  V30 50866 O 4811.38 4.03096 -0.87105 0
M  V30 50867 H 4810.72 0.552917 -0.367666 0
M  V30 50868 H 4813.25 1.27691 -1.59863 0
M  V30 50869 H 4813.26 3.72237 -1.67043 0
M  V30 50870 H 4811.93 3.1761 -2.68508 0
M  V30 50871 H 4810.51 3.6169 -0.90745 0
M  V30 50872 N 4812.69 1.01151 1.20856 0
M  V30 50873 C 4813.94 0.693281 1.89411 0
M  V30 50874 C 4814.26 -0.779906 1.79379 0
M  V30 50875 O 4815.46 -1.21049 2.43021 0
M  V30 50876 C 4813.92 1.18961 3.39671 0
M  V30 50877 C 4813.53 2.68934 3.583 0
M  V30 50878 C 4815.27 0.946565 4.13812 0
M  V30 50879 C 4813.18 3.12073 5.02359 0
M  V30 50880 H 4812.11 0.25562 0.709348 0
M  V30 50881 H 4814.76 1.22353 1.36755 0
M  V30 50882 H 4813.14 0.587366 3.9162 0
M  V30 50883 H 4814.31 3.34663 3.1676 0
M  V30 50884 H 4812.63 2.91324 2.97522 0
M  V30 50885 H 4815.23 1.24436 5.20019 0
M  V30 50886 H 4815.57 -0.117073 4.16135 0
M  V30 50887 H 4816.1 1.51193 3.67948 0
M  V30 50888 H 4812.84 4.17692 5.05187 0
M  V30 50889 H 4812.36 2.5106 5.44728 0
M  V30 50890 H 4814.04 3.04423 5.70908 0
M  V30 50891 N 4814.17 -1.36538 0.787088 0
M  V30 50892 C 4815.4 -2.0356 0.37027 0
M  V30 50893 C 4815.81 -1.5935 -1.01257 0
M  V30 50894 O 4815.17 -0.781839 -1.64905 0
M  V30 50895 C 4815.22 -3.59031 0.421741 0
M  V30 50896 O 4814.94 -4.01628 1.75004 0
M  V30 50897 C 4816.44 -4.433 -0.00474179 0
M  V30 50898 H 4813.66 -0.653341 0.152927 0
M  V30 50899 H 4816.21 -1.74562 1.06528 0
M  V30 50900 H 4814.36 -3.86747 -0.224835 0
M  V30 50901 H 4814.78 -4.96211 1.69926 0
M  V30 50902 H 4816.25 -5.51938 0.0824124 0
M  V30 50903 H 4816.73 -4.26289 -1.05708 0
M  V30 50904 H 4817.33 -4.20841 0.614233 0
M  V30 50905 N 4815.65 -0.538906 -1.481 0
M  V30 50906 C 4816.87 -0.0103423 -2.07397 0
M  V30 50907 C 4817.3 1.26557 -1.39158 0
M  V30 50908 O 4816.66 1.75356 -0.460448 0
M  V30 50909 C 4816.71 0.187476 -3.60112 0
M  V30 50910 O 4815.81 1.25419 -3.92866 0
M  V30 50911 H 4815.15 -0.0431208 -0.662598 0
M  V30 50912 H 4817.68 -0.749368 -1.90383 0
M  V30 50913 H 4817.69 0.407374 -4.05961 0
M  V30 50914 H 4816.37 -0.744529 -4.09182 0
M  V30 50915 H 4814.94 1.01623 -3.58786 0
M  V30 50916 N 4817.13 1.55192 -0.274461 0
M  V30 50917 C 4818.09 2.21202 0.600201 0
M  V30 50918 C 4819.09 1.18967 1.08183 0
M  V30 50919 O 4820.28 1.43876 0.982107 0
M  V30 50920 C 4817.41 2.87745 1.82799 0
M  V30 50921 H 4818.61 2.99891 0.0238628 0
M  V30 50922 H 4816.16 1.5628 -0.0250741 0
M  V30 50923 H 4816.89 2.13067 2.44485 0
M  V30 50924 H 4816.68 3.62663 1.49056 0
M  V30 50925 H 4818.17 3.38179 2.44999 0
M  V30 50926 N 4818.61 0.00173253 1.576 0
M  V30 50927 C 4819.85 -0.683764 1.90925 0
M  V30 50928 C 4820.18 -1.73327 0.87586 0
M  V30 50929 O 4819.46 -1.94215 -0.105182 0
M  V30 50930 C 4819.74 -1.32531 3.34825 0
M  V30 50931 C 4819.6 -0.28723 4.48882 0
M  V30 50932 C 4820.91 -2.251 3.78177 0
M  V30 50933 H 4818.03 -0.2471 0.694342 0
M  V30 50934 H 4820.68 0.0533817 1.89925 0
M  V30 50935 H 4818.83 -1.9536 3.35808 0
M  V30 50936 H 4820.5 0.341507 4.60034 0
M  V30 50937 H 4818.74 0.390322 4.3204 0
M  V30 50938 H 4819.41 -0.775201 5.4653 0
M  V30 50939 H 4821.89 -1.72287 3.78756 0
M  V30 50940 H 4820.76 -2.66954 4.79611 0
M  V30 50941 H 4821.02 -3.13081 3.12142 0
M  V30 50942 N 4820.08 -1.55252 -0.271048 0
M  V30 50943 C 4821.01 -1.91275 -1.33926 0
M  V30 50944 C 4822 -0.774833 -1.51428 0
M  V30 50945 O 4823.18 -1.03313 -1.64439 0
M  V30 50946 C 4820.31 -2.18637 -2.69843 0
M  V30 50947 C 4819.26 -3.34451 -2.6707 0
M  V30 50948 C 4818.59 -3.47298 -4.06557 0
M  V30 50949 C 4819.89 -4.70792 -2.26168 0
M  V30 50950 H 4821.58 -2.80748 -1.04025 0
M  V30 50951 H 4819.13 -1.35079 -0.498969 0
M  V30 50952 H 4821.08 -2.42425 -3.44686 0
M  V30 50953 H 4819.81 -1.25965 -3.01331 0
M  V30 50954 H 4818.47 -3.10634 -1.94685 0
M  V30 50955 H 4818.11 -2.52089 -4.3527 0
M  V30 50956 H 4817.81 -4.25166 -4.05595 0
M  V30 50957 H 4819.34 -3.7338 -4.83135 0
M  V30 50958 H 4820.75 -4.94112 -2.90734 0
M  V30 50959 H 4819.15 -5.5159 -2.36365 0
M  V30 50960 H 4820.22 -4.69483 -1.21302 0
M  V30 50961 N 4821.56 0.535649 -1.48218 0
M  V30 50962 C 4822.49 1.65657 -1.584 0
M  V30 50963 C 4823.51 1.55908 -0.468662 0
M  V30 50964 O 4824.7 1.62472 -0.739257 0
M  V30 50965 C 4821.8 3.0427 -1.49241 0
M  V30 50966 C 4820.97 3.39557 -2.75717 0
M  V30 50967 C 4820.03 4.57427 -2.60091 0
M  V30 50968 O 4819.05 4.6093 -3.33964 0
M  V30 50969 N 4820.26 5.55253 -1.69334 0
M  V30 50970 H 4823.02 1.57361 -2.55064 0
M  V30 50971 H 4820.58 0.722794 -1.4487 0
M  V30 50972 H 4822.57 3.80989 -1.3649 0
M  V30 50973 H 4821.14 3.06675 -0.60574 0
M  V30 50974 H 4820.36 2.52073 -3.03072 0
M  V30 50975 H 4821.65 3.59916 -3.59636 0
M  V30 50976 H 4821.05 5.55196 -1.08508 0
M  V30 50977 H 4819.61 6.31212 -1.62526 0
M  V30 50978 N 4823.04 1.36711 0.784084 0
M  V30 50979 C 4824.27 1.3457 1.57815 0
M  V30 50980 C 4824.69 -0.0694596 1.87972 0
M  V30 50981 O 4824.05 -1.04297 1.48297 0
M  V30 50982 C 4824.1 2.17962 2.87272 0
M  V30 50983 O 4823.2 1.57577 3.81108 0
M  V30 50984 H 4822.54 0.460354 0.478508 0
M  V30 50985 H 4825.07 1.80068 0.971432 0
M  V30 50986 H 4825.08 2.30732 3.36491 0
M  V30 50987 H 4823.76 3.20832 2.6465 0
M  V30 50988 H 4822.33 1.53776 3.39716 0
M  V30 50989 N 4824.52 -1.00885 1.21078 0
M  V30 50990 C 4825.77 -1.74259 1.02364 0
M  V30 50991 C 4826.09 -1.8987 -0.444327 0
M  V30 50992 O 4825.36 -1.44682 -1.32076 0
M  V30 50993 H 4823.94 -0.645601 0.375776 0
M  V30 50994 H 4826.6 -1.21591 1.52321 0
M  V30 50995 H 4825.7 -2.74323 1.4884 0
M  V30 50996 N 4826 -1.01791 -1.20318 0
M  V30 50997 C 4827.24 -0.708003 -1.8972 0
M  V30 50998 C 4827.57 0.762472 -1.78932 0
M  V30 50999 O 4826.83 1.56973 -1.16867 0
M  V30 51000 C 4827.13 -1.09088 -3.40345 0
M  V30 51001 C 4826.79 -2.55778 -3.71333 0
M  V30 51002 C 4825.45 -2.95859 -3.79501 0
M  V30 51003 C 4827.81 -3.50737 -3.8553 0
M  V30 51004 C 4825.13 -4.29834 -3.99324 0
M  V30 51005 C 4827.49 -4.84401 -4.06864 0
M  V30 51006 C 4826.15 -5.24186 -4.13261 0
M  V30 51007 H 4825.42 -0.259077 -0.694234 0
M  V30 51008 H 4828.07 -1.27873 -1.4255 0
M  V30 51009 H 4826.37 -0.438589 -3.89337 0
M  V30 51010 H 4828.07 -0.828774 -3.92342 0
M  V30 51011 H 4824.66 -2.23723 -3.65576 0
M  V30 51012 H 4828.84 -3.2093 -3.78573 0
M  V30 51013 H 4824.1 -4.6021 -4.02513 0
M  V30 51014 H 4828.27 -5.57905 -4.16791 0
M  V30 51015 H 4825.9 -6.28012 -4.28374 0
M  V30 51016 N 4827.47 1.36119 -0.794317 0
M  V30 51017 C 4828.89 1.52318 -0.476578 0
M  V30 51018 C 4829.09 1.74688 1.0043 0
M  V30 51019 O 4828.15 1.78121 1.78967 0
M  V30 51020 C 4829.46 2.70603 -1.31128 0
M  V30 51021 C 4831.01 2.84476 -1.30547 0
M  V30 51022 C 4831.48 4.0577 -2.12402 0
M  V30 51023 N 4832.97 4.12925 -2.09873 0
M  V30 51024 C 4833.71 5.05867 -2.69975 0
M  V30 51025 N 4833.2 6.0422 -3.38955 0
M  V30 51026 N 4835 4.98519 -2.59683 0
M  V30 51027 H 4827.15 1.19853 -1.75354 0
M  V30 51028 H 4829.41 0.585392 -0.745668 0
M  V30 51029 H 4829.12 2.60611 -2.36167 0
M  V30 51030 H 4828.99 3.64885 -0.955972 0
M  V30 51031 H 4831.38 2.93926 -0.262979 0
M  V30 51032 H 4831.46 1.91087 -1.70057 0
M  V30 51033 H 4831.1 3.97081 -3.16684 0
M  V30 51034 H 4831.03 4.98317 -1.70259 0
M  V30 51035 H 4833.52 3.42509 -1.59674 0
M  V30 51036 H 4833.84 6.7171 -3.82132 0
M  V30 51037 H 4832.18 6.04431 -3.43058 0
M  V30 51038 H 4835.37 4.20634 -2.0539 0
M  V30 51039 H 4835.55 5.70763 -3.06813 0
M  V30 51040 N 4828.95 0.546753 1.47812 0
M  V30 51041 C 4829.9 -0.206773 2.29872 0
M  V30 51042 C 4830.87 -0.918186 1.38414 0
M  V30 51043 O 4832.05 -0.915933 1.67378 0
M  V30 51044 C 4829.19 -1.23734 3.22155 0
M  V30 51045 C 4828.31 -0.533065 4.28699 0
M  V30 51046 C 4827.44 -1.54802 5.08144 0
M  V30 51047 C 4826.48 -0.828134 6.06472 0
M  V30 51048 N 4825.62 -1.78942 6.78914 0
M  V30 51049 H 4830.46 0.49914 2.9379 0
M  V30 51050 H 4828 0.257981 1.4482 0
M  V30 51051 H 4829.95 -1.84733 3.74072 0
M  V30 51052 H 4828.58 -1.91142 2.60124 0
M  V30 51053 H 4827.64 0.191222 3.79919 0
M  V30 51054 H 4828.95 0.031374 4.9879 0
M  V30 51055 H 4828.1 -2.23183 5.64158 0
M  V30 51056 H 4826.84 -2.14637 4.3793 0
M  V30 51057 H 4825.85 -0.130346 5.49645 0
M  V30 51058 H 4827.07 -0.235669 6.78691 0
M  V30 51059 H 4825.02 -2.37654 6.11438 0
M  V30 51060 H 4824.93 -1.27686 7.45139 0
M  V30 51061 H 4826.2 -2.4647 7.39509 0
M  V30 51062 N 4830.43 -1.55044 0.282687 0
M  V30 51063 C 4831.36 -2.18953 -0.643033 0
M  V30 51064 C 4832.34 -1.15291 -1.1466 0
M  V30 51065 O 4833.53 -1.4385 -1.21817 0
M  V30 51066 C 4830.65 -2.81881 -1.87779 0
M  V30 51067 C 4829.7 -3.98911 -1.50905 0
M  V30 51068 S 4830.53 -5.32342 -0.580697 0
M  V30 51069 C 4831.69 -5.98743 -1.82366 0
M  V30 51070 H 4831.92 -2.97132 -0.100034 0
M  V30 51071 H 4829.45 -1.54255 0.0669057 0
M  V30 51072 H 4831.41 -3.18766 -2.58647 0
M  V30 51073 H 4830.07 -2.03582 -2.39193 0
M  V30 51074 H 4829.27 -4.41659 -2.42803 0
M  V30 51075 H 4828.87 -3.63488 -0.880482 0
M  V30 51076 H 4831.16 -6.18437 -2.76662 0
M  V30 51077 H 4832.1 -6.93323 -1.43906 0
M  V30 51078 H 4832.51 -5.28184 -1.99204 0
M  V30 51079 N 4831.91 -0.0100904 -1.57597 0
M  V30 51080 C 4832.87 0.962956 -2.0799 0
M  V30 51081 C 4833.87 1.26616 -0.991217 0
M  V30 51082 O 4835.06 1.20966 -1.25351 0
M  V30 51083 C 4832.19 2.28501 -2.52982 0
M  V30 51084 H 4833.39 0.526867 -2.95236 0
M  V30 51085 H 4830.94 0.237585 -1.54484 0
M  V30 51086 H 4831.67 2.76779 -1.69009 0
M  V30 51087 H 4831.46 2.07812 -3.32501 0
M  V30 51088 H 4832.95 2.98284 -2.92261 0
M  V30 51089 N 4833.39 1.55393 0.262811 0
M  V30 51090 C 4834.63 1.76479 0.993047 0
M  V30 51091 C 4834.96 0.571544 1.85913 0
M  V30 51092 O 4834.22 -0.445666 1.90558 0
M  V30 51093 C 4834.52 3.02896 1.89707 0
M  V30 51094 C 4834.18 4.34978 1.18765 0
M  V30 51095 C 4832.84 4.70874 0.991534 0
M  V30 51096 C 4835.2 5.16697 0.683617 0
M  V30 51097 C 4832.52 5.86037 0.278818 0
M  V30 51098 C 4834.88 6.32598 -0.0155551 0
M  V30 51099 C 4833.54 6.67126 -0.223297 0
M  V30 51100 H 4832.81 0.645782 0.363381 0
M  V30 51101 H 4835.46 1.89665 0.264458 0
M  V30 51102 H 4833.76 2.84654 2.6922 0
M  V30 51103 H 4835.46 3.16408 2.46348 0
M  V30 51104 H 4832.05 4.06769 1.35043 0
M  V30 51105 H 4836.23 4.89433 0.822728 0
M  V30 51106 H 4831.49 6.11306 0.107241 0
M  V30 51107 H 4835.66 6.95169 -0.413828 0
M  V30 51108 H 4833.29 7.56213 -0.777531 0
M  V30 51109 N 4834.87 -0.527781 1.485 0
M  V30 51110 C 4836.28 -1.10969 1.50142 0
M  V30 51111 C 4836.63 -1.94299 0.272446 0
M  V30 51112 O 4835.75 -2.07321 -0.620228 0
M  V30 51113 C 4836.35 -2.01918 2.72056 0
M  V30 51114 C 4834.91 -2.55323 2.76563 0
M  V30 51115 C 4834.05 -1.32332 2.43687 0
M  V30 51116 H 4837 -0.312931 1.55584 0
M  V30 51117 H 4837.03 -2.86235 2.50699 0
M  V30 51118 H 4836.54 -1.41242 3.61486 0
M  V30 51119 H 4834.64 -3.19714 1.91347 0
M  V30 51120 H 4834.75 -2.94306 3.78049 0
M  V30 51121 H 4833.12 -1.63982 1.9489 0
M  V30 51122 H 4833.9 -0.734047 3.3536 0
M  V30 51123 N 4836.34 -1.37125 -0.776822 0
M  V30 51124 C 4837.57 -1.35405 -1.57099 0
M  V30 51125 C 4837.99 0.0594901 -1.88006 0
M  V30 51126 O 4837.35 1.03509 -1.48848 0
M  V30 51127 C 4837.4 -2.19482 -2.86112 0
M  V30 51128 O 4836.5 -1.59596 -3.80267 0
M  V30 51129 H 4835.84 -0.462885 -0.47606 0
M  V30 51130 H 4838.37 -1.8058 -0.961869 0
M  V30 51131 H 4838.38 -2.32514 -3.35263 0
M  V30 51132 H 4837.06 -3.22231 -2.62945 0
M  V30 51133 H 4835.64 -1.55576 -3.38896 0
M  V30 51134 N 4837.82 1.00242 -1.21611 0
M  V30 51135 C 4839.07 1.73713 -1.03286 0
M  V30 51136 C 4839.39 1.90103 0.434251 0
M  V30 51137 O 4838.66 1.4538 1.31306 0
M  V30 51138 H 4837.24 0.6436 -0.379195 0
M  V30 51139 H 4839.9 1.20781 -1.52964 0
M  V30 51140 H 4839 2.7353 -1.50292 0
M  V30 51141 N 4839.3 1.02428 1.19776 0
M  V30 51142 C 4840.25 0.601101 2.22835 0
M  V30 51143 C 4841.22 -0.382744 1.6163 0
M  V30 51144 O 4842.4 -0.280447 1.88728 0
M  V30 51145 C 4839.54 -0.0466542 3.45068 0
M  V30 51146 C 4838.65 0.982678 4.20675 0
M  V30 51147 C 4837.79 0.305169 5.30323 0
M  V30 51148 C 4836.83 1.32073 5.97681 0
M  V30 51149 N 4835.97 0.669351 6.98902 0
M  V30 51150 H 4840.81 1.48453 2.58391 0
M  V30 51151 H 4838.34 0.74298 1.26958 0
M  V30 51152 H 4840.3 -0.439411 4.1488 0
M  V30 51153 H 4838.93 -0.893687 3.10182 0
M  V30 51154 H 4837.98 1.49353 3.49854 0
M  V30 51155 H 4839.29 1.75472 4.66917 0
M  V30 51156 H 4838.45 -0.142679 6.06532 0
M  V30 51157 H 4837.19 -0.499112 4.85139 0
M  V30 51158 H 4836.19 1.77889 5.20227 0
M  V30 51159 H 4837.42 2.12642 6.4495 0
M  V30 51160 H 4835.36 -0.114922 6.55899 0
M  V30 51161 H 4835.28 1.37934 7.4331 0
M  V30 51162 H 4836.55 0.24535 7.79114 0
M  V30 51163 N 4840.78 -1.35696 0.801525 0
M  V30 51164 C 4842.02 -1.99206 0.380092 0
M  V30 51165 C 4842.36 -1.63449 -1.04872 0
M  V30 51166 O 4841.63 -0.895284 -1.7267 0
M  V30 51167 C 4841.91 -3.55753 0.557833 0
M  V30 51168 C 4841.77 -4.01325 2.03121 0
M  V30 51169 C 4843.09 -4.40096 -0.0196421 0
M  V30 51170 H 4840.21 -0.723662 0.139578 0
M  V30 51171 H 4842.85 -1.60924 1.01012 0
M  V30 51172 H 4841 -3.88494 0.0215107 0
M  V30 51173 H 4842.67 -3.79017 2.62953 0
M  V30 51174 H 4840.91 -3.5242 2.52948 0
M  V30 51175 H 4841.58 -5.10227 2.10648 0
M  V30 51176 H 4844.06 -4.13785 0.438324 0
M  V30 51177 H 4842.94 -5.48735 0.134669 0
M  V30 51178 H 4843.2 -4.27864 -1.11288 0
M  V30 51179 N 4842.26 -0.554584 -1.4752 0
M  V30 51180 C 4843.17 0.197783 -2.33765 0
M  V30 51181 C 4844.18 0.914524 -1.48029 0
M  V30 51182 O 4845.36 0.884004 -1.80962 0
M  V30 51183 C 4842.42 1.21616 -3.2467 0
M  V30 51184 C 4841.48 0.507133 -4.26294 0
M  V30 51185 C 4840.72 1.477 -5.12855 0
M  V30 51186 O 4840.94 2.71162 -5.01824 0
M  V30 51187 O 4839.87 1.00292 -5.93486 0
M  V30 51188 H 4843.7 -0.509595 -2.99394 0
M  V30 51189 H 4841.28 -0.315227 -1.46037 0
M  V30 51190 H 4843.17 1.80408 -3.80829 0
M  V30 51191 H 4841.84 1.90551 -2.61672 0
M  V30 51192 H 4840.75 -0.12191 -3.73901 0
M  V30 51193 H 4842.08 -0.140717 -4.91999 0
M  V30 51194 N 4843.73 1.54892 -0.290906 0
M  V30 51195 C 4844.98 1.9954 0.320686 0
M  V30 51196 C 4845.3 1.18081 1.55184 0
M  V30 51197 O 4844.57 0.27423 1.93971 0
M  V30 51198 H 4843.15 0.737056 0.121481 0
M  V30 51199 H 4845.81 1.90753 -0.399899 0
M  V30 51200 H 4844.91 3.06284 0.599694 0
M  V30 51201 N 4845.21 0.018448 1.57589 0
M  V30 51202 C 4846.45 -0.666778 1.93219 0
M  V30 51203 C 4846.82 -1.69902 0.894274 0
M  V30 51204 O 4848.02 -2.43596 1.13641 0
M  V30 51205 C 4846.29 -1.27672 3.33818 0
M  V30 51206 S 4847.85 -1.9845 3.9136 0
M  V30 51207 H 4844.66 -0.219802 0.676172 0
M  V30 51208 H 4847.27 0.079558 1.95338 0
M  V30 51209 H 4845.97 -0.512863 4.07183 0
M  V30 51210 H 4845.5 -2.06059 3.35117 0
M  V30 51211 H 4847.52 -3.26176 3.7393 0
M  V30 51212 N 4846.69 -1.5553 -0.254567 0
M  V30 51213 C 4847.62 -1.84629 -1.34118 0
M  V30 51214 C 4848.6 -0.700744 -1.46725 0
M  V30 51215 O 4849.78 -0.945697 -1.63061 0
M  V30 51216 C 4846.91 -2.02422 -2.71557 0
M  V30 51217 C 4845.96 -3.25038 -2.76139 0
M  V30 51218 S 4846.79 -4.81901 -2.33521 0
M  V30 51219 C 4847.95 -5.0269 -3.72899 0
M  V30 51220 H 4848.18 -2.76505 -1.09235 0
M  V30 51221 H 4845.71 -1.47539 -0.455159 0
M  V30 51222 H 4847.67 -2.13357 -3.50698 0
M  V30 51223 H 4846.33 -1.11401 -2.93681 0
M  V30 51224 H 4845.52 -3.34431 -3.77057 0
M  V30 51225 H 4845.13 -3.12788 -2.05035 0
M  V30 51226 H 4847.42 -4.89563 -4.68332 0
M  V30 51227 H 4848.36 -6.04693 -3.68446 0
M  V30 51228 H 4848.77 -4.30574 -3.65057 0
M  V30 51229 N 4848.17 0.519898 -1.48778 0
M  V30 51230 C 4849.41 1.27705 -1.57541 0
M  V30 51231 C 4849.75 1.92546 -0.252933 0
M  V30 51232 O 4849.02 1.79792 0.741958 0
M  V30 51233 C 4849.3 2.35865 -2.72102 0
M  V30 51234 C 4849.16 1.7565 -4.14086 0
M  V30 51235 C 4850.48 3.37565 -2.82379 0
M  V30 51236 H 4847.6 0.462951 -0.57345 0
M  V30 51237 H 4850.24 0.57813 -1.80991 0
M  V30 51238 H 4848.39 2.95479 -2.52239 0
M  V30 51239 H 4850.06 1.20009 -4.45416 0
M  V30 51240 H 4848.3 1.06139 -4.20615 0
M  V30 51241 H 4848.97 2.54011 -4.90084 0
M  V30 51242 H 4851.45 2.87919 -3.00403 0
M  V30 51243 H 4850.33 4.10627 -3.64248 0
M  V30 51244 H 4850.59 3.98736 -1.9095 0
M  V30 51245 N 4849.65 1.37535 0.769539 0
M  V30 51246 C 4850.58 1.29354 1.89209 0
M  V30 51247 C 4851.59 0.208899 1.61454 0
M  V30 51248 O 4852.78 0.465218 1.72331 0
M  V30 51249 C 4849.88 0.977763 3.24489 0
M  V30 51250 C 4849.05 2.16831 3.79873 0
M  V30 51251 C 4848.11 1.82246 4.93632 0
M  V30 51252 O 4847.14 2.54566 5.09102 0
M  V30 51253 N 4848.34 0.767899 5.75399 0
M  V30 51254 H 4851.11 2.2608 1.96743 0
M  V30 51255 H 4848.67 1.31188 0.948749 0
M  V30 51256 H 4850.66 0.727205 3.98113 0
M  V30 51257 H 4849.23 0.0989875 3.12443 0
M  V30 51258 H 4848.45 2.58049 2.98001 0
M  V30 51259 H 4849.74 2.96322 4.13607 0
M  V30 51260 H 4849.13 0.167825 5.65451 0
M  V30 51261 H 4847.69 0.577202 6.49239 0
M  V30 51262 N 4851.12 -0.995956 1.22141 0
M  V30 51263 C 4852.37 -1.73763 1.04567 0
M  V30 51264 C 4852.7 -1.89634 -0.418631 0
M  V30 51265 O 4851.98 -1.43728 -1.31044 0
M  V30 51266 C 4852.26 -3.14499 1.75393 0
M  V30 51267 C 4852.11 -3.06295 3.29399 0
M  V30 51268 C 4853.43 -4.1361 1.50383 0
M  V30 51269 H 4850.55 -0.630714 0.381272 0
M  V30 51270 H 4853.19 -1.16052 1.50439 0
M  V30 51271 H 4851.34 -3.6377 1.36396 0
M  V30 51272 H 4853.02 -2.64668 3.77821 0
M  V30 51273 H 4851.26 -2.43173 3.59234 0
M  V30 51274 H 4851.93 -4.0587 3.7413 0
M  V30 51275 H 4854.41 -3.73082 1.84252 0
M  V30 51276 H 4853.28 -5.10205 2.02439 0
M  V30 51277 H 4853.54 -4.39947 0.435766 0
M  V30 51278 N 4852.6 -1.03061 -1.19231 0
M  V30 51279 C 4853.83 -0.747765 -1.92915 0
M  V30 51280 C 4854.25 0.693659 -1.75596 0
M  V30 51281 O 4853.6 1.47187 -1.07899 0
M  V30 51282 C 4853.65 -1.09171 -3.44621 0
M  V30 51283 O 4853.37 -2.47653 -3.61386 0
M  V30 51284 C 4854.88 -0.831917 -4.35424 0
M  V30 51285 H 4852.1 -0.273475 -0.612742 0
M  V30 51286 H 4854.64 -1.37557 -1.51322 0
M  V30 51287 H 4852.79 -0.509054 -3.84041 0
M  V30 51288 H 4853.21 -2.60515 -4.55227 0
M  V30 51289 H 4854.68 -1.12252 -5.40466 0
M  V30 51290 H 4855.16 0.233615 -4.38578 0
M  V30 51291 H 4855.77 -1.39739 -4.01688 0
M  V30 51292 N 4854.08 1.35269 -0.80871 0
M  V30 51293 C 4855.32 2.00532 -0.395738 0
M  V30 51294 C 4855.68 1.62759 1.01851 0
M  V30 51295 O 4856.89 2.20758 1.5336 0
M  V30 51296 C 4855.16 3.5273 -0.575895 0
M  V30 51297 S 4856.72 4.38066 -0.253661 0
M  V30 51298 H 4853.53 0.694956 -0.150189 0
M  V30 51299 H 4856.14 1.64819 -1.05142 0
M  V30 51300 H 4854.84 3.77709 -1.60513 0
M  V30 51301 H 4854.37 3.93285 0.0950356 0
M  V30 51302 H 4856.39 4.87256 0.937897 0
M  V30 51303 N 4855.56 0.5624 1.47224 0
M  V30 51304 C 4856.81 0.0402081 2.0206 0
M  V30 51305 C 4857.13 -1.31645 1.43856 0
M  V30 51306 O 4856.4 -1.85974 0.615665 0
M  V30 51307 H 4854.98 0.0118742 0.746906 0
M  V30 51308 H 4857.64 0.733584 1.80567 0
M  V30 51309 H 4856.74 -0.0440156 3.12069 0
M  V30 51310 N 4857.04 -1.54735 0.299116 0
M  V30 51311 C 4858.26 -2.04513 -0.313375 0
M  V30 51312 C 4858.68 -1.17649 -1.47663 0
M  V30 51313 O 4858.04 -0.201704 -1.81382 0
M  V30 51314 C 4858.09 -3.53173 -0.771418 0
M  V30 51315 O 4857.81 -4.36735 0.345533 0
M  V30 51316 C 4859.31 -4.18941 -1.44926 0
M  V30 51317 H 4856.53 -0.667509 -0.0683549 0
M  V30 51318 H 4859.07 -1.9975 0.438199 0
M  V30 51319 H 4857.23 -3.58303 -1.47302 0
M  V30 51320 H 4857.64 -5.24499 -0.0107376 0
M  V30 51321 H 4859.12 -5.24488 -1.72093 0
M  V30 51322 H 4859.59 -3.68562 -2.3887 0
M  V30 51323 H 4860.2 -4.17882 -0.790881 0
M  V30 51324 N 4858.51 -0.0268051 -1.57577 0
M  V30 51325 C 4859.74 0.662592 -1.96003 0
M  V30 51326 C 4860.16 1.65796 -0.903176 0
M  V30 51327 O 4859.51 1.82136 0.115253 0
M  V30 51328 C 4859.57 1.37101 -3.34493 0
M  V30 51329 O 4859.29 0.415529 -4.36125 0
M  V30 51330 C 4860.79 2.15244 -3.87537 0
M  V30 51331 H 4858.01 0.182848 -0.645606 0
M  V30 51332 H 4860.55 -0.0858834 -2.0432 0
M  V30 51333 H 4858.71 2.0709 -3.27403 0
M  V30 51334 H 4859.12 0.918314 -5.16398 0
M  V30 51335 H 4860.59 2.60268 -4.8679 0
M  V30 51336 H 4861.07 2.99051 -3.2166 0
M  V30 51337 H 4861.68 1.50217 -3.97888 0
M  V30 51338 N 4859.99 1.55663 0.246315 0
M  V30 51339 C 4861.22 1.81578 0.991813 0
M  V30 51340 C 4861.64 0.602608 1.78925 0
M  V30 51341 O 4860.99 -0.428732 1.77393 0
M  V30 51342 C 4861.04 3.05718 1.92922 0
M  V30 51343 O 4860.76 4.22352 1.16405 0
M  V30 51344 C 4862.27 3.44437 2.79066 0
M  V30 51345 H 4859.49 0.604219 0.291822 0
M  V30 51346 H 4862.03 2.02723 0.269024 0
M  V30 51347 H 4860.18 2.86622 2.60628 0
M  V30 51348 H 4860.6 4.92713 1.79818 0
M  V30 51349 H 4862.07 4.344 3.40588 0
M  V30 51350 H 4862.55 2.6505 3.50208 0
M  V30 51351 H 4863.16 3.65886 2.16811 0
M  V30 51352 N 4861.47 -0.512001 1.49051 0
M  V30 51353 C 4862.4 -1.62359 1.67814 0
M  V30 51354 C 4863.38 -1.61735 0.526865 0
M  V30 51355 O 4864.57 -1.78649 0.761467 0
M  V30 51356 C 4861.7 -3.00889 1.73445 0
M  V30 51357 C 4860.65 -3.16377 2.88253 0
M  V30 51358 C 4859.98 -4.56147 2.78988 0
M  V30 51359 C 4861.28 -2.97442 4.29332 0
M  V30 51360 H 4862.97 -1.46912 2.60878 0
M  V30 51361 H 4860.52 -0.705334 1.25543 0
M  V30 51362 H 4862.47 -3.78542 1.85158 0
M  V30 51363 H 4861.19 -3.174 0.769731 0
M  V30 51364 H 4859.85 -2.41145 2.76124 0
M  V30 51365 H 4859.5 -4.69519 1.80446 0
M  V30 51366 H 4859.2 -4.67452 3.56037 0
M  V30 51367 H 4860.72 -5.35876 2.92693 0
M  V30 51368 H 4862.14 -3.64873 4.422 0
M  V30 51369 H 4860.54 -3.20227 5.07518 0
M  V30 51370 H 4861.61 -1.93676 4.44542 0
M  V30 51371 N 4862.95 -1.37941 -0.762235 0
M  V30 51372 C 4863.9 -1.34575 -1.89716 0
M  V30 51373 C 4864.89 -0.232988 -1.6779 0
M  V30 51374 O 4866.1 -0.401547 -1.75464 0
M  V30 51375 H 4862.47 -0.419616 -0.62404 0
M  V30 51376 H 4864.44 -2.30363 -1.89671 0
M  V30 51377 C 4863.19 -1.1791 -3.27097 0
M  V30 51378 H 4862.51 -2.02793 -3.44551 0
M  V30 51379 H 4863.95 -1.19607 -4.0678 0
M  V30 51380 C 4862.41 0.11461 -3.36705 0
M  V30 51381 O 4862.94 1.09477 -3.86494 0
M  V30 51382 N 4861.15 0.168528 -2.90111 0
M  V30 51383 H 4860.7 -0.629758 -2.49784 0
M  V30 51384 H 4860.65 1.03373 -2.9692 0
M  V30 51385 N 4864.43 0.989464 -1.22668 0
M  V30 51386 C 4865.68 1.72608 -1.05123 0
M  V30 51387 C 4866 1.90553 0.414064 0
M  V30 51388 O 4865.27 1.46765 1.29757 0
M  V30 51389 H 4863.85 0.639541 -0.386 0
M  V30 51390 H 4866.51 1.19152 -1.54236 0
M  V30 51391 H 4865.6 2.71921 -1.53185 0
M  V30 51392 N 4865.91 1.03692 1.18683 0
M  V30 51393 C 4866.84 0.645486 2.24401 0
M  V30 51394 C 4867.82 -0.349453 1.66472 0
M  V30 51395 O 4869 -0.230385 1.92829 0
M  V30 51396 C 4866.13 0.00377546 3.473 0
M  V30 51397 C 4865.09 0.921852 4.17954 0
M  V30 51398 C 4864.41 0.144817 5.34504 0
M  V30 51399 C 4865.71 2.23926 4.71863 0
M  V30 51400 H 4867.41 1.52926 2.57398 0
M  V30 51401 H 4864.95 0.736755 1.23725 0
M  V30 51402 H 4866.9 -0.281761 4.20457 0
M  V30 51403 H 4865.63 -0.914852 3.13525 0
M  V30 51404 H 4864.29 1.19171 3.4669 0
M  V30 51405 H 4863.94 -0.776099 4.96977 0
M  V30 51406 H 4863.64 0.756411 5.82711 0
M  V30 51407 H 4865.16 -0.13379 6.10453 0
M  V30 51408 H 4866.57 2.01469 5.36734 0
M  V30 51409 H 4864.97 2.80349 5.30589 0
M  V30 51410 H 4866.04 2.88836 3.89489 0
M  V30 51411 N 4867.38 -1.34838 0.815872 0
M  V30 51412 C 4868.63 -1.99218 0.410358 0
M  V30 51413 C 4868.98 -1.63535 -1.0136 0
M  V30 51414 O 4868.28 -0.893153 -1.69509 0
M  V30 51415 C 4868.47 -3.53271 0.541665 0
M  V30 51416 C 4868.3 -4.0392 1.97684 0
M  V30 51417 C 4867.07 -4.32842 2.60721 0
M  V30 51418 C 4869.27 -4.21797 2.94265 0
M  V30 51419 N 4867.25 -4.6948 3.95553 0
M  V30 51420 C 4868.62 -4.61535 4.13987 0
M  V30 51421 C 4870.68 -4.04028 2.90974 0
M  V30 51422 C 4869.38 -4.85362 5.30864 0
M  V30 51423 C 4871.41 -4.29017 4.07061 0
M  V30 51424 C 4870.77 -4.69035 5.25533 0
M  V30 51425 H 4866.87 -0.756487 0.198121 0
M  V30 51426 H 4869.45 -1.63376 1.05908 0
M  V30 51427 H 4867.62 -3.88323 -0.0771179 0
M  V30 51428 H 4869.35 -4.04551 0.109836 0
M  V30 51429 H 4866.11 -4.23496 2.1201 0
M  V30 51430 H 4866.53 -4.92044 4.64996 0
M  V30 51431 H 4871.17 -3.72223 2.00525 0
M  V30 51432 H 4868.89 -5.16037 6.21877 0
M  V30 51433 H 4872.48 -4.16811 4.05906 0
M  V30 51434 H 4871.36 -4.87993 6.13867 0
M  V30 51435 N 4868.86 -0.570199 -1.46923 0
M  V30 51436 C 4869.79 0.158192 -2.32964 0
M  V30 51437 C 4870.77 0.896042 -1.44586 0
M  V30 51438 O 4871.96 0.873961 -1.73423 0
M  V30 51439 C 4869.09 1.18044 -3.26624 0
M  V30 51440 C 4868.04 0.55823 -4.24344 0
M  V30 51441 C 4867.37 1.68605 -5.07421 0
M  V30 51442 C 4868.67 -0.496478 -5.19935 0
M  V30 51443 H 4870.36 -0.56015 -2.94113 0
M  V30 51444 H 4867.91 -0.270825 -1.4143 0
M  V30 51445 H 4869.86 1.69827 -3.85664 0
M  V30 51446 H 4868.58 1.92889 -2.63555 0
M  V30 51447 H 4867.24 0.0615868 -3.66548 0
M  V30 51448 H 4866.89 2.42386 -4.40747 0
M  V30 51449 H 4866.59 1.27544 -5.73591 0
M  V30 51450 H 4868.12 2.20689 -5.69323 0
M  V30 51451 H 4869.53 -0.0642068 -5.73264 0
M  V30 51452 H 4867.93 -0.826699 -5.94378 0
M  V30 51453 H 4869 -1.38751 -4.64625 0
M  V30 51454 N 4870.34 1.54575 -0.307318 0
M  V30 51455 C 4871.62 1.92378 0.353537 0
M  V30 51456 C 4872 1.23523 1.71188 0
M  V30 51457 O 4871.34 0.373181 2.25432 0
M  V30 51458 C 4871.55 3.4593 0.461917 0
M  V30 51459 C 4872.9 4.18281 0.729828 0
M  V30 51460 O 4873.93 3.51999 0.545481 0
M  V30 51461 O 4872.79 5.35634 1.08436 0
M  V30 51462 H 4869.88 0.802754 0.198784 0
M  V30 51463 H 4872.43 1.65927 -0.355841 0
M  V30 51464 H 4871.2 3.88185 -0.492728 0
M  V30 51465 H 4870.82 3.78436 1.21951 0
M  V30 51466 N 4871.82 0.0351614 1.57561 0
M  V30 51467 C 4873.09 -0.681148 1.83357 0
M  V30 51468 C 4873.47 -1.89982 0.920319 0
M  V30 51469 O 4872.82 -2.28489 -0.0226012 0
M  V30 51470 C 4873.03 -1.05364 3.32715 0
M  V30 51471 C 4874.38 -1.44272 3.99338 0
M  V30 51472 O 4875.4 -1.14645 3.37246 0
M  V30 51473 O 4874.26 -1.995 5.08785 0
M  V30 51474 H 4871.36 -0.334715 0.756237 0
M  V30 51475 H 4873.9 0.0633044 1.69582 0
M  V30 51476 H 4872.68 -0.186531 3.90855 0
M  V30 51477 H 4872.3 -1.85606 3.51619 0
M  V30 51478 N 4873.3 -1.55792 -0.238056 0
M  V30 51479 C 4874.54 -1.783 -0.966274 0
M  V30 51480 C 4874.87 -0.601968 -1.84635 0
M  V30 51481 O 4874.15 0.399432 -1.90354 0
M  V30 51482 C 4874.43 -3.10764 -1.81928 0
M  V30 51483 C 4874.29 -4.39287 -0.966804 0
M  V30 51484 C 4875.6 -3.39529 -2.80015 0
M  V30 51485 H 4872.72 -0.648666 -0.349859 0
M  V30 51486 H 4875.37 -1.88526 -0.236187 0
M  V30 51487 H 4873.52 -3.02177 -2.44175 0
M  V30 51488 H 4875.19 -4.59875 -0.362352 0
M  V30 51489 H 4873.43 -4.32949 -0.271517 0
M  V30 51490 H 4874.1 -5.28374 -1.59765 0
M  V30 51491 H 4876.58 -3.48136 -2.27904 0
M  V30 51492 H 4875.45 -4.33414 -3.36814 0
M  V30 51493 H 4875.71 -2.60877 -3.56925 0
M  V30 51494 N 4874.77 0.504089 -1.49321 0
M  V30 51495 C 4876.02 1.26027 -1.58887 0
M  V30 51496 C 4876.35 1.92267 -0.273341 0
M  V30 51497 O 4875.63 1.80569 0.722846 0
M  V30 51498 C 4875.91 2.32966 -2.74589 0
M  V30 51499 C 4875.76 1.71248 -4.15926 0
M  V30 51500 C 4877.08 3.34551 -2.85944 0
M  V30 51501 H 4874.2 0.456843 -0.578328 0
M  V30 51502 H 4876.84 0.558901 -1.81594 0
M  V30 51503 H 4874.99 2.92787 -2.55358 0
M  V30 51504 H 4876.67 1.15278 -4.46664 0
M  V30 51505 H 4874.91 1.01672 -4.21717 0
M  V30 51506 H 4875.58 2.48799 -4.9275 0
M  V30 51507 H 4878.06 2.84716 -3.0344 0
M  V30 51508 H 4876.93 4.06741 -3.68582 0
M  V30 51509 H 4877.19 3.96689 -1.95168 0
M  V30 51510 N 4876.25 1.38343 0.754909 0
M  V30 51511 C 4877.48 1.3751 1.5419 0
M  V30 51512 C 4877.89 -0.0373122 1.89163 0
M  V30 51513 O 4877.23 -1.01396 1.53181 0
M  V30 51514 C 4877.29 2.16498 2.87 0
M  V30 51515 C 4876.96 3.65321 2.74572 0
M  V30 51516 C 4877.96 4.58843 2.44458 0
M  V30 51517 C 4875.64 4.0866 2.92066 0
M  V30 51518 C 4877.63 5.93683 2.3199 0
M  V30 51519 C 4875.32 5.43581 2.79218 0
M  V30 51520 C 4876.32 6.35907 2.49222 0
M  V30 51521 O 4876.01 7.68346 2.36431 0
M  V30 51522 H 4875.74 0.472176 0.483763 0
M  V30 51523 H 4878.29 1.82518 0.942146 0
M  V30 51524 H 4876.52 1.66206 3.4916 0
M  V30 51525 H 4878.21 2.08088 3.48503 0
M  V30 51526 H 4878.98 4.26665 2.30612 0
M  V30 51527 H 4874.86 3.37146 3.1441 0
M  V30 51528 H 4878.4 6.65713 2.08499 0
M  V30 51529 H 4874.3 5.75356 2.92637 0
M  V30 51530 H 4875.07 7.78854 2.51653 0
M  V30 51531 N 4877.73 -0.982945 1.23191 0
M  V30 51532 C 4878.97 -1.73899 1.07418 0
M  V30 51533 C 4879.33 -1.88147 -0.382698 0
M  V30 51534 O 4880.53 -2.60532 -0.661547 0
M  V30 51535 C 4878.81 -3.10099 1.77689 0
M  V30 51536 S 4880.36 -4.01317 1.77455 0
M  V30 51537 H 4877.18 -0.598079 0.384477 0
M  V30 51538 H 4879.78 -1.1745 1.56287 0
M  V30 51539 H 4878.49 -2.97378 2.82833 0
M  V30 51540 H 4878.02 -3.71617 1.2909 0
M  V30 51541 H 4880.03 -4.89186 0.831334 0
M  V30 51542 N 4879.21 -1.0432 -1.18132 0
M  V30 51543 C 4880.62 -0.775565 -1.69829 0
M  V30 51544 C 4880.97 0.703284 -1.83162 0
M  V30 51545 O 4880.1 1.54724 -1.51293 0
M  V30 51546 C 4880.69 -1.40123 -3.08465 0
M  V30 51547 C 4879.25 -1.18185 -3.57364 0
M  V30 51548 C 4878.4 -1.4903 -2.33849 0
M  V30 51549 H 4881.35 -1.20929 -1.02771 0
M  V30 51550 H 4881.37 -0.805802 -3.7187 0
M  V30 51551 H 4880.88 -2.47755 -2.98729 0
M  V30 51552 H 4878.98 -0.124389 -3.72392 0
M  V30 51553 H 4879.09 -1.88065 -4.40645 0
M  V30 51554 H 4877.46 -0.910079 -2.37886 0
M  V30 51555 H 4878.24 -2.57776 -2.26729 0
M  V30 51556 N 4880.69 1.34403 -0.823012 0
M  V30 51557 C 4882.1 1.51273 -0.50878 0
M  V30 51558 C 4882.3 1.76779 0.967021 0
M  V30 51559 O 4881.36 1.81877 1.75148 0
M  V30 51560 C 4882.67 2.67761 -1.36838 0
M  V30 51561 C 4884.22 2.81643 -1.36552 0
M  V30 51562 C 4884.69 4.01174 -2.20961 0
M  V30 51563 N 4886.19 4.08381 -2.18585 0
M  V30 51564 C 4886.92 5.00026 -2.80645 0
M  V30 51565 N 4886.42 5.96894 -3.51695 0
M  V30 51566 N 4888.21 4.92899 -2.70198 0
M  V30 51567 H 4880.36 1.16107 -1.77857 0
M  V30 51568 H 4882.62 0.569443 -0.757917 0
M  V30 51569 H 4882.33 2.55543 -2.41642 0
M  V30 51570 H 4882.2 3.62775 -1.03315 0
M  V30 51571 H 4884.59 2.93302 -0.325266 0
M  V30 51572 H 4884.67 1.87437 -1.74072 0
M  V30 51573 H 4884.32 3.90274 -3.25036 0
M  V30 51574 H 4884.25 4.94593 -1.80791 0
M  V30 51575 H 4886.74 3.39045 -1.66903 0
M  V30 51576 H 4887.05 6.63454 -3.96294 0
M  V30 51577 H 4885.39 5.97018 -3.55801 0
M  V30 51578 H 4888.59 4.16182 -2.14266 0
M  V30 51579 H 4888.76 5.64126 -3.1885 0
M  V30 51580 N 4882.16 0.577983 1.46619 0
M  V30 51581 C 4883.11 -0.178789 2.27298 0
M  V30 51582 C 4884.1 -0.866231 1.35592 0
M  V30 51583 O 4885.29 -0.761107 1.598 0
M  V30 51584 C 4882.42 -1.19488 3.21835 0
M  V30 51585 C 4881.51 -0.509792 4.21025 0
M  V30 51586 N 4881.9 0.431947 5.03952 0
M  V30 51587 C 4880.19 -0.761133 4.39457 0
M  V30 51588 C 4880.9 0.831895 5.75721 0
M  V30 51589 N 4879.87 0.182088 5.43295 0
M  V30 51590 H 4883.67 0.54496 2.88803 0
M  V30 51591 H 4881.19 0.399428 1.57411 0
M  V30 51592 H 4883.18 -1.75118 3.78338 0
M  V30 51593 H 4881.84 -1.9195 2.61888 0
M  V30 51594 H 4882.86 0.807224 5.1157 0
M  V30 51595 H 4879.53 -1.47269 3.90664 0
M  V30 51596 H 4880.92 1.60693 6.52401 0
M  V30 51597 N 4883.64 -1.54409 0.315511 0
M  V30 51598 C 4884.89 -2.00717 -0.289901 0
M  V30 51599 C 4885.22 -1.20345 -1.52416 0
M  V30 51600 O 4884.5 -0.283647 -1.92421 0
M  V30 51601 C 4884.78 -3.54509 -0.632071 0
M  V30 51602 C 4884.63 -4.45612 0.612337 0
M  V30 51603 C 4885.95 -4.15426 -1.4529 0
M  V30 51604 H 4883.07 -0.72964 -0.103895 0
M  V30 51605 H 4885.71 -1.85059 0.430492 0
M  V30 51606 H 4883.86 -3.67983 -1.24582 0
M  V30 51607 H 4885.53 -4.44022 1.25069 0
M  V30 51608 H 4883.78 -4.15617 1.24279 0
M  V30 51609 H 4884.45 -5.51021 0.328573 0
M  V30 51610 H 4886.92 -4.05478 -0.934188 0
M  V30 51611 H 4885.8 -5.23163 -1.66108 0
M  V30 51612 H 4886.06 -3.68232 -2.44658 0
M  V30 51613 N 4885.12 -0.0435168 -1.5754 0
M  V30 51614 C 4886.37 0.631387 -1.91563 0
M  V30 51615 C 4886.68 1.72454 -0.92298 0
M  V30 51616 O 4887.89 2.45708 -1.15498 0
M  V30 51617 C 4886.34 1.17435 -3.40202 0
M  V30 51618 C 4885.95 0.11371 -4.47856 0
M  V30 51619 C 4887.7 1.82493 -3.83271 0
M  V30 51620 C 4885.6 0.669119 -5.87603 0
M  V30 51621 H 4884.53 0.239604 -0.714917 0
M  V30 51622 H 4887.18 -0.111162 -1.83163 0
M  V30 51623 H 4885.57 1.96897 -3.43581 0
M  V30 51624 H 4886.74 -0.659508 -4.56056 0
M  V30 51625 H 4885.06 -0.438966 -4.1408 0
M  V30 51626 H 4887.65 2.2503 -4.85042 0
M  V30 51627 H 4888 2.67354 -3.19104 0
M  V30 51628 H 4888.53 1.09699 -3.82375 0
M  V30 51629 H 4885.27 -0.14168 -6.55347 0
M  V30 51630 H 4884.79 1.4105 -5.82979 0
M  V30 51631 H 4886.47 1.1544 -6.36618 0
M  V30 51632 N 4886.6 1.55916 0.229791 0
M  V30 51633 C 4887.84 1.80317 0.962551 0
M  V30 51634 C 4888.2 0.615744 1.81859 0
M  V30 51635 O 4889.4 0.738886 2.58445 0
M  V30 51636 C 4887.67 3.09566 1.78616 0
M  V30 51637 S 4889.23 3.55252 2.57568 0
M  V30 51638 H 4886.05 0.633154 0.323477 0
M  V30 51639 H 4888.65 1.94156 0.22885 0
M  V30 51640 H 4887.36 3.94038 1.14728 0
M  V30 51641 H 4886.89 2.98512 2.56231 0
M  V30 51642 H 4888.9 3.17938 3.80959 0
M  V30 51643 N 4888.08 -0.496163 1.49586 0
M  V30 51644 C 4889.3 -1.27388 1.63033 0
M  V30 51645 C 4889.72 -1.86342 0.303634 0
M  V30 51646 O 4889.08 -1.6806 -0.711487 0
M  V30 51647 C 4889.13 -2.40067 2.70277 0
M  V30 51648 O 4888.85 -1.83535 3.97802 0
M  V30 51649 C 4890.35 -3.31361 2.94473 0
M  V30 51650 H 4887.57 -0.386191 0.548723 0
M  V30 51651 H 4890.11 -0.595095 1.9565 0
M  V30 51652 H 4888.27 -3.03767 2.40426 0
M  V30 51653 H 4888.68 -2.57545 4.56914 0
M  V30 51654 H 4890.16 -4.06694 3.73235 0
M  V30 51655 H 4890.63 -3.88647 2.04574 0
M  V30 51656 H 4891.24 -2.73423 3.2576 0
M  V30 51657 N 4889.55 -1.38742 -0.747561 0
M  V30 51658 C 4890.78 -1.38707 -1.54192 0
M  V30 51659 C 4891.2 0.0195978 -1.8809 0
M  V30 51660 O 4890.56 1.00328 -1.5101 0
M  V30 51661 C 4890.61 -2.25501 -2.81392 0
M  V30 51662 O 4889.71 -1.67626 -3.76796 0
M  V30 51663 H 4889.06 -0.472879 -0.466134 0
M  V30 51664 H 4891.59 -1.8258 -0.923348 0
M  V30 51665 H 4891.6 -2.39573 -3.30256 0
M  V30 51666 H 4890.27 -3.27736 -2.5605 0
M  V30 51667 H 4888.85 -1.62729 -3.3552 0
M  V30 51668 N 4891.03 0.976398 -1.2371 0
M  V30 51669 C 4891.94 2.10356 -1.03864 0
M  V30 51670 C 4892.96 1.73991 0.0180308 0
M  V30 51671 O 4894.13 2.00609 -0.178282 0
M  V30 51672 C 4891.2 3.40807 -0.636507 0
M  V30 51673 C 4890.26 3.91173 -1.76867 0
M  V30 51674 C 4889.49 5.15399 -1.38564 0
M  V30 51675 O 4889.72 5.69753 -0.27162 0
M  V30 51676 O 4888.65 5.59932 -2.20816 0
M  V30 51677 H 4892.48 2.2999 -1.98339 0
M  V30 51678 H 4890.06 1.08738 -1.02451 0
M  V30 51679 H 4891.94 4.19268 -0.42337 0
M  V30 51680 H 4890.62 3.22494 0.279209 0
M  V30 51681 H 4889.53 3.13812 -2.03649 0
M  V30 51682 H 4890.86 4.13948 -2.66285 0
M  V30 51683 N 4892.51 1.04945 1.17577 0
M  V30 51684 C 4893.79 0.671982 1.83695 0
M  V30 51685 C 4894.17 -0.847861 1.93325 0
M  V30 51686 O 4893.52 -1.75282 1.46589 0
M  V30 51687 C 4893.73 1.35809 3.21492 0
M  V30 51688 C 4895.07 1.49454 3.97428 0
M  V30 51689 O 4896.1 1.3169 3.30963 0
M  V30 51690 O 4894.96 1.78482 5.16533 0
M  V30 51691 H 4892.05 0.23624 0.79254 0
M  V30 51692 H 4894.6 1.14889 1.24895 0
M  V30 51693 H 4893.37 2.39509 3.09437 0
M  V30 51694 H 4892.99 0.870372 3.87957 0
M  V30 51695 N 4893.99 -1.33965 0.830128 0
M  V30 51696 C 4894.92 -2.27302 0.202262 0
M  V30 51697 C 4895.9 -1.49237 -0.645528 0
M  V30 51698 O 4897.08 -1.78436 -0.6077 0
M  V30 51699 C 4894.21 -3.31028 -0.716816 0
M  V30 51700 C 4893.26 -4.26465 0.0543771 0
M  V30 51701 S 4894.09 -5.16702 1.4064 0
M  V30 51702 C 4895.25 -6.2396 0.492387 0
M  V30 51703 H 4895.48 -2.80207 0.993559 0
M  V30 51704 H 4893.01 -1.41122 0.626408 0
M  V30 51705 H 4894.97 -3.91276 -1.24151 0
M  V30 51706 H 4893.63 -2.76956 -1.4817 0
M  V30 51707 H 4892.82 -4.99861 -0.64461 0
M  V30 51708 H 4892.43 -3.70508 0.509852 0
M  V30 51709 H 4894.72 -6.76776 -0.313232 0
M  V30 51710 H 4895.66 -6.97923 1.19624 0
M  V30 51711 H 4896.07 -5.64447 0.077616 0
M  V30 51712 N 4895.47 -0.585751 -1.4631 0
M  V30 51713 C 4896.4 0.133475 -2.33118 0
M  V30 51714 C 4897.38 0.880656 -1.45528 0
M  V30 51715 O 4898.56 0.855518 -1.7434 0
M  V30 51716 C 4895.69 1.14573 -3.27857 0
M  V30 51717 C 4894.65 0.513191 -4.24912 0
M  V30 51718 C 4893.97 1.63213 -5.09181 0
M  V30 51719 C 4895.27 -0.551596 -5.19379 0
M  V30 51720 H 4896.97 -0.591313 -2.93503 0
M  V30 51721 H 4894.51 -0.28581 -1.41135 0
M  V30 51722 H 4896.47 1.65727 -3.87443 0
M  V30 51723 H 4895.19 1.90083 -2.65586 0
M  V30 51724 H 4893.85 0.022706 -3.66593 0
M  V30 51725 H 4893.5 2.37698 -4.43293 0
M  V30 51726 H 4893.2 1.21453 -5.74911 0
M  V30 51727 H 4894.72 2.14638 -5.71632 0
M  V30 51728 H 4896.14 -0.125005 -5.73164 0
M  V30 51729 H 4894.53 -0.889695 -5.93468 0
M  V30 51730 H 4895.6 -1.43671 -4.63127 0
M  V30 51731 N 4896.95 1.5424 -0.323695 0
M  V30 51732 C 4897.89 2.25815 0.557724 0
M  V30 51733 C 4898.89 1.27229 1.11845 0
M  V30 51734 O 4900.09 1.45005 1.06647 0
M  V30 51735 H 4896.47 0.725327 0.198507 0
M  V30 51736 H 4898.44 2.98322 -0.0682161 0
M  V30 51737 C 4897.19 3.02919 1.7069 0
M  V30 51738 H 4896.51 3.78597 1.28469 0
M  V30 51739 H 4897.95 3.56246 2.29923 0
M  V30 51740 C 4896.41 2.11227 2.62459 0
M  V30 51741 O 4896.94 1.69521 3.64178 0
M  V30 51742 N 4895.15 1.76712 2.30697 0
M  V30 51743 H 4894.69 2.10825 1.48022 0
M  V30 51744 H 4894.65 1.15641 2.9236 0
M  V30 51745 N 4898.42 0.0518709 1.57515 0
M  V30 51746 C 4899.83 -0.483723 1.80325 0
M  V30 51747 C 4900.19 -1.70875 0.964159 0
M  V30 51748 O 4899.31 -2.15642 0.180948 0
M  V30 51749 C 4899.91 -0.884344 3.27055 0
M  V30 51750 C 4898.46 -1.36491 3.50781 0
M  V30 51751 C 4897.61 -0.340443 2.75202 0
M  V30 51752 H 4900.56 0.277746 1.56251 0
M  V30 51753 H 4900.58 -1.74721 3.38013 0
M  V30 51754 H 4900.1 0.00744737 3.88099 0
M  V30 51755 H 4898.2 -2.27587 2.95017 0
M  V30 51756 H 4898.31 -1.35659 4.59493 0
M  V30 51757 H 4896.67 -0.813475 2.4136 0
M  V30 51758 H 4897.46 0.543275 3.38974 0
M  V30 51759 N 4899.9 -1.56035 -0.221519 0
M  V30 51760 C 4900.85 -1.93274 -1.29414 0
M  V30 51761 C 4901.84 -0.814779 -1.48518 0
M  V30 51762 O 4903.05 -0.999612 -1.49692 0
M  V30 51763 H 4899.42 -0.614203 -0.433888 0
M  V30 51764 H 4901.4 -2.82777 -0.952887 0
M  V30 51765 C 4900.14 -2.26582 -2.63734 0
M  V30 51766 H 4899.47 -3.1212 -2.49842 0
M  V30 51767 H 4900.91 -2.56522 -3.37598 0
M  V30 51768 C 4899.37 -1.09097 -3.18747 0
M  V30 51769 O 4899.9 -0.352126 -4.00154 0
M  V30 51770 N 4898.1 -0.87479 -2.77121 0
M  V30 51771 H 4897.65 -1.47734 -2.11027 0
M  V30 51772 H 4897.61 -0.0904454 -3.1427 0
M  V30 51773 N 4901.38 0.488223 -1.49847 0
M  V30 51774 C 4902.61 1.26338 -1.63469 0
M  V30 51775 C 4903.02 1.86636 -0.310444 0
M  V30 51776 O 4902.36 1.69187 0.715653 0
M  V30 51777 C 4902.42 2.42398 -2.65487 0
M  V30 51778 C 4902.09 2.02871 -4.09502 0
M  V30 51779 C 4903.08 1.56107 -4.9591 0
M  V30 51780 C 4900.77 2.12115 -4.55316 0
M  V30 51781 C 4902.76 1.19107 -6.26173 0
M  V30 51782 C 4900.45 1.74727 -5.85588 0
M  V30 51783 C 4901.45 1.28299 -6.70842 0
M  V30 51784 O 4901.14 0.91421 -7.98685 0
M  V30 51785 H 4900.87 0.388901 -0.55293 0
M  V30 51786 H 4903.42 0.591219 -1.96707 0
M  V30 51787 H 4901.65 3.12731 -2.27456 0
M  V30 51788 H 4903.34 3.044 -2.68506 0
M  V30 51789 H 4904.11 1.48401 -4.61738 0
M  V30 51790 H 4899.99 2.47204 -3.89116 0
M  V30 51791 H 4903.53 0.827967 -6.92669 0
M  V30 51792 H 4899.43 1.82087 -6.19286 0
M  V30 51793 H 4900.19 1.04457 -8.11807 0
M  V30 51794 N 4902.86 1.39136 0.740193 0
M  V30 51795 C 4903.77 1.39704 1.88468 0
M  V30 51796 C 4904.78 0.292464 1.71524 0
M  V30 51797 O 4905.96 0.533089 1.94217 0
M  V30 51798 C 4903.02 1.23393 3.23999 0
M  V30 51799 C 4902.09 2.43775 3.53372 0
M  V30 51800 C 4901.32 2.28233 4.82437 0
M  V30 51801 O 4901.54 1.28307 5.55782 0
M  V30 51802 O 4900.48 3.17108 5.11592 0
M  V30 51803 H 4904.3 2.36166 1.90944 0
M  V30 51804 H 4901.89 1.20197 0.887304 0
M  V30 51805 H 4903.77 1.16409 4.05002 0
M  V30 51806 H 4902.44 0.300234 3.22305 0
M  V30 51807 H 4901.35 2.56335 2.72476 0
M  V30 51808 H 4902.68 3.35821 3.5984 0
M  V30 51809 N 4904.34 -0.969824 1.24226 0
M  V30 51810 C 4905.61 -1.68771 0.988723 0
M  V30 51811 C 4905.99 -2.05344 -0.4896 0
M  V30 51812 O 4905.34 -1.75492 -1.46339 0
M  V30 51813 C 4905.55 -2.92128 1.90951 0
M  V30 51814 C 4906.9 -3.64414 2.17916 0
M  V30 51815 O 4907.92 -3.02181 1.88587 0
M  V30 51816 O 4906.78 -4.76436 2.67714 0
M  V30 51817 H 4903.88 -0.737723 0.373756 0
M  V30 51818 H 4906.42 -1.0241 1.35315 0
M  V30 51819 H 4905.19 -2.61778 2.9084 0
M  V30 51820 H 4904.82 -3.66223 1.54811 0
M  V30 51821 N 4905.81 -1.05567 -1.17018 0
M  V30 51822 C 4906.74 -0.681104 -2.23346 0
M  V30 51823 C 4907.72 0.322924 -1.67007 0
M  V30 51824 O 4908.91 0.199679 -1.93171 0
M  V30 51825 C 4906.04 -0.0590274 -3.4725 0
M  V30 51826 C 4904.99 -0.988228 -4.16435 0
M  V30 51827 C 4904.32 -0.229834 -5.34206 0
M  V30 51828 C 4905.62 -2.31405 -4.68241 0
M  V30 51829 H 4907.31 -1.57002 -2.54933 0
M  V30 51830 H 4904.86 -0.756345 -1.22537 0
M  V30 51831 H 4906.81 0.214834 -4.20852 0
M  V30 51832 H 4905.54 0.864858 -3.14941 0
M  V30 51833 H 4904.2 -1.24672 -3.4475 0
M  V30 51834 H 4903.84 0.696936 -4.98148 0
M  V30 51835 H 4903.54 -0.849019 -5.81434 0
M  V30 51836 H 4905.07 0.0366548 -6.10589 0
M  V30 51837 H 4906.48 -2.09982 -5.33461 0
M  V30 51838 H 4904.88 -2.88754 -5.26062 0
M  V30 51839 H 4905.95 -2.94995 -3.84845 0
M  V30 51840 N 4907.29 1.33523 -0.837221 0
M  V30 51841 C 4908.22 2.31763 -0.284287 0
M  V30 51842 C 4909.2 1.58898 0.607086 0
M  V30 51843 O 4910.39 1.868 0.530982 0
M  V30 51844 C 4907.52 3.43031 0.542841 0
M  V30 51845 C 4906.47 4.27254 -0.252601 0
M  V30 51846 C 4905.8 5.30122 0.698173 0
M  V30 51847 C 4907.1 5.01223 -1.46875 0
M  V30 51848 H 4908.79 2.78258 -1.10512 0
M  V30 51849 H 4906.34 1.33778 -0.532859 0
M  V30 51850 H 4908.29 4.10783 0.939952 0
M  V30 51851 H 4907.01 2.95221 1.39687 0
M  V30 51852 H 4905.67 3.61124 -0.631251 0
M  V30 51853 H 4905.32 4.7857 1.54855 0
M  V30 51854 H 4905.02 5.87354 0.170068 0
M  V30 51855 H 4906.55 6.00741 1.09283 0
M  V30 51856 H 4907.96 5.61752 -1.14489 0
M  V30 51857 H 4906.36 5.68098 -1.93353 0
M  V30 51858 H 4907.43 4.30092 -2.2394 0
M  V30 51859 N 4908.77 0.593501 1.45998 0
M  V30 51860 C 4910.02 0.0808793 2.01538 0
M  V30 51861 C 4910.33 -1.29107 1.46938 0
M  V30 51862 O 4911.54 -1.89563 1.94366 0
M  V30 51863 C 4909.99 0.0939576 3.59777 0
M  V30 51864 C 4909.6 1.46488 4.23374 0
M  V30 51865 C 4911.35 -0.364157 4.22935 0
M  V30 51866 C 4909.25 1.43511 5.73723 0
M  V30 51867 H 4908.18 0.0264672 0.753535 0
M  V30 51868 H 4910.83 0.746748 1.67618 0
M  V30 51869 H 4909.22 -0.63829 3.90822 0
M  V30 51870 H 4910.39 2.21772 4.03923 0
M  V30 51871 H 4908.71 1.86392 3.72353 0
M  V30 51872 H 4911.3 -0.405397 5.33161 0
M  V30 51873 H 4911.65 -1.38395 3.92623 0
M  V30 51874 H 4912.18 0.31437 3.96556 0
M  V30 51875 H 4908.92 2.43205 6.08713 0
M  V30 51876 H 4908.44 0.724641 5.95407 0
M  V30 51877 H 4910.12 1.15265 6.3665 0
M  V30 51878 N 4910.25 -1.54066 0.33187 0
M  V30 51879 C 4911.66 -1.59587 -0.0204827 0
M  V30 51880 C 4911.86 -1.34818 -1.49754 0
M  V30 51881 O 4910.92 -1.13669 -2.25467 0
M  V30 51882 C 4912.23 -2.97957 0.405207 0
M  V30 51883 C 4913.78 -3.10962 0.356563 0
M  V30 51884 C 4914.26 -4.51692 0.757542 0
M  V30 51885 N 4915.75 -4.57706 0.711271 0
M  V30 51886 C 4916.48 -5.64725 0.993626 0
M  V30 51887 N 4915.98 -6.79648 1.34354 0
M  V30 51888 N 4917.77 -5.54543 0.918637 0
M  V30 51889 H 4909.92 -1.68422 1.29413 0
M  V30 51890 H 4912.19 -0.788171 0.526773 0
M  V30 51891 H 4911.89 -3.2111 1.43463 0
M  V30 51892 H 4911.77 -3.76525 -0.22556 0
M  V30 51893 H 4914.15 -2.87541 -0.663662 0
M  V30 51894 H 4914.23 -2.3448 1.02238 0
M  V30 51895 H 4913.88 -4.75847 1.77572 0
M  V30 51896 H 4913.81 -5.26554 0.0693295 0
M  V30 51897 H 4916.3 -3.75175 0.453015 0
M  V30 51898 H 4916.61 -7.57216 1.54415 0
M  V30 51899 H 4914.96 -6.81123 1.38188 0
M  V30 51900 H 4918.15 -4.63639 0.644699 0
M  V30 51901 H 4918.32 -6.37857 1.14204 0
M  V30 51902 N 4911.73 -0.0602235 -1.57485 0
M  V30 51903 C 4912.67 0.911045 -2.12058 0
M  V30 51904 C 4913.64 1.30294 -1.03018 0
M  V30 51905 O 4914.83 1.39082 -1.30617 0
M  V30 51906 C 4911.97 2.17741 -2.67737 0
M  V30 51907 C 4911.08 1.83919 -3.90894 0
M  V30 51908 C 4910.22 3.05081 -4.34855 0
M  V30 51909 C 4909.26 2.67222 -5.50689 0
M  V30 51910 N 4908.39 3.81106 -5.89663 0
M  V30 51911 H 4913.23 0.438777 -2.94752 0
M  V30 51912 H 4910.77 0.204944 -1.45665 0
M  V30 51913 H 4912.73 2.91855 -2.98121 0
M  V30 51914 H 4911.36 2.62529 -1.87826 0
M  V30 51915 H 4910.41 0.999158 -3.67044 0
M  V30 51916 H 4911.72 1.52058 -4.75058 0
M  V30 51917 H 4910.88 3.87485 -4.6684 0
M  V30 51918 H 4909.61 3.40127 -3.49521 0
M  V30 51919 H 4908.62 1.83236 -5.18367 0
M  V30 51920 H 4909.84 2.33358 -6.37747 0
M  V30 51921 H 4907.79 4.15936 -5.0728 0
M  V30 51922 H 4907.71 3.52974 -6.6854 0
M  V30 51923 H 4908.98 4.64123 -6.26267 0
M  V30 51924 N 4913.2 1.56151 0.213241 0
M  V30 51925 C 4914.43 1.83989 0.957218 0
M  V30 51926 C 4914.85 0.641588 1.7682 0
M  V30 51927 O 4914.21 -0.40966 1.76611 0
M  V30 51928 C 4914.26 3.09896 1.84382 0
M  V30 51929 O 4913.36 2.89174 2.94028 0
M  V30 51930 H 4912.71 0.606366 0.270584 0
M  V30 51931 H 4915.24 2.0337 0.22404 0
M  V30 51932 H 4915.25 3.40217 2.25203 0
M  V30 51933 H 4913.92 3.9674 1.24781 0
M  V30 51934 H 4912.5 2.70106 2.57094 0
M  V30 51935 N 4914.68 -0.48027 1.50104 0
M  V30 51936 C 4915.63 -1.60018 1.68811 0
M  V30 51937 C 4916.62 -1.60087 0.553944 0
M  V30 51938 O 4917.83 -1.64346 0.734184 0
M  V30 51939 H 4914.21 -0.530822 0.532665 0
M  V30 51940 H 4916.18 -1.41399 2.62772 0
M  V30 51941 C 4914.93 -2.98023 1.79102 0
M  V30 51942 H 4914.25 -2.98684 2.65759 0
M  V30 51943 H 4915.69 -3.75864 1.9622 0
M  V30 51944 C 4914.15 -3.32536 0.540505 0
M  V30 51945 O 4914.68 -4.00387 -0.324496 0
M  V30 51946 N 4912.88 -2.87872 0.397255 0
M  V30 51947 H 4912.43 -2.3283 1.10218 0
M  V30 51948 H 4912.39 -3.1133 -0.438315 0
M  V30 51949 N 4916.16 -1.39527 -0.732804 0
M  V30 51950 C 4917.11 -1.34912 -1.83801 0
M  V30 51951 C 4918.09 -0.229602 -1.59253 0
M  V30 51952 O 4919.29 -0.467315 -1.7072 0
M  V30 51953 C 4916.42 -1.1971 -3.21752 0
M  V30 51954 C 4915.5 -2.36371 -3.52121 0
M  V30 51955 N 4915.89 -3.61846 -3.53413 0
M  V30 51956 C 4914.19 -2.29376 -3.82495 0
M  V30 51957 C 4914.89 -4.39005 -3.8164 0
M  V30 51958 N 4913.87 -3.6862 -3.99525 0
M  V30 51959 H 4917.67 -2.29888 -1.83108 0
M  V30 51960 H 4915.18 -1.33054 -0.931147 0
M  V30 51961 H 4917.18 -1.14486 -4.00872 0
M  V30 51962 H 4915.84 -0.256853 -3.23682 0
M  V30 51963 H 4916.85 -3.9524 -3.34673 0
M  V30 51964 H 4913.53 -1.43625 -3.92018 0
M  V30 51965 H 4914.92 -5.47777 -3.89089 0
M  V30 51966 N 4917.64 0.963222 -1.24739 0
M  V30 51967 C 4918.59 2.07982 -1.04146 0
M  V30 51968 C 4919.58 1.69382 0.024996 0
M  V30 51969 O 4920.79 1.7953 -0.129926 0
M  V30 51970 H 4917.16 0.680615 -0.319792 0
M  V30 51971 H 4919.13 2.2251 -1.98826 0
M  V30 51972 C 4917.88 3.41228 -0.667735 0
M  V30 51973 H 4917.2 3.71392 -1.48013 0
M  V30 51974 H 4918.64 4.20242 -0.563284 0
M  V30 51975 C 4917.1 3.31042 0.62553 0
M  V30 51976 O 4917.63 3.6534 1.67003 0
M  V30 51977 N 4915.84 2.8417 0.607933 0
M  V30 51978 H 4915.39 2.56457 -0.242413 0
M  V30 51979 H 4915.34 2.77737 1.47342 0
M  V30 51980 N 4919.12 1.06186 1.16457 0
M  V30 51981 C 4920.36 0.777928 1.86961 0
M  V30 51982 C 4920.69 -0.695538 1.81638 0
M  V30 51983 O 4919.95 -1.52528 1.22612 0
M  V30 51984 C 4920.25 1.21645 3.36061 0
M  V30 51985 C 4919.91 2.69384 3.61584 0
M  V30 51986 C 4918.57 3.0974 3.68259 0
M  V30 51987 C 4920.93 3.64804 3.72247 0
M  V30 51988 C 4918.25 4.44358 3.83096 0
M  V30 51989 C 4920.61 4.99168 3.88605 0
M  V30 51990 C 4919.27 5.39163 3.93522 0
M  V30 51991 H 4918.54 0.284664 0.68414 0
M  V30 51992 H 4921.19 1.33076 1.37706 0
M  V30 51993 H 4919.49 0.582787 3.87441 0
M  V30 51994 H 4921.19 0.973819 3.88996 0
M  V30 51995 H 4917.78 2.37137 3.57021 0
M  V30 51996 H 4921.96 3.34759 3.66401 0
M  V30 51997 H 4917.22 4.74832 3.85155 0
M  V30 51998 H 4921.39 5.7299 3.95797 0
M  V30 51999 H 4919.02 6.43478 4.04771 0
M  V30 52000 N 4920.59 -1.33077 0.84429 0
M  V30 52001 C 4921.52 -2.31609 0.296574 0
M  V30 52002 C 4922.51 -1.59217 -0.598651 0
M  V30 52003 O 4923.69 -1.87079 -0.521068 0
M  V30 52004 C 4920.82 -3.43314 -0.524642 0
M  V30 52005 C 4919.77 -4.27114 0.275256 0
M  V30 52006 C 4919.1 -5.30485 -0.67005 0
M  V30 52007 C 4920.4 -5.00438 1.49531 0
M  V30 52008 H 4922.09 -2.77668 1.11986 0
M  V30 52009 H 4919.64 -1.33494 0.539946 0
M  V30 52010 H 4921.59 -4.11276 -0.918154 0
M  V30 52011 H 4920.32 -2.95957 -1.38119 0
M  V30 52012 H 4918.98 -3.60784 0.650394 0
M  V30 52013 H 4918.62 -4.79384 -1.52315 0
M  V30 52014 H 4918.32 -5.87436 -0.138916 0
M  V30 52015 H 4919.85 -6.01312 -1.06096 0
M  V30 52016 H 4921.26 -5.61137 1.17466 0
M  V30 52017 H 4919.66 -5.67064 1.96363 0
M  V30 52018 H 4920.73 -4.28898 2.26217 0
M  V30 52019 N 4922.07 -0.601236 -1.45681 0
M  V30 52020 C 4923.32 -0.0940914 -2.02582 0
M  V30 52021 C 4923.65 1.26967 -1.46946 0
M  V30 52022 O 4922.93 1.8361 -0.641677 0
M  V30 52023 C 4923.21 -0.0482981 -3.60068 0
M  V30 52024 C 4923.06 -1.44227 -4.2605 0
M  V30 52025 C 4924.38 0.642822 -4.3538 0
M  V30 52026 H 4921.5 -0.0356663 -0.736136 0
M  V30 52027 H 4924.14 -0.77199 -1.7361 0
M  V30 52028 H 4922.29 0.528993 -3.84882 0
M  V30 52029 H 4923.96 -2.06615 -4.12441 0
M  V30 52030 H 4922.21 -2.00479 -3.84696 0
M  V30 52031 H 4922.88 -1.36253 -5.3492 0
M  V30 52032 H 4925.35 0.152205 -4.15822 0
M  V30 52033 H 4924.23 0.64395 -5.4511 0
M  V30 52034 H 4924.49 1.70771 -4.07786 0
M  V30 52035 N 4923.55 1.53888 -0.340036 0
M  V30 52036 C 4924.48 2.22437 0.552672 0
M  V30 52037 C 4925.5 1.22979 1.06677 0
M  V30 52038 O 4926.69 1.49354 0.977522 0
M  V30 52039 C 4923.79 2.88826 1.77292 0
M  V30 52040 C 4922.96 4.14568 1.39471 0
M  V30 52041 C 4922.02 4.644 2.47426 0
M  V30 52042 O 4921.04 5.28695 2.1088 0
M  V30 52043 N 4922.25 4.40028 3.78623 0
M  V30 52044 H 4925.01 2.9968 -0.0343723 0
M  V30 52045 H 4922.57 1.61067 -0.163997 0
M  V30 52046 H 4924.56 3.19081 2.48937 0
M  V30 52047 H 4923.13 2.1519 2.26742 0
M  V30 52048 H 4922.35 3.90898 0.509184 0
M  V30 52049 H 4923.64 4.96366 1.11795 0
M  V30 52050 H 4923.04 3.886 4.11104 0
M  V30 52051 H 4921.6 4.74897 4.46448 0
M  V30 52052 N 4925.03 0.0685745 1.57451 0
M  V30 52053 C 4925.99 -0.885099 2.11421 0
M  V30 52054 C 4926.99 -1.2285 1.03753 0
M  V30 52055 O 4928.18 -1.1623 1.29754 0
M  V30 52056 C 4925.31 -2.18955 2.61288 0
M  V30 52057 H 4926.51 -0.416929 2.96988 0
M  V30 52058 H 4924.06 -0.180086 1.55259 0
M  V30 52059 H 4924.8 -2.70315 1.79165 0
M  V30 52060 H 4924.58 -1.95328 3.39984 0
M  V30 52061 H 4926.07 -2.87232 3.0313 0
M  V30 52062 N 4926.51 -1.56262 -0.204957 0
M  V30 52063 C 4927.76 -1.79687 -0.925033 0
M  V30 52064 C 4928.08 -0.639955 -1.842 0
M  V30 52065 O 4927.35 0.342277 -1.92887 0
M  V30 52066 H 4925.93 -0.662786 -0.344563 0
M  V30 52067 H 4928.59 -1.93734 -0.212831 0
M  V30 52068 H 4927.68 -2.72472 -1.52202 0
M  V30 52069 N 4927.99 0.472303 -1.50356 0
M  V30 52070 C 4928.93 1.5912 -1.69657 0
M  V30 52071 C 4929.93 1.59791 -0.562426 0
M  V30 52072 O 4931.13 1.63955 -0.74289 0
M  V30 52073 H 4927.51 0.52799 -0.535473 0
M  V30 52074 H 4929.48 1.40003 -2.63518 0
M  V30 52075 C 4928.23 2.97069 -1.8068 0
M  V30 52076 H 4927.55 2.97271 -2.67339 0
M  V30 52077 H 4928.99 3.74818 -1.9821 0
M  V30 52078 C 4927.45 3.32245 -0.558133 0
M  V30 52079 O 4927.98 4.00554 0.303258 0
M  V30 52080 N 4926.19 2.87657 -0.412516 0
M  V30 52081 H 4925.73 2.32242 -1.11452 0
M  V30 52082 H 4925.69 3.11558 0.421798 0
M  V30 52083 N 4929.46 1.39914 0.725394 0
M  V30 52084 C 4930.71 1.37864 1.48733 0
M  V30 52085 C 4931.04 -0.0223504 1.94187 0
M  V30 52086 O 4930.32 -0.989145 1.6747 0
M  V30 52087 C 4930.6 2.35949 2.72029 0
M  V30 52088 C 4930.45 3.85031 2.32532 0
M  V30 52089 C 4931.77 2.31717 3.74159 0
M  V30 52090 H 4928.89 0.502093 0.53951 0
M  V30 52091 H 4931.53 1.70977 0.828667 0
M  V30 52092 H 4929.68 2.07842 3.28229 0
M  V30 52093 H 4931.36 4.23926 1.8189 0
M  V30 52094 H 4929.6 4.0134 1.64647 0
M  V30 52095 H 4930.27 4.49163 3.20869 0
M  V30 52096 H 4932.75 2.56592 3.27567 0
M  V30 52097 H 4931.62 3.02411 4.58081 0
M  V30 52098 H 4931.88 1.32545 4.21763 0
M  V30 52099 N 4930.94 -0.956593 1.25248 0
M  V30 52100 C 4931.87 -2.05624 1.01249 0
M  V30 52101 C 4932.89 -1.62785 -0.0219007 0
M  V30 52102 O 4934.08 -1.77183 0.216428 0
M  V30 52103 C 4931.18 -3.35067 0.508279 0
M  V30 52104 C 4930.35 -4.06756 1.60837 0
M  V30 52105 C 4929.41 -5.1447 1.10488 0
M  V30 52106 O 4928.43 -5.40027 1.79887 0
M  V30 52107 N 4929.64 -5.80474 -0.0548733 0
M  V30 52108 H 4932.4 -2.26783 1.95933 0
M  V30 52109 H 4929.96 -1.12501 1.16427 0
M  V30 52110 H 4931.95 -4.04399 0.155961 0
M  V30 52111 H 4930.52 -3.10695 -0.344574 0
M  V30 52112 H 4929.74 -3.31548 2.13236 0
M  V30 52113 H 4931.03 -4.51409 2.34749 0
M  V30 52114 H 4930.43 -5.62127 -0.634806 0
M  V30 52115 H 4928.99 -6.50869 -0.34824 0
M  V30 52116 N 4932.42 -1.06802 -1.15892 0
M  V30 52117 C 4933.35 -0.704755 -2.22611 0
M  V30 52118 C 4934.33 0.305193 -1.6734 0
M  V30 52119 O 4935.52 0.179179 -1.93372 0
M  V30 52120 C 4932.65 -0.0958545 -3.47168 0
M  V30 52121 C 4931.6 -1.03234 -4.15363 0
M  V30 52122 C 4930.93 -0.28648 -5.33932 0
M  V30 52123 C 4932.23 -2.36358 -4.6576 0
M  V30 52124 H 4933.92 -1.59697 -2.53253 0
M  V30 52125 H 4931.47 -0.7693 -1.21728 0
M  V30 52126 H 4933.42 0.170185 -4.21056 0
M  V30 52127 H 4932.14 0.831405 -3.1584 0
M  V30 52128 H 4930.8 -1.28321 -3.43408 0
M  V30 52129 H 4930.45 0.644062 -4.9886 0
M  V30 52130 H 4930.15 -0.910641 -5.80501 0
M  V30 52131 H 4931.67 -0.0281084 -6.10594 0
M  V30 52132 H 4933.09 -2.15629 -5.31204 0
M  V30 52133 H 4931.48 -2.94318 -5.2297 0
M  V30 52134 H 4932.55 -2.99061 -3.81695 0
M  V30 52135 N 4933.9 1.32627 -0.851335 0
M  V30 52136 C 4935.31 1.5016 -0.540753 0
M  V30 52137 C 4935.51 1.78791 0.929306 0
M  V30 52138 O 4934.57 1.85551 1.71251 0
M  V30 52139 C 4935.88 2.64798 -1.42487 0
M  V30 52140 C 4937.43 2.78683 -1.42495 0
M  V30 52141 C 4937.91 3.96396 -2.29421 0
M  V30 52142 N 4939.4 4.03652 -2.27198 0
M  V30 52143 C 4940.13 4.93961 -2.91188 0
M  V30 52144 N 4939.63 5.893 -3.64277 0
M  V30 52145 N 4941.42 4.87057 -2.80593 0
M  V30 52146 H 4933.57 1.12308 -1.80279 0
M  V30 52147 H 4935.83 0.553239 -0.769825 0
M  V30 52148 H 4935.54 2.5036 -2.47008 0
M  V30 52149 H 4935.41 3.60502 -1.10987 0
M  V30 52150 H 4937.8 2.92546 -0.387406 0
M  V30 52151 H 4937.88 1.83702 -1.78009 0
M  V30 52152 H 4937.53 3.83292 -3.33241 0
M  V30 52153 H 4937.46 4.90647 -1.91241 0
M  V30 52154 H 4939.95 3.35429 -1.74057 0
M  V30 52155 H 4940.26 6.54898 -4.10278 0
M  V30 52156 H 4938.61 5.89337 -3.68385 0
M  V30 52157 H 4941.8 4.11544 -2.23046 0
M  V30 52158 H 4941.97 5.57236 -3.30745 0
M  V30 52159 N 4935.38 0.608953 1.4536 0
M  V30 52160 C 4936.62 0.104833 2.02529 0
M  V30 52161 C 4936.95 -1.26186 1.47617 0
M  V30 52162 O 4936.23 -1.83267 0.651405 0
M  V30 52163 C 4936.51 0.0673927 3.60037 0
M  V30 52164 C 4936.37 1.46485 4.25279 0
M  V30 52165 C 4937.68 -0.619724 4.35715 0
M  V30 52166 H 4934.8 0.0395697 0.735937 0
M  V30 52167 H 4937.45 0.781186 1.73198 0
M  V30 52168 H 4935.6 -0.508574 3.85157 0
M  V30 52169 H 4937.27 2.088 4.1134 0
M  V30 52170 H 4935.51 2.02516 3.83627 0
M  V30 52171 H 4936.18 1.39088 5.3419 0
M  V30 52172 H 4938.66 -0.130151 4.15896 0
M  V30 52173 H 4937.53 -0.615032 5.45443 0
M  V30 52174 H 4937.79 -1.68606 4.08686 0
M  V30 52175 N 4936.85 -1.53705 0.348193 0
M  V30 52176 C 4938.1 -2.00171 -0.247921 0
M  V30 52177 C 4938.42 -1.23988 -1.51282 0
M  V30 52178 O 4939.62 -1.60953 -2.18646 0
M  V30 52179 C 4938.08 -3.56517 -0.492333 0
M  V30 52180 C 4937.69 -4.41559 0.756932 0
M  V30 52181 C 4939.43 -4.11384 -1.04705 0
M  V30 52182 C 4937.34 -5.89424 0.483063 0
M  V30 52183 H 4936.27 -0.74781 -0.0964189 0
M  V30 52184 H 4938.92 -1.7753 0.464242 0
M  V30 52185 H 4937.3 -3.75241 -1.26532 0
M  V30 52186 H 4938.47 -4.3461 1.53137 0
M  V30 52187 H 4936.79 -3.97707 1.23362 0
M  V30 52188 H 4939.39 -5.19472 -1.26698 0
M  V30 52189 H 4939.73 -3.64892 -2.00398 0
M  V30 52190 H 4940.26 -3.9639 -0.334661 0
M  V30 52191 H 4937 -6.40159 1.40984 0
M  V30 52192 H 4936.52 -5.99265 -0.253206 0
M  V30 52193 H 4938.2 -6.4692 0.102043 0
M  V30 52194 N 4938.33 -0.0769235 -1.57412 0
M  V30 52195 C 4939.58 0.58985 -1.93301 0
M  V30 52196 C 4939.9 1.69839 -0.958109 0
M  V30 52197 O 4939.17 1.95899 -0.00710148 0
M  V30 52198 H 4937.75 0.220876 -0.713599 0
M  V30 52199 H 4940.41 -0.135986 -1.94425 0
M  V30 52200 H 4939.51 1.01184 -2.95242 0
M  V30 52201 N 4939.81 1.56368 0.196667 0
M  V30 52202 C 4940.76 1.90824 1.24781 0
M  V30 52203 C 4941.74 0.773769 1.41073 0
M  V30 52204 O 4942.94 1.0366 1.4347 0
M  V30 52205 C 4940.07 2.24991 2.59295 0
M  V30 52206 C 4939.15 3.44891 2.46802 0
M  V30 52207 N 4939.54 4.62842 2.03987 0
M  V30 52208 C 4937.84 3.48998 2.77698 0
M  V30 52209 C 4938.54 5.45 2.03346 0
M  V30 52210 N 4937.52 4.85365 2.4479 0
M  V30 52211 H 4941.32 2.7952 0.908077 0
M  V30 52212 H 4938.83 1.57266 0.405111 0
M  V30 52213 H 4940.83 2.4786 3.35218 0
M  V30 52214 H 4939.49 1.37621 2.94093 0
M  V30 52215 H 4940.5 4.87538 1.74721 0
M  V30 52216 H 4937.18 2.7204 3.16703 0
M  V30 52217 H 4938.57 6.4947 1.72158 0
M  V30 52218 N 4941.29 -0.464322 1.50605 0
M  V30 52219 C 4942.51 -1.24367 1.65975 0
M  V30 52220 C 4942.94 -1.84899 0.345518 0
M  V30 52221 O 4942.3 -1.67599 -0.691398 0
M  V30 52222 C 4942.34 -2.32321 2.75788 0
M  V30 52223 O 4941.45 -3.37137 2.37512 0
M  V30 52224 H 4940.79 -0.365585 0.554296 0
M  V30 52225 H 4943.32 -0.551761 1.9702 0
M  V30 52226 H 4943.33 -2.77529 2.99068 0
M  V30 52227 H 4942 -1.87635 3.71168 0
M  V30 52228 H 4940.58 -2.97594 2.24704 0
M  V30 52229 N 4942.77 -1.40296 -0.717964 0
M  V30 52230 C 4943.7 -1.34773 -1.8415 0
M  V30 52231 C 4944.68 -0.218512 -1.61125 0
M  V30 52232 O 4945.86 -0.401781 -1.84168 0
M  V30 52233 C 4942.99 -1.09687 -3.20447 0
M  V30 52234 C 4942.03 -2.25029 -3.62304 0
M  V30 52235 S 4942.87 -3.8741 -3.69694 0
M  V30 52236 C 4944.02 -3.64583 -5.08753 0
M  V30 52237 H 4944.26 -2.29858 -1.88554 0
M  V30 52238 H 4941.79 -1.26553 -0.88451 0
M  V30 52239 H 4943.75 -0.95899 -3.99141 0
M  V30 52240 H 4942.41 -0.162612 -3.13679 0
M  V30 52241 H 4941.6 -2.03113 -4.6126 0
M  V30 52242 H 4941.2 -2.35109 -2.90861 0
M  V30 52243 H 4943.5 -3.22903 -5.956 0
M  V30 52244 H 4944.44 -4.63062 -5.35704 0
M  V30 52245 H 4944.85 -2.9832 -4.79234 0
M  V30 52246 N 4944.24 0.949938 -1.25754 0
M  V30 52247 C 4945.18 2.05084 -1.02338 0
M  V30 52248 C 4946.19 1.62795 0.0132675 0
M  V30 52249 O 4947.38 1.77066 -0.225821 0
M  V30 52250 C 4944.48 3.34792 -0.526041 0
M  V30 52251 C 4943.65 4.05897 -1.62992 0
M  V30 52252 C 4942.71 5.13876 -1.13214 0
M  V30 52253 O 4941.74 5.39066 -1.82748 0
M  V30 52254 N 4942.94 5.80495 0.0240885 0
M  V30 52255 H 4945.7 2.2574 -1.97133 0
M  V30 52256 H 4943.26 1.11882 -1.17022 0
M  V30 52257 H 4945.26 4.04311 -0.177406 0
M  V30 52258 H 4943.83 3.10873 0.328092 0
M  V30 52259 H 4943.05 3.30412 -2.14991 0
M  V30 52260 H 4944.33 4.50158 -2.37139 0
M  V30 52261 H 4943.73 5.62456 0.604986 0
M  V30 52262 H 4942.29 6.51045 0.313718 0
M  V30 52263 N 4945.72 1.07416 1.15324 0
M  V30 52264 C 4946.67 0.689394 2.22149 0
M  V30 52265 C 4947.66 -0.300098 1.66721 0
M  V30 52266 O 4948.87 -0.163741 1.79254 0
M  V30 52267 H 4945.25 0.204859 0.723558 0
M  V30 52268 H 4947.22 1.59997 2.5188 0
M  V30 52269 C 4945.97 0.10397 3.47545 0
M  V30 52270 H 4945.29 0.856504 3.90518 0
M  V30 52271 H 4946.73 -0.127576 4.23808 0
M  V30 52272 C 4945.19 -1.15552 3.16464 0
M  V30 52273 O 4945.72 -2.24188 3.3332 0
M  V30 52274 N 4943.92 -1.06194 2.70502 0
M  V30 52275 H 4943.47 -0.177843 2.56985 0
M  V30 52276 H 4943.43 -1.90544 2.50081 0
M  V30 52277 N 4947.2 -1.32174 0.858357 0
M  V30 52278 C 4948.44 -1.98926 0.469892 0
M  V30 52279 C 4948.8 -1.66427 -0.957402 0
M  V30 52280 O 4950.01 -2.26298 -1.45061 0
M  V30 52281 C 4948.28 -3.50349 0.706412 0
M  V30 52282 S 4949.84 -4.36823 0.416072 0
M  V30 52283 H 4946.65 -0.688903 0.175879 0
M  V30 52284 H 4949.26 -1.60803 1.11187 0
M  V30 52285 H 4947.96 -3.71491 1.7442 0
M  V30 52286 H 4947.49 -3.93367 0.0509951 0
M  V30 52287 H 4949.51 -4.90401 -0.756409 0
M  V30 52288 N 4948.68 -0.616653 -1.45035 0
M  V30 52289 C 4949.92 -0.115573 -2.0247 0
M  V30 52290 C 4950.26 1.25401 -1.48284 0
M  V30 52291 O 4949.53 1.82919 -0.661115 0
M  V30 52292 C 4949.82 -0.0864854 -3.59996 0
M  V30 52293 C 4949.67 -1.48738 -4.24496 0
M  V30 52294 C 4950.99 0.596608 -4.36037 0
M  V30 52295 H 4948.11 -0.043472 -0.735717 0
M  V30 52296 H 4950.75 -0.790361 -1.72781 0
M  V30 52297 H 4948.9 0.488141 -3.85421 0
M  V30 52298 H 4950.57 -2.10978 -4.10227 0
M  V30 52299 H 4948.81 -2.04548 -3.82548 0
M  V30 52300 H 4949.48 -1.41919 -5.33445 0
M  V30 52301 H 4951.96 0.108093 -4.1596 0
M  V30 52302 H 4950.84 0.586097 -5.45762 0
M  V30 52303 H 4951.1 1.66436 -4.09575 0
M  V30 52304 N 4950.16 1.53519 -0.356339 0
M  V30 52305 C 4951.09 2.28374 0.486581 0
M  V30 52306 C 4952.07 1.30436 1.09181 0
M  V30 52307 O 4953.25 1.59295 1.1108 0
M  V30 52308 C 4950.38 3.0661 1.63119 0
M  V30 52309 C 4949.34 4.12158 1.15367 0
M  V30 52310 C 4948.66 4.78423 2.38779 0
M  V30 52311 C 4949.96 5.21725 0.244996 0
M  V30 52312 H 4951.66 2.99082 -0.137902 0
M  V30 52313 H 4949.2 1.4384 -0.0677639 0
M  V30 52314 H 4951.16 3.5772 2.22743 0
M  V30 52315 H 4949.88 2.33576 2.28276 0
M  V30 52316 H 4948.54 3.6198 0.580167 0
M  V30 52317 H 4948.19 4.0197 3.02372 0
M  V30 52318 H 4947.89 5.49741 2.07505 0
M  V30 52319 H 4949.41 5.32323 2.99106 0
M  V30 52320 H 4950.82 5.68393 0.748447 0
M  V30 52321 H 4949.22 6.00095 0.0235498 0
M  V30 52322 H 4950.29 4.79594 -0.715398 0
M  V30 52323 N 4951.63 0.0852704 1.57369 0
M  V30 52324 C 4952.58 -0.877193 2.13481 0
M  V30 52325 C 4953.55 -1.28639 1.05078 0
M  V30 52326 O 4954.74 -1.36987 1.32813 0
M  V30 52327 C 4951.88 -2.13454 2.71167 0
M  V30 52328 C 4950.99 -1.77677 3.9377 0
M  V30 52329 C 4950.12 -2.98124 4.39654 0
M  V30 52330 C 4949.16 -2.58427 5.54871 0
M  V30 52331 N 4948.3 -3.71677 5.95652 0
M  V30 52332 H 4953.14 -0.391829 2.95413 0
M  V30 52333 H 4950.68 -0.181744 1.45973 0
M  V30 52334 H 4952.64 -2.87076 3.02727 0
M  V30 52335 H 4951.27 -2.59507 1.91978 0
M  V30 52336 H 4950.32 -0.940638 3.68587 0
M  V30 52337 H 4951.63 -1.44481 4.77417 0
M  V30 52338 H 4950.78 -3.80009 4.72946 0
M  V30 52339 H 4949.52 -3.34523 3.54888 0
M  V30 52340 H 4948.53 -1.74966 5.21217 0
M  V30 52341 H 4949.75 -2.23182 6.41379 0
M  V30 52342 H 4947.7 -4.07813 5.13833 0
M  V30 52343 H 4947.62 -3.42293 6.74071 0
M  V30 52344 H 4948.88 -4.54101 6.33571 0
M  V30 52345 N 4953.11 -1.5647 -0.188372 0
M  V30 52346 C 4954.04 -1.98105 -1.23599 0
M  V30 52347 C 4955.02 -0.854012 -1.47108 0
M  V30 52348 O 4956.21 -1.11884 -1.58731 0
M  V30 52349 C 4953.34 -2.32633 -2.57874 0
M  V30 52350 C 4952.29 -3.48138 -2.48966 0
M  V30 52351 C 4951.62 -3.6836 -3.87575 0
M  V30 52352 C 4952.92 -4.82119 -2.00895 0
M  V30 52353 H 4954.61 -2.85867 -0.889968 0
M  V30 52354 H 4952.16 -1.37534 -0.426666 0
M  V30 52355 H 4954.11 -2.60355 -3.31351 0
M  V30 52356 H 4952.84 -1.41761 -2.9423 0
M  V30 52357 H 4951.5 -3.20517 -1.77945 0
M  V30 52358 H 4951.14 -2.74808 -4.21295 0
M  V30 52359 H 4950.84 -4.46068 -3.82488 0
M  V30 52360 H 4952.37 -3.98465 -4.62664 0
M  V30 52361 H 4953.78 -5.08828 -2.64134 0
M  V30 52362 H 4952.18 -5.63344 -2.06794 0
M  V30 52363 H 4953.25 -4.75252 -0.962453 0
M  V30 52364 N 4954.59 0.456329 -1.50849 0
M  V30 52365 C 4955.54 1.55243 -1.70787 0
M  V30 52366 C 4956.51 1.56755 -0.549286 0
M  V30 52367 O 4957.69 1.74058 -0.781561 0
M  V30 52368 C 4954.83 2.93111 -1.82153 0
M  V30 52369 C 4953.95 3.01274 -3.09609 0
M  V30 52370 C 4953.08 4.30148 -3.11682 0
M  V30 52371 C 4952.12 4.32108 -4.33531 0
M  V30 52372 N 4951.26 5.52477 -4.3326 0
M  V30 52373 H 4956.1 1.37546 -2.64358 0
M  V30 52374 H 4953.63 0.668497 -1.31033 0
M  V30 52375 H 4955.59 3.73082 -1.86724 0
M  V30 52376 H 4954.22 3.0941 -0.920087 0
M  V30 52377 H 4953.27 2.14085 -3.14439 0
M  V30 52378 H 4954.59 2.98583 -3.99562 0
M  V30 52379 H 4953.74 5.18478 -3.15064 0
M  V30 52380 H 4952.48 4.3547 -2.19585 0
M  V30 52381 H 4951.48 3.42174 -4.30345 0
M  V30 52382 H 4952.71 4.28467 -5.26871 0
M  V30 52383 H 4950.66 5.58555 -3.44024 0
M  V30 52384 H 4950.57 5.51587 -5.16999 0
M  V30 52385 H 4951.84 6.42891 -4.40808 0
M  V30 52386 N 4956.07 1.40675 0.710514 0
M  V30 52387 C 4957.32 1.39433 1.47262 0
M  V30 52388 C 4957.65 -0.00175302 1.942 0
M  V30 52389 O 4956.92 -0.971327 1.6851 0
M  V30 52390 C 4957.21 2.38821 2.69511 0
M  V30 52391 C 4957.06 3.87475 2.28436 0
M  V30 52392 C 4958.38 2.35673 3.71681 0
M  V30 52393 H 4955.5 0.507787 0.534155 0
M  V30 52394 H 4958.14 1.71846 0.810486 0
M  V30 52395 H 4956.29 2.11312 3.26006 0
M  V30 52396 H 4957.96 4.25832 1.77384 0
M  V30 52397 H 4956.2 4.03064 1.60381 0
M  V30 52398 H 4956.88 4.52541 3.16087 0
M  V30 52399 H 4959.35 2.60051 3.24827 0
M  V30 52400 H 4958.23 3.07253 4.54848 0
M  V30 52401 H 4958.49 1.37011 4.20334 0
M  V30 52402 N 4957.55 -0.943255 1.26256 0
M  V30 52403 C 4958.82 -1.66636 1.0243 0
M  V30 52404 C 4959.2 -2.06336 -0.445934 0
M  V30 52405 O 4958.55 -1.78556 -1.42583 0
M  V30 52406 C 4958.76 -2.88012 1.97104 0
M  V30 52407 C 4960.11 -3.5971 2.25597 0
M  V30 52408 O 4961.13 -2.98113 1.94954 0
M  V30 52409 O 4959.99 -4.7065 2.7776 0
M  V30 52410 H 4957.09 -0.729629 0.38932 0
M  V30 52411 H 4959.63 -0.995169 1.37457 0
M  V30 52412 H 4958.41 -2.5555 2.96328 0
M  V30 52413 H 4958.03 -3.62857 1.62544 0
M  V30 52414 N 4959.03 -1.08026 -1.14753 0
M  V30 52415 C 4960.25 -0.828914 -1.8957 0
M  V30 52416 C 4960.67 0.618558 -1.7838 0
M  V30 52417 O 4960.03 1.42478 -1.14045 0
M  V30 52418 C 4960.08 -1.23689 -3.39681 0
M  V30 52419 O 4959.8 -2.62758 -3.50557 0
M  V30 52420 C 4961.3 -1.01585 -4.31504 0
M  V30 52421 H 4958.52 -0.299217 -0.600591 0
M  V30 52422 H 4961.06 -1.43851 -1.45352 0
M  V30 52423 H 4959.22 -0.671481 -3.81536 0
M  V30 52424 H 4959.63 -2.79589 -4.43769 0
M  V30 52425 H 4961.11 -1.35074 -5.35219 0
M  V30 52426 H 4961.58 0.0473889 -4.39174 0
M  V30 52427 H 4962.19 -1.5665 -3.954 0
M  V30 52428 N 4960.5 1.31717 -0.865354 0
M  V30 52429 C 4961.47 2.26917 -0.322707 0
M  V30 52430 C 4962.47 1.52033 0.523698 0
M  V30 52431 O 4963.66 1.70975 0.333667 0
M  V30 52432 C 4960.79 3.3656 0.54222 0
M  V30 52433 H 4961.98 2.76428 -1.16307 0
M  V30 52434 H 4959.53 1.42571 -0.640562 0
M  V30 52435 H 4960.27 2.92334 1.40397 0
M  V30 52436 H 4960.05 3.92048 -0.0637773 0
M  V30 52437 H 4961.54 4.07468 0.914317 0
M  V30 52438 N 4961.98 0.624336 1.44706 0
M  V30 52439 C 4962.93 -0.0969135 2.32398 0
M  V30 52440 C 4963.92 -0.842711 1.46952 0
M  V30 52441 O 4965.13 -0.756379 1.63337 0
M  V30 52442 H 4961.5 -0.0501042 0.750329 0
M  V30 52443 H 4963.48 0.660869 2.9099 0
M  V30 52444 C 4962.22 -1.06955 3.30841 0
M  V30 52445 H 4961.55 -0.505103 3.96596 0
M  V30 52446 H 4962.99 -1.54383 3.94895 0
M  V30 52447 C 4961.45 -2.15144 2.59258 0
M  V30 52448 O 4961.98 -3.2313 2.38641 0
M  V30 52449 N 4960.18 -1.9089 2.1911 0
M  V30 52450 H 4959.73 -1.03078 2.36078 0
M  V30 52451 H 4959.69 -2.63479 1.7154 0
M  V30 52452 N 4963.46 -1.53328 0.364476 0
M  V30 52453 C 4964.87 -1.86346 -0.114974 0
M  V30 52454 C 4965.22 -1.2851 -1.48255 0
M  V30 52455 O 4964.35 -0.606712 -2.07721 0
M  V30 52456 C 4964.94 -3.38115 -0.215403 0
M  V30 52457 C 4963.5 -3.70934 -0.639106 0
M  V30 52458 C 4962.65 -2.7647 0.214358 0
M  V30 52459 H 4965.6 -1.47591 0.58331 0
M  V30 52460 H 4965.62 -3.66035 -1.03917 0
M  V30 52461 H 4965.13 -3.80179 0.780082 0
M  V30 52462 H 4963.23 -3.34426 -1.64286 0
M  V30 52463 H 4963.35 -4.77304 -0.414483 0
M  V30 52464 H 4961.71 -2.52725 -0.316589 0
M  V30 52465 H 4962.49 -3.21368 1.20736 0
M  V30 52466 N 4964.94 -0.0936148 -1.57322 0
M  V30 52467 C 4965.88 0.865859 -2.13943 0
M  V30 52468 C 4966.85 1.28079 -1.05758 0
M  V30 52469 O 4968.04 1.36281 -1.33537 0
M  V30 52470 C 4965.18 2.12013 -2.72295 0
M  V30 52471 C 4964.29 1.75586 -3.94707 0
M  V30 52472 C 4963.43 2.95788 -4.41229 0
M  V30 52473 C 4962.47 2.55481 -5.56234 0
M  V30 52474 N 4961.6 3.68513 -5.97614 0
M  V30 52475 H 4966.44 0.376157 -2.95616 0
M  V30 52476 H 4963.98 0.174 -1.46067 0
M  V30 52477 H 4965.94 2.85466 -3.04245 0
M  V30 52478 H 4964.57 2.58486 -1.93352 0
M  V30 52479 H 4963.62 0.921078 -3.6908 0
M  V30 52480 H 4964.93 1.41947 -4.78176 0
M  V30 52481 H 4964.09 3.77496 -4.74955 0
M  V30 52482 H 4962.83 3.32637 -3.56657 0
M  V30 52483 H 4961.83 1.72199 -5.22137 0
M  V30 52484 H 4963.06 2.19778 -6.42553 0
M  V30 52485 H 4961 4.05082 -5.15989 0
M  V30 52486 H 4960.92 3.38713 -6.75877 0
M  V30 52487 H 4962.19 4.50735 -6.3597 0
M  V30 52488 N 4966.42 1.56568 0.180071 0
M  V30 52489 C 4967.64 1.85622 0.913907 0
M  V30 52490 C 4968.06 0.677954 1.76208 0
M  V30 52491 O 4967.42 -0.353108 1.79051 0
M  V30 52492 C 4967.47 3.13625 1.79782 0
M  V30 52493 O 4967.19 4.26909 0.98387 0
M  V30 52494 C 4968.69 3.55964 2.64206 0
M  V30 52495 H 4965.91 0.616053 0.265933 0
M  V30 52496 H 4968.45 2.03681 0.1828 0
M  V30 52497 H 4966.61 2.97418 2.48237 0
M  V30 52498 H 4967.02 4.99896 1.58758 0
M  V30 52499 H 4968.5 4.48455 3.21857 0
M  V30 52500 H 4968.97 2.79665 3.38651 0
M  V30 52501 H 4969.58 3.74753 2.01098 0
M  V30 52502 N 4967.89 -0.448323 1.51089 0
M  V30 52503 C 4969.31 -1.02855 1.55813 0
M  V30 52504 C 4969.66 -1.92582 0.375057 0
M  V30 52505 O 4968.78 -2.10318 -0.50946 0
M  V30 52506 C 4969.38 -1.87213 2.82377 0
M  V30 52507 C 4967.94 -2.40304 2.89709 0
M  V30 52508 C 4967.08 -1.19229 2.50359 0
M  V30 52509 H 4970.03 -0.230019 1.57024 0
M  V30 52510 H 4970.05 -2.72543 2.65519 0
M  V30 52511 H 4969.57 -1.21881 3.68465 0
M  V30 52512 H 4967.67 -3.09122 2.08025 0
M  V30 52513 H 4967.78 -2.73853 3.93118 0
M  V30 52514 H 4966.14 -1.53421 2.03308 0
M  V30 52515 H 4966.93 -0.555248 3.3878 0
M  V30 52516 N 4969.37 -1.4105 -0.703043 0
M  V30 52517 C 4970.32 -1.42308 -1.81706 0
M  V30 52518 C 4971.29 -0.278393 -1.6375 0
M  V30 52519 O 4972.47 -0.478331 -1.84707 0
M  V30 52520 C 4969.61 -1.30373 -3.19526 0
M  V30 52521 C 4968.73 -2.5465 -3.48966 0
M  V30 52522 C 4967.86 -2.35064 -4.7636 0
M  V30 52523 C 4966.9 -3.54854 -4.98743 0
M  V30 52524 N 4966.04 -3.34385 -6.17358 0
M  V30 52525 H 4970.88 -2.37522 -1.79965 0
M  V30 52526 H 4968.42 -1.17954 -0.878941 0
M  V30 52527 H 4970.37 -1.21457 -3.99129 0
M  V30 52528 H 4969 -0.387715 -3.20463 0
M  V30 52529 H 4968.06 -2.74046 -2.63824 0
M  V30 52530 H 4969.37 -3.43779 -3.61411 0
M  V30 52531 H 4968.52 -2.23572 -5.64004 0
M  V30 52532 H 4967.26 -1.4338 -4.66148 0
M  V30 52533 H 4966.27 -3.66809 -4.0955 0
M  V30 52534 H 4967.49 -4.47482 -5.1082 0
M  V30 52535 H 4965.44 -2.45394 -6.08373 0
M  V30 52536 H 4965.35 -4.17085 -6.30536 0
M  V30 52537 H 4966.62 -3.26651 -7.07757 0
M  V30 52538 N 4970.85 0.936546 -1.26754 0
M  V30 52539 C 4972.08 1.71505 -1.15194 0
M  V30 52540 C 4972.49 1.86886 0.294971 0
M  V30 52541 O 4971.83 1.3792 1.21342 0
M  V30 52542 C 4971.89 3.13847 -1.75329 0
M  V30 52543 C 4971.56 3.21834 -3.24457 0
M  V30 52544 C 4972.55 3.04757 -4.21212 0
M  V30 52545 C 4970.24 3.45075 -3.65005 0
M  V30 52546 C 4972.23 3.10797 -5.56493 0
M  V30 52547 C 4969.92 3.5075 -5.00418 0
M  V30 52548 C 4970.92 3.33627 -5.95971 0
M  V30 52549 O 4970.61 3.39019 -7.28918 0
M  V30 52550 H 4970.34 0.543644 -0.40178 0
M  V30 52551 H 4972.89 1.18229 -1.67962 0
M  V30 52552 H 4971.12 3.68566 -1.17029 0
M  V30 52553 H 4972.81 3.73628 -1.58609 0
M  V30 52554 H 4973.58 2.86651 -3.91224 0
M  V30 52555 H 4969.46 3.57457 -2.91111 0
M  V30 52556 H 4973 2.9735 -6.31054 0
M  V30 52557 H 4968.9 3.68377 -5.30065 0
M  V30 52558 H 4969.67 3.55532 -7.37251 0
M  V30 52559 N 4972.33 1.08633 1.14178 0
M  V30 52560 C 4973.28 0.718376 2.19335 0
M  V30 52561 C 4974.25 -0.296529 1.63432 0
M  V30 52562 O 4975.43 -0.180013 1.89949 0
M  V30 52563 C 4972.57 0.136325 3.44831 0
M  V30 52564 C 4971.68 1.20429 4.14875 0
M  V30 52565 C 4970.82 0.585852 5.27959 0
M  V30 52566 C 4969.86 1.63569 5.8984 0
M  V30 52567 N 4968.99 1.03888 6.94371 0
M  V30 52568 H 4973.83 1.61941 2.50158 0
M  V30 52569 H 4971.37 0.809233 1.22841 0
M  V30 52570 H 4973.33 -0.218874 4.16625 0
M  V30 52571 H 4971.96 -0.72801 3.14483 0
M  V30 52572 H 4971.01 1.67688 3.41445 0
M  V30 52573 H 4972.32 1.99975 4.56959 0
M  V30 52574 H 4971.48 0.179031 6.06436 0
M  V30 52575 H 4970.22 -0.241248 4.87103 0
M  V30 52576 H 4969.22 2.05215 5.10066 0
M  V30 52577 H 4970.45 2.46531 6.32771 0
M  V30 52578 H 4968.39 0.232918 6.55586 0
M  V30 52579 H 4968.31 1.77142 7.34954 0
M  V30 52580 H 4969.58 0.657997 7.76718 0
M  V30 52581 N 4973.81 -1.31256 0.872327 0
M  V30 52582 C 4975.05 -1.9662 0.484434 0
M  V30 52583 C 4975.38 -1.68942 -0.963781 0
M  V30 52584 O 4974.64 -0.9798 -1.69406 0
M  V30 52585 C 4974.94 -3.50656 0.691012 0
M  V30 52586 C 4974.6 -3.98358 2.11238 0
M  V30 52587 C 4973.26 -4.11095 2.50108 0
M  V30 52588 C 4975.62 -4.23414 3.03925 0
M  V30 52589 C 4972.94 -4.4624 3.80902 0
M  V30 52590 C 4975.3 -4.60024 4.34236 0
M  V30 52591 C 4973.96 -4.70968 4.73018 0
M  V30 52592 H 4973.23 -0.719484 0.177267 0
M  V30 52593 H 4975.88 -1.56349 1.10577 0
M  V30 52594 H 4974.18 -3.91798 -0.0134404 0
M  V30 52595 H 4975.88 -3.99283 0.370674 0
M  V30 52596 H 4972.47 -3.88942 1.8006 0
M  V30 52597 H 4976.65 -4.13066 2.75119 0
M  V30 52598 H 4971.91 -4.52911 4.10708 0
M  V30 52599 H 4976.08 -4.78363 5.06104 0
M  V30 52600 H 4973.71 -4.97956 5.74407 0
M  V30 52601 N 4975.28 -0.632002 -1.44373 0
M  V30 52602 C 4976.53 -0.137041 -2.02336 0
M  V30 52603 C 4976.86 1.23821 -1.49606 0
M  V30 52604 O 4976.14 1.82208 -0.680479 0
M  V30 52605 C 4976.42 -0.124663 -3.59884 0
M  V30 52606 C 4976.27 -1.53232 -4.22895 0
M  V30 52607 C 4977.59 0.550327 -4.36646 0
M  V30 52608 H 4974.71 -0.0512728 -0.735214 0
M  V30 52609 H 4977.35 -0.808642 -1.71933 0
M  V30 52610 H 4975.5 0.447235 -3.85917 0
M  V30 52611 H 4977.18 -2.15317 -4.07966 0
M  V30 52612 H 4975.42 -2.08593 -3.80357 0
M  V30 52613 H 4976.09 -1.47569 -5.31909 0
M  V30 52614 H 4978.57 0.0639692 -4.16051 0
M  V30 52615 H 4977.44 0.528179 -5.46353 0
M  V30 52616 H 4977.7 1.62083 -4.11317 0
M  V30 52617 N 4976.76 1.53132 -0.372602 0
M  V30 52618 C 4978.18 1.59585 -0.0218361 0
M  V30 52619 C 4978.38 1.38741 1.46127 0
M  V30 52620 O 4977.43 1.19607 2.22374 0
M  V30 52621 C 4978.75 2.96778 -0.484063 0
M  V30 52622 C 4980.3 3.09908 -0.438884 0
M  V30 52623 C 4980.77 4.49524 -0.877034 0
M  V30 52624 N 4982.26 4.5566 -0.832374 0
M  V30 52625 C 4983 5.61892 -1.143 0
M  V30 52626 N 4982.49 6.75846 -1.52327 0
M  V30 52627 N 4984.29 5.51912 -1.06534 0
M  V30 52628 H 4976.44 1.64932 -1.33833 0
M  V30 52629 H 4978.7 0.773928 -0.547485 0
M  V30 52630 H 4978.41 3.17193 -1.51926 0
M  V30 52631 H 4978.28 3.76991 0.125651 0
M  V30 52632 H 4980.67 2.89199 0.587192 0
M  V30 52633 H 4980.75 2.31687 -1.08419 0
M  V30 52634 H 4980.39 4.70972 -1.90126 0
M  V30 52635 H 4980.32 5.26185 -0.208912 0
M  V30 52636 H 4982.81 3.73842 -0.552326 0
M  V30 52637 H 4983.13 7.52856 -1.74437 0
M  V30 52638 H 4981.47 6.7722 -1.56198 0
M  V30 52639 H 4984.66 4.61767 -0.767398 0
M  V30 52640 H 4984.83 6.34605 -1.31075 0
M  V30 52641 N 4978.24 0.101957 1.5727 0
M  V30 52642 C 4979.49 -0.559854 1.93774 0
M  V30 52643 C 4979.8 -1.6891 0.98635 0
M  V30 52644 O 4981.01 -2.41252 1.24538 0
M  V30 52645 C 4979.46 -1.04727 3.44326 0
M  V30 52646 C 4979.07 0.0525874 4.47969 0
M  V30 52647 C 4980.82 -1.68143 3.8978 0
M  V30 52648 C 4978.72 -0.450573 5.89681 0
M  V30 52649 H 4977.65 -0.212905 0.723317 0
M  V30 52650 H 4980.3 0.179065 1.82624 0
M  V30 52651 H 4978.69 -1.84009 3.50652 0
M  V30 52652 H 4979.86 0.828316 4.53294 0
M  V30 52653 H 4978.18 0.592347 4.12165 0
M  V30 52654 H 4980.77 -2.06873 4.9306 0
M  V30 52655 H 4981.12 -2.55327 3.28807 0
M  V30 52656 H 4981.65 -0.954317 3.86183 0
M  V30 52657 H 4978.39 0.38481 6.5437 0
M  V30 52658 H 4977.91 -1.19316 5.87813 0
M  V30 52659 H 4979.59 -0.91733 6.40464 0
M  V30 52660 N 4979.72 -1.56661 -0.171765 0
M  V30 52661 C 4980.65 -1.92938 -1.23723 0
M  V30 52662 C 4981.66 -0.822434 -1.40499 0
M  V30 52663 O 4982.85 -1.10088 -1.4051 0
M  V30 52664 C 4979.95 -2.1666 -2.60599 0
M  V30 52665 C 4979.13 -3.47888 -2.65128 0
M  V30 52666 C 4978.18 -3.60442 -3.83364 0
M  V30 52667 O 4977.21 -4.33064 -3.69383 0
M  V30 52668 N 4978.41 -2.95259 -4.99802 0
M  V30 52669 H 4981.18 -2.84935 -0.929104 0
M  V30 52670 H 4978.74 -1.57812 -0.361533 0
M  V30 52671 H 4980.73 -2.22324 -3.38163 0
M  V30 52672 H 4979.3 -1.3105 -2.83804 0
M  V30 52673 H 4978.52 -3.53885 -1.73663 0
M  V30 52674 H 4979.81 -4.34241 -2.65164 0
M  V30 52675 H 4979.21 -2.36128 -5.14062 0
M  V30 52676 H 4977.76 -3.06519 -5.7523 0
M  V30 52677 N 4981.2 0.440304 -1.51324 0
M  V30 52678 C 4982.61 1.02027 -1.56357 0
M  V30 52679 C 4982.96 1.9238 -0.385265 0
M  V30 52680 O 4982.08 2.10585 0.498299 0
M  V30 52681 C 4982.68 1.85713 -2.83366 0
M  V30 52682 C 4981.24 2.38764 -2.90979 0
M  V30 52683 C 4980.38 1.17899 -2.50988 0
M  V30 52684 H 4983.34 0.221689 -1.57144 0
M  V30 52685 H 4983.36 2.71131 -2.66961 0
M  V30 52686 H 4982.87 1.19926 -3.69106 0
M  V30 52687 H 4980.97 3.08014 -2.09662 0
M  V30 52688 H 4981.08 2.71764 -3.94565 0
M  V30 52689 H 4979.45 1.5234 -2.04119 0
M  V30 52690 H 4980.23 0.537274 -3.3907 0
M  V30 52691 N 4982.68 1.41421 0.695553 0
M  V30 52692 C 4983.92 1.40501 1.45272 0
M  V30 52693 C 4984.24 0.0150224 1.94994 0
M  V30 52694 O 4983.51 -0.94314 1.71702 0
M  V30 52695 H 4982.09 0.517166 0.539026 0
M  V30 52696 H 4984.76 1.76659 0.823259 0
M  V30 52697 H 4983.85 2.09222 2.31587 0
M  V30 52698 N 4984.15 -0.929811 1.27249 0
M  V30 52699 C 4985.09 -2.0343 1.05588 0
M  V30 52700 C 4986.1 -1.62795 0.0126334 0
M  V30 52701 O 4987.29 -1.76684 0.253962 0
M  V30 52702 C 4984.39 -3.33913 0.579237 0
M  V30 52703 C 4983.56 -4.03253 1.69429 0
M  V30 52704 C 4982.62 -5.1201 1.21375 0
M  V30 52705 O 4981.65 -5.3609 1.91301 0
M  V30 52706 N 4982.85 -5.8046 0.0682662 0
M  V30 52707 H 4985.61 -2.22576 2.00699 0
M  V30 52708 H 4983.17 -1.10006 1.18787 0
M  V30 52709 H 4985.17 -4.03978 0.241705 0
M  V30 52710 H 4983.74 -3.11356 -0.278594 0
M  V30 52711 H 4982.96 -3.2695 2.20221 0
M  V30 52712 H 4984.24 -4.46328 2.44271 0
M  V30 52713 H 4983.64 -5.63347 -0.515428 0
M  V30 52714 H 4982.2 -6.51461 -0.210103 0
M  V30 52715 N 4985.63 -1.09237 -1.13601 0
M  V30 52716 C 4986.86 -0.848974 -1.8868 0
M  V30 52717 C 4987.27 0.599604 -1.79026 0
M  V30 52718 O 4986.63 1.41261 -1.15549 0
M  V30 52719 C 4986.68 -1.27285 -3.3835 0
M  V30 52720 O 4986.4 -2.66461 -3.4775 0
M  V30 52721 C 4987.9 -1.06156 -4.30402 0
M  V30 52722 H 4985.12 -0.30557 -0.597384 0
M  V30 52723 H 4987.67 -1.45385 -1.43818 0
M  V30 52724 H 4985.82 -0.71191 -3.80803 0
M  V30 52725 H 4986.24 -2.8428 -4.40778 0
M  V30 52726 H 4987.71 -1.40743 -5.33756 0
M  V30 52727 H 4988.19 0.000805931 -4.392 0
M  V30 52728 H 4988.79 -1.60835 -3.93716 0
M  V30 52729 N 4987.11 1.30792 -0.879276 0
M  V30 52730 C 4988.36 1.9636 -0.494855 0
M  V30 52731 C 4988.68 1.69451 0.954808 0
M  V30 52732 O 4987.94 0.98877 1.68884 0
M  V30 52733 C 4988.24 3.50285 -0.709599 0
M  V30 52734 C 4987.9 3.97233 -2.13347 0
M  V30 52735 C 4986.57 4.09763 -2.52285 0
M  V30 52736 C 4988.92 4.21796 -3.06166 0
M  V30 52737 C 4986.25 4.44214 -3.83263 0
M  V30 52738 C 4988.6 4.57714 -4.3667 0
M  V30 52739 C 4987.26 4.68453 -4.75509 0
M  V30 52740 H 4986.53 0.718534 -0.18108 0
M  V30 52741 H 4989.18 1.55761 -1.11404 0
M  V30 52742 H 4987.48 3.91799 -0.00733773 0
M  V30 52743 H 4989.18 3.99081 -0.391844 0
M  V30 52744 H 4985.77 3.87982 -1.8212 0
M  V30 52745 H 4989.96 4.11601 -2.77306 0
M  V30 52746 H 4985.21 4.50727 -4.13104 0
M  V30 52747 H 4989.39 4.75672 -5.08634 0
M  V30 52748 H 4987.01 4.94903 -5.7704 0
M  V30 52749 N 4988.59 0.639649 1.44036 0
M  V30 52750 C 4989.81 0.153189 2.06833 0
M  V30 52751 C 4990.24 -1.1667 1.47545 0
M  V30 52752 O 4989.6 -1.71767 0.580153 0
M  V30 52753 C 4989.64 0.0610436 3.60548 0
M  V30 52754 O 4988.75 -0.980569 4.00573 0
M  V30 52755 H 4988.09 0.0886633 0.658054 0
M  V30 52756 H 4990.62 0.878739 1.84768 0
M  V30 52757 H 4990.63 -0.126749 4.07803 0
M  V30 52758 H 4989.3 1.02464 4.03081 0
M  V30 52759 H 4987.88 -0.766661 3.64934 0
M  V30 52760 N 4990.07 -1.52932 0.380717 0
M  V30 52761 C 4991.31 -2.01766 -0.204509 0
M  V30 52762 C 4991.64 -1.26701 -1.47175 0
M  V30 52763 O 4990.92 -0.365004 -1.91044 0
M  V30 52764 C 4991.2 -3.56871 -0.481143 0
M  V30 52765 C 4991.06 -4.42614 0.800785 0
M  V30 52766 C 4992.37 -4.21215 -1.2754 0
M  V30 52767 H 4989.49 -0.73339 -0.0728545 0
M  V30 52768 H 4992.14 -1.83066 0.508594 0
M  V30 52769 H 4990.29 -3.72936 -1.08862 0
M  V30 52770 H 4991.96 -4.38318 1.43789 0
M  V30 52771 H 4990.2 -4.09972 1.41794 0
M  V30 52772 H 4990.87 -5.49132 0.561984 0
M  V30 52773 H 4993.35 -4.09075 -0.761371 0
M  V30 52774 H 4992.22 -5.29737 -1.4377 0
M  V30 52775 H 4992.48 -3.78277 -2.2882 0
M  V30 52776 N 4991.54 -0.110296 -1.57214 0
M  V30 52777 C 4992.47 0.839925 -2.1787 0
M  V30 52778 C 4993.45 1.28348 -1.11628 0
M  V30 52779 O 4994.64 1.34765 -1.39829 0
M  V30 52780 C 4991.77 2.09339 -2.77118 0
M  V30 52781 C 4990.72 1.78793 -3.88866 0
M  V30 52782 C 4990.05 3.11096 -4.34883 0
M  V30 52783 C 4991.35 1.06302 -5.11368 0
M  V30 52784 H 4993.04 0.334503 -2.97526 0
M  V30 52785 H 4990.59 0.159452 -1.43114 0
M  V30 52786 H 4992.54 2.76264 -3.18208 0
M  V30 52787 H 4991.27 2.62191 -1.9474 0
M  V30 52788 H 4989.93 1.14261 -3.48339 0
M  V30 52789 H 4989.57 3.61865 -3.49375 0
M  V30 52790 H 4989.27 2.91435 -5.10234 0
M  V30 52791 H 4990.8 3.79154 -4.78617 0
M  V30 52792 H 4992.21 1.63364 -5.49532 0
M  V30 52793 H 4990.61 0.967668 -5.92247 0
M  V30 52794 H 4991.68 0.0482865 -4.84876 0
M  V30 52795 N 4993.02 1.5675 0.163455 0
M  V30 52796 C 4993.98 1.96126 1.18606 0
M  V30 52797 C 4994.98 0.845813 1.36758 0
M  V30 52798 O 4996.17 1.11273 1.3403 0
M  V30 52799 C 4993.31 2.26291 2.54961 0
M  V30 52800 H 4994.5 2.87642 0.848663 0
M  V30 52801 H 4992.05 1.5093 0.406198 0
M  V30 52802 H 4992.79 1.37514 2.93701 0
M  V30 52803 H 4992.57 3.07604 2.43151 0
M  V30 52804 H 4994.06 2.57649 3.28644 0
M  V30 52805 N 4994.5 -0.432272 1.51556 0
M  V30 52806 C 4995.74 -1.1907 1.66137 0
M  V30 52807 C 4996.1 -1.88363 0.371939 0
M  V30 52808 O 4997.3 -2.65903 0.393584 0
M  V30 52809 C 4995.58 -2.1767 2.83469 0
M  V30 52810 S 4997.13 -3.01931 3.18407 0
M  V30 52811 H 4993.95 -0.403714 0.585265 0
M  V30 52812 H 4996.55 -0.481488 1.89478 0
M  V30 52813 H 4995.26 -1.65411 3.75589 0
M  V30 52814 H 4994.79 -2.93165 2.62332 0
M  V30 52815 H 4996.8 -4.19363 2.65233 0
M  V30 52816 N 4995.98 -1.41788 -0.688044 0
M  V30 52817 C 4997.21 -1.4471 -1.47454 0
M  V30 52818 C 4997.62 -0.0529825 -1.89126 0
M  V30 52819 O 4996.96 0.939726 -1.57844 0
M  V30 52820 C 4997.02 -2.29944 -2.76344 0
M  V30 52821 C 4996.68 -3.78005 -2.56829 0
M  V30 52822 C 4997.68 -4.69983 -2.22287 0
M  V30 52823 C 4995.37 -4.22129 -2.72236 0
M  V30 52824 C 4997.36 -6.04075 -2.034 0
M  V30 52825 C 4995.05 -5.56284 -2.52965 0
M  V30 52826 C 4996.05 -6.47073 -2.18599 0
M  V30 52827 O 4995.73 -7.78751 -1.99503 0
M  V30 52828 H 4995.47 -0.494719 -0.460684 0
M  V30 52829 H 4998.02 -1.86805 -0.853991 0
M  V30 52830 H 4996.25 -1.82675 -3.40832 0
M  V30 52831 H 4997.94 -2.24478 -3.38178 0
M  V30 52832 H 4998.7 -4.37182 -2.09992 0
M  V30 52833 H 4994.58 -3.51763 -2.97967 0
M  V30 52834 H 4998.13 -6.74903 -1.76499 0
M  V30 52835 H 4994.02 -5.88662 -2.64852 0
M  V30 52836 H 4994.79 -7.89973 -2.14206 0
M  V30 52837 N 4997.46 0.92305 -1.2774 0
M  V30 52838 C 4998.4 2.04563 -1.1071 0
M  V30 52839 C 4999.4 1.69375 -0.0289041 0
M  V30 52840 O 5000.6 1.79026 -0.186976 0
M  V30 52841 H 4996.98 0.670097 -0.341283 0
M  V30 52842 H 4998.95 2.16072 -2.05804 0
M  V30 52843 C 4997.7 3.38931 -0.775956 0
M  V30 52844 H 4997.02 3.66495 -1.59754 0
M  V30 52845 H 4998.46 4.18237 -0.696695 0
M  V30 52846 C 4996.92 3.32864 0.519895 0
M  V30 52847 O 4997.45 3.70468 1.55295 0
M  V30 52848 N 4995.66 2.8596 0.517219 0
M  V30 52849 H 4995.2 2.55556 -0.32388 0
M  V30 52850 H 4995.16 2.82284 1.38431 0
M  V30 52851 N 4998.93 1.09838 1.1302 0
M  V30 52852 C 5000.18 0.835362 1.84028 0
M  V30 52853 C 5000.5 -0.640879 1.84168 0
M  V30 52854 O 4999.77 -1.46512 1.30043 0
M  V30 52855 H 4998.35 0.306042 0.68143 0
M  V30 52856 H 5001.02 1.38738 1.36886 0
M  V30 52857 H 5000.11 1.19268 2.88412 0
M  V30 52858 N 5000.41 -1.30324 0.8862 0
M  V30 52859 C 5001.64 -2.00788 0.519496 0
M  V30 52860 C 5002.06 -1.65982 -0.884955 0
M  V30 52861 O 5001.42 -0.877099 -1.58672 0
M  V30 52862 C 5001.47 -3.53683 0.702882 0
M  V30 52863 O 5000.57 -4.11637 -0.250683 0
M  V30 52864 H 4999.91 -0.631703 0.204566 0
M  V30 52865 H 5002.44 -1.66141 1.19408 0
M  V30 52866 H 5002.45 -4.03529 0.602349 0
M  V30 52867 H 5001.13 -3.78354 1.72687 0
M  V30 52868 H 4999.71 -3.72756 -0.103742 0
M  V30 52869 N 5001.89 -0.647279 -1.43694 0
M  V30 52870 C 5003.3 -0.238754 -1.85167 0
M  V30 52871 C 5003.65 1.2134 -1.54179 0
M  V30 52872 O 5002.78 1.92539 -0.987811 0
M  V30 52873 C 5003.37 -0.426541 -3.36104 0
M  V30 52874 C 5001.93 -0.0723864 -3.7633 0
M  V30 52875 C 5001.08 -0.732247 -2.67457 0
M  V30 52876 H 5004.03 -0.851356 -1.33931 0
M  V30 52877 H 5004.05 0.329737 -3.79069 0
M  V30 52878 H 5003.56 -1.48352 -3.58627 0
M  V30 52879 H 5001.66 0.982229 -3.5942 0
M  V30 52880 H 5001.78 -0.493709 -4.76549 0
M  V30 52881 H 5000.14 -0.166029 -2.54158 0
M  V30 52882 H 5000.92 -1.79214 -2.92809 0
M  V30 52883 N 5003.37 1.52728 -0.388822 0
M  V30 52884 C 5004.59 2.0647 0.196138 0
M  V30 52885 C 5005.02 1.2587 1.3978 0
M  V30 52886 O 5004.38 0.283625 1.79068 0
M  V30 52887 C 5004.42 3.56458 0.544975 0
M  V30 52888 O 5003.53 3.78432 1.63899 0
M  V30 52889 H 5002.87 0.6636 0.0230436 0
M  V30 52890 H 5005.4 1.96896 -0.556154 0
M  V30 52891 H 5005.41 3.99891 0.809416 0
M  V30 52892 H 5004.08 4.1456 -0.333562 0
M  V30 52893 H 5002.66 3.46889 1.3683 0
M  V30 52894 N 5004.85 0.118632 1.57153 0
M  V30 52895 C 5006.09 -0.538392 1.94797 0
M  V30 52896 C 5006.42 -1.67239 1.0028 0
M  V30 52897 O 5005.69 -1.95811 0.0590381 0
M  V30 52898 H 5004.27 -0.201878 0.719204 0
M  V30 52899 H 5006.93 0.187486 1.93996 0
M  V30 52900 H 5006.02 -0.93321 2.97821 0
M  V30 52901 N 5006.32 -1.56835 -0.15514 0
M  V30 52902 C 5007.57 -1.83172 -0.870402 0
M  V30 52903 C 5007.9 -0.698993 -1.81184 0
M  V30 52904 O 5007.18 0.297967 -1.92204 0
M  V30 52905 C 5007.46 -3.19971 -1.65199 0
M  V30 52906 C 5007.31 -4.43794 -0.732588 0
M  V30 52907 C 5008.63 -3.53894 -2.61623 0
M  V30 52908 H 5005.75 -0.666299 -0.314983 0
M  V30 52909 H 5008.39 -1.89513 -0.135921 0
M  V30 52910 H 5006.54 -3.14695 -2.27814 0
M  V30 52911 H 5008.22 -4.61149 -0.118073 0
M  V30 52912 H 5006.46 -4.3378 -0.0416381 0
M  V30 52913 H 5007.13 -5.361 -1.31533 0
M  V30 52914 H 5009.61 -3.59727 -2.0913 0
M  V30 52915 H 5008.48 -4.50659 -3.13366 0
M  V30 52916 H 5008.74 -2.7943 -3.42595 0
M  V30 52917 N 5007.8 0.424229 -1.51783 0
M  V30 52918 C 5009.03 1.19291 -1.68681 0
M  V30 52919 C 5009.44 1.85151 -0.389323 0
M  V30 52920 O 5008.78 1.7207 0.643251 0
M  V30 52921 C 5008.85 2.3092 -2.75529 0
M  V30 52922 C 5008.51 1.8532 -4.17738 0
M  V30 52923 C 5009.51 1.34933 -5.02085 0
M  V30 52924 C 5007.19 1.92613 -4.63902 0
M  V30 52925 C 5009.19 0.924415 -6.30661 0
M  V30 52926 C 5006.87 1.49733 -5.92472 0
M  V30 52927 C 5007.87 0.997305 -6.7568 0
M  V30 52928 O 5007.56 0.574638 -8.01844 0
M  V30 52929 H 5007.29 0.3651 -0.568927 0
M  V30 52930 H 5009.84 0.507257 -1.99038 0
M  V30 52931 H 5008.07 3.02802 -2.40515 0
M  V30 52932 H 5009.76 2.92738 -2.81175 0
M  V30 52933 H 5010.53 1.28683 -4.67617 0
M  V30 52934 H 5006.41 2.30477 -3.99251 0
M  V30 52935 H 5009.95 0.533438 -6.95557 0
M  V30 52936 H 5005.85 1.55657 -6.26451 0
M  V30 52937 H 5006.62 0.69931 -8.15507 0
M  V30 52938 N 5009.28 1.4215 0.680515 0
M  V30 52939 C 5010.21 1.41125 1.806 0
M  V30 52940 C 5011.23 0.311155 1.59799 0
M  V30 52941 O 5012.41 0.573873 1.69024 0
M  V30 52942 C 5009.51 1.18215 3.17614 0
M  V30 52943 C 5008.69 2.4055 3.65314 0
M  V30 52944 C 5007.75 2.13271 4.81043 0
M  V30 52945 O 5006.77 2.86428 4.91882 0
M  V30 52946 N 5007.97 1.13228 5.6935 0
M  V30 52947 H 5010.74 2.38135 1.81967 0
M  V30 52948 H 5008.3 1.36956 0.863398 0
M  V30 52949 H 5010.29 0.978918 3.92682 0
M  V30 52950 H 5008.86 0.297489 3.11181 0
M  V30 52951 H 5008.08 2.76478 2.80987 0
M  V30 52952 H 5009.37 3.22026 3.93924 0
M  V30 52953 H 5008.77 0.527091 5.63239 0
M  V30 52954 H 5007.33 0.988925 6.44254 0
M  V30 52955 N 5010.76 -0.916262 1.28228 0
M  V30 52956 C 5012 -1.6796 1.16485 0
M  V30 52957 C 5012.36 -1.89911 -0.282427 0
M  V30 52958 O 5013.56 -2.63673 -0.522514 0
M  V30 52959 C 5011.83 -3.00244 1.93876 0
M  V30 52960 S 5013.39 -3.91346 1.98479 0
M  V30 52961 H 5010.21 -0.576858 0.415639 0
M  V30 52962 H 5012.81 -1.09001 1.62293 0
M  V30 52963 H 5011.52 -2.81968 2.98198 0
M  V30 52964 H 5011.05 -3.64252 1.48607 0
M  V30 52965 H 5013.06 -4.84092 1.08947 0
M  V30 52966 N 5012.24 -1.10435 -1.12436 0
M  V30 52967 C 5013.2 -0.756618 -2.16351 0
M  V30 52968 C 5014.2 0.218934 -1.59303 0
M  V30 52969 O 5015.39 -0.00422092 -1.74199 0
M  V30 52970 C 5012.52 -0.120732 -3.40686 0
M  V30 52971 H 5013.72 -1.67705 -2.48627 0
M  V30 52972 H 5011.27 -0.904877 -1.27443 0
M  V30 52973 H 5012 0.810426 -3.1401 0
M  V30 52974 H 5011.79 -0.822828 -3.83369 0
M  V30 52975 H 5013.28 0.106798 -4.17463 0
M  V30 52976 N 5013.72 1.29852 -0.893099 0
M  V30 52977 C 5014.65 2.26078 -0.31048 0
M  V30 52978 C 5015.63 1.52147 0.57359 0
M  V30 52979 O 5016.81 1.81132 0.521874 0
M  V30 52980 C 5013.94 3.34071 0.558062 0
M  V30 52981 C 5012.98 4.2572 -0.257787 0
M  V30 52982 S 5013.82 5.09403 -1.65132 0
M  V30 52983 C 5014.97 6.209 -0.789525 0
M  V30 52984 H 5015.21 2.75147 -1.12612 0
M  V30 52985 H 5012.74 1.37973 -0.693026 0
M  V30 52986 H 5014.7 3.96754 1.05341 0
M  V30 52987 H 5013.36 2.8371 1.34787 0
M  V30 52988 H 5012.55 5.02367 0.405386 0
M  V30 52989 H 5012.15 3.67654 -0.686046 0
M  V30 52990 H 5014.44 6.77499 -0.0100227 0
M  V30 52991 H 5015.39 6.9142 -1.52786 0
M  V30 52992 H 5015.8 5.63434 -0.346832 0
M  V30 52993 N 5015.19 0.65489 1.43349 0
M  V30 52994 C 5016.61 0.322605 1.56306 0
M  V30 52995 C 5016.81 -1.17319 1.63825 0
M  V30 52996 O 5015.87 -1.95807 1.59424 0
M  V30 52997 C 5017.18 1.03543 2.82311 0
M  V30 52998 C 5018.73 1.01584 2.96057 0
M  V30 52999 C 5019.2 1.7096 4.24896 0
M  V30 53000 N 5020.69 1.67732 4.31764 0
M  V30 53001 C 5021.43 2.18284 5.30226 0
M  V30 53002 N 5020.92 2.77132 6.34956 0
M  V30 53003 N 5022.72 2.08774 5.21891 0
M  V30 53004 H 5014.87 1.62554 1.36712 0
M  V30 53005 H 5017.13 0.683699 0.656703 0
M  V30 53006 H 5016.84 2.09055 2.82823 0
M  V30 53007 H 5016.71 0.588044 3.72588 0
M  V30 53008 H 5019.1 -0.0308796 2.95084 0
M  V30 53009 H 5019.18 1.50193 2.07064 0
M  V30 53010 H 5018.82 2.75589 4.2663 0
M  V30 53011 H 5018.75 1.19815 5.12788 0
M  V30 53012 H 5021.24 1.2479 3.56701 0
M  V30 53013 H 5021.56 3.13377 7.0641 0
M  V30 53014 H 5019.9 2.81193 6.35575 0
M  V30 53015 H 5023.09 1.62503 4.38988 0
M  V30 53016 H 5023.27 2.4848 5.98466 0
M  V30 53017 N 5016.67 -1.5252 0.396917 0
M  V30 53018 C 5018.08 -1.86548 -0.0754212 0
M  V30 53019 C 5018.43 -1.31626 -1.45496 0
M  V30 53020 O 5017.56 -0.650636 -2.06387 0
M  V30 53021 C 5018.15 -3.38495 -0.143635 0
M  V30 53022 C 5016.71 -3.72207 -0.560282 0
M  V30 53023 C 5015.86 -2.75953 0.272953 0
M  V30 53024 H 5018.81 -1.46321 0.614485 0
M  V30 53025 H 5018.83 -3.68157 -0.961296 0
M  V30 53026 H 5018.34 -3.78439 0.860548 0
M  V30 53027 H 5016.44 -3.37836 -1.57155 0
M  V30 53028 H 5016.56 -4.78076 -0.313146 0
M  V30 53029 H 5014.92 -2.53339 -0.262911 0
M  V30 53030 H 5015.7 -3.18735 1.27526 0
M  V30 53031 N 5018.15 -0.126964 -1.57088 0
M  V30 53032 C 5019.1 0.837542 -2.16998 0
M  V30 53033 C 5020.09 1.2697 -1.12138 0
M  V30 53034 O 5021.3 1.24052 -1.30427 0
M  V30 53035 H 5017.67 0.288231 -0.694569 0
M  V30 53036 H 5019.64 0.307853 -2.96808 0
M  V30 53037 C 5018.39 2.07464 -2.79023 0
M  V30 53038 H 5017.72 1.75105 -3.59414 0
M  V30 53039 H 5019.16 2.72938 -3.2447 0
M  V30 53040 C 5017.61 2.86961 -1.76508 0
M  V30 53041 O 5018.14 3.8262 -1.2233 0
M  V30 53042 N 5016.35 2.51106 -1.46267 0
M  V30 53043 H 5015.9 1.73383 -1.90516 0
M  V30 53044 H 5015.86 3.04591 -0.779193 0
M  V30 53045 N 5019.63 1.56915 0.14682 0
M  V30 53046 C 5020.87 1.83359 0.859403 0
M  V30 53047 C 5021.2 0.707875 1.81161 0
M  V30 53048 O 5020.46 -0.303087 1.93339 0
M  V30 53049 C 5020.76 3.16134 1.66716 0
M  V30 53050 C 5020.42 4.42589 0.861726 0
M  V30 53051 C 5019.08 4.76931 0.639519 0
M  V30 53052 C 5021.44 5.20345 0.29846 0
M  V30 53053 C 5018.76 5.86491 -0.156658 0
M  V30 53054 C 5021.12 6.3074 -0.484758 0
M  V30 53055 C 5019.78 6.63632 -0.71754 0
M  V30 53056 H 5019.05 0.670958 0.314478 0
M  V30 53057 H 5021.7 1.91104 0.123041 0
M  V30 53058 H 5020 3.03839 2.47364 0
M  V30 53059 H 5021.7 3.33809 2.22199 0
M  V30 53060 H 5018.29 4.15666 1.04498 0
M  V30 53061 H 5022.47 4.94188 0.457412 0
M  V30 53062 H 5017.73 6.10417 -0.346507 0
M  V30 53063 H 5021.9 6.90185 -0.928348 0
M  V30 53064 H 5019.53 7.48362 -1.33633 0
M  V30 53065 N 5021.11 -0.416173 1.52006 0
M  V30 53066 C 5022.33 -1.18567 1.69557 0
M  V30 53067 C 5022.75 -1.84471 0.401983 0
M  V30 53068 O 5022.11 -1.71595 -0.621402 0
M  V30 53069 C 5022.16 -2.25403 2.82623 0
M  V30 53070 O 5021.88 -1.62191 4.06972 0
M  V30 53071 C 5023.38 -3.15286 3.11624 0
M  V30 53072 H 5020.6 -0.356562 0.568423 0
M  V30 53073 H 5023.14 -0.490548 1.98529 0
M  V30 53074 H 5021.3 -2.90595 2.5619 0
M  V30 53075 H 5021.71 -2.32963 4.69924 0
M  V30 53076 H 5023.19 -3.86338 3.94268 0
M  V30 53077 H 5023.66 -3.77256 2.24888 0
M  V30 53078 H 5024.27 -2.55771 3.39796 0
M  V30 53079 N 5022.58 -1.42509 -0.672966 0
M  V30 53080 C 5023.83 -1.42369 -1.42878 0
M  V30 53081 C 5024.15 -0.0442285 -1.9555 0
M  V30 53082 O 5025.35 0.0797725 -2.71383 0
M  V30 53083 C 5023.81 -2.50439 -2.58473 0
M  V30 53084 C 5023.42 -3.944 -2.12492 0
M  V30 53085 C 5025.16 -2.59467 -3.35972 0
M  V30 53086 C 5023.07 -4.93975 -3.2518 0
M  V30 53087 H 5022 -0.529529 -0.536763 0
M  V30 53088 H 5024.65 -1.68424 -0.728389 0
M  V30 53089 H 5023.03 -2.17552 -3.30889 0
M  V30 53090 H 5024.2 -4.36651 -1.47217 0
M  V30 53091 H 5022.52 -3.89239 -1.47927 0
M  V30 53092 H 5025.12 -3.3104 -4.19901 0
M  V30 53093 H 5025.46 -1.63882 -3.82686 0
M  V30 53094 H 5025.99 -2.91558 -2.70626 0
M  V30 53095 H 5022.73 -5.91044 -2.83456 0
M  V30 53096 H 5022.25 -4.56355 -3.89231 0
M  V30 53097 H 5023.93 -5.15777 -3.90619 0
M  V30 53098 N 5024.06 0.909449 -1.28712 0
M  V30 53099 C 5025.01 2.01241 -1.13008 0
M  V30 53100 C 5025.98 1.6608 -0.0260268 0
M  V30 53101 O 5027.16 1.89834 -0.191754 0
M  V30 53102 C 5024.3 3.35641 -0.802433 0
M  V30 53103 C 5023.42 3.83646 -1.98595 0
M  V30 53104 C 5022.55 5.06577 -1.59855 0
M  V30 53105 C 5021.59 5.46924 -2.74846 0
M  V30 53106 N 5020.73 6.61044 -2.36569 0
M  V30 53107 H 5025.57 2.14006 -2.07378 0
M  V30 53108 H 5023.1 1.04816 -1.03208 0
M  V30 53109 H 5025.06 4.12961 -0.593202 0
M  V30 53110 H 5023.69 3.22631 0.104343 0
M  V30 53111 H 5022.74 3.02445 -2.30718 0
M  V30 53112 H 5024.06 4.09505 -2.84793 0
M  V30 53113 H 5023.21 5.91452 -1.35163 0
M  V30 53114 H 5021.95 4.82535 -0.707923 0
M  V30 53115 H 5020.95 4.60588 -3.00231 0
M  V30 53116 H 5022.18 5.72952 -3.64558 0
M  V30 53117 H 5020.13 6.38625 -1.49981 0
M  V30 53118 H 5020.04 6.86651 -3.16301 0
M  V30 53119 H 5021.31 7.49214 -2.15172 0
M  V30 53120 N 5025.54 1.1103 1.11848 0
M  V30 53121 C 5026.79 0.854833 1.83131 0
M  V30 53122 C 5027.11 -0.62131 1.84837 0
M  V30 53123 O 5026.38 -1.45124 1.31589 0
M  V30 53124 H 5024.96 0.313252 0.678146 0
M  V30 53125 H 5027.62 1.40182 1.35406 0
M  V30 53126 H 5026.72 1.22321 2.87131 0
M  V30 53127 N 5027.02 -1.29376 0.899973 0
M  V30 53128 C 5028.24 -2.00226 0.540763 0
M  V30 53129 C 5028.67 -1.66912 -0.867301 0
M  V30 53130 O 5028.03 -0.893879 -1.57732 0
M  V30 53131 C 5028.07 -3.52918 0.740356 0
M  V30 53132 O 5027.18 -4.1188 -0.207009 0
M  V30 53133 H 5026.52 -0.629498 0.211255 0
M  V30 53134 H 5029.05 -1.64865 1.21164 0
M  V30 53135 H 5029.06 -4.02868 0.645114 0
M  V30 53136 H 5027.73 -3.76502 1.7669 0
M  V30 53137 H 5026.31 -3.72845 -0.0642004 0
M  V30 53138 N 5028.5 -0.662483 -1.43 0
M  V30 53139 C 5029.74 -0.179662 -2.01701 0
M  V30 53140 C 5030.07 1.20959 -1.52313 0
M  V30 53141 O 5029.33 1.8234 -0.710664 0
M  V30 53142 C 5029.63 -0.149489 -3.57087 0
M  V30 53143 C 5029.29 -1.48173 -4.25858 0
M  V30 53144 C 5027.95 -1.84654 -4.44361 0
M  V30 53145 C 5030.31 -2.35969 -4.64723 0
M  V30 53146 C 5027.63 -3.08578 -4.98995 0
M  V30 53147 C 5029.99 -3.59195 -5.20732 0
M  V30 53148 C 5028.65 -3.95859 -5.37449 0
M  V30 53149 H 5027.92 -0.0657431 -0.738078 0
M  V30 53150 H 5030.57 -0.855029 -1.71352 0
M  V30 53151 H 5028.87 0.609355 -3.87032 0
M  V30 53152 H 5030.57 0.2411 -4.00275 0
M  V30 53153 H 5027.16 -1.18792 -4.11809 0
M  V30 53154 H 5031.34 -2.09073 -4.50113 0
M  V30 53155 H 5026.6 -3.37023 -5.10123 0
M  V30 53156 H 5030.77 -4.27436 -5.49792 0
M  V30 53157 H 5028.4 -4.91963 -5.79549 0
M  V30 53158 N 5029.97 1.52307 -0.404999 0
M  V30 53159 C 5030.9 2.29806 0.413679 0
M  V30 53160 C 5031.89 1.33844 1.04976 0
M  V30 53161 O 5033.07 1.62748 1.05955 0
M  V30 53162 C 5030.2 3.11644 1.53282 0
M  V30 53163 C 5029.15 4.1562 1.02196 0
M  V30 53164 C 5028.48 4.85777 2.23438 0
M  V30 53165 C 5029.78 5.2224 0.0788889 0
M  V30 53166 H 5031.47 2.98492 -0.232983 0
M  V30 53167 H 5029.02 1.43552 -0.113491 0
M  V30 53168 H 5030.97 3.64625 2.11249 0
M  V30 53169 H 5029.7 2.4072 2.2073 0
M  V30 53170 H 5028.36 3.63643 0.464712 0
M  V30 53171 H 5028 4.11386 2.89431 0
M  V30 53172 H 5027.7 5.56065 1.8991 0
M  V30 53173 H 5029.23 5.4157 2.82019 0
M  V30 53174 H 5030.64 5.70487 0.567238 0
M  V30 53175 H 5029.04 5.99867 -0.167378 0
M  V30 53176 H 5030.11 4.77075 -0.867615 0
M  V30 53177 N 5031.45 0.135293 1.57018 0
M  V30 53178 C 5032.4 -0.826022 2.17439 0
M  V30 53179 C 5033.39 -1.26374 1.1281 0
M  V30 53180 O 5034.6 -1.23358 1.31083 0
M  V30 53181 H 5030.98 -0.284544 0.696088 0
M  V30 53182 H 5032.95 -0.292108 2.96967 0
M  V30 53183 C 5031.7 -2.05981 2.8012 0
M  V30 53184 H 5031.02 -1.73196 3.60337 0
M  V30 53185 H 5032.46 -2.71213 3.25913 0
M  V30 53186 C 5030.92 -2.86021 1.78027 0
M  V30 53187 O 5031.45 -3.81966 1.24357 0
M  V30 53188 N 5029.65 -2.50327 1.47596 0
M  V30 53189 H 5029.2 -1.7237 1.91432 0
M  V30 53190 H 5029.16 -3.04174 0.795335 0
M  V30 53191 N 5032.93 -1.5699 -0.138497 0
M  V30 53192 C 5034.18 -1.83449 -0.847989 0
M  V30 53193 C 5034.5 -0.717504 -1.8132 0
M  V30 53194 O 5033.77 0.26016 -1.94165 0
M  V30 53195 H 5032.35 -0.676803 -0.316142 0
M  V30 53196 H 5035.01 -1.94463 -0.13047 0
M  V30 53197 H 5034.11 -2.78682 -1.40508 0
M  V30 53198 N 5034.41 0.408106 -1.52224 0
M  V30 53199 C 5035.63 1.18121 -1.70476 0
M  V30 53200 C 5036.06 1.8349 -0.413905 0
M  V30 53201 O 5035.42 1.70049 0.628718 0
M  V30 53202 C 5035.46 2.21925 -2.84221 0
M  V30 53203 O 5034.57 3.2809 -2.49861 0
M  V30 53204 H 5033.91 0.344761 -0.567482 0
M  V30 53205 H 5036.44 0.478258 -1.98932 0
M  V30 53206 H 5036.45 2.66238 -3.09163 0
M  V30 53207 H 5035.12 1.7373 -3.77876 0
M  V30 53208 H 5033.7 2.89049 -2.35595 0
M  V30 53209 N 5035.89 1.42864 0.665399 0
M  V30 53210 C 5037.13 1.45328 1.43733 0
M  V30 53211 C 5037.49 0.0708644 1.91869 0
M  V30 53212 O 5038.69 -0.0297907 2.68783 0
M  V30 53213 C 5036.96 2.4568 2.59569 0
M  V30 53214 S 5038.52 2.66922 3.48279 0
M  V30 53215 H 5035.34 0.514437 0.490791 0
M  V30 53216 H 5037.94 1.79539 0.773682 0
M  V30 53217 H 5036.65 3.44877 2.22459 0
M  V30 53218 H 5036.18 2.12926 3.30796 0
M  V30 53219 H 5038.19 1.9593 4.55879 0
M  V30 53220 N 5037.36 -0.902611 1.29192 0
M  V30 53221 C 5038.61 -1.64956 1.16764 0
M  V30 53222 C 5038.93 -1.92953 -0.281812 0
M  V30 53223 O 5038.2 -1.55355 -1.19338 0
M  V30 53224 H 5036.78 -0.611431 0.429139 0
M  V30 53225 H 5039.45 -1.08244 1.62078 0
M  V30 53226 H 5038.54 -2.60722 1.71553 0
M  V30 53227 N 5038.84 -1.11622 -1.11258 0
M  V30 53228 C 5040.07 -0.889079 -1.87377 0
M  V30 53229 C 5040.49 0.55582 -1.797 0
M  V30 53230 O 5039.85 1.39268 -1.16078 0
M  V30 53231 C 5039.9 -1.35771 -3.34064 0
M  V30 53232 O 5039 -0.530643 -4.08972 0
M  V30 53233 H 5038.34 -0.320102 -0.581748 0
M  V30 53234 H 5040.87 -1.48616 -1.40622 0
M  V30 53235 H 5040.88 -1.35305 -3.84911 0
M  V30 53236 H 5039.56 -2.40985 -3.38968 0
M  V30 53237 H 5038.14 -0.601568 -3.68016 0
M  V30 53238 N 5040.32 1.28897 -0.906821 0
M  V30 53239 C 5041.57 1.95556 -0.537189 0
M  V30 53240 C 5041.9 1.71265 0.915521 0
M  V30 53241 O 5041.17 1.02966 1.6501 0
M  V30 53242 C 5041.46 3.50195 -0.838768 0
M  V30 53243 C 5041.31 3.83915 -2.3437 0
M  V30 53244 C 5042.63 4.3886 -0.330143 0
M  V30 53245 H 5039.75 0.710282 -0.196642 0
M  V30 53246 H 5042.39 1.52388 -1.1348 0
M  V30 53247 H 5040.54 3.87095 -0.33016 0
M  V30 53248 H 5042.21 3.56922 -2.9224 0
M  V30 53249 H 5040.46 3.31205 -2.80153 0
M  V30 53250 H 5041.13 4.91874 -2.50528 0
M  V30 53251 H 5043.6 4.08993 -0.765753 0
M  V30 53252 H 5042.48 5.45929 -0.570296 0
M  V30 53253 H 5042.74 4.35354 0.769358 0
M  V30 53254 N 5041.8 0.670057 1.42646 0
M  V30 53255 C 5043.05 0.189981 2.01205 0
M  V30 53256 C 5043.37 -1.20611 1.53225 0
M  V30 53257 O 5042.64 -1.80895 0.75192 0
M  V30 53258 H 5041.22 0.0672451 0.743967 0
M  V30 53259 H 5043.88 0.865503 1.74628 0
M  V30 53260 H 5042.98 0.187591 3.11536 0
M  V30 53261 N 5043.28 -1.5209 0.413071 0
M  V30 53262 C 5044.52 -2.01856 -0.161426 0
M  V30 53263 C 5044.85 -1.2985 -1.44807 0
M  V30 53264 O 5044.11 -0.394538 -1.91682 0
M  V30 53265 C 5044.41 -3.54531 -0.451975 0
M  V30 53266 C 5044.07 -4.44687 0.745944 0
M  V30 53267 C 5042.73 -4.6905 1.07452 0
M  V30 53268 C 5045.09 -4.97736 1.54622 0
M  V30 53269 C 5042.41 -5.43709 2.20449 0
M  V30 53270 C 5044.77 -5.73633 2.66698 0
M  V30 53271 C 5043.43 -5.96267 3.00037 0
M  V30 53272 H 5042.7 -0.738642 -0.0590701 0
M  V30 53273 H 5045.35 -1.83272 0.555298 0
M  V30 53274 H 5043.65 -3.71314 -1.25031 0
M  V30 53275 H 5045.35 -3.9055 -0.90951 0
M  V30 53276 H 5041.94 -4.25905 0.479875 0
M  V30 53277 H 5046.12 -4.78819 1.3056 0
M  V30 53278 H 5041.38 -5.59453 2.46621 0
M  V30 53279 H 5045.55 -6.13735 3.29094 0
M  V30 53280 H 5043.18 -6.53899 3.87711 0
M  V30 53281 N 5044.76 -0.143618 -1.56944 0
M  V30 53282 C 5045.7 0.814479 -2.17874 0
M  V30 53283 C 5046.7 1.25774 -1.13478 0
M  V30 53284 O 5047.9 1.22661 -1.31735 0
M  V30 53285 H 5044.28 0.280848 -0.697587 0
M  V30 53286 H 5046.25 0.276355 -2.97118 0
M  V30 53287 C 5045 2.04493 -2.81208 0
M  V30 53288 H 5044.32 1.71283 -3.61251 0
M  V30 53289 H 5045.76 2.69481 -3.27347 0
M  V30 53290 C 5044.22 2.85073 -1.79542 0
M  V30 53291 O 5044.75 3.81301 -1.26381 0
M  V30 53292 N 5042.96 2.49541 -1.48922 0
M  V30 53293 H 5042.5 1.71352 -1.92344 0
M  V30 53294 H 5042.46 3.03748 -0.811455 0
M  V30 53295 N 5046.23 1.57062 0.130169 0
M  V30 53296 C 5047.48 1.83448 0.838424 0
M  V30 53297 C 5047.8 0.727532 1.81566 0
M  V30 53298 O 5049 0.877484 2.56929 0
M  V30 53299 C 5047.46 3.25207 1.54171 0
M  V30 53300 C 5047.07 4.43882 0.606022 0
M  V30 53301 C 5048.81 3.60852 2.23575 0
M  V30 53302 C 5046.72 5.76666 1.31189 0
M  V30 53303 H 5045.65 0.684196 0.316847 0
M  V30 53304 H 5048.3 1.83274 0.0911414 0
M  V30 53305 H 5046.68 3.19818 2.33522 0
M  V30 53306 H 5047.85 4.60544 -0.15347 0
M  V30 53307 H 5046.17 4.16395 0.0195241 0
M  V30 53308 H 5048.77 4.57323 2.77056 0
M  V30 53309 H 5049.11 2.87734 3.00857 0
M  V30 53310 H 5049.64 3.67976 1.51124 0
M  V30 53311 H 5046.38 6.52924 0.580593 0
M  V30 53312 H 5045.9 5.6391 2.04367 0
M  V30 53313 H 5047.58 6.20041 1.84818 0
M  V30 53314 N 5047.71 -0.400028 1.52439 0
M  V30 53315 C 5048.99 -1.15968 1.57515 0
M  V30 53316 C 5049.37 -2.07979 0.361645 0
M  V30 53317 O 5048.72 -2.19035 -0.650852 0
M  V30 53318 C 5048.93 -1.92902 2.90844 0
M  V30 53319 C 5050.27 -2.4865 3.44178 0
M  V30 53320 O 5051.3 -2.03071 2.92644 0
M  V30 53321 O 5050.16 -3.31879 4.34188 0
M  V30 53322 H 5047.25 -0.53 0.634845 0
M  V30 53323 H 5049.8 -0.406072 1.6477 0
M  V30 53324 H 5048.57 -1.25551 3.70611 0
M  V30 53325 H 5048.19 -2.75247 2.86923 0
M  V30 53326 N 5049.19 -1.43215 -0.657814 0
M  V30 53327 C 5050.42 -1.47805 -1.44351 0
M  V30 53328 C 5050.83 -0.093087 -1.88971 0
M  V30 53329 O 5050.17 0.906033 -1.59802 0
M  V30 53330 C 5050.23 -2.35754 -2.71404 0
M  V30 53331 C 5049.9 -3.83368 -2.48753 0
M  V30 53332 C 5050.89 -4.74593 -2.12268 0
M  V30 53333 C 5048.58 -4.27809 -2.6322 0
M  V30 53334 C 5050.57 -6.08254 -1.90541 0
M  V30 53335 C 5048.26 -5.61525 -2.41108 0
M  V30 53336 C 5049.26 -6.51564 -2.04824 0
M  V30 53337 O 5048.95 -7.82808 -1.82939 0
M  V30 53338 H 5048.68 -0.504379 -0.450086 0
M  V30 53339 H 5051.23 -1.88575 -0.814175 0
M  V30 53340 H 5049.46 -1.89864 -3.36881 0
M  V30 53341 H 5051.15 -2.31601 -3.3334 0
M  V30 53342 H 5051.92 -4.41538 -2.00672 0
M  V30 53343 H 5047.8 -3.58004 -2.90438 0
M  V30 53344 H 5051.34 -6.78495 -1.62144 0
M  V30 53345 H 5047.24 -5.94148 -2.52306 0
M  V30 53346 H 5048 -7.94339 -1.97402 0
M  V30 53347 N 5050.67 0.895746 -1.29669 0
M  V30 53348 C 5051.94 1.62719 -1.08544 0
M  V30 53349 C 5052.32 2.07849 0.369046 0
M  V30 53350 O 5051.67 1.83725 1.35858 0
M  V30 53351 C 5051.88 2.80498 -2.07658 0
M  V30 53352 C 5053.23 3.51089 -2.38792 0
M  V30 53353 O 5054.25 2.90672 -2.05884 0
M  V30 53354 O 5053.11 4.60017 -2.95036 0
M  V30 53355 H 5050.21 0.714677 -0.416131 0
M  V30 53356 H 5052.75 0.943467 -1.41056 0
M  V30 53357 H 5051.53 2.44376 -3.05608 0
M  V30 53358 H 5051.15 3.56574 -1.75899 0
M  V30 53359 N 5052.15 1.1221 1.10665 0
M  V30 53360 C 5053.39 0.886 1.84199 0
M  V30 53361 C 5053.75 -0.577785 1.831 0
M  V30 53362 O 5054.95 -0.930963 2.52164 0
M  V30 53363 C 5053.22 1.44209 3.27015 0
M  V30 53364 S 5054.78 1.34417 4.17705 0
M  V30 53365 H 5051.6 0.319675 0.635082 0
M  V30 53366 H 5054.2 1.43117 1.33184 0
M  V30 53367 H 5052.9 2.50107 3.25384 0
M  V30 53368 H 5052.44 0.894308 3.831 0
M  V30 53369 H 5054.45 0.314048 4.95205 0
M  V30 53370 N 5053.62 -1.28415 0.913644 0
M  V30 53371 C 5054.87 -1.95268 0.547552 0
M  V30 53372 C 5055.2 -1.71749 -0.906426 0
M  V30 53373 O 5054.48 -1.0384 -1.64461 0
M  V30 53374 C 5054.76 -3.49745 0.857328 0
M  V30 53375 C 5054.61 -3.82667 2.36403 0
M  V30 53376 C 5055.93 -4.38679 0.353412 0
M  V30 53377 H 5053.05 -0.709229 0.200406 0
M  V30 53378 H 5055.69 -1.51784 1.14287 0
M  V30 53379 H 5053.84 -3.86914 0.350684 0
M  V30 53380 H 5055.52 -3.55368 2.94129 0
M  V30 53381 H 5053.76 -3.29715 2.81906 0
M  V30 53382 H 5054.43 -4.90538 2.53133 0
M  V30 53383 H 5056.91 -4.08581 0.787432 0
M  V30 53384 H 5055.78 -5.45619 0.59924 0
M  V30 53385 H 5056.04 -4.35756 -0.746259 0
M  V30 53386 N 5055.1 -0.677613 -1.42289 0
M  V30 53387 C 5056.33 -0.207974 -2.06355 0
M  V30 53388 C 5056.75 1.12718 -1.50587 0
M  V30 53389 O 5056.11 1.70168 -0.62549 0
M  V30 53390 C 5056.16 -0.156615 -3.6026 0
M  V30 53391 O 5055.26 0.87402 -4.03032 0
M  V30 53392 H 5054.6 -0.106079 -0.655472 0
M  V30 53393 H 5057.13 -0.927418 -1.82374 0
M  V30 53394 H 5057.14 0.0185823 -4.07996 0
M  V30 53395 H 5055.82 -1.13115 -4.00222 0
M  V30 53396 H 5054.39 0.669636 -3.66838 0
M  V30 53397 N 5056.58 1.51869 -0.421131 0
M  V30 53398 C 5057.83 2.01938 0.150719 0
M  V30 53399 C 5058.16 1.30616 1.44117 0
M  V30 53400 O 5057.41 0.404698 1.9147 0
M  V30 53401 C 5057.71 3.54765 0.433167 0
M  V30 53402 C 5057.38 4.44285 -0.769516 0
M  V30 53403 C 5056.04 4.68473 -1.09938 0
M  V30 53404 C 5058.39 4.96909 -1.57259 0
M  V30 53405 C 5055.72 5.42532 -2.23329 0
M  V30 53406 C 5058.07 5.72211 -2.69736 0
M  V30 53407 C 5056.73 5.94667 -3.03195 0
M  V30 53408 H 5056 0.738945 0.0551521 0
M  V30 53409 H 5058.65 1.82975 -0.56501 0
M  V30 53410 H 5056.96 3.71972 1.23061 0
M  V30 53411 H 5058.65 3.91026 0.888785 0
M  V30 53412 H 5055.24 4.25645 -0.502455 0
M  V30 53413 H 5059.43 4.7812 -1.33097 0
M  V30 53414 H 5054.68 5.58137 -2.49585 0
M  V30 53415 H 5058.86 6.11981 -3.32344 0
M  V30 53416 H 5056.48 6.51834 -3.91173 0
M  V30 53417 N 5058.06 0.151939 1.56866 0
M  V30 53418 C 5059.3 -0.500626 1.98174 0
M  V30 53419 C 5059.66 -1.61712 1.03505 0
M  V30 53420 O 5060.86 -2.33089 1.33877 0
M  V30 53421 C 5059.13 -0.989213 3.43438 0
M  V30 53422 S 5060.69 -1.64568 4.06771 0
M  V30 53423 H 5057.51 -0.161706 0.692367 0
M  V30 53424 H 5060.11 0.244822 1.93961 0
M  V30 53425 H 5058.82 -0.165928 4.10064 0
M  V30 53426 H 5058.35 -1.76916 3.51375 0
M  V30 53427 H 5060.36 -2.93312 4.00228 0
M  V30 53428 N 5059.54 -1.57128 -0.121838 0
M  V30 53429 C 5060.77 -1.88612 -0.84316 0
M  V30 53430 C 5061.17 -0.740979 -1.74087 0
M  V30 53431 O 5060.52 0.297362 -1.81277 0
M  V30 53432 C 5060.58 -3.15079 -1.73106 0
M  V30 53433 C 5060.24 -4.45746 -1.00795 0
M  V30 53434 C 5061.24 -5.1872 -0.350072 0
M  V30 53435 C 5058.93 -4.92448 -0.989967 0
M  V30 53436 C 5060.92 -6.36616 0.316113 0
M  V30 53437 C 5058.61 -6.10262 -0.319982 0
M  V30 53438 C 5059.6 -6.82193 0.331906 0
M  V30 53439 O 5059.29 -7.97766 0.991208 0
M  V30 53440 H 5059.02 -0.628928 -0.247843 0
M  V30 53441 H 5061.58 -2.05096 -0.111653 0
M  V30 53442 H 5059.81 -2.94669 -2.50414 0
M  V30 53443 H 5061.5 -3.32605 -2.32655 0
M  V30 53444 H 5062.26 -4.83695 -0.3556 0
M  V30 53445 H 5058.14 -4.36366 -1.4868 0
M  V30 53446 H 5061.69 -6.92698 0.825516 0
M  V30 53447 H 5057.58 -6.44745 -0.312207 0
M  V30 53448 H 5058.35 -8.13588 0.895399 0
M  V30 53449 N 5061.01 0.391938 -1.52649 0
M  V30 53450 C 5061.95 1.50013 -1.71963 0
M  V30 53451 C 5062.93 1.52378 -0.567418 0
M  V30 53452 O 5064.11 1.70828 -0.796866 0
M  V30 53453 C 5061.24 2.8849 -1.77458 0
M  V30 53454 C 5060.28 3.03963 -2.9918 0
M  V30 53455 S 5061.12 2.75471 -4.59212 0
M  V30 53456 C 5062.27 4.16147 -4.67518 0
M  V30 53457 H 5062.5 1.33404 -2.65689 0
M  V30 53458 H 5060.04 0.584624 -1.42904 0
M  V30 53459 H 5062 3.6829 -1.81308 0
M  V30 53460 H 5060.66 3.02428 -0.848294 0
M  V30 53461 H 5059.85 4.05317 -2.99556 0
M  V30 53462 H 5059.45 2.32052 -2.93305 0
M  V30 53463 H 5061.74 5.10033 -4.45952 0
M  V30 53464 H 5062.69 4.20786 -5.69512 0
M  V30 53465 H 5063.09 4.01919 -3.96386 0
M  V30 53466 N 5062.49 1.43562 0.650209 0
M  V30 53467 C 5063.44 1.45398 1.75623 0
M  V30 53468 C 5064.43 0.322061 1.57644 0
M  V30 53469 O 5065.62 0.566054 1.67705 0
M  V30 53470 C 5062.75 1.38265 3.14225 0
M  V30 53471 C 5061.83 2.56499 3.37741 0
M  V30 53472 N 5062.22 3.81836 3.31715 0
M  V30 53473 C 5060.52 2.51287 3.68471 0
M  V30 53474 C 5061.22 4.60509 3.55396 0
M  V30 53475 N 5060.2 3.91287 3.77353 0
M  V30 53476 H 5064 2.40173 1.69394 0
M  V30 53477 H 5061.52 1.38257 0.851989 0
M  V30 53478 H 5063.51 1.37664 3.93515 0
M  V30 53479 H 5062.17 0.445132 3.21634 0
M  V30 53480 H 5063.18 4.1408 3.1106 0
M  V30 53481 H 5059.86 1.66237 3.82977 0
M  V30 53482 H 5061.25 5.6953 3.5649 0
M  V30 53483 N 5063.97 -0.888857 1.30143 0
M  V30 53484 C 5064.92 -1.98136 1.12809 0
M  V30 53485 C 5065.9 -1.60839 0.0443702 0
M  V30 53486 O 5067.1 -1.7497 0.26727 0
M  V30 53487 C 5064.23 -3.33413 0.817966 0
M  V30 53488 C 5063.31 -3.77037 1.94176 0
M  V30 53489 N 5063.7 -3.92793 3.18664 0
M  V30 53490 C 5062 -4.06401 1.83724 0
M  V30 53491 C 5062.7 -4.29732 3.92053 0
M  V30 53492 N 5061.68 -4.39378 3.20074 0
M  V30 53493 H 5065.48 -2.08404 2.07232 0
M  V30 53494 H 5062.99 -1.07841 1.21425 0
M  V30 53495 H 5064.99 -4.11402 0.674813 0
M  V30 53496 H 5063.65 -3.24485 -0.11823 0
M  V30 53497 H 5064.66 -3.7803 3.53997 0
M  V30 53498 H 5061.34 -4.05968 0.974473 0
M  V30 53499 H 5062.73 -4.49678 4.99239 0
M  V30 53500 N 5065.45 -1.12795 -1.10068 0
M  V30 53501 C 5066.38 -0.742997 -2.15766 0
M  V30 53502 C 5067.36 0.267658 -1.60382 0
M  V30 53503 O 5068.54 0.160716 -1.87814 0
M  V30 53504 C 5065.67 -0.100363 -3.38551 0
M  V30 53505 C 5064.72 -1.07845 -4.1264 0
M  V30 53506 S 5065.55 -2.60781 -4.67711 0
M  V30 53507 C 5066.71 -1.97859 -5.93804 0
M  V30 53508 H 5066.94 -1.63831 -2.48086 0
M  V30 53509 H 5064.47 -0.947428 -1.21915 0
M  V30 53510 H 5066.43 0.264031 -4.0965 0
M  V30 53511 H 5065.09 0.772116 -3.04462 0
M  V30 53512 H 5064.28 -0.576501 -5.00692 0
M  V30 53513 H 5063.89 -1.38598 -3.47371 0
M  V30 53514 H 5066.18 -1.32364 -6.64444 0
M  V30 53515 H 5067.12 -2.83966 -6.48667 0
M  V30 53516 H 5067.53 -1.43286 -5.46012 0
M  V30 53517 N 5066.93 1.27928 -0.920441 0
M  V30 53518 C 5067.84 2.30823 -0.419293 0
M  V30 53519 C 5068.85 1.66769 0.496402 0
M  V30 53520 O 5070.03 1.97764 0.38097 0
M  V30 53521 C 5067.09 3.45159 0.32648 0
M  V30 53522 C 5066.15 4.24752 -0.623247 0
M  V30 53523 C 5065.39 5.33629 0.0870296 0
M  V30 53524 O 5065.61 5.55209 1.30764 0
M  V30 53525 O 5064.54 5.99088 -0.581085 0
M  V30 53526 H 5068.37 2.75711 -1.27346 0
M  V30 53527 H 5065.96 1.32745 -0.685511 0
M  V30 53528 H 5067.84 4.14719 0.747413 0
M  V30 53529 H 5066.51 3.0234 1.15637 0
M  V30 53530 H 5065.42 3.57755 -1.09371 0
M  V30 53531 H 5066.75 4.71267 -1.42015 0
M  V30 53532 N 5068.4 0.685149 1.41928 0
M  V30 53533 C 5069.33 0.0274327 2.33484 0
M  V30 53534 C 5070.32 -0.778313 1.51249 0
M  V30 53535 O 5071.5 -0.733386 1.7982 0
M  V30 53536 C 5068.63 -0.917154 3.34971 0
M  V30 53537 C 5067.58 -0.219259 4.27438 0
M  V30 53538 C 5066.91 -1.27749 5.19215 0
M  V30 53539 C 5068.21 0.908075 5.14346 0
M  V30 53540 H 5069.9 0.792096 2.88732 0
M  V30 53541 H 5067.45 0.382356 1.38831 0
M  V30 53542 H 5069.4 -1.38643 3.9794 0
M  V30 53543 H 5068.13 -1.71336 2.78049 0
M  V30 53544 H 5066.79 0.229886 3.65879 0
M  V30 53545 H 5066.43 -2.06596 4.58614 0
M  V30 53546 H 5066.13 -0.815598 5.81912 0
M  V30 53547 H 5067.66 -1.74749 5.8506 0
M  V30 53548 H 5069.07 0.519549 5.70941 0
M  V30 53549 H 5067.47 1.29641 5.85929 0
M  V30 53550 H 5068.54 1.75234 4.5213 0
M  V30 53551 N 5069.88 -1.51644 0.429179 0
M  V30 53552 C 5071.29 -1.86666 -0.0358347 0
M  V30 53553 C 5071.64 -1.34682 -1.42671 0
M  V30 53554 O 5070.77 -0.694267 -2.04961 0
M  V30 53555 C 5071.36 -3.38724 -0.071803 0
M  V30 53556 C 5069.92 -3.73311 -0.481205 0
M  V30 53557 C 5069.07 -2.75312 0.331425 0
M  V30 53558 H 5072.02 -1.44984 0.645384 0
M  V30 53559 H 5072.04 -3.70113 -0.882988 0
M  V30 53560 H 5071.55 -3.76529 0.940627 0
M  V30 53561 H 5069.66 -3.41093 -1.49954 0
M  V30 53562 H 5069.77 -4.78632 -0.211669 0
M  V30 53563 H 5068.13 -2.5384 -0.209115 0
M  V30 53564 H 5068.92 -3.15958 1.34258 0
M  V30 53565 N 5071.36 -0.160256 -1.56783 0
M  V30 53566 C 5072.59 0.494095 -2.00914 0
M  V30 53567 C 5073 1.57545 -1.04044 0
M  V30 53568 O 5072.36 1.82457 -0.0395223 0
M  V30 53569 C 5072.41 1.08259 -3.44909 0
M  V30 53570 O 5072.13 0.0444164 -4.38077 0
M  V30 53571 C 5073.63 1.81625 -4.04385 0
M  V30 53572 H 5070.85 0.127474 -0.65878 0
M  V30 53573 H 5073.4 -0.258736 -2.02857 0
M  V30 53574 H 5071.55 1.78597 -3.43776 0
M  V30 53575 H 5071.97 0.47736 -5.22323 0
M  V30 53576 H 5073.44 2.18076 -5.07097 0
M  V30 53577 H 5073.92 2.70715 -3.45847 0
M  V30 53578 H 5074.52 1.15955 -4.09188 0
M  V30 53579 N 5072.84 1.57191 0.113503 0
M  V30 53580 C 5074.09 1.84775 0.818696 0
M  V30 53581 C 5074.41 0.74626 1.80155 0
M  V30 53582 O 5073.68 -0.229237 1.94554 0
M  V30 53583 H 5072.26 0.681747 0.305335 0
M  V30 53584 H 5074.92 1.94646 0.099516 0
M  V30 53585 H 5074.02 2.80882 1.36057 0
M  V30 53586 N 5074.32 -0.383837 1.52854 0
M  V30 53587 C 5075.56 -1.13003 1.68399 0
M  V30 53588 C 5075.9 -1.89487 0.425262 0
M  V30 53589 O 5075.17 -1.85742 -0.577071 0
M  V30 53590 C 5075.45 -2.10409 2.92233 0
M  V30 53591 C 5075.31 -1.37655 4.28219 0
M  V30 53592 C 5076.63 -3.1077 3.11624 0
M  V30 53593 H 5073.75 -0.409441 0.612802 0
M  V30 53594 H 5076.39 -0.41283 1.85461 0
M  V30 53595 H 5074.54 -2.71569 2.77817 0
M  V30 53596 H 5076.21 -0.794192 4.54412 0
M  V30 53597 H 5074.45 -0.678383 4.28463 0
M  V30 53598 H 5075.12 -2.08856 5.10963 0
M  V30 53599 H 5077.6 -2.59703 3.25105 0
M  V30 53600 H 5076.48 -3.76165 3.99738 0
M  V30 53601 H 5076.74 -3.79925 2.26074 0
M  V30 53602 N 5075.8 -1.43905 -0.642587 0
M  V30 53603 C 5076.75 -1.46328 -1.74849 0
M  V30 53604 C 5077.73 -0.330417 -1.57471 0
M  V30 53605 O 5078.92 -0.57494 -1.67402 0
M  V30 53606 C 5076.05 -1.3993 -3.13488 0
M  V30 53607 C 5075.14 -2.58286 -3.36376 0
M  V30 53608 N 5075.53 -3.83589 -3.29686 0
M  V30 53609 C 5073.83 -2.53237 -3.67133 0
M  V30 53610 C 5074.53 -4.62388 -3.52948 0
M  V30 53611 N 5073.5 -3.93282 -3.75273 0
M  V30 53612 H 5077.3 -2.41068 -1.68117 0
M  V30 53613 H 5074.82 -1.38707 -0.844645 0
M  V30 53614 H 5076.82 -1.39749 -3.9278 0
M  V30 53615 H 5075.48 -0.462183 -3.21394 0
M  V30 53616 H 5076.49 -4.15724 -3.08859 0
M  V30 53617 H 5073.16 -1.68266 -3.8209 0
M  V30 53618 H 5074.55 -5.71413 -3.53465 0
M  V30 53619 N 5077.27 0.881943 -1.30612 0
M  V30 53620 C 5078.24 1.96953 -1.17227 0
M  V30 53621 C 5079.24 1.60472 -0.102654 0
M  V30 53622 O 5080.43 1.70627 -0.351003 0
M  V30 53623 C 5077.56 3.3146 -0.796689 0
M  V30 53624 H 5078.75 2.10254 -2.13853 0
M  V30 53625 H 5076.3 1.06873 -1.14052 0
M  V30 53626 H 5077.04 3.2386 0.168939 0
M  V30 53627 H 5076.82 3.59308 -1.56972 0
M  V30 53628 H 5078.31 4.1123 -0.726595 0
M  V30 53629 N 5078.75 1.13378 1.09468 0
M  V30 53630 C 5080 0.893486 1.81277 0
M  V30 53631 C 5080.32 -0.581963 1.86113 0
M  V30 53632 O 5079.59 -1.42301 1.34638 0
M  V30 53633 H 5078.17 0.327566 0.671349 0
M  V30 53634 H 5080.83 1.43023 1.32403 0
M  V30 53635 H 5079.93 1.28384 2.84472 0
M  V30 53636 N 5080.23 -1.27438 0.927213 0
M  V30 53637 C 5081.46 -1.98496 0.583691 0
M  V30 53638 C 5081.87 -1.69174 -0.838181 0
M  V30 53639 O 5081.23 -0.952024 -1.55701 0
M  V30 53640 C 5081.28 -3.52549 0.799465 0
M  V30 53641 O 5081 -3.80844 2.1654 0
M  V30 53642 C 5082.5 -4.40859 0.464591 0
M  V30 53643 H 5079.72 -0.633479 0.221235 0
M  V30 53644 H 5082.27 -1.62303 1.2441 0
M  V30 53645 H 5080.42 -3.86954 0.185864 0
M  V30 53646 H 5080.84 -4.75433 2.21503 0
M  V30 53647 H 5082.31 -5.47964 0.666268 0
M  V30 53648 H 5082.79 -4.35085 -0.599842 0
M  V30 53649 H 5083.39 -4.11973 1.05631 0
M  V30 53650 N 5081.71 -0.692666 -1.41562 0
M  V30 53651 C 5082.98 -0.150565 -1.9502 0
M  V30 53652 C 5083.36 1.33875 -1.63219 0
M  V30 53653 O 5082.71 2.08375 -0.937672 0
M  V30 53654 C 5082.92 -0.438758 -3.46231 0
M  V30 53655 C 5084.27 -0.364926 -4.23029 0
M  V30 53656 O 5085.29 -0.373507 -3.54236 0
M  V30 53657 O 5084.15 -0.322532 -5.45547 0
M  V30 53658 H 5081.25 -0.0132745 -0.826893 0
M  V30 53659 H 5083.79 -0.768627 -1.51295 0
M  V30 53660 H 5082.57 -1.46975 -3.62649 0
M  V30 53661 H 5082.19 0.210423 -3.97043 0
M  V30 53662 N 5083.19 1.51414 -0.437215 0
M  V30 53663 C 5084.12 2.30632 0.364841 0
M  V30 53664 C 5085.1 1.3604 1.02113 0
M  V30 53665 O 5086.28 1.64959 1.0248 0
M  V30 53666 C 5083.41 3.14825 1.46637 0
M  V30 53667 C 5082.37 4.17694 0.93357 0
M  V30 53668 C 5081.69 4.90408 2.13083 0
M  V30 53669 C 5082.99 5.2229 -0.0319037 0
M  V30 53670 H 5084.69 2.97931 -0.296245 0
M  V30 53671 H 5082.23 1.43279 -0.143915 0
M  V30 53672 H 5084.18 3.69024 2.03468 0
M  V30 53673 H 5082.91 2.45348 2.15574 0
M  V30 53674 H 5081.57 3.64547 0.387474 0
M  V30 53675 H 5081.22 4.17433 2.8064 0
M  V30 53676 H 5080.92 5.59968 1.78072 0
M  V30 53677 H 5082.44 5.4743 2.70468 0
M  V30 53678 H 5083.85 5.71562 0.446101 0
M  V30 53679 H 5082.25 5.99377 -0.294581 0
M  V30 53680 H 5083.32 4.75127 -0.968614 0
M  V30 53681 N 5084.66 0.168568 1.56696 0
M  V30 53682 C 5085.57 -0.775357 2.21417 0
M  V30 53683 C 5086.59 -1.25525 1.20497 0
M  V30 53684 O 5087.77 -1.30795 1.53149 0
M  V30 53685 C 5084.83 -1.9885 2.84006 0
M  V30 53686 C 5083.89 -1.55576 4.00118 0
M  V30 53687 C 5083.12 -2.71108 4.59713 0
M  V30 53688 O 5083.35 -3.87902 4.18196 0
M  V30 53689 O 5082.28 -2.45341 5.49629 0
M  V30 53690 H 5086.11 -0.25431 3.02633 0
M  V30 53691 H 5083.69 -0.0594982 1.49281 0
M  V30 53692 H 5085.57 -2.69805 3.23702 0
M  V30 53693 H 5084.25 -2.49866 2.05788 0
M  V30 53694 H 5083.16 -0.815796 3.65097 0
M  V30 53695 H 5084.49 -1.09254 4.79921 0
M  V30 53696 N 5086.14 -1.57249 -0.105165 0
M  V30 53697 C 5087.39 -1.85207 -0.808886 0
M  V30 53698 C 5087.71 -0.755803 -1.79757 0
M  V30 53699 O 5086.98 0.218916 -1.94673 0
M  V30 53700 H 5085.56 -0.683357 -0.301715 0
M  V30 53701 H 5088.22 -1.94696 -0.0891921 0
M  V30 53702 H 5087.32 -2.816 -1.34565 0
M  V30 53703 N 5087.62 0.375726 -1.53056 0
M  V30 53704 C 5088.57 1.48009 -1.79433 0
M  V30 53705 C 5089.56 1.55891 -0.662909 0
M  V30 53706 O 5090.77 1.58898 -0.845655 0
M  V30 53707 H 5087.14 0.492867 -0.567967 0
M  V30 53708 H 5089.11 1.22961 -2.71888 0
M  V30 53709 C 5087.86 2.84977 -1.99207 0
M  V30 53710 H 5087.19 2.79667 -2.85703 0
M  V30 53711 H 5088.63 3.61454 -2.21646 0
M  V30 53712 C 5087.09 3.28023 -0.768298 0
M  V30 53713 O 5087.62 4.01671 0.047907 0
M  V30 53714 N 5085.82 2.84451 -0.594621 0
M  V30 53715 H 5085.37 2.24684 -1.25996 0
M  V30 53716 H 5085.33 3.1361 0.222805 0
M  V30 53717 N 5089.1 1.44244 0.634946 0
M  V30 53718 C 5090.35 1.46826 1.39458 0
M  V30 53719 C 5090.67 0.0994045 1.94246 0
M  V30 53720 O 5089.93 -0.898264 1.73867 0
M  V30 53721 C 5090.23 2.47288 2.58037 0
M  V30 53722 C 5089.89 3.92711 2.2156 0
M  V30 53723 C 5088.56 4.32314 2.11325 0
M  V30 53724 C 5090.91 4.84277 1.92678 0
M  V30 53725 C 5088.24 5.61413 1.7039 0
M  V30 53726 C 5090.59 6.1376 1.53236 0
M  V30 53727 C 5089.25 6.52321 1.4154 0
M  V30 53728 H 5088.52 0.537274 0.510312 0
M  V30 53729 H 5091.17 1.77434 0.720378 0
M  V30 53730 H 5089.47 2.1015 3.30673 0
M  V30 53731 H 5091.17 2.46534 3.16262 0
M  V30 53732 H 5087.76 3.61378 2.30444 0
M  V30 53733 H 5091.94 4.54439 1.99497 0
M  V30 53734 H 5087.2 5.90111 1.59934 0
M  V30 53735 H 5091.37 6.84173 1.29925 0
M  V30 53736 H 5089 7.52259 1.09592 0
M  V30 53737 N 5090.58 -0.875004 1.31078 0
M  V30 53738 C 5091.81 -1.65813 1.23246 0
M  V30 53739 C 5092.21 -1.88081 -0.205469 0
M  V30 53740 O 5091.56 -1.43552 -1.14623 0
M  V30 53741 C 5091.62 -3.05124 1.90104 0
M  V30 53742 C 5091.28 -3.05987 3.39442 0
M  V30 53743 C 5092.28 -2.84313 4.35273 0
M  V30 53744 C 5089.97 -3.27268 3.81053 0
M  V30 53745 C 5091.96 -2.83892 5.70688 0
M  V30 53746 C 5089.65 -3.26475 5.16582 0
M  V30 53747 C 5090.64 -3.04813 6.1121 0
M  V30 53748 O 5090.33 -3.03856 7.44263 0
M  V30 53749 H 5090.06 -0.523855 0.427261 0
M  V30 53750 H 5092.62 -1.1008 1.73411 0
M  V30 53751 H 5090.85 -3.62563 1.34481 0
M  V30 53752 H 5092.54 -3.65635 1.76255 0
M  V30 53753 H 5093.3 -2.67659 4.04455 0
M  V30 53754 H 5089.18 -3.4316 3.07834 0
M  V30 53755 H 5092.73 -2.66903 6.44522 0
M  V30 53756 H 5088.62 -3.42667 5.47037 0
M  V30 53757 H 5089.39 -3.19952 7.53374 0
M  V30 53758 N 5092.05 -1.13957 -1.08865 0
M  V30 53759 C 5093.3 -0.903087 -1.808 0
M  V30 53760 C 5093.62 0.572085 -1.86419 0
M  V30 53761 O 5092.89 1.41585 -1.35391 0
M  V30 53762 H 5091.47 -0.331122 -0.669602 0
M  V30 53763 H 5094.14 -1.43723 -1.31642 0
M  V30 53764 H 5093.23 -1.2989 -2.83787 0
M  V30 53765 N 5093.53 1.26945 -0.933958 0
M  V30 53766 C 5094.94 1.76056 -0.621386 0
M  V30 53767 C 5095.29 1.76178 0.86346 0
M  V30 53768 O 5094.42 1.36926 1.67571 0
M  V30 53769 C 5095.01 3.19709 -1.12122 0
M  V30 53770 C 5093.57 3.66462 -0.859203 0
M  V30 53771 C 5092.72 2.46181 -1.27633 0
M  V30 53772 H 5095.67 1.13123 -1.11305 0
M  V30 53773 H 5095.69 3.77564 -0.471741 0
M  V30 53774 H 5095.2 3.19588 -2.20193 0
M  V30 53775 H 5093.31 3.72022 0.207435 0
M  V30 53776 H 5093.42 4.5563 -1.48114 0
M  V30 53777 H 5091.78 2.4504 -0.694814 0
M  V30 53778 H 5092.57 2.48765 -2.36581 0
M  V30 53779 N 5095.01 0.700164 1.41193 0
M  V30 53780 C 5096.26 0.233077 2.01154 0
M  V30 53781 C 5096.59 -1.16878 1.55466 0
M  V30 53782 O 5095.84 -1.80392 0.758759 0
M  V30 53783 C 5096.14 0.244112 3.56565 0
M  V30 53784 C 5095.81 1.59412 4.2178 0
M  V30 53785 C 5094.47 1.9637 4.39309 0
M  V30 53786 C 5096.82 2.48208 4.58304 0
M  V30 53787 C 5094.15 3.217 4.90638 0
M  V30 53788 C 5096.5 3.72875 5.11026 0
M  V30 53789 C 5095.16 4.0997 5.26765 0
M  V30 53790 H 5094.43 0.0852888 0.736075 0
M  V30 53791 H 5097.08 0.900159 1.69025 0
M  V30 53792 H 5095.39 -0.506526 3.88512 0
M  V30 53793 H 5097.08 -0.13489 4.00773 0
M  V30 53794 H 5093.67 1.29668 4.08515 0
M  V30 53795 H 5097.86 2.20934 4.44412 0
M  V30 53796 H 5093.11 3.50429 5.01008 0
M  V30 53797 H 5097.29 4.41862 5.38266 0
M  V30 53798 H 5094.91 5.07156 5.66301 0
M  V30 53799 N 5096.49 -1.5118 0.445239 0
M  V30 53800 C 5097.73 -2.02452 -0.118749 0
M  V30 53801 C 5098.07 -1.32829 -1.41669 0
M  V30 53802 O 5097.34 -0.445704 -1.89324 0
M  V30 53803 C 5097.63 -3.58591 -0.329349 0
M  V30 53804 C 5097.48 -4.3882 0.987792 0
M  V30 53805 C 5098.8 -4.26245 -1.0956 0
M  V30 53806 H 5095.92 -0.73582 -0.0416834 0
M  V30 53807 H 5098.56 -1.80745 0.585781 0
M  V30 53808 H 5096.71 -3.77218 -0.929468 0
M  V30 53809 H 5098.38 -4.31825 1.6225 0
M  V30 53810 H 5096.62 -4.03589 1.59055 0
M  V30 53811 H 5097.29 -5.46254 0.794384 0
M  V30 53812 H 5099.77 -4.11936 -0.587183 0
M  V30 53813 H 5098.65 -5.35358 -1.21172 0
M  V30 53814 H 5098.91 -3.87642 -2.1257 0
M  V30 53815 N 5097.97 -0.176876 -1.56604 0
M  V30 53816 C 5099.24 0.513299 -1.88745 0
M  V30 53817 C 5099.62 1.80925 -1.08763 0
M  V30 53818 O 5098.97 2.27764 -0.183207 0
M  V30 53819 C 5099.18 0.749805 -3.4085 0
M  V30 53820 C 5100.53 1.07733 -4.10705 0
M  V30 53821 O 5101.55 0.838155 -3.46198 0
M  V30 53822 O 5100.41 1.52883 -5.2468 0
M  V30 53823 H 5097.51 0.265269 -0.783302 0
M  V30 53824 H 5100.05 -0.215728 -1.68323 0
M  V30 53825 H 5098.82 -0.166127 -3.90947 0
M  V30 53826 H 5098.45 1.53195 -3.66902 0
M  V30 53827 N 5099.44 1.57302 0.0968247 0
M  V30 53828 C 5100.86 1.53096 0.450987 0
M  V30 53829 C 5101.06 0.893329 1.80615 0
M  V30 53830 O 5100.12 0.4851 2.47796 0
M  V30 53831 C 5101.43 2.97822 0.415067 0
M  V30 53832 C 5102.98 3.09028 0.497046 0
M  V30 53833 C 5103.45 4.55357 0.491292 0
M  V30 53834 N 5104.94 4.59898 0.552096 0
M  V30 53835 C 5105.68 5.70565 0.569454 0
M  V30 53836 N 5105.17 6.90668 0.543122 0
M  V30 53837 N 5106.97 5.58735 0.614135 0
M  V30 53838 H 5099.12 1.97128 -0.790841 0
M  V30 53839 H 5101.38 0.901201 -0.294179 0
M  V30 53840 H 5101.09 3.47931 -0.513484 0
M  V30 53841 H 5100.96 3.5642 1.23469 0
M  V30 53842 H 5103.35 2.58907 1.41602 0
M  V30 53843 H 5103.43 2.53385 -0.350679 0
M  V30 53844 H 5103.07 5.06129 -0.423727 0
M  V30 53845 H 5103 5.08837 1.35621 0
M  V30 53846 H 5105.49 3.73458 0.577711 0
M  V30 53847 H 5105.81 7.70771 0.559602 0
M  V30 53848 H 5104.15 6.93125 0.510197 0
M  V30 53849 H 5107.34 4.63811 0.632224 0
M  V30 53850 H 5107.52 6.44987 0.624193 0
M  V30 53851 N 5100.92 -0.367603 1.53253 0
M  V30 53852 C 5101.86 -1.47026 1.75829 0
M  V30 53853 C 5102.87 -1.49734 0.639033 0
M  V30 53854 O 5104.06 -1.5325 0.915247 0
M  V30 53855 C 5101.16 -2.85799 1.82132 0
M  V30 53856 C 5100.33 -3.06811 3.11746 0
M  V30 53857 C 5099.39 -4.25687 3.09317 0
M  V30 53858 O 5098.42 -4.20959 3.83122 0
M  V30 53859 N 5099.62 -5.32994 2.29995 0
M  V30 53860 H 5102.38 -1.28039 2.70973 0
M  V30 53861 H 5099.94 -0.55731 1.52005 0
M  V30 53862 H 5101.94 -3.63459 1.77987 0
M  V30 53863 H 5100.51 -2.98043 0.942821 0
M  V30 53864 H 5099.73 -2.16828 3.2921 0
M  V30 53865 H 5101.01 -3.17717 3.97408 0
M  V30 53866 H 5100.41 -5.39697 1.6954 0
M  V30 53867 H 5098.97 -6.09239 2.31671 0
M  V30 53868 N 5102.4 -1.44578 -0.627288 0
M  V30 53869 C 5103.63 -1.51053 -1.41388 0
M  V30 53870 C 5104.04 -0.136634 -1.88305 0
M  V30 53871 O 5103.4 0.858195 -1.61063 0
M  V30 53872 C 5103.45 -2.47846 -2.63163 0
M  V30 53873 O 5103.17 -3.79895 -2.18201 0
M  V30 53874 C 5104.67 -2.63823 -3.56247 0
M  V30 53875 H 5101.89 -0.512186 -0.433482 0
M  V30 53876 H 5104.44 -1.89579 -0.766811 0
M  V30 53877 H 5102.59 -2.12445 -3.23954 0
M  V30 53878 H 5103.01 -4.32187 -2.97177 0
M  V30 53879 H 5104.48 -3.3557 -4.38289 0
M  V30 53880 H 5104.96 -1.69183 -4.05307 0
M  V30 53881 H 5105.56 -3.00141 -3.01323 0
M  V30 53882 N 5103.88 0.86804 -1.3154 0
M  V30 53883 C 5104.84 1.95699 -1.19309 0
M  V30 53884 C 5105.84 1.60354 -0.119669 0
M  V30 53885 O 5107.03 1.70245 -0.36908 0
M  V30 53886 C 5104.16 3.30596 -0.8318 0
M  V30 53887 H 5105.36 2.07974 -2.16071 0
M  V30 53888 H 5102.91 1.05657 -1.15179 0
M  V30 53889 H 5103.65 3.24021 0.13458 0
M  V30 53890 H 5103.43 3.57623 -1.60774 0
M  V30 53891 H 5104.92 4.10437 -0.77017 0
M  V30 53892 N 5105.36 1.14532 1.0826 0
M  V30 53893 C 5106.29 0.791401 2.15103 0
M  V30 53894 C 5107.3 -0.192393 1.61659 0
M  V30 53895 O 5108.49 0.0295331 1.78476 0
M  V30 53896 C 5105.59 0.154302 3.38549 0
M  V30 53897 C 5104.76 1.1732 4.21373 0
M  V30 53898 C 5103.82 0.559584 5.23216 0
M  V30 53899 O 5102.85 1.22297 5.55907 0
M  V30 53900 N 5104.05 -0.662956 5.76702 0
M  V30 53901 H 5106.82 1.71085 2.46069 0
M  V30 53902 H 5104.38 1.03995 1.24084 0
M  V30 53903 H 5106.37 -0.268742 4.03807 0
M  V30 53904 H 5104.94 -0.668311 3.05373 0
M  V30 53905 H 5104.16 1.77313 3.52071 0
M  V30 53906 H 5105.45 1.86144 4.73527 0
M  V30 53907 H 5104.85 -1.22047 5.52378 0
M  V30 53908 H 5103.4 -1.02849 6.43635 0
M  V30 53909 N 5106.84 -1.26448 0.940677 0
M  V30 53910 C 5107.8 -2.24649 0.454457 0
M  V30 53911 C 5108.8 -1.54828 -0.434167 0
M  V30 53912 O 5109.99 -1.72629 -0.233417 0
M  V30 53913 C 5107.12 -3.39149 -0.345073 0
M  V30 53914 H 5108.31 -2.69177 1.32226 0
M  V30 53915 H 5105.87 -1.38594 0.722596 0
M  V30 53916 H 5106.6 -3.00022 -1.23114 0
M  V30 53917 H 5106.39 -3.91009 0.292244 0
M  V30 53918 H 5107.88 -4.12105 -0.675196 0
M  V30 53919 N 5108.31 -0.707642 -1.4082 0
M  V30 53920 C 5109.28 -0.058803 -2.29125 0
M  V30 53921 C 5110.28 0.695573 -1.44977 0
M  V30 53922 O 5111.47 0.52866 -1.65984 0
M  V30 53923 C 5108.6 0.926824 -3.28059 0
M  V30 53924 H 5109.79 -0.83645 -2.87999 0
M  V30 53925 H 5107.34 -0.47183 -1.49008 0
M  V30 53926 H 5108.08 1.73181 -2.74188 0
M  V30 53927 H 5107.86 0.388877 -3.90167 0
M  V30 53928 H 5109.35 1.37823 -3.94201 0
M  V30 53929 N 5109.79 1.50942 -0.45325 0
M  V30 53930 C 5111.04 2.01813 0.107638 0
M  V30 53931 C 5111.36 1.33846 1.41811 0
M  V30 53932 O 5110.63 0.478039 1.89978 0
M  V30 53933 H 5109.21 0.745775 0.0427686 0
M  V30 53934 H 5111.87 1.85448 -0.599596 0
M  V30 53935 H 5110.97 3.10912 0.272071 0
M  V30 53936 N 5111.27 0.185179 1.56508 0
M  V30 53937 C 5112.5 -0.462068 2.01674 0
M  V30 53938 C 5112.91 -1.55869 1.06537 0
M  V30 53939 O 5112.27 -1.82371 0.0685446 0
M  V30 53940 C 5112.32 -1.02758 3.46588 0
M  V30 53941 O 5112.04 0.0252836 4.38093 0
M  V30 53942 C 5113.54 -1.75169 4.07223 0
M  V30 53943 H 5110.76 -0.116978 0.660725 0
M  V30 53944 H 5113.31 0.290976 2.02419 0
M  V30 53945 H 5111.46 -1.73105 3.46574 0
M  V30 53946 H 5111.88 -0.394203 5.23017 0
M  V30 53947 H 5113.35 -2.09981 5.10502 0
M  V30 53948 H 5113.83 -2.65178 3.5011 0
M  V30 53949 H 5114.43 -1.0943 4.10981 0
M  V30 53950 N 5112.75 -1.57351 -0.0884812 0
M  V30 53951 C 5114.02 -1.77452 -0.822811 0
M  V30 53952 C 5114.4 -0.768532 -1.96613 0
M  V30 53953 O 5113.75 0.201677 -2.27608 0
M  V30 53954 C 5113.96 -3.2343 -1.31126 0
M  V30 53955 C 5115.31 -3.86797 -1.75138 0
M  V30 53956 O 5116.33 -3.27219 -1.40733 0
M  V30 53957 O 5115.19 -4.91577 -2.38777 0
M  V30 53958 H 5112.29 -0.727666 -0.392977 0
M  V30 53959 H 5114.83 -1.69556 -0.0698499 0
M  V30 53960 H 5113.61 -3.88189 -0.492404 0
M  V30 53961 H 5113.23 -3.35984 -2.12603 0
M  V30 53962 N 5114.23 0.359471 -1.53446 0
M  V30 53963 C 5115.45 1.12192 -1.73841 0
M  V30 53964 C 5115.87 1.82852 -0.470172 0
M  V30 53965 O 5115.23 1.73783 0.557288 0
M  V30 53966 C 5115.28 2.14758 -2.90794 0
M  V30 53967 O 5115 1.46974 -4.12711 0
M  V30 53968 C 5116.5 3.03503 -3.23111 0
M  V30 53969 H 5113.72 0.335219 -0.581265 0
M  V30 53970 H 5116.26 0.416527 -2.00213 0
M  V30 53971 H 5114.42 2.80887 -2.66798 0
M  V30 53972 H 5114.83 2.15362 -4.78246 0
M  V30 53973 H 5116.31 3.71438 -4.08335 0
M  V30 53974 H 5116.78 3.6865 -2.38734 0
M  V30 53975 H 5117.39 2.42983 -3.49055 0
M  V30 53976 N 5115.7 1.44909 0.619611 0
M  V30 53977 C 5116.93 1.518 1.40585 0
M  V30 53978 C 5117.35 0.146619 1.8823 0
M  V30 53979 O 5116.7 -0.849641 1.61516 0
M  V30 53980 C 5116.76 2.49238 2.61845 0
M  V30 53981 O 5116.48 3.81046 2.16183 0
M  V30 53982 C 5117.98 2.65709 3.54843 0
M  V30 53983 H 5115.2 0.514478 0.430759 0
M  V30 53984 H 5117.74 1.89983 0.756746 0
M  V30 53985 H 5115.9 2.1416 3.22822 0
M  V30 53986 H 5116.31 4.33757 2.94881 0
M  V30 53987 H 5117.78 3.37889 4.36503 0
M  V30 53988 H 5118.26 1.7133 4.04404 0
M  V30 53989 H 5118.87 3.01735 2.99727 0
M  V30 53990 N 5117.18 -0.861052 1.31999 0
M  V30 53991 C 5118.43 -1.60961 1.2155 0
M  V30 53992 C 5118.74 -1.94326 -0.222904 0
M  V30 53993 O 5119.95 -2.67759 -0.449178 0
M  V30 53994 C 5118.41 -2.90216 2.12845 0
M  V30 53995 C 5118.01 -2.643 3.61731 0
M  V30 53996 C 5119.76 -3.68222 2.11218 0
M  V30 53997 C 5117.67 -3.89517 4.45006 0
M  V30 53998 H 5116.6 -0.603972 0.451369 0
M  V30 53999 H 5119.25 -0.951303 1.56916 0
M  V30 54000 H 5117.63 -3.57469 1.70387 0
M  V30 54001 H 5118.8 -2.05398 4.1249 0
M  V30 54002 H 5117.12 -1.99634 3.65425 0
M  V30 54003 H 5119.71 -4.61128 2.70674 0
M  V30 54004 H 5120.06 -4.01462 1.10154 0
M  V30 54005 H 5120.59 -3.07864 2.51921 0
M  V30 54006 H 5117.33 -3.61422 5.46859 0
M  V30 54007 H 5116.85 -4.47837 3.99001 0
M  V30 54008 H 5118.53 -4.57317 4.57679 0
M  V30 54009 N 5118.66 -1.15105 -1.07651 0
M  V30 54010 C 5119.89 -0.947795 -1.83914 0
M  V30 54011 C 5120.3 0.503863 -1.81952 0
M  V30 54012 O 5119.66 1.34937 -1.22875 0
M  V30 54013 C 5119.71 -1.45041 -3.31127 0
M  V30 54014 O 5119.43 -2.8452 -3.33136 0
M  V30 54015 C 5120.93 -1.28821 -4.2417 0
M  V30 54016 H 5118.15 -0.336807 -0.580347 0
M  V30 54017 H 5120.7 -1.52804 -1.35909 0
M  V30 54018 H 5118.85 -0.912764 -3.76494 0
M  V30 54019 H 5119.27 -3.07245 -4.25089 0
M  V30 54020 H 5120.74 -1.68839 -5.25545 0
M  V30 54021 H 5121.22 -0.232006 -4.38587 0
M  V30 54022 H 5121.82 -1.81479 -3.84637 0
M  V30 54023 N 5120.14 1.25947 -0.94737 0
M  V30 54024 C 5121.38 1.93748 -0.599132 0
M  V30 54025 C 5121.72 1.74091 0.860571 0
M  V30 54026 O 5120.99 1.08164 1.6165 0
M  V30 54027 C 5121.28 3.47349 -0.949756 0
M  V30 54028 C 5121.13 3.76264 -2.46466 0
M  V30 54029 C 5122.45 4.37587 -0.469595 0
M  V30 54030 H 5119.57 0.703667 -0.21914 0
M  V30 54031 H 5122.21 1.48701 -1.18271 0
M  V30 54032 H 5120.36 3.85848 -0.453144 0
M  V30 54033 H 5122.03 3.47444 -3.03447 0
M  V30 54034 H 5120.27 3.22124 -2.90548 0
M  V30 54035 H 5120.94 4.83655 -2.66049 0
M  V30 54036 H 5123.42 4.0635 -0.895483 0
M  V30 54037 H 5122.3 5.43839 -0.743691 0
M  V30 54038 H 5122.56 4.37581 0.630464 0
M  V30 54039 N 5121.62 0.7151 1.40442 0
M  V30 54040 C 5122.56 0.0510791 2.32544 0
M  V30 54041 C 5123.56 -0.747549 1.52013 0
M  V30 54042 O 5124.76 -0.650972 1.67816 0
M  V30 54043 H 5121.14 -0.0022847 0.751997 0
M  V30 54044 H 5123.11 0.84459 2.86198 0
M  V30 54045 C 5121.86 -0.856983 3.36973 0
M  V30 54046 H 5121.18 -0.25186 3.99006 0
M  V30 54047 H 5122.62 -1.28956 4.03914 0
M  V30 54048 C 5121.08 -1.98221 2.72415 0
M  V30 54049 O 5121.61 -3.073 2.58708 0
M  V30 54050 N 5119.82 -1.76569 2.30807 0
M  V30 54051 H 5119.36 -0.878556 2.42155 0
M  V30 54052 H 5119.32 -2.52036 1.87949 0
M  V30 54053 N 5123.09 -1.50699 0.461248 0
M  V30 54054 C 5124.34 -2.02567 -0.0972698 0
M  V30 54055 C 5124.67 -1.34325 -1.40252 0
M  V30 54056 O 5123.95 -0.465759 -1.88841 0
M  V30 54057 C 5124.23 -3.5892 -0.291297 0
M  V30 54058 C 5124.08 -4.37747 1.03428 0
M  V30 54059 C 5125.4 -4.27383 -1.05033 0
M  V30 54060 H 5122.52 -0.736221 -0.0338767 0
M  V30 54061 H 5125.16 -1.80113 0.604919 0
M  V30 54062 H 5123.31 -3.78182 -0.889406 0
M  V30 54063 H 5124.99 -4.3008 1.66821 0
M  V30 54064 H 5123.23 -4.01879 1.63327 0
M  V30 54065 H 5123.9 -5.45381 0.852277 0
M  V30 54066 H 5126.38 -4.12536 -0.543458 0
M  V30 54067 H 5125.25 -5.36613 -1.15487 0
M  V30 54068 H 5125.51 -3.89875 -2.08447 0
M  V30 54069 N 5124.57 -0.193476 -1.56408 0
M  V30 54070 C 5125.5 0.723256 -2.22016 0
M  V30 54071 C 5126.48 1.2225 -1.18275 0
M  V30 54072 O 5127.67 1.27163 -1.46776 0
M  V30 54073 C 5124.8 1.94356 -2.87825 0
M  V30 54074 C 5123.75 1.57929 -3.97797 0
M  V30 54075 C 5123.08 2.87607 -4.50762 0
M  V30 54076 C 5124.38 0.790458 -5.16284 0
M  V30 54077 H 5126.07 0.176321 -2.9888 0
M  V30 54078 H 5123.62 0.0833661 -1.43758 0
M  V30 54079 H 5125.57 2.59008 -3.32405 0
M  V30 54080 H 5124.3 2.515 -2.08364 0
M  V30 54081 H 5122.95 0.956357 -3.53906 0
M  V30 54082 H 5122.6 3.42837 -3.68065 0
M  V30 54083 H 5122.3 2.63979 -5.24965 0
M  V30 54084 H 5123.83 3.53251 -4.98043 0
M  V30 54085 H 5125.24 1.34005 -5.57419 0
M  V30 54086 H 5123.64 0.65237 -5.96543 0
M  V30 54087 H 5124.71 -0.208804 -4.8445 0
M  V30 54088 N 5126.05 1.57396 0.0801353 0
M  V30 54089 C 5127.01 2.02137 1.08043 0
M  V30 54090 C 5128.01 0.917117 1.32082 0
M  V30 54091 O 5129.2 1.18221 1.27943 0
M  V30 54092 C 5126.34 2.39488 2.42608 0
M  V30 54093 H 5127.53 2.91736 0.694998 0
M  V30 54094 H 5125.08 1.5287 0.325623 0
M  V30 54095 H 5125.82 1.52889 2.85999 0
M  V30 54096 H 5125.6 3.2006 2.26504 0
M  V30 54097 H 5127.09 2.74708 3.14524 0
M  V30 54098 N 5127.53 -0.351328 1.53634 0
M  V30 54099 C 5128.77 -1.09043 1.71701 0
M  V30 54100 C 5129.13 -1.86561 0.47038 0
M  V30 54101 O 5128.42 -1.83924 -0.536889 0
M  V30 54102 C 5128.62 -2.06734 2.91541 0
M  V30 54103 C 5128.45 -1.38817 4.27738 0
M  V30 54104 C 5127.22 -1.13628 4.92358 0
M  V30 54105 C 5129.41 -0.818423 5.07746 0
M  V30 54106 N 5127.4 -0.422109 6.12447 0
M  V30 54107 C 5128.77 -0.234384 6.19557 0
M  V30 54108 C 5130.82 -0.718506 4.92688 0
M  V30 54109 C 5129.52 0.439845 7.17954 0
M  V30 54110 C 5131.55 -0.0580323 5.91372 0
M  V30 54111 C 5130.91 0.51507 7.02514 0
M  V30 54112 H 5127.01 -0.383673 0.68141 0
M  V30 54113 H 5129.6 -0.374996 1.91055 0
M  V30 54114 H 5127.77 -2.75576 2.73701 0
M  V30 54115 H 5129.5 -2.73426 2.98363 0
M  V30 54116 H 5126.25 -1.42134 4.51769 0
M  V30 54117 H 5126.68 -0.0799712 6.76953 0
M  V30 54118 H 5131.32 -1.14734 4.06935 0
M  V30 54119 H 5129.04 0.880589 8.03288 0
M  V30 54120 H 5132.62 0.0185428 5.81797 0
M  V30 54121 H 5131.5 1.01805 7.77564 0
M  V30 54122 N 5129.01 -1.45235 -0.611918 0
M  V30 54123 C 5129.94 -1.56416 -1.73368 0
M  V30 54124 C 5130.92 -0.415954 -1.64936 0
M  V30 54125 O 5132.1 -0.638543 -1.83402 0
M  V30 54126 C 5129.23 -1.52638 -3.1196 0
M  V30 54127 C 5128.19 -2.66131 -3.35199 0
M  V30 54128 C 5127.51 -2.47406 -4.74019 0
M  V30 54129 C 5128.81 -4.08169 -3.25877 0
M  V30 54130 H 5130.51 -2.50313 -1.64268 0
M  V30 54131 H 5128.05 -1.2047 -0.788861 0
M  V30 54132 H 5130.01 -1.59057 -3.90229 0
M  V30 54133 H 5128.73 -0.552678 -3.2189 0
M  V30 54134 H 5127.39 -2.59132 -2.59318 0
M  V30 54135 H 5127.04 -1.48185 -4.80677 0
M  V30 54136 H 5126.74 -3.23511 -4.90524 0
M  V30 54137 H 5128.26 -2.55673 -5.54494 0
M  V30 54138 H 5129.67 -4.16434 -3.94025 0
M  V30 54139 H 5128.07 -4.8463 -3.53913 0
M  V30 54140 H 5129.14 -4.30382 -2.23382 0
M  V30 54141 N 5130.49 0.85404 -1.32453 0
M  V30 54142 C 5131.72 1.63832 -1.25868 0
M  V30 54143 C 5132.12 1.88384 0.175521 0
M  V30 54144 O 5131.47 1.45357 1.12325 0
M  V30 54145 C 5131.53 3.02061 -1.94934 0
M  V30 54146 C 5131.19 3.00548 -3.44267 0
M  V30 54147 C 5132.19 2.77352 -4.39741 0
M  V30 54148 C 5129.87 3.21164 -3.86211 0
M  V30 54149 C 5131.87 2.74777 -5.75132 0
M  V30 54150 C 5129.56 3.18215 -5.21711 0
M  V30 54151 C 5130.55 2.9505 -6.15982 0
M  V30 54152 O 5130.24 2.91977 -7.49003 0
M  V30 54153 H 5129.97 0.516991 -0.435541 0
M  V30 54154 H 5132.53 1.07307 -1.75141 0
M  V30 54155 H 5130.76 3.60377 -1.40232 0
M  V30 54156 H 5132.45 3.62785 -1.8205 0
M  V30 54157 H 5133.21 2.61191 -4.08662 0
M  V30 54158 H 5129.09 3.3822 -3.13255 0
M  V30 54159 H 5132.64 2.56615 -6.48687 0
M  V30 54160 H 5128.53 3.33921 -5.52419 0
M  V30 54161 H 5129.3 3.07926 -7.58369 0
M  V30 54162 N 5131.96 1.15674 1.07039 0
M  V30 54163 C 5132.93 0.858981 2.12495 0
M  V30 54164 C 5133.93 -0.142679 1.60166 0
M  V30 54165 O 5135.12 0.0873289 1.73981 0
M  V30 54166 C 5132.25 0.28314 3.39722 0
M  V30 54167 H 5133.44 1.79376 2.40342 0
M  V30 54168 H 5130.99 0.964651 1.2298 0
M  V30 54169 H 5131.73 -0.659684 3.1752 0
M  V30 54170 H 5131.51 1.0048 3.79007 0
M  V30 54171 H 5133 0.0925011 4.17498 0
M  V30 54172 N 5133.44 -1.25443 0.954036 0
M  V30 54173 C 5134.4 -2.24155 0.478258 0
M  V30 54174 C 5135.4 -1.5528 -0.417721 0
M  V30 54175 O 5136.59 -1.72867 -0.215094 0
M  V30 54176 C 5133.73 -3.39496 -0.309082 0
M  V30 54177 H 5134.92 -2.67759 1.35074 0
M  V30 54178 H 5132.47 -1.3782 0.737255 0
M  V30 54179 H 5133.21 -3.01311 -1.19925 0
M  V30 54180 H 5132.99 -3.90677 0.333699 0
M  V30 54181 H 5134.48 -4.12798 -0.631449 0
M  V30 54182 N 5134.92 -0.722538 -1.40061 0
M  V30 54183 C 5136.17 -0.265442 -2.01055 0
M  V30 54184 C 5136.5 1.14056 -1.57178 0
M  V30 54185 O 5135.77 1.77512 -0.794979 0
M  V30 54186 C 5136.06 -0.353283 -3.58363 0
M  V30 54187 C 5135.91 -1.79816 -4.12294 0
M  V30 54188 C 5137.23 0.271523 -4.39262 0
M  V30 54189 H 5134.35 -0.0979259 -0.730465 0
M  V30 54190 H 5136.99 -0.916348 -1.66442 0
M  V30 54191 H 5135.14 0.2009 -3.8798 0
M  V30 54192 H 5136.81 -2.40827 -3.93447 0
M  V30 54193 H 5135.05 -2.32361 -3.66321 0
M  V30 54194 H 5135.73 -1.81097 -5.21448 0
M  V30 54195 H 5138.2 -0.200753 -4.15615 0
M  V30 54196 H 5137.08 0.17965 -5.48606 0
M  V30 54197 H 5137.34 1.35597 -4.20792 0
M  V30 54198 N 5136.4 1.50453 -0.469234 0
M  V30 54199 C 5137.65 2.01508 0.0880717 0
M  V30 54200 C 5137.96 1.35618 1.40951 0
M  V30 54201 O 5139.17 1.77819 2.05165 0
M  V30 54202 C 5137.62 3.59302 0.20747 0
M  V30 54203 C 5137.23 4.34148 -1.10542 0
M  V30 54204 C 5138.97 4.18404 0.716834 0
M  V30 54205 C 5136.88 5.83721 -0.949922 0
M  V30 54206 H 5135.81 0.753107 0.0366891 0
M  V30 54207 H 5138.46 1.7328 -0.603848 0
M  V30 54208 H 5136.84 3.84109 0.96313 0
M  V30 54209 H 5138.02 4.21066 -1.87189 0
M  V30 54210 H 5136.33 3.86646 -1.54576 0
M  V30 54211 H 5138.93 5.27898 0.850178 0
M  V30 54212 H 5139.27 3.79663 1.70768 0
M  V30 54213 H 5139.81 3.97796 0.0186113 0
M  V30 54214 H 5136.54 6.26931 -1.91409 0
M  V30 54215 H 5136.06 5.99382 -0.223802 0
M  V30 54216 H 5137.74 6.44063 -0.615796 0
M  V30 54217 N 5137.88 0.201768 1.56303 0
M  V30 54218 C 5138.82 -0.733056 2.20747 0
M  V30 54219 C 5139.82 -1.21476 1.18068 0
M  V30 54220 O 5141.02 -1.17688 1.36197 0
M  V30 54221 H 5137.4 -0.254764 0.70753 0
M  V30 54222 H 5139.37 -0.165891 2.97939 0
M  V30 54223 C 5138.12 -1.93915 2.88604 0
M  V30 54224 H 5137.44 -1.57757 3.67359 0
M  V30 54225 H 5138.88 -2.57146 3.37123 0
M  V30 54226 C 5137.34 -2.78213 1.89998 0
M  V30 54227 O 5137.87 -3.76348 1.40446 0
M  V30 54228 N 5136.08 -2.43842 1.58081 0
M  V30 54229 H 5135.62 -1.64096 1.98571 0
M  V30 54230 H 5135.58 -3.00527 0.92363 0
M  V30 54231 N 5139.35 -1.57436 -0.071787 0
M  V30 54232 C 5140.6 -1.86881 -0.769419 0
M  V30 54233 C 5140.92 -0.793762 -1.78113 0
M  V30 54234 O 5140.19 0.177574 -1.95094 0
M  V30 54235 H 5138.77 -0.689603 -0.287152 0
M  V30 54236 H 5141.43 -1.94841 -0.0478742 0
M  V30 54237 H 5140.53 -2.84391 -1.28562 0
M  V30 54238 N 5140.83 0.343176 -1.53818 0
M  V30 54239 C 5142.11 1.10042 -1.6171 0
M  V30 54240 C 5142.49 2.06494 -0.438586 0
M  V30 54241 O 5141.84 2.21299 0.56911 0
M  V30 54242 C 5142.05 1.81974 -2.97803 0
M  V30 54243 C 5143.39 2.35705 -3.53169 0
M  V30 54244 O 5144.42 1.9207 -2.99979 0
M  V30 54245 O 5143.28 3.15535 -4.46206 0
M  V30 54246 H 5140.37 0.506073 -0.654079 0
M  V30 54247 H 5142.92 0.344639 -1.66164 0
M  V30 54248 H 5141.69 1.11709 -3.75016 0
M  V30 54249 H 5141.31 2.64409 -2.96941 0
M  V30 54250 N 5142.31 1.45558 0.604207 0
M  V30 54251 C 5143.73 1.30038 0.925322 0
M  V30 54252 C 5143.93 0.255903 1.99868 0
M  V30 54253 O 5142.98 -0.348988 2.50077 0
M  V30 54254 C 5144.29 2.68033 1.36304 0
M  V30 54255 C 5145.84 2.75956 1.47707 0
M  V30 54256 C 5146.32 4.14483 1.94854 0
M  V30 54257 N 5147.81 4.16794 2.02082 0
M  V30 54258 C 5148.54 5.20853 2.39791 0
M  V30 54259 N 5148.04 6.35256 2.76445 0
M  V30 54260 N 5149.83 5.08212 2.40159 0
M  V30 54261 H 5141.98 2.12139 -0.105194 0
M  V30 54262 H 5144.25 0.947872 0.015597 0
M  V30 54263 H 5143.95 3.45669 0.648507 0
M  V30 54264 H 5143.83 2.96719 2.32889 0
M  V30 54265 H 5146.21 1.98621 2.18251 0
M  V30 54266 H 5146.29 2.50979 0.494283 0
M  V30 54267 H 5145.94 4.92304 1.24895 0
M  V30 54268 H 5145.87 4.36853 2.94052 0
M  V30 54269 H 5148.36 3.34239 1.76332 0
M  V30 54270 H 5148.67 7.10449 3.04109 0
M  V30 54271 H 5147.02 6.38652 2.74133 0
M  V30 54272 H 5150.21 4.17882 2.10933 0
M  V30 54273 H 5150.38 5.89427 2.69221 0
M  V30 54274 N 5143.79 -0.847003 1.32905 0
M  V30 54275 C 5145.03 -1.60385 1.25093 0
M  V30 54276 C 5145.39 -1.91521 -0.183656 0
M  V30 54277 O 5144.68 -1.55201 -1.12353 0
M  V30 54278 C 5144.88 -2.92655 2.05153 0
M  V30 54279 C 5144.7 -2.74437 3.56251 0
M  V30 54280 C 5143.47 -2.72419 4.25577 0
M  V30 54281 C 5145.67 -2.4765 4.50748 0
M  V30 54282 N 5143.65 -2.45493 5.62678 0
M  V30 54283 C 5145.03 -2.30199 5.75681 0
M  V30 54284 C 5147.08 -2.3318 4.39922 0
M  V30 54285 C 5145.78 -1.99748 6.91009 0
M  V30 54286 C 5147.81 -2.04121 5.55057 0
M  V30 54287 C 5147.17 -1.87476 6.78993 0
M  V30 54288 H 5143.27 -0.590278 0.512929 0
M  V30 54289 H 5145.85 -0.994999 1.67355 0
M  V30 54290 H 5144.03 -3.51505 1.65224 0
M  V30 54291 H 5145.76 -3.57764 1.89175 0
M  V30 54292 H 5142.51 -2.85634 3.7777 0
M  V30 54293 H 5142.94 -2.34936 6.34928 0
M  V30 54294 H 5147.58 -2.44765 3.44746 0
M  V30 54295 H 5145.3 -1.869 7.86189 0
M  V30 54296 H 5148.88 -1.93692 5.48612 0
M  V30 54297 H 5147.76 -1.65312 7.66578 0
M  V30 54298 N 5145.27 -1.1624 -1.06424 0
M  V30 54299 C 5146.51 -0.943097 -1.79198 0
M  V30 54300 C 5146.84 0.529178 -1.87163 0
M  V30 54301 O 5146.1 1.40869 -1.35847 0
M  V30 54302 C 5146.4 -1.51408 -3.23745 0
M  V30 54303 C 5146.06 -3.00845 -3.35862 0
M  V30 54304 C 5144.72 -3.41638 -3.38876 0
M  V30 54305 C 5147.08 -3.96837 -3.3789 0
M  V30 54306 C 5144.4 -4.77045 -3.41533 0
M  V30 54307 C 5146.76 -5.32128 -3.42085 0
M  V30 54308 C 5145.42 -5.72404 -3.43381 0
M  V30 54309 H 5144.69 -0.345104 -0.655732 0
M  V30 54310 H 5147.34 -1.44934 -1.25166 0
M  V30 54311 H 5145.64 -0.929247 -3.80621 0
M  V30 54312 H 5147.34 -1.32009 -3.78648 0
M  V30 54313 H 5143.93 -2.68318 -3.34221 0
M  V30 54314 H 5148.11 -3.66388 -3.34774 0
M  V30 54315 H 5143.37 -5.07581 -3.4084 0
M  V30 54316 H 5147.54 -6.06298 -3.42602 0
M  V30 54317 H 5145.17 -6.77308 -3.45192 0
M  V30 54318 N 5146.74 1.24935 -0.960675 0
M  V30 54319 C 5147.67 2.27998 -0.503895 0
M  V30 54320 C 5148.66 1.63961 0.452871 0
M  V30 54321 O 5149.84 1.91011 0.350518 0
M  V30 54322 C 5146.97 3.46644 0.213413 0
M  V30 54323 C 5145.92 4.22901 -0.658683 0
M  V30 54324 C 5145.25 5.34363 0.189714 0
M  V30 54325 C 5146.55 4.84942 -1.9398 0
M  V30 54326 H 5148.24 2.66458 -1.36531 0
M  V30 54327 H 5145.79 1.2809 -0.657942 0
M  V30 54328 H 5147.74 4.17872 0.544139 0
M  V30 54329 H 5146.47 3.07191 1.10912 0
M  V30 54330 H 5145.13 3.53464 -0.972579 0
M  V30 54331 H 5144.77 4.91151 1.08536 0
M  V30 54332 H 5144.47 5.86301 -0.390537 0
M  V30 54333 H 5146 6.08422 0.51527 0
M  V30 54334 H 5147.41 5.48282 -1.6751 0
M  V30 54335 H 5145.81 5.47082 -2.4662 0
M  V30 54336 H 5146.88 4.06789 -2.63914 0
M  V30 54337 N 5148.22 0.729956 1.39676 0
M  V30 54338 C 5149.17 0.0757406 2.32477 0
M  V30 54339 C 5150.16 -0.731384 1.52798 0
M  V30 54340 O 5151.37 -0.633136 1.68497 0
M  V30 54341 H 5147.75 0.00569136 0.751978 0
M  V30 54342 H 5149.72 0.874898 2.85286 0
M  V30 54343 C 5148.47 -0.821194 3.37863 0
M  V30 54344 H 5147.79 -0.209526 3.99251 0
M  V30 54345 H 5149.23 -1.24665 4.05259 0
M  V30 54346 C 5147.69 -1.9532 2.74502 0
M  V30 54347 O 5148.22 -3.04538 2.61953 0
M  V30 54348 N 5146.42 -1.74111 2.32666 0
M  V30 54349 H 5145.97 -0.852823 2.43073 0
M  V30 54350 H 5145.93 -2.50029 1.90612 0
M  V30 54351 N 5149.7 -1.50202 0.477206 0
M  V30 54352 C 5151.12 -1.59056 0.131719 0
M  V30 54353 C 5151.32 -1.48478 -1.36222 0
M  V30 54354 O 5150.37 -1.34642 -2.13607 0
M  V30 54355 C 5151.69 -2.92739 0.687357 0
M  V30 54356 C 5153.23 -3.06148 0.651331 0
M  V30 54357 C 5153.71 -4.42415 1.18462 0
M  V30 54358 N 5155.2 -4.48843 1.14429 0
M  V30 54359 C 5155.93 -5.52684 1.52736 0
M  V30 54360 N 5155.43 -6.63747 1.98522 0
M  V30 54361 N 5157.22 -5.43262 1.44301 0
M  V30 54362 H 5149.37 -1.5532 1.44877 0
M  V30 54363 H 5151.64 -0.734374 0.599498 0
M  V30 54364 H 5151.34 -3.05974 1.73416 0
M  V30 54365 H 5151.22 -3.76961 0.134348 0
M  V30 54366 H 5153.6 -2.92557 -0.386574 0
M  V30 54367 H 5153.69 -2.23668 1.24121 0
M  V30 54368 H 5153.33 -4.56756 2.22119 0
M  V30 54369 H 5153.26 -5.23496 0.570893 0
M  V30 54370 H 5155.75 -3.69149 0.808546 0
M  V30 54371 H 5156.06 -7.39051 2.25885 0
M  V30 54372 H 5154.41 -6.64851 2.0248 0
M  V30 54373 H 5157.6 -4.55383 1.08368 0
M  V30 54374 H 5157.77 -6.24068 1.74481 0
M  V30 54375 N 5151.18 -0.210054 -1.56194 0
M  V30 54376 C 5152.43 0.424743 -1.97995 0
M  V30 54377 C 5152.75 1.60585 -1.09739 0
M  V30 54378 O 5152.01 1.952 -0.139762 0
M  V30 54379 C 5152.31 0.912999 -3.45542 0
M  V30 54380 C 5151.97 -0.156345 -4.50629 0
M  V30 54381 C 5150.64 -0.450134 -4.7909 0
M  V30 54382 C 5152.99 -0.88014 -5.13715 0
M  V30 54383 C 5150.32 -1.47243 -5.67923 0
M  V30 54384 C 5152.67 -1.89169 -6.03654 0
M  V30 54385 C 5151.33 -2.19252 -6.30464 0
M  V30 54386 H 5150.6 0.155425 -0.724517 0
M  V30 54387 H 5153.25 -0.310162 -1.88972 0
M  V30 54388 H 5151.55 1.72645 -3.51711 0
M  V30 54389 H 5153.25 1.41382 -3.7525 0
M  V30 54390 H 5149.84 0.082796 -4.2852 0
M  V30 54391 H 5154.02 -0.666403 -4.91806 0
M  V30 54392 H 5149.28 -1.71126 -5.86963 0
M  V30 54393 H 5153.45 -2.45768 -6.51591 0
M  V30 54394 H 5151.08 -2.98611 -6.99096 0
M  V30 54395 N 5152.66 1.57472 0.0634368 0
M  V30 54396 C 5153.88 1.91889 0.773699 0
M  V30 54397 C 5154.3 0.806793 1.70694 0
M  V30 54398 O 5153.66 -0.21932 1.81177 0
M  V30 54399 C 5153.71 3.26097 1.56022 0
M  V30 54400 O 5153.43 4.33031 0.664488 0
M  V30 54401 C 5154.93 3.74581 2.37074 0
M  V30 54402 H 5152.15 0.634082 0.219503 0
M  V30 54403 H 5154.69 2.04476 0.0312109 0
M  V30 54404 H 5152.85 3.15012 2.25491 0
M  V30 54405 H 5153.26 5.10295 1.2124 0
M  V30 54406 H 5154.74 4.71094 2.87705 0
M  V30 54407 H 5155.21 3.04014 3.16973 0
M  V30 54408 H 5155.82 3.88637 1.72746 0
M  V30 54409 N 5154.13 -0.335013 1.53998 0
M  V30 54410 C 5155.36 -1.09412 1.75603 0
M  V30 54411 C 5155.78 -1.82081 0.499202 0
M  V30 54412 O 5155.13 -1.74648 -0.52957 0
M  V30 54413 C 5155.19 -2.10105 2.94174 0
M  V30 54414 O 5154.91 -1.4039 4.14997 0
M  V30 54415 C 5156.41 -2.98324 3.27899 0
M  V30 54416 H 5153.63 -0.32593 0.586524 0
M  V30 54417 H 5156.17 -0.384622 2.0085 0
M  V30 54418 H 5154.33 -2.76607 2.71233 0
M  V30 54419 H 5154.74 -2.07726 4.81612 0
M  V30 54420 H 5156.21 -3.64895 4.14193 0
M  V30 54421 H 5156.69 -3.64805 2.44569 0
M  V30 54422 H 5157.3 -2.37399 3.52876 0
M  V30 54423 N 5155.61 -1.45876 -0.596479 0
M  V30 54424 C 5156.84 -1.54018 -1.38153 0
M  V30 54425 C 5157.26 -0.176546 -1.87973 0
M  V30 54426 O 5156.61 0.823838 -1.62847 0
M  V30 54427 C 5156.66 -2.53372 -2.57846 0
M  V30 54428 O 5156.38 -3.84437 -2.10094 0
M  V30 54429 C 5157.89 -2.7132 -3.50571 0
M  V30 54430 H 5155.11 -0.521266 -0.42252 0
M  V30 54431 H 5157.65 -1.91163 -0.726426 0
M  V30 54432 H 5155.8 -2.19269 -3.19374 0
M  V30 54433 H 5156.22 -4.38394 -2.87943 0
M  V30 54434 H 5157.69 -3.44791 -4.31072 0
M  V30 54435 H 5158.17 -1.77742 -4.01627 0
M  V30 54436 H 5158.78 -3.06465 -2.94889 0
M  V30 54437 N 5157.09 0.839943 -1.33352 0
M  V30 54438 C 5158.02 1.96495 -1.26142 0
M  V30 54439 C 5159 1.69504 -0.142212 0
M  V30 54440 O 5160.19 1.91344 -0.331811 0
M  V30 54441 C 5157.32 3.32629 -0.998777 0
M  V30 54442 C 5156.27 3.74014 -2.08081 0
M  V30 54443 C 5155.6 5.07941 -1.67032 0
M  V30 54444 C 5156.9 3.87912 -3.49745 0
M  V30 54445 H 5158.59 2.02785 -2.20269 0
M  V30 54446 H 5156.14 0.97426 -1.06039 0
M  V30 54447 H 5158.09 4.109 -0.93484 0
M  V30 54448 H 5156.81 3.26593 -0.0218907 0
M  V30 54449 H 5155.47 2.98005 -2.13515 0
M  V30 54450 H 5155.12 4.98376 -0.680491 0
M  V30 54451 H 5154.82 5.36602 -2.3944 0
M  V30 54452 H 5156.34 5.88689 -1.62103 0
M  V30 54453 H 5157.76 4.56498 -3.46818 0
M  V30 54454 H 5156.16 4.28008 -4.20629 0
M  V30 54455 H 5157.23 2.90394 -3.88329 0
M  V30 54456 N 5158.57 1.16803 1.05806 0
M  V30 54457 C 5159.52 0.875186 2.15507 0
M  V30 54458 C 5160.51 -0.157722 1.68664 0
M  V30 54459 O 5161.72 -0.0112338 1.79996 0
M  V30 54460 H 5158.09 0.265444 0.703593 0
M  V30 54461 H 5160.06 1.80768 2.37414 0
M  V30 54462 C 5158.81 0.398142 3.45413 0
M  V30 54463 H 5158.13 1.18439 3.81854 0
M  V30 54464 H 5159.57 0.232062 4.23364 0
M  V30 54465 C 5158.03 -0.883156 3.25118 0
M  V30 54466 O 5158.56 -1.95133 3.51121 0
M  V30 54467 N 5156.77 -0.828863 2.78529 0
M  V30 54468 H 5156.32 0.0405935 2.57568 0
M  V30 54469 H 5156.27 -1.68664 2.6533 0
M  V30 54470 N 5160.05 -1.24424 0.967287 0
M  V30 54471 C 5161.32 -1.8783 0.545842 0
M  V30 54472 C 5161.7 -1.87129 -0.977033 0
M  V30 54473 O 5161.05 -1.34363 -1.84821 0
M  V30 54474 C 5161.26 -3.29963 1.1369 0
M  V30 54475 C 5162.61 -4.06649 1.22154 0
M  V30 54476 O 5163.63 -3.39133 1.08938 0
M  V30 54477 O 5162.49 -5.27449 1.43036 0
M  V30 54478 H 5159.59 -0.806738 0.181941 0
M  V30 54479 H 5162.13 -1.32399 1.06153 0
M  V30 54480 H 5160.91 -3.24969 2.17969 0
M  V30 54481 H 5160.53 -3.92967 0.605232 0
M  V30 54482 N 5161.53 -0.737353 -1.39287 0
M  V30 54483 C 5162.77 -0.286327 -2.00466 0
M  V30 54484 C 5163.1 1.12715 -1.58511 0
M  V30 54485 O 5162.36 1.78317 -0.80632 0
M  V30 54486 C 5162.65 -0.338563 -3.55793 0
M  V30 54487 C 5162.32 -1.70539 -4.17405 0
M  V30 54488 C 5160.98 -2.07949 -4.33948 0
M  V30 54489 C 5163.33 -2.60272 -4.51562 0
M  V30 54490 C 5160.66 -3.34595 -4.81937 0
M  V30 54491 C 5163.01 -3.86292 -5.0096 0
M  V30 54492 C 5161.68 -4.23792 -5.1571 0
M  V30 54493 H 5160.95 -0.104775 -0.733555 0
M  V30 54494 H 5163.6 -0.944657 -1.66579 0
M  V30 54495 H 5161.9 0.403341 -3.89718 0
M  V30 54496 H 5163.6 0.0285845 -4.0099 0
M  V30 54497 H 5160.19 -1.40454 -4.04933 0
M  V30 54498 H 5164.37 -2.32639 -4.38398 0
M  V30 54499 H 5159.63 -3.63589 -4.91541 0
M  V30 54500 H 5163.8 -4.55978 -5.26362 0
M  V30 54501 H 5161.43 -5.21992 -5.52656 0
M  V30 54502 N 5163 1.49946 -0.485165 0
M  V30 54503 C 5163.95 2.3045 0.315528 0
M  V30 54504 C 5164.95 1.38354 0.977467 0
M  V30 54505 O 5166.15 1.5548 0.906964 0
M  V30 54506 H 5162.53 0.742266 0.120603 0
M  V30 54507 H 5164.5 2.95923 -0.383656 0
M  V30 54508 C 5163.25 3.19287 1.37662 0
M  V30 54509 H 5162.57 3.9007 0.876664 0
M  V30 54510 H 5164.01 3.78586 1.90916 0
M  V30 54511 C 5162.47 2.37825 2.38623 0
M  V30 54512 O 5163 2.07122 3.44185 0
M  V30 54513 N 5161.2 2.00142 2.10693 0
M  V30 54514 H 5160.75 2.25311 1.2487 0
M  V30 54515 H 5160.71 1.45943 2.78475 0
M  V30 54516 N 5164.48 0.218335 1.5608 0
M  V30 54517 C 5165.41 -0.687844 2.23139 0
M  V30 54518 C 5166.39 -1.20353 1.20205 0
M  V30 54519 O 5167.58 -1.24812 1.4878 0
M  V30 54520 C 5164.71 -1.89752 2.90881 0
M  V30 54521 C 5163.66 -1.5158 4.00259 0
M  V30 54522 C 5162.99 -2.80399 4.55281 0
M  V30 54523 C 5164.29 -0.708222 5.17476 0
M  V30 54524 H 5165.98 -0.128749 2.99123 0
M  V30 54525 H 5163.53 -0.0604848 1.43873 0
M  V30 54526 H 5165.48 -2.53687 3.36483 0
M  V30 54527 H 5164.2 -2.48153 2.12339 0
M  V30 54528 H 5162.86 -0.899933 3.55383 0
M  V30 54529 H 5162.51 -3.36938 3.73473 0
M  V30 54530 H 5162.21 -2.55594 5.29099 0
M  V30 54531 H 5163.74 -3.45282 5.03599 0
M  V30 54532 H 5165.15 -1.2512 5.5948 0
M  V30 54533 H 5163.55 -0.557383 5.97506 0
M  V30 54534 H 5164.62 0.285849 4.84057 0
M  V30 54535 N 5165.96 -1.57504 -0.0550848 0
M  V30 54536 C 5167.21 -1.88336 -0.75215 0
M  V30 54537 C 5167.54 -0.812804 -1.76372 0
M  V30 54538 O 5166.81 0.17513 -1.9371 0
M  V30 54539 C 5167.1 -3.29829 -1.44516 0
M  V30 54540 C 5166.95 -4.47555 -0.448869 0
M  V30 54541 C 5168.27 -3.69816 -2.38588 0
M  V30 54542 H 5165.39 -0.684982 -0.271971 0
M  V30 54543 H 5168.03 -1.89994 -0.0151227 0
M  V30 54544 H 5166.18 -3.28546 -2.07339 0
M  V30 54545 H 5167.85 -4.60966 0.175439 0
M  V30 54546 H 5166.09 -4.33167 0.234314 0
M  V30 54547 H 5166.77 -5.4338 -0.971726 0
M  V30 54548 H 5169.24 -3.72299 -1.85829 0
M  V30 54549 H 5168.12 -4.69675 -2.84071 0
M  V30 54550 H 5168.38 -3.00652 -3.24131 0
M  V30 54551 N 5167.44 0.326842 -1.54174 0
M  V30 54552 C 5168.4 1.38508 -1.82614 0
M  V30 54553 C 5169.4 1.44869 -0.697822 0
M  V30 54554 O 5170.59 1.44954 -0.966129 0
M  V30 54555 C 5167.72 2.77274 -1.98323 0
M  V30 54556 H 5168.92 1.14546 -2.77163 0
M  V30 54557 H 5166.47 0.562148 -1.45841 0
M  V30 54558 H 5167.2 3.06496 -1.05974 0
M  V30 54559 H 5166.99 2.74051 -2.80425 0
M  V30 54560 H 5168.48 3.53837 -2.21786 0
M  V30 54561 N 5168.92 1.46191 0.588735 0
M  V30 54562 C 5169.85 1.50806 1.71268 0
M  V30 54563 C 5170.83 0.362691 1.58503 0
M  V30 54564 O 5172.01 0.565962 1.79803 0
M  V30 54565 C 5169.14 1.38093 3.0927 0
M  V30 54566 C 5168.18 2.56735 3.40572 0
M  V30 54567 S 5169.02 4.19122 3.33313 0
M  V30 54568 C 5170.17 4.08907 4.73862 0
M  V30 54569 H 5170.41 2.459 1.67094 0
M  V30 54570 H 5167.94 1.34003 0.766978 0
M  V30 54571 H 5169.9 1.31446 3.88886 0
M  V30 54572 H 5168.56 0.444368 3.10941 0
M  V30 54573 H 5167.75 2.43817 4.411 0
M  V30 54574 H 5167.35 2.60341 2.68512 0
M  V30 54575 H 5169.64 3.75216 5.64109 0
M  V30 54576 H 5170.59 5.09413 4.91838 0
M  V30 54577 H 5171 3.40255 4.50429 0
M  V30 54578 N 5170.39 -0.832859 1.33795 0
M  V30 54579 C 5171.34 -1.9431 1.24548 0
M  V30 54580 C 5172.31 -1.65645 0.122812 0
M  V30 54581 O 5173.5 -1.88393 0.302107 0
M  V30 54582 C 5170.64 -3.30392 0.996757 0
M  V30 54583 C 5169.75 -3.71414 2.20625 0
M  V30 54584 C 5168.88 -4.96395 1.89118 0
M  V30 54585 C 5167.92 -5.29969 3.06266 0
M  V30 54586 N 5167.06 -6.46127 2.74707 0
M  V30 54587 H 5171.9 -2.01551 2.19502 0
M  V30 54588 H 5169.44 -0.986205 1.09144 0
M  V30 54589 H 5171.39 -4.088 0.832961 0
M  V30 54590 H 5170.02 -3.22691 0.0839377 0
M  V30 54591 H 5169.08 -2.88479 2.47959 0
M  V30 54592 H 5170.39 -3.92204 3.08184 0
M  V30 54593 H 5169.54 -5.82566 1.69417 0
M  V30 54594 H 5168.28 -4.77586 0.98805 0
M  V30 54595 H 5167.29 -4.423 3.26574 0
M  V30 54596 H 5168.51 -5.50723 3.97343 0
M  V30 54597 H 5166.46 -6.28794 1.8696 0
M  V30 54598 H 5166.37 -6.67042 3.55797 0
M  V30 54599 H 5167.64 -7.35394 2.58487 0
M  V30 54600 N 5171.87 -1.17362 -1.05185 0
M  V30 54601 C 5173.1 -0.985163 -1.81599 0
M  V30 54602 C 5173.51 0.469807 -1.83274 0
M  V30 54603 O 5172.85 1.33801 -1.25869 0
M  V30 54604 C 5172.91 -1.44967 -3.28975 0
M  V30 54605 C 5172.58 -2.92678 -3.50982 0
M  V30 54606 C 5173.58 -3.90612 -3.43101 0
M  V30 54607 C 5171.26 -3.30855 -3.77942 0
M  V30 54608 C 5173.25 -5.24721 -3.61865 0
M  V30 54609 C 5170.94 -4.6513 -3.96355 0
M  V30 54610 C 5171.94 -5.61872 -3.88315 0
M  V30 54611 O 5171.63 -6.93719 -4.06214 0
M  V30 54612 H 5171.36 -0.348751 -0.579093 0
M  V30 54613 H 5173.91 -1.56071 -1.33533 0
M  V30 54614 H 5172.14 -0.817692 -3.77956 0
M  V30 54615 H 5173.83 -1.22687 -3.86914 0
M  V30 54616 H 5174.6 -3.62464 -3.2225 0
M  V30 54617 H 5170.48 -2.56123 -3.83304 0
M  V30 54618 H 5174.02 -6.00218 -3.55506 0
M  V30 54619 H 5169.92 -4.92984 -4.16698 0
M  V30 54620 H 5170.69 -7.00458 -4.23439 0
M  V30 54621 N 5173.35 1.23909 -0.973872 0
M  V30 54622 C 5174.3 2.27139 -0.501059 0
M  V30 54623 C 5175.29 1.63624 0.438574 0
M  V30 54624 O 5176.5 1.77254 0.313184 0
M  V30 54625 H 5172.87 0.738165 -0.143586 0
M  V30 54626 H 5174.84 2.64387 -1.38355 0
M  V30 54627 C 5173.59 3.47195 0.187255 0
M  V30 54628 H 5172.92 3.96316 -0.526675 0
M  V30 54629 H 5174.36 4.21254 0.481814 0
M  V30 54630 C 5172.81 3.05683 1.41631 0
M  V30 54631 O 5173.34 3.13389 2.51298 0
M  V30 54632 N 5171.55 2.60666 1.28459 0
M  V30 54633 H 5171.1 2.54595 0.39229 0
M  V30 54634 H 5171.06 2.33257 2.10805 0
M  V30 54635 N 5174.83 0.744729 1.38894 0
M  V30 54636 C 5176.06 0.307054 2.04306 0
M  V30 54637 C 5176.47 -1.06647 1.56279 0
M  V30 54638 O 5175.81 -1.68696 0.727139 0
M  V30 54639 C 5175.87 0.241312 3.58689 0
M  V30 54640 C 5175.54 1.55491 4.29734 0
M  V30 54641 C 5176.53 2.50245 4.55712 0
M  V30 54642 C 5174.22 1.8219 4.68094 0
M  V30 54643 C 5176.21 3.69924 5.19072 0
M  V30 54644 C 5173.9 3.02144 5.3118 0
M  V30 54645 C 5174.9 3.95832 5.56602 0
M  V30 54646 O 5174.58 5.13678 6.18377 0
M  V30 54647 H 5174.32 0.130439 0.663296 0
M  V30 54648 H 5176.87 1.01198 1.7874 0
M  V30 54649 H 5175.1 -0.519791 3.83191 0
M  V30 54650 H 5176.79 -0.165663 4.05562 0
M  V30 54651 H 5177.56 2.30892 4.26514 0
M  V30 54652 H 5173.43 1.10107 4.47658 0
M  V30 54653 H 5176.98 4.43066 5.38831 0
M  V30 54654 H 5172.88 3.21394 5.598 0
M  V30 54655 H 5173.64 5.14142 6.36868 0
M  V30 54656 N 5176.31 -1.49687 0.49311 0
M  V30 54657 C 5177.22 -2.32747 -0.294276 0
M  V30 54658 C 5178.23 -1.4412 -0.974952 0
M  V30 54659 O 5179.41 -1.77152 -0.958076 0
M  V30 54660 C 5176.47 -3.19363 -1.34937 0
M  V30 54661 C 5175.53 -4.23832 -0.682973 0
M  V30 54662 C 5174.77 -5.06309 -1.6878 0
M  V30 54663 O 5174.99 -4.90182 -2.91681 0
M  V30 54664 O 5173.92 -5.88831 -1.24747 0
M  V30 54665 H 5177.75 -3.01245 0.38536 0
M  V30 54666 H 5175.34 -1.47215 0.254571 0
M  V30 54667 H 5177.22 -3.73044 -1.96001 0
M  V30 54668 H 5175.89 -2.53568 -2.01208 0
M  V30 54669 H 5174.8 -3.74086 -0.0328035 0
M  V30 54670 H 5176.13 -4.9216 -0.0628462 0
M  V30 54671 N 5177.78 -0.226609 -1.55962 0
M  V30 54672 C 5179.2 0.280316 -1.84584 0
M  V30 54673 C 5179.55 1.59101 -1.14809 0
M  V30 54674 O 5178.67 2.12295 -0.419489 0
M  V30 54675 C 5179.27 0.515381 -3.34857 0
M  V30 54676 C 5177.83 0.966605 -3.63777 0
M  V30 54677 C 5176.97 0.0324779 -2.77281 0
M  V30 54678 H 5179.92 -0.44968 -1.52196 0
M  V30 54679 H 5179.94 1.36072 -3.55337 0
M  V30 54680 H 5179.46 -0.438729 -3.85612 0
M  V30 54681 H 5177.56 1.9339 -3.18483 0
M  V30 54682 H 5177.67 0.837513 -4.71723 0
M  V30 54683 H 5176.03 0.540192 -2.48906 0
M  V30 54684 H 5176.82 -0.91664 -3.30836 0
M  V30 54685 N 5179.26 1.57531 0.0467312 0
M  V30 54686 C 5180.19 2.08428 1.05261 0
M  V30 54687 C 5181.17 0.98299 1.38821 0
M  V30 54688 O 5182.36 1.25721 1.48013 0
M  V30 54689 C 5179.49 2.54906 2.35882 0
M  V30 54690 C 5178.44 3.69139 2.16611 0
M  V30 54691 C 5177.77 4.01759 3.52837 0
M  V30 54692 C 5179.07 4.98248 1.56672 0
M  V30 54693 H 5180.76 2.92719 0.628978 0
M  V30 54694 H 5178.31 1.40817 0.301106 0
M  V30 54695 H 5180.26 2.8913 3.06564 0
M  V30 54696 H 5178.99 1.67676 2.80272 0
M  V30 54697 H 5177.64 3.35236 1.48365 0
M  V30 54698 H 5177.29 3.11622 3.94843 0
M  V30 54699 H 5176.99 4.78693 3.40773 0
M  V30 54700 H 5178.52 4.38502 4.24909 0
M  V30 54701 H 5179.93 5.30543 2.17249 0
M  V30 54702 H 5178.33 5.79674 1.55234 0
M  V30 54703 H 5179.4 4.81988 0.530658 0
M  V30 54704 N 5180.74 -0.318661 1.54345 0
M  V30 54705 C 5181.97 -1.07544 1.76754 0
M  V30 54706 C 5182.38 -1.81541 0.518486 0
M  V30 54707 O 5181.74 -1.752 -0.511016 0
M  V30 54708 C 5181.79 -2.06973 2.96386 0
M  V30 54709 O 5181.51 -1.3598 4.16462 0
M  V30 54710 C 5183.01 -2.9483 3.31044 0
M  V30 54711 H 5180.23 -0.31969 0.589948 0
M  V30 54712 H 5182.78 -0.363298 2.01247 0
M  V30 54713 H 5180.93 -2.73714 2.74152 0
M  V30 54714 H 5181.35 -2.02606 4.83788 0
M  V30 54715 H 5182.82 -3.60481 4.1804 0
M  V30 54716 H 5183.3 -3.6219 2.48425 0
M  V30 54717 H 5183.9 -2.33643 3.55374 0
M  V30 54718 N 5182.22 -1.46501 -0.580974 0
M  V30 54719 C 5183.15 -1.53231 -1.70449 0
M  V30 54720 C 5184.16 -0.420498 -1.57276 0
M  V30 54721 O 5185.35 -0.688946 -1.64669 0
M  V30 54722 C 5182.45 -1.39814 -3.08716 0
M  V30 54723 C 5181.63 -2.65145 -3.47875 0
M  V30 54724 C 5180.68 -2.45902 -4.65208 0
M  V30 54725 O 5179.71 -3.19632 -4.70982 0
M  V30 54726 N 5180.91 -1.5218 -5.60198 0
M  V30 54727 H 5183.68 -2.50104 -1.6513 0
M  V30 54728 H 5181.24 -1.42579 -0.767 0
M  V30 54729 H 5183.23 -1.2471 -3.85006 0
M  V30 54730 H 5181.8 -0.511149 -3.08393 0
M  V30 54731 H 5181.02 -2.95178 -2.61273 0
M  V30 54732 H 5182.31 -3.48398 -3.70805 0
M  V30 54733 H 5181.71 -0.913842 -5.5827 0
M  V30 54734 H 5180.26 -1.43039 -6.35911 0
M  V30 54735 N 5183.7 0.825752 -1.34235 0
M  V30 54736 C 5184.97 1.56737 -1.17017 0
M  V30 54737 C 5185.35 2.09513 0.258351 0
M  V30 54738 O 5184.7 1.90668 1.25928 0
M  V30 54739 C 5184.91 2.69096 -2.22235 0
M  V30 54740 C 5186.26 3.37938 -2.57067 0
M  V30 54741 O 5187.28 2.7935 -2.21002 0
M  V30 54742 O 5186.14 4.43731 -3.19006 0
M  V30 54743 H 5183.24 0.691614 -0.45343 0
M  V30 54744 H 5185.78 0.86737 -1.45859 0
M  V30 54745 H 5184.55 2.27832 -3.18132 0
M  V30 54746 H 5184.18 3.46749 -1.94553 0
M  V30 54747 N 5185.17 1.17918 1.04561 0
M  V30 54748 C 5186.12 0.869708 2.10761 0
M  V30 54749 C 5187.11 -0.158446 1.60118 0
M  V30 54750 O 5188.3 0.0448922 1.76943 0
M  V30 54751 C 5185.43 0.391762 3.41057 0
M  V30 54752 C 5184.52 1.4517 3.9848 0
M  V30 54753 N 5184.91 2.66685 4.29782 0
M  V30 54754 C 5183.2 1.31105 4.26295 0
M  V30 54755 C 5183.91 3.3484 4.75665 0
M  V30 54756 N 5182.88 2.6222 4.76174 0
M  V30 54757 H 5186.68 1.7935 2.32832 0
M  V30 54758 H 5184.2 1.06884 1.22268 0
M  V30 54759 H 5186.19 0.151574 4.16624 0
M  V30 54760 H 5184.85 -0.525749 3.20415 0
M  V30 54761 H 5185.87 3.03595 4.19584 0
M  V30 54762 H 5182.54 0.455691 4.15006 0
M  V30 54763 H 5183.93 4.38662 5.08945 0
M  V30 54764 N 5186.65 -1.23391 0.980429 0
M  V30 54765 C 5187.9 -1.92091 0.65029 0
M  V30 54766 C 5188.23 -1.76312 -0.814111 0
M  V30 54767 O 5187.51 -1.12412 -1.58726 0
M  V30 54768 C 5187.79 -3.44709 1.04152 0
M  V30 54769 C 5187.64 -3.69597 2.56355 0
M  V30 54770 C 5188.96 -4.36189 0.585449 0
M  V30 54771 H 5186.08 -0.697609 0.237719 0
M  V30 54772 H 5188.72 -1.45513 1.22172 0
M  V30 54773 H 5186.87 -3.84511 0.555286 0
M  V30 54774 H 5188.54 -3.39277 3.12552 0
M  V30 54775 H 5186.79 -3.14308 2.98987 0
M  V30 54776 H 5187.46 -4.76431 2.78779 0
M  V30 54777 H 5189.93 -4.03833 1.00291 0
M  V30 54778 H 5188.81 -5.41676 0.887619 0
M  V30 54779 H 5189.07 -4.39099 -0.514225 0
M  V30 54780 N 5188.13 -0.752084 -1.38497 0
M  V30 54781 C 5189.41 -0.233144 -1.94206 0
M  V30 54782 C 5189.79 1.26832 -1.68751 0
M  V30 54783 O 5189.14 2.0421 -1.02521 0
M  V30 54784 C 5189.35 -0.585211 -3.44059 0
M  V30 54785 C 5190.69 -0.544019 -4.211 0
M  V30 54786 O 5191.72 -0.523415 -3.52333 0
M  V30 54787 O 5190.58 -0.553627 -5.43689 0
M  V30 54788 H 5187.67 -0.0483339 -0.825586 0
M  V30 54789 H 5190.22 -0.832105 -1.47899 0
M  V30 54790 H 5188.99 -1.62224 -3.56089 0
M  V30 54791 H 5188.61 0.041834 -3.97578 0
M  V30 54792 N 5189.61 1.49423 -0.501041 0
M  V30 54793 C 5190.86 2.01649 0.0453091 0
M  V30 54794 C 5191.17 1.38577 1.38043 0
M  V30 54795 O 5192.38 1.82131 2.01347 0
M  V30 54796 C 5190.83 3.59661 0.13121 0
M  V30 54797 C 5190.44 4.31705 -1.19726 0
M  V30 54798 C 5192.19 4.1983 0.627923 0
M  V30 54799 C 5190.09 5.81575 -1.07352 0
M  V30 54800 H 5189.02 0.753716 0.0207064 0
M  V30 54801 H 5191.67 1.7196 -0.640468 0
M  V30 54802 H 5190.06 3.86066 0.881438 0
M  V30 54803 H 5191.23 4.17001 -1.96079 0
M  V30 54804 H 5189.54 3.83281 -1.62742 0
M  V30 54805 H 5192.14 5.29582 0.738011 0
M  V30 54806 H 5192.48 3.832 1.62677 0
M  V30 54807 H 5193.02 3.97746 -0.0657712 0
M  V30 54808 H 5189.76 6.2273 -2.04664 0
M  V30 54809 H 5189.28 5.98773 -0.350889 0
M  V30 54810 H 5190.96 6.42612 -0.752273 0
M  V30 54811 N 5191.09 0.234877 1.5584 0
M  V30 54812 C 5192.02 -0.664138 2.23856 0
M  V30 54813 C 5193 -1.19071 1.21474 0
M  V30 54814 O 5194.18 -1.23227 1.50096 0
M  V30 54815 C 5191.31 -1.86656 2.92877 0
M  V30 54816 C 5190.27 -1.47327 4.01844 0
M  V30 54817 C 5189.59 -2.75555 4.58229 0
M  V30 54818 C 5190.89 -0.653297 5.18198 0
M  V30 54819 H 5192.59 -0.0970161 2.99243 0
M  V30 54820 H 5190.13 -0.0452218 1.43929 0
M  V30 54821 H 5192.09 -2.50104 3.39155 0
M  V30 54822 H 5190.81 -2.45887 2.14959 0
M  V30 54823 H 5189.47 -0.862189 3.56317 0
M  V30 54824 H 5189.12 -3.32958 3.77025 0
M  V30 54825 H 5188.82 -2.49968 5.3178 0
M  V30 54826 H 5190.34 -3.39922 5.07233 0
M  V30 54827 H 5191.76 -1.19179 5.60776 0
M  V30 54828 H 5190.15 -0.493978 5.98063 0
M  V30 54829 H 5191.22 0.337174 4.83726 0
M  V30 54830 N 5192.57 -1.57553 -0.0383763 0
M  V30 54831 C 5193.81 -1.88471 -0.729605 0
M  V30 54832 C 5194.13 -0.831364 -1.7639 0
M  V30 54833 O 5193.4 0.136151 -1.95426 0
M  V30 54834 H 5191.98 -0.695539 -0.27246 0
M  V30 54835 H 5194.65 -1.94899 -0.00653469 0
M  V30 54836 H 5193.74 -2.87054 -1.22501 0
M  V30 54837 N 5194.04 0.310471 -1.54512 0
M  V30 54838 C 5195.45 0.884084 -1.64441 0
M  V30 54839 C 5195.81 1.88423 -0.546922 0
M  V30 54840 O 5194.93 2.1405 0.318034 0
M  V30 54841 C 5195.53 1.61029 -2.98086 0
M  V30 54842 C 5194.08 2.13244 -3.10167 0
M  V30 54843 C 5193.23 0.962039 -2.60077 0
M  V30 54844 H 5196.18 0.0877109 -1.58457 0
M  V30 54845 H 5196.2 2.47531 -2.88979 0
M  V30 54846 H 5195.72 0.882122 -3.77942 0
M  V30 54847 H 5193.82 2.89137 -2.35012 0
M  V30 54848 H 5193.93 2.37347 -4.16177 0
M  V30 54849 H 5192.29 1.34493 -2.16295 0
M  V30 54850 H 5193.08 0.247978 -3.42403 0
M  V30 54851 N 5195.52 1.46807 0.573196 0
M  V30 54852 C 5196.45 1.60957 1.6916 0
M  V30 54853 C 5197.43 0.459537 1.63775 0
M  V30 54854 O 5198.62 0.686944 1.81644 0
M  V30 54855 C 5195.75 1.60855 3.07803 0
M  V30 54856 C 5194.7 2.74924 3.28025 0
M  V30 54857 C 5194.03 2.59887 4.67293 0
M  V30 54858 C 5195.33 4.16665 3.1494 0
M  V30 54859 H 5197.02 2.5458 1.57573 0
M  V30 54860 H 5194.57 1.22519 0.756643 0
M  V30 54861 H 5196.52 1.69347 3.85875 0
M  V30 54862 H 5195.24 0.637827 3.20311 0
M  V30 54863 H 5193.9 2.65917 2.52357 0
M  V30 54864 H 5193.55 1.60877 4.76579 0
M  V30 54865 H 5193.25 3.36403 4.81775 0
M  V30 54866 H 5194.78 2.70284 5.4752 0
M  V30 54867 H 5196.19 4.26734 3.82846 0
M  V30 54868 H 5194.59 4.93843 3.40939 0
M  V30 54869 H 5195.66 4.36153 2.11892 0
M  V30 54870 N 5197 -0.818622 1.34671 0
M  V30 54871 C 5198.22 -1.61189 1.3051 0
M  V30 54872 C 5198.65 -1.87734 -0.117275 0
M  V30 54873 O 5198.01 -1.45594 -1.08037 0
M  V30 54874 C 5198.06 -2.92726 2.1058 0
M  V30 54875 O 5197.16 -3.84995 1.47827 0
M  V30 54876 H 5196.5 -0.490069 0.448027 0
M  V30 54877 H 5199.03 -1.01694 1.77537 0
M  V30 54878 H 5199.04 -3.42254 2.22094 0
M  V30 54879 H 5197.72 -2.72729 3.13993 0
M  V30 54880 H 5196.29 -3.4352 1.45081 0
M  V30 54881 N 5198.48 -1.18471 -1.03934 0
M  V30 54882 C 5199.44 -0.915018 -2.10143 0
M  V30 54883 C 5200.44 0.100164 -1.60488 0
M  V30 54884 O 5201.63 -0.133426 -1.73688 0
M  V30 54885 C 5198.76 -0.373112 -3.38852 0
M  V30 54886 H 5199.96 -1.85685 -2.35502 0
M  V30 54887 H 5197.51 -0.996918 -1.2038 0
M  V30 54888 H 5198.24 0.575268 -3.19157 0
M  V30 54889 H 5198.03 -1.10493 -3.7621 0
M  V30 54890 H 5199.52 -0.203161 -4.17106 0
M  V30 54891 N 5199.96 1.22869 -0.986959 0
M  V30 54892 C 5200.89 2.23887 -0.490616 0
M  V30 54893 C 5201.9 1.57524 0.411089 0
M  V30 54894 O 5203.09 1.7721 0.214173 0
M  V30 54895 C 5200.19 3.37489 0.308901 0
M  V30 54896 C 5199.36 4.33436 -0.587507 0
M  V30 54897 C 5198.42 5.25959 0.159282 0
M  V30 54898 O 5197.45 5.67392 -0.453315 0
M  V30 54899 N 5198.65 5.6227 1.44335 0
M  V30 54900 H 5201.41 2.67105 -1.35924 0
M  V30 54901 H 5198.98 1.37108 -0.860985 0
M  V30 54902 H 5200.97 3.96368 0.817 0
M  V30 54903 H 5199.54 2.93403 1.07858 0
M  V30 54904 H 5198.76 3.72965 -1.27635 0
M  V30 54905 H 5200.05 4.94491 -1.19818 0
M  V30 54906 H 5199.44 5.30569 1.96247 0
M  V30 54907 H 5198 6.23592 1.89676 0
M  V30 54908 N 5201.43 0.759419 1.38096 0
M  V30 54909 C 5202.66 0.329183 2.04265 0
M  V30 54910 C 5203.08 -1.04447 1.57278 0
M  V30 54911 O 5202.43 -1.66446 0.748456 0
M  V30 54912 C 5202.48 0.349319 3.59808 0
M  V30 54913 O 5202.21 1.66877 4.05072 0
M  V30 54914 C 5203.71 -0.0940548 4.432 0
M  V30 54915 H 5200.93 0.139733 0.656289 0
M  V30 54916 H 5203.47 1.0299 1.76673 0
M  V30 54917 H 5201.63 -0.30271 3.86216 0
M  V30 54918 H 5202.04 1.59894 4.99534 0
M  V30 54919 H 5203.51 -0.0288063 5.51992 0
M  V30 54920 H 5203.99 -1.14275 4.24073 0
M  V30 54921 H 5204.6 0.529319 4.21993 0
M  V30 54922 N 5202.91 -1.49156 0.508959 0
M  V30 54923 C 5204.16 -2.02074 -0.0326624 0
M  V30 54924 C 5204.48 -1.39017 -1.36746 0
M  V30 54925 O 5203.75 -0.548219 -1.88073 0
M  V30 54926 H 5202.33 -0.746848 -0.0150602 0
M  V30 54927 H 5204.99 -1.83095 0.668011 0
M  V30 54928 H 5204.09 -3.11707 -0.156491 0
M  V30 54929 N 5204.39 -0.243138 -1.55713 0
M  V30 54930 C 5205.64 0.383119 -1.98028 0
M  V30 54931 C 5205.95 1.59343 -1.13442 0
M  V30 54932 O 5207.16 2.2906 -1.45753 0
M  V30 54933 C 5205.61 0.733011 -3.52356 0
M  V30 54934 C 5205.22 -0.455696 -4.45676 0
M  V30 54935 C 5206.97 1.32367 -4.03335 0
M  V30 54936 C 5204.87 -0.082167 -5.91343 0
M  V30 54937 H 5203.8 0.146918 -0.739548 0
M  V30 54938 H 5206.45 -0.342761 -1.8027 0
M  V30 54939 H 5204.84 1.51691 -3.65795 0
M  V30 54940 H 5206.01 -1.23307 -4.43996 0
M  V30 54941 H 5204.33 -0.961028 -4.05158 0
M  V30 54942 H 5206.92 1.6164 -5.09683 0
M  V30 54943 H 5207.27 2.24686 -3.5046 0
M  V30 54944 H 5207.8 0.602747 -3.93207 0
M  V30 54945 H 5204.54 -0.972399 -6.48247 0
M  V30 54946 H 5204.06 0.659082 -5.96168 0
M  V30 54947 H 5205.74 0.336973 -6.46122 0
M  V30 54948 N 5205.87 1.57571 0.0300203 0
M  V30 54949 C 5206.83 2.05472 1.01558 0
M  V30 54950 C 5207.83 0.958673 1.29097 0
M  V30 54951 O 5209.02 1.22232 1.24117 0
M  V30 54952 C 5206.15 2.47085 2.34866 0
M  V30 54953 H 5207.35 2.93799 0.601832 0
M  V30 54954 H 5204.9 1.53829 0.276823 0
M  V30 54955 H 5205.63 1.61911 2.8099 0
M  V30 54956 H 5205.42 3.27104 2.16207 0
M  V30 54957 H 5206.91 2.84575 3.05625 0
M  V30 54958 N 5207.35 -0.302273 1.54674 0
M  V30 54959 C 5208.59 -1.03918 1.74152 0
M  V30 54960 C 5208.93 -1.86966 0.525107 0
M  V30 54961 O 5208.2 -1.8854 -0.477802 0
M  V30 54962 C 5208.48 -1.94623 3.02975 0
M  V30 54963 C 5208.34 -1.14762 4.34913 0
M  V30 54964 C 5209.66 -2.93815 3.2766 0
M  V30 54965 H 5206.77 -0.376382 0.633644 0
M  V30 54966 H 5209.42 -0.313941 1.87388 0
M  V30 54967 H 5207.57 -2.56461 2.91822 0
M  V30 54968 H 5209.24 -0.552202 4.57983 0
M  V30 54969 H 5207.48 -0.45031 4.31456 0
M  V30 54970 H 5208.15 -1.81477 5.21316 0
M  V30 54971 H 5210.63 -2.42105 3.38415 0
M  V30 54972 H 5209.5 -3.54447 4.19116 0
M  V30 54973 H 5209.77 -3.67407 2.45895 0
M  V30 54974 N 5208.82 -1.47109 -0.565403 0
M  V30 54975 C 5209.75 -1.61852 -1.68304 0
M  V30 54976 C 5210.74 -0.468216 -1.63529 0
M  V30 54977 O 5211.92 -0.696567 -1.81278 0
M  V30 54978 C 5209.05 -1.62485 -3.06946 0
M  V30 54979 C 5208 -2.7666 -3.26563 0
M  V30 54980 C 5207.33 -2.62362 -4.65908 0
M  V30 54981 C 5208.63 -4.1833 -3.12726 0
M  V30 54982 H 5210.32 -2.55412 -1.56221 0
M  V30 54983 H 5207.87 -1.22919 -0.750135 0
M  V30 54984 H 5209.82 -1.71391 -3.84971 0
M  V30 54985 H 5208.55 -0.654805 -3.19969 0
M  V30 54986 H 5207.21 -2.67251 -2.50943 0
M  V30 54987 H 5206.85 -1.63403 -4.75719 0
M  V30 54988 H 5206.55 -3.38953 -4.79984 0
M  V30 54989 H 5208.08 -2.73184 -5.46079 0
M  V30 54990 H 5209.49 -4.28758 -3.80577 0
M  V30 54991 H 5207.89 -4.95644 -3.38315 0
M  V30 54992 H 5208.96 -4.37271 -2.09576 0
M  V30 54993 N 5210.3 0.811468 -1.35103 0
M  V30 54994 C 5211.58 1.55487 -1.18673 0
M  V30 54995 C 5211.96 2.09775 0.236115 0
M  V30 54996 O 5211.31 1.91993 1.23899 0
M  V30 54997 C 5211.52 2.66724 -2.25076 0
M  V30 54998 C 5212.87 3.35192 -2.60636 0
M  V30 54999 O 5213.89 2.7699 -2.23953 0
M  V30 55000 O 5212.75 4.40323 -3.23694 0
M  V30 55001 H 5209.84 0.686766 -0.46074 0
M  V30 55002 H 5212.39 0.851851 -1.46771 0
M  V30 55003 H 5211.16 2.24445 -3.20531 0
M  V30 55004 H 5210.78 3.44666 -1.9822 0
M  V30 55005 N 5211.78 1.19021 1.03304 0
M  V30 55006 C 5212.71 0.867531 2.11067 0
M  V30 55007 C 5213.69 -0.173695 1.6167 0
M  V30 55008 O 5214.88 -0.0509415 1.88431 0
M  V30 55009 C 5212 0.297577 3.3739 0
M  V30 55010 C 5211.05 1.3172 4.0565 0
M  V30 55011 S 5211.88 2.87607 4.51711 0
M  V30 55012 C 5213.04 2.32143 5.81258 0
M  V30 55013 H 5213.27 1.78016 2.38112 0
M  V30 55014 H 5210.8 1.0169 1.16183 0
M  V30 55015 H 5212.76 -0.0247446 4.10493 0
M  V30 55016 H 5211.42 -0.593292 3.08446 0
M  V30 55017 H 5210.62 0.867438 4.96479 0
M  V30 55018 H 5210.22 1.58615 3.38699 0
M  V30 55019 H 5212.51 1.70878 6.55597 0
M  V30 55020 H 5213.45 3.21302 6.31007 0
M  V30 55021 H 5213.86 1.74876 5.36729 0
M  V30 55022 N 5213.26 -1.22344 0.993461 0
M  V30 55023 C 5214.5 -1.92833 0.677847 0
M  V30 55024 C 5214.86 -1.75627 -0.775831 0
M  V30 55025 O 5216.06 -2.40383 -1.20289 0
M  V30 55026 C 5214.33 -3.40902 1.07334 0
M  V30 55027 S 5215.89 -4.29963 0.876183 0
M  V30 55028 H 5212.71 -0.666412 0.247822 0
M  V30 55029 H 5215.31 -1.48129 1.27586 0
M  V30 55030 H 5214.02 -3.50938 2.12769 0
M  V30 55031 H 5213.55 -3.90616 0.467153 0
M  V30 55032 H 5215.56 -4.95653 -0.232987 0
M  V30 55033 N 5214.74 -0.766732 -1.37692 0
M  V30 55034 C 5215.7 -0.15593 -2.28669 0
M  V30 55035 C 5216.7 0.633457 -1.47797 0
M  V30 55036 O 5217.89 0.457785 -1.68077 0
M  V30 55037 C 5215.02 0.786849 -3.31695 0
M  V30 55038 H 5216.21 -0.957848 -2.84192 0
M  V30 55039 H 5213.77 -0.534605 -1.46873 0
M  V30 55040 H 5214.5 1.61396 -2.81286 0
M  V30 55041 H 5214.29 0.223044 -3.91465 0
M  V30 55042 H 5215.78 1.20979 -3.99692 0
M  V30 55043 N 5216.21 1.48884 -0.516862 0
M  V30 55044 C 5217.44 2.0739 0.0204472 0
M  V30 55045 C 5217.86 1.37264 1.28609 0
M  V30 55046 O 5217.22 0.434366 1.7602 0
M  V30 55047 C 5217.27 3.59794 0.240914 0
M  V30 55048 O 5216.37 3.90961 1.31237 0
M  V30 55049 H 5215.72 0.663165 -0.0332797 0
M  V30 55050 H 5218.25 1.91474 -0.721023 0
M  V30 55051 H 5218.26 4.05312 0.467595 0
M  V30 55052 H 5216.93 4.10242 -0.683704 0
M  V30 55053 H 5215.51 3.57237 1.06938 0
M  V30 55054 N 5217.69 0.251393 1.55582 0
M  V30 55055 C 5218.62 -0.640358 2.24548 0
M  V30 55056 C 5219.6 -1.17776 1.2273 0
M  V30 55057 O 5220.79 -1.21628 1.51394 0
M  V30 55058 C 5217.92 -1.83539 2.9484 0
M  V30 55059 C 5216.87 -1.43056 4.03384 0
M  V30 55060 C 5216.2 -2.70679 4.61126 0
M  V30 55061 C 5217.5 -0.598298 5.18862 0
M  V30 55062 H 5219.19 -0.0652719 2.99329 0
M  V30 55063 H 5216.74 -0.0299536 1.43969 0
M  V30 55064 H 5218.69 -2.46493 3.41789 0
M  V30 55065 H 5217.42 -2.43593 2.17555 0
M  V30 55066 H 5216.07 -0.824348 3.57211 0
M  V30 55067 H 5215.72 -3.2894 3.80536 0
M  V30 55068 H 5215.42 -2.44314 5.34401 0
M  V30 55069 H 5216.95 -3.34523 5.1081 0
M  V30 55070 H 5218.36 -1.13224 5.62008 0
M  V30 55071 H 5216.76 -0.430517 5.98554 0
M  V30 55072 H 5217.83 0.38846 4.83341 0
M  V30 55073 N 5219.17 -1.57585 -0.0216635 0
M  V30 55074 C 5220.12 -2.07039 -1.01997 0
M  V30 55075 C 5221.09 -0.961107 -1.35469 0
M  V30 55076 O 5222.27 -1.23216 -1.4568 0
M  V30 55077 C 5219.41 -2.56064 -2.31355 0
M  V30 55078 C 5218.53 -3.80812 -2.03976 0
M  V30 55079 C 5217.66 -4.18421 -3.27257 0
M  V30 55080 C 5216.7 -5.36065 -2.95467 0
M  V30 55081 N 5215.84 -5.6907 -4.11222 0
M  V30 55082 H 5220.68 -2.92075 -0.591294 0
M  V30 55083 H 5218.21 -1.44404 -0.280334 0
M  V30 55084 H 5220.17 -2.82558 -3.06947 0
M  V30 55085 H 5218.8 -1.73935 -2.71931 0
M  V30 55086 H 5217.85 -3.61358 -1.18847 0
M  V30 55087 H 5219.17 -4.66518 -1.76529 0
M  V30 55088 H 5218.32 -4.46082 -4.11212 0
M  V30 55089 H 5217.06 -3.31381 -3.57824 0
M  V30 55090 H 5216.06 -5.08149 -2.09915 0
M  V30 55091 H 5217.29 -6.24764 -2.66171 0
M  V30 55092 H 5215.24 -4.8499 -4.41725 0
M  V30 55093 H 5215.15 -6.49302 -3.87224 0
M  V30 55094 H 5216.42 -6.01312 -4.96028 0
M  V30 55095 N 5220.65 0.294066 -1.54832 0
M  V30 55096 C 5221.56 1.38534 -1.89329 0
M  V30 55097 C 5222.58 1.55125 -0.788187 0
M  V30 55098 O 5223.75 1.69656 -1.0853 0
M  V30 55099 C 5220.82 2.72801 -2.13963 0
M  V30 55100 C 5219.88 2.65137 -3.37641 0
M  V30 55101 C 5219.11 3.93001 -3.6109 0
M  V30 55102 O 5219.33 4.9269 -2.87424 0
M  V30 55103 O 5218.27 3.94475 -4.54613 0
M  V30 55104 H 5222.09 1.12279 -2.82183 0
M  V30 55105 H 5219.68 0.490744 -1.4111 0
M  V30 55106 H 5221.56 3.5223 -2.31327 0
M  V30 55107 H 5220.24 2.98885 -1.24295 0
M  V30 55108 H 5219.14 1.84156 -3.25634 0
M  V30 55109 H 5220.48 2.44005 -4.27461 0
M  V30 55110 N 5222.13 1.47406 0.557593 0
M  V30 55111 C 5223.06 1.62742 1.67443 0
M  V30 55112 C 5224.04 0.476882 1.63278 0
M  V30 55113 O 5225.22 0.706171 1.80906 0
M  V30 55114 C 5222.35 1.64111 3.0608 0
M  V30 55115 C 5221.31 2.78388 3.25091 0
M  V30 55116 C 5220.63 2.64829 4.6451 0
M  V30 55117 C 5221.93 4.19982 3.10503 0
M  V30 55118 H 5223.63 2.56237 1.54864 0
M  V30 55119 H 5221.17 1.23315 0.743606 0
M  V30 55120 H 5223.13 1.7343 3.84057 0
M  V30 55121 H 5221.85 0.671764 3.19617 0
M  V30 55122 H 5220.51 2.68578 2.49522 0
M  V30 55123 H 5220.16 1.65923 4.74846 0
M  V30 55124 H 5219.86 3.41494 4.78179 0
M  V30 55125 H 5221.38 2.76076 5.44623 0
M  V30 55126 H 5222.8 4.30771 3.78298 0
M  V30 55127 H 5221.19 4.97431 3.35682 0
M  V30 55128 H 5222.26 4.38376 2.07254 0
M  V30 55129 N 5223.61 -0.804292 1.35532 0
M  V30 55130 C 5224.54 -1.93082 1.31308 0
M  V30 55131 C 5225.52 -1.69068 0.187103 0
M  V30 55132 O 5226.7 -1.90397 0.382425 0
M  V30 55133 C 5223.83 -3.29864 1.08662 0
M  V30 55134 C 5222.79 -3.68365 2.17924 0
M  V30 55135 C 5222.11 -5.03334 1.80441 0
M  V30 55136 C 5223.41 -3.78503 3.59907 0
M  V30 55137 H 5225.11 -1.96874 2.25568 0
M  V30 55138 H 5222.65 -0.945803 1.08584 0
M  V30 55139 H 5224.6 -4.08277 1.04345 0
M  V30 55140 H 5223.33 -3.2642 0.108473 0
M  V30 55141 H 5221.99 -2.92239 2.21341 0
M  V30 55142 H 5221.64 -4.96396 0.812388 0
M  V30 55143 H 5221.34 -5.30065 2.53583 0
M  V30 55144 H 5222.86 -5.84184 1.77654 0
M  V30 55145 H 5224.27 -4.47142 3.58799 0
M  V30 55146 H 5222.67 -4.16706 4.31829 0
M  V30 55147 H 5223.74 -2.79996 3.95892 0
M  V30 55148 N 5225.08 -1.19567 -1.02672 0
M  V30 55149 C 5226.02 -0.893128 -2.11083 0
M  V30 55150 C 5227.03 0.115044 -1.62393 0
M  V30 55151 O 5228.22 -0.114652 -1.78131 0
M  V30 55152 C 5225.32 -0.315652 -3.37427 0
M  V30 55153 C 5224.49 -1.3729 -4.15295 0
M  V30 55154 C 5223.55 -0.80858 -5.1995 0
M  V30 55155 O 5222.58 -1.48681 -5.49439 0
M  V30 55156 N 5223.78 0.387049 -5.79208 0
M  V30 55157 H 5226.54 -1.8263 -2.37626 0
M  V30 55158 H 5224.1 -1.09796 -1.18981 0
M  V30 55159 H 5226.1 0.0757743 -4.04629 0
M  V30 55160 H 5224.67 0.521853 -3.08213 0
M  V30 55161 H 5223.89 -1.93909 -3.4321 0
M  V30 55162 H 5225.17 -2.08525 -4.64106 0
M  V30 55163 H 5224.57 0.955529 -5.57572 0
M  V30 55164 H 5223.13 0.72023 -6.47809 0
M  V30 55165 N 5226.56 1.21816 -0.999936 0
M  V30 55166 C 5227.51 2.26025 -0.549126 0
M  V30 55167 C 5228.5 1.64518 0.403768 0
M  V30 55168 O 5229.71 1.77879 0.275516 0
M  V30 55169 H 5226.08 0.734953 -0.159211 0
M  V30 55170 H 5228.06 2.61393 -1.43932 0
M  V30 55171 C 5226.8 3.47514 0.113568 0
M  V30 55172 H 5226.13 3.95109 -0.610621 0
M  V30 55173 H 5227.57 4.22181 0.392352 0
M  V30 55174 C 5226.03 3.08619 1.35115 0
M  V30 55175 O 5226.56 3.18648 2.44594 0
M  V30 55176 N 5224.76 2.63332 1.22901 0
M  V30 55177 H 5224.31 2.5537 0.338198 0
M  V30 55178 H 5224.27 2.37676 2.0581 0
M  V30 55179 N 5228.04 0.774023 1.37283 0
M  V30 55180 C 5229.29 0.338706 1.99242 0
M  V30 55181 C 5229.61 -1.08913 1.6175 0
M  V30 55182 O 5228.88 -1.74819 0.884032 0
M  V30 55183 H 5227.46 0.122245 0.736929 0
M  V30 55184 H 5230.12 0.992654 1.67727 0
M  V30 55185 H 5229.22 0.418164 3.09286 0
M  V30 55186 N 5229.52 -1.48607 0.52475 0
M  V30 55187 C 5230.45 -2.26375 -0.28803 0
M  V30 55188 C 5231.43 -1.32 -0.949463 0
M  V30 55189 O 5232.61 -1.61332 -0.974889 0
M  V30 55190 C 5229.74 -3.0807 -1.40749 0
M  V30 55191 C 5228.79 -4.1778 -0.858005 0
M  V30 55192 S 5229.62 -5.34819 0.270015 0
M  V30 55193 C 5230.77 -6.20073 -0.852048 0
M  V30 55194 H 5231.01 -2.94964 0.371969 0
M  V30 55195 H 5228.54 -1.51247 0.310443 0
M  V30 55196 H 5230.5 -3.55717 -2.04879 0
M  V30 55197 H 5229.16 -2.38905 -2.03919 0
M  V30 55198 H 5228.35 -4.74548 -1.69766 0
M  V30 55199 H 5227.95 -3.72847 -0.293496 0
M  V30 55200 H 5230.25 -6.54457 -1.7519 0
M  V30 55201 H 5231.19 -7.07365 -0.322468 0
M  V30 55202 H 5231.6 -5.53072 -1.13009 0
M  V30 55203 N 5231 -0.25964 -1.55447 0
M  V30 55204 C 5231.94 0.650622 -2.23315 0
M  V30 55205 C 5232.94 1.1701 -1.22495 0
M  V30 55206 O 5234.14 1.12552 -1.40471 0
M  V30 55207 H 5230.52 0.228329 -0.716498 0
M  V30 55208 H 5232.49 0.055199 -2.98349 0
M  V30 55209 C 5231.24 1.8307 -2.95602 0
M  V30 55210 H 5230.56 1.44014 -3.72961 0
M  V30 55211 H 5232 2.44457 -3.46434 0
M  V30 55212 C 5230.46 2.70969 -2.00193 0
M  V30 55213 O 5230.99 3.70876 -1.54317 0
M  V30 55214 N 5229.2 2.37807 -1.67022 0
M  V30 55215 H 5228.74 1.56613 -2.04524 0
M  V30 55216 H 5228.7 2.96892 -1.03453 0
M  V30 55217 N 5232.47 1.57594 0.0133061 0
M  V30 55218 C 5233.72 1.89607 0.699529 0
M  V30 55219 C 5234.04 0.859321 1.75045 0
M  V30 55220 O 5233.31 -0.105044 1.95618 0
M  V30 55221 H 5231.89 0.699786 0.26136 0
M  V30 55222 H 5234.55 1.94885 -0.0244729 0
M  V30 55223 H 5233.65 2.88967 1.17918 0
M  V30 55224 N 5233.95 -0.28585 1.54986 0
M  V30 55225 C 5235.37 -0.632353 1.46538 0
M  V30 55226 C 5235.57 -1.90072 0.668954 0
M  V30 55227 O 5234.62 -2.51838 0.182675 0
M  V30 55228 C 5235.94 -0.771259 2.90641 0
M  V30 55229 C 5237.49 -0.866156 3.00777 0
M  V30 55230 C 5237.96 -1.03694 4.46107 0
M  V30 55231 N 5239.45 -1.10278 4.49881 0
M  V30 55232 C 5240.19 -1.25349 5.59531 0
M  V30 55233 N 5239.68 -1.37222 6.79074 0
M  V30 55234 N 5241.48 -1.28358 5.47248 0
M  V30 55235 H 5233.63 0.547298 2.05228 0
M  V30 55236 H 5235.89 0.183331 0.930104 0
M  V30 55237 H 5235.6 0.0900721 3.51585 0
M  V30 55238 H 5235.47 -1.65557 3.38926 0
M  V30 55239 H 5237.86 -1.71796 2.39938 0
M  V30 55240 H 5237.94 0.0424948 2.55765 0
M  V30 55241 H 5237.58 -0.189843 5.07545 0
M  V30 55242 H 5237.51 -1.96005 4.88763 0
M  V30 55243 H 5240 -1.02395 3.63763 0
M  V30 55244 H 5240.32 -1.48519 7.58394 0
M  V30 55245 H 5238.66 -1.3425 6.81911 0
M  V30 55246 H 5241.85 -1.18704 4.52799 0
M  V30 55247 H 5242.02 -1.3976 6.32749 0
M  V30 55248 N 5235.43 -1.477 -0.549768 0
M  V30 55249 C 5236.66 -1.58335 -1.33183 0
M  V30 55250 C 5237.07 -0.236259 -1.87316 0
M  V30 55251 O 5236.43 0.771612 -1.65386 0
M  V30 55252 C 5236.48 -2.61447 -2.49655 0
M  V30 55253 O 5236.2 -3.90927 -1.97757 0
M  V30 55254 C 5237.7 -2.82336 -3.41762 0
M  V30 55255 H 5234.92 -0.534444 -0.405722 0
M  V30 55256 H 5237.47 -1.93377 -0.665241 0
M  V30 55257 H 5235.62 -2.29318 -3.12237 0
M  V30 55258 H 5236.04 -4.47333 -2.7385 0
M  V30 55259 H 5237.51 -3.58331 -4.19885 0
M  V30 55260 H 5237.99 -1.9043 -3.95769 0
M  V30 55261 H 5238.59 -3.15692 -2.84989 0
M  V30 55262 N 5236.91 0.797093 -1.35957 0
M  V30 55263 C 5238.16 1.54978 -1.29092 0
M  V30 55264 C 5238.47 1.95168 0.129935 0
M  V30 55265 O 5239.68 2.69597 0.320915 0
M  V30 55266 C 5238.13 2.7973 -2.26449 0
M  V30 55267 C 5237.74 2.4674 -3.73929 0
M  V30 55268 C 5239.48 3.57725 -2.28545 0
M  V30 55269 C 5237.39 3.67841 -4.63084 0
M  V30 55270 H 5236.32 0.581749 -0.479671 0
M  V30 55271 H 5238.97 0.875353 -1.61276 0
M  V30 55272 H 5237.35 3.48933 -1.87249 0
M  V30 55273 H 5238.53 1.85484 -4.2182 0
M  V30 55274 H 5236.84 1.81972 -3.74533 0
M  V30 55275 H 5239.44 4.47689 -2.92367 0
M  V30 55276 H 5239.78 3.95749 -1.29183 0
M  V30 55277 H 5240.32 2.95494 -2.66323 0
M  V30 55278 H 5237.06 3.34919 -5.6348 0
M  V30 55279 H 5236.58 4.2829 -4.19913 0
M  V30 55280 H 5238.25 4.3496 -4.78977 0
M  V30 55281 N 5238.39 1.2011 1.02036 0
M  V30 55282 C 5239.32 0.970375 2.12382 0
M  V30 55283 C 5240.3 -0.0993183 1.6981 0
M  V30 55284 O 5241.48 0.0574332 1.94115 0
M  V30 55285 C 5238.61 0.517551 3.43422 0
M  V30 55286 C 5237.57 1.53006 3.99717 0
M  V30 55287 C 5236.89 0.934003 5.26479 0
M  V30 55288 C 5238.19 2.91272 4.33541 0
M  V30 55289 H 5239.89 1.89325 2.31941 0
M  V30 55290 H 5237.43 0.911694 1.11464 0
M  V30 55291 H 5239.39 0.343391 4.19999 0
M  V30 55292 H 5238.11 -0.440936 3.2361 0
M  V30 55293 H 5236.77 1.69151 3.25244 0
M  V30 55294 H 5236.42 -0.0322995 5.0299 0
M  V30 55295 H 5236.12 1.61019 5.65108 0
M  V30 55296 H 5237.64 0.770827 6.05715 0
M  V30 55297 H 5239.05 2.7866 5.01021 0
M  V30 55298 H 5237.45 3.55762 4.83273 0
M  V30 55299 H 5238.52 3.43281 3.42471 0
M  V30 55300 N 5239.86 -1.21284 1.00638 0
M  V30 55301 C 5241.11 -1.90011 0.688504 0
M  V30 55302 C 5241.43 -1.78576 -0.783302 0
M  V30 55303 O 5240.7 -1.18155 -1.56257 0
M  V30 55304 H 5239.28 -0.703328 0.251673 0
M  V30 55305 H 5241.95 -1.47342 1.27579 0
M  V30 55306 H 5241.04 -2.96875 0.962886 0
M  V30 55307 N 5241.34 -0.781292 -1.36871 0
M  V30 55308 C 5242.57 -0.36047 -2.04243 0
M  V30 55309 C 5242.99 1.01237 -1.58533 0
M  V30 55310 O 5242.35 1.6506 -0.749994 0
M  V30 55311 C 5242.4 -0.423416 -3.58106 0
M  V30 55312 O 5241.5 0.572653 -4.08405 0
M  V30 55313 H 5240.84 -0.154408 -0.645797 0
M  V30 55314 H 5243.37 -1.06014 -1.74992 0
M  V30 55315 H 5243.38 -0.28411 -4.0701 0
M  V30 55316 H 5242.06 -1.42491 -3.90729 0
M  V30 55317 H 5240.64 0.395679 -3.70795 0
M  V30 55318 N 5242.82 1.48327 -0.532624 0
M  V30 55319 C 5243.78 2.28161 0.217989 0
M  V30 55320 C 5244.78 1.35529 0.865361 0
M  V30 55321 O 5245.97 1.58396 0.725005 0
M  V30 55322 C 5243.11 3.14485 1.31575 0
M  V30 55323 H 5244.3 2.95986 -0.482969 0
M  V30 55324 H 5241.85 1.53611 -0.288657 0
M  V30 55325 H 5242.59 2.51297 2.04988 0
M  V30 55326 H 5242.37 3.82628 0.856644 0
M  V30 55327 H 5243.86 3.74699 1.84364 0
M  V30 55328 N 5244.3 0.26788 1.55307 0
M  V30 55329 C 5245.23 -0.616506 2.25214 0
M  V30 55330 C 5246.21 -1.16468 1.23973 0
M  V30 55331 O 5247.39 -1.20016 1.52676 0
M  V30 55332 C 5244.52 -1.80402 2.9677 0
M  V30 55333 C 5243.48 -1.3877 4.04879 0
M  V30 55334 C 5242.8 -2.65773 4.63971 0
M  V30 55335 C 5244.1 -0.543232 5.19467 0
M  V30 55336 H 5245.8 -0.0335204 2.99381 0
M  V30 55337 H 5243.34 -0.0146821 1.43993 0
M  V30 55338 H 5245.3 -2.42854 3.44384 0
M  V30 55339 H 5244.02 -2.41272 2.20126 0
M  V30 55340 H 5242.68 -0.786415 3.58066 0
M  V30 55341 H 5242.33 -3.24886 3.84003 0
M  V30 55342 H 5242.03 -2.38632 5.36962 0
M  V30 55343 H 5243.55 -3.29086 5.14329 0
M  V30 55344 H 5244.97 -1.07257 5.63177 0
M  V30 55345 H 5243.36 -0.367009 5.98977 0
M  V30 55346 H 5244.43 0.439703 4.82902 0
M  V30 55347 N 5245.78 -1.57599 -0.00494828 0
M  V30 55348 C 5246.71 -2.11146 -0.996976 0
M  V30 55349 C 5247.69 -1.01945 -1.36166 0
M  V30 55350 O 5248.87 -1.29601 -1.44628 0
M  V30 55351 C 5246 -2.6107 -2.29041 0
M  V30 55352 C 5244.96 -3.74753 -2.06747 0
M  V30 55353 C 5244.28 -4.10973 -3.42061 0
M  V30 55354 C 5245.58 -5.02227 -1.43407 0
M  V30 55355 H 5247.28 -2.94283 -0.551147 0
M  V30 55356 H 5244.82 -1.41566 -0.263665 0
M  V30 55357 H 5246.78 -2.97157 -2.98791 0
M  V30 55358 H 5245.5 -1.75048 -2.75728 0
M  V30 55359 H 5244.16 -3.39052 -1.39424 0
M  V30 55360 H 5243.81 -3.21981 -3.86442 0
M  V30 55361 H 5243.51 -4.8756 -3.27962 0
M  V30 55362 H 5245.03 -4.49614 -4.13134 0
M  V30 55363 H 5246.44 -5.36116 -2.03106 0
M  V30 55364 H 5244.84 -5.83586 -1.39811 0
M  V30 55365 H 5245.91 -4.83225 -0.40268 0
M  V30 55366 N 5247.25 0.277627 -1.55135 0
M  V30 55367 C 5248.16 1.36518 -1.90788 0
M  V30 55368 C 5249.18 1.5428 -0.804596 0
M  V30 55369 O 5250.36 1.68495 -1.10324 0
M  V30 55370 C 5247.42 2.70517 -2.16845 0
M  V30 55371 C 5246.48 2.6154 -3.40434 0
M  V30 55372 C 5245.72 3.89149 -3.65238 0
M  V30 55373 O 5245.94 4.89614 -2.92633 0
M  V30 55374 O 5244.87 3.89631 -4.58771 0
M  V30 55375 H 5248.7 1.0928 -2.83358 0
M  V30 55376 H 5246.28 0.475749 -1.41623 0
M  V30 55377 H 5248.17 3.49756 -2.3505 0
M  V30 55378 H 5246.84 2.9755 -1.27458 0
M  V30 55379 H 5245.75 1.80692 -3.27569 0
M  V30 55380 H 5247.08 2.39457 -4.30025 0
M  V30 55381 N 5248.73 1.4799 0.541927 0
M  V30 55382 C 5250.01 1.45883 1.30298 0
M  V30 55383 C 5250.39 0.164005 2.10462 0
M  V30 55384 O 5249.74 -0.854405 2.11925 0
M  V30 55385 C 5249.95 2.71367 2.19456 0
M  V30 55386 C 5251.3 3.19209 2.79983 0
M  V30 55387 O 5252.32 2.72201 2.2975 0
M  V30 55388 O 5251.18 4.00974 3.71325 0
M  V30 55389 H 5248.27 0.582064 0.587478 0
M  V30 55390 H 5250.82 1.60209 0.559567 0
M  V30 55391 H 5249.59 3.57128 1.59924 0
M  V30 55392 H 5249.21 2.59702 3.01066 0
M  V30 55393 N 5250.21 -0.789872 1.36377 0
M  V30 55394 C 5251.12 -1.93382 1.32818 0
M  V30 55395 C 5252.14 -1.72467 0.230437 0
M  V30 55396 O 5253.31 -1.96012 0.462726 0
M  V30 55397 C 5250.38 -3.28236 1.11632 0
M  V30 55398 C 5249.44 -3.61931 2.30878 0
M  V30 55399 C 5248.67 -4.90351 2.10693 0
M  V30 55400 O 5248.9 -5.60046 1.08187 0
M  V30 55401 O 5247.83 -5.22691 2.98458 0
M  V30 55402 H 5251.66 -1.99334 2.29128 0
M  V30 55403 H 5249.24 -0.930059 1.1692 0
M  V30 55404 H 5251.12 -4.08936 1.01733 0
M  V30 55405 H 5249.8 -3.23178 0.183845 0
M  V30 55406 H 5248.7 -2.8154 2.46345 0
M  V30 55407 H 5250.04 -3.71713 3.2263 0
M  V30 55408 N 5251.69 -1.20649 -1.01398 0
M  V30 55409 C 5252.94 -1.01825 -1.75037 0
M  V30 55410 C 5253.26 0.449319 -1.89239 0
M  V30 55411 O 5252.52 1.3498 -1.417 0
M  V30 55412 C 5252.82 -1.65002 -3.17031 0
M  V30 55413 C 5252.48 -3.14819 -3.228 0
M  V30 55414 C 5251.15 -3.55703 -3.24081 0
M  V30 55415 C 5253.5 -4.10811 -3.20755 0
M  V30 55416 C 5250.83 -4.91101 -3.20993 0
M  V30 55417 C 5253.18 -5.46159 -3.19208 0
M  V30 55418 C 5251.84 -5.86452 -3.18794 0
M  V30 55419 H 5251.11 -0.372605 -0.640505 0
M  V30 55420 H 5253.76 -1.50112 -1.18906 0
M  V30 55421 H 5252.06 -1.08985 -3.76337 0
M  V30 55422 H 5253.76 -1.4795 -3.72709 0
M  V30 55423 H 5250.35 -2.82252 -3.2254 0
M  V30 55424 H 5254.54 -3.80257 -3.18933 0
M  V30 55425 H 5249.79 -5.2158 -3.19005 0
M  V30 55426 H 5253.97 -6.20283 -3.16578 0
M  V30 55427 H 5251.59 -6.91339 -3.16155 0
M  V30 55428 N 5253.17 1.20748 -1.0128 0
M  V30 55429 C 5254.4 1.94004 -0.719045 0
M  V30 55430 C 5254.81 1.74547 0.719649 0
M  V30 55431 O 5254.17 1.05702 1.48773 0
M  V30 55432 C 5254.22 3.46204 -1.04043 0
M  V30 55433 O 5253.94 3.65022 -2.42261 0
M  V30 55434 C 5255.44 4.36611 -0.767186 0
M  V30 55435 H 5252.66 0.616734 -0.264348 0
M  V30 55436 H 5255.2 1.53347 -1.35295 0
M  V30 55437 H 5253.36 3.84754 -0.451987 0
M  V30 55438 H 5253.77 4.59045 -2.53729 0
M  V30 55439 H 5255.25 5.42073 -1.04217 0
M  V30 55440 H 5255.72 4.38183 0.298697 0
M  V30 55441 H 5256.33 4.03718 -1.3376 0
M  V30 55442 N 5254.65 0.78854 1.36454 0
M  V30 55443 C 5256.06 0.423806 1.81826 0
M  V30 55444 C 5256.41 -1.05215 1.65603 0
M  V30 55445 O 5255.53 -1.81626 1.17648 0
M  V30 55446 C 5256.13 0.76247 3.30109 0
M  V30 55447 C 5254.69 0.450576 3.73693 0
M  V30 55448 C 5253.83 0.997573 2.58735 0
M  V30 55449 H 5256.78 0.981762 1.24688 0
M  V30 55450 H 5256.81 0.0532474 3.80463 0
M  V30 55451 H 5256.32 1.83675 3.41885 0
M  V30 55452 H 5254.42 -0.615699 3.67478 0
M  V30 55453 H 5254.53 0.970573 4.69166 0
M  V30 55454 H 5252.9 0.420849 2.51199 0
M  V30 55455 H 5253.68 2.07759 2.73297 0
M  V30 55456 N 5256.12 -1.48042 0.540482 0
M  V30 55457 C 5257.37 -2.02497 0.0102279 0
M  V30 55458 C 5257.7 -1.41656 -1.33281 0
M  V30 55459 O 5256.95 -0.55557 -1.87648 0
M  V30 55460 C 5257.25 -3.57086 -0.149882 0
M  V30 55461 C 5256.92 -4.36765 1.12013 0
M  V30 55462 C 5255.58 -4.58255 1.46818 0
M  V30 55463 C 5257.93 -4.82841 1.96249 0
M  V30 55464 C 5255.26 -5.2307 2.65735 0
M  V30 55465 C 5257.61 -5.48966 3.14354 0
M  V30 55466 C 5256.28 -5.68693 3.49492 0
M  V30 55467 H 5255.55 -0.740991 0.00374266 0
M  V30 55468 H 5258.19 -1.77907 0.708624 0
M  V30 55469 H 5256.5 -3.80575 -0.931125 0
M  V30 55470 H 5258.2 -3.96853 -0.575245 0
M  V30 55471 H 5254.79 -4.20306 0.839105 0
M  V30 55472 H 5258.97 -4.66032 1.7067 0
M  V30 55473 H 5254.23 -5.36539 2.93148 0
M  V30 55474 H 5258.4 -5.83636 3.79924 0
M  V30 55475 H 5256.03 -6.18688 4.41734 0
M  V30 55476 N 5257.6 -0.276112 -1.55162 0
M  V30 55477 C 5258.88 0.392225 -1.91627 0
M  V30 55478 C 5259.26 1.73642 -1.20049 0
M  V30 55479 O 5258.61 2.26138 -0.327686 0
M  V30 55480 C 5258.82 0.53152 -3.44929 0
M  V30 55481 C 5260.16 0.813953 -4.16725 0
M  V30 55482 O 5261.19 0.616289 -3.50828 0
M  V30 55483 O 5260.05 1.19205 -5.33341 0
M  V30 55484 H 5257.14 0.214917 -0.798586 0
M  V30 55485 H 5259.69 -0.322338 -1.66611 0
M  V30 55486 H 5258.46 -0.414419 -3.89099 0
M  V30 55487 H 5258.08 1.29551 -3.75902 0
M  V30 55488 N 5259.08 1.576 -0.00340966 0
M  V30 55489 C 5260.33 1.90998 0.681732 0
M  V30 55490 C 5260.66 0.877704 1.73234 0
M  V30 55491 O 5259.93 -0.103115 1.94226 0
M  V30 55492 C 5260.22 3.34965 1.32175 0
M  V30 55493 C 5260.07 4.48912 0.282453 0
M  V30 55494 C 5261.39 3.78416 2.24698 0
M  V30 55495 H 5258.51 0.694604 0.246361 0
M  V30 55496 H 5261.15 1.89919 -0.0554028 0
M  V30 55497 H 5259.3 3.36015 1.95002 0
M  V30 55498 H 5260.97 4.59998 -0.346403 0
M  V30 55499 H 5259.21 4.31999 -0.39492 0
M  V30 55500 H 5259.89 5.46612 0.769384 0
M  V30 55501 H 5262.36 3.7894 1.71884 0
M  V30 55502 H 5261.24 4.79895 2.66444 0
M  V30 55503 H 5261.5 3.12475 3.12749 0
M  V30 55504 N 5260.56 -0.269396 1.5528 0
M  V30 55505 C 5261.8 -1.002 1.76317 0
M  V30 55506 C 5262.14 -1.8581 0.564647 0
M  V30 55507 O 5261.41 -1.89511 -0.437702 0
M  V30 55508 C 5261.69 -1.88152 3.07035 0
M  V30 55509 C 5261.55 -1.05511 4.3725 0
M  V30 55510 C 5262.87 -2.86799 3.33818 0
M  V30 55511 H 5259.99 -0.362857 0.641486 0
M  V30 55512 H 5262.63 -0.274122 1.88012 0
M  V30 55513 H 5260.78 -2.50213 2.97196 0
M  V30 55514 H 5262.45 -0.454932 4.59051 0
M  V30 55515 H 5260.69 -0.35869 4.32315 0
M  V30 55516 H 5261.36 -1.70378 5.25048 0
M  V30 55517 H 5263.84 -2.34872 3.43474 0
M  V30 55518 H 5262.72 -3.45477 4.2654 0
M  V30 55519 H 5262.98 -3.62109 2.53633 0
M  V30 55520 N 5262.04 -1.48275 -0.534071 0
M  V30 55521 C 5263.45 -1.34305 -0.862225 0
M  V30 55522 C 5263.65 -0.350972 -1.9842 0
M  V30 55523 O 5262.71 0.229276 -2.51457 0
M  V30 55524 C 5264.02 -2.74231 -1.23361 0
M  V30 55525 C 5265.57 -2.82689 -1.34373 0
M  V30 55526 C 5266.04 -4.23308 -1.74856 0
M  V30 55527 N 5267.53 -4.25961 -1.81966 0
M  V30 55528 C 5268.27 -5.31701 -2.14667 0
M  V30 55529 N 5267.77 -6.47722 -2.45821 0
M  V30 55530 N 5269.56 -5.19092 -2.15638 0
M  V30 55531 H 5261.71 -2.11396 0.206289 0
M  V30 55532 H 5263.97 -0.947536 0.029645 0
M  V30 55533 H 5263.68 -3.4837 -0.482845 0
M  V30 55534 H 5263.55 -3.07493 -2.18467 0
M  V30 55535 H 5265.94 -2.08808 -2.08526 0
M  V30 55536 H 5266.02 -2.53052 -0.373974 0
M  V30 55537 H 5265.66 -4.97703 -1.01264 0
M  V30 55538 H 5265.59 -4.50385 -2.72875 0
M  V30 55539 H 5268.09 -3.42271 -1.60184 0
M  V30 55540 H 5268.4 -7.24149 -2.69867 0
M  V30 55541 H 5266.74 -6.51004 -2.43349 0
M  V30 55542 H 5269.93 -4.2747 -1.90755 0
M  V30 55543 H 5270.11 -6.01601 -2.40792 0
M  V30 55544 N 5263.51 0.782628 -1.36794 0
M  V30 55545 C 5264.45 1.90435 -1.27542 0
M  V30 55546 C 5265.46 1.61646 -0.193483 0
M  V30 55547 O 5266.65 1.72767 -0.448753 0
M  V30 55548 C 5263.75 3.25407 -0.946755 0
M  V30 55549 C 5262.92 3.81924 -2.13196 0
M  V30 55550 C 5261.98 4.95349 -1.77528 0
M  V30 55551 O 5261.01 5.11508 -2.49696 0
M  V30 55552 N 5262.21 5.76105 -0.712958 0
M  V30 55553 H 5264.97 1.98891 -2.24193 0
M  V30 55554 H 5262.53 0.961224 -1.30277 0
M  V30 55555 H 5264.53 3.98789 -0.689183 0
M  V30 55556 H 5263.1 3.12523 -0.069169 0
M  V30 55557 H 5262.32 3.0045 -2.55193 0
M  V30 55558 H 5263.6 4.16415 -2.92362 0
M  V30 55559 H 5263 5.65585 -0.113861 0
M  V30 55560 H 5261.56 6.4976 -0.515223 0
M  V30 55561 N 5264.99 1.21185 1.00757 0
M  V30 55562 C 5266.23 1.03892 1.76028 0
M  V30 55563 C 5266.6 -0.420528 1.87338 0
M  V30 55564 O 5267.8 -0.713903 2.59146 0
M  V30 55565 C 5266.07 1.71405 3.13616 0
M  V30 55566 S 5267.63 1.69334 4.0481 0
M  V30 55567 H 5264.45 0.372349 0.605704 0
M  V30 55568 H 5267.05 1.53889 1.20575 0
M  V30 55569 H 5265.75 2.76784 3.03016 0
M  V30 55570 H 5265.28 1.21577 3.74142 0
M  V30 55571 H 5267.3 0.732607 4.90762 0
M  V30 55572 N 5266.47 -1.20209 1.01919 0
M  V30 55573 C 5267.7 -1.9416 0.729144 0
M  V30 55574 C 5268.12 -1.74418 -0.704262 0
M  V30 55575 O 5267.48 -1.04015 -1.48494 0
M  V30 55576 C 5267.53 -3.44255 1.07336 0
M  V30 55577 O 5266.63 -4.11978 0.186512 0
M  V30 55578 H 5265.97 -0.606496 0.270293 0
M  V30 55579 H 5268.5 -1.52566 1.36326 0
M  V30 55580 H 5268.51 -3.94885 1.02617 0
M  V30 55581 H 5267.19 -3.57946 2.11771 0
M  V30 55582 H 5265.76 -3.71759 0.291465 0
M  V30 55583 N 5267.95 -0.795765 -1.36034 0
M  V30 55584 C 5269.2 -0.370361 -1.98677 0
M  V30 55585 C 5269.52 1.06326 -1.63462 0
M  V30 55586 O 5268.79 1.7339 -0.911732 0
M  V30 55587 H 5267.37 -0.133954 -0.734891 0
M  V30 55588 H 5270.03 -1.01921 -1.66127 0
M  V30 55589 H 5269.13 -0.467315 -3.08582 0
M  V30 55590 N 5269.43 1.47754 -0.548326 0
M  V30 55591 C 5270.67 2.02789 -0.0209978 0
M  V30 55592 C 5271.01 1.42273 1.32182 0
M  V30 55593 O 5270.28 0.575066 1.85804 0
M  V30 55594 C 5270.56 3.60008 0.0815409 0
M  V30 55595 C 5270.42 4.30973 -1.28774 0
M  V30 55596 C 5271.74 4.3278 0.799363 0
M  V30 55597 H 5268.85 0.736944 -0.00910475 0
M  V30 55598 H 5271.5 1.7628 -0.708901 0
M  V30 55599 H 5269.65 3.82724 0.667402 0
M  V30 55600 H 5271.32 4.19622 -1.91612 0
M  V30 55601 H 5269.56 3.91673 -1.8648 0
M  V30 55602 H 5270.23 5.39484 -1.1688 0
M  V30 55603 H 5272.71 4.15003 0.302014 0
M  V30 55604 H 5271.58 5.42434 0.840048 0
M  V30 55605 H 5271.85 4.01365 1.85361 0
M  V30 55606 N 5270.9 0.284337 1.55014 0
M  V30 55607 C 5272.13 -0.332876 2.04205 0
M  V30 55608 C 5272.55 -1.48779 1.16234 0
M  V30 55609 O 5271.9 -1.81566 0.184387 0
M  V30 55610 C 5271.96 -0.805083 3.52421 0
M  V30 55611 O 5271.68 0.303843 4.37045 0
M  V30 55612 C 5273.18 -1.48917 4.17539 0
M  V30 55613 H 5270.4 -0.0747213 0.666827 0
M  V30 55614 H 5272.94 0.419118 2.00159 0
M  V30 55615 H 5271.1 -1.50714 3.56881 0
M  V30 55616 H 5271.51 -0.0607859 5.24465 0
M  V30 55617 H 5272.98 -1.7709 5.22822 0
M  V30 55618 H 5273.46 -2.42376 3.66266 0
M  V30 55619 H 5274.07 -0.83072 4.17108 0
M  V30 55620 N 5272.38 -1.57596 0.0117675 0
M  V30 55621 C 5273.63 -1.91074 -0.6706 0
M  V30 55622 C 5273.96 -0.886518 -1.73122 0
M  V30 55623 O 5273.21 0.107067 -1.95407 0
M  V30 55624 C 5273.51 -3.313 -1.3407 0
M  V30 55625 C 5273.18 -4.49012 -0.412147 0
M  V30 55626 C 5271.84 -4.80945 -0.156522 0
M  V30 55627 C 5274.19 -5.20708 0.226477 0
M  V30 55628 C 5271.52 -5.8194 0.745824 0
M  V30 55629 C 5273.87 -6.22664 1.11677 0
M  V30 55630 C 5272.54 -6.53048 1.38146 0
M  V30 55631 H 5271.81 -0.699189 -0.24539 0
M  V30 55632 H 5274.45 -1.91373 0.0698184 0
M  V30 55633 H 5272.76 -3.27181 -2.15545 0
M  V30 55634 H 5274.45 -3.54468 -1.87493 0
M  V30 55635 H 5271.04 -4.24069 -0.621556 0
M  V30 55636 H 5275.23 -4.96282 0.04202 0
M  V30 55637 H 5270.48 -6.03836 0.958778 0
M  V30 55638 H 5274.66 -6.77345 1.61791 0
M  V30 55639 H 5272.29 -7.31124 2.08234 0
M  V30 55640 N 5273.86 0.261157 -1.55421 0
M  V30 55641 C 5274.79 1.34564 -1.8554 0
M  V30 55642 C 5275.81 1.44976 -0.740663 0
M  V30 55643 O 5276.99 1.46581 -1.01864 0
M  V30 55644 C 5274.09 2.72573 -2.01388 0
M  V30 55645 C 5273.27 2.84607 -3.32141 0
M  V30 55646 C 5272.33 4.03367 -3.37907 0
M  V30 55647 O 5271.35 3.93566 -4.11211 0
M  V30 55648 N 5272.55 5.15884 -2.66166 0
M  V30 55649 H 5275.32 1.09068 -2.79149 0
M  V30 55650 H 5272.88 0.451272 -1.55484 0
M  V30 55651 H 5274.87 3.50335 -2.02603 0
M  V30 55652 H 5273.44 2.9084 -1.1459 0
M  V30 55653 H 5272.66 1.93634 -3.43365 0
M  V30 55654 H 5273.95 2.89586 -4.18351 0
M  V30 55655 H 5273.35 5.26736 -2.06315 0
M  V30 55656 H 5271.91 5.91832 -2.7309 0
M  V30 55657 N 5275.34 1.48556 0.526201 0
M  V30 55658 C 5276.56 1.60691 1.31123 0
M  V30 55659 C 5276.99 0.268767 1.8617 0
M  V30 55660 O 5276.35 -0.760109 1.64597 0
M  V30 55661 C 5276.39 2.65946 2.43526 0
M  V30 55662 O 5275.5 2.23368 3.4667 0
M  V30 55663 H 5274.84 0.538705 0.388193 0
M  V30 55664 H 5277.37 1.9457 0.632757 0
M  V30 55665 H 5277.38 2.87337 2.89658 0
M  V30 55666 H 5276.05 3.63092 2.02823 0
M  V30 55667 H 5274.63 2.12207 3.06631 0
M  V30 55668 N 5276.82 -0.775363 1.37207 0
M  V30 55669 C 5277.78 -1.87015 1.32507 0
M  V30 55670 C 5278.78 -1.59149 0.229849 0
M  V30 55671 O 5279.97 -1.67298 0.485482 0
M  V30 55672 C 5277.1 -3.24081 1.05756 0
M  V30 55673 H 5278.29 -1.92596 2.29885 0
M  V30 55674 H 5275.85 -0.974717 1.22184 0
M  V30 55675 H 5276.58 -3.24178 0.088951 0
M  V30 55676 H 5276.37 -3.45698 1.85028 0
M  V30 55677 H 5277.86 -4.04156 1.05108 0
M  V30 55678 N 5278.3 -1.21718 -1.00112 0
M  V30 55679 C 5279.54 -1.0383 -1.74205 0
M  V30 55680 C 5279.87 0.426666 -1.89455 0
M  V30 55681 O 5279.15 1.31653 -1.43171 0
M  V30 55682 C 5279.43 -1.74058 -3.15239 0
M  V30 55683 C 5279.29 -3.28098 -3.07688 0
M  V30 55684 C 5280.6 -1.48628 -4.14243 0
M  V30 55685 H 5277.72 -0.378595 -0.632325 0
M  V30 55686 H 5280.37 -1.49946 -1.16688 0
M  V30 55687 H 5278.52 -1.34852 -3.64345 0
M  V30 55688 H 5280.19 -3.76696 -2.66267 0
M  V30 55689 H 5278.43 -3.582 -2.44694 0
M  V30 55690 H 5279.1 -3.72406 -4.07453 0
M  V30 55691 H 5281.58 -1.82669 -3.7386 0
M  V30 55692 H 5280.45 -2.00275 -5.11059 0
M  V30 55693 H 5280.71 -0.417112 -4.40128 0
M  V30 55694 N 5279.77 1.19667 -1.02555 0
M  V30 55695 C 5280.72 2.22771 -0.603472 0
M  V30 55696 C 5281.69 1.61671 0.381024 0
M  V30 55697 O 5282.88 1.88757 0.278439 0
M  V30 55698 C 5280.02 3.45073 0.0429821 0
M  V30 55699 C 5279.13 4.2057 -0.987154 0
M  V30 55700 C 5278.26 5.3029 -0.310812 0
M  V30 55701 C 5277.3 5.97541 -1.32709 0
M  V30 55702 N 5276.44 6.9883 -0.676788 0
M  V30 55703 H 5281.28 2.58232 -1.48728 0
M  V30 55704 H 5278.82 1.26878 -0.744331 0
M  V30 55705 H 5280.77 4.14926 0.434995 0
M  V30 55706 H 5279.4 3.10277 0.890386 0
M  V30 55707 H 5278.46 3.49695 -1.49726 0
M  V30 55708 H 5279.77 4.6673 -1.75969 0
M  V30 55709 H 5278.92 6.06547 0.136225 0
M  V30 55710 H 5277.66 4.85192 0.493949 0
M  V30 55711 H 5276.67 5.20037 -1.78442 0
M  V30 55712 H 5277.89 6.44723 -2.13329 0
M  V30 55713 H 5275.84 6.55911 0.107942 0
M  V30 55714 H 5275.75 7.43163 -1.38725 0
M  V30 55715 H 5277.02 7.79087 -0.253641 0
M  V30 55716 N 5281.25 0.802969 1.3561 0
M  V30 55717 C 5282.67 0.486267 1.52012 0
M  V30 55718 C 5282.87 -0.993157 1.75324 0
M  V30 55719 O 5281.92 -1.77829 1.79257 0
M  V30 55720 C 5283.24 1.32848 2.69762 0
M  V30 55721 C 5284.78 1.32356 2.83639 0
M  V30 55722 C 5285.26 2.14981 4.0441 0
M  V30 55723 N 5286.75 2.12498 4.11581 0
M  V30 55724 C 5287.49 2.73191 5.04137 0
M  V30 55725 N 5286.98 3.42795 6.02049 0
M  V30 55726 N 5288.77 2.62852 4.96856 0
M  V30 55727 H 5280.93 1.76113 1.18734 0
M  V30 55728 H 5283.19 0.74938 0.580632 0
M  V30 55729 H 5282.89 2.37822 2.59102 0
M  V30 55730 H 5282.77 0.979186 3.64269 0
M  V30 55731 H 5285.16 0.281689 2.93752 0
M  V30 55732 H 5285.24 1.71271 1.9 0
M  V30 55733 H 5284.88 3.19206 3.95057 0
M  V30 55734 H 5284.81 1.73429 4.97222 0
M  V30 55735 H 5287.3 1.61851 3.41486 0
M  V30 55736 H 5287.61 3.86402 6.69264 0
M  V30 55737 H 5285.96 3.46899 6.02234 0
M  V30 55738 H 5289.15 2.08064 4.19317 0
M  V30 55739 H 5289.32 3.10441 5.68797 0
M  V30 55740 N 5282.73 -1.47461 0.556154 0
M  V30 55741 C 5283.96 -2.06868 0.0365312 0
M  V30 55742 C 5284.37 -1.40897 -1.25672 0
M  V30 55743 O 5283.73 -0.505145 -1.7537 0
M  V30 55744 C 5283.78 -3.61128 -0.163857 0
M  V30 55745 O 5283.5 -4.24626 1.07818 0
M  V30 55746 C 5285 -4.37399 -0.720882 0
M  V30 55747 H 5282.22 -0.669465 0.0453635 0
M  V30 55748 H 5284.77 -1.8948 0.769264 0
M  V30 55749 H 5282.92 -3.78034 -0.846717 0
M  V30 55750 H 5283.34 -5.17146 0.875249 0
M  V30 55751 H 5284.81 -5.46019 -0.810392 0
M  V30 55752 H 5285.29 -4.0361 -1.73191 0
M  V30 55753 H 5285.89 -4.25236 -0.0737545 0
M  V30 55754 N 5284.21 -0.292554 -1.54861 0
M  V30 55755 C 5285.46 0.319924 -1.99147 0
M  V30 55756 C 5285.77 1.55654 -1.18454 0
M  V30 55757 O 5286.98 2.24307 -1.52966 0
M  V30 55758 C 5285.43 0.620541 -3.5451 0
M  V30 55759 C 5285.04 -0.597254 -4.44001 0
M  V30 55760 C 5286.78 1.19468 -4.07342 0
M  V30 55761 C 5284.69 -0.270257 -5.90782 0
M  V30 55762 H 5283.62 0.123315 -0.743848 0
M  V30 55763 H 5286.27 -0.399939 -1.79089 0
M  V30 55764 H 5284.65 1.39977 -3.70435 0
M  V30 55765 H 5285.83 -1.3737 -4.39848 0
M  V30 55766 H 5284.14 -1.08944 -4.01896 0
M  V30 55767 H 5286.74 1.45343 -5.14567 0
M  V30 55768 H 5287.08 2.13423 -3.5743 0
M  V30 55769 H 5287.62 0.477346 -3.94926 0
M  V30 55770 H 5284.35 -1.17814 -6.44826 0
M  V30 55771 H 5283.87 0.469082 -5.97963 0
M  V30 55772 H 5285.55 0.131243 -6.46867 0
M  V30 55773 N 5285.69 1.57587 -0.020125 0
M  V30 55774 C 5286.63 2.09671 0.964717 0
M  V30 55775 C 5287.6 0.996687 1.32873 0
M  V30 55776 O 5288.79 1.27035 1.42362 0
M  V30 55777 C 5285.93 2.62108 2.24484 0
M  V30 55778 C 5285.04 3.86086 1.93807 0
M  V30 55779 C 5284.18 4.2695 3.16049 0
M  V30 55780 C 5283.21 5.4371 2.8115 0
M  V30 55781 N 5282.35 5.79773 3.95989 0
M  V30 55782 H 5287.19 2.9354 0.513647 0
M  V30 55783 H 5284.73 1.45097 0.241949 0
M  V30 55784 H 5286.69 2.90597 2.99348 0
M  V30 55785 H 5285.32 1.81084 2.67224 0
M  V30 55786 H 5284.37 3.64382 1.09224 0
M  V30 55787 H 5285.68 4.71034 1.64098 0
M  V30 55788 H 5284.83 4.56828 3.99241 0
M  V30 55789 H 5283.57 3.40752 3.48912 0
M  V30 55790 H 5282.58 5.13536 1.96369 0
M  V30 55791 H 5283.8 6.31601 2.49513 0
M  V30 55792 H 5281.75 4.96531 4.28711 0
M  V30 55793 H 5281.67 6.5934 3.69873 0
M  V30 55794 H 5282.93 6.14252 4.79911 0
M  V30 55795 N 5287.16 -0.252911 1.55557 0
M  V30 55796 C 5288.41 -0.97985 1.76758 0
M  V30 55797 C 5288.73 -1.86081 0.583009 0
M  V30 55798 O 5288 -1.91743 -0.401429 0
M  V30 55799 H 5286.58 -0.364782 0.651877 0
M  V30 55800 H 5289.24 -0.272305 1.92988 0
M  V30 55801 H 5288.34 -1.60508 2.67663 0
M  V30 55802 N 5288.64 -1.48833 -0.518315 0
M  V30 55803 C 5289.87 -1.61124 -1.29794 0
M  V30 55804 C 5290.28 -0.275938 -1.86773 0
M  V30 55805 O 5289.64 0.736358 -1.66985 0
M  V30 55806 C 5289.69 -2.66684 -2.44053 0
M  V30 55807 O 5289.41 -3.95034 -1.8942 0
M  V30 55808 C 5290.91 -2.89522 -3.35696 0
M  V30 55809 H 5288.13 -0.54293 -0.394295 0
M  V30 55810 H 5290.68 -1.94745 -0.624073 0
M  V30 55811 H 5288.83 -2.3589 -3.07303 0
M  V30 55812 H 5289.25 -4.53041 -2.643 0
M  V30 55813 H 5290.72 -3.67156 -4.1219 0
M  V30 55814 H 5291.2 -1.98782 -3.91641 0
M  V30 55815 H 5291.8 -3.21666 -2.78229 0
M  V30 55816 N 5290.12 0.768075 -1.37617 0
M  V30 55817 C 5291.07 1.87175 -1.3019 0
M  V30 55818 C 5292.05 1.59786 -0.188999 0
M  V30 55819 O 5293.25 1.71854 -0.423717 0
M  V30 55820 C 5290.37 3.24694 -1.11483 0
M  V30 55821 C 5289.46 3.58023 -2.27333 0
M  V30 55822 N 5289.85 3.62508 -3.52735 0
M  V30 55823 C 5288.15 3.88209 -2.19568 0
M  V30 55824 C 5288.85 3.92689 -4.29151 0
M  V30 55825 N 5287.83 4.08776 -3.58333 0
M  V30 55826 H 5291.63 1.88899 -2.25154 0
M  V30 55827 H 5289.14 0.964707 -1.30641 0
M  V30 55828 H 5291.14 4.03656 -1.04247 0
M  V30 55829 H 5289.8 3.24231 -0.174395 0
M  V30 55830 H 5290.81 3.44623 -3.86595 0
M  V30 55831 H 5287.49 3.95546 -1.33602 0
M  V30 55832 H 5288.88 4.02903 -5.37697 0
M  V30 55833 N 5291.6 1.22247 0.994655 0
M  V30 55834 C 5292.55 0.958317 2.06882 0
M  V30 55835 C 5293.53 -0.0903916 1.60646 0
M  V30 55836 O 5294.72 0.119899 1.76593 0
M  V30 55837 C 5291.85 0.536063 3.39089 0
M  V30 55838 C 5290.94 1.6194 3.91964 0
M  V30 55839 N 5291.33 2.84674 4.18084 0
M  V30 55840 C 5289.63 1.49068 4.20351 0
M  V30 55841 C 5290.33 3.54713 4.61035 0
M  V30 55842 N 5289.3 2.8218 4.64624 0
M  V30 55843 H 5293.11 1.89064 2.25016 0
M  V30 55844 H 5290.62 1.11974 1.17625 0
M  V30 55845 H 5292.62 0.328143 4.15607 0
M  V30 55846 H 5291.28 -0.389377 3.22357 0
M  V30 55847 H 5292.29 3.21118 4.0633 0
M  V30 55848 H 5288.97 0.631299 4.12699 0
M  V30 55849 H 5290.36 4.59854 4.89882 0
M  V30 55850 N 5293.08 -1.19122 1.03188 0
M  V30 55851 C 5294.32 -1.89425 0.740924 0
M  V30 55852 C 5294.68 -1.78305 -0.722847 0
M  V30 55853 O 5293.97 -1.16661 -1.51989 0
M  V30 55854 C 5294.16 -3.39048 1.13053 0
M  V30 55855 C 5293.99 -3.6473 2.63063 0
M  V30 55856 C 5292.76 -3.82591 3.30079 0
M  V30 55857 C 5294.96 -3.66039 3.61275 0
M  V30 55858 N 5292.94 -3.9593 4.69161 0
M  V30 55859 C 5294.31 -3.84986 4.85989 0
M  V30 55860 C 5296.37 -3.49081 3.55031 0
M  V30 55861 C 5295.07 -3.88731 6.05211 0
M  V30 55862 C 5297.1 -3.54105 4.7367 0
M  V30 55863 C 5296.46 -3.7354 5.972 0
M  V30 55864 H 5292.56 -0.712159 0.323039 0
M  V30 55865 H 5295.14 -1.43142 1.31979 0
M  V30 55866 H 5293.31 -3.84048 0.579834 0
M  V30 55867 H 5295.05 -3.96884 0.791509 0
M  V30 55868 H 5291.8 -3.81605 2.80489 0
M  V30 55869 H 5292.23 -4.06442 5.41418 0
M  V30 55870 H 5296.87 -3.33009 2.60509 0
M  V30 55871 H 5294.59 -4.03595 7.00098 0
M  V30 55872 H 5298.17 -3.4227 4.70471 0
M  V30 55873 H 5297.05 -3.77306 6.87466 0
M  V30 55874 N 5294.55 -0.810149 -1.35183 0
M  V30 55875 C 5295.48 -0.237535 -2.32289 0
M  V30 55876 C 5296.47 0.638977 -1.57642 0
M  V30 55877 O 5297.65 0.56851 -1.85692 0
M  V30 55878 C 5294.78 0.611843 -3.41868 0
M  V30 55879 C 5293.73 -0.166468 -4.27676 0
M  V30 55880 C 5293.06 0.804838 -5.28608 0
M  V30 55881 C 5294.36 -1.36747 -5.04081 0
M  V30 55882 H 5296.05 -1.04883 -2.80428 0
M  V30 55883 H 5293.6 -0.505798 -1.34825 0
M  V30 55884 H 5295.55 1.02252 -4.08806 0
M  V30 55885 H 5294.28 1.45606 -2.92346 0
M  V30 55886 H 5292.94 -0.558366 -3.62323 0
M  V30 55887 H 5292.58 1.64466 -4.75352 0
M  V30 55888 H 5292.28 0.28837 -5.86892 0
M  V30 55889 H 5293.81 1.21365 -5.98417 0
M  V30 55890 H 5295.22 -1.03148 -5.63945 0
M  V30 55891 H 5293.62 -1.81868 -5.71878 0
M  V30 55892 H 5294.69 -2.15229 -4.34516 0
M  V30 55893 N 5296.03 1.47164 -0.563966 0
M  V30 55894 C 5296.96 2.32894 0.168066 0
M  V30 55895 C 5297.94 1.44205 0.902163 0
M  V30 55896 O 5299.13 1.73051 0.881304 0
M  V30 55897 C 5296.26 3.2612 1.19427 0
M  V30 55898 C 5295.21 4.24104 0.576213 0
M  V30 55899 C 5294.54 5.06702 1.70754 0
M  V30 55900 C 5295.84 5.20141 -0.474433 0
M  V30 55901 H 5297.53 2.94348 -0.547677 0
M  V30 55902 H 5295.08 1.41544 -0.264827 0
M  V30 55903 H 5297.03 3.84941 1.71461 0
M  V30 55904 H 5295.76 2.62735 1.94005 0
M  V30 55905 H 5294.41 3.66519 0.0771246 0
M  V30 55906 H 5294.06 4.39716 2.44252 0
M  V30 55907 H 5293.76 5.73045 1.29974 0
M  V30 55908 H 5295.29 5.68383 2.231 0
M  V30 55909 H 5296.7 5.73286 -0.039905 0
M  V30 55910 H 5295.1 5.94724 -0.801496 0
M  V30 55911 H 5296.17 4.65209 -1.3678 0
M  V30 55912 N 5297.51 0.300763 1.54704 0
M  V30 55913 C 5298.44 -0.568596 2.26471 0
M  V30 55914 C 5299.42 -1.13812 1.26415 0
M  V30 55915 O 5300.61 -1.1675 1.55187 0
M  V30 55916 C 5297.74 -1.74066 3.0053 0
M  V30 55917 C 5296.69 -1.30151 4.07731 0
M  V30 55918 C 5296.02 -2.55871 4.69504 0
M  V30 55919 C 5297.32 -0.432923 5.20503 0
M  V30 55920 H 5299.01 0.0299903 2.99385 0
M  V30 55921 H 5296.56 0.0158641 1.43991 0
M  V30 55922 H 5298.51 -2.35494 3.49457 0
M  V30 55923 H 5297.23 -2.36548 2.25194 0
M  V30 55924 H 5295.89 -0.710287 3.59653 0
M  V30 55925 H 5295.54 -3.16667 3.90808 0
M  V30 55926 H 5295.24 -2.27188 5.41903 0
M  V30 55927 H 5296.76 -3.18102 5.21194 0
M  V30 55928 H 5298.18 -0.952871 5.65326 0
M  V30 55929 H 5296.58 -0.239874 5.9962 0
M  V30 55930 H 5297.65 0.542035 4.81861 0
M  V30 55931 N 5298.99 -1.57574 0.028482 0
M  V30 55932 C 5300.22 -1.96074 -0.660506 0
M  V30 55933 C 5300.63 -0.904939 -1.65699 0
M  V30 55934 O 5299.99 0.113315 -1.82148 0
M  V30 55935 C 5300.04 -3.34639 -1.36745 0
M  V30 55936 O 5299.76 -4.36169 -0.410888 0
M  V30 55937 C 5301.26 -3.87766 -2.14831 0
M  V30 55938 H 5298.48 -0.645801 -0.182161 0
M  V30 55939 H 5301.03 -2.0431 0.0880577 0
M  V30 55940 H 5299.18 -3.27623 -2.06741 0
M  V30 55941 H 5299.59 -5.16496 -0.912819 0
M  V30 55942 H 5301.07 -4.87067 -2.5975 0
M  V30 55943 H 5301.55 -3.21978 -2.98709 0
M  V30 55944 H 5302.15 -3.98048 -1.49793 0
M  V30 55945 N 5300.47 0.244658 -1.55689 0
M  V30 55946 C 5301.72 0.97031 -1.76827 0
M  V30 55947 C 5302.03 1.864 -0.59283 0
M  V30 55948 O 5303.23 2.62657 -0.687279 0
M  V30 55949 C 5301.69 1.77536 -3.13064 0
M  V30 55950 C 5301.3 0.92895 -4.38263 0
M  V30 55951 C 5303.04 2.49361 -3.4354 0
M  V30 55952 C 5300.95 1.73002 -5.6553 0
M  V30 55953 H 5299.88 0.366024 -0.659198 0
M  V30 55954 H 5302.53 0.2249 -1.82117 0
M  V30 55955 H 5300.91 2.56281 -3.01888 0
M  V30 55956 H 5302.09 0.183674 -4.60434 0
M  V30 55957 H 5300.4 0.323925 -4.15138 0
M  V30 55958 H 5303 3.09752 -4.35841 0
M  V30 55959 H 5303.34 3.21089 -2.64967 0
M  V30 55960 H 5303.87 1.77625 -3.55941 0
M  V30 55961 H 5300.61 1.05643 -6.46931 0
M  V30 55962 H 5300.13 2.45051 -5.47458 0
M  V30 55963 H 5301.81 2.29659 -6.04869 0
M  V30 55964 N 5301.94 1.49106 0.510415 0
M  V30 55965 C 5302.87 1.67987 1.62181 0
M  V30 55966 C 5303.86 0.528586 1.61679 0
M  V30 55967 O 5305.04 0.763368 1.78567 0
M  V30 55968 C 5302.17 1.73765 3.00704 0
M  V30 55969 C 5301.12 2.8859 3.1607 0
M  V30 55970 C 5300.45 2.79473 4.5585 0
M  V30 55971 C 5301.75 4.29648 2.96985 0
M  V30 55972 H 5303.44 2.61034 1.46634 0
M  V30 55973 H 5300.99 1.25618 0.703998 0
M  V30 55974 H 5302.94 1.85561 3.78345 0
M  V30 55975 H 5301.67 0.773108 3.17318 0
M  V30 55976 H 5300.33 2.76381 2.40851 0
M  V30 55977 H 5299.97 1.80946 4.69327 0
M  V30 55978 H 5299.67 3.56534 4.67073 0
M  V30 55979 H 5301.2 2.93263 5.35564 0
M  V30 55980 H 5302.61 4.42588 3.64402 0
M  V30 55981 H 5301.01 5.07859 3.19687 0
M  V30 55982 H 5302.08 4.44748 1.93203 0
M  V30 55983 N 5303.42 -0.760766 1.38022 0
M  V30 55984 C 5304.65 -1.54996 1.37054 0
M  V30 55985 C 5305.07 -1.88754 -0.0414598 0
M  V30 55986 O 5304.42 -1.52257 -1.00618 0
M  V30 55987 C 5304.47 -2.85352 2.21938 0
M  V30 55988 O 5304.19 -2.53037 3.57637 0
M  V30 55989 C 5305.7 -3.79528 2.29071 0
M  V30 55990 H 5302.92 -0.479828 0.469048 0
M  V30 55991 H 5305.46 -0.942084 1.81508 0
M  V30 55992 H 5303.61 -3.42535 1.80965 0
M  V30 55993 H 5304.03 -3.3659 4.02253 0
M  V30 55994 H 5305.5 -4.67967 2.92765 0
M  V30 55995 H 5305.98 -4.19449 1.30228 0
M  V30 55996 H 5306.59 -3.28271 2.70404 0
M  V30 55997 N 5304.9 -1.22773 -0.988158 0
M  V30 55998 C 5306.13 -1.08245 -1.76912 0
M  V30 55999 C 5306.55 0.362454 -1.84575 0
M  V30 56000 O 5305.91 1.26197 -1.30169 0
M  V30 56001 C 5305.96 -1.70374 -3.17813 0
M  V30 56002 O 5305.06 -0.960625 -4.01056 0
M  V30 56003 H 5304.4 -0.379891 -0.54459 0
M  V30 56004 H 5306.93 -1.62668 -1.24098 0
M  V30 56005 H 5306.94 -1.75293 -3.68424 0
M  V30 56006 H 5305.62 -2.75516 -3.1155 0
M  V30 56007 H 5304.19 -0.987793 -3.59579 0
M  V30 56008 N 5306.38 1.18573 -1.03818 0
M  V30 56009 C 5307.31 2.24332 -0.647874 0
M  V30 56010 C 5308.29 1.66509 0.347681 0
M  V30 56011 O 5309.47 1.92853 0.228333 0
M  V30 56012 C 5306.6 3.47299 -0.00747131 0
M  V30 56013 C 5305.56 4.17856 -0.926299 0
M  V30 56014 C 5304.89 5.34488 -0.150505 0
M  V30 56015 C 5306.18 4.71624 -2.24428 0
M  V30 56016 H 5307.88 2.57235 -1.532 0
M  V30 56017 H 5305.43 1.23647 -0.738071 0
M  V30 56018 H 5307.38 4.20487 0.277286 0
M  V30 56019 H 5306.1 3.13622 0.911516 0
M  V30 56020 H 5304.76 3.46563 -1.1954 0
M  V30 56021 H 5304.41 4.97059 0.77081 0
M  V30 56022 H 5304.11 5.8263 -0.762612 0
M  V30 56023 H 5305.63 6.10467 0.127293 0
M  V30 56024 H 5307.05 5.36519 -2.0204 0
M  V30 56025 H 5305.44 5.3029 -2.80913 0
M  V30 56026 H 5306.51 3.89182 -2.8925 0
M  V30 56027 N 5307.86 0.817307 1.34751 0
M  V30 56028 C 5308.79 0.24985 2.32159 0
M  V30 56029 C 5309.77 -0.630608 1.57979 0
M  V30 56030 O 5310.95 -0.558654 1.85991 0
M  V30 56031 C 5308.08 -0.593705 3.42188 0
M  V30 56032 C 5307.04 0.189147 4.27582 0
M  V30 56033 C 5306.36 -0.776793 5.29027 0
M  V30 56034 C 5307.66 1.39418 5.03349 0
M  V30 56035 H 5309.36 1.06369 2.79868 0
M  V30 56036 H 5306.9 0.512941 1.34555 0
M  V30 56037 H 5308.86 -1.00083 4.09343 0
M  V30 56038 H 5307.58 -1.44054 2.93114 0
M  V30 56039 H 5306.24 0.577573 3.62022 0
M  V30 56040 H 5305.89 -1.61943 4.76218 0
M  V30 56041 H 5305.59 -0.257242 5.87037 0
M  V30 56042 H 5307.11 -1.18189 5.99052 0
M  V30 56043 H 5308.53 1.06137 5.6339 0
M  V30 56044 H 5306.92 1.84898 5.70905 0
M  V30 56045 H 5307.99 2.1753 4.33369 0
M  V30 56046 N 5309.34 -1.46863 0.571763 0
M  V30 56047 C 5310.58 -2.0273 0.0532571 0
M  V30 56048 C 5310.91 -1.44358 -1.29902 0
M  V30 56049 O 5310.19 -0.604553 -1.84866 0
M  V30 56050 C 5310.47 -3.60092 -0.0242565 0
M  V30 56051 C 5310.33 -4.28869 1.35614 0
M  V30 56052 C 5311.64 -4.33997 -0.73041 0
M  V30 56053 H 5308.76 -0.736706 0.0208277 0
M  V30 56054 H 5311.41 -1.7513 0.736856 0
M  V30 56055 H 5309.56 -3.83738 -0.60643 0
M  V30 56056 H 5311.23 -4.1652 1.98264 0
M  V30 56057 H 5309.47 -3.88657 1.92687 0
M  V30 56058 H 5310.14 -5.37556 1.25448 0
M  V30 56059 H 5312.62 -4.1543 -0.235952 0
M  V30 56060 H 5311.49 -5.43702 -0.753645 0
M  V30 56061 H 5311.75 -4.04263 -1.78952 0
M  V30 56062 N 5310.81 -0.308963 -1.54542 0
M  V30 56063 C 5311.74 0.556577 -2.2677 0
M  V30 56064 C 5312.72 1.1314 -1.27017 0
M  V30 56065 O 5313.91 1.15925 -1.55804 0
M  V30 56066 C 5311.04 1.7247 -3.01449 0
M  V30 56067 C 5309.99 1.27986 -4.08416 0
M  V30 56068 C 5309.32 2.53378 -4.70854 0
M  V30 56069 C 5310.62 0.405313 -5.20725 0
M  V30 56070 H 5312.31 -0.045867 -2.99365 0
M  V30 56071 H 5309.86 -0.0235001 -1.43981 0
M  V30 56072 H 5311.81 2.33637 -3.50701 0
M  V30 56073 H 5310.54 2.35351 -2.26446 0
M  V30 56074 H 5309.2 0.691204 -3.60025 0
M  V30 56075 H 5308.84 3.1459 -3.92482 0
M  V30 56076 H 5308.54 2.24311 -5.43101 0
M  V30 56077 H 5310.07 3.15334 -5.22874 0
M  V30 56078 H 5311.48 0.922877 -5.65823 0
M  V30 56079 H 5309.88 0.208072 -5.99739 0
M  V30 56080 H 5310.95 -0.567582 -4.81567 0
M  V30 56081 N 5312.29 1.57557 -0.0368381 0
M  V30 56082 C 5313.54 1.92401 0.641065 0
M  V30 56083 C 5313.87 0.914252 1.71333 0
M  V30 56084 O 5313.15 -0.0618933 1.94401 0
M  V30 56085 C 5313.43 3.37694 1.2504 0
M  V30 56086 C 5313.28 4.4941 0.187168 0
M  V30 56087 C 5314.6 3.83097 2.1662 0
M  V30 56088 H 5311.72 0.699674 0.231572 0
M  V30 56089 H 5314.36 1.89759 -0.095675 0
M  V30 56090 H 5312.51 3.40076 1.87831 0
M  V30 56091 H 5314.18 4.59159 -0.443897 0
M  V30 56092 H 5312.43 4.31064 -0.486464 0
M  V30 56093 H 5313.1 5.48121 0.653267 0
M  V30 56094 H 5315.57 3.825 1.63807 0
M  V30 56095 H 5314.45 4.85438 2.56204 0
M  V30 56096 H 5314.71 3.19038 3.0605 0
M  V30 56097 N 5313.77 -0.236398 1.55817 0
M  V30 56098 C 5314.7 -1.31595 1.87657 0
M  V30 56099 C 5315.71 -1.43779 0.763634 0
M  V30 56100 O 5316.9 -1.44942 1.04183 0
M  V30 56101 C 5314 -2.69335 2.05699 0
M  V30 56102 C 5313.18 -2.79286 3.36627 0
M  V30 56103 C 5312.24 -3.9794 3.44282 0
M  V30 56104 O 5311.26 -3.86974 4.1742 0
M  V30 56105 N 5312.46 -5.11584 2.74339 0
M  V30 56106 H 5315.23 -1.04613 2.80849 0
M  V30 56107 H 5312.79 -0.426479 1.56182 0
M  V30 56108 H 5314.78 -3.47067 2.0815 0
M  V30 56109 H 5313.35 -2.8898 1.19202 0
M  V30 56110 H 5312.57 -1.88147 3.46402 0
M  V30 56111 H 5313.86 -2.82893 4.22905 0
M  V30 56112 H 5313.26 -5.23387 2.14669 0
M  V30 56113 H 5311.81 -5.87413 2.82471 0
M  V30 56114 N 5315.25 -1.49374 -0.5025 0
M  V30 56115 C 5316.47 -1.62756 -1.2855 0
M  V30 56116 C 5316.9 -0.298351 -1.85719 0
M  V30 56117 O 5316.26 0.733827 -1.65785 0
M  V30 56118 C 5316.3 -2.69787 -2.39264 0
M  V30 56119 O 5315.41 -2.28855 -3.43073 0
M  V30 56120 H 5314.75 -0.544812 -0.379573 0
M  V30 56121 H 5317.28 -1.95552 -0.601723 0
M  V30 56122 H 5317.29 -2.91909 -2.8505 0
M  V30 56123 H 5315.96 -3.66273 -1.9702 0
M  V30 56124 H 5314.54 -2.17058 -3.03216 0
M  V30 56125 N 5316.73 0.753436 -1.38424 0
M  V30 56126 C 5317.95 1.54267 -1.37874 0
M  V30 56127 C 5318.37 1.88774 0.0314491 0
M  V30 56128 O 5317.73 1.52789 0.998094 0
M  V30 56129 C 5317.78 2.84171 -2.23448 0
M  V30 56130 O 5317.5 2.51136 -3.58974 0
M  V30 56131 C 5319 3.78308 -2.3108 0
M  V30 56132 H 5316.22 0.477333 -0.471586 0
M  V30 56133 H 5318.76 0.932445 -1.82005 0
M  V30 56134 H 5316.92 3.41571 -1.82779 0
M  V30 56135 H 5317.33 3.34452 -4.04033 0
M  V30 56136 H 5318.81 4.66407 -2.95243 0
M  V30 56137 H 5319.28 4.18752 -1.32451 0
M  V30 56138 H 5319.89 3.26832 -2.72141 0
M  V30 56139 N 5318.2 1.23295 0.981634 0
M  V30 56140 C 5319.14 0.970855 2.07622 0
M  V30 56141 C 5320.15 -0.0546934 1.62708 0
M  V30 56142 O 5321.34 0.180686 1.77583 0
M  V30 56143 C 5318.44 0.440668 3.36023 0
M  V30 56144 C 5317.61 1.52609 4.09914 0
M  V30 56145 C 5316.67 1.001 5.16591 0
M  V30 56146 O 5315.7 1.6897 5.43542 0
M  V30 56147 N 5316.9 -0.171813 5.80246 0
M  V30 56148 H 5319.66 1.91324 2.30684 0
M  V30 56149 H 5317.22 1.14137 1.14824 0
M  V30 56150 H 5319.22 0.0744533 4.04632 0
M  V30 56151 H 5317.79 -0.407102 3.09938 0
M  V30 56152 H 5317.01 2.06513 3.35777 0
M  V30 56153 H 5318.29 2.25606 4.56047 0
M  V30 56154 H 5317.69 -0.747932 5.60734 0
M  V30 56155 H 5316.25 -0.479304 6.50035 0
M  V30 56156 N 5319.68 -1.1802 1.04446 0
M  V30 56157 C 5320.93 -1.88629 0.760973 0
M  V30 56158 C 5321.28 -1.79062 -0.703895 0
M  V30 56159 O 5320.58 -1.18266 -1.50744 0
M  V30 56160 C 5320.77 -3.3783 1.16643 0
M  V30 56161 C 5320.6 -3.61919 2.66916 0
M  V30 56162 C 5319.37 -3.79068 3.34119 0
M  V30 56163 C 5321.57 -3.62187 3.65137 0
M  V30 56164 N 5319.55 -3.90932 4.73334 0
M  V30 56165 C 5320.92 -3.7981 4.90045 0
M  V30 56166 C 5322.97 -3.45296 3.58713 0
M  V30 56167 C 5321.68 -3.82291 6.093 0
M  V30 56168 C 5323.7 -3.49061 4.774 0
M  V30 56169 C 5323.07 -3.67185 6.01128 0
M  V30 56170 H 5319.16 -0.708692 0.330574 0
M  V30 56171 H 5321.75 -1.41734 1.3349 0
M  V30 56172 H 5319.92 -3.83411 0.620535 0
M  V30 56173 H 5321.65 -3.96023 0.833559 0
M  V30 56174 H 5318.41 -3.78609 2.84521 0
M  V30 56175 H 5318.83 -4.00677 5.45699 0
M  V30 56176 H 5323.47 -3.30227 2.64026 0
M  V30 56177 H 5321.19 -3.96147 7.04339 0
M  V30 56178 H 5324.78 -3.37261 4.74074 0
M  V30 56179 H 5323.66 -3.69993 6.9143 0
M  V30 56180 N 5321.16 -0.824441 -1.34316 0
M  V30 56181 C 5322.39 -0.425266 -2.02993 0
M  V30 56182 C 5322.81 0.96142 -1.61674 0
M  V30 56183 O 5322.17 1.6259 -0.802127 0
M  V30 56184 C 5322.22 -0.53713 -3.56577 0
M  V30 56185 O 5321.32 0.442432 -4.1002 0
M  V30 56186 H 5320.66 -0.174876 -0.640558 0
M  V30 56187 H 5323.19 -1.11528 -1.7153 0
M  V30 56188 H 5323.2 -0.413453 -4.059 0
M  V30 56189 H 5321.88 -1.54849 -3.85998 0
M  V30 56190 H 5320.45 0.277513 -3.71866 0
M  V30 56191 N 5322.64 1.46557 -0.579543 0
M  V30 56192 C 5323.57 2.3306 0.143355 0
M  V30 56193 C 5324.55 1.45154 0.886817 0
M  V30 56194 O 5325.73 1.73976 0.8629 0
M  V30 56195 C 5322.86 3.27369 1.15962 0
M  V30 56196 C 5321.82 4.24691 0.531199 0
M  V30 56197 C 5321.14 5.08485 1.6537 0
M  V30 56198 C 5322.44 5.19608 -0.529574 0
M  V30 56199 H 5324.14 2.93751 -0.578866 0
M  V30 56200 H 5321.68 1.41255 -0.279825 0
M  V30 56201 H 5323.64 3.86737 1.67368 0
M  V30 56202 H 5322.36 2.64778 1.91207 0
M  V30 56203 H 5321.02 3.6658 0.038246 0
M  V30 56204 H 5320.67 4.42281 2.39575 0
M  V30 56205 H 5320.37 5.74391 1.23889 0
M  V30 56206 H 5321.89 5.70717 2.17059 0
M  V30 56207 H 5323.31 5.73212 -0.100707 0
M  V30 56208 H 5321.7 5.9384 -0.864529 0
M  V30 56209 H 5322.77 4.63732 -1.41707 0
M  V30 56210 N 5324.12 0.317154 1.54376 0
M  V30 56211 C 5325.36 -0.287339 2.00451 0
M  V30 56212 C 5325.69 -1.52644 1.20541 0
M  V30 56213 O 5324.95 -1.93774 0.273899 0
M  V30 56214 C 5325.25 -0.672793 3.5101 0
M  V30 56215 C 5324.91 0.466403 4.48481 0
M  V30 56216 C 5323.57 0.7791 4.74851 0
M  V30 56217 C 5325.93 1.23194 5.06431 0
M  V30 56218 C 5323.25 1.86017 5.5643 0
M  V30 56219 C 5325.61 2.30304 5.89188 0
M  V30 56220 C 5324.27 2.62163 6.13862 0
M  V30 56221 H 5323.54 -0.105145 0.733502 0
M  V30 56222 H 5326.19 0.439604 1.86386 0
M  V30 56223 H 5324.49 -1.48007 3.62769 0
M  V30 56224 H 5326.19 -1.15196 3.84098 0
M  V30 56225 H 5322.78 0.212599 4.28072 0
M  V30 56226 H 5326.96 1.00361 4.86047 0
M  V30 56227 H 5322.22 2.11154 5.7378 0
M  V30 56228 H 5326.39 2.9007 6.33113 0
M  V30 56229 H 5324.02 3.46061 6.76865 0
M  V30 56230 N 5325.59 -1.57535 0.0451932 0
M  V30 56231 C 5326.84 -1.92453 -0.62992 0
M  V30 56232 C 5327.17 -0.92304 -1.71202 0
M  V30 56233 O 5326.42 0.0655939 -1.9559 0
M  V30 56234 C 5326.72 -3.3407 -1.27013 0
M  V30 56235 C 5326.39 -4.49786 -0.316812 0
M  V30 56236 C 5325.05 -4.81169 -0.0544715 0
M  V30 56237 C 5327.4 -5.2011 0.336876 0
M  V30 56238 C 5324.73 -5.80227 0.869094 0
M  V30 56239 C 5327.08 -6.20155 1.2486 0
M  V30 56240 C 5325.75 -6.49971 1.51967 0
M  V30 56241 H 5325.02 -0.704236 -0.230504 0
M  V30 56242 H 5327.66 -1.91182 0.110396 0
M  V30 56243 H 5325.97 -3.3168 -2.08557 0
M  V30 56244 H 5327.67 -3.58365 -1.79932 0
M  V30 56245 H 5324.26 -4.25292 -0.531465 0
M  V30 56246 H 5328.44 -4.96081 0.147279 0
M  V30 56247 H 5323.7 -6.01666 1.08664 0
M  V30 56248 H 5327.87 -6.73761 1.76122 0
M  V30 56249 H 5325.5 -7.26543 2.23695 0
M  V30 56250 N 5327.07 0.228132 -1.5594 0
M  V30 56251 C 5328.32 0.953489 -1.78647 0
M  V30 56252 C 5328.65 1.84594 -0.612815 0
M  V30 56253 O 5327.9 1.91503 0.403108 0
M  V30 56254 C 5328.2 1.82913 -3.07047 0
M  V30 56255 C 5327.87 1.09047 -4.37515 0
M  V30 56256 C 5326.53 0.886399 -4.72966 0
M  V30 56257 C 5328.88 0.568351 -5.18092 0
M  V30 56258 C 5326.21 0.148207 -5.86513 0
M  V30 56259 C 5328.56 -0.156465 -6.32406 0
M  V30 56260 C 5327.23 -0.371846 -6.66463 0
M  V30 56261 H 5326.5 0.348906 -0.653717 0
M  V30 56262 H 5329.14 0.222144 -1.90207 0
M  V30 56263 H 5327.45 2.62813 -2.9058 0
M  V30 56264 H 5329.14 2.39239 -3.21817 0
M  V30 56265 H 5325.73 1.25949 -4.09677 0
M  V30 56266 H 5329.92 0.713501 -4.91144 0
M  V30 56267 H 5325.17 -0.0289568 -6.11393 0
M  V30 56268 H 5329.35 -0.568577 -6.94075 0
M  V30 56269 H 5326.98 -0.945787 -7.54294 0
M  V30 56270 N 5328.55 1.49639 0.494571 0
M  V30 56271 C 5329.48 1.69698 1.6039 0
M  V30 56272 C 5330.46 0.545705 1.61109 0
M  V30 56273 O 5331.65 0.782264 1.77748 0
M  V30 56274 C 5328.78 1.76945 2.98844 0
M  V30 56275 C 5327.73 2.91926 3.12991 0
M  V30 56276 C 5327.06 2.84292 4.5286 0
M  V30 56277 C 5328.36 4.32774 2.92411 0
M  V30 56278 H 5330.05 2.62575 1.43857 0
M  V30 56279 H 5327.6 1.26358 0.690635 0
M  V30 56280 H 5329.55 1.89564 3.76356 0
M  V30 56281 H 5328.27 0.80672 3.1648 0
M  V30 56282 H 5326.93 2.7892 2.37906 0
M  V30 56283 H 5326.58 1.85914 4.67381 0
M  V30 56284 H 5326.28 3.61468 4.63265 0
M  V30 56285 H 5327.8 2.98927 5.32424 0
M  V30 56286 H 5329.22 4.46428 3.59687 0
M  V30 56287 H 5327.62 5.11221 3.14282 0
M  V30 56288 H 5328.69 4.46772 1.88475 0
M  V30 56289 N 5330.03 -0.746085 1.38821 0
M  V30 56290 C 5331.26 -1.53311 1.38489 0
M  V30 56291 C 5331.67 -1.89183 -0.0252666 0
M  V30 56292 O 5331.01 -1.53824 -1.00419 0
M  V30 56293 C 5331.07 -2.85616 2.18321 0
M  V30 56294 C 5330.74 -2.7224 3.67062 0
M  V30 56295 C 5331.73 -2.41531 4.6039 0
M  V30 56296 C 5329.42 -2.89458 4.10511 0
M  V30 56297 C 5331.41 -2.28205 5.95148 0
M  V30 56298 C 5329.1 -2.75751 5.45348 0
M  V30 56299 C 5330.1 -2.45168 6.37481 0
M  V30 56300 O 5329.78 -2.31534 7.69836 0
M  V30 56301 H 5329.52 -0.480746 0.475246 0
M  V30 56302 H 5332.07 -0.930505 1.83114 0
M  V30 56303 H 5330.3 -3.48094 1.68426 0
M  V30 56304 H 5331.99 -3.47171 2.10303 0
M  V30 56305 H 5332.76 -2.2789 4.28125 0
M  V30 56306 H 5328.63 -3.12257 3.39141 0
M  V30 56307 H 5332.18 -2.04255 6.67027 0
M  V30 56308 H 5328.08 -2.88967 5.77207 0
M  V30 56309 H 5328.84 -2.46689 7.8044 0
M  V30 56310 N 5331.51 -1.23814 -0.975081 0
M  V30 56311 C 5332.42 -1.04087 -2.10245 0
M  V30 56312 C 5333.43 0.0161792 -1.73992 0
M  V30 56313 O 5334.61 -0.180417 -2.0059 0
M  V30 56314 C 5331.67 -0.640133 -3.40739 0
M  V30 56315 C 5330.73 -1.77284 -3.90985 0
M  V30 56316 C 5329.97 -1.39112 -5.15251 0
M  V30 56317 O 5330.19 -0.277683 -5.69724 0
M  V30 56318 O 5329.12 -2.21412 -5.59697 0
M  V30 56319 H 5332.95 -1.98583 -2.29779 0
M  V30 56320 H 5330.54 -1.02567 -1.08629 0
M  V30 56321 H 5332.42 -0.427832 -4.19223 0
M  V30 56322 H 5331.09 0.275777 -3.22523 0
M  V30 56323 H 5330 -2.03982 -3.13595 0
M  V30 56324 H 5331.33 -2.66725 -4.13665 0
M  V30 56325 N 5332.98 1.17465 -1.0507 0
M  V30 56326 C 5333.93 2.23493 -0.644497 0
M  V30 56327 C 5334.93 1.66082 0.333627 0
M  V30 56328 O 5336.13 1.78887 0.199823 0
M  V30 56329 H 5332.51 0.727539 -0.19024 0
M  V30 56330 H 5334.48 2.55053 -1.54889 0
M  V30 56331 C 5333.23 3.47683 -0.0339273 0
M  V30 56332 H 5332.55 3.92164 -0.777651 0
M  V30 56333 H 5333.99 4.23465 0.212937 0
M  V30 56334 C 5332.45 3.14072 1.21904 0
M  V30 56335 O 5332.98 3.28736 2.30859 0
M  V30 56336 N 5331.19 2.68307 1.11622 0
M  V30 56337 H 5330.73 2.56575 0.229583 0
M  V30 56338 H 5330.69 2.46191 1.95544 0
M  V30 56339 N 5334.46 0.831553 1.33877 0
M  V30 56340 C 5335.43 0.264853 2.27665 0
M  V30 56341 C 5336.43 -0.56222 1.50651 0
M  V30 56342 O 5337.62 -0.377071 1.7007 0
M  V30 56343 C 5334.75 -0.627697 3.35071 0
M  V30 56344 H 5335.94 1.09235 2.79299 0
M  V30 56345 H 5333.49 0.604071 1.44155 0
M  V30 56346 H 5334.23 -1.47791 2.88666 0
M  V30 56347 H 5334.01 -0.0360173 3.92083 0
M  V30 56348 H 5335.5 -1.01772 4.05009 0
M  V30 56349 N 5335.94 -1.46248 0.587307 0
M  V30 56350 C 5337.19 -2.02362 0.0746457 0
M  V30 56351 C 5337.52 -1.45824 -1.28707 0
M  V30 56352 O 5336.77 -0.614988 -1.85786 0
M  V30 56353 C 5337.07 -3.57382 -0.0362024 0
M  V30 56354 C 5336.74 -4.3298 1.25852 0
M  V30 56355 C 5335.4 -4.53353 1.61322 0
M  V30 56356 C 5337.75 -4.76353 2.11511 0
M  V30 56357 C 5335.08 -5.14351 2.82242 0
M  V30 56358 C 5337.43 -5.38688 3.3166 0
M  V30 56359 C 5336.09 -5.57286 3.67407 0
M  V30 56360 H 5335.36 -0.740496 0.0273148 0
M  V30 56361 H 5338.01 -1.75562 0.764865 0
M  V30 56362 H 5336.32 -3.83345 -0.809577 0
M  V30 56363 H 5338.01 -3.98482 -0.448698 0
M  V30 56364 H 5334.6 -4.17424 0.972397 0
M  V30 56365 H 5338.79 -4.60366 1.8541 0
M  V30 56366 H 5334.04 -5.26941 3.10069 0
M  V30 56367 H 5338.22 -5.71253 3.983 0
M  V30 56368 H 5335.84 -6.04321 4.61194 0
M  V30 56369 N 5337.42 -0.325336 -1.54205 0
M  V30 56370 C 5338.35 0.532494 -2.27347 0
M  V30 56371 C 5339.33 1.11787 -1.2821 0
M  V30 56372 O 5340.52 1.14266 -1.57025 0
M  V30 56373 C 5337.65 1.69263 -3.03261 0
M  V30 56374 C 5336.6 1.23647 -4.0975 0
M  V30 56375 C 5335.93 2.4837 -4.73515 0
M  V30 56376 C 5337.23 0.350061 -5.21126 0
M  V30 56377 H 5338.92 -0.0776161 -2.99299 0
M  V30 56378 H 5336.47 -0.0387699 -1.43948 0
M  V30 56379 H 5338.42 2.29905 -3.5316 0
M  V30 56380 H 5337.14 2.32936 -2.28929 0
M  V30 56381 H 5335.8 0.652979 -3.60738 0
M  V30 56382 H 5335.45 3.1041 -3.95796 0
M  V30 56383 H 5335.15 2.18538 -5.45449 0
M  V30 56384 H 5336.67 3.0977 -5.26189 0
M  V30 56385 H 5338.09 0.862812 -5.6677 0
M  V30 56386 H 5336.48 0.144449 -5.99926 0
M  V30 56387 H 5337.55 -0.618626 -4.80938 0
M  V30 56388 N 5338.9 1.57509 -0.0535471 0
M  V30 56389 C 5340.31 1.80376 0.481804 0
M  V30 56390 C 5340.66 0.965977 1.70773 0
M  V30 56391 O 5339.78 0.183243 2.15623 0
M  V30 56392 C 5340.38 3.27149 0.880863 0
M  V30 56393 C 5338.94 3.50926 1.36118 0
M  V30 56394 C 5338.09 2.75238 0.337514 0
M  V30 56395 H 5341.04 1.56221 -0.279408 0
M  V30 56396 H 5341.06 3.38199 1.74361 0
M  V30 56397 H 5340.57 3.88098 -0.0115774 0
M  V30 56398 H 5338.67 2.95259 2.27273 0
M  V30 56399 H 5338.78 4.59637 1.3517 0
M  V30 56400 H 5337.15 2.41446 0.810906 0
M  V30 56401 H 5337.93 3.38916 -0.546882 0
M  V30 56402 N 5340.38 -0.219858 1.56059 0
M  V30 56403 C 5341.62 -0.944001 1.7915 0
M  V30 56404 C 5341.95 -1.84266 0.622596 0
M  V30 56405 O 5341.21 -1.91714 -0.392946 0
M  V30 56406 C 5341.5 -1.81282 3.08012 0
M  V30 56407 C 5341.17 -1.06725 4.38087 0
M  V30 56408 C 5339.83 -0.861304 4.73429 0
M  V30 56409 C 5342.18 -0.540867 5.18386 0
M  V30 56410 C 5339.51 -0.117101 5.86583 0
M  V30 56411 C 5341.86 0.190001 6.32315 0
M  V30 56412 C 5340.53 0.407185 6.66257 0
M  V30 56413 H 5339.8 -0.345435 0.655558 0
M  V30 56414 H 5342.45 -0.212054 1.90322 0
M  V30 56415 H 5340.75 -2.61268 2.9197 0
M  V30 56416 H 5342.45 -2.37528 3.23081 0
M  V30 56417 H 5339.04 -1.23775 4.10339 0
M  V30 56418 H 5343.22 -0.687444 4.91516 0
M  V30 56419 H 5338.48 0.06138 6.11369 0
M  V30 56420 H 5342.65 0.605378 6.93764 0
M  V30 56421 H 5340.28 0.985776 7.53781 0
M  V30 56422 N 5341.85 -1.49899 -0.486629 0
M  V30 56423 C 5342.82 -1.67092 -1.56885 0
M  V30 56424 C 5343.82 -0.542143 -1.51385 0
M  V30 56425 O 5345.01 -0.808885 -1.54281 0
M  V30 56426 C 5342.14 -1.6817 -2.96533 0
M  V30 56427 H 5343.33 -2.63631 -1.42964 0
M  V30 56428 H 5340.88 -1.39146 -0.711905 0
M  V30 56429 H 5341.62 -0.732674 -3.15915 0
M  V30 56430 H 5341.4 -2.50158 -3.01933 0
M  V30 56431 H 5342.89 -1.83479 -3.75134 0
M  V30 56432 N 5343.33 0.738712 -1.39215 0
M  V30 56433 C 5344.26 1.86131 -1.32025 0
M  V30 56434 C 5345.24 1.61432 -0.194569 0
M  V30 56435 O 5346.43 1.84744 -0.374396 0
M  V30 56436 C 5343.55 3.2204 -1.04918 0
M  V30 56437 C 5342.6 3.65605 -2.19626 0
M  V30 56438 S 5343.43 3.75404 -3.81879 0
M  V30 56439 C 5344.59 5.14109 -3.56991 0
M  V30 56440 H 5344.82 1.91946 -2.27033 0
M  V30 56441 H 5342.35 0.9032 -1.25226 0
M  V30 56442 H 5344.31 4.00521 -0.899632 0
M  V30 56443 H 5342.97 3.13886 -0.116029 0
M  V30 56444 H 5342.17 4.64225 -1.96243 0
M  V30 56445 H 5341.77 2.94319 -2.30765 0
M  V30 56446 H 5344.06 6.00328 -3.14026 0
M  V30 56447 H 5345 5.42519 -4.55058 0
M  V30 56448 H 5345.41 4.8361 -2.91173 0
M  V30 56449 N 5344.81 1.24329 0.968501 0
M  V30 56450 C 5346.06 1.08038 1.70799 0
M  V30 56451 C 5346.38 -0.381661 1.91229 0
M  V30 56452 O 5345.65 -1.27247 1.48946 0
M  V30 56453 H 5344.23 0.396799 0.632898 0
M  V30 56454 H 5346.89 1.56236 1.16517 0
M  V30 56455 H 5345.99 1.57778 2.69281 0
M  V30 56456 N 5346.29 -1.16906 1.05692 0
M  V30 56457 C 5347.54 -1.86626 0.765088 0
M  V30 56458 C 5347.85 -1.82226 -0.710854 0
M  V30 56459 O 5349.06 -2.47466 -1.11683 0
M  V30 56460 C 5347.51 -3.34882 1.31842 0
M  V30 56461 C 5347.12 -3.47771 2.82417 0
M  V30 56462 C 5348.86 -4.09897 1.10386 0
M  V30 56463 C 5346.77 -4.90078 3.31025 0
M  V30 56464 H 5345.7 -0.699072 0.282515 0
M  V30 56465 H 5348.35 -1.31984 1.27485 0
M  V30 56466 H 5346.73 -3.89092 0.736449 0
M  V30 56467 H 5347.91 -3.03753 3.46513 0
M  V30 56468 H 5346.22 -2.86183 3.02471 0
M  V30 56469 H 5348.82 -5.14889 1.44198 0
M  V30 56470 H 5349.16 -4.16279 0.0418835 0
M  V30 56471 H 5349.7 -3.61907 1.6513 0
M  V30 56472 H 5346.43 -4.88872 4.36674 0
M  V30 56473 H 5345.95 -5.34746 2.71674 0
M  V30 56474 H 5347.63 -5.58869 3.25997 0
M  V30 56475 N 5347.77 -0.838641 -1.33434 0
M  V30 56476 C 5349.01 -0.430553 -1.97051 0
M  V30 56477 C 5349.33 1.0155 -1.67173 0
M  V30 56478 O 5350.53 1.52826 -2.24403 0
M  V30 56479 C 5348.99 -0.718952 -3.52646 0
M  V30 56480 C 5348.6 -2.17967 -3.91401 0
M  V30 56481 C 5350.34 -0.377803 -4.22815 0
M  V30 56482 C 5348.25 -2.41213 -5.39972 0
M  V30 56483 H 5347.18 -0.157265 -0.737417 0
M  V30 56484 H 5349.83 -1.02719 -1.52056 0
M  V30 56485 H 5348.21 -0.0519434 -3.95966 0
M  V30 56486 H 5349.39 -2.88714 -3.59139 0
M  V30 56487 H 5347.7 -2.48377 -3.34212 0
M  V30 56488 H 5350.3 -0.529113 -5.32076 0
M  V30 56489 H 5350.64 0.679194 -4.10722 0
M  V30 56490 H 5351.17 -1.00003 -3.85025 0
M  V30 56491 H 5347.91 -3.45477 -5.57069 0
M  V30 56492 H 5347.43 -1.75027 -5.73695 0
M  V30 56493 H 5349.11 -2.24355 -6.06856 0
M  V30 56494 N 5349.24 1.45934 -0.595055 0
M  V30 56495 C 5350.21 2.2888 0.121022 0
M  V30 56496 C 5351.21 1.39077 0.8071 0
M  V30 56497 O 5352.4 1.61329 0.657171 0
M  V30 56498 C 5349.53 3.19783 1.18118 0
M  V30 56499 H 5350.72 2.93671 -0.608072 0
M  V30 56500 H 5348.27 1.52249 -0.353549 0
M  V30 56501 H 5349.01 2.59766 1.94145 0
M  V30 56502 H 5348.79 3.85917 0.693588 0
M  V30 56503 H 5350.28 3.82182 1.68306 0
M  V30 56504 N 5350.72 0.33351 1.54031 0
M  V30 56505 C 5351.66 -0.570698 2.20949 0
M  V30 56506 C 5352.63 -1.10807 1.18998 0
M  V30 56507 O 5353.82 -1.17022 1.47777 0
M  V30 56508 C 5350.94 -1.78409 2.87902 0
M  V30 56509 C 5349.99 -1.37708 4.03657 0
M  V30 56510 S 5350.82 -0.40536 5.33964 0
M  V30 56511 C 5351.98 -1.62582 6.04415 0
M  V30 56512 H 5352.21 -0.00228908 2.973 0
M  V30 56513 H 5349.75 0.117585 1.53952 0
M  V30 56514 H 5351.7 -2.48027 3.27098 0
M  V30 56515 H 5350.36 -2.32371 2.11336 0
M  V30 56516 H 5349.56 -2.28151 4.49403 0
M  V30 56517 H 5349.16 -0.760499 3.66186 0
M  V30 56518 H 5351.45 -2.5618 6.27199 0
M  V30 56519 H 5352.39 -1.21033 6.97679 0
M  V30 56520 H 5352.8 -1.81731 5.34447 0
M  V30 56521 N 5352.2 -1.57478 0.0618994 0
M  V30 56522 C 5353.43 -1.97846 -0.622242 0
M  V30 56523 C 5353.85 -0.939659 -1.62948 0
M  V30 56524 O 5353.21 0.0958943 -1.81046 0
M  V30 56525 C 5353.26 -3.37266 -1.27608 0
M  V30 56526 O 5352.36 -3.35951 -2.39187 0
M  V30 56527 H 5351.7 -0.644217 -0.160873 0
M  V30 56528 H 5354.23 -2.04164 0.133481 0
M  V30 56529 H 5354.24 -3.74232 -1.62525 0
M  V30 56530 H 5352.92 -4.12406 -0.537967 0
M  V30 56531 H 5351.49 -3.10744 -2.06137 0
M  V30 56532 N 5353.68 0.211579 -1.56173 0
M  V30 56533 C 5354.64 1.24581 -1.92386 0
M  V30 56534 C 5355.64 1.39294 -0.80336 0
M  V30 56535 O 5356.83 1.37388 -1.07099 0
M  V30 56536 C 5353.96 2.61799 -2.18344 0
M  V30 56537 H 5355.16 0.936713 -2.84896 0
M  V30 56538 H 5352.71 0.452418 -1.49609 0
M  V30 56539 H 5353.44 2.97791 -1.28418 0
M  V30 56540 H 5353.23 2.52495 -2.99981 0
M  V30 56541 H 5354.72 3.36411 -2.47421 0
M  V30 56542 N 5355.16 1.50155 0.478672 0
M  V30 56543 C 5356.4 1.60765 1.2313 0
M  V30 56544 C 5356.73 0.304487 1.92102 0
M  V30 56545 O 5355.99 -0.709149 1.82399 0
M  V30 56546 C 5356.29 2.73216 2.30408 0
M  V30 56547 C 5355.95 4.1396 1.7874 0
M  V30 56548 C 5354.61 4.52257 1.6437 0
M  V30 56549 C 5356.97 5.01954 1.40326 0
M  V30 56550 C 5354.29 5.76296 1.09997 0
M  V30 56551 C 5356.65 6.26534 0.873985 0
M  V30 56552 C 5355.31 6.6364 0.716851 0
M  V30 56553 H 5354.58 0.588279 0.450564 0
M  V30 56554 H 5357.23 1.84063 0.528487 0
M  V30 56555 H 5355.53 2.43976 3.06566 0
M  V30 56556 H 5357.23 2.7863 2.88385 0
M  V30 56557 H 5353.82 3.83743 1.90891 0
M  V30 56558 H 5358 4.73005 1.50266 0
M  V30 56559 H 5353.26 6.03726 0.965626 0
M  V30 56560 H 5357.43 6.94083 0.567639 0
M  V30 56561 H 5355.06 7.59634 0.293372 0
M  V30 56562 N 5356.63 -0.731319 1.39605 0
M  V30 56563 C 5357.6 -1.82705 1.3839 0
M  V30 56564 C 5358.6 -1.58337 0.280364 0
M  V30 56565 O 5359.79 -1.65669 0.538461 0
M  V30 56566 C 5356.92 -3.20552 1.16013 0
M  V30 56567 H 5358.11 -1.85185 2.35896 0
M  V30 56568 H 5355.67 -0.935352 1.25223 0
M  V30 56569 H 5356.4 -3.23731 0.192041 0
M  V30 56570 H 5356.19 -3.39637 1.95932 0
M  V30 56571 H 5357.68 -4.00607 1.17913 0
M  V30 56572 N 5358.11 -1.24841 -0.961894 0
M  V30 56573 C 5359.05 -0.989113 -2.0565 0
M  V30 56574 C 5360.02 0.0791419 -1.62407 0
M  V30 56575 O 5361.21 -0.0590059 -1.88408 0
M  V30 56576 C 5358.33 -0.493779 -3.35081 0
M  V30 56577 C 5357.38 -1.55146 -3.97281 0
M  V30 56578 S 5358.21 -3.13453 -4.34174 0
M  V30 56579 C 5359.37 -2.65637 -5.66734 0
M  V30 56580 H 5359.6 -1.91596 -2.27329 0
M  V30 56581 H 5357.14 -1.0829 -1.10057 0
M  V30 56582 H 5359.09 -0.214626 -4.09939 0
M  V30 56583 H 5357.75 0.41245 -3.1138 0
M  V30 56584 H 5356.95 -1.15542 -4.90577 0
M  V30 56585 H 5356.55 -1.78092 -3.28876 0
M  V30 56586 H 5358.84 -2.0881 -6.44519 0
M  V30 56587 H 5359.78 -3.57545 -6.11201 0
M  V30 56588 H 5360.19 -2.05872 -5.25621 0
M  V30 56589 N 5359.59 1.16344 -1.0631 0
M  V30 56590 C 5360.52 2.19665 -0.618274 0
M  V30 56591 C 5361.5 1.58587 0.359022 0
M  V30 56592 O 5362.69 1.86586 0.267957 0
M  V30 56593 C 5359.81 3.38571 0.0935901 0
M  V30 56594 C 5358.86 4.18136 -0.840486 0
M  V30 56595 S 5359.69 4.81871 -2.33582 0
M  V30 56596 C 5360.85 6.04155 -1.63545 0
M  V30 56597 H 5361.08 2.57057 -1.49361 0
M  V30 56598 H 5358.61 1.27138 -0.87609 0
M  V30 56599 H 5360.57 4.07467 0.498084 0
M  V30 56600 H 5359.23 2.99543 0.945125 0
M  V30 56601 H 5358.43 5.03171 -0.288958 0
M  V30 56602 H 5358.03 3.54735 -1.18487 0
M  V30 56603 H 5360.32 6.70931 -0.94114 0
M  V30 56604 H 5361.26 6.63858 -2.46371 0
M  V30 56605 H 5361.67 5.53319 -1.11797 0
M  V30 56606 N 5361.07 0.845705 1.32987 0
M  V30 56607 C 5362.32 0.444722 1.97556 0
M  V30 56608 C 5362.64 -0.997623 1.66966 0
M  V30 56609 O 5361.9 -1.71346 0.94547 0
M  V30 56610 C 5362.2 0.620223 3.51977 0
M  V30 56611 C 5361.86 2.03169 4.02534 0
M  V30 56612 C 5360.53 2.41775 4.16051 0
M  V30 56613 C 5362.88 2.95332 4.29451 0
M  V30 56614 C 5360.21 3.71834 4.53824 0
M  V30 56615 C 5362.56 4.2488 4.68679 0
M  V30 56616 C 5361.22 4.63433 4.80402 0
M  V30 56617 H 5360.49 0.162735 0.72291 0
M  V30 56618 H 5363.14 1.07404 1.58545 0
M  V30 56619 H 5361.44 -0.0923753 3.91691 0
M  V30 56620 H 5363.14 0.290153 3.99949 0
M  V30 56621 H 5359.73 1.72188 3.92491 0
M  V30 56622 H 5363.91 2.66741 4.18525 0
M  V30 56623 H 5359.17 4.015 4.61094 0
M  V30 56624 H 5363.34 4.96364 4.88463 0
M  V30 56625 H 5360.97 5.64258 5.09428 0
M  V30 56626 N 5362.55 -1.45617 0.602786 0
M  V30 56627 C 5363.79 -2.02571 0.0962472 0
M  V30 56628 C 5364.13 -1.47081 -1.2681 0
M  V30 56629 O 5363.4 -0.64363 -1.83542 0
M  V30 56630 C 5363.68 -3.60062 0.0521298 0
M  V30 56631 C 5363.54 -4.25896 1.4468 0
M  V30 56632 C 5364.86 -4.35448 -0.638189 0
M  V30 56633 H 5361.97 -0.736098 0.0364497 0
M  V30 56634 H 5364.62 -1.73527 0.773837 0
M  V30 56635 H 5362.77 -3.84938 -0.524897 0
M  V30 56636 H 5364.44 -4.12221 2.07054 0
M  V30 56637 H 5362.68 -3.84482 2.00888 0
M  V30 56638 H 5363.35 -5.34774 1.36822 0
M  V30 56639 H 5365.83 -4.15837 -0.14778 0
M  V30 56640 H 5364.7 -5.45178 -0.638148 0
M  V30 56641 H 5364.97 -4.07968 -1.70337 0
M  V30 56642 N 5364.02 -0.341674 -1.53852 0
M  V30 56643 C 5364.97 0.515979 -2.24958 0
M  V30 56644 C 5365.94 1.09707 -1.24714 0
M  V30 56645 O 5367.13 1.13403 -1.53442 0
M  V30 56646 C 5364.27 1.66196 -3.02445 0
M  V30 56647 C 5363.38 1.10836 -4.1754 0
M  V30 56648 C 5362.51 2.2215 -4.82517 0
M  V30 56649 C 5361.55 1.64131 -5.89684 0
M  V30 56650 N 5360.69 2.6918 -6.48449 0
M  V30 56651 H 5365.53 -0.0969322 -2.97842 0
M  V30 56652 H 5363.07 -0.0596082 -1.46979 0
M  V30 56653 H 5365.03 2.3366 -3.45628 0
M  V30 56654 H 5363.66 2.24589 -2.31861 0
M  V30 56655 H 5362.71 0.32472 -3.79012 0
M  V30 56656 H 5364.02 0.643977 -4.94625 0
M  V30 56657 H 5363.17 2.97482 -5.28762 0
M  V30 56658 H 5361.91 2.71931 -4.04851 0
M  V30 56659 H 5360.92 0.873037 -5.42824 0
M  V30 56660 H 5362.14 1.15204 -6.69257 0
M  V30 56661 H 5360.09 3.18219 -5.73648 0
M  V30 56662 H 5360.01 2.27358 -7.21002 0
M  V30 56663 H 5361.27 3.44287 -6.99347 0
M  V30 56664 N 5365.5 1.57443 -0.07025 0
M  V30 56665 C 5366.45 2.09157 0.907596 0
M  V30 56666 C 5367.44 1.00091 1.25978 0
M  V30 56667 O 5368.63 1.26402 1.23902 0
M  V30 56668 C 5365.76 2.65551 2.17571 0
M  V30 56669 C 5364.84 3.81619 1.85007 0
M  V30 56670 N 5365.24 4.90645 1.22886 0
M  V30 56671 C 5363.53 3.90885 2.14767 0
M  V30 56672 C 5364.23 5.71514 1.0838 0
M  V30 56673 N 5363.21 5.19735 1.59299 0
M  V30 56674 H 5367.01 2.90841 0.422948 0
M  V30 56675 H 5364.53 1.61849 0.133683 0
M  V30 56676 H 5366.52 3.00914 2.88541 0
M  V30 56677 H 5365.18 1.85314 2.66625 0
M  V30 56678 H 5366.19 5.10043 0.898699 0
M  V30 56679 H 5362.87 3.2162 2.66208 0
M  V30 56680 H 5364.26 6.69216 0.599948 0
M  V30 56681 N 5366.98 -0.203294 1.56283 0
M  V30 56682 C 5367.93 -1.25198 1.93892 0
M  V30 56683 C 5368.9 -1.45651 0.798427 0
M  V30 56684 O 5370.08 -1.5892 1.05589 0
M  V30 56685 C 5367.22 -2.59347 2.27668 0
M  V30 56686 C 5366.34 -2.46541 3.54742 0
M  V30 56687 C 5365.47 -3.73338 3.77879 0
M  V30 56688 C 5364.51 -3.5533 4.98405 0
M  V30 56689 N 5363.65 -4.74119 5.17837 0
M  V30 56690 H 5368.49 -0.924256 2.83305 0
M  V30 56691 H 5366.02 -0.445033 1.40207 0
M  V30 56692 H 5367.98 -3.37492 2.45266 0
M  V30 56693 H 5366.61 -2.90179 1.41407 0
M  V30 56694 H 5365.66 -1.59736 3.45237 0
M  V30 56695 H 5366.98 -2.29164 4.43041 0
M  V30 56696 H 5366.13 -4.59923 3.95671 0
M  V30 56697 H 5364.87 -3.9366 2.87894 0
M  V30 56698 H 5363.87 -2.67129 4.80543 0
M  V30 56699 H 5365.1 -3.36461 5.89891 0
M  V30 56700 H 5363.05 -4.9472 4.30799 0
M  V30 56701 H 5362.96 -4.59537 6.00301 0
M  V30 56702 H 5364.23 -5.62079 5.40081 0
M  V30 56703 N 5368.46 -1.50407 -0.470702 0
M  V30 56704 C 5369.41 -1.65686 -1.56627 0
M  V30 56705 C 5370.39 -0.511478 -1.52554 0
M  V30 56706 O 5371.59 -0.7659 -1.59571 0
M  V30 56707 C 5368.71 -1.75471 -2.95068 0
M  V30 56708 C 5367.8 -2.95687 -3.04023 0
M  V30 56709 N 5368.19 -4.1936 -2.82792 0
M  V30 56710 C 5366.49 -2.94253 -3.35159 0
M  V30 56711 C 5367.19 -5.0033 -2.96723 0
M  V30 56712 N 5366.17 -4.34293 -3.26941 0
M  V30 56713 H 5369.97 -2.58999 -1.38912 0
M  V30 56714 H 5367.48 -1.47596 -0.677438 0
M  V30 56715 H 5369.48 -1.84521 -3.73842 0
M  V30 56716 H 5368.14 -0.833167 -3.13829 0
M  V30 56717 H 5369.15 -4.48851 -2.58366 0
M  V30 56718 H 5365.83 -2.116 -3.59905 0
M  V30 56719 H 5367.22 -6.08674 -2.84545 0
M  V30 56720 N 5369.94 0.723905 -1.39991 0
M  V30 56721 C 5370.9 1.81968 -1.39356 0
M  V30 56722 C 5371.9 1.58186 -0.288757 0
M  V30 56723 O 5373.09 1.65381 -0.547239 0
M  V30 56724 C 5370.22 3.19932 -1.17712 0
M  V30 56725 H 5371.42 1.83931 -2.36874 0
M  V30 56726 H 5368.97 0.928698 -1.25718 0
M  V30 56727 H 5369.7 3.23625 -0.209206 0
M  V30 56728 H 5369.49 3.38593 -1.97731 0
M  V30 56729 H 5370.98 3.99976 -1.20036 0
M  V30 56730 N 5371.42 1.2535 0.95526 0
M  V30 56731 C 5372.66 1.1006 1.69979 0
M  V30 56732 C 5372.99 -0.358519 1.91167 0
M  V30 56733 O 5372.25 -1.28066 1.47978 0
M  V30 56734 C 5372.54 1.7994 3.08798 0
M  V30 56735 C 5372.21 3.29862 3.07412 0
M  V30 56736 C 5370.87 3.7076 3.06741 0
M  V30 56737 C 5373.22 4.25647 3.0079 0
M  V30 56738 C 5370.55 5.05857 2.97196 0
M  V30 56739 C 5372.9 5.60766 2.92786 0
M  V30 56740 C 5371.57 6.00995 2.90451 0
M  V30 56741 H 5370.84 0.40274 0.621998 0
M  V30 56742 H 5373.49 1.55614 1.11609 0
M  V30 56743 H 5371.79 1.26816 3.70709 0
M  V30 56744 H 5373.49 1.65564 3.65225 0
M  V30 56745 H 5370.08 2.97319 3.08706 0
M  V30 56746 H 5374.26 3.95041 3.00427 0
M  V30 56747 H 5369.52 5.36206 2.93756 0
M  V30 56748 H 5373.69 6.34681 2.86623 0
M  V30 56749 H 5371.32 7.05636 2.8281 0
M  V30 56750 N 5372.89 -1.15778 1.06926 0
M  V30 56751 C 5373.82 -2.22535 0.707123 0
M  V30 56752 C 5374.8 -1.67372 -0.303412 0
M  V30 56753 O 5375.99 -1.93391 -0.177121 0
M  V30 56754 C 5373.12 -3.47157 0.0995489 0
M  V30 56755 C 5372.07 -4.15253 1.03676 0
M  V30 56756 C 5371.4 -5.33901 0.292162 0
M  V30 56757 C 5372.7 -4.65508 2.36853 0
M  V30 56758 H 5374.39 -2.53083 1.59966 0
M  V30 56759 H 5371.94 -1.21646 0.770594 0
M  V30 56760 H 5373.89 -4.21074 -0.165704 0
M  V30 56761 H 5372.62 -3.15929 -0.828044 0
M  V30 56762 H 5371.28 -3.43272 1.28686 0
M  V30 56763 H 5370.92 -4.98928 -0.638753 0
M  V30 56764 H 5370.62 -5.80403 0.916818 0
M  V30 56765 H 5372.15 -6.1059 0.0346062 0
M  V30 56766 H 5373.56 -5.30974 2.16194 0
M  V30 56767 H 5371.96 -5.22656 2.94874 0
M  V30 56768 H 5373.03 -3.81376 2.99467 0
M  V30 56769 N 5374.37 -0.852746 -1.32537 0
M  V30 56770 C 5375.61 -0.461455 -1.99123 0
M  V30 56771 C 5375.98 0.964448 -1.66019 0
M  V30 56772 O 5377.18 1.46019 -2.25681 0
M  V30 56773 C 5375.45 -0.691554 -3.50646 0
M  V30 56774 S 5377.01 -0.397551 -4.36995 0
M  V30 56775 H 5373.82 -0.172957 -0.689643 0
M  V30 56776 H 5376.43 -1.10504 -1.61273 0
M  V30 56777 H 5375.13 -1.72844 -3.72227 0
M  V30 56778 H 5374.66 -0.0343195 -3.93385 0
M  V30 56779 H 5376.68 0.777191 -4.90076 0
M  V30 56780 N 5375.85 1.45295 -0.6105 0
M  V30 56781 C 5376.78 2.33311 0.0938878 0
M  V30 56782 C 5377.76 1.47002 0.855829 0
M  V30 56783 O 5378.95 1.75767 0.825803 0
M  V30 56784 C 5376.08 3.29755 1.08992 0
M  V30 56785 C 5375.03 4.25722 0.440996 0
M  V30 56786 C 5374.36 5.11878 1.54548 0
M  V30 56787 C 5375.66 5.18368 -0.639671 0
M  V30 56788 H 5377.35 2.92457 -0.641044 0
M  V30 56789 H 5374.9 1.4063 -0.309724 0
M  V30 56790 H 5376.85 3.90201 1.59127 0
M  V30 56791 H 5375.57 2.68774 1.85548 0
M  V30 56792 H 5374.23 3.66579 -0.0395196 0
M  V30 56793 H 5373.88 4.47264 2.3014 0
M  V30 56794 H 5373.58 5.7689 1.11677 0
M  V30 56795 H 5375.1 5.75193 2.04905 0
M  V30 56796 H 5376.52 5.72869 -0.222271 0
M  V30 56797 H 5374.91 5.91873 -0.990297 0
M  V30 56798 H 5375.98 4.60622 -1.51511 0
M  V30 56799 N 5377.33 0.349828 1.53668 0
M  V30 56800 C 5378.57 -0.244756 2.01015 0
M  V30 56801 C 5378.9 -1.50053 1.23751 0
M  V30 56802 O 5378.16 -1.93149 0.31494 0
M  V30 56803 C 5378.46 -0.598187 3.52358 0
M  V30 56804 C 5378.12 0.561427 4.47391 0
M  V30 56805 C 5376.78 0.879647 4.73092 0
M  V30 56806 C 5379.14 1.33908 5.03704 0
M  V30 56807 C 5376.46 1.97777 5.52359 0
M  V30 56808 C 5378.82 2.4275 5.8417 0
M  V30 56809 C 5377.48 2.75125 6.08163 0
M  V30 56810 H 5376.75 -0.0895626 0.735567 0
M  V30 56811 H 5379.4 0.47904 1.85412 0
M  V30 56812 H 5377.7 -1.40278 3.65827 0
M  V30 56813 H 5379.4 -1.07022 3.86455 0
M  V30 56814 H 5375.99 0.303352 4.27525 0
M  V30 56815 H 5380.17 1.10649 4.83808 0
M  V30 56816 H 5375.43 2.23277 5.69173 0
M  V30 56817 H 5379.6 3.03434 6.26818 0
M  V30 56818 H 5377.23 3.60341 6.69372 0
M  V30 56819 N 5378.81 -1.57404 0.0785986 0
M  V30 56820 C 5379.74 -2.16134 -0.88365 0
M  V30 56821 C 5380.72 -1.0902 -1.30571 0
M  V30 56822 O 5381.9 -1.37085 -1.37555 0
M  V30 56823 C 5379.03 -2.72844 -2.1488 0
M  V30 56824 C 5377.99 -3.85185 -1.86592 0
M  V30 56825 C 5377.31 -4.28527 -3.19795 0
M  V30 56826 C 5378.61 -5.09122 -1.16583 0
M  V30 56827 H 5380.31 -2.96791 -0.394379 0
M  V30 56828 H 5377.85 -1.42764 -0.188254 0
M  V30 56829 H 5379.8 -3.12577 -2.82619 0
M  V30 56830 H 5378.53 -1.89418 -2.66061 0
M  V30 56831 H 5377.19 -3.45966 -1.21256 0
M  V30 56832 H 5376.84 -3.42013 -3.68831 0
M  V30 56833 H 5376.54 -5.04259 -3.01656 0
M  V30 56834 H 5378.06 -4.70881 -3.8872 0
M  V30 56835 H 5379.47 -5.46129 -1.74403 0
M  V30 56836 H 5377.87 -5.90177 -1.08679 0
M  V30 56837 H 5378.94 -4.8468 -0.145967 0
M  V30 56838 N 5380.28 0.195003 -1.56389 0
M  V30 56839 C 5381.21 1.24437 -1.97579 0
M  V30 56840 C 5382.2 1.47468 -0.847769 0
M  V30 56841 O 5383.38 1.59204 -1.1121 0
M  V30 56842 C 5380.51 2.58858 -2.31538 0
M  V30 56843 C 5379.46 2.50439 -3.4708 0
M  V30 56844 C 5378.79 3.89133 -3.66714 0
M  V30 56845 C 5380.09 2.02936 -4.81263 0
M  V30 56846 H 5381.78 0.902078 -2.85487 0
M  V30 56847 H 5379.33 0.432492 -1.37352 0
M  V30 56848 H 5381.28 3.32451 -2.58948 0
M  V30 56849 H 5380.01 2.94828 -1.40513 0
M  V30 56850 H 5378.67 1.79302 -3.1976 0
M  V30 56851 H 5378.31 4.22457 -2.73019 0
M  V30 56852 H 5378.01 3.84375 -4.44443 0
M  V30 56853 H 5379.54 4.64349 -3.96501 0
M  V30 56854 H 5380.95 2.66288 -5.07704 0
M  V30 56855 H 5379.35 2.0918 -5.62462 0
M  V30 56856 H 5380.42 0.98259 -4.7484 0
M  V30 56857 N 5381.76 1.50654 0.462719 0
M  V30 56858 C 5383.17 1.54825 1.04337 0
M  V30 56859 C 5383.52 0.356663 1.92931 0
M  V30 56860 O 5382.65 -0.529505 2.09822 0
M  V30 56861 C 5383.24 2.80578 1.89899 0
M  V30 56862 C 5381.8 2.87402 2.43057 0
M  V30 56863 C 5380.95 2.4921 1.21612 0
M  V30 56864 H 5383.9 1.56798 0.244993 0
M  V30 56865 H 5383.92 2.62906 2.75065 0
M  V30 56866 H 5383.43 3.67285 1.25392 0
M  V30 56867 H 5381.54 2.05066 3.11093 0
M  V30 56868 H 5381.65 3.90487 2.77591 0
M  V30 56869 H 5380.01 2.01835 1.55354 0
M  V30 56870 H 5380.8 3.38235 0.58755 0
M  V30 56871 N 5383.24 -0.716471 1.40373 0
M  V30 56872 C 5384.47 -1.51064 1.42107 0
M  V30 56873 C 5384.89 -1.88087 0.0223048 0
M  V30 56874 O 5384.25 -1.53207 -0.969394 0
M  V30 56875 C 5384.3 -2.76299 2.31714 0
M  V30 56876 O 5383.4 -3.72969 1.75978 0
M  V30 56877 H 5382.74 -0.455485 0.483145 0
M  V30 56878 H 5385.27 -0.882449 1.84591 0
M  V30 56879 H 5385.28 -3.24837 2.4687 0
M  V30 56880 H 5383.96 -2.48686 3.33358 0
M  V30 56881 H 5382.53 -3.31812 1.70163 0
M  V30 56882 N 5384.72 -1.25855 -0.948599 0
M  V30 56883 C 5385.65 -1.09255 -2.06363 0
M  V30 56884 C 5386.63 0.00014537 -1.701 0
M  V30 56885 O 5387.81 -0.17051 -1.9345 0
M  V30 56886 C 5384.94 -0.716896 -3.3982 0
M  V30 56887 C 5383.9 -1.7605 -3.90116 0
M  V30 56888 C 5383.22 -1.23937 -5.20138 0
M  V30 56889 C 5384.52 -3.16053 -4.15822 0
M  V30 56890 H 5386.22 -2.02525 -2.20508 0
M  V30 56891 H 5383.76 -0.97513 -1.05959 0
M  V30 56892 H 5385.72 -0.587678 -4.17282 0
M  V30 56893 H 5384.44 0.251512 -3.2563 0
M  V30 56894 H 5383.1 -1.87826 -3.14828 0
M  V30 56895 H 5382.75 -0.261013 -5.02322 0
M  V30 56896 H 5382.45 -1.93692 -5.54759 0
M  V30 56897 H 5383.97 -1.12266 -6.0019 0
M  V30 56898 H 5385.39 -3.07397 -4.83922 0
M  V30 56899 H 5383.78 -3.83333 -4.61709 0
M  V30 56900 H 5384.85 -3.62664 -3.21874 0
M  V30 56901 N 5386.2 1.1521 -1.07538 0
M  V30 56902 C 5387.16 2.18207 -0.701313 0
M  V30 56903 C 5388.16 1.58694 0.259404 0
M  V30 56904 O 5389.35 1.74154 0.0401132 0
M  V30 56905 C 5386.48 3.40883 -0.0339901 0
M  V30 56906 H 5387.67 2.52814 -1.61323 0
M  V30 56907 H 5385.23 1.29704 -0.87215 0
M  V30 56908 H 5385.96 3.11846 0.890077 0
M  V30 56909 H 5385.75 3.85339 -0.724996 0
M  V30 56910 H 5387.24 4.17056 0.213005 0
M  V30 56911 N 5387.67 0.859763 1.32083 0
M  V30 56912 C 5388.9 0.479794 2.0126 0
M  V30 56913 C 5389.32 -0.924928 1.64592 0
M  V30 56914 O 5388.67 -1.60436 0.86986 0
M  V30 56915 C 5388.73 0.615254 3.56226 0
M  V30 56916 O 5388.45 1.96465 3.91578 0
M  V30 56917 C 5389.95 0.234959 4.42677 0
M  V30 56918 H 5387.17 0.18803 0.644116 0
M  V30 56919 H 5389.71 1.15811 1.68547 0
M  V30 56920 H 5387.87 -0.0153906 3.87397 0
M  V30 56921 H 5388.28 1.96508 4.86297 0
M  V30 56922 H 5389.75 0.380728 5.50685 0
M  V30 56923 H 5390.23 -0.825038 4.31381 0
M  V30 56924 H 5390.84 0.840885 4.16904 0
M  V30 56925 N 5389.15 -1.44969 0.618196 0
M  V30 56926 C 5390.4 -2.02458 0.117727 0
M  V30 56927 C 5390.73 -1.48418 -1.25243 0
M  V30 56928 O 5390.01 -0.663061 -1.82849 0
M  V30 56929 C 5390.29 -3.59987 0.0903163 0
M  V30 56930 C 5390.14 -4.24338 1.4919 0
M  V30 56931 C 5391.46 -4.36101 -0.591968 0
M  V30 56932 H 5388.58 -0.73567 0.0442549 0
M  V30 56933 H 5391.22 -1.72697 0.792199 0
M  V30 56934 H 5389.37 -3.85473 -0.484039 0
M  V30 56935 H 5391.04 -4.10002 2.11415 0
M  V30 56936 H 5389.29 -3.8233 2.04955 0
M  V30 56937 H 5389.96 -5.33293 1.42486 0
M  V30 56938 H 5392.43 -4.15971 -0.103667 0
M  V30 56939 H 5391.31 -5.45824 -0.580289 0
M  V30 56940 H 5391.57 -4.09751 -1.66 0
M  V30 56941 N 5390.63 -0.357973 -1.53481 0
M  V30 56942 C 5391.59 0.479718 -2.24124 0
M  V30 56943 C 5392.59 1.01592 -1.24642 0
M  V30 56944 O 5393.78 0.902876 -1.48976 0
M  V30 56945 C 5390.92 1.66973 -2.97209 0
M  V30 56946 H 5392.11 -0.138324 -2.99581 0
M  V30 56947 H 5389.66 -0.109539 -1.55916 0
M  V30 56948 H 5390.4 2.32607 -2.25975 0
M  V30 56949 H 5390.18 1.29229 -3.70192 0
M  V30 56950 H 5391.67 2.26355 -3.50932 0
M  V30 56951 N 5392.11 1.5736 -0.086945 0
M  V30 56952 C 5393.34 1.98102 0.586428 0
M  V30 56953 C 5393.75 0.964607 1.62764 0
M  V30 56954 O 5393.09 -0.0551155 1.83617 0
M  V30 56955 C 5393.15 3.35197 1.29935 0
M  V30 56956 C 5392.82 4.55158 0.409852 0
M  V30 56957 C 5393.81 5.18795 -0.338715 0
M  V30 56958 C 5391.5 5.01213 0.330294 0
M  V30 56959 C 5393.49 6.2685 -1.1549 0
M  V30 56960 C 5391.18 6.09136 -0.489554 0
M  V30 56961 C 5392.18 6.71818 -1.23081 0
M  V30 56962 O 5391.86 7.77661 -2.0371 0
M  V30 56963 H 5391.6 0.656171 0.162527 0
M  V30 56964 H 5394.15 2.04772 -0.160451 0
M  V30 56965 H 5392.38 3.25186 2.09263 0
M  V30 56966 H 5394.07 3.60442 1.86645 0
M  V30 56967 H 5394.84 4.8415 -0.286934 0
M  V30 56968 H 5390.71 4.52191 0.896899 0
M  V30 56969 H 5394.26 6.75706 -1.73397 0
M  V30 56970 H 5390.16 6.43213 -0.542844 0
M  V30 56971 H 5390.92 7.94611 -1.96305 0
M  V30 56972 N 5393.59 -0.186707 1.5649 0
M  V30 56973 C 5394.83 -0.905788 1.81112 0
M  V30 56974 C 5395.16 -1.82904 0.661541 0
M  V30 56975 O 5394.42 -1.92505 -0.352192 0
M  V30 56976 C 5394.72 -1.74708 3.11788 0
M  V30 56977 C 5394.38 -0.974083 4.40253 0
M  V30 56978 C 5393.04 -0.760689 4.75149 0
M  V30 56979 C 5395.4 -0.430788 5.19417 0
M  V30 56980 C 5392.72 0.00734841 5.867 0
M  V30 56981 C 5395.08 0.324081 6.31769 0
M  V30 56982 C 5393.74 0.548417 6.65243 0
M  V30 56983 H 5393.01 -0.331451 0.662737 0
M  V30 56984 H 5395.66 -0.171636 1.90729 0
M  V30 56985 H 5393.96 -2.55016 2.97446 0
M  V30 56986 H 5395.66 -2.30622 3.28046 0
M  V30 56987 H 5392.25 -1.15043 4.12872 0
M  V30 56988 H 5396.43 -0.583031 4.92864 0
M  V30 56989 H 5391.69 0.191047 6.11101 0
M  V30 56990 H 5395.86 0.752399 6.92324 0
M  V30 56991 H 5393.49 1.14544 7.51521 0
M  V30 56992 N 5395.07 -1.50897 -0.454723 0
M  V30 56993 C 5396.01 -1.71502 -1.5713 0
M  V30 56994 C 5397.01 -0.581036 -1.59124 0
M  V30 56995 O 5398.21 -0.761973 -1.63077 0
M  V30 56996 H 5394.59 -0.541598 -0.521705 0
M  V30 56997 H 5396.56 -2.65134 -1.36918 0
M  V30 56998 C 5395.31 -1.84135 -2.9494 0
M  V30 56999 H 5394.63 -2.7079 -2.94131 0
M  V30 57000 H 5396.07 -2.02571 -3.7248 0
M  V30 57001 C 5394.53 -0.596869 -3.31571 0
M  V30 57002 O 5395.06 0.256491 -4.0088 0
M  V30 57003 N 5393.27 -0.446059 -2.87156 0
M  V30 57004 H 5392.81 -1.14154 -2.30925 0
M  V30 57005 H 5392.77 0.38541 -3.12029 0
M  V30 57006 N 5396.54 0.709016 -1.40751 0
M  V30 57007 C 5397.48 1.83288 -1.35943 0
M  V30 57008 C 5398.45 1.60983 -0.228767 0
M  V30 57009 O 5399.64 1.83909 -0.413499 0
M  V30 57010 C 5396.77 3.19742 -1.11726 0
M  V30 57011 C 5395.81 3.60864 -2.27331 0
M  V30 57012 S 5396.64 3.6722 -3.89756 0
M  V30 57013 C 5397.8 5.06422 -3.67815 0
M  V30 57014 H 5398.03 1.87087 -2.31054 0
M  V30 57015 H 5395.57 0.876434 -1.27114 0
M  V30 57016 H 5397.52 3.98522 -0.984386 0
M  V30 57017 H 5396.19 3.13569 -0.182582 0
M  V30 57018 H 5395.38 4.59958 -2.06046 0
M  V30 57019 H 5394.98 2.89358 -2.36956 0
M  V30 57020 H 5397.27 5.93532 -3.26689 0
M  V30 57021 H 5398.22 5.32745 -4.66464 0
M  V30 57022 H 5398.62 4.77325 -3.01365 0
M  V30 57023 N 5398.02 1.26356 0.941911 0
M  V30 57024 C 5399.27 1.12023 1.69052 0
M  V30 57025 C 5399.6 -0.335789 1.91275 0
M  V30 57026 O 5398.88 -1.24672 1.49289 0
M  V30 57027 C 5399.16 1.889 3.06576 0
M  V30 57028 C 5399.01 3.42404 2.91684 0
M  V30 57029 C 5400.33 1.68223 4.0668 0
M  V30 57030 H 5397.45 0.408333 0.613542 0
M  V30 57031 H 5400.09 1.55343 1.09401 0
M  V30 57032 H 5398.24 1.52082 3.57496 0
M  V30 57033 H 5399.91 3.88971 2.47991 0
M  V30 57034 H 5398.16 3.69467 2.27325 0
M  V30 57035 H 5398.83 3.91422 3.89221 0
M  V30 57036 H 5401.3 2.00298 3.64719 0
M  V30 57037 H 5400.18 2.2443 5.00922 0
M  V30 57038 H 5400.44 0.626628 4.37637 0
M  V30 57039 N 5399.5 -1.14638 1.08148 0
M  V30 57040 C 5400.73 -1.89207 0.829726 0
M  V30 57041 C 5401.14 -1.78699 -0.621541 0
M  V30 57042 O 5400.48 -1.14229 -1.43866 0
M  V30 57043 C 5400.54 -3.39954 1.16927 0
M  V30 57044 C 5400.21 -3.74245 2.62277 0
M  V30 57045 C 5401.2 -3.74588 3.60528 0
M  V30 57046 C 5398.89 -4.04306 2.98064 0
M  V30 57047 C 5400.88 -4.04509 4.92596 0
M  V30 57048 C 5398.57 -4.33891 4.30327 0
M  V30 57049 C 5399.57 -4.33976 5.27403 0
M  V30 57050 O 5399.26 -4.62846 6.57289 0
M  V30 57051 H 5398.99 -0.606249 0.299063 0
M  V30 57052 H 5401.54 -1.46126 1.44348 0
M  V30 57053 H 5399.77 -3.83473 0.498512 0
M  V30 57054 H 5401.46 -3.95825 0.898759 0
M  V30 57055 H 5402.23 -3.51454 3.34223 0
M  V30 57056 H 5398.11 -4.03394 2.23146 0
M  V30 57057 H 5401.65 -4.04491 5.6836 0
M  V30 57058 H 5397.55 -4.56494 4.56381 0
M  V30 57059 H 5398.31 -4.80575 6.62563 0
M  V30 57060 N 5400.98 -0.866756 -1.31625 0
M  V30 57061 C 5401.91 -0.264868 -2.26658 0
M  V30 57062 C 5402.89 0.604128 -1.5096 0
M  V30 57063 O 5404.07 0.558261 -1.80044 0
M  V30 57064 C 5401.2 0.625256 -3.32879 0
M  V30 57065 C 5400.25 -0.171963 -4.26153 0
M  V30 57066 S 5401.08 -1.54836 -5.12627 0
M  V30 57067 C 5402.23 -0.664269 -6.22365 0
M  V30 57068 H 5402.47 -1.07045 -2.7736 0
M  V30 57069 H 5400 -0.665087 -1.39341 0
M  V30 57070 H 5401.96 1.13314 -3.94551 0
M  V30 57071 H 5400.62 1.40476 -2.80937 0
M  V30 57072 H 5399.81 0.506518 -5.01448 0
M  V30 57073 H 5399.41 -0.611834 -3.68962 0
M  V30 57074 H 5401.71 0.126479 -6.77382 0
M  V30 57075 H 5402.65 -1.38825 -6.94358 0
M  V30 57076 H 5403.06 -0.233244 -5.64018 0
M  V30 57077 N 5402.46 1.44639 -0.625876 0
M  V30 57078 C 5403.87 1.85501 -0.21124 0
M  V30 57079 C 5404.22 1.52361 1.23615 0
M  V30 57080 O 5403.34 0.959119 1.93984 0
M  V30 57081 C 5403.94 3.367 -0.376599 0
M  V30 57082 C 5402.5 3.76396 -0.0165118 0
M  V30 57083 C 5401.64 2.68515 -0.692462 0
M  V30 57084 H 5404.59 1.3518 -0.83138 0
M  V30 57085 H 5404.62 3.78537 0.385973 0
M  V30 57086 H 5404.13 3.6079 -1.43012 0
M  V30 57087 H 5402.23 3.57923 1.03548 0
M  V30 57088 H 5402.34 4.7723 -0.42291 0
M  V30 57089 H 5400.71 2.54377 -0.128281 0
M  V30 57090 H 5401.49 2.95437 -1.74847 0
M  V30 57091 N 5403.93 0.366107 1.53289 0
M  V30 57092 C 5404.9 -0.467826 2.24375 0
M  V30 57093 C 5405.9 -1.00929 1.25179 0
M  V30 57094 O 5407.09 -0.894963 1.49453 0
M  V30 57095 C 5404.22 -1.65394 2.9809 0
M  V30 57096 H 5405.41 0.15421 2.99503 0
M  V30 57097 H 5402.96 0.117806 1.55855 0
M  V30 57098 H 5403.7 -2.31405 2.27205 0
M  V30 57099 H 5403.48 -1.27264 3.70872 0
M  V30 57100 H 5404.97 -2.24491 3.52127 0
M  V30 57101 N 5405.41 -1.57312 0.095289 0
M  V30 57102 C 5406.64 -1.99121 -0.580136 0
M  V30 57103 C 5407.06 -0.974011 -1.60918 0
M  V30 57104 O 5406.42 0.0574701 -1.81209 0
M  V30 57105 C 5406.47 -3.39897 -1.20426 0
M  V30 57106 O 5405.57 -3.40949 -2.32007 0
M  V30 57107 H 5404.91 -0.647485 -0.147172 0
M  V30 57108 H 5407.44 -2.03835 0.176757 0
M  V30 57109 H 5407.45 -3.77595 -1.54551 0
M  V30 57110 H 5406.13 -4.13454 -0.450369 0
M  V30 57111 H 5404.7 -3.15047 -1.99499 0
M  V30 57112 N 5406.89 0.178405 -1.56587 0
M  V30 57113 C 5408.14 0.892851 -1.82756 0
M  V30 57114 C 5408.49 1.80178 -0.674807 0
M  V30 57115 O 5407.78 1.88752 0.329152 0
M  V30 57116 C 5407.98 1.73052 -3.12711 0
M  V30 57117 C 5407.81 0.904186 -4.40516 0
M  V30 57118 C 5406.58 0.582045 -5.01937 0
M  V30 57119 C 5408.77 0.249051 -5.13697 0
M  V30 57120 N 5406.76 -0.261171 -6.13344 0
M  V30 57121 C 5408.13 -0.455635 -6.18324 0
M  V30 57122 C 5410.18 0.166488 -4.97622 0
M  V30 57123 C 5408.89 -1.23504 -7.08618 0
M  V30 57124 C 5410.91 -0.599569 -5.88353 0
M  V30 57125 C 5410.27 -1.29264 -6.92438 0
M  V30 57126 H 5406.37 0.305565 -0.719829 0
M  V30 57127 H 5408.96 0.160337 -1.94039 0
M  V30 57128 H 5407.13 2.43451 -3.02632 0
M  V30 57129 H 5408.86 2.38572 -3.26903 0
M  V30 57130 H 5405.61 0.910449 -4.64766 0
M  V30 57131 H 5406.04 -0.67288 -6.73648 0
M  V30 57132 H 5410.68 0.68797 -4.17165 0
M  V30 57133 H 5408.4 -1.7679 -7.88525 0
M  V30 57134 H 5411.98 -0.665029 -5.77987 0
M  V30 57135 H 5410.86 -1.87591 -7.61432 0
M  V30 57136 N 5408.37 1.51136 0.446714 0
M  V30 57137 C 5409.61 1.63582 1.1987 0
M  V30 57138 C 5409.95 0.346545 1.91083 0
M  V30 57139 O 5409.22 -0.653382 1.83197 0
M  V30 57140 C 5409.5 2.83283 2.22313 0
M  V30 57141 C 5409.36 4.2216 1.55244 0
M  V30 57142 C 5410.68 2.98507 3.2339 0
M  V30 57143 H 5407.8 0.595348 0.434431 0
M  V30 57144 H 5410.44 1.83595 0.489165 0
M  V30 57145 H 5408.59 2.6635 2.82825 0
M  V30 57146 H 5410.26 4.50739 0.981413 0
M  V30 57147 H 5408.5 4.25291 0.854973 0
M  V30 57148 H 5409.17 5.0189 2.29806 0
M  V30 57149 H 5411.65 3.14088 2.72924 0
M  V30 57150 H 5410.53 3.83842 3.92373 0
M  V30 57151 H 5410.79 2.1017 3.88948 0
M  V30 57152 N 5409.85 -0.701542 1.41125 0
M  V30 57153 C 5410.78 -1.82565 1.36913 0
M  V30 57154 C 5411.76 -1.60859 0.237301 0
M  V30 57155 O 5412.94 -1.83687 0.423246 0
M  V30 57156 C 5410.07 -3.19145 1.1342 0
M  V30 57157 C 5409.11 -3.59653 2.29242 0
M  V30 57158 S 5409.95 -3.65147 3.91698 0
M  V30 57159 C 5411.1 -5.04464 3.70496 0
M  V30 57160 H 5411.34 -1.85859 2.32043 0
M  V30 57161 H 5408.87 -0.869681 1.27577 0
M  V30 57162 H 5410.83 -3.97995 1.00551 0
M  V30 57163 H 5409.49 -3.13468 0.199209 0
M  V30 57164 H 5408.68 -4.58859 2.08482 0
M  V30 57165 H 5408.28 -2.88097 2.38487 0
M  V30 57166 H 5410.58 -5.91791 3.29832 0
M  V30 57167 H 5411.52 -5.30264 4.69282 0
M  V30 57168 H 5411.93 -4.7572 3.03892 0
M  V30 57169 N 5411.32 -1.26854 -0.935197 0
M  V30 57170 C 5412.74 -1.04096 -1.2098 0
M  V30 57171 C 5412.94 0.230172 -2.00181 0
M  V30 57172 O 5412 0.937697 -2.34443 0
M  V30 57173 C 5413.31 -2.27593 -1.96525 0
M  V30 57174 C 5414.86 -2.32555 -2.09493 0
M  V30 57175 C 5415.33 -3.55761 -2.88441 0
M  V30 57176 N 5416.82 -3.56274 -2.96012 0
M  V30 57177 C 5417.56 -4.48275 -3.57543 0
M  V30 57178 N 5417.05 -5.50571 -4.20527 0
M  V30 57179 N 5418.85 -4.35914 -3.54874 0
M  V30 57180 H 5411 -2.08486 -0.405881 0
M  V30 57181 H 5413.26 -0.916557 -0.242132 0
M  V30 57182 H 5412.97 -3.20082 -1.45742 0
M  V30 57183 H 5412.84 -2.32315 -2.97169 0
M  V30 57184 H 5415.23 -1.40577 -2.59465 0
M  V30 57185 H 5415.31 -2.3184 -1.08093 0
M  V30 57186 H 5414.95 -4.48071 -2.39154 0
M  V30 57187 H 5414.88 -3.53725 -3.9011 0
M  V30 57188 H 5417.37 -2.82287 -2.51242 0
M  V30 57189 H 5417.69 -6.16951 -4.65393 0
M  V30 57190 H 5416.03 -5.54422 -4.19095 0
M  V30 57191 H 5419.22 -3.5521 -3.04866 0
M  V30 57192 H 5419.4 -5.07806 -4.02539 0
M  V30 57193 N 5412.8 1.14063 -1.08754 0
M  V30 57194 C 5414.05 1.84532 -0.8143 0
M  V30 57195 C 5414.36 1.84046 0.662291 0
M  V30 57196 O 5415.57 2.5034 1.05082 0
M  V30 57197 C 5414.03 3.31268 -1.40674 0
M  V30 57198 C 5413.63 3.40161 -2.91538 0
M  V30 57199 C 5415.38 4.06826 -1.21215 0
M  V30 57200 C 5413.29 4.81129 -3.43902 0
M  V30 57201 H 5412.22 0.691335 -0.300951 0
M  V30 57202 H 5414.87 1.28558 -1.3094 0
M  V30 57203 H 5413.25 3.87002 -0.839351 0
M  V30 57204 H 5414.42 2.94459 -3.54444 0
M  V30 57205 H 5412.74 2.78063 -3.09952 0
M  V30 57206 H 5415.33 5.10885 -1.57799 0
M  V30 57207 H 5415.68 4.16022 -0.152238 0
M  V30 57208 H 5416.21 3.57402 -1.74667 0
M  V30 57209 H 5412.95 4.77123 -4.49482 0
M  V30 57210 H 5412.47 5.27355 -2.85756 0
M  V30 57211 H 5414.15 5.5003 -3.407 0
M  V30 57212 N 5414.28 0.873724 1.31163 0
M  V30 57213 C 5415.21 0.276884 2.26514 0
M  V30 57214 C 5416.19 -0.596113 1.51279 0
M  V30 57215 O 5417.38 -0.548705 1.80337 0
M  V30 57216 C 5414.5 -0.607594 3.33206 0
M  V30 57217 C 5413.55 0.19456 4.26056 0
M  V30 57218 S 5414.38 1.57552 5.11798 0
M  V30 57219 C 5415.54 0.697265 6.22004 0
M  V30 57220 H 5415.77 1.08515 2.76788 0
M  V30 57221 H 5413.3 0.672468 1.38986 0
M  V30 57222 H 5415.26 -1.1122 3.95146 0
M  V30 57223 H 5413.92 -1.38984 2.81678 0
M  V30 57224 H 5413.12 -0.479918 5.0171 0
M  V30 57225 H 5412.72 0.631392 3.68632 0
M  V30 57226 H 5415.01 -0.0905538 6.77439 0
M  V30 57227 H 5415.95 1.42505 6.93612 0
M  V30 57228 H 5416.36 0.263152 5.63886 0
M  V30 57229 N 5415.76 -1.44305 0.633538 0
M  V30 57230 C 5416.99 -2.06383 0.146136 0
M  V30 57231 C 5417.4 -1.47361 -1.18026 0
M  V30 57232 O 5416.76 -0.597394 -1.72446 0
M  V30 57233 C 5416.81 -3.61489 0.0277993 0
M  V30 57234 O 5416.53 -4.18314 1.30175 0
M  V30 57235 C 5418.03 -4.40606 -0.488013 0
M  V30 57236 H 5415.25 -0.666119 0.0807866 0
M  V30 57237 H 5417.8 -1.85136 0.868622 0
M  V30 57238 H 5415.95 -3.8199 -0.645139 0
M  V30 57239 H 5416.36 -5.11779 1.14815 0
M  V30 57240 H 5417.84 -5.49547 -0.51982 0
M  V30 57241 H 5418.32 -4.12224 -1.51553 0
M  V30 57242 H 5418.92 -4.25029 0.151758 0
M  V30 57243 N 5417.24 -0.374231 -1.53092 0
M  V30 57244 C 5418.48 0.205598 -2.02358 0
M  V30 57245 C 5418.84 1.45715 -1.25638 0
M  V30 57246 O 5418.13 1.88486 -0.344044 0
M  V30 57247 C 5418.32 0.542055 -3.53266 0
M  V30 57248 C 5418.15 -0.675342 -4.446 0
M  V30 57249 C 5416.92 -1.19005 -4.91087 0
M  V30 57250 C 5419.12 -1.54316 -4.90603 0
M  V30 57251 N 5417.1 -2.36657 -5.66451 0
M  V30 57252 C 5418.47 -2.56625 -5.64397 0
M  V30 57253 C 5420.53 -1.56503 -4.72664 0
M  V30 57254 C 5419.23 -3.60987 -6.22158 0
M  V30 57255 C 5421.26 -2.59763 -5.31297 0
M  V30 57256 C 5420.62 -3.60795 -6.04985 0
M  V30 57257 H 5416.72 0.0377197 -0.78109 0
M  V30 57258 H 5419.3 -0.520727 -1.87607 0
M  V30 57259 H 5417.47 1.23745 -3.6816 0
M  V30 57260 H 5419.21 1.10773 -3.89245 0
M  V30 57261 H 5415.96 -0.753345 -4.6757 0
M  V30 57262 H 5416.39 -2.96145 -6.08792 0
M  V30 57263 H 5421.03 -0.797442 -4.15212 0
M  V30 57264 H 5418.75 -4.38622 -6.78702 0
M  V30 57265 H 5422.33 -2.6232 -5.19307 0
M  V30 57266 H 5421.21 -4.39386 -6.49546 0
M  V30 57267 N 5418.71 1.57259 -0.10363 0
M  V30 57268 C 5419.64 2.17512 0.849153 0
M  V30 57269 C 5420.63 1.11083 1.2882 0
M  V30 57270 O 5421.81 1.39256 1.35356 0
M  V30 57271 C 5418.94 2.76228 2.10512 0
M  V30 57272 C 5417.89 3.88105 1.8044 0
M  V30 57273 C 5417.22 4.3356 3.12937 0
M  V30 57274 C 5418.52 5.10913 1.08469 0
M  V30 57275 H 5420.21 2.97381 0.347112 0
M  V30 57276 H 5417.76 1.43046 0.165517 0
M  V30 57277 H 5419.71 3.17034 2.7761 0
M  V30 57278 H 5418.44 1.93626 2.63014 0
M  V30 57279 H 5417.1 3.47851 1.15737 0
M  V30 57280 H 5416.74 3.47837 3.63343 0
M  V30 57281 H 5416.44 5.08994 2.93596 0
M  V30 57282 H 5417.97 4.77006 3.8118 0
M  V30 57283 H 5419.38 5.48834 1.65692 0
M  V30 57284 H 5417.78 5.91831 0.992765 0
M  V30 57285 H 5418.85 4.84851 0.0688404 0
M  V30 57286 N 5420.19 -0.170098 1.56679 0
M  V30 57287 C 5421.47 -0.913877 1.72938 0
M  V30 57288 C 5421.85 -2.0034 0.665363 0
M  V30 57289 O 5421.2 -2.26253 -0.319636 0
M  V30 57290 C 5421.41 -1.4775 3.16182 0
M  V30 57291 C 5422.76 -1.94994 3.77177 0
M  V30 57292 O 5423.78 -1.57541 3.19467 0
M  V30 57293 O 5422.64 -2.6399 4.7851 0
M  V30 57294 H 5419.73 -0.430245 0.706271 0
M  V30 57295 H 5422.28 -0.157832 1.68964 0
M  V30 57296 H 5421.05 -0.693385 3.85108 0
M  V30 57297 H 5420.67 -2.29769 3.24487 0
M  V30 57298 N 5421.67 -1.51371 -0.438693 0
M  V30 57299 C 5422.6 -1.67269 -1.5523 0
M  V30 57300 C 5423.58 -0.520293 -1.54051 0
M  V30 57301 O 5424.77 -0.743958 -1.73198 0
M  V30 57302 C 5421.89 -1.68502 -2.93811 0
M  V30 57303 C 5420.94 -2.89691 -3.1302 0
M  V30 57304 S 5421.77 -4.50524 -2.89462 0
M  V30 57305 C 5422.93 -4.545 -4.30326 0
M  V30 57306 H 5423.16 -2.61461 -1.41511 0
M  V30 57307 H 5420.69 -1.41039 -0.628291 0
M  V30 57308 H 5422.65 -1.69898 -3.73691 0
M  V30 57309 H 5421.31 -0.754894 -3.04894 0
M  V30 57310 H 5420.51 -2.86951 -4.14337 0
M  V30 57311 H 5420.11 -2.86031 -2.40962 0
M  V30 57312 H 5422.4 -4.30057 -5.23505 0
M  V30 57313 H 5423.34 -5.56304 -4.381 0
M  V30 57314 H 5423.75 -3.83839 -4.13918 0
M  V30 57315 N 5423.15 0.694048 -1.41495 0
M  V30 57316 C 5424.39 1.45625 -1.41142 0
M  V30 57317 C 5424.73 1.94189 -0.0209111 0
M  V30 57318 O 5424 1.69632 0.951595 0
M  V30 57319 C 5424.29 2.66706 -2.4195 0
M  V30 57320 C 5424.14 2.23898 -3.90115 0
M  V30 57321 C 5425.46 3.68905 -2.39994 0
M  V30 57322 H 5422.58 0.528192 -0.513986 0
M  V30 57323 H 5425.22 0.790376 -1.7278 0
M  V30 57324 H 5423.37 3.23517 -2.15102 0
M  V30 57325 H 5425.04 1.72402 -4.27873 0
M  V30 57326 H 5423.28 1.55666 -4.04908 0
M  V30 57327 H 5423.95 3.10784 -4.56199 0
M  V30 57328 H 5426.43 3.2177 -2.63825 0
M  V30 57329 H 5425.31 4.51231 -3.1254 0
M  V30 57330 H 5425.57 4.18706 -1.41907 0
M  V30 57331 N 5424.63 1.27348 0.928456 0
M  V30 57332 C 5425.9 1.04368 1.65429 0
M  V30 57333 C 5426.28 -0.421823 2.06843 0
M  V30 57334 O 5425.63 -1.4049 1.80208 0
M  V30 57335 C 5425.84 2.00452 2.85692 0
M  V30 57336 C 5427.19 2.2978 3.57053 0
M  V30 57337 O 5428.21 1.9842 2.95818 0
M  V30 57338 O 5427.07 2.83233 4.67377 0
M  V30 57339 H 5424.17 0.397808 0.725036 0
M  V30 57340 H 5426.71 1.38609 0.97906 0
M  V30 57341 H 5425.49 2.9929 2.52074 0
M  V30 57342 H 5425.11 1.66768 3.60935 0
M  V30 57343 N 5426.11 -1.13484 1.09357 0
M  V30 57344 C 5427.33 -1.88589 0.850981 0
M  V30 57345 C 5427.75 -1.79089 -0.597699 0
M  V30 57346 O 5427.11 -1.157 -1.41138 0
M  V30 57347 C 5427.16 -3.38214 1.27645 0
M  V30 57348 O 5426.88 -3.47466 2.66831 0
M  V30 57349 C 5428.38 -4.30289 1.06614 0
M  V30 57350 H 5425.6 -0.597059 0.306206 0
M  V30 57351 H 5428.14 -1.43663 1.45538 0
M  V30 57352 H 5426.3 -3.80727 0.715962 0
M  V30 57353 H 5426.71 -4.40475 2.84748 0
M  V30 57354 H 5428.19 -5.33606 1.41311 0
M  V30 57355 H 5428.66 -4.392 0.0038679 0
M  V30 57356 H 5429.27 -3.93545 1.61254 0
M  V30 57357 N 5427.58 -0.880667 -1.30698 0
M  V30 57358 C 5428.81 -0.510979 -2.01007 0
M  V30 57359 C 5429.23 0.891983 -1.65606 0
M  V30 57360 O 5428.59 1.59042 -0.870365 0
M  V30 57361 C 5428.64 -0.687883 -3.53978 0
M  V30 57362 O 5427.74 0.268131 -4.11527 0
M  V30 57363 H 5427.08 -0.201887 -0.632564 0
M  V30 57364 H 5429.61 -1.18703 -1.66646 0
M  V30 57365 H 5429.62 -0.585237 -4.03781 0
M  V30 57366 H 5428.3 -1.71081 -3.79083 0
M  V30 57367 H 5426.88 0.119542 -3.72708 0
M  V30 57368 N 5429.06 1.43967 -0.641182 0
M  V30 57369 C 5429.99 2.33458 0.0443779 0
M  V30 57370 C 5430.97 1.48784 0.824455 0
M  V30 57371 O 5432.16 1.77479 0.788335 0
M  V30 57372 C 5429.29 3.31992 1.01973 0
M  V30 57373 C 5428.24 4.26562 0.350595 0
M  V30 57374 C 5427.57 5.15041 1.43655 0
M  V30 57375 C 5428.87 5.16895 -0.749481 0
M  V30 57376 H 5430.56 2.91031 -0.702934 0
M  V30 57377 H 5428.11 1.39941 -0.339484 0
M  V30 57378 H 5430.06 3.93488 1.50815 0
M  V30 57379 H 5428.78 2.72649 1.79805 0
M  V30 57380 H 5427.44 3.66412 -0.117268 0
M  V30 57381 H 5427.09 4.52045 2.20601 0
M  V30 57382 H 5426.79 5.79129 0.994154 0
M  V30 57383 H 5428.32 5.79409 1.92658 0
M  V30 57384 H 5429.73 5.72269 -0.343735 0
M  V30 57385 H 5428.13 5.89639 -1.11562 0
M  V30 57386 H 5429.2 4.57304 -1.61248 0
M  V30 57387 N 5430.54 0.382345 1.52892 0
M  V30 57388 C 5431.76 -0.204888 2.06385 0
M  V30 57389 C 5432.19 -1.40312 1.25276 0
M  V30 57390 O 5431.55 -1.79186 0.276032 0
M  V30 57391 C 5431.6 -0.56008 3.56224 0
M  V30 57392 O 5430.7 -1.65502 3.77734 0
M  V30 57393 H 5430.04 -0.0258565 0.663496 0
M  V30 57394 H 5432.57 0.547802 1.9713 0
M  V30 57395 H 5432.58 -0.826361 3.99544 0
M  V30 57396 H 5431.26 0.315986 4.14698 0
M  V30 57397 H 5429.83 -1.38299 3.46306 0
M  V30 57398 N 5432.02 -1.57202 0.111969 0
M  V30 57399 C 5433.27 -1.94567 -0.546645 0
M  V30 57400 C 5433.59 -0.995703 -1.67663 0
M  V30 57401 O 5432.86 -0.0507369 -1.95834 0
M  V30 57402 H 5431.44 -0.718342 -0.204925 0
M  V30 57403 H 5434.1 -1.94074 0.179261 0
M  V30 57404 H 5433.19 -2.97423 -0.945826 0
M  V30 57405 N 5433.5 0.161787 -1.56767 0
M  V30 57406 C 5434.74 0.87686 -1.82531 0
M  V30 57407 C 5435.07 1.81828 -0.690556 0
M  V30 57408 O 5434.33 1.93041 0.321522 0
M  V30 57409 C 5434.62 1.69725 -3.14528 0
M  V30 57410 C 5434.29 0.903919 -4.41747 0
M  V30 57411 C 5432.95 0.685 -4.76299 0
M  V30 57412 C 5435.3 0.348099 -5.20036 0
M  V30 57413 C 5432.63 -0.100686 -5.86614 0
M  V30 57414 C 5434.98 -0.424549 -6.31174 0
M  V30 57415 C 5433.65 -0.654182 -6.64287 0
M  V30 57416 H 5432.92 0.320866 -0.667927 0
M  V30 57417 H 5435.57 0.141271 -1.90978 0
M  V30 57418 H 5433.87 2.50252 -3.01465 0
M  V30 57419 H 5435.57 2.25374 -3.31674 0
M  V30 57420 H 5432.16 1.0846 -4.1465 0
M  V30 57421 H 5436.34 0.504547 -4.93729 0
M  V30 57422 H 5431.6 -0.288243 -6.1072 0
M  V30 57423 H 5435.77 -0.862446 -6.91039 0
M  V30 57424 H 5433.4 -1.26486 -7.49603 0
M  V30 57425 N 5434.97 1.51602 0.430659 0
M  V30 57426 C 5435.92 1.73398 1.52322 0
M  V30 57427 C 5436.89 0.575813 1.558 0
M  V30 57428 O 5438.08 0.810992 1.72707 0
M  V30 57429 C 5435.22 1.87102 2.89977 0
M  V30 57430 C 5434.33 3.14678 2.95976 0
M  V30 57431 C 5433.46 3.18938 4.24796 0
M  V30 57432 C 5432.5 4.40802 4.24688 0
M  V30 57433 N 5431.64 4.42575 5.45043 0
M  V30 57434 H 5436.48 2.66655 1.33039 0
M  V30 57435 H 5434.02 1.32148 0.64616 0
M  V30 57436 H 5435.97 1.9303 3.69859 0
M  V30 57437 H 5434.6 0.972471 3.07803 0
M  V30 57438 H 5433.66 3.18027 2.08717 0
M  V30 57439 H 5434.97 4.04572 2.91758 0
M  V30 57440 H 5434.12 3.23819 5.13056 0
M  V30 57441 H 5432.86 2.26945 4.3168 0
M  V30 57442 H 5431.87 4.36091 3.3482 0
M  V30 57443 H 5433.09 5.34068 4.19462 0
M  V30 57444 H 5431.04 3.53454 5.52635 0
M  V30 57445 H 5430.95 5.26286 5.42733 0
M  V30 57446 H 5432.22 4.51657 6.35316 0
M  V30 57447 N 5436.45 -0.686534 1.41861 0
M  V30 57448 C 5437.38 -1.81259 1.47199 0
M  V30 57449 C 5438.36 -1.66874 0.329716 0
M  V30 57450 O 5439.55 -1.86471 0.542412 0
M  V30 57451 C 5436.68 -3.19468 1.36227 0
M  V30 57452 C 5435.63 -3.48571 2.48359 0
M  V30 57453 C 5434.96 -4.86231 2.22449 0
M  V30 57454 C 5436.26 -3.46639 3.9069 0
M  V30 57455 H 5437.95 -1.77049 2.41442 0
M  V30 57456 H 5435.5 -0.850374 1.16209 0
M  V30 57457 H 5437.45 -3.97965 1.38572 0
M  V30 57458 H 5436.17 -3.24326 0.384725 0
M  V30 57459 H 5434.83 -2.72429 2.45312 0
M  V30 57460 H 5434.48 -4.87725 1.23016 0
M  V30 57461 H 5434.18 -5.06667 2.97594 0
M  V30 57462 H 5435.71 -5.67026 2.26524 0
M  V30 57463 H 5437.12 -4.15125 3.95404 0
M  V30 57464 H 5435.52 -3.78609 4.65591 0
M  V30 57465 H 5436.59 -2.45436 4.18197 0
M  V30 57466 N 5437.93 -1.27838 -0.92169 0
M  V30 57467 C 5438.88 -1.11082 -2.0231 0
M  V30 57468 C 5439.85 -0.0101779 -1.66097 0
M  V30 57469 O 5441.03 -0.173631 -1.90008 0
M  V30 57470 C 5438.17 -0.770369 -3.36392 0
M  V30 57471 C 5437.28 -1.94925 -3.85523 0
M  V30 57472 C 5436.42 -1.55014 -5.08079 0
M  V30 57473 C 5435.46 -2.69615 -5.49522 0
M  V30 57474 N 5434.6 -2.3025 -6.63272 0
M  V30 57475 H 5439.44 -2.05326 -2.15975 0
M  V30 57476 H 5436.97 -1.02204 -1.05796 0
M  V30 57477 H 5438.93 -0.553769 -4.13508 0
M  V30 57478 H 5437.56 0.135125 -3.22517 0
M  V30 57479 H 5436.61 -2.27822 -3.04633 0
M  V30 57480 H 5437.92 -2.80872 -4.12204 0
M  V30 57481 H 5437.08 -1.29514 -5.92715 0
M  V30 57482 H 5435.82 -0.661846 -4.83188 0
M  V30 57483 H 5434.82 -2.95822 -4.63432 0
M  V30 57484 H 5436.05 -3.59074 -5.76405 0
M  V30 57485 H 5433.99 -1.4388 -6.40027 0
M  V30 57486 H 5433.91 -3.09735 -6.89638 0
M  V30 57487 H 5435.18 -2.08013 -7.51233 0
M  V30 57488 N 5439.41 1.12903 -1.09958 0
M  V30 57489 C 5440.69 1.80599 -0.751211 0
M  V30 57490 C 5441.07 1.96828 0.763008 0
M  V30 57491 O 5440.41 1.54071 1.68743 0
M  V30 57492 C 5440.62 3.15283 -1.49657 0
M  V30 57493 C 5441.97 3.90554 -1.66591 0
M  V30 57494 O 5443 3.24924 -1.45954 0
M  V30 57495 O 5441.85 5.08285 -2.0077 0
M  V30 57496 H 5438.95 0.78152 -0.270473 0
M  V30 57497 H 5441.49 1.19782 -1.2021 0
M  V30 57498 H 5440.27 2.98732 -2.52735 0
M  V30 57499 H 5439.89 3.83806 -1.03822 0
M  V30 57500 N 5440.89 0.887586 1.30229 0
M  V30 57501 C 5442.13 0.514087 1.97829 0
M  V30 57502 C 5442.49 -0.920092 1.68518 0
M  V30 57503 O 5443.69 -1.39985 2.29473 0
M  V30 57504 C 5441.96 0.784278 3.48689 0
M  V30 57505 S 5443.52 0.513273 4.35788 0
M  V30 57506 H 5440.34 0.191181 0.684815 0
M  V30 57507 H 5442.94 1.14741 1.58287 0
M  V30 57508 H 5441.65 1.82652 3.67514 0
M  V30 57509 H 5441.18 0.138607 3.93156 0
M  V30 57510 H 5443.19 -0.646982 4.91964 0
M  V30 57511 N 5442.36 -1.43625 0.648807 0
M  V30 57512 C 5443.61 -2.02163 0.160645 0
M  V30 57513 C 5443.94 -1.51041 -1.22067 0
M  V30 57514 O 5443.22 -0.701697 -1.81401 0
M  V30 57515 C 5443.5 -3.59714 0.166654 0
M  V30 57516 C 5443.35 -4.21078 1.58157 0
M  V30 57517 C 5444.67 -4.37258 -0.499331 0
M  V30 57518 H 5441.79 -0.734566 0.0598496 0
M  V30 57519 H 5444.43 -1.70978 0.828652 0
M  V30 57520 H 5442.58 -3.86413 -0.402166 0
M  V30 57521 H 5444.26 -4.05425 2.20064 0
M  V30 57522 H 5442.5 -3.77896 2.13018 0
M  V30 57523 H 5443.17 -5.30151 1.53766 0
M  V30 57524 H 5445.65 -4.16097 -0.0154099 0
M  V30 57525 H 5444.52 -5.46932 -0.464381 0
M  V30 57526 H 5444.78 -4.1318 -1.57272 0
M  V30 57527 N 5443.84 -0.390448 -1.52687 0
M  V30 57528 C 5444.78 0.488301 -2.22914 0
M  V30 57529 C 5445.75 1.06314 -1.23029 0
M  V30 57530 O 5446.94 1.11457 -1.52019 0
M  V30 57531 C 5444.06 1.67601 -2.94326 0
M  V30 57532 C 5443.11 1.22632 -4.0849 0
M  V30 57533 S 5443.94 0.206904 -5.351 0
M  V30 57534 C 5445.1 1.40037 -6.10033 0
M  V30 57535 H 5445.33 -0.108053 -2.97104 0
M  V30 57536 H 5442.87 -0.174642 -1.53409 0
M  V30 57537 H 5444.82 2.35716 -3.36078 0
M  V30 57538 H 5443.48 2.24367 -2.19814 0
M  V30 57539 H 5442.68 2.11315 -4.57561 0
M  V30 57540 H 5442.28 0.624067 -3.68757 0
M  V30 57541 H 5444.57 2.32725 -6.36275 0
M  V30 57542 H 5445.51 0.950558 -7.01691 0
M  V30 57543 H 5445.92 1.6177 -5.40824 0
M  V30 57544 N 5445.32 1.5714 -0.120304 0
M  V30 57545 C 5446.55 1.99302 0.544276 0
M  V30 57546 C 5446.96 0.998915 1.60681 0
M  V30 57547 O 5446.3 -0.0161552 1.83693 0
M  V30 57548 C 5446.36 3.37878 1.22796 0
M  V30 57549 C 5446.03 4.55925 0.313214 0
M  V30 57550 C 5447.02 5.1796 -0.448683 0
M  V30 57551 C 5444.71 5.01801 0.223905 0
M  V30 57552 C 5446.7 6.24259 -1.28761 0
M  V30 57553 C 5444.39 6.0796 -0.61865 0
M  V30 57554 C 5445.39 6.69057 -1.37303 0
M  V30 57555 O 5445.08 7.73165 -2.2016 0
M  V30 57556 H 5444.81 0.659471 0.148572 0
M  V30 57557 H 5447.36 2.04386 -0.20385 0
M  V30 57558 H 5445.59 3.29552 2.02318 0
M  V30 57559 H 5447.28 3.6432 1.78958 0
M  V30 57560 H 5448.05 4.83433 -0.389565 0
M  V30 57561 H 5443.93 4.53992 0.800781 0
M  V30 57562 H 5447.47 6.71876 -1.87691 0
M  V30 57563 H 5443.37 6.41917 -0.679157 0
M  V30 57564 H 5444.14 7.90268 -2.13116 0
M  V30 57565 N 5446.8 -0.153471 1.56851 0
M  V30 57566 C 5447.76 -1.17355 1.96877 0
M  V30 57567 C 5448.76 -1.36216 0.854504 0
M  V30 57568 O 5449.95 -1.33318 1.12124 0
M  V30 57569 C 5447.08 -2.53515 2.2791 0
M  V30 57570 H 5448.28 -0.830331 2.88176 0
M  V30 57571 H 5445.83 -0.39658 1.51185 0
M  V30 57572 H 5446.56 -2.9282 1.39381 0
M  V30 57573 H 5446.35 -2.41187 3.09146 0
M  V30 57574 H 5447.84 -3.26996 2.59737 0
M  V30 57575 N 5448.28 -1.51828 -0.422613 0
M  V30 57576 C 5449.5 -1.69342 -1.19742 0
M  V30 57577 C 5449.93 -0.396377 -1.83876 0
M  V30 57578 O 5449.28 0.644916 -1.69442 0
M  V30 57579 C 5449.33 -2.8209 -2.24627 0
M  V30 57580 O 5448.44 -2.46719 -3.30459 0
M  V30 57581 H 5447.78 -0.564167 -0.35016 0
M  V30 57582 H 5450.31 -1.98466 -0.497219 0
M  V30 57583 H 5450.32 -3.06608 -2.69176 0
M  V30 57584 H 5448.99 -3.76201 -1.77328 0
M  V30 57585 H 5447.57 -2.32826 -2.91284 0
M  V30 57586 N 5449.75 0.679002 -1.42223 0
M  V30 57587 C 5450.72 1.77443 -1.45075 0
M  V30 57588 C 5451.72 1.57187 -0.338937 0
M  V30 57589 O 5452.91 1.63556 -0.599577 0
M  V30 57590 C 5450.04 3.16026 -1.2783 0
M  V30 57591 H 5451.23 1.76302 -2.42606 0
M  V30 57592 H 5448.79 0.888232 -1.28608 0
M  V30 57593 H 5449.52 3.22795 -0.312059 0
M  V30 57594 H 5449.31 3.32131 -2.08403 0
M  V30 57595 H 5450.8 3.95955 -1.327 0
M  V30 57596 N 5451.23 1.28325 0.914897 0
M  V30 57597 C 5452.48 1.15584 1.66638 0
M  V30 57598 C 5452.81 -0.295141 1.91944 0
M  V30 57599 O 5452.09 -1.21477 1.519 0
M  V30 57600 C 5452.37 1.9536 3.025 0
M  V30 57601 C 5452.22 3.48514 2.84355 0
M  V30 57602 C 5453.54 1.76812 4.03021 0
M  V30 57603 H 5450.66 0.421255 0.604742 0
M  V30 57604 H 5453.3 1.57628 1.06082 0
M  V30 57605 H 5451.45 1.59631 3.54189 0
M  V30 57606 H 5453.12 3.94143 2.39685 0
M  V30 57607 H 5451.37 3.74206 2.19437 0
M  V30 57608 H 5452.04 3.9959 3.80831 0
M  V30 57609 H 5454.51 2.07989 3.60388 0
M  V30 57610 H 5453.39 2.35005 4.96048 0
M  V30 57611 H 5453.65 0.719316 4.36209 0
M  V30 57612 N 5452.71 -1.12318 1.10555 0
M  V30 57613 C 5453.96 -1.84127 0.849996 0
M  V30 57614 C 5454.29 -1.8394 -0.622881 0
M  V30 57615 O 5453.56 -1.28584 -1.45933 0
M  V30 57616 C 5453.85 -3.31746 1.40059 0
M  V30 57617 C 5453.7 -3.40381 2.94042 0
M  V30 57618 C 5455.02 -4.27539 1.04394 0
M  V30 57619 H 5452.14 -0.668522 0.310237 0
M  V30 57620 H 5454.78 -1.31761 1.3689 0
M  V30 57621 H 5452.93 -3.76472 0.959234 0
M  V30 57622 H 5454.6 -3.04281 3.46714 0
M  V30 57623 H 5452.85 -2.80889 3.30581 0
M  V30 57624 H 5453.52 -4.4424 3.2765 0
M  V30 57625 H 5455.99 -3.90946 1.42479 0
M  V30 57626 H 5454.87 -5.29235 1.45608 0
M  V30 57627 H 5455.13 -4.42076 -0.0464762 0
M  V30 57628 N 5454.19 -0.89448 -1.29757 0
M  V30 57629 C 5455.12 -0.384781 -2.30308 0
M  V30 57630 C 5456.1 0.537429 -1.61387 0
M  V30 57631 O 5457.29 0.449265 -1.88932 0
M  V30 57632 C 5454.42 0.393189 -3.45067 0
M  V30 57633 C 5453.37 -0.438118 -4.25752 0
M  V30 57634 C 5452.7 0.467034 -5.32656 0
M  V30 57635 C 5454 -1.68528 -4.94364 0
M  V30 57636 H 5455.69 -1.22505 -2.7319 0
M  V30 57637 H 5453.24 -0.590518 -1.31335 0
M  V30 57638 H 5455.19 0.760468 -4.14481 0
M  V30 57639 H 5453.91 1.2672 -3.01014 0
M  V30 57640 H 5452.57 -0.787659 -3.58038 0
M  V30 57641 H 5452.22 1.33902 -4.8485 0
M  V30 57642 H 5451.92 -0.0854548 -5.87538 0
M  V30 57643 H 5453.44 0.83062 -6.04924 0
M  V30 57644 H 5454.86 -1.38804 -5.56243 0
M  V30 57645 H 5453.25 -2.17869 -5.59154 0
M  V30 57646 H 5454.32 -2.42427 -4.19949 0
M  V30 57647 N 5455.67 1.43279 -0.656415 0
M  V30 57648 C 5456.6 2.33492 0.0196141 0
M  V30 57649 C 5457.58 1.4965 0.808628 0
M  V30 57650 O 5458.76 1.78306 0.769466 0
M  V30 57651 C 5455.89 3.33055 0.984456 0
M  V30 57652 C 5454.85 4.26909 0.305333 0
M  V30 57653 C 5454.17 5.16536 1.38184 0
M  V30 57654 C 5455.47 5.16071 -0.804262 0
M  V30 57655 H 5457.17 2.90269 -0.733763 0
M  V30 57656 H 5454.71 1.39573 -0.354308 0
M  V30 57657 H 5456.67 3.95066 1.46633 0
M  V30 57658 H 5455.39 2.74541 1.76903 0
M  V30 57659 H 5454.05 3.66267 -0.156124 0
M  V30 57660 H 5453.7 4.54359 2.15794 0
M  V30 57661 H 5453.4 5.80151 0.932674 0
M  V30 57662 H 5454.92 5.8142 1.86501 0
M  V30 57663 H 5456.34 5.71872 -0.404413 0
M  V30 57664 H 5454.73 5.88422 -1.1781 0
M  V30 57665 H 5455.8 4.55568 -1.66089 0
M  V30 57666 N 5457.15 0.398539 1.52478 0
M  V30 57667 C 5458.39 -0.181976 2.00877 0
M  V30 57668 C 5458.71 -1.47124 1.28895 0
M  V30 57669 O 5459.91 -2.13236 1.68055 0
M  V30 57670 C 5458.37 -0.374852 3.57943 0
M  V30 57671 C 5457.98 0.901698 4.38832 0
M  V30 57672 C 5459.72 -0.911232 4.14604 0
M  V30 57673 C 5457.63 0.676592 5.87517 0
M  V30 57674 H 5456.56 -0.0717804 0.750575 0
M  V30 57675 H 5459.21 0.522359 1.75908 0
M  V30 57676 H 5457.59 -1.14126 3.79198 0
M  V30 57677 H 5458.77 1.67344 4.2934 0
M  V30 57678 H 5457.08 1.36371 3.93436 0
M  V30 57679 H 5459.68 -1.09551 5.23357 0
M  V30 57680 H 5460.02 -1.88293 3.71284 0
M  V30 57681 H 5460.55 -0.204156 3.97276 0
M  V30 57682 H 5457.29 1.61955 6.35178 0
M  V30 57683 H 5456.81 -0.0560434 5.99774 0
M  V30 57684 H 5458.49 0.314681 6.46234 0
M  V30 57685 N 5458.62 -1.57074 0.128636 0
M  V30 57686 C 5459.55 -2.18836 -0.814442 0
M  V30 57687 C 5460.53 -1.13118 -1.27036 0
M  V30 57688 O 5461.72 -1.41392 -1.33124 0
M  V30 57689 C 5458.85 -2.79542 -2.06091 0
M  V30 57690 C 5457.8 -3.90926 -1.74243 0
M  V30 57691 C 5457.13 -4.38484 -3.06 0
M  V30 57692 C 5458.43 -5.12574 -1.00327 0
M  V30 57693 H 5460.12 -2.97896 -0.299758 0
M  V30 57694 H 5457.67 -1.43291 -0.142739 0
M  V30 57695 H 5459.62 -3.2141 -2.72531 0
M  V30 57696 H 5458.35 -1.97786 -2.599 0
M  V30 57697 H 5457.01 -3.49649 -1.10188 0
M  V30 57698 H 5456.65 -3.53574 -3.57763 0
M  V30 57699 H 5456.35 -5.13601 -2.85461 0
M  V30 57700 H 5457.88 -4.8301 -3.73543 0
M  V30 57701 H 5459.29 -5.51401 -1.5694 0
M  V30 57702 H 5457.69 -5.93336 -0.898484 0
M  V30 57703 H 5458.76 -4.84899 0.00830397 0
M  V30 57704 N 5460.1 0.14515 -1.5693 0
M  V30 57705 C 5461.03 1.20875 -1.93558 0
M  V30 57706 C 5462.01 1.41464 -0.801661 0
M  V30 57707 O 5463.2 1.56046 -1.05744 0
M  V30 57708 C 5460.32 2.56732 -2.20921 0
M  V30 57709 C 5459.37 2.52726 -3.43557 0
M  V30 57710 S 5460.2 1.9924 -4.97055 0
M  V30 57711 C 5461.36 3.36823 -5.27542 0
M  V30 57712 H 5461.59 0.896262 -2.83469 0
M  V30 57713 H 5459.12 0.350841 -1.50361 0
M  V30 57714 H 5461.08 3.34914 -2.37366 0
M  V30 57715 H 5459.74 2.85169 -1.31671 0
M  V30 57716 H 5458.94 3.5274 -3.59987 0
M  V30 57717 H 5458.54 1.82654 -3.26364 0
M  V30 57718 H 5460.83 4.3294 -5.21123 0
M  V30 57719 H 5461.77 3.25246 -6.28984 0
M  V30 57720 H 5462.18 3.34044 -4.55055 0
M  V30 57721 N 5461.58 1.5205 0.414556 0
M  V30 57722 C 5462.81 1.69683 1.18386 0
M  V30 57723 C 5463.22 0.403946 1.84428 0
M  V30 57724 O 5462.58 -0.619576 1.71661 0
M  V30 57725 C 5462.63 2.82863 2.25102 0
M  V30 57726 O 5462.35 4.07144 1.61757 0
M  V30 57727 C 5463.85 3.1196 3.14954 0
M  V30 57728 H 5461.07 0.568802 0.355957 0
M  V30 57729 H 5463.62 1.98581 0.488435 0
M  V30 57730 H 5461.77 2.56499 2.90323 0
M  V30 57731 H 5462.19 4.70172 2.32463 0
M  V30 57732 H 5463.66 3.94679 3.85918 0
M  V30 57733 H 5464.14 2.25289 3.77017 0
M  V30 57734 H 5464.74 3.40068 2.55409 0
M  V30 57735 N 5463.06 -0.67145 1.42581 0
M  V30 57736 C 5464.02 -1.76671 1.46014 0
M  V30 57737 C 5465.02 -1.57005 0.347268 0
M  V30 57738 O 5466.21 -1.63236 0.608242 0
M  V30 57739 C 5463.34 -3.15343 1.29505 0
M  V30 57740 H 5464.54 -1.75013 2.43538 0
M  V30 57741 H 5462.09 -0.881399 1.29078 0
M  V30 57742 H 5462.82 -3.22625 0.329173 0
M  V30 57743 H 5462.61 -3.31021 2.10161 0
M  V30 57744 H 5464.1 -3.95246 1.34798 0
M  V30 57745 N 5464.54 -1.28809 -0.908079 0
M  V30 57746 C 5465.95 -1.06638 -1.18745 0
M  V30 57747 C 5466.15 0.187658 -2.00624 0
M  V30 57748 O 5465.21 0.887757 -2.36379 0
M  V30 57749 C 5466.52 -2.3171 -1.91653 0
M  V30 57750 C 5468.07 -2.36946 -2.04513 0
M  V30 57751 C 5468.54 -3.61799 -2.8083 0
M  V30 57752 N 5470.03 -3.62472 -2.88389 0
M  V30 57753 C 5470.77 -4.55758 -3.47954 0
M  V30 57754 N 5470.27 -5.59368 -4.08754 0
M  V30 57755 N 5472.06 -4.43343 -3.45548 0
M  V30 57756 H 5464.21 -2.093 -0.361567 0
M  V30 57757 H 5466.47 -0.921486 -0.222636 0
M  V30 57758 H 5466.18 -3.23101 -1.3892 0
M  V30 57759 H 5466.05 -2.38567 -2.92174 0
M  V30 57760 H 5468.44 -1.46049 -2.56425 0
M  V30 57761 H 5468.52 -2.3408 -1.03151 0
M  V30 57762 H 5468.16 -4.53043 -2.29596 0
M  V30 57763 H 5468.09 -3.6192 -3.8252 0
M  V30 57764 H 5470.59 -2.87553 -2.45198 0
M  V30 57765 H 5470.9 -6.26684 -4.52202 0
M  V30 57766 H 5469.24 -5.63187 -4.07241 0
M  V30 57767 H 5472.43 -3.61597 -2.97263 0
M  V30 57768 H 5472.61 -5.1623 -3.91677 0
M  V30 57769 N 5466.01 1.1173 -1.11149 0
M  V30 57770 C 5467.24 1.87212 -0.880877 0
M  V30 57771 C 5467.66 1.80018 0.569131 0
M  V30 57772 O 5467.01 1.1793 1.39279 0
M  V30 57773 C 5467.06 3.36141 -1.3301 0
M  V30 57774 O 5466.79 3.43177 -2.72325 0
M  V30 57775 C 5468.29 4.28538 -1.13446 0
M  V30 57776 H 5465.51 0.592112 -0.315666 0
M  V30 57777 H 5468.05 1.41329 -1.47805 0
M  V30 57778 H 5466.21 3.79539 -0.776442 0
M  V30 57779 H 5466.62 4.3589 -2.9172 0
M  V30 57780 H 5468.09 5.3129 -1.49783 0
M  V30 57781 H 5468.57 4.39138 -0.0737403 0
M  V30 57782 H 5469.18 3.90929 -1.67494 0
M  V30 57783 N 5467.49 0.901349 1.29281 0
M  V30 57784 C 5468.74 0.528895 1.95782 0
M  V30 57785 C 5469.07 -0.922773 1.70876 0
M  V30 57786 O 5468.35 -1.65445 1.02266 0
M  V30 57787 C 5468.63 0.823916 3.50548 0
M  V30 57788 C 5468.48 2.32741 3.84905 0
M  V30 57789 C 5469.8 0.311536 4.38996 0
M  V30 57790 H 5466.92 0.193629 0.711109 0
M  V30 57791 H 5469.56 1.12833 1.52868 0
M  V30 57792 H 5467.71 0.313748 3.87231 0
M  V30 57793 H 5469.38 2.90724 3.58158 0
M  V30 57794 H 5467.63 2.78747 3.3239 0
M  V30 57795 H 5468.3 2.4844 4.92932 0
M  V30 57796 H 5470.77 0.748408 4.09314 0
M  V30 57797 H 5469.65 0.547149 5.46166 0
M  V30 57798 H 5469.91 -0.787806 4.35024 0
M  V30 57799 N 5468.97 -1.42929 0.664004 0
M  V30 57800 C 5470.2 -2.05728 0.189605 0
M  V30 57801 C 5470.61 -1.49918 -1.15417 0
M  V30 57802 O 5469.95 -0.629385 -1.72582 0
M  V30 57803 C 5470.01 -3.59482 0.0356012 0
M  V30 57804 C 5469.68 -4.3793 1.30638 0
M  V30 57805 C 5470.67 -4.69289 2.2375 0
M  V30 57806 C 5468.36 -4.77755 1.55097 0
M  V30 57807 C 5470.35 -5.39395 3.39605 0
M  V30 57808 C 5468.04 -5.47604 2.71244 0
M  V30 57809 C 5469.04 -5.78347 3.63323 0
M  V30 57810 O 5468.73 -6.46766 4.7744 0
M  V30 57811 H 5468.46 -0.669675 0.0922577 0
M  V30 57812 H 5471.01 -1.8424 0.908008 0
M  V30 57813 H 5469.24 -3.79587 -0.738278 0
M  V30 57814 H 5470.93 -4.03949 -0.397537 0
M  V30 57815 H 5471.7 -4.39031 2.06099 0
M  V30 57816 H 5467.58 -4.53226 0.843023 0
M  V30 57817 H 5471.12 -5.63309 4.11496 0
M  V30 57818 H 5467.02 -5.77279 2.88824 0
M  V30 57819 H 5467.79 -6.65253 4.76844 0
M  V30 57820 N 5470.45 -0.40662 -1.52264 0
M  V30 57821 C 5471.73 0.228409 -1.94262 0
M  V30 57822 C 5472.11 1.62843 -1.34333 0
M  V30 57823 O 5471.45 2.22547 -0.51816 0
M  V30 57824 C 5471.66 0.237278 -3.48192 0
M  V30 57825 C 5473.01 0.457848 -4.22124 0
M  V30 57826 O 5474.04 0.316744 -3.54789 0
M  V30 57827 O 5472.89 0.735756 -5.41525 0
M  V30 57828 H 5469.99 0.146463 -0.813927 0
M  V30 57829 H 5472.53 -0.462382 -1.63279 0
M  V30 57830 H 5471.31 -0.742691 -3.84187 0
M  V30 57831 H 5470.93 0.972273 -3.85529 0
M  V30 57832 N 5471.93 1.57004 -0.136964 0
M  V30 57833 C 5473.2 1.87377 0.561167 0
M  V30 57834 C 5473.58 1.04123 1.83634 0
M  V30 57835 O 5472.93 0.125183 2.28157 0
M  V30 57836 C 5473.14 3.38832 0.836307 0
M  V30 57837 C 5474.49 4.07831 1.1815 0
M  V30 57838 O 5475.51 3.43953 0.925989 0
M  V30 57839 O 5474.37 5.20619 1.66186 0
M  V30 57840 H 5471.47 0.776297 0.285117 0
M  V30 57841 H 5474.01 1.68818 -0.172821 0
M  V30 57842 H 5472.78 3.91243 -0.0665795 0
M  V30 57843 H 5472.41 3.62884 1.62483 0
M  V30 57844 N 5473.4 -0.136826 1.57005 0
M  V30 57845 C 5474.65 -0.846036 1.83539 0
M  V30 57846 C 5474.97 -1.81243 0.719433 0
M  V30 57847 O 5474.24 -1.94192 -0.258093 0
M  V30 57848 H 5472.82 -0.315422 0.67714 0
M  V30 57849 H 5475.49 -0.1284 1.94477 0
M  V30 57850 H 5474.58 -1.40212 2.78832 0
M  V30 57851 N 5474.88 -1.52268 -0.406486 0
M  V30 57852 C 5475.85 -1.75173 -1.47807 0
M  V30 57853 C 5476.85 -0.621627 -1.48298 0
M  V30 57854 O 5478.04 -0.889529 -1.49777 0
M  V30 57855 C 5475.17 -1.83652 -2.87202 0
M  V30 57856 H 5476.36 -2.70838 -1.28789 0
M  V30 57857 H 5473.91 -1.42724 -0.637146 0
M  V30 57858 H 5474.65 -0.899103 -3.11587 0
M  V30 57859 H 5474.43 -2.65811 -2.88248 0
M  V30 57860 H 5475.92 -2.03106 -3.6488 0
M  V30 57861 N 5476.36 0.663879 -1.42935 0
M  V30 57862 C 5477.78 0.978302 -1.26101 0
M  V30 57863 C 5477.98 2.00756 -0.173039 0
M  V30 57864 O 5477.03 2.4842 0.452097 0
M  V30 57865 C 5478.35 1.47271 -2.62167 0
M  V30 57866 C 5479.89 1.58992 -2.69612 0
M  V30 57867 C 5480.37 2.11826 -4.06071 0
M  V30 57868 N 5481.86 2.19144 -4.08081 0
M  V30 57869 C 5482.59 2.61123 -5.10492 0
M  V30 57870 N 5482.09 3.02476 -6.23282 0
M  V30 57871 N 5483.88 2.60969 -4.97847 0
M  V30 57872 H 5476.03 -0.0173842 -2.12393 0
M  V30 57873 H 5478.3 0.0547783 -0.946416 0
M  V30 57874 H 5478 0.790887 -3.42692 0
M  V30 57875 H 5477.88 2.44959 -2.86836 0
M  V30 57876 H 5480.26 2.26278 -1.89426 0
M  V30 57877 H 5480.35 0.59764 -2.48721 0
M  V30 57878 H 5479.99 1.45145 -4.86719 0
M  V30 57879 H 5479.92 3.11865 -4.24321 0
M  V30 57880 H 5482.41 1.90002 -3.26662 0
M  V30 57881 H 5482.72 3.33226 -6.97266 0
M  V30 57882 H 5481.07 3.00306 -6.2677 0
M  V30 57883 H 5484.26 2.28032 -4.08802 0
M  V30 57884 H 5484.43 2.93364 -5.7779 0
M  V30 57885 N 5477.84 1.29288 0.901235 0
M  V30 57886 C 5479.25 1.07267 1.18178 0
M  V30 57887 C 5479.45 -0.177016 2.00721 0
M  V30 57888 O 5478.51 -0.875209 2.36847 0
M  V30 57889 C 5479.82 2.32723 1.90421 0
M  V30 57890 C 5481.37 2.38027 2.03254 0
M  V30 57891 C 5481.85 3.63283 2.78907 0
M  V30 57892 N 5483.34 3.63997 2.86462 0
M  V30 57893 C 5484.07 4.57597 3.45533 0
M  V30 57894 N 5483.57 5.61527 4.05782 0
M  V30 57895 N 5485.36 4.45169 3.43192 0
M  V30 57896 H 5477.51 2.09489 0.350462 0
M  V30 57897 H 5479.78 0.922654 0.217746 0
M  V30 57898 H 5479.48 3.23833 1.37204 0
M  V30 57899 H 5479.36 2.40113 2.90905 0
M  V30 57900 H 5481.74 1.47407 2.55647 0
M  V30 57901 H 5481.82 2.34624 1.01908 0
M  V30 57902 H 5481.47 4.54254 2.2719 0
M  V30 57903 H 5481.4 3.63944 3.80595 0
M  V30 57904 H 5483.89 2.88849 2.43669 0
M  V30 57905 H 5484.2 6.29074 4.48872 0
M  V30 57906 H 5482.55 5.65339 4.04249 0
M  V30 57907 H 5485.74 3.63168 2.95341 0
M  V30 57908 H 5485.91 5.183 3.88934 0
M  V30 57909 N 5479.32 -1.11139 1.1174 0
M  V30 57910 C 5480.56 -1.83216 0.869478 0
M  V30 57911 C 5480.9 -1.8459 -0.603337 0
M  V30 57912 O 5480.17 -1.30124 -1.44561 0
M  V30 57913 C 5480.45 -3.30242 1.4357 0
M  V30 57914 C 5480.31 -3.37243 2.97636 0
M  V30 57915 C 5481.63 -4.26408 1.08922 0
M  V30 57916 H 5478.74 -0.665194 0.31731 0
M  V30 57917 H 5481.39 -1.30302 1.3828 0
M  V30 57918 H 5479.54 -3.75433 0.99911 0
M  V30 57919 H 5481.21 -3.00587 3.49922 0
M  V30 57920 H 5479.45 -2.77367 3.33542 0
M  V30 57921 H 5480.12 -4.4074 3.32344 0
M  V30 57922 H 5482.6 -3.89413 1.46618 0
M  V30 57923 H 5481.47 -5.27661 1.51213 0
M  V30 57924 H 5481.74 -4.421 0.000414429 0
M  V30 57925 N 5480.79 -0.908192 -1.28801 0
M  V30 57926 C 5482.04 -0.548704 -1.95859 0
M  V30 57927 C 5482.4 0.896729 -1.70225 0
M  V30 57928 O 5481.69 1.62846 -1.00954 0
M  V30 57929 C 5481.88 -0.78745 -3.48617 0
M  V30 57930 C 5481.71 -2.25454 -3.89102 0
M  V30 57931 C 5480.48 -2.9036 -4.13545 0
M  V30 57932 C 5482.68 -3.23048 -4.0018 0
M  V30 57933 N 5480.66 -4.27424 -4.40661 0
M  V30 57934 C 5482.03 -4.45257 -4.31446 0
M  V30 57935 C 5484.09 -3.18523 -3.82685 0
M  V30 57936 C 5482.79 -5.63514 -4.47039 0
M  V30 57937 C 5484.82 -4.36073 -3.99492 0
M  V30 57938 C 5484.18 -5.57055 -4.31126 0
M  V30 57939 H 5480.28 -0.250552 -0.740775 0
M  V30 57940 H 5482.86 -1.17077 -1.55567 0
M  V30 57941 H 5481.03 -0.194701 -3.87912 0
M  V30 57942 H 5482.76 -0.392548 -4.02792 0
M  V30 57943 H 5479.52 -2.41114 -4.07628 0
M  V30 57944 H 5479.94 -4.98275 -4.58313 0
M  V30 57945 H 5484.59 -2.2607 -3.57284 0
M  V30 57946 H 5482.3 -6.5645 -4.71273 0
M  V30 57947 H 5485.89 -4.34067 -3.87397 0
M  V30 57948 H 5484.77 -6.46498 -4.43858 0
M  V30 57949 N 5482.27 1.42575 -0.671575 0
M  V30 57950 C 5483.5 2.05923 -0.200803 0
M  V30 57951 C 5483.92 1.50438 1.14078 0
M  V30 57952 O 5483.27 0.642905 1.70801 0
M  V30 57953 C 5483.32 3.61289 -0.123632 0
M  V30 57954 O 5483.04 4.14715 -1.4122 0
M  V30 57955 C 5484.55 4.41745 0.371023 0
M  V30 57956 H 5481.77 0.663743 -0.0984191 0
M  V30 57957 H 5484.31 1.82768 -0.917402 0
M  V30 57958 H 5482.46 3.83567 0.543634 0
M  V30 57959 H 5482.88 5.08555 -1.28343 0
M  V30 57960 H 5484.35 5.50732 0.373934 0
M  V30 57961 H 5484.83 4.16097 1.40571 0
M  V30 57962 H 5485.44 4.24477 -0.264393 0
M  V30 57963 N 5483.75 0.414689 1.52046 0
M  V30 57964 C 5484.68 -0.399038 2.30065 0
M  V30 57965 C 5485.66 -1.04121 1.34509 0
M  V30 57966 O 5486.85 -1.04917 1.6342 0
M  V30 57967 C 5483.98 -1.51294 3.12614 0
M  V30 57968 C 5482.93 -0.995474 4.16262 0
M  V30 57969 C 5482.26 -2.2034 4.8719 0
M  V30 57970 C 5483.56 -0.0456342 5.2228 0
M  V30 57971 H 5485.25 0.251984 2.98338 0
M  V30 57972 H 5482.8 0.12263 1.43477 0
M  V30 57973 H 5484.75 -2.08923 3.65963 0
M  V30 57974 H 5483.47 -2.19192 2.4212 0
M  V30 57975 H 5482.13 -0.441548 3.63931 0
M  V30 57976 H 5481.78 -2.86806 4.13221 0
M  V30 57977 H 5481.48 -1.86365 5.57263 0
M  V30 57978 H 5483.01 -2.78565 5.43354 0
M  V30 57979 H 5484.42 -0.530901 5.70837 0
M  V30 57980 H 5482.82 0.20557 5.99748 0
M  V30 57981 H 5483.89 0.897974 4.76513 0
M  V30 57982 N 5485.23 -1.56929 0.145288 0
M  V30 57983 C 5486.16 -2.12452 -0.833032 0
M  V30 57984 C 5487.14 -1.04764 -1.24351 0
M  V30 57985 O 5488.32 -1.32584 -1.33992 0
M  V30 57986 C 5485.45 -2.64281 -2.11833 0
M  V30 57987 C 5484.5 -3.841 -1.8539 0
M  V30 57988 S 5485.33 -5.25176 -1.04645 0
M  V30 57989 C 5486.49 -5.80393 -2.34297 0
M  V30 57990 H 5486.72 -2.95102 -0.360865 0
M  V30 57991 H 5484.25 -1.54246 -0.0689644 0
M  V30 57992 H 5486.21 -2.94793 -2.85669 0
M  V30 57993 H 5484.87 -1.81765 -2.56165 0
M  V30 57994 H 5484.06 -4.18603 -2.80691 0
M  V30 57995 H 5483.67 -3.5434 -1.19663 0
M  V30 57996 H 5485.96 -5.9172 -3.2996 0
M  V30 57997 H 5486.9 -6.77987 -2.04301 0
M  V30 57998 H 5487.31 -5.08626 -2.44867 0
M  V30 57999 N 5486.71 0.128498 -1.57075 0
M  V30 58000 C 5487.66 1.17712 -2.00615 0
M  V30 58001 C 5488.65 1.43419 -0.90151 0
M  V30 58002 O 5489.86 1.43494 -1.08671 0
M  V30 58003 H 5486.23 0.39666 -0.638877 0
M  V30 58004 H 5488.2 0.783336 -2.87935 0
M  V30 58005 C 5486.95 2.49818 -2.41839 0
M  V30 58006 H 5486.27 2.30872 -3.26402 0
M  V30 58007 H 5487.71 3.21774 -2.76111 0
M  V30 58008 C 5486.17 3.11708 -1.27827 0
M  V30 58009 O 5486.7 3.97358 -0.589057 0
M  V30 58010 N 5484.91 2.71439 -1.03776 0
M  V30 58011 H 5484.46 2.01885 -1.60001 0
M  V30 58012 H 5484.41 3.13179 -0.276853 0
M  V30 58013 N 5488.19 1.52481 0.398405 0
M  V30 58014 C 5489.43 1.67313 1.14605 0
M  V30 58015 C 5489.76 0.407161 1.89884 0
M  V30 58016 O 5489.04 -0.594769 1.85183 0
M  V30 58017 C 5489.32 2.90212 2.13188 0
M  V30 58018 C 5489.18 4.26886 1.41735 0
M  V30 58019 C 5490.49 3.08645 3.1373 0
M  V30 58020 H 5487.61 0.608868 0.41527 0
M  V30 58021 H 5490.26 1.85058 0.430508 0
M  V30 58022 H 5488.41 2.75213 2.74208 0
M  V30 58023 H 5490.08 4.53633 0.837517 0
M  V30 58024 H 5488.32 4.27796 0.719237 0
M  V30 58025 H 5488.99 5.08947 2.13722 0
M  V30 58026 H 5491.47 3.22612 2.62794 0
M  V30 58027 H 5490.34 3.96131 3.79963 0
M  V30 58028 H 5490.6 2.22438 3.82065 0
M  V30 58029 N 5489.66 -0.656289 1.43285 0
M  V30 58030 C 5490.59 -1.78096 1.51011 0
M  V30 58031 C 5491.57 -1.66137 0.365038 0
M  V30 58032 O 5492.76 -1.85279 0.581844 0
M  V30 58033 C 5489.89 -3.16506 1.42973 0
M  V30 58034 C 5488.84 -3.43224 2.55697 0
M  V30 58035 C 5488.17 -4.81403 2.32713 0
M  V30 58036 C 5489.47 -3.38274 3.97955 0
M  V30 58037 H 5491.16 -1.71887 2.45143 0
M  V30 58038 H 5488.71 -0.825533 1.17987 0
M  V30 58039 H 5490.66 -3.94936 1.46982 0
M  V30 58040 H 5489.39 -3.23437 0.453433 0
M  V30 58041 H 5488.05 -2.67164 2.51036 0
M  V30 58042 H 5487.69 -4.85006 1.33334 0
M  V30 58043 H 5487.39 -5.00241 3.08275 0
M  V30 58044 H 5488.92 -5.62094 2.38501 0
M  V30 58045 H 5490.33 -4.06645 4.0412 0
M  V30 58046 H 5488.73 -3.68648 4.73517 0
M  V30 58047 H 5489.8 -2.36511 4.23309 0
M  V30 58048 N 5491.14 -1.29765 -0.894366 0
M  V30 58049 C 5492.37 -1.20946 -1.67868 0
M  V30 58050 C 5492.78 0.229127 -1.87405 0
M  V30 58051 O 5492.14 1.15273 -1.41486 0
M  V30 58052 C 5492.19 -1.92434 -3.06025 0
M  V30 58053 O 5491.91 -3.30675 -2.87377 0
M  V30 58054 C 5493.41 -1.90158 -4.00443 0
M  V30 58055 H 5490.63 -0.418961 -0.524131 0
M  V30 58056 H 5493.18 -1.71229 -1.11807 0
M  V30 58057 H 5491.33 -1.45973 -3.58846 0
M  V30 58058 H 5491.75 -3.66754 -3.74956 0
M  V30 58059 H 5493.22 -2.44733 -4.94782 0
M  V30 58060 H 5493.7 -0.878326 -4.30328 0
M  V30 58061 H 5494.3 -2.36387 -3.53555 0
M  V30 58062 N 5492.62 1.10545 -1.12328 0
M  V30 58063 C 5493.55 2.18908 -0.812493 0
M  V30 58064 C 5494.53 1.68629 0.223211 0
M  V30 58065 O 5495.72 1.94015 0.0846502 0
M  V30 58066 C 5492.85 3.46287 -0.265069 0
M  V30 58067 C 5491.8 4.09834 -1.2337 0
M  V30 58068 C 5491.13 5.31899 -0.546561 0
M  V30 58069 C 5492.43 4.53677 -2.58794 0
M  V30 58070 H 5494.12 2.45163 -1.71859 0
M  V30 58071 H 5491.67 1.17831 -0.827756 0
M  V30 58072 H 5493.62 4.21385 -0.0353846 0
M  V30 58073 H 5492.34 3.1952 0.676367 0
M  V30 58074 H 5491 3.36741 -1.44918 0
M  V30 58075 H 5490.65 5.01407 0.39998 0
M  V30 58076 H 5490.35 5.75368 -1.19269 0
M  V30 58077 H 5491.87 6.0973 -0.325887 0
M  V30 58078 H 5493.29 5.20054 -2.41281 0
M  V30 58079 H 5491.68 5.07992 -3.19475 0
M  V30 58080 H 5492.75 3.66654 -3.17322 0
M  V30 58081 N 5494.1 0.91501 1.28317 0
M  V30 58082 C 5495.34 0.54963 1.9521 0
M  V30 58083 C 5495.68 -0.904598 1.71845 0
M  V30 58084 O 5494.95 -1.64351 1.04015 0
M  V30 58085 C 5495.23 0.86105 3.49654 0
M  V30 58086 C 5495.09 2.3681 3.82415 0
M  V30 58087 C 5496.41 0.35808 4.38641 0
M  V30 58088 H 5493.53 0.201161 0.709016 0
M  V30 58089 H 5496.17 1.14448 1.51663 0
M  V30 58090 H 5494.32 0.354801 3.86876 0
M  V30 58091 H 5495.99 2.94507 3.55054 0
M  V30 58092 H 5494.23 2.82256 3.29414 0
M  V30 58093 H 5494.9 2.53654 4.90269 0
M  V30 58094 H 5497.38 0.79178 4.08497 0
M  V30 58095 H 5496.26 0.605046 5.45555 0
M  V30 58096 H 5496.52 -0.741622 4.35835 0
M  V30 58097 N 5495.58 -1.42217 0.679127 0
M  V30 58098 C 5496.81 -2.05515 0.211414 0
M  V30 58099 C 5497.21 -1.51134 -1.13821 0
M  V30 58100 O 5496.56 -0.647654 -1.71904 0
M  V30 58101 C 5496.62 -3.59424 0.0737271 0
M  V30 58102 C 5496.28 -4.3652 1.35275 0
M  V30 58103 C 5497.28 -4.66889 2.28714 0
M  V30 58104 C 5494.96 -4.76084 1.60155 0
M  V30 58105 C 5496.96 -5.35763 3.45307 0
M  V30 58106 C 5494.65 -5.44696 2.77036 0
M  V30 58107 C 5495.64 -5.74461 3.69436 0
M  V30 58108 O 5495.33 -6.41666 4.84273 0
M  V30 58109 H 5495.06 -0.668659 0.0993553 0
M  V30 58110 H 5497.62 -1.83267 0.927498 0
M  V30 58111 H 5495.85 -3.80349 -0.697977 0
M  V30 58112 H 5497.54 -4.04347 -0.35467 0
M  V30 58113 H 5498.3 -4.3682 2.10744 0
M  V30 58114 H 5494.18 -4.52307 0.891046 0
M  V30 58115 H 5497.73 -5.58912 4.17448 0
M  V30 58116 H 5493.62 -5.74183 2.9493 0
M  V30 58117 H 5494.39 -6.60158 4.83873 0
M  V30 58118 N 5497.05 -0.422747 -1.51824 0
M  V30 58119 C 5498 0.396008 -2.27377 0
M  V30 58120 C 5498.97 1.02942 -1.30354 0
M  V30 58121 O 5500.16 1.0511 -1.59237 0
M  V30 58122 C 5497.3 1.49931 -3.10829 0
M  V30 58123 C 5496.41 0.885474 -4.22828 0
M  V30 58124 C 5495.54 1.9626 -4.93615 0
M  V30 58125 C 5494.58 1.32643 -5.97555 0
M  V30 58126 N 5493.72 2.34429 -6.61806 0
M  V30 58127 H 5498.56 -0.254676 -2.9691 0
M  V30 58128 H 5496.1 -0.137435 -1.46457 0
M  V30 58129 H 5498.05 2.1501 -3.57528 0
M  V30 58130 H 5496.68 2.11983 -2.4344 0
M  V30 58131 H 5495.74 0.123357 -3.802 0
M  V30 58132 H 5497.05 0.380882 -4.97344 0
M  V30 58133 H 5496.2 2.69036 -5.43787 0
M  V30 58134 H 5494.94 2.50089 -4.18697 0
M  V30 58135 H 5493.95 0.58407 -5.46689 0
M  V30 58136 H 5495.17 0.795663 -6.74423 0
M  V30 58137 H 5493.12 2.87364 -5.8971 0
M  V30 58138 H 5493.03 1.8882 -7.3204 0
M  V30 58139 H 5494.3 3.06732 -7.16614 0
M  V30 58140 N 5498.53 1.5685 -0.153609 0
M  V30 58141 C 5499.78 1.96626 0.496581 0
M  V30 58142 C 5500.11 1.03882 1.6408 0
M  V30 58143 O 5499.39 0.0824795 1.94325 0
M  V30 58144 C 5499.67 3.46038 0.996464 0
M  V30 58145 C 5499.52 4.49561 -0.146709 0
M  V30 58146 C 5500.84 3.9811 1.87606 0
M  V30 58147 H 5497.96 0.714924 0.179034 0
M  V30 58148 H 5500.6 1.88526 -0.23617 0
M  V30 58149 H 5498.75 3.53072 1.62088 0
M  V30 58150 H 5500.42 4.54602 -0.783267 0
M  V30 58151 H 5498.67 4.26268 -0.804877 0
M  V30 58152 H 5499.34 5.51457 0.244884 0
M  V30 58153 H 5501.81 3.93597 1.34983 0
M  V30 58154 H 5500.69 5.03106 2.1949 0
M  V30 58155 H 5500.95 3.40862 2.81542 0
M  V30 58156 N 5500.01 -0.120166 1.57141 0
M  V30 58157 C 5501.24 -0.841153 1.88701 0
M  V30 58158 C 5501.65 -1.74008 0.742831 0
M  V30 58159 O 5500.99 -1.81309 -0.295433 0
M  V30 58160 C 5501.05 -1.7277 3.15263 0
M  V30 58161 C 5500.72 -1.0032 4.45853 0
M  V30 58162 C 5501.71 -0.344552 5.18757 0
M  V30 58163 C 5499.4 -0.984726 4.92553 0
M  V30 58164 C 5501.39 0.322887 6.36582 0
M  V30 58165 C 5499.08 -0.313487 6.10295 0
M  V30 58166 C 5500.08 0.339166 6.82157 0
M  V30 58167 O 5499.77 0.999697 7.9766 0
M  V30 58168 H 5499.5 -0.247173 0.629191 0
M  V30 58169 H 5502.05 -0.10947 2.05108 0
M  V30 58170 H 5500.28 -2.501 2.94935 0
M  V30 58171 H 5501.97 -2.32301 3.32853 0
M  V30 58172 H 5502.74 -0.350453 4.83732 0
M  V30 58173 H 5498.62 -1.48215 4.36524 0
M  V30 58174 H 5502.16 0.832887 6.9261 0
M  V30 58175 H 5498.06 -0.305345 6.44777 0
M  V30 58176 H 5498.83 0.904056 8.13492 0
M  V30 58177 N 5501.49 -1.5269 -0.390313 0
M  V30 58178 C 5502.72 -1.71296 -1.15504 0
M  V30 58179 C 5503.13 -0.43047 -1.84238 0
M  V30 58180 O 5502.47 0.604762 -1.7346 0
M  V30 58181 C 5502.53 -2.80605 -2.24725 0
M  V30 58182 C 5502.2 -4.21763 -1.75969 0
M  V30 58183 C 5503.19 -5.04966 -1.23715 0
M  V30 58184 C 5500.88 -4.68078 -1.82232 0
M  V30 58185 C 5502.87 -6.32564 -0.783703 0
M  V30 58186 C 5500.56 -5.95661 -1.36498 0
M  V30 58187 C 5501.56 -6.77733 -0.846548 0
M  V30 58188 O 5501.24 -8.02925 -0.395881 0
M  V30 58189 H 5500.98 -0.576919 -0.352336 0
M  V30 58190 H 5503.53 -2.00118 -0.462794 0
M  V30 58191 H 5501.76 -2.47201 -2.9737 0
M  V30 58192 H 5503.45 -2.87626 -2.86402 0
M  V30 58193 H 5504.22 -4.70367 -1.18235 0
M  V30 58194 H 5500.09 -4.04286 -2.21527 0
M  V30 58195 H 5503.64 -6.96573 -0.378367 0
M  V30 58196 H 5499.54 -6.29763 -1.41664 0
M  V30 58197 H 5500.3 -8.16863 -0.517479 0
M  V30 58198 N 5502.97 0.648681 -1.43631 0
M  V30 58199 C 5504.21 1.40574 -1.45201 0
M  V30 58200 C 5504.54 1.94839 -0.0791241 0
M  V30 58201 O 5503.81 1.7471 0.886178 0
M  V30 58202 H 5502.39 0.521731 -0.534608 0
M  V30 58203 H 5505.05 0.764733 -1.7927 0
M  V30 58204 H 5504.14 2.24583 -2.16723 0
M  V30 58205 N 5504.44 1.30237 0.887472 0
M  V30 58206 C 5505.39 1.16309 2.01432 0
M  V30 58207 C 5506.39 0.0756017 1.69231 0
M  V30 58208 O 5507.59 0.236275 1.78443 0
M  V30 58209 H 5503.97 0.359633 0.66043 0
M  V30 58210 H 5505.94 2.11684 2.10315 0
M  V30 58211 C 5504.69 0.869128 3.36662 0
M  V30 58212 H 5504.01 1.698 3.6195 0
M  V30 58213 H 5505.45 0.811768 4.16157 0
M  V30 58214 C 5503.91 -0.427904 3.34172 0
M  V30 58215 O 5504.44 -1.4502 3.74609 0
M  V30 58216 N 5502.65 -0.438163 2.87278 0
M  V30 58217 H 5502.19 0.394231 2.54565 0
M  V30 58218 H 5502.15 -1.30594 2.85994 0
M  V30 58219 N 5505.92 -1.09948 1.12913 0
M  V30 58220 C 5506.89 -2.14612 0.804624 0
M  V30 58221 C 5507.89 -1.59751 -0.183394 0
M  V30 58222 O 5509.08 -1.74147 0.0430235 0
M  V30 58223 C 5506.21 -3.40333 0.196591 0
M  V30 58224 H 5507.4 -2.44829 1.73201 0
M  V30 58225 H 5504.95 -1.25396 0.933041 0
M  V30 58226 H 5505.69 -3.15738 -0.740277 0
M  V30 58227 H 5505.47 -3.81441 0.90802 0
M  V30 58228 H 5506.96 -4.17598 -0.0137796 0
M  V30 58229 N 5507.4 -0.921802 -1.2783 0
M  V30 58230 C 5508.33 -0.433546 -2.2944 0
M  V30 58231 C 5509.31 0.503075 -1.6249 0
M  V30 58232 O 5510.5 0.409089 -1.89842 0
M  V30 58233 C 5507.63 0.319907 -3.45823 0
M  V30 58234 C 5506.58 -0.528327 -4.24727 0
M  V30 58235 C 5505.91 0.353944 -5.33527 0
M  V30 58236 C 5507.21 -1.78976 -4.90678 0
M  V30 58237 H 5508.9 -1.28273 -2.7053 0
M  V30 58238 H 5506.45 -0.618243 -1.30053 0
M  V30 58239 H 5508.4 0.672379 -4.16001 0
M  V30 58240 H 5507.12 1.20306 -3.03635 0
M  V30 58241 H 5505.78 -0.863427 -3.56287 0
M  V30 58242 H 5505.43 1.23588 -4.87581 0
M  V30 58243 H 5505.13 -0.210061 -5.87224 0
M  V30 58244 H 5506.65 0.70212 -6.0655 0
M  V30 58245 H 5508.07 -1.50571 -5.53174 0
M  V30 58246 H 5506.47 -2.2968 -5.54407 0
M  V30 58247 H 5507.54 -2.5128 -4.14712 0
M  V30 58248 N 5508.88 1.41855 -0.686659 0
M  V30 58249 C 5510.16 1.95082 -0.142296 0
M  V30 58250 C 5510.54 1.6265 1.34566 0
M  V30 58251 O 5509.88 0.92883 2.0877 0
M  V30 58252 C 5510.09 3.46414 -0.424077 0
M  V30 58253 C 5511.44 4.2318 -0.34699 0
M  V30 58254 O 5512.47 3.54391 -0.358488 0
M  V30 58255 O 5511.32 5.45679 -0.299403 0
M  V30 58256 H 5508.42 0.826942 -0.00976907 0
M  V30 58257 H 5510.96 1.5162 -0.762206 0
M  V30 58258 H 5509.74 3.63268 -1.45437 0
M  V30 58259 H 5509.36 3.9695 0.227252 0
M  V30 58260 N 5510.36 0.430792 1.51598 0
M  V30 58261 C 5511.29 -0.419647 2.25326 0
M  V30 58262 C 5512.3 -0.99188 1.29095 0
M  V30 58263 O 5513.49 -0.887134 1.54894 0
M  V30 58264 C 5510.59 -1.59833 2.98842 0
M  V30 58265 C 5509.76 -1.14614 4.22116 0
M  V30 58266 C 5508.82 -2.1942 4.78269 0
M  V30 58267 O 5507.85 -1.79122 5.40281 0
M  V30 58268 N 5509.05 -3.51833 4.61729 0
M  V30 58269 H 5511.82 0.212217 2.98948 0
M  V30 58270 H 5509.38 0.259325 1.5981 0
M  V30 58271 H 5511.37 -2.29555 3.33296 0
M  V30 58272 H 5509.94 -2.13567 2.28271 0
M  V30 58273 H 5509.16 -0.276229 3.93231 0
M  V30 58274 H 5510.45 -0.821312 5.02127 0
M  V30 58275 H 5509.84 -3.8731 4.1232 0
M  V30 58276 H 5508.4 -4.17469 5.00563 0
M  V30 58277 N 5511.83 -1.56766 0.161924 0
M  V30 58278 C 5512.8 -2.16302 -0.758028 0
M  V30 58279 C 5513.8 -1.10863 -1.16474 0
M  V30 58280 O 5514.99 -1.36425 -1.08322 0
M  V30 58281 C 5512.12 -2.73826 -2.03057 0
M  V30 58282 H 5513.31 -2.98939 -0.239887 0
M  V30 58283 H 5510.87 -1.56054 -0.0875984 0
M  V30 58284 H 5511.6 -1.94897 -2.59202 0
M  V30 58285 H 5511.39 -3.5098 -1.74801 0
M  V30 58286 H 5512.88 -3.19647 -2.6873 0
M  V30 58287 N 5513.31 0.11183 -1.57203 0
M  V30 58288 C 5514.56 0.816957 -1.84414 0
M  V30 58289 C 5514.88 1.80705 -0.748672 0
M  V30 58290 O 5516.08 2.55887 -0.907409 0
M  V30 58291 C 5514.54 1.50365 -3.26984 0
M  V30 58292 C 5514.15 0.554178 -4.44559 0
M  V30 58293 C 5515.89 2.19349 -3.63437 0
M  V30 58294 C 5513.8 1.2445 -5.78158 0
M  V30 58295 H 5512.73 0.30884 -0.687847 0
M  V30 58296 H 5515.38 0.0697464 -1.83367 0
M  V30 58297 H 5513.76 2.29773 -3.22522 0
M  V30 58298 H 5514.93 -0.207207 -4.60334 0
M  V30 58299 H 5513.25 -0.0290724 -4.1639 0
M  V30 58300 H 5515.85 2.717 -4.60525 0
M  V30 58301 H 5516.19 2.97478 -2.91226 0
M  V30 58302 H 5516.72 1.4682 -3.69715 0
M  V30 58303 H 5513.46 0.504355 -6.53557 0
M  V30 58304 H 5512.98 1.97772 -5.66256 0
M  V30 58305 H 5514.66 1.77569 -6.22156 0
M  V30 58306 N 5514.79 1.52895 0.38221 0
M  V30 58307 C 5516.02 1.72457 1.1521 0
M  V30 58308 C 5516.44 0.444989 1.82761 0
M  V30 58309 O 5515.8 -0.599765 1.71092 0
M  V30 58310 C 5515.85 2.87947 2.17069 0
M  V30 58311 O 5514.95 2.55394 3.23802 0
M  V30 58312 H 5514.29 0.573252 0.335079 0
M  V30 58313 H 5516.82 1.99715 0.444425 0
M  V30 58314 H 5516.83 3.13637 2.60952 0
M  V30 58315 H 5515.51 3.80771 1.67291 0
M  V30 58316 H 5514.08 2.40467 2.85009 0
M  V30 58317 N 5516.27 -0.641055 1.43973 0
M  V30 58318 C 5517.2 -1.76594 1.44533 0
M  V30 58319 C 5518.18 -1.59708 0.305313 0
M  V30 58320 O 5519.36 -1.81726 0.500774 0
M  V30 58321 C 5516.49 -3.14048 1.26854 0
M  V30 58322 C 5515.54 -3.49607 2.4429 0
M  V30 58323 S 5516.37 -3.48206 4.06833 0
M  V30 58324 C 5517.53 -4.88296 3.91558 0
M  V30 58325 H 5517.76 -1.7585 2.39717 0
M  V30 58326 H 5515.29 -0.814788 1.31151 0
M  V30 58327 H 5517.25 -3.93372 1.1734 0
M  V30 58328 H 5515.91 -3.12341 0.331982 0
M  V30 58329 H 5515.1 -4.49603 2.27756 0
M  V30 58330 H 5514.71 -2.77723 2.50492 0
M  V30 58331 H 5517 -5.7727 3.54635 0
M  V30 58332 H 5517.94 -5.09883 4.9135 0
M  V30 58333 H 5518.35 -4.62403 3.23796 0
M  V30 58334 N 5517.75 -1.30706 -0.880552 0
M  V30 58335 C 5518.99 -1.20971 -1.63516 0
M  V30 58336 C 5519.35 0.232337 -1.90992 0
M  V30 58337 O 5518.64 1.16267 -1.52291 0
M  V30 58338 C 5518.84 -1.97638 -2.97782 0
M  V30 58339 C 5518.66 -3.49151 -2.83414 0
M  V30 58340 C 5517.43 -4.18506 -2.83162 0
M  V30 58341 C 5519.63 -4.443 -2.59041 0
M  V30 58342 N 5517.61 -5.56248 -2.59733 0
M  V30 58343 C 5518.99 -5.69636 -2.44775 0
M  V30 58344 C 5521.04 -4.33845 -2.44301 0
M  V30 58345 C 5519.74 -6.85702 -2.17269 0
M  V30 58346 C 5521.77 -5.49683 -2.18181 0
M  V30 58347 C 5521.13 -6.74002 -2.04695 0
M  V30 58348 H 5517.23 -0.49774 -0.603141 0
M  V30 58349 H 5519.81 -1.64769 -1.03727 0
M  V30 58350 H 5517.99 -1.56225 -3.55596 0
M  V30 58351 H 5519.72 -1.80009 -3.62462 0
M  V30 58352 H 5516.47 -3.70379 -2.95155 0
M  V30 58353 H 5516.9 -6.28744 -2.51018 0
M  V30 58354 H 5521.54 -3.38405 -2.53459 0
M  V30 58355 H 5519.26 -7.81178 -2.06848 0
M  V30 58356 H 5522.84 -5.43505 -2.07591 0
M  V30 58357 H 5521.72 -7.62122 -1.84768 0
M  V30 58358 N 5519.23 1.09347 -1.13494 0
M  V30 58359 C 5520.19 2.14183 -0.815994 0
M  V30 58360 C 5521.19 1.59846 0.174919 0
M  V30 58361 O 5522.38 1.74122 -0.0522583 0
M  V30 58362 C 5519.51 3.40224 -0.214637 0
M  V30 58363 H 5520.7 2.43907 -1.74497 0
M  V30 58364 H 5518.26 1.24899 -0.939678 0
M  V30 58365 H 5518.99 3.16126 0.723523 0
M  V30 58366 H 5518.78 3.80954 -0.928236 0
M  V30 58367 H 5520.27 4.17599 -0.0083668 0
M  V30 58368 N 5520.7 0.928568 1.2734 0
M  V30 58369 C 5521.63 0.445708 2.29207 0
M  V30 58370 C 5522.61 -0.494451 1.62755 0
M  V30 58371 O 5523.8 -0.399016 1.90057 0
M  V30 58372 C 5520.93 -0.301563 3.45988 0
M  V30 58373 C 5519.88 0.550844 4.2444 0
M  V30 58374 C 5519.21 -0.325645 5.33707 0
M  V30 58375 C 5520.51 1.81576 4.89722 0
M  V30 58376 H 5522.2 1.29705 2.69846 0
M  V30 58377 H 5519.75 0.625131 1.29723 0
M  V30 58378 H 5521.7 -0.650308 4.16352 0
M  V30 58379 H 5520.43 -1.18694 3.04268 0
M  V30 58380 H 5519.09 0.88231 3.55824 0
M  V30 58381 H 5518.73 -1.21 4.88229 0
M  V30 58382 H 5518.43 0.2412 5.87105 0
M  V30 58383 H 5519.96 -0.669943 6.06914 0
M  V30 58384 H 5521.37 1.53503 5.52367 0
M  V30 58385 H 5519.77 2.32617 5.53181 0
M  V30 58386 H 5520.84 2.53476 4.13374 0
M  V30 58387 N 5522.18 -1.41489 0.694172 0
M  V30 58388 C 5523.43 -2.00478 0.221656 0
M  V30 58389 C 5523.74 -1.55609 -1.18512 0
M  V30 58390 O 5524.95 -2.07149 -1.75503 0
M  V30 58391 C 5523.41 -3.58239 0.34539 0
M  V30 58392 C 5523.01 -4.1209 1.75744 0
M  V30 58393 C 5524.76 -4.24446 -0.0674239 0
M  V30 58394 C 5522.66 -5.6228 1.83291 0
M  V30 58395 H 5521.59 -0.749838 0.0791117 0
M  V30 58396 H 5524.25 -1.61984 0.862167 0
M  V30 58397 H 5522.63 -3.9433 -0.363348 0
M  V30 58398 H 5523.8 -3.87421 2.49483 0
M  V30 58399 H 5522.12 -3.58403 2.11981 0
M  V30 58400 H 5524.71 -5.34691 -0.0314605 0
M  V30 58401 H 5525.06 -4.01342 -1.10592 0
M  V30 58402 H 5525.59 -3.93386 0.590988 0
M  V30 58403 H 5522.33 -5.9021 2.85188 0
M  V30 58404 H 5521.85 -5.88879 1.13935 0
M  V30 58405 H 5523.53 -6.27028 1.59516 0
M  V30 58406 N 5523.66 -0.438826 -1.51367 0
M  V30 58407 C 5524.91 0.128653 -2.01289 0
M  V30 58408 C 5525.22 1.43655 -1.32751 0
M  V30 58409 O 5526.43 2.08706 -1.7365 0
M  V30 58410 C 5524.88 0.279818 -3.58811 0
M  V30 58411 C 5524.49 -1.01773 -4.36287 0
M  V30 58412 C 5526.24 0.800987 -4.16875 0
M  V30 58413 C 5524.14 -0.832124 -5.85517 0
M  V30 58414 H 5523.07 0.051855 -0.752215 0
M  V30 58415 H 5525.72 -0.568814 -1.74461 0
M  V30 58416 H 5524.11 1.04032 -3.82091 0
M  V30 58417 H 5525.28 -1.78668 -4.24752 0
M  V30 58418 H 5523.59 -1.46754 -3.89682 0
M  V30 58419 H 5526.19 0.956364 -5.26078 0
M  V30 58420 H 5526.53 1.78383 -3.76145 0
M  V30 58421 H 5527.07 0.0987535 -3.97677 0
M  V30 58422 H 5523.81 -1.78739 -6.30661 0
M  V30 58423 H 5523.33 -0.102996 -5.99712 0
M  V30 58424 H 5525.01 -0.485908 -6.45173 0
M  V30 58425 N 5525.14 1.56678 -0.170236 0
M  V30 58426 C 5526.36 2.01662 0.484472 0
M  V30 58427 C 5526.79 1.04968 1.56088 0
M  V30 58428 O 5526.15 0.0290524 1.81277 0
M  V30 58429 C 5526.19 3.45256 1.04072 0
M  V30 58430 O 5525.3 3.5163 2.15476 0
M  V30 58431 H 5524.64 0.653769 0.116112 0
M  V30 58432 H 5527.17 2.0276 -0.273808 0
M  V30 58433 H 5527.18 3.84539 1.36359 0
M  V30 58434 H 5525.85 4.15132 0.252592 0
M  V30 58435 H 5524.43 3.24206 1.84241 0
M  V30 58436 N 5526.62 -0.103492 1.5726 0
M  V30 58437 C 5527.86 -0.809709 1.85934 0
M  V30 58438 C 5528.19 -1.78788 0.758184 0
M  V30 58439 O 5527.47 -1.9308 -0.234614 0
M  V30 58440 C 5527.75 -1.5459 3.25229 0
M  V30 58441 C 5527.61 -0.586282 4.45963 0
M  V30 58442 C 5528.92 -2.49847 3.62305 0
M  V30 58443 H 5526.04 -0.292906 0.676295 0
M  V30 58444 H 5528.69 -0.0735398 1.89858 0
M  V30 58445 H 5526.84 -2.17344 3.22015 0
M  V30 58446 H 5528.51 0.0336062 4.61288 0
M  V30 58447 H 5526.75 0.101002 4.33682 0
M  V30 58448 H 5527.42 -1.13836 5.40135 0
M  V30 58449 H 5529.9 -1.9719 3.66409 0
M  V30 58450 H 5528.77 -2.9838 4.60718 0
M  V30 58451 H 5529.03 -3.33223 2.90543 0
M  V30 58452 N 5528.09 -1.53096 -0.374097 0
M  V30 58453 C 5529.32 -1.72762 -1.13846 0
M  V30 58454 C 5529.74 -0.452702 -1.83292 0
M  V30 58455 O 5529.09 0.573845 -1.73243 0
M  V30 58456 C 5529.15 -2.88731 -2.17523 0
M  V30 58457 O 5528.87 -4.11289 -1.50906 0
M  V30 58458 C 5530.37 -3.202 -3.06572 0
M  V30 58459 H 5527.59 -0.57804 -0.340751 0
M  V30 58460 H 5530.13 -1.99807 -0.435613 0
M  V30 58461 H 5528.29 -2.64106 -2.8342 0
M  V30 58462 H 5528.7 -4.7617 -2.19915 0
M  V30 58463 H 5530.17 -4.04772 -3.75318 0
M  V30 58464 H 5530.65 -2.35206 -3.70911 0
M  V30 58465 H 5531.26 -3.4672 -2.46303 0
M  V30 58466 N 5529.57 0.633411 -1.44311 0
M  V30 58467 C 5530.8 1.42521 -1.50673 0
M  V30 58468 C 5531.22 1.87637 -0.131927 0
M  V30 58469 O 5530.58 1.58598 0.878421 0
M  V30 58470 C 5530.63 2.62319 -2.47429 0
M  V30 58471 O 5529.73 3.62074 -1.97423 0
M  V30 58472 H 5529.07 0.426542 -0.508879 0
M  V30 58473 H 5531.6 0.773326 -1.89422 0
M  V30 58474 H 5531.61 3.09891 -2.65389 0
M  V30 58475 H 5530.29 2.28828 -3.47291 0
M  V30 58476 H 5528.87 3.21326 -1.89219 0
M  V30 58477 N 5531.05 1.31171 0.873608 0
M  V30 58478 C 5532 1.18439 2.00187 0
M  V30 58479 C 5532.99 0.0935467 1.69142 0
M  V30 58480 O 5534.2 0.255188 1.78182 0
M  V30 58481 H 5530.57 0.366617 0.656579 0
M  V30 58482 H 5532.54 2.13903 2.08058 0
M  V30 58483 C 5531.29 0.904786 3.35721 0
M  V30 58484 H 5530.62 1.73629 3.60129 0
M  V30 58485 H 5532.06 0.855861 4.15272 0
M  V30 58486 C 5530.52 -0.392436 3.34607 0
M  V30 58487 O 5531.05 -1.41038 3.76126 0
M  V30 58488 N 5529.25 -0.407669 2.87726 0
M  V30 58489 H 5528.8 0.421209 2.54133 0
M  V30 58490 H 5528.76 -1.27554 2.87363 0
M  V30 58491 N 5532.53 -1.08744 1.14072 0
M  V30 58492 C 5533.76 -1.84542 0.928854 0
M  V30 58493 C 5534.17 -1.81743 -0.525943 0
M  V30 58494 O 5533.51 -1.21695 -1.37609 0
M  V30 58495 C 5533.57 -3.33278 1.34783 0
M  V30 58496 C 5533.24 -3.59816 2.81747 0
M  V30 58497 C 5534.23 -3.5495 3.79877 0
M  V30 58498 C 5531.92 -3.87938 3.19076 0
M  V30 58499 C 5533.91 -3.77829 5.13346 0
M  V30 58500 C 5531.6 -4.10471 4.52722 0
M  V30 58501 C 5532.6 -4.05409 5.49666 0
M  V30 58502 O 5532.28 -4.27354 6.80899 0
M  V30 58503 H 5532.02 -0.589544 0.330779 0
M  V30 58504 H 5534.57 -1.38269 1.5189 0
M  V30 58505 H 5532.8 -3.80292 0.701082 0
M  V30 58506 H 5534.49 -3.90504 1.10731 0
M  V30 58507 H 5535.26 -3.33243 3.52383 0
M  V30 58508 H 5531.13 -3.90999 2.44215 0
M  V30 58509 H 5534.68 -3.73794 5.89002 0
M  V30 58510 H 5530.58 -4.3166 4.79937 0
M  V30 58511 H 5531.34 -4.44778 6.87106 0
M  V30 58512 N 5534.01 -0.935308 -1.26845 0
M  V30 58513 C 5535.23 -0.595773 -1.98659 0
M  V30 58514 C 5535.66 0.820941 -1.6924 0
M  V30 58515 O 5535.01 1.55207 -0.937037 0
M  V30 58516 C 5535.06 -0.837398 -3.50742 0
M  V30 58517 O 5534.17 0.0933464 -4.12294 0
M  V30 58518 H 5533.51 -0.228534 -0.623433 0
M  V30 58519 H 5536.04 -1.25664 -1.61461 0
M  V30 58520 H 5536.05 -0.755968 -4.00935 0
M  V30 58521 H 5534.72 -1.87006 -3.71486 0
M  V30 58522 H 5533.3 -0.0386435 -3.7288 0
M  V30 58523 N 5535.48 1.41118 -0.701666 0
M  V30 58524 C 5536.73 2.00732 -0.234753 0
M  V30 58525 C 5537.05 1.55874 1.17168 0
M  V30 58526 O 5536.32 0.792028 1.79175 0
M  V30 58527 H 5534.9 0.742285 -0.0838006 0
M  V30 58528 H 5537.57 1.72657 -0.904188 0
M  V30 58529 H 5536.66 3.11041 -0.25694 0
M  V30 58530 N 5536.96 0.446847 1.51133 0
M  V30 58531 C 5538.21 -0.116595 2.02465 0
M  V30 58532 C 5538.54 -1.41527 1.3298 0
M  V30 58533 O 5537.82 -1.89277 0.447718 0
M  V30 58534 C 5538.1 -0.325533 3.58626 0
M  V30 58535 C 5537.95 0.992462 4.38714 0
M  V30 58536 C 5539.27 -1.09106 4.26361 0
M  V30 58537 H 5536.39 -0.0409003 0.735864 0
M  V30 58538 H 5539.03 0.587704 1.80682 0
M  V30 58539 H 5537.18 -0.925453 3.77316 0
M  V30 58540 H 5538.85 1.62709 4.31652 0
M  V30 58541 H 5537.1 1.59485 4.03419 0
M  V30 58542 H 5537.77 0.800197 5.46169 0
M  V30 58543 H 5540.24 -0.582799 4.11998 0
M  V30 58544 H 5539.12 -1.20603 5.35487 0
M  V30 58545 H 5539.38 -2.12157 3.87868 0
M  V30 58546 N 5538.44 -1.56585 0.178542 0
M  V30 58547 C 5539.69 -1.97391 -0.465236 0
M  V30 58548 C 5540.02 -1.0648 -1.62406 0
M  V30 58549 O 5539.29 -0.113385 -1.94169 0
M  V30 58550 C 5539.58 -3.4758 -0.941286 0
M  V30 58551 C 5539.43 -4.4927 0.218212 0
M  V30 58552 C 5540.75 -4.01045 -1.81249 0
M  V30 58553 H 5537.87 -0.717681 -0.167638 0
M  V30 58554 H 5540.51 -1.88127 0.266133 0
M  V30 58555 H 5538.66 -3.55606 -1.5645 0
M  V30 58556 H 5540.33 -4.53298 0.855491 0
M  V30 58557 H 5538.58 -4.24933 0.87259 0
M  V30 58558 H 5539.25 -5.51776 -0.157121 0
M  V30 58559 H 5541.72 -3.95695 -1.28704 0
M  V30 58560 H 5540.6 -5.06534 -2.11458 0
M  V30 58561 H 5540.86 -3.45298 -2.76083 0
M  V30 58562 N 5539.92 0.0951507 -1.57313 0
M  V30 58563 C 5541.15 0.812203 -1.90292 0
M  V30 58564 C 5541.56 1.72284 -0.772238 0
M  V30 58565 O 5540.92 1.80699 0.255778 0
M  V30 58566 C 5540.97 1.62561 -3.22887 0
M  V30 58567 O 5540.69 0.751598 -4.31605 0
M  V30 58568 C 5542.19 2.44572 -3.69729 0
M  V30 58569 H 5539.41 0.232233 -0.62953 0
M  V30 58570 H 5541.96 0.0724015 -2.04372 0
M  V30 58571 H 5540.11 2.31792 -3.10405 0
M  V30 58572 H 5540.52 1.31496 -5.07749 0
M  V30 58573 H 5542 2.97138 -4.65202 0
M  V30 58574 H 5542.48 3.23034 -2.97567 0
M  V30 58575 H 5543.08 1.80541 -3.85078 0
M  V30 58576 N 5541.4 1.53292 0.365972 0
M  V30 58577 C 5542.62 1.73363 1.12928 0
M  V30 58578 C 5543.04 0.462416 1.8305 0
M  V30 58579 O 5542.4 -0.56465 1.73545 0
M  V30 58580 C 5542.45 2.89881 2.15989 0
M  V30 58581 O 5542.17 4.12084 1.48723 0
M  V30 58582 C 5543.67 3.21822 3.0487 0
M  V30 58583 H 5540.89 0.579839 0.337681 0
M  V30 58584 H 5543.43 2.00035 0.425011 0
M  V30 58585 H 5541.59 2.65605 2.82015 0
M  V30 58586 H 5542 4.77329 2.17387 0
M  V30 58587 H 5543.48 4.06757 3.73166 0
M  V30 58588 H 5543.95 2.37169 3.69658 0
M  V30 58589 H 5544.56 3.48022 2.44461 0
M  V30 58590 N 5542.88 -0.625749 1.44645 0
M  V30 58591 C 5544.12 -1.38725 1.4793 0
M  V30 58592 C 5544.45 -1.93868 0.113537 0
M  V30 58593 O 5543.73 -1.73979 -0.869578 0
M  V30 58594 C 5544.01 -2.54858 2.544 0
M  V30 58595 C 5543.87 -2.0503 4.00353 0
M  V30 58596 C 5545.18 -3.57034 2.57322 0
M  V30 58597 H 5542.3 -0.503068 0.538602 0
M  V30 58598 H 5544.95 -0.70704 1.76355 0
M  V30 58599 H 5543.1 -3.12886 2.30292 0
M  V30 58600 H 5544.77 -1.51791 4.35611 0
M  V30 58601 H 5543.01 -1.3617 4.11874 0
M  V30 58602 H 5543.68 -2.88664 4.70507 0
M  V30 58603 H 5546.16 -3.08816 2.78876 0
M  V30 58604 H 5545.03 -4.35806 3.33713 0
M  V30 58605 H 5545.29 -4.11459 1.61722 0
M  V30 58606 N 5544.35 -1.31632 -0.86664 0
M  V30 58607 C 5545.29 -1.13893 -1.97746 0
M  V30 58608 C 5546.26 -0.0415459 -1.62547 0
M  V30 58609 O 5547.45 -0.1986 -1.87451 0
M  V30 58610 C 5544.58 -0.740974 -3.30495 0
M  V30 58611 C 5543.62 -1.84188 -3.84678 0
M  V30 58612 S 5544.45 -3.44796 -4.09727 0
M  V30 58613 C 5545.61 -3.06944 -5.45469 0
M  V30 58614 H 5545.84 -2.07931 -2.1249 0
M  V30 58615 H 5543.38 -1.16156 -1.01721 0
M  V30 58616 H 5545.33 -0.518118 -4.07217 0
M  V30 58617 H 5544 0.180339 -3.13582 0
M  V30 58618 H 5543.19 -1.51614 -4.80655 0
M  V30 58619 H 5542.79 -2.01997 -3.14759 0
M  V30 58620 H 5545.08 -2.56044 -6.27254 0
M  V30 58621 H 5546.03 -4.01898 -5.82996 0
M  V30 58622 H 5546.43 -2.44294 -5.08902 0
M  V30 58623 N 5545.83 1.08138 -1.14647 0
M  V30 58624 C 5547.08 1.80578 -0.916391 0
M  V30 58625 C 5547.41 1.86357 0.556904 0
M  V30 58626 O 5546.66 1.33741 1.4287 0
M  V30 58627 C 5546.96 3.25956 -1.46585 0
M  V30 58628 C 5546.63 3.40291 -2.95826 0
M  V30 58629 C 5545.29 3.43911 -3.36569 0
M  V30 58630 C 5547.64 3.43744 -3.91777 0
M  V30 58631 C 5544.97 3.48577 -4.71922 0
M  V30 58632 C 5547.32 3.49947 -5.26992 0
M  V30 58633 C 5545.98 3.5184 -5.67243 0
M  V30 58634 H 5545.25 0.660783 -0.335331 0
M  V30 58635 H 5547.9 1.27304 -1.4306 0
M  V30 58636 H 5546.21 3.81958 -0.872641 0
M  V30 58637 H 5547.9 3.80566 -1.26373 0
M  V30 58638 H 5544.49 3.38167 -2.63327 0
M  V30 58639 H 5548.68 3.40176 -3.61378 0
M  V30 58640 H 5543.93 3.48337 -5.02465 0
M  V30 58641 H 5548.11 3.51564 -6.01145 0
M  V30 58642 H 5545.73 3.55209 -6.72109 0
M  V30 58643 N 5547.31 0.942022 1.26348 0
M  V30 58644 C 5548.24 0.469993 2.28721 0
M  V30 58645 C 5549.22 -0.477161 1.6327 0
M  V30 58646 O 5550.41 -0.378835 1.90469 0
M  V30 58647 C 5547.54 -0.264849 3.46289 0
M  V30 58648 C 5546.49 0.595831 4.23832 0
M  V30 58649 C 5545.82 -0.26902 5.34023 0
M  V30 58650 C 5547.12 1.8676 4.87768 0
M  V30 58651 H 5548.81 1.3256 2.68455 0
M  V30 58652 H 5546.36 0.638855 1.29053 0
M  V30 58653 H 5548.31 -0.606112 4.17018 0
M  V30 58654 H 5547.03 -1.1546 3.0551 0
M  V30 58655 H 5545.69 0.92 3.54868 0
M  V30 58656 H 5545.34 -1.15815 4.89485 0
M  V30 58657 H 5545.04 0.303457 5.86816 0
M  V30 58658 H 5546.56 -0.605534 6.0759 0
M  V30 58659 H 5547.98 1.59353 5.50708 0
M  V30 58660 H 5546.37 2.38471 5.50683 0
M  V30 58661 H 5547.44 2.57846 4.10662 0
M  V30 58662 N 5548.79 -1.40744 0.70914 0
M  V30 58663 C 5549.75 -2.29118 0.0612412 0
M  V30 58664 C 5550.75 -1.45051 -0.69403 0
M  V30 58665 O 5551.94 -1.66041 -0.526893 0
M  V30 58666 C 5549.07 -3.28158 -0.923332 0
M  V30 58667 H 5550.27 -2.8791 0.839515 0
M  V30 58668 H 5547.82 -1.48958 0.473416 0
M  V30 58669 H 5548.55 -2.74372 -1.72889 0
M  V30 58670 H 5548.34 -3.90208 -0.384725 0
M  V30 58671 H 5549.83 -3.94348 -1.37403 0
M  V30 58672 N 5550.27 -0.454856 -1.50893 0
M  V30 58673 C 5551.68 -0.108093 -1.59234 0
M  V30 58674 C 5551.88 1.38411 -1.4644 0
M  V30 58675 O 5550.94 2.15582 -1.31456 0
M  V30 58676 C 5552.25 -0.643824 -2.93727 0
M  V30 58677 C 5553.8 -0.605811 -3.07081 0
M  V30 58678 C 5554.27 -1.11881 -4.44125 0
M  V30 58679 N 5555.76 -1.07753 -4.50492 0
M  V30 58680 C 5556.5 -1.44515 -5.5489 0
M  V30 58681 N 5556 -1.88647 -6.66621 0
M  V30 58682 N 5557.79 -1.3622 -5.45344 0
M  V30 58683 H 5549.94 -1.42555 -1.57454 0
M  V30 58684 H 5552.2 -0.588531 -0.743193 0
M  V30 58685 H 5551.91 -1.68854 -3.08514 0
M  V30 58686 H 5551.78 -0.078373 -3.77119 0
M  V30 58687 H 5554.17 0.429962 -2.91951 0
M  V30 58688 H 5554.25 -1.20787 -2.25486 0
M  V30 58689 H 5553.89 -2.15314 -4.60003 0
M  V30 58690 H 5553.82 -0.493117 -5.24286 0
M  V30 58691 H 5556.32 -0.753657 -3.70309 0
M  V30 58692 H 5556.63 -2.14889 -7.42323 0
M  V30 58693 H 5554.97 -1.92587 -6.67784 0
M  V30 58694 H 5558.16 -1.01595 -4.56942 0
M  V30 58695 H 5558.34 -1.65197 -6.26589 0
M  V30 58696 N 5551.74 1.56489 -0.186844 0
M  V30 58697 C 5552.99 1.96953 0.453192 0
M  V30 58698 C 5553.31 1.07456 1.62721 0
M  V30 58699 O 5552.58 0.144114 1.95369 0
M  V30 58700 H 5551.16 0.727301 0.170419 0
M  V30 58701 H 5553.82 1.92998 -0.271652 0
M  V30 58702 H 5552.92 3.01597 0.802845 0
M  V30 58703 N 5553.22 -0.0868067 1.57361 0
M  V30 58704 C 5554.47 -0.787515 1.85691 0
M  V30 58705 C 5554.78 -1.79491 0.777326 0
M  V30 58706 O 5555.99 -2.54411 0.948004 0
M  V30 58707 C 5554.45 -1.45144 3.29335 0
M  V30 58708 C 5554.05 -0.483382 4.45385 0
M  V30 58709 C 5555.8 -2.13539 3.66881 0
M  V30 58710 C 5553.7 -1.15236 5.80064 0
M  V30 58711 H 5552.63 -0.297858 0.692674 0
M  V30 58712 H 5555.29 -0.0405654 1.83455 0
M  V30 58713 H 5553.67 -2.24613 3.26136 0
M  V30 58714 H 5554.84 0.280416 4.59946 0
M  V30 58715 H 5553.16 0.0953128 4.16291 0
M  V30 58716 H 5555.75 -2.64339 4.64789 0
M  V30 58717 H 5556.1 -2.92807 2.95922 0
M  V30 58718 H 5556.63 -1.40919 3.72003 0
M  V30 58719 H 5553.37 -0.400316 6.54276 0
M  V30 58720 H 5552.89 -1.88739 5.69331 0
M  V30 58721 H 5554.57 -1.67649 6.24902 0
M  V30 58722 N 5554.7 -1.53484 -0.357838 0
M  V30 58723 C 5555.95 -1.70293 -1.10128 0
M  V30 58724 C 5556.28 -0.457362 -1.88737 0
M  V30 58725 O 5555.55 0.545462 -1.86695 0
M  V30 58726 C 5555.84 -2.95762 -2.05419 0
M  V30 58727 C 5555.69 -4.30493 -1.30367 0
M  V30 58728 C 5557.01 -3.16854 -3.05436 0
M  V30 58729 H 5554.13 -0.619664 -0.398981 0
M  V30 58730 H 5556.77 -1.86135 -0.381292 0
M  V30 58731 H 5554.92 -2.82387 -2.66815 0
M  V30 58732 H 5556.59 -4.55695 -0.71695 0
M  V30 58733 H 5554.83 -4.29553 -0.605561 0
M  V30 58734 H 5555.51 -5.14434 -2.00153 0
M  V30 58735 H 5557.98 -3.29466 -2.54148 0
M  V30 58736 H 5556.86 -4.06066 -3.69326 0
M  V30 58737 H 5557.12 -2.3249 -3.76033 0
M  V30 58738 N 5556.18 0.618069 -1.44975 0
M  V30 58739 C 5557.42 1.37735 -1.48443 0
M  V30 58740 C 5557.75 1.94117 -0.122067 0
M  V30 58741 O 5557.01 1.74903 0.877912 0
M  V30 58742 C 5557.31 2.55134 -2.50283 0
M  V30 58743 C 5556.97 2.16962 -3.9527 0
M  V30 58744 C 5555.63 2.06265 -4.34751 0
M  V30 58745 C 5557.99 1.87013 -4.86493 0
M  V30 58746 C 5555.31 1.63826 -5.63363 0
M  V30 58747 C 5557.67 1.46063 -6.15507 0
M  V30 58748 C 5556.33 1.33917 -6.53928 0
M  V30 58749 H 5555.6 0.504007 -0.543193 0
M  V30 58750 H 5558.25 0.699622 -1.78263 0
M  V30 58751 H 5556.55 3.28197 -2.13994 0
M  V30 58752 H 5558.25 3.13364 -2.50208 0
M  V30 58753 H 5554.84 2.2621 -3.64042 0
M  V30 58754 H 5559.02 1.9418 -4.56736 0
M  V30 58755 H 5554.28 1.53037 -5.91937 0
M  V30 58756 H 5558.45 1.21932 -6.85643 0
M  V30 58757 H 5556.08 1.00805 -7.53487 0
M  V30 58758 N 5557.66 1.3209 0.859647 0
M  V30 58759 C 5558.59 1.14941 1.97139 0
M  V30 58760 C 5559.57 0.0501656 1.62523 0
M  V30 58761 O 5560.75 0.208538 1.87343 0
M  V30 58762 C 5557.88 0.758491 3.30098 0
M  V30 58763 C 5556.92 1.86226 3.83696 0
M  V30 58764 S 5557.76 3.46964 4.07893 0
M  V30 58765 C 5558.91 3.09833 5.43833 0
M  V30 58766 H 5559.15 2.09055 2.11384 0
M  V30 58767 H 5556.68 1.16694 1.01104 0
M  V30 58768 H 5558.64 0.539706 4.06937 0
M  V30 58769 H 5557.3 -0.163707 3.13673 0
M  V30 58770 H 5556.49 1.54161 4.79844 0
M  V30 58771 H 5556.09 2.03663 3.13683 0
M  V30 58772 H 5558.39 2.59367 6.25887 0
M  V30 58773 H 5559.33 4.04984 5.80856 0
M  V30 58774 H 5559.74 2.46989 5.07599 0
M  V30 58775 N 5559.13 -1.07528 1.15219 0
M  V30 58776 C 5560.37 -1.81686 0.93646 0
M  V30 58777 C 5560.74 -1.84624 -0.527071 0
M  V30 58778 O 5561.94 -2.54635 -0.86107 0
M  V30 58779 C 5560.21 -3.22913 1.53172 0
M  V30 58780 S 5561.77 -4.1384 1.45885 0
M  V30 58781 H 5558.59 -0.626024 0.337067 0
M  V30 58782 H 5561.19 -1.29186 1.46735 0
M  V30 58783 H 5559.89 -3.18363 2.58985 0
M  V30 58784 H 5559.42 -3.80488 0.999615 0
M  V30 58785 H 5561.44 -4.94151 0.450491 0
M  V30 58786 N 5560.61 -0.948709 -1.25846 0
M  V30 58787 C 5561.86 -0.601193 -1.93684 0
M  V30 58788 C 5562.19 0.858718 -1.74183 0
M  V30 58789 O 5561.47 1.61535 -1.08336 0
M  V30 58790 C 5561.75 -0.953452 -3.47248 0
M  V30 58791 C 5561.6 -2.46866 -3.76002 0
M  V30 58792 C 5562.92 -0.474252 -4.37537 0
M  V30 58793 H 5560.04 -0.219888 -0.703433 0
M  V30 58794 H 5562.68 -1.18429 -1.48575 0
M  V30 58795 H 5560.83 -0.45725 -3.858 0
M  V30 58796 H 5562.5 -3.03817 -3.47121 0
M  V30 58797 H 5560.75 -2.90891 -3.21815 0
M  V30 58798 H 5561.42 -2.66564 -4.83371 0
M  V30 58799 H 5563.89 -0.899807 -4.06254 0
M  V30 58800 H 5562.77 -0.749478 -5.43759 0
M  V30 58801 H 5563.03 0.625807 -4.37648 0
M  V30 58802 N 5562.09 1.40366 -0.716594 0
M  V30 58803 C 5563 2.34508 -0.0657404 0
M  V30 58804 C 5564.02 1.57355 0.742668 0
M  V30 58805 O 5565.19 1.89738 0.67539 0
M  V30 58806 C 5562.26 3.36265 0.844218 0
M  V30 58807 C 5561.32 4.29292 0.0256462 0
M  V30 58808 C 5560.55 5.26188 0.892267 0
M  V30 58809 O 5560.77 5.29079 2.13147 0
M  V30 58810 O 5559.71 6.00991 0.330722 0
M  V30 58811 H 5563.53 2.91786 -0.842286 0
M  V30 58812 H 5561.12 1.41578 -0.477084 0
M  V30 58813 H 5563 3.98666 1.36541 0
M  V30 58814 H 5561.68 2.81398 1.59989 0
M  V30 58815 H 5560.58 3.70173 -0.540642 0
M  V30 58816 H 5561.92 4.87314 -0.691831 0
M  V30 58817 N 5563.57 0.462852 1.5065 0
M  V30 58818 C 5564.8 -0.0927687 2.06392 0
M  V30 58819 C 5565.21 -1.34787 1.32775 0
M  V30 58820 O 5564.55 -1.79553 0.388111 0
M  V30 58821 C 5564.61 -0.455045 3.56608 0
M  V30 58822 C 5564.28 0.696857 4.51656 0
M  V30 58823 C 5565.27 1.5765 4.95421 0
M  V30 58824 C 5562.96 0.884843 4.94445 0
M  V30 58825 C 5564.95 2.62861 5.80674 0
M  V30 58826 C 5562.64 1.94019 5.79482 0
M  V30 58827 C 5563.64 2.81044 6.22498 0
M  V30 58828 O 5563.32 3.84763 7.05842 0
M  V30 58829 H 5563.06 5.56545e-05 0.676 0
M  V30 58830 H 5565.61 0.64823 1.94903 0
M  V30 58831 H 5563.84 -1.24911 3.6597 0
M  V30 58832 H 5565.53 -0.944785 3.94751 0
M  V30 58833 H 5566.3 1.44292 4.63039 0
M  V30 58834 H 5562.17 0.216969 4.60489 0
M  V30 58835 H 5565.72 3.30819 6.1417 0
M  V30 58836 H 5561.62 2.07387 6.11278 0
M  V30 58837 H 5562.38 3.81651 7.24075 0
M  V30 58838 N 5565.05 -1.56387 0.19514 0
M  V30 58839 C 5566.29 -1.9948 -0.445785 0
M  V30 58840 C 5566.65 -1.07925 -1.58796 0
M  V30 58841 O 5567.85 -1.40254 -2.29308 0
M  V30 58842 C 5566.12 -3.46035 -0.894127 0
M  V30 58843 S 5567.68 -4.11155 -1.53288 0
M  V30 58844 H 5564.5 -0.696563 -0.142551 0
M  V30 58845 H 5567.1 -1.93212 0.298217 0
M  V30 58846 H 5565.81 -4.10366 -0.0527815 0
M  V30 58847 H 5565.34 -3.5612 -1.67159 0
M  V30 58848 H 5567.35 -4.08165 -2.82163 0
M  V30 58849 N 5566.52 0.0784603 -1.57405 0
M  V30 58850 C 5567.94 0.631071 -1.75711 0
M  V30 58851 C 5568.29 1.78258 -0.819668 0
M  V30 58852 O 5567.41 2.164 -0.00214519 0
M  V30 58853 C 5568.01 1.15156 -3.18629 0
M  V30 58854 C 5566.57 1.65009 -3.38303 0
M  V30 58855 C 5565.71 0.566677 -2.71448 0
M  V30 58856 H 5568.66 -0.147686 -1.58011 0
M  V30 58857 H 5568.68 2.02053 -3.2242 0
M  V30 58858 H 5568.2 0.313263 -3.86834 0
M  V30 58859 H 5566.3 2.51186 -2.75202 0
M  V30 58860 H 5566.41 1.73163 -4.46712 0
M  V30 58861 H 5564.77 1.01013 -2.33813 0
M  V30 58862 H 5565.56 -0.261324 -3.42304 0
M  V30 58863 N 5568 1.53671 0.349693 0
M  V30 58864 C 5569.25 1.69839 1.08801 0
M  V30 58865 C 5569.56 0.465037 1.89991 0
M  V30 58866 O 5570.77 0.507546 2.66714 0
M  V30 58867 C 5569.23 3.00301 1.98361 0
M  V30 58868 C 5568.83 4.30953 1.22407 0
M  V30 58869 C 5570.58 3.25835 2.72088 0
M  V30 58870 C 5568.49 5.52494 2.10961 0
M  V30 58871 H 5567.42 0.632854 0.409892 0
M  V30 58872 H 5570.07 1.80172 0.347905 0
M  V30 58873 H 5568.45 2.8381 2.76166 0
M  V30 58874 H 5569.62 4.58128 0.495546 0
M  V30 58875 H 5567.94 4.11985 0.604751 0
M  V30 58876 H 5570.53 4.13828 3.386 0
M  V30 58877 H 5570.88 2.42578 3.38322 0
M  V30 58878 H 5571.41 3.43074 2.01358 0
M  V30 58879 H 5568.15 6.38276 1.49279 0
M  V30 58880 H 5567.67 5.29576 2.81619 0
M  V30 58881 H 5569.35 5.87899 2.70156 0
M  V30 58882 N 5569.48 -0.610372 1.453 0
M  V30 58883 C 5570.73 -1.36945 1.49172 0
M  V30 58884 C 5571.06 -1.94049 0.13236 0
M  V30 58885 O 5570.31 -1.75367 -0.868624 0
M  V30 58886 C 5570.61 -2.53803 2.51632 0
M  V30 58887 C 5570.28 -2.14863 3.96415 0
M  V30 58888 C 5568.94 -2.03957 4.35838 0
M  V30 58889 C 5571.29 -1.84431 4.87478 0
M  V30 58890 C 5568.62 -1.60836 5.64224 0
M  V30 58891 C 5570.97 -1.42797 6.16273 0
M  V30 58892 C 5569.63 -1.30447 6.54629 0
M  V30 58893 H 5568.9 -0.501119 0.545858 0
M  V30 58894 H 5571.55 -0.690158 1.78631 0
M  V30 58895 H 5569.86 -3.27058 2.15732 0
M  V30 58896 H 5571.55 -3.12032 2.51867 0
M  V30 58897 H 5568.14 -2.24277 3.65237 0
M  V30 58898 H 5572.33 -1.91755 4.57759 0
M  V30 58899 H 5567.58 -1.49895 5.92741 0
M  V30 58900 H 5571.76 -1.18294 6.86279 0
M  V30 58901 H 5569.38 -0.968082 7.54011 0
M  V30 58902 N 5570.96 -1.32544 -0.85263 0
M  V30 58903 C 5572.21 -1.2322 -1.60696 0
M  V30 58904 C 5572.53 0.205474 -1.93412 0
M  V30 58905 O 5571.79 1.15902 -1.57687 0
M  V30 58906 C 5572.09 -2.0391 -2.93522 0
M  V30 58907 C 5571.75 -3.53247 -2.80227 0
M  V30 58908 C 5570.42 -3.93963 -2.76309 0
M  V30 58909 C 5572.77 -4.48203 -2.66014 0
M  V30 58910 C 5570.1 -5.27874 -2.56058 0
M  V30 58911 C 5572.45 -5.82259 -2.47299 0
M  V30 58912 C 5571.11 -6.22175 -2.41774 0
M  V30 58913 H 5570.38 -0.450893 -0.588027 0
M  V30 58914 H 5573.03 -1.63991 -0.988897 0
M  V30 58915 H 5571.33 -1.55873 -3.59459 0
M  V30 58916 H 5573.03 -1.94063 -3.50914 0
M  V30 58917 H 5569.62 -3.2091 -2.84103 0
M  V30 58918 H 5573.8 -4.17665 -2.68085 0
M  V30 58919 H 5569.06 -5.57854 -2.50218 0
M  V30 58920 H 5573.23 -6.55451 -2.35282 0
M  V30 58921 H 5570.86 -7.25878 -2.25842 0
M  V30 58922 N 5572.44 1.06915 -1.15788 0
M  V30 58923 C 5573.69 1.7898 -0.930007 0
M  V30 58924 C 5574 1.87886 0.543903 0
M  V30 58925 O 5575.21 2.56516 0.889488 0
M  V30 58926 C 5573.66 3.21651 -1.61457 0
M  V30 58927 C 5573.27 3.20932 -3.12581 0
M  V30 58928 C 5575.01 3.98293 -1.46842 0
M  V30 58929 C 5572.92 4.58284 -3.73804 0
M  V30 58930 H 5571.85 0.670797 -0.344308 0
M  V30 58931 H 5574.5 1.1997 -1.3885 0
M  V30 58932 H 5572.88 3.80881 -1.08377 0
M  V30 58933 H 5574.06 2.71321 -3.72453 0
M  V30 58934 H 5572.37 2.57788 -3.27008 0
M  V30 58935 H 5574.97 4.99816 -1.8997 0
M  V30 58936 H 5575.31 4.14211 -0.416504 0
M  V30 58937 H 5575.85 3.4557 -1.97043 0
M  V30 58938 H 5572.58 4.47571 -4.78916 0
M  V30 58939 H 5572.1 5.08115 -3.18716 0
M  V30 58940 H 5573.78 5.27249 -3.7499 0
M  V30 58941 N 5573.92 0.95537 1.25341 0
M  V30 58942 C 5575.14 0.627762 1.97147 0
M  V30 58943 C 5575.56 -0.800289 1.70999 0
M  V30 58944 O 5574.92 -1.53542 0.986471 0
M  V30 58945 C 5574.97 0.877798 3.50681 0
M  V30 58946 O 5574.69 2.2497 3.75926 0
M  V30 58947 C 5576.19 0.562679 4.39714 0
M  V30 58948 H 5573.41 0.235291 0.628394 0
M  V30 58949 H 5575.95 1.27995 1.59492 0
M  V30 58950 H 5574.11 0.272013 3.86444 0
M  V30 58951 H 5574.52 2.32039 4.70381 0
M  V30 58952 H 5576 0.788164 5.46344 0
M  V30 58953 H 5576.47 -0.502777 4.36313 0
M  V30 58954 H 5577.08 1.14782 4.09518 0
M  V30 58955 N 5575.39 -1.39984 0.724028 0
M  V30 58956 C 5576.64 -2.00333 0.266658 0
M  V30 58957 C 5576.96 -1.57718 -1.14674 0
M  V30 58958 O 5576.23 -0.820433 -1.77892 0
M  V30 58959 H 5574.81 -0.740857 0.0955991 0
M  V30 58960 H 5577.47 -1.71197 0.931541 0
M  V30 58961 H 5576.57 -3.10592 0.306391 0
M  V30 58962 N 5576.87 -0.470835 -1.50402 0
M  V30 58963 C 5577.82 0.337503 -2.30138 0
M  V30 58964 C 5578.81 0.990625 -1.37415 0
M  V30 58965 O 5580.02 0.921759 -1.54608 0
M  V30 58966 H 5576.39 0.12768 -0.741081 0
M  V30 58967 H 5578.37 -0.355401 -2.96276 0
M  V30 58968 C 5577.11 1.40703 -3.17959 0
M  V30 58969 H 5576.44 0.913846 -3.89216 0
M  V30 58970 H 5577.88 1.9452 -3.76747 0
M  V30 58971 C 5576.34 2.40881 -2.35537 0
M  V30 58972 O 5576.87 3.46146 -2.03828 0
M  V30 58973 N 5575.07 2.12593 -1.98123 0
M  V30 58974 H 5574.62 1.27015 -2.24109 0
M  V30 58975 H 5574.58 2.79855 -1.43279 0
M  V30 58976 N 5578.35 1.56282 -0.203431 0
M  V30 58977 C 5579.58 2.022 0.438501 0
M  V30 58978 C 5579.99 1.08349 1.54616 0
M  V30 58979 O 5579.35 0.0898235 1.82279 0
M  V30 58980 C 5579.4 3.47763 0.987062 0
M  V30 58981 O 5579.12 4.38033 -0.0764092 0
M  V30 58982 C 5580.62 4.0924 1.70405 0
M  V30 58983 H 5577.84 0.662045 0.109259 0
M  V30 58984 H 5580.39 2.02066 -0.31458 0
M  V30 58985 H 5578.54 3.4857 1.69049 0
M  V30 58986 H 5578.96 5.23441 0.333138 0
M  V30 58987 H 5580.43 5.12918 2.04009 0
M  V30 58988 H 5580.91 3.53181 2.61074 0
M  V30 58989 H 5581.51 4.1223 1.04627 0
M  V30 58990 N 5579.83 -0.0701116 1.57444 0
M  V30 58991 C 5580.76 -1.08343 2.06843 0
M  V30 58992 C 5581.74 -1.40265 0.962273 0
M  V30 58993 O 5582.92 -1.49863 1.2351 0
M  V30 58994 C 5580.05 -2.3964 2.51376 0
M  V30 58995 C 5579.01 -2.22067 3.65883 0
M  V30 58996 C 5578.33 -3.58762 3.96477 0
M  V30 58997 C 5579.63 -1.64051 4.95867 0
M  V30 58998 H 5581.33 -0.672363 2.91753 0
M  V30 58999 H 5578.87 -0.321977 1.40354 0
M  V30 59000 H 5580.83 -3.10823 2.84548 0
M  V30 59001 H 5579.55 -2.8273 1.63497 0
M  V30 59002 H 5578.21 -1.53325 3.32997 0
M  V30 59003 H 5577.86 -3.99425 3.05726 0
M  V30 59004 H 5577.56 -3.47842 4.73582 0
M  V30 59005 H 5579.08 -4.31372 4.32146 0
M  V30 59006 H 5580.5 -2.25101 5.27259 0
M  V30 59007 H 5578.89 -1.63822 5.77306 0
M  V30 59008 H 5579.96 -0.602151 4.81147 0
M  V30 59009 N 5581.31 -1.53855 -0.341539 0
M  V30 59010 C 5582.24 -1.783 -1.44021 0
M  V30 59011 C 5583.25 -0.664356 -1.48628 0
M  V30 59012 O 5584.44 -0.941126 -1.51674 0
M  V30 59013 C 5581.54 -1.86957 -2.82666 0
M  V30 59014 C 5580.71 -3.16909 -3.01475 0
M  V30 59015 C 5579.77 -3.16498 -4.20375 0
M  V30 59016 O 5578.8 -3.90212 -4.14395 0
M  V30 59017 N 5580 -2.39009 -5.29013 0
M  V30 59018 H 5582.76 -2.73107 -1.23421 0
M  V30 59019 H 5580.33 -1.5293 -0.531429 0
M  V30 59020 H 5582.32 -1.84131 -3.60386 0
M  V30 59021 H 5580.89 -0.993273 -2.964 0
M  V30 59022 H 5580.11 -3.32843 -2.11209 0
M  V30 59023 H 5581.4 -4.02744 -3.10926 0
M  V30 59024 H 5580.79 -1.78676 -5.36742 0
M  V30 59025 H 5579.35 -2.41978 -6.05219 0
M  V30 59026 N 5582.78 0.602658 -1.45622 0
M  V30 59027 C 5584.02 1.37279 -1.5144 0
M  V30 59028 C 5584.39 1.9138 -0.154216 0
M  V30 59029 O 5585.59 2.68659 -0.0870954 0
M  V30 59030 C 5583.86 2.48642 -2.56733 0
M  V30 59031 S 5585.42 3.36345 -2.81812 0
M  V30 59032 H 5582.24 0.467961 -0.535288 0
M  V30 59033 H 5584.84 0.694893 -1.82733 0
M  V30 59034 H 5583.54 2.07255 -3.54223 0
M  V30 59035 H 5583.07 3.21226 -2.27106 0
M  V30 59036 H 5585.09 4.4693 -2.15565 0
M  V30 59037 N 5584.26 1.32995 0.845589 0
M  V30 59038 C 5585.51 1.23421 1.59531 0
M  V30 59039 C 5585.82 -0.20021 1.94573 0
M  V30 59040 O 5587.03 -0.417898 2.68265 0
M  V30 59041 C 5585.49 2.16217 2.87712 0
M  V30 59042 C 5585.09 3.64791 2.6006 0
M  V30 59043 C 5586.84 2.15501 3.65732 0
M  V30 59044 C 5584.74 4.49522 3.84297 0
M  V30 59045 H 5583.67 0.458387 0.598663 0
M  V30 59046 H 5586.33 1.58015 0.932925 0
M  V30 59047 H 5584.71 1.74547 3.55456 0
M  V30 59048 H 5585.88 4.14859 2.0057 0
M  V30 59049 H 5584.2 3.6773 1.95356 0
M  V30 59050 H 5586.79 2.76038 4.57938 0
M  V30 59051 H 5587.14 1.14832 4.00149 0
M  V30 59052 H 5587.67 2.55497 3.04903 0
M  V30 59053 H 5584.41 5.51039 3.55015 0
M  V30 59054 H 5583.93 4.042 4.4315 0
M  V30 59055 H 5585.61 4.62985 4.51945 0
M  V30 59056 N 5585.74 -1.063 1.16353 0
M  V30 59057 C 5586.67 -2.13206 0.813535 0
M  V30 59058 C 5587.65 -1.61175 -0.214783 0
M  V30 59059 O 5588.83 -1.8824 -0.0988796 0
M  V30 59060 C 5585.96 -3.38038 0.211617 0
M  V30 59061 C 5585.01 -4.08871 1.21354 0
M  V30 59062 S 5585.84 -4.58884 2.76018 0
M  V30 59063 C 5587 -5.86977 2.17275 0
M  V30 59064 H 5587.23 -2.42566 1.71899 0
M  V30 59065 H 5584.76 -1.18734 0.986999 0
M  V30 59066 H 5586.72 -4.10297 -0.129205 0
M  V30 59067 H 5585.38 -3.06836 -0.671598 0
M  V30 59068 H 5584.57 -4.98526 0.740806 0
M  V30 59069 H 5584.18 -3.42626 1.49944 0
M  V30 59070 H 5586.47 -6.59733 1.54138 0
M  V30 59071 H 5587.41 -6.3898 3.05139 0
M  V30 59072 H 5587.82 -5.41006 1.6116 0
M  V30 59073 N 5587.22 -0.962004 -1.24833 0
M  V30 59074 C 5588.15 -0.506321 -2.27944 0
M  V30 59075 C 5589.13 0.451126 -1.64009 0
M  V30 59076 O 5590.31 0.348485 -1.91048 0
M  V30 59077 C 5587.44 0.209724 -3.46666 0
M  V30 59078 C 5586.4 -0.663183 -4.22831 0
M  V30 59079 C 5585.72 0.184028 -5.34383 0
M  V30 59080 C 5587.02 -1.94496 -4.84736 0
M  V30 59081 H 5588.72 -1.36814 -2.66312 0
M  V30 59082 H 5586.26 -0.659305 -1.2802 0
M  V30 59083 H 5588.22 0.539691 -4.1793 0
M  V30 59084 H 5586.94 1.10585 -3.07308 0
M  V30 59085 H 5585.6 -0.97634 -3.5336 0
M  V30 59086 H 5585.25 1.08013 -4.91266 0
M  V30 59087 H 5584.95 -0.396776 -5.86259 0
M  V30 59088 H 5586.47 0.508795 -6.08476 0
M  V30 59089 H 5587.89 -1.68094 -5.48103 0
M  V30 59090 H 5586.28 -2.47202 -5.46819 0
M  V30 59091 H 5587.35 -2.64347 -4.06508 0
M  V30 59092 N 5588.7 1.39598 -0.731441 0
M  V30 59093 C 5589.94 2.00882 -0.278238 0
M  V30 59094 C 5590.28 1.57901 1.13053 0
M  V30 59095 O 5589.55 0.806265 1.77002 0
M  V30 59096 C 5589.83 3.58131 -0.376095 0
M  V30 59097 C 5589.69 4.1114 -1.82438 0
M  V30 59098 C 5591.01 4.39426 0.243548 0
M  V30 59099 H 5588.12 0.729827 -0.102575 0
M  V30 59100 H 5590.77 1.65856 -0.926927 0
M  V30 59101 H 5588.92 3.881 0.176192 0
M  V30 59102 H 5590.59 3.91905 -2.43327 0
M  V30 59103 H 5588.83 3.64834 -2.34688 0
M  V30 59104 H 5589.5 5.20284 -1.84414 0
M  V30 59105 H 5591.98 4.15479 -0.227213 0
M  V30 59106 H 5590.85 5.48709 0.144714 0
M  V30 59107 H 5591.12 4.21647 1.32915 0
M  V30 59108 N 5590.17 0.478804 1.50151 0
M  V30 59109 C 5591.4 -0.0708729 2.06478 0
M  V30 59110 C 5591.81 -1.33371 1.34197 0
M  V30 59111 O 5591.16 -1.79132 0.407133 0
M  V30 59112 C 5591.22 -0.417196 3.57071 0
M  V30 59113 C 5590.88 0.744722 4.50891 0
M  V30 59114 C 5591.88 1.62896 4.93721 0
M  V30 59115 C 5589.56 0.937236 4.93479 0
M  V30 59116 C 5591.56 2.69005 5.77854 0
M  V30 59117 C 5589.24 2.00154 5.77392 0
M  V30 59118 C 5590.24 2.87631 6.19482 0
M  V30 59119 O 5589.93 3.92227 7.01721 0
M  V30 59120 H 5589.66 0.00722554 0.675961 0
M  V30 59121 H 5592.22 0.668865 1.94204 0
M  V30 59122 H 5590.45 -1.21023 3.67274 0
M  V30 59123 H 5592.14 -0.902863 3.95731 0
M  V30 59124 H 5592.9 1.49195 4.61482 0
M  V30 59125 H 5588.78 0.265798 4.60233 0
M  V30 59126 H 5592.32 3.37314 6.10627 0
M  V30 59127 H 5588.22 2.13859 6.09044 0
M  V30 59128 H 5588.99 3.89309 7.19986 0
M  V30 59129 N 5591.65 -1.56171 0.211716 0
M  V30 59130 C 5592.89 -1.99941 -0.424602 0
M  V30 59131 C 5593.26 -1.09603 -1.57642 0
M  V30 59132 O 5594.46 -1.42678 -2.27808 0
M  V30 59133 C 5592.73 -3.46964 -0.857375 0
M  V30 59134 S 5594.29 -4.12757 -1.48919 0
M  V30 59135 H 5591.11 -0.698036 -0.135155 0
M  V30 59136 H 5593.71 -1.92885 0.318693 0
M  V30 59137 H 5592.41 -4.10399 -0.00925372 0
M  V30 59138 H 5591.94 -3.57873 -1.63373 0
M  V30 59139 H 5593.96 -4.11134 -2.77818 0
M  V30 59140 N 5593.13 0.061761 -1.57479 0
M  V30 59141 C 5594.38 0.759003 -1.87738 0
M  V30 59142 C 5594.71 1.77069 -0.804794 0
M  V30 59143 O 5593.96 1.94695 0.198104 0
M  V30 59144 C 5594.26 1.49379 -3.24686 0
M  V30 59145 C 5593.93 0.621155 -4.46601 0
M  V30 59146 C 5592.59 0.380705 -4.79692 0
M  V30 59147 C 5594.94 0.0166705 -5.21197 0
M  V30 59148 C 5592.27 -0.473547 -5.84786 0
M  V30 59149 C 5594.62 -0.825093 -6.27196 0
M  V30 59150 C 5593.28 -1.07532 -6.58782 0
M  V30 59151 H 5592.55 0.277739 -0.68698 0
M  V30 59152 H 5595.2 0.0195298 -1.9149 0
M  V30 59153 H 5593.51 2.30573 -3.1677 0
M  V30 59154 H 5595.2 2.03824 -3.45335 0
M  V30 59155 H 5591.79 0.8187 -4.20708 0
M  V30 59156 H 5595.98 0.189533 -4.95938 0
M  V30 59157 H 5591.23 -0.676055 -6.07651 0
M  V30 59158 H 5595.41 -1.30018 -6.84155 0
M  V30 59159 H 5593.03 -1.73902 -7.40042 0
M  V30 59160 N 5594.61 1.54034 0.333374 0
M  V30 59161 C 5595.54 1.85724 1.41523 0
M  V30 59162 C 5596.52 0.713198 1.54426 0
M  V30 59163 O 5597.7 0.966044 1.68467 0
M  V30 59164 C 5594.83 2.07588 2.78432 0
M  V30 59165 C 5593.79 3.23421 2.80327 0
M  V30 59166 C 5593.11 3.30637 4.20218 0
M  V30 59167 C 5594.41 4.61298 2.44951 0
M  V30 59168 H 5596.11 2.76329 1.15251 0
M  V30 59169 H 5593.65 1.32959 0.552983 0
M  V30 59170 H 5595.61 2.28342 3.54172 0
M  V30 59171 H 5594.33 1.13723 3.06161 0
M  V30 59172 H 5592.99 3.02539 2.07041 0
M  V30 59173 H 5592.64 2.34349 4.45073 0
M  V30 59174 H 5592.34 4.08481 4.22394 0
M  V30 59175 H 5593.86 3.53613 4.97785 0
M  V30 59176 H 5595.28 4.81998 3.10404 0
M  V30 59177 H 5593.67 5.4162 2.58395 0
M  V30 59178 H 5594.74 4.64214 1.40118 0
M  V30 59179 N 5596.09 -0.594927 1.4594 0
M  V30 59180 C 5597.33 -1.35088 1.50318 0
M  V30 59181 C 5597.66 -1.94412 0.151383 0
M  V30 59182 O 5596.93 -1.77879 -0.820725 0
M  V30 59183 H 5595.51 -0.50153 0.553603 0
M  V30 59184 H 5598.17 -0.697671 1.81985 0
M  V30 59185 H 5597.26 -2.16385 2.24909 0
M  V30 59186 N 5597.56 -1.33441 -0.838524 0
M  V30 59187 C 5598.79 -1.27771 -1.62352 0
M  V30 59188 C 5599.2 0.153524 -1.88576 0
M  V30 59189 O 5598.55 1.10621 -1.46658 0
M  V30 59190 C 5598.61 -1.98446 -2.99766 0
M  V30 59191 C 5598.27 -3.47751 -2.9651 0
M  V30 59192 C 5599.27 -4.42948 -2.72201 0
M  V30 59193 C 5596.95 -3.89933 -3.16635 0
M  V30 59194 C 5598.95 -5.78299 -2.68046 0
M  V30 59195 C 5596.63 -5.25389 -3.12105 0
M  V30 59196 C 5597.63 -6.19384 -2.87842 0
M  V30 59197 O 5597.32 -7.52359 -2.83215 0
M  V30 59198 H 5597.05 -0.441545 -0.511873 0
M  V30 59199 H 5599.61 -1.76381 -1.05256 0
M  V30 59200 H 5597.84 -1.44428 -3.58716 0
M  V30 59201 H 5599.53 -1.86271 -3.60635 0
M  V30 59202 H 5600.29 -4.11682 -2.56404 0
M  V30 59203 H 5596.17 -3.1718 -3.34541 0
M  V30 59204 H 5599.71 -6.51637 -2.49027 0
M  V30 59205 H 5595.61 -5.56279 -3.27451 0
M  V30 59206 H 5596.38 -7.61911 -2.99055 0
M  V30 59207 N 5599.04 1.05681 -1.16915 0
M  V30 59208 C 5600.29 1.78594 -0.954488 0
M  V30 59209 C 5600.62 1.87496 0.517249 0
M  V30 59210 O 5599.87 1.36741 1.40001 0
M  V30 59211 C 5600.17 3.22774 -1.53466 0
M  V30 59212 C 5599.84 3.3394 -3.02977 0
M  V30 59213 C 5598.5 3.36694 -3.43788 0
M  V30 59214 C 5600.85 3.35357 -3.9898 0
M  V30 59215 C 5598.18 3.38489 -4.7921 0
M  V30 59216 C 5600.53 3.3869 -5.34296 0
M  V30 59217 C 5599.2 3.39729 -5.74578 0
M  V30 59218 H 5598.47 0.653521 -0.349272 0
M  V30 59219 H 5601.11 1.2424 -1.45728 0
M  V30 59220 H 5599.42 3.80021 -0.953464 0
M  V30 59221 H 5601.11 3.778 -1.34417 0
M  V30 59222 H 5597.7 3.32505 -2.7044 0
M  V30 59223 H 5601.89 3.32434 -3.68512 0
M  V30 59224 H 5597.14 3.37601 -5.09741 0
M  V30 59225 H 5601.32 3.38734 -6.08467 0
M  V30 59226 H 5598.95 3.40873 -6.79492 0
M  V30 59227 N 5600.52 0.96861 1.24321 0
M  V30 59228 C 5601.76 0.638858 1.9416 0
M  V30 59229 C 5602.12 -0.811059 1.74028 0
M  V30 59230 O 5603.33 -1.25108 2.37911 0
M  V30 59231 C 5601.6 1.00444 3.42995 0
M  V30 59232 S 5603.16 0.789378 4.31641 0
M  V30 59233 H 5599.97 0.234345 0.67127 0
M  V30 59234 H 5602.58 1.24576 1.50669 0
M  V30 59235 H 5601.28 2.05655 3.55154 0
M  V30 59236 H 5600.81 0.388358 3.91478 0
M  V30 59237 H 5602.83 -0.332802 4.95083 0
M  V30 59238 N 5602 -1.39208 0.738834 0
M  V30 59239 C 5603.23 -2.04731 0.298823 0
M  V30 59240 C 5603.64 -1.5571 -1.0677 0
M  V30 59241 O 5603 -0.723664 -1.67539 0
M  V30 59242 C 5603.05 -3.60287 0.295867 0
M  V30 59243 O 5602.77 -4.07505 1.60845 0
M  V30 59244 C 5604.27 -4.43012 -0.159838 0
M  V30 59245 H 5601.49 -0.658291 0.129975 0
M  V30 59246 H 5604.04 -1.78182 1.00356 0
M  V30 59247 H 5602.19 -3.85724 -0.36001 0
M  V30 59248 H 5602.61 -5.01853 1.52461 0
M  V30 59249 H 5604.08 -5.51889 -0.110747 0
M  V30 59250 H 5604.56 -4.2233 -1.20558 0
M  V30 59251 H 5605.16 -4.22733 0.466616 0
M  V30 59252 N 5603.48 -0.48676 -1.49895 0
M  V30 59253 C 5604.72 0.0613269 -2.04308 0
M  V30 59254 C 5605.08 1.35576 -1.35953 0
M  V30 59255 O 5606.28 1.9872 -1.81008 0
M  V30 59256 C 5604.55 0.225041 -3.56691 0
M  V30 59257 S 5606.11 0.729429 -4.32695 0
M  V30 59258 H 5602.93 0.00853739 -0.710949 0
M  V30 59259 H 5605.53 -0.657479 -1.84113 0
M  V30 59260 H 5604.24 -0.722589 -4.03989 0
M  V30 59261 H 5603.77 0.969505 -3.81267 0
M  V30 59262 H 5605.78 2.00066 -4.54079 0
M  V30 59263 N 5604.96 1.56057 -0.219996 0
M  V30 59264 C 5606.19 2.0236 0.416425 0
M  V30 59265 C 5606.59 1.09908 1.54003 0
M  V30 59266 O 5605.94 0.100699 1.83424 0
M  V30 59267 C 5606 3.45003 1.01059 0
M  V30 59268 C 5605.66 4.56994 0.0226284 0
M  V30 59269 C 5606.66 5.14058 -0.777178 0
M  V30 59270 C 5604.34 5.02209 -0.0956746 0
M  V30 59271 C 5606.34 6.14807 -1.68201 0
M  V30 59272 C 5604.03 6.02795 -1.00404 0
M  V30 59273 C 5605.02 6.5897 -1.79575 0
M  V30 59274 O 5604.71 7.57599 -2.68885 0
M  V30 59275 H 5604.44 0.667585 0.106332 0
M  V30 59276 H 5607 2.02676 -0.33342 0
M  V30 59277 H 5605.23 3.41751 1.8095 0
M  V30 59278 H 5606.92 3.74963 1.55426 0
M  V30 59279 H 5607.68 4.79977 -0.696221 0
M  V30 59280 H 5603.56 4.58165 0.510438 0
M  V30 59281 H 5607.11 6.5858 -2.3004 0
M  V30 59282 H 5603 6.36299 -1.08602 0
M  V30 59283 H 5603.77 7.75115 -2.62943 0
M  V30 59284 N 5606.43 -0.0534086 1.57509 0
M  V30 59285 C 5607.68 -0.749036 1.88137 0
M  V30 59286 C 5608.01 -1.76639 0.814173 0
M  V30 59287 O 5607.26 -1.94797 -0.187776 0
M  V30 59288 C 5607.56 -1.47655 3.25473 0
M  V30 59289 C 5607.23 -0.597462 4.46924 0
M  V30 59290 C 5605.89 -0.35526 4.79887 0
M  V30 59291 C 5608.24 0.0109701 5.21199 0
M  V30 59292 C 5605.57 0.504553 5.84526 0
M  V30 59293 C 5607.92 0.858343 6.2675 0
M  V30 59294 C 5606.59 1.11024 6.58202 0
M  V30 59295 H 5605.86 -0.274092 0.688444 0
M  V30 59296 H 5608.5 -0.0093743 1.91498 0
M  V30 59297 H 5606.81 -2.2889 3.17988 0
M  V30 59298 H 5608.51 -2.0199 3.46412 0
M  V30 59299 H 5605.1 -0.796378 4.21136 0
M  V30 59300 H 5609.28 -0.16323 4.96032 0
M  V30 59301 H 5604.54 0.708271 6.07284 0
M  V30 59302 H 5608.71 1.33644 6.83456 0
M  V30 59303 H 5606.34 1.77824 7.39109 0
M  V30 59304 N 5607.91 -1.54208 -0.325201 0
M  V30 59305 C 5609.16 -1.71995 -1.06124 0
M  V30 59306 C 5609.48 -0.495571 -1.88598 0
M  V30 59307 O 5608.75 0.490437 -1.89662 0
M  V30 59308 H 5607.33 -0.634151 -0.394793 0
M  V30 59309 H 5609.99 -1.91508 -0.362034 0
M  V30 59310 H 5609.09 -2.59884 -1.7282 0
M  V30 59311 N 5609.39 0.587179 -1.46253 0
M  V30 59312 C 5610.32 1.70688 -1.59336 0
M  V30 59313 C 5611.3 1.64206 -0.443888 0
M  V30 59314 O 5612.49 1.82292 -0.66958 0
M  V30 59315 C 5609.62 3.09324 -1.57911 0
M  V30 59316 C 5608.57 3.30634 -2.71782 0
M  V30 59317 C 5607.9 4.69752 -2.55416 0
M  V30 59318 C 5609.2 3.18902 -4.13641 0
M  V30 59319 H 5610.89 1.59996 -2.53065 0
M  V30 59320 H 5608.44 0.7683 -1.21791 0
M  V30 59321 H 5610.39 3.87473 -1.65657 0
M  V30 59322 H 5609.11 3.20905 -0.607233 0
M  V30 59323 H 5607.77 2.54883 -2.63497 0
M  V30 59324 H 5607.42 4.78092 -1.56322 0
M  V30 59325 H 5607.12 4.84963 -3.31791 0
M  V30 59326 H 5608.64 5.50075 -2.65048 0
M  V30 59327 H 5610.06 3.869 -4.23061 0
M  V30 59328 H 5608.45 3.45636 -4.90567 0
M  V30 59329 H 5609.52 2.16045 -4.34111 0
M  V30 59330 N 5610.87 1.33884 0.831435 0
M  V30 59331 C 5612.11 1.25761 1.58715 0
M  V30 59332 C 5612.44 -0.174678 1.93714 0
M  V30 59333 O 5611.7 -1.13379 1.59511 0
M  V30 59334 C 5612 2.08554 2.90241 0
M  V30 59335 C 5611.66 3.5766 2.74572 0
M  V30 59336 C 5610.32 3.98309 2.70006 0
M  V30 59337 C 5612.68 4.52378 2.5885 0
M  V30 59338 C 5610 5.31881 2.47628 0
M  V30 59339 C 5612.36 5.8612 2.38004 0
M  V30 59340 C 5611.02 6.25943 2.31845 0
M  V30 59341 H 5610.29 0.460191 0.58078 0
M  V30 59342 H 5612.94 1.65544 0.962682 0
M  V30 59343 H 5611.24 1.61572 3.56934 0
M  V30 59344 H 5612.94 1.99621 3.47782 0
M  V30 59345 H 5609.53 3.25389 2.78962 0
M  V30 59346 H 5613.71 4.21877 2.61406 0
M  V30 59347 H 5608.97 5.61764 2.41311 0
M  V30 59348 H 5613.14 6.59111 2.24824 0
M  V30 59349 H 5610.77 7.29379 2.14266 0
M  V30 59350 N 5612.35 -1.0506 1.17474 0
M  V30 59351 C 5613.59 -1.79659 0.974787 0
M  V30 59352 C 5613.95 -1.857 -0.487791 0
M  V30 59353 O 5615.15 -2.56404 -0.806864 0
M  V30 59354 C 5613.42 -3.19592 1.59987 0
M  V30 59355 S 5614.98 -4.10652 1.5463 0
M  V30 59356 H 5611.8 -0.618734 0.350271 0
M  V30 59357 H 5614.4 -1.26045 1.49442 0
M  V30 59358 H 5613.1 -3.12798 2.6568 0
M  V30 59359 H 5612.64 -3.78282 1.0801 0
M  V30 59360 H 5614.65 -4.93084 0.555206 0
M  V30 59361 N 5613.82 -0.97519 -1.23806 0
M  V30 59362 C 5614.75 -0.530469 -2.27395 0
M  V30 59363 C 5615.73 0.433705 -1.64478 0
M  V30 59364 O 5616.92 0.328202 -1.91407 0
M  V30 59365 C 5614.05 0.172944 -3.46869 0
M  V30 59366 C 5613 -0.707993 -4.22104 0
M  V30 59367 C 5612.33 0.127339 -5.34548 0
M  V30 59368 C 5613.63 -1.99626 -4.82645 0
M  V30 59369 H 5615.32 -1.39631 -2.64846 0
M  V30 59370 H 5612.87 -0.672846 -1.27314 0
M  V30 59371 H 5614.82 0.495334 -4.18479 0
M  V30 59372 H 5613.55 1.0732 -3.08464 0
M  V30 59373 H 5612.21 -1.01376 -3.52304 0
M  V30 59374 H 5611.85 1.02797 -4.92384 0
M  V30 59375 H 5611.55 -0.458934 -5.85805 0
M  V30 59376 H 5613.08 0.444229 -6.08982 0
M  V30 59377 H 5614.49 -1.73898 -5.4629 0
M  V30 59378 H 5612.89 -2.52988 -5.44166 0
M  V30 59379 H 5613.96 -2.68643 -4.03682 0
M  V30 59380 N 5615.3 1.38815 -0.746207 0
M  V30 59381 C 5616.23 2.33144 -0.128918 0
M  V30 59382 C 5617.21 1.5449 0.711819 0
M  V30 59383 O 5618.4 1.82838 0.654513 0
M  V30 59384 C 5615.53 3.38642 0.770653 0
M  V30 59385 C 5614.48 4.27987 0.0332164 0
M  V30 59386 C 5613.81 5.24278 1.05055 0
M  V30 59387 C 5615.11 5.09911 -1.13084 0
M  V30 59388 H 5616.8 2.85015 -0.916878 0
M  V30 59389 H 5614.35 1.37037 -0.442354 0
M  V30 59390 H 5616.3 4.03591 1.21211 0
M  V30 59391 H 5615.02 2.85236 1.59085 0
M  V30 59392 H 5613.68 3.64533 -0.38874 0
M  V30 59393 H 5613.33 4.67163 1.86461 0
M  V30 59394 H 5613.03 5.84908 0.561832 0
M  V30 59395 H 5614.56 5.92104 1.49148 0
M  V30 59396 H 5615.97 5.68142 -0.767283 0
M  V30 59397 H 5614.37 5.79739 -1.54992 0
M  V30 59398 H 5615.44 4.44083 -1.94725 0
M  V30 59399 N 5616.78 0.494703 1.49634 0
M  V30 59400 C 5617.73 -0.300848 2.30646 0
M  V30 59401 C 5618.72 -0.968638 1.38974 0
M  V30 59402 O 5619.93 -0.897046 1.56055 0
M  V30 59403 H 5616.3 -0.115874 0.743019 0
M  V30 59404 H 5618.27 0.402491 2.95673 0
M  V30 59405 C 5617.02 -1.35626 3.20157 0
M  V30 59406 H 5616.35 -0.851809 3.9062 0
M  V30 59407 H 5617.79 -1.88502 3.79794 0
M  V30 59408 C 5616.25 -2.37104 2.3934 0
M  V30 59409 O 5616.78 -3.42859 2.0931 0
M  V30 59410 N 5614.98 -2.09414 2.0148 0
M  V30 59411 H 5614.53 -1.23433 2.26102 0
M  V30 59412 H 5614.49 -2.7754 1.47713 0
M  V30 59413 N 5618.26 -1.55938 0.228269 0
M  V30 59414 C 5619.67 -1.59094 -0.126984 0
M  V30 59415 C 5619.87 -1.24519 -1.58421 0
M  V30 59416 O 5618.93 -0.983626 -2.32553 0
M  V30 59417 C 5620.24 -2.99998 0.205374 0
M  V30 59418 C 5621.79 -3.12649 0.148156 0
M  V30 59419 C 5622.27 -4.55741 0.454283 0
M  V30 59420 N 5623.76 -4.61434 0.404099 0
M  V30 59421 C 5624.49 -5.70099 0.614373 0
M  V30 59422 N 5623.99 -6.87101 0.886781 0
M  V30 59423 N 5625.78 -5.59438 0.54635 0
M  V30 59424 H 5617.93 -1.76686 1.1788 0
M  V30 59425 H 5620.2 -0.821583 0.472976 0
M  V30 59426 H 5619.9 -3.29971 1.21704 0
M  V30 59427 H 5619.78 -3.74179 -0.476441 0
M  V30 59428 H 5622.16 -2.82468 -0.854156 0
M  V30 59429 H 5622.24 -2.40783 0.863546 0
M  V30 59430 H 5621.89 -4.86641 1.45406 0
M  V30 59431 H 5621.82 -5.25842 -0.282376 0
M  V30 59432 H 5624.31 -3.77362 0.201521 0
M  V30 59433 H 5624.62 -7.65836 1.03515 0
M  V30 59434 H 5622.97 -6.8883 0.92405 0
M  V30 59435 H 5626.16 -4.66909 0.333714 0
M  V30 59436 H 5626.33 -6.44058 0.713629 0
M  V30 59437 N 5619.74 0.0450548 -1.57536 0
M  V30 59438 C 5620.97 0.750163 -1.925 0
M  V30 59439 C 5621.37 1.70265 -0.825006 0
M  V30 59440 O 5620.72 1.82512 0.208592 0
M  V30 59441 C 5620.78 1.57532 -3.23147 0
M  V30 59442 C 5620.44 0.789337 -4.50132 0
M  V30 59443 C 5621.44 0.096654 -5.1981 0
M  V30 59444 C 5619.13 0.748601 -4.9669 0
M  V30 59445 C 5621.12 -0.626241 -6.34316 0
M  V30 59446 C 5618.81 0.0219503 -6.11096 0
M  V30 59447 C 5619.8 -0.664245 -6.79762 0
M  V30 59448 O 5619.49 -1.37913 -7.91982 0
M  V30 59449 H 5619.22 0.216872 -0.640267 0
M  V30 59450 H 5621.78 0.0114858 -2.05397 0
M  V30 59451 H 5620.01 2.35743 -3.06532 0
M  V30 59452 H 5621.7 2.16156 -3.43557 0
M  V30 59453 H 5622.46 0.119259 -4.84853 0
M  V30 59454 H 5618.34 1.27219 -4.43099 0
M  V30 59455 H 5621.89 -1.16239 -6.87848 0
M  V30 59456 H 5617.78 -0.00263399 -6.455 0
M  V30 59457 H 5618.55 -1.29115 -8.08252 0
M  V30 59458 N 5621.21 1.54379 0.317018 0
M  V30 59459 C 5622.46 1.72897 1.05418 0
M  V30 59460 C 5622.79 0.506148 1.87799 0
M  V30 59461 O 5622.04 -0.512064 1.88882 0
M  V30 59462 C 5622.34 2.96073 2.00188 0
M  V30 59463 C 5622.01 4.30556 1.33911 0
M  V30 59464 C 5620.67 4.67116 1.15567 0
M  V30 59465 C 5623.02 5.13989 0.863977 0
M  V30 59466 C 5620.35 5.84703 0.483687 0
M  V30 59467 C 5622.7 6.32265 0.205784 0
M  V30 59468 C 5621.37 6.67499 0.0102503 0
M  V30 59469 H 5620.64 0.632673 0.385753 0
M  V30 59470 H 5623.28 1.88624 0.330655 0
M  V30 59471 H 5621.59 2.7506 2.79015 0
M  V30 59472 H 5623.29 3.07595 2.57267 0
M  V30 59473 H 5619.88 4.01795 1.49192 0
M  V30 59474 H 5624.06 4.86255 0.993464 0
M  V30 59475 H 5619.32 6.10556 0.321055 0
M  V30 59476 H 5623.49 6.96192 -0.170353 0
M  V30 59477 H 5621.12 7.58471 -0.512475 0
M  V30 59478 N 5622.69 -0.579414 1.46562 0
M  V30 59479 C 5624.11 -0.903117 1.3159 0
M  V30 59480 C 5624.31 -1.99405 0.28979 0
M  V30 59481 O 5623.36 -2.50633 -0.306492 0
M  V30 59482 C 5624.68 -1.31735 2.70308 0
M  V30 59483 C 5626.23 -1.43002 2.78423 0
M  V30 59484 C 5626.7 -1.87791 4.1773 0
M  V30 59485 N 5628.19 -1.94979 4.20164 0
M  V30 59486 C 5628.93 -2.30916 5.24848 0
M  V30 59487 N 5628.42 -2.65622 6.39857 0
M  V30 59488 N 5630.22 -2.31499 5.12215 0
M  V30 59489 H 5622.37 0.141186 2.1193 0
M  V30 59490 H 5624.63 0.000493631 0.948 0
M  V30 59491 H 5624.34 -0.589742 3.4672 0
M  V30 59492 H 5624.21 -2.27819 3.0063 0
M  V30 59493 H 5626.6 -2.14849 2.02297 0
M  V30 59494 H 5626.68 -0.451612 2.51782 0
M  V30 59495 H 5626.32 -1.16521 4.94353 0
M  V30 59496 H 5626.25 -2.86595 4.41781 0
M  V30 59497 H 5628.74 -1.70633 3.37184 0
M  V30 59498 H 5629.06 -2.92007 7.15508 0
M  V30 59499 H 5627.4 -2.63253 6.43213 0
M  V30 59500 H 5630.59 -2.03809 4.21402 0
M  V30 59501 H 5630.76 -2.59178 5.93912 0
M  V30 59502 N 5624.17 -1.34323 -0.824323 0
M  V30 59503 C 5625.1 -1.28427 -1.9501 0
M  V30 59504 C 5626.08 -0.161984 -1.69327 0
M  V30 59505 O 5627.27 -0.354119 -1.90944 0
M  V30 59506 C 5624.4 -1.03753 -3.3144 0
M  V30 59507 C 5623.35 -2.12432 -3.7156 0
M  V30 59508 C 5622.68 -1.72949 -5.05957 0
M  V30 59509 C 5623.98 -3.54248 -3.83804 0
M  V30 59510 H 5625.67 -2.22621 -2.00201 0
M  V30 59511 H 5623.22 -1.07168 -0.961818 0
M  V30 59512 H 5625.17 -0.98273 -4.09781 0
M  V30 59513 H 5623.89 -0.060004 -3.26545 0
M  V30 59514 H 5622.55 -2.16979 -2.95493 0
M  V30 59515 H 5622.2 -0.738608 -4.97548 0
M  V30 59516 H 5621.9 -2.45687 -5.33771 0
M  V30 59517 H 5623.42 -1.68962 -5.86757 0
M  V30 59518 H 5624.84 -3.52122 -4.52419 0
M  V30 59519 H 5623.24 -4.25595 -4.2307 0
M  V30 59520 H 5624.31 -3.91692 -2.85842 0
M  V30 59521 N 5625.65 1.04435 -1.1803 0
M  V30 59522 C 5626.88 1.81231 -0.998153 0
M  V30 59523 C 5627.29 1.83273 0.453495 0
M  V30 59524 O 5626.65 1.26549 1.31497 0
M  V30 59525 C 5626.7 3.27002 -1.54118 0
M  V30 59526 O 5626.42 3.25164 -2.93599 0
M  V30 59527 C 5627.92 4.20456 -1.40469 0
M  V30 59528 H 5625.14 0.570838 -0.352683 0
M  V30 59529 H 5627.69 1.31643 -1.56494 0
M  V30 59530 H 5625.84 3.73833 -1.01624 0
M  V30 59531 H 5626.25 4.16455 -3.1885 0
M  V30 59532 H 5627.73 5.20689 -1.83267 0
M  V30 59533 H 5628.21 4.3778 -0.352866 0
M  V30 59534 H 5628.81 3.79486 -1.92017 0
M  V30 59535 N 5627.13 0.981742 1.23287 0
M  V30 59536 C 5628.06 0.542521 2.2711 0
M  V30 59537 C 5629.04 -0.424976 1.64706 0
M  V30 59538 O 5630.22 -0.318047 1.91578 0
M  V30 59539 C 5627.35 -0.154546 3.46956 0
M  V30 59540 C 5626.31 0.730368 4.21722 0
M  V30 59541 C 5625.63 -0.0989886 5.34608 0
M  V30 59542 C 5626.93 2.02183 4.8158 0
M  V30 59543 H 5628.63 1.41034 2.64102 0
M  V30 59544 H 5626.17 0.679589 1.26955 0
M  V30 59545 H 5628.13 -0.473134 4.18735 0
M  V30 59546 H 5626.85 -1.05682 3.09029 0
M  V30 59547 H 5625.51 1.03243 3.51762 0
M  V30 59548 H 5625.16 -1.00184 4.92922 0
M  V30 59549 H 5624.86 0.489994 5.85553 0
M  V30 59550 H 5626.38 -0.411927 6.09209 0
M  V30 59551 H 5627.79 1.76792 5.4536 0
M  V30 59552 H 5626.19 2.5587 5.42817 0
M  V30 59553 H 5627.26 2.7078 4.02251 0
M  V30 59554 N 5628.6 -1.38417 0.753558 0
M  V30 59555 C 5629.85 -1.99722 0.309091 0
M  V30 59556 C 5630.17 -1.60115 -1.11302 0
M  V30 59557 O 5629.44 -0.857982 -1.76112 0
M  V30 59558 H 5628.02 -0.738663 0.111292 0
M  V30 59559 H 5630.69 -1.69182 0.967645 0
M  V30 59560 H 5629.78 -3.09873 0.372204 0
M  V30 59561 N 5630.08 -0.502631 -1.4937 0
M  V30 59562 C 5631.33 0.041371 -2.02758 0
M  V30 59563 C 5631.66 1.36494 -1.38141 0
M  V30 59564 O 5630.94 1.87485 -0.517658 0
M  V30 59565 C 5631.22 0.192207 -3.59587 0
M  V30 59566 C 5631.07 -1.1546 -4.34729 0
M  V30 59567 C 5632.39 0.932067 -4.30117 0
M  V30 59568 H 5629.51 0.013561 -0.736875 0
M  V30 59569 H 5632.15 -0.654358 -1.78376 0
M  V30 59570 H 5630.3 0.784777 -3.80491 0
M  V30 59571 H 5631.97 -1.78618 -4.25316 0
M  V30 59572 H 5630.22 -1.74347 -3.97222 0
M  V30 59573 H 5630.89 -1.00235 -5.42823 0
M  V30 59574 H 5633.36 0.429487 -4.13878 0
M  V30 59575 H 5632.24 1.00645 -5.39594 0
M  V30 59576 H 5632.5 1.97616 -3.95475 0
M  V30 59577 N 5631.56 1.55815 -0.236535 0
M  V30 59578 C 5632.79 2.0279 0.394939 0
M  V30 59579 C 5633.2 1.11535 1.52828 0
M  V30 59580 O 5632.54 0.120148 1.83307 0
M  V30 59581 C 5632.6 3.46056 0.973945 0
M  V30 59582 C 5632.27 4.56993 -0.0258432 0
M  V30 59583 C 5633.27 5.13205 -0.831657 0
M  V30 59584 C 5630.95 5.02079 -0.148935 0
M  V30 59585 C 5632.94 6.12988 -1.74712 0
M  V30 59586 C 5630.63 6.01697 -1.06792 0
M  V30 59587 C 5631.63 6.57029 -1.86554 0
M  V30 59588 O 5631.32 7.54704 -2.76905 0
M  V30 59589 H 5631.05 0.668675 0.0992452 0
M  V30 59590 H 5633.6 2.02311 -0.354897 0
M  V30 59591 H 5631.83 3.43651 1.77315 0
M  V30 59592 H 5633.52 3.76591 1.5144 0
M  V30 59593 H 5634.29 4.79211 -0.74709 0
M  V30 59594 H 5630.17 4.58681 0.461815 0
M  V30 59595 H 5633.71 6.56103 -2.37012 0
M  V30 59596 H 5629.61 6.35111 -1.15344 0
M  V30 59597 H 5630.38 7.72283 -2.71149 0
M  V30 59598 N 5633.04 -0.0366996 1.57557 0
M  V30 59599 C 5634.32 -0.764023 1.80061 0
M  V30 59600 C 5634.7 -1.9398 0.832758 0
M  V30 59601 O 5634.04 -2.28148 -0.126735 0
M  V30 59602 C 5634.25 -1.20421 3.27566 0
M  V30 59603 C 5635.6 -1.62326 3.92346 0
M  V30 59604 O 5636.63 -1.29899 3.3167 0
M  V30 59605 O 5635.49 -2.22486 4.99161 0
M  V30 59606 H 5632.58 -0.36884 0.740193 0
M  V30 59607 H 5635.13 -0.0140657 1.69694 0
M  V30 59608 H 5633.9 -0.364509 3.89599 0
M  V30 59609 H 5633.52 -2.01442 3.42793 0
M  V30 59610 N 5634.52 -1.54545 -0.308827 0
M  V30 59611 C 5635.75 -1.77178 -1.06262 0
M  V30 59612 C 5636.16 -0.527525 -1.81697 0
M  V30 59613 O 5635.5 0.511965 -1.76422 0
M  V30 59614 C 5635.56 -2.92122 -2.09535 0
M  V30 59615 C 5635.22 -4.30498 -1.53365 0
M  V30 59616 C 5636.22 -5.10814 -0.967744 0
M  V30 59617 C 5633.91 -4.7708 -1.57164 0
M  V30 59618 C 5635.9 -6.35829 -0.447293 0
M  V30 59619 C 5633.59 -6.02059 -1.04732 0
M  V30 59620 C 5634.59 -6.81268 -0.486106 0
M  V30 59621 O 5634.27 -8.03894 0.0302881 0
M  V30 59622 H 5634.01 -0.594784 -0.32126 0
M  V30 59623 H 5636.56 -2.0229 -0.356065 0
M  V30 59624 H 5634.79 -2.62616 -2.83848 0
M  V30 59625 H 5636.48 -3.02403 -2.70753 0
M  V30 59626 H 5637.24 -4.75973 -0.931356 0
M  V30 59627 H 5633.12 -4.1546 -1.99785 0
M  V30 59628 H 5636.67 -6.97599 -0.00859688 0
M  V30 59629 H 5632.56 -6.36387 -1.08082 0
M  V30 59630 H 5633.33 -8.18457 -0.0837503 0
M  V30 59631 N 5636 0.571634 -1.46868 0
M  V30 59632 C 5636.93 1.68988 -1.61137 0
M  V30 59633 C 5637.91 1.63726 -0.46128 0
M  V30 59634 O 5639.09 1.81571 -0.688877 0
M  V30 59635 C 5636.22 3.07632 -1.61183 0
M  V30 59636 C 5635.18 3.27733 -2.75273 0
M  V30 59637 C 5634.5 4.67016 -2.60384 0
M  V30 59638 C 5635.8 3.14497 -4.17 0
M  V30 59639 H 5637.5 1.57302 -2.54748 0
M  V30 59640 H 5635.04 0.755339 -1.22599 0
M  V30 59641 H 5636.99 3.85695 -1.69758 0
M  V30 59642 H 5635.72 3.20243 -0.641235 0
M  V30 59643 H 5634.38 2.52074 -2.66185 0
M  V30 59644 H 5634.03 4.76407 -1.61384 0
M  V30 59645 H 5633.73 4.81416 -3.36916 0
M  V30 59646 H 5635.25 5.47233 -2.70867 0
M  V30 59647 H 5636.66 3.82392 -4.27141 0
M  V30 59648 H 5635.06 3.40413 -4.94205 0
M  V30 59649 H 5636.13 2.11428 -4.36378 0
M  V30 59650 N 5637.47 1.34758 0.817188 0
M  V30 59651 C 5638.72 1.27626 1.57605 0
M  V30 59652 C 5639.05 -0.151949 1.93605 0
M  V30 59653 O 5638.33 -1.09875 1.60492 0
M  V30 59654 C 5638.61 2.17261 2.87175 0
M  V30 59655 C 5638.46 3.68647 2.5772 0
M  V30 59656 C 5639.78 2.0622 3.88795 0
M  V30 59657 H 5636.9 0.464953 0.571829 0
M  V30 59658 H 5639.54 1.65063 0.94097 0
M  V30 59659 H 5637.69 1.85464 3.41373 0
M  V30 59660 H 5639.37 4.10837 2.09788 0
M  V30 59661 H 5637.61 3.89452 1.91075 0
M  V30 59662 H 5638.28 4.26738 3.50141 0
M  V30 59663 H 5640.76 2.34149 3.43967 0
M  V30 59664 H 5639.63 2.71153 4.7725 0
M  V30 59665 H 5639.89 1.0409 4.29672 0
M  V30 59666 N 5638.95 -1.03808 1.18582 0
M  V30 59667 C 5640.18 -1.81236 1.00837 0
M  V30 59668 C 5640.6 -1.82918 -0.438466 0
M  V30 59669 O 5639.96 -1.2484 -1.31472 0
M  V30 59670 C 5640.01 -3.24586 1.57087 0
M  V30 59671 O 5639.11 -4.04685 0.793966 0
M  V30 59672 H 5638.45 -0.559833 0.357047 0
M  V30 59673 H 5640.98 -1.30718 1.57397 0
M  V30 59674 H 5640.99 -3.75357 1.59909 0
M  V30 59675 H 5639.67 -3.22677 2.62398 0
M  V30 59676 H 5638.24 -3.63356 0.838262 0
M  V30 59677 N 5640.43 -0.988266 -1.22764 0
M  V30 59678 C 5641.66 -0.679812 -1.95413 0
M  V30 59679 C 5642.07 0.75467 -1.73061 0
M  V30 59680 O 5641.43 1.50872 -1.02683 0
M  V30 59681 C 5641.48 -0.970467 -3.4823 0
M  V30 59682 O 5641.2 -2.34858 -3.69829 0
M  V30 59683 C 5642.7 -0.679064 -4.38068 0
M  V30 59684 H 5639.92 -0.251869 -0.621935 0
M  V30 59685 H 5642.47 -1.32178 -1.56042 0
M  V30 59686 H 5640.62 -0.374377 -3.85587 0
M  V30 59687 H 5641.04 -2.44429 -4.64064 0
M  V30 59688 H 5642.51 -0.93274 -5.44062 0
M  V30 59689 H 5642.99 0.386919 -4.37492 0
M  V30 59690 H 5643.59 -1.25599 -4.06331 0
M  V30 59691 N 5641.91 1.38015 -0.760888 0
M  V30 59692 C 5642.84 2.2899 -0.0981721 0
M  V30 59693 C 5643.85 1.48105 0.675933 0
M  V30 59694 O 5645.04 1.70885 0.515818 0
M  V30 59695 C 5642.14 3.27145 0.884844 0
M  V30 59696 C 5641.31 4.37082 0.166847 0
M  V30 59697 C 5640.37 5.15379 1.06166 0
M  V30 59698 O 5639.4 5.66732 0.529468 0
M  V30 59699 N 5640.6 5.2906 2.38905 0
M  V30 59700 H 5643.37 2.86504 -0.879504 0
M  V30 59701 H 5640.93 1.49875 -0.612298 0
M  V30 59702 H 5642.92 3.76405 1.48665 0
M  V30 59703 H 5641.49 2.70476 1.56721 0
M  V30 59704 H 5640.71 3.89361 -0.615753 0
M  V30 59705 H 5642 5.07731 -0.329703 0
M  V30 59706 H 5641.4 4.88902 2.8459 0
M  V30 59707 H 5639.95 5.81668 2.94118 0
M  V30 59708 N 5643.39 0.510546 1.49101 0
M  V30 59709 C 5644.3 -0.267094 2.33075 0
M  V30 59710 C 5645.31 -0.958066 1.45248 0
M  V30 59711 O 5646.49 -0.937336 1.78258 0
M  V30 59712 C 5643.55 -1.31201 3.20916 0
M  V30 59713 C 5642.61 -0.633463 4.24601 0
M  V30 59714 C 5641.85 -1.6286 5.08244 0
M  V30 59715 O 5642.07 -2.8594 4.93553 0
M  V30 59716 O 5641 -1.17867 5.90247 0
M  V30 59717 H 5644.83 0.42049 3.00775 0
M  V30 59718 H 5642.41 0.271734 1.46908 0
M  V30 59719 H 5644.3 -1.91634 3.75306 0
M  V30 59720 H 5642.97 -1.98235 2.55899 0
M  V30 59721 H 5641.88 0.0108561 3.74098 0
M  V30 59722 H 5643.21 -0.00540467 4.922 0
M  V30 59723 N 5644.86 -1.55687 0.244795 0
M  V30 59724 C 5646.11 -1.98892 -0.380534 0
M  V30 59725 C 5646.44 -1.13289 -1.58101 0
M  V30 59726 O 5645.69 -0.183209 -1.94841 0
M  V30 59727 C 5645.99 -3.4749 -0.835801 0
M  V30 59728 C 5645.66 -4.50169 0.256686 0
M  V30 59729 C 5644.32 -4.77968 0.556742 0
M  V30 59730 C 5646.67 -5.11627 0.994353 0
M  V30 59731 C 5644 -5.64502 1.59858 0
M  V30 59732 C 5646.35 -5.9929 2.02569 0
M  V30 59733 C 5645.02 -6.25423 2.33242 0
M  V30 59734 H 5644.29 -0.727799 -0.139247 0
M  V30 59735 H 5646.93 -1.88234 0.352179 0
M  V30 59736 H 5645.24 -3.5547 -1.64768 0
M  V30 59737 H 5646.94 -3.78306 -1.32988 0
M  V30 59738 H 5643.53 -4.28598 0.0126791 0
M  V30 59739 H 5647.71 -4.90199 0.775789 0
M  V30 59740 H 5642.97 -5.83006 1.84158 0
M  V30 59741 H 5647.14 -6.45955 2.60221 0
M  V30 59742 H 5644.77 -6.92271 3.1411 0
M  V30 59743 N 5646.34 0.0283435 -1.57575 0
M  V30 59744 C 5647.76 0.384 -1.54912 0
M  V30 59745 C 5647.96 1.76561 -0.971009 0
M  V30 59746 O 5647.01 2.45453 -0.592374 0
M  V30 59747 C 5648.33 0.285192 -2.99345 0
M  V30 59748 C 5649.88 0.362221 -3.10897 0
M  V30 59749 C 5650.35 0.292853 -4.57063 0
M  V30 59750 N 5651.84 0.351626 -4.61863 0
M  V30 59751 C 5652.58 0.320853 -5.72502 0
M  V30 59752 N 5652.07 0.242329 -6.92376 0
M  V30 59753 N 5653.87 0.370635 -5.60877 0
M  V30 59754 H 5646.02 -0.875798 -1.93503 0
M  V30 59755 H 5648.28 -0.333082 -0.887559 0
M  V30 59756 H 5647.99 -0.664267 -3.4537 0
M  V30 59757 H 5647.86 1.07856 -3.61451 0
M  V30 59758 H 5650.25 1.30211 -2.64819 0
M  V30 59759 H 5650.33 -0.460511 -2.51621 0
M  V30 59760 H 5649.97 -0.643374 -5.03809 0
M  V30 59761 H 5649.9 1.1337 -5.14252 0
M  V30 59762 H 5652.39 0.414797 -3.75617 0
M  V30 59763 H 5652.71 0.223968 -7.72475 0
M  V30 59764 H 5651.05 0.208367 -6.94688 0
M  V30 59765 H 5654.24 0.429977 -4.66121 0
M  V30 59766 H 5654.41 0.343185 -6.47091 0
M  V30 59767 N 5647.82 1.54706 0.300627 0
M  V30 59768 C 5649.05 1.77739 1.05321 0
M  V30 59769 C 5649.46 0.537154 1.81415 0
M  V30 59770 O 5648.8 -0.502601 1.76691 0
M  V30 59771 C 5648.86 2.93229 2.07983 0
M  V30 59772 C 5648.53 4.31305 1.5108 0
M  V30 59773 C 5649.52 5.1132 0.94064 0
M  V30 59774 C 5647.21 4.77906 1.54631 0
M  V30 59775 C 5649.2 6.36057 0.413567 0
M  V30 59776 C 5646.89 6.02606 1.01537 0
M  V30 59777 C 5647.89 6.81516 0.449969 0
M  V30 59778 O 5647.58 8.03867 -0.0729201 0
M  V30 59779 H 5647.31 0.59648 0.318101 0
M  V30 59780 H 5649.86 2.02476 0.345332 0
M  V30 59781 H 5648.09 2.64118 2.82451 0
M  V30 59782 H 5649.78 3.03835 2.69145 0
M  V30 59783 H 5650.55 4.76461 0.9061 0
M  V30 59784 H 5646.43 4.16514 1.97579 0
M  V30 59785 H 5649.97 6.97594 -0.0283986 0
M  V30 59786 H 5645.87 6.36951 1.04706 0
M  V30 59787 H 5646.64 8.1849 0.0403444 0
M  V30 59788 N 5649.3 -0.563837 1.47169 0
M  V30 59789 C 5650.23 -1.68684 1.53691 0
M  V30 59790 C 5651.21 -1.57865 0.389542 0
M  V30 59791 O 5652.39 -1.78816 0.596399 0
M  V30 59792 C 5649.52 -3.06882 1.43322 0
M  V30 59793 C 5648.57 -3.36166 2.62478 0
M  V30 59794 S 5649.4 -3.26151 4.24719 0
M  V30 59795 C 5650.56 -4.66854 4.16891 0
M  V30 59796 H 5650.79 -1.62896 2.48701 0
M  V30 59797 H 5648.32 -0.744123 1.35286 0
M  V30 59798 H 5650.28 -3.86599 1.38027 0
M  V30 59799 H 5648.94 -3.10142 0.49708 0
M  V30 59800 H 5648.13 -4.36898 2.51268 0
M  V30 59801 H 5647.74 -2.64054 2.64861 0
M  V30 59802 H 5650.03 -5.5766 3.84736 0
M  V30 59803 H 5650.97 -4.8312 5.17687 0
M  V30 59804 H 5651.38 -4.44589 3.47852 0
M  V30 59805 N 5650.78 -1.3519 -0.81003 0
M  V30 59806 C 5651.72 -1.27855 -1.94308 0
M  V30 59807 C 5652.72 -0.17414 -1.68503 0
M  V30 59808 O 5653.92 -0.33991 -1.76761 0
M  V30 59809 H 5650.3 -0.397526 -0.638339 0
M  V30 59810 H 5652.27 -2.23586 -1.97615 0
M  V30 59811 C 5651.02 -1.06393 -3.31022 0
M  V30 59812 H 5650.34 -1.90614 -3.51435 0
M  V30 59813 H 5651.78 -1.05302 -4.10716 0
M  V30 59814 C 5650.24 0.232344 -3.36098 0
M  V30 59815 O 5650.77 1.22932 -3.82427 0
M  V30 59816 N 5648.98 0.269927 -2.89344 0
M  V30 59817 H 5648.52 -0.54198 -2.51834 0
M  V30 59818 H 5648.48 1.13698 -2.93121 0
M  V30 59819 N 5652.25 1.03178 -1.19131 0
M  V30 59820 C 5653.48 1.80699 -1.01797 0
M  V30 59821 C 5653.9 1.83148 0.428759 0
M  V30 59822 O 5653.26 1.25535 1.30808 0
M  V30 59823 C 5653.31 3.23749 -1.58806 0
M  V30 59824 O 5652.41 4.04258 -0.815417 0
M  V30 59825 H 5651.76 0.557932 -0.360011 0
M  V30 59826 H 5654.29 1.29882 -1.58088 0
M  V30 59827 H 5654.3 3.74504 -1.61897 0
M  V30 59828 H 5652.97 3.2128 -2.64105 0
M  V30 59829 H 5651.55 3.62906 -0.85752 0
M  V30 59830 N 5653.73 0.994763 1.22238 0
M  V30 59831 C 5654.66 0.504862 2.23571 0
M  V30 59832 C 5655.68 -0.40105 1.57783 0
M  V30 59833 O 5656.87 -0.202885 1.77343 0
M  V30 59834 C 5653.97 -0.287406 3.37679 0
M  V30 59835 C 5653.14 0.615093 4.33054 0
M  V30 59836 C 5652.2 -0.125789 5.2605 0
M  V30 59837 O 5651.22 0.489434 5.67092 0
M  V30 59838 N 5652.43 -1.40752 5.63178 0
M  V30 59839 H 5655.19 1.37622 2.66234 0
M  V30 59840 H 5652.75 0.869698 1.36557 0
M  V30 59841 H 5654.74 -0.791745 3.9688 0
M  V30 59842 H 5653.31 -1.05987 2.94084 0
M  V30 59843 H 5652.53 1.30007 3.72145 0
M  V30 59844 H 5653.82 1.22965 4.93718 0
M  V30 59845 H 5653.22 -1.92865 5.31808 0
M  V30 59846 H 5651.78 -1.85701 6.24787 0
M  V30 59847 N 5655.21 -1.3761 0.768196 0
M  V30 59848 C 5656.46 -1.99383 0.330257 0
M  V30 59849 C 5656.78 -1.61286 -1.09598 0
M  V30 59850 O 5656.05 -0.876613 -1.75192 0
M  V30 59851 H 5654.63 -0.737441 0.11912 0
M  V30 59852 H 5657.29 -1.68146 0.985535 0
M  V30 59853 H 5656.39 -3.0946 0.405049 0
M  V30 59854 N 5656.69 -0.518446 -1.48828 0
M  V30 59855 C 5657.62 0.239603 -2.32267 0
M  V30 59856 C 5658.6 0.94608 -1.41362 0
M  V30 59857 O 5659.78 0.934102 -1.70259 0
M  V30 59858 C 5656.91 1.29399 -3.22294 0
M  V30 59859 C 5655.87 0.706355 -4.22131 0
M  V30 59860 C 5655.19 1.86255 -5.01212 0
M  V30 59861 C 5656.49 -0.314262 -5.21354 0
M  V30 59862 H 5658.19 -0.456904 -2.95893 0
M  V30 59863 H 5655.73 -0.221176 -1.42291 0
M  V30 59864 H 5657.69 1.83217 -3.79486 0
M  V30 59865 H 5656.41 2.01992 -2.56645 0
M  V30 59866 H 5655.07 0.189795 -3.66108 0
M  V30 59867 H 5654.72 2.57658 -4.31997 0
M  V30 59868 H 5654.42 1.47534 -5.68777 0
M  V30 59869 H 5655.94 2.40473 -5.61253 0
M  V30 59870 H 5657.36 0.136403 -5.73138 0
M  V30 59871 H 5655.75 -0.618236 -5.96907 0
M  V30 59872 H 5656.82 -1.2241 -4.69195 0
M  V30 59873 N 5658.17 1.55555 -0.253048 0
M  V30 59874 C 5659.1 2.24616 0.637968 0
M  V30 59875 C 5660.08 1.22856 1.17646 0
M  V30 59876 O 5661.26 1.51524 1.21467 0
M  V30 59877 C 5658.39 2.95035 1.83225 0
M  V30 59878 C 5657.35 4.03536 1.42627 0
M  V30 59879 C 5656.67 4.61414 2.70188 0
M  V30 59880 C 5657.97 5.18925 0.592776 0
M  V30 59881 H 5659.67 2.99336 0.0620865 0
M  V30 59882 H 5657.21 1.43972 0.0284215 0
M  V30 59883 H 5659.17 3.42051 2.46129 0
M  V30 59884 H 5657.89 2.17814 2.43361 0
M  V30 59885 H 5656.55 3.57299 0.820547 0
M  V30 59886 H 5656.2 3.80885 3.28535 0
M  V30 59887 H 5655.9 5.34661 2.43745 0
M  V30 59888 H 5657.42 5.11166 3.33979 0
M  V30 59889 H 5658.83 5.62128 1.12626 0
M  V30 59890 H 5657.23 5.98599 0.424148 0
M  V30 59891 H 5658.3 4.833 -0.393604 0
M  V30 59892 N 5659.64 -0.0199865 1.57587 0
M  V30 59893 C 5661.06 -0.565422 1.77932 0
M  V30 59894 C 5661.41 -1.75093 0.885263 0
M  V30 59895 O 5660.53 -2.16243 0.0824591 0
M  V30 59896 C 5661.13 -1.03251 3.22683 0
M  V30 59897 C 5659.69 -1.5234 3.44194 0
M  V30 59898 C 5658.83 -0.465541 2.73364 0
M  V30 59899 H 5661.78 0.20623 1.57354 0
M  V30 59900 H 5661.8 -1.89948 3.29697 0
M  V30 59901 H 5661.32 -0.169476 3.8773 0
M  V30 59902 H 5659.42 -2.40799 2.84335 0
M  V30 59903 H 5659.53 -1.56464 4.52831 0
M  V30 59904 H 5657.89 -0.922654 2.37401 0
M  V30 59905 H 5658.68 0.388188 3.41098 0
M  V30 59906 N 5661.12 -1.54863 -0.292418 0
M  V30 59907 C 5662.53 -1.65462 -0.864833 0
M  V30 59908 C 5662.89 -0.568874 -1.87772 0
M  V30 59909 O 5662.01 0.293032 -2.14407 0
M  V30 59910 C 5662.61 -2.99945 -1.57539 0
M  V30 59911 C 5661.16 -3.12635 -2.0961 0
M  V30 59912 C 5660.31 -2.61182 -0.931621 0
M  V30 59913 H 5663.26 -1.58549 -0.0692122 0
M  V30 59914 H 5663.28 -2.91848 -2.44141 0
M  V30 59915 H 5662.8 -3.78946 -0.837955 0
M  V30 59916 H 5660.9 -2.3837 -2.86375 0
M  V30 59917 H 5661.01 -4.18919 -2.32474 0
M  V30 59918 H 5659.37 -2.1785 -1.3196 0
M  V30 59919 H 5660.16 -3.42669 -0.208001 0
M  V30 59920 N 5662.6 0.556024 -1.47466 0
M  V30 59921 C 5663.55 1.66299 -1.60042 0
M  V30 59922 C 5664.52 1.60072 -0.443404 0
M  V30 59923 O 5665.7 1.78888 -0.663608 0
M  V30 59924 C 5662.84 3.04619 -1.62178 0
M  V30 59925 C 5661.96 3.21273 -2.88804 0
M  V30 59926 C 5661.09 4.49998 -2.82268 0
M  V30 59927 C 5660.13 4.60089 -4.03714 0
M  V30 59928 N 5659.27 5.8017 -3.95407 0
M  V30 59929 H 5664.11 1.54888 -2.54585 0
M  V30 59930 H 5661.64 0.754488 -1.26277 0
M  V30 59931 H 5663.6 3.84716 -1.61399 0
M  V30 59932 H 5662.23 3.14862 -0.711458 0
M  V30 59933 H 5661.28 2.346 -2.99444 0
M  V30 59934 H 5662.6 3.24593 -3.78736 0
M  V30 59935 H 5661.75 5.38356 -2.79745 0
M  V30 59936 H 5660.49 4.49158 -1.90021 0
M  V30 59937 H 5659.49 3.70142 -4.0654 0
M  V30 59938 H 5660.72 4.62687 -4.97089 0
M  V30 59939 H 5658.67 5.80277 -3.05964 0
M  V30 59940 H 5658.58 5.84874 -4.79019 0
M  V30 59941 H 5659.85 6.70886 -3.96903 0
M  V30 59942 N 5664.08 1.35617 0.802849 0
M  V30 59943 C 5665.03 1.28884 1.93628 0
M  V30 59944 C 5666.02 0.183073 1.68408 0
M  V30 59945 O 5667.23 0.34928 1.76579 0
M  V30 59946 H 5663.6 0.400906 0.636222 0
M  V30 59947 H 5665.57 2.24631 1.96427 0
M  V30 59948 C 5664.32 1.08147 3.30453 0
M  V30 59949 H 5663.65 1.92475 3.50419 0
M  V30 59950 H 5665.09 1.07478 4.10152 0
M  V30 59951 C 5663.54 -0.214517 3.36216 0
M  V30 59952 O 5664.07 -1.20902 3.83074 0
M  V30 59953 N 5662.28 -0.254578 2.89483 0
M  V30 59954 H 5661.83 0.555328 2.51543 0
M  V30 59955 H 5661.79 -1.12142 2.9372 0
M  V30 59956 N 5665.56 -1.02544 1.19676 0
M  V30 59957 C 5666.78 -1.80157 1.02754 0
M  V30 59958 C 5667.21 -1.83373 -0.419041 0
M  V30 59959 O 5666.57 -1.26227 -1.3014 0
M  V30 59960 C 5666.61 -3.22902 1.6052 0
M  V30 59961 O 5665.72 -4.0382 0.836844 0
M  V30 59962 H 5665.06 -0.556015 0.362965 0
M  V30 59963 H 5667.59 -1.29042 1.58775 0
M  V30 59964 H 5667.6 -3.7364 1.63881 0
M  V30 59965 H 5666.27 -3.19875 2.65806 0
M  V30 59966 H 5664.85 -3.62446 0.876753 0
M  V30 59967 N 5667.04 -1.00123 -1.21709 0
M  V30 59968 C 5668.28 -0.677197 -1.89992 0
M  V30 59969 C 5668.6 0.795086 -1.78711 0
M  V30 59970 O 5669.8 1.23105 -2.41986 0
M  V30 59971 C 5668.26 -1.16077 -3.40667 0
M  V30 59972 C 5667.87 -2.65886 -3.60567 0
M  V30 59973 C 5669.61 -0.911448 -4.146 0
M  V30 59974 C 5667.52 -3.07803 -5.04986 0
M  V30 59975 H 5666.45 -0.249597 -0.711489 0
M  V30 59976 H 5669.1 -1.2119 -1.37787 0
M  V30 59977 H 5667.48 -0.554143 -3.92104 0
M  V30 59978 H 5668.66 -3.31966 -3.19586 0
M  V30 59979 H 5666.97 -2.88791 -2.99981 0
M  V30 59980 H 5669.57 -1.20022 -5.21055 0
M  V30 59981 H 5669.91 0.152349 -4.16021 0
M  V30 59982 H 5670.44 -1.48068 -3.69216 0
M  V30 59983 H 5667.18 -4.13394 -5.0871 0
M  V30 59984 H 5666.7 -2.46433 -5.46837 0
M  V30 59985 H 5668.38 -2.99572 -5.73468 0
M  V30 59986 N 5668.51 1.37201 -0.775483 0
M  V30 59987 C 5669.79 1.93782 -0.266073 0
M  V30 59988 C 5670.17 1.70879 1.2395 0
M  V30 59989 O 5669.52 1.05972 2.02441 0
M  V30 59990 C 5669.73 3.43016 -0.643524 0
M  V30 59991 C 5671.08 4.20116 -0.615414 0
M  V30 59992 O 5672.1 3.51394 -0.583142 0
M  V30 59993 O 5670.96 5.42671 -0.645828 0
M  V30 59994 H 5668.05 0.824647 -0.0623397 0
M  V30 59995 H 5670.6 1.46465 -0.857088 0
M  V30 59996 H 5669.37 3.53284 -1.68245 0
M  V30 59997 H 5668.99 3.97592 -0.0256536 0
M  V30 59998 N 5669.99 0.526331 1.48551 0
M  V30 59999 C 5670.95 -0.227659 2.28067 0
M  V30 60000 C 5671.95 -0.871099 1.35161 0
M  V30 60001 O 5673.14 -0.731713 1.58087 0
M  V30 60002 C 5670.28 -1.32907 3.13924 0
M  V30 60003 H 5671.47 0.470417 2.96188 0
M  V30 60004 H 5669.02 0.282143 1.53732 0
M  V30 60005 H 5669.76 -2.06051 2.50426 0
M  V30 60006 H 5669.54 -0.872856 3.82261 0
M  V30 60007 H 5671.03 -1.85951 3.73915 0
M  V30 60008 N 5671.47 -1.55419 0.261294 0
M  V30 60009 C 5672.72 -1.99285 -0.359417 0
M  V30 60010 C 5673.04 -1.14959 -1.5689 0
M  V30 60011 O 5672.3 -0.203864 -1.94635 0
M  V30 60012 C 5672.6 -3.48357 -0.798898 0
M  V30 60013 C 5672.26 -4.49871 0.304418 0
M  V30 60014 C 5670.93 -4.77351 0.607405 0
M  V30 60015 C 5673.28 -5.10543 1.04856 0
M  V30 60016 C 5670.61 -5.62775 1.65836 0
M  V30 60017 C 5672.96 -5.97108 2.08914 0
M  V30 60018 C 5671.62 -6.22914 2.39862 0
M  V30 60019 H 5670.89 -0.729235 -0.13152 0
M  V30 60020 H 5673.54 -1.8785 0.372124 0
M  V30 60021 H 5671.84 -3.57197 -1.60989 0
M  V30 60022 H 5673.54 -3.79695 -1.28968 0
M  V30 60023 H 5670.13 -4.28561 0.0581369 0
M  V30 60024 H 5674.32 -4.89349 0.827738 0
M  V30 60025 H 5669.57 -5.8102 1.90331 0
M  V30 60026 H 5673.75 -6.43159 2.67058 0
M  V30 60027 H 5671.37 -6.889 3.21435 0
M  V30 60028 N 5672.95 0.011629 -1.57596 0
M  V30 60029 C 5673.89 1.00677 -2.07685 0
M  V30 60030 C 5674.86 1.34855 -0.969714 0
M  V30 60031 O 5676.05 1.44892 -1.24141 0
M  V30 60032 C 5673.19 2.2972 -2.57532 0
M  V30 60033 C 5672.3 2.01547 -3.82103 0
M  V30 60034 C 5671.44 3.24587 -4.20496 0
M  V30 60035 C 5670.48 2.92047 -5.37936 0
M  V30 60036 N 5669.61 4.0759 -5.71677 0
M  V30 60037 H 5674.45 0.572684 -2.92445 0
M  V30 60038 H 5671.99 0.271133 -1.4458 0
M  V30 60039 H 5673.95 3.05142 -2.84507 0
M  V30 60040 H 5672.58 2.70818 -1.75663 0
M  V30 60041 H 5671.63 1.16544 -3.62107 0
M  V30 60042 H 5672.94 1.73555 -4.67632 0
M  V30 60043 H 5672.1 4.08364 -4.48691 0
M  V30 60044 H 5670.84 3.55706 -3.33653 0
M  V30 60045 H 5669.84 2.06675 -5.09476 0
M  V30 60046 H 5671.07 2.62187 -6.26446 0
M  V30 60047 H 5669.01 4.38628 -4.87792 0
M  V30 60048 H 5668.93 3.83082 -6.51755 0
M  V30 60049 H 5670.2 4.92189 -6.04458 0
M  V30 60050 N 5674.43 1.55016 0.284201 0
M  V30 60051 C 5675.36 1.90132 1.35543 0
M  V30 60052 C 5676.34 0.761967 1.52079 0
M  V30 60053 O 5677.52 1.01915 1.65309 0
M  V30 60054 C 5674.65 2.16341 2.71687 0
M  V30 60055 C 5673.61 3.32175 2.69896 0
M  V30 60056 C 5672.93 3.43839 4.09486 0
M  V30 60057 C 5674.23 4.68858 2.30151 0
M  V30 60058 H 5675.93 2.79856 1.06401 0
M  V30 60059 H 5673.47 1.34651 0.510404 0
M  V30 60060 H 5675.42 2.39494 3.46728 0
M  V30 60061 H 5674.15 1.23406 3.02388 0
M  V30 60062 H 5672.81 3.08972 1.97311 0
M  V30 60063 H 5672.46 2.4839 4.37392 0
M  V30 60064 H 5672.16 4.21712 4.09185 0
M  V30 60065 H 5673.68 3.69271 4.86283 0
M  V30 60066 H 5675.09 4.91629 2.94913 0
M  V30 60067 H 5673.49 5.49566 2.41033 0
M  V30 60068 H 5674.56 4.68437 1.25278 0
M  V30 60069 N 5675.9 -0.548196 1.47758 0
M  V30 60070 C 5676.85 -1.67547 1.61341 0
M  V30 60071 C 5677.85 -1.62446 0.480392 0
M  V30 60072 O 5679.05 -1.67522 0.658503 0
M  V30 60073 H 5675.43 -0.554552 0.507914 0
M  V30 60074 H 5677.4 -1.5323 2.56053 0
M  V30 60075 C 5676.15 -3.05878 1.65331 0
M  V30 60076 H 5675.47 -3.10489 2.51867 0
M  V30 60077 H 5676.91 -3.84418 1.78882 0
M  V30 60078 C 5675.37 -3.34654 0.388356 0
M  V30 60079 O 5675.9 -3.98492 -0.506676 0
M  V30 60080 N 5674.11 -2.89384 0.265615 0
M  V30 60081 H 5673.65 -2.37612 0.994903 0
M  V30 60082 H 5673.61 -3.09008 -0.57978 0
M  V30 60083 N 5677.38 -1.36041 -0.795646 0
M  V30 60084 C 5678.63 -1.29257 -1.54841 0
M  V30 60085 C 5678.94 0.127858 -1.95182 0
M  V30 60086 O 5680.15 0.318046 -2.69631 0
M  V30 60087 C 5678.61 -2.26746 -2.79489 0
M  V30 60088 C 5678.21 -3.74192 -2.46342 0
M  V30 60089 C 5679.96 -2.28926 -3.57482 0
M  V30 60090 C 5677.87 -4.63475 -3.67348 0
M  V30 60091 H 5676.8 -0.48029 -0.581238 0
M  V30 60092 H 5679.45 -1.61369 -0.873636 0
M  V30 60093 H 5677.83 -1.8762 -3.48733 0
M  V30 60094 H 5679 -4.22018 -1.85035 0
M  V30 60095 H 5677.32 -3.74727 -1.81573 0
M  V30 60096 H 5679.91 -2.92843 -4.47378 0
M  V30 60097 H 5680.26 -1.29604 -3.95611 0
M  V30 60098 H 5680.79 -2.66638 -2.95211 0
M  V30 60099 H 5677.53 -5.63836 -3.34319 0
M  V30 60100 H 5677.05 -4.20369 -4.27843 0
M  V30 60101 H 5678.73 -4.79439 -4.3445 0
M  V30 60102 N 5678.86 1.01908 -1.20218 0
M  V30 60103 C 5679.81 2.10397 -0.948782 0
M  V30 60104 C 5680.78 1.65665 0.120081 0
M  V30 60105 O 5681.96 1.90785 -0.0241217 0
M  V30 60106 C 5679.1 3.41396 -0.504252 0
M  V30 60107 C 5678.22 3.99619 -1.64099 0
M  V30 60108 C 5677.35 5.18669 -1.14701 0
M  V30 60109 C 5676.39 5.68969 -2.257 0
M  V30 60110 N 5675.53 6.79282 -1.77538 0
M  V30 60111 H 5680.37 2.31409 -1.87761 0
M  V30 60112 H 5677.9 1.13484 -0.935941 0
M  V30 60113 H 5679.86 4.16577 -0.227856 0
M  V30 60114 H 5678.49 3.20465 0.387576 0
M  V30 60115 H 5677.54 3.21558 -2.03236 0
M  V30 60116 H 5678.86 4.32957 -2.47689 0
M  V30 60117 H 5678.01 6.01045 -0.826434 0
M  V30 60118 H 5676.75 4.8689 -0.280968 0
M  V30 60119 H 5675.75 4.85199 -2.58577 0
M  V30 60120 H 5676.98 6.02783 -3.12776 0
M  V30 60121 H 5674.92 6.49338 -0.932567 0
M  V30 60122 H 5674.84 7.11799 -2.54711 0
M  V30 60123 H 5676.11 7.65229 -1.48473 0
M  V30 60124 N 5680.34 1.00767 1.21176 0
M  V30 60125 C 5681.27 0.590572 2.25908 0
M  V30 60126 C 5682.25 -0.389944 1.6557 0
M  V30 60127 O 5683.43 -0.277339 1.92209 0
M  V30 60128 C 5680.56 -0.0809167 3.47206 0
M  V30 60129 C 5679.52 0.819657 4.20078 0
M  V30 60130 C 5678.84 0.014432 5.34698 0
M  V30 60131 C 5680.14 2.12353 4.77183 0
M  V30 60132 H 5681.84 1.46604 2.61051 0
M  V30 60133 H 5679.38 0.706365 1.25485 0
M  V30 60134 H 5681.34 -0.384208 4.19645 0
M  V30 60135 H 5680.06 -0.991035 3.11201 0
M  V30 60136 H 5678.72 1.10681 3.49493 0
M  V30 60137 H 5678.37 -0.897059 4.94936 0
M  V30 60138 H 5678.07 0.614088 5.84382 0
M  V30 60139 H 5679.59 -0.282612 6.09946 0
M  V30 60140 H 5681.01 1.8832 5.41487 0
M  V30 60141 H 5679.4 2.67327 5.37268 0
M  V30 60142 H 5680.47 2.79252 3.96417 0
M  V30 60143 N 5681.82 -1.36787 0.782749 0
M  V30 60144 C 5682.75 -2.3272 0.190686 0
M  V30 60145 C 5683.73 -1.56323 -0.670608 0
M  V30 60146 O 5684.91 -1.84509 -0.605807 0
M  V30 60147 C 5682.04 -3.40566 -0.680597 0
M  V30 60148 C 5681 -4.27925 0.0802685 0
M  V30 60149 C 5680.32 -5.26879 -0.911176 0
M  V30 60150 C 5681.62 -5.06734 1.26563 0
M  V30 60151 H 5683.32 -2.82484 0.992122 0
M  V30 60152 H 5680.86 -1.35816 0.478531 0
M  V30 60153 H 5682.82 -4.06663 -1.10468 0
M  V30 60154 H 5681.54 -2.89353 -1.51467 0
M  V30 60155 H 5680.2 -3.63374 0.485253 0
M  V30 60156 H 5679.85 -4.71942 -1.7401 0
M  V30 60157 H 5679.55 -5.86192 -0.406556 0
M  V30 60158 H 5681.07 -5.9585 -1.33397 0
M  V30 60159 H 5682.48 -5.65908 0.917646 0
M  V30 60160 H 5680.88 -5.75426 1.70309 0
M  V30 60161 H 5681.95 -4.38765 2.06431 0
M  V30 60162 N 5683.29 -0.534202 -1.4827 0
M  V30 60163 C 5684.54 -0.00164053 -2.021 0
M  V30 60164 C 5684.86 1.34366 -1.41318 0
M  V30 60165 O 5684.13 1.87115 -0.580062 0
M  V30 60166 H 5682.71 0.00238163 -0.746996 0
M  V30 60167 H 5685.38 -0.698991 -1.81934 0
M  V30 60168 H 5684.47 0.103562 -3.11928 0
M  V30 60169 N 5684.77 1.55278 -0.269533 0
M  V30 60170 C 5686.02 1.99768 0.34936 0
M  V30 60171 C 5686.35 1.15767 1.55922 0
M  V30 60172 O 5685.63 0.226398 1.93178 0
M  V30 60173 C 5685.91 3.52477 0.737036 0
M  V30 60174 C 5685.76 4.47234 -0.479778 0
M  V30 60175 C 5687.08 4.1093 1.57559 0
M  V30 60176 H 5684.2 0.726234 0.12551 0
M  V30 60177 H 5686.84 1.86255 -0.375364 0
M  V30 60178 H 5684.99 3.64123 1.35451 0
M  V30 60179 H 5686.66 4.47539 -1.11832 0
M  V30 60180 H 5684.91 4.19123 -1.11885 0
M  V30 60181 H 5685.58 5.51754 -0.164847 0
M  V30 60182 H 5688.05 4.02526 1.05415 0
M  V30 60183 H 5686.93 5.18001 1.81566 0
M  V30 60184 H 5687.19 3.60807 2.55482 0
M  V30 60185 N 5686.25 -0.00327115 1.576 0
M  V30 60186 C 5687.5 -0.687442 1.90049 0
M  V30 60187 C 5687.82 -1.74494 0.87045 0
M  V30 60188 O 5687.09 -1.95681 -0.0925856 0
M  V30 60189 H 5685.67 -0.256899 0.701435 0
M  V30 60190 H 5688.33 0.0368814 1.94865 0
M  V30 60191 H 5687.43 -1.16076 2.89712 0
M  V30 60192 N 5687.73 -1.55165 -0.275976 0
M  V30 60193 C 5688.98 -1.75284 -1.00598 0
M  V30 60194 C 5689.3 -0.555321 -1.86926 0
M  V30 60195 O 5688.57 0.42985 -1.91126 0
M  V30 60196 H 5687.15 -0.64639 -0.374419 0
M  V30 60197 H 5689.81 -1.92563 -0.300924 0
M  V30 60198 H 5688.91 -2.65251 -1.64464 0
M  V30 60199 N 5689.21 0.540352 -1.48047 0
M  V30 60200 C 5690.15 1.64592 -1.61797 0
M  V30 60201 C 5691.12 1.59593 -0.460357 0
M  V30 60202 O 5692.31 1.78174 -0.682544 0
M  V30 60203 C 5689.45 3.02881 -1.65399 0
M  V30 60204 C 5688.56 3.18192 -2.92195 0
M  V30 60205 C 5687.7 4.46979 -2.87025 0
M  V30 60206 C 5686.74 4.55781 -4.08571 0
M  V30 60207 N 5685.87 5.75944 -4.01539 0
M  V30 60208 H 5690.71 1.52179 -2.56214 0
M  V30 60209 H 5688.25 0.741053 -1.2707 0
M  V30 60210 H 5690.21 3.82982 -1.6547 0
M  V30 60211 H 5688.84 3.1409 -0.744814 0
M  V30 60212 H 5687.89 2.31411 -3.01916 0
M  V30 60213 H 5689.2 3.20558 -3.82157 0
M  V30 60214 H 5688.36 5.35359 -2.8544 0
M  V30 60215 H 5687.09 4.47118 -1.94774 0
M  V30 60216 H 5686.1 3.6581 -4.10443 0
M  V30 60217 H 5687.32 4.57389 -5.01969 0
M  V30 60218 H 5685.27 5.77 -3.12102 0
M  V30 60219 H 5685.19 5.7976 -4.85195 0
M  V30 60220 H 5686.46 6.66639 -4.03996 0
M  V30 60221 N 5690.69 1.36461 0.78842 0
M  V30 60222 C 5692.1 1.2752 1.36366 0
M  V30 60223 C 5692.45 -0.0845562 1.96018 0
M  V30 60224 O 5691.57 -0.986042 1.9263 0
M  V30 60225 C 5692.17 2.30912 2.47922 0
M  V30 60226 C 5690.73 2.25656 3.01258 0
M  V30 60227 C 5689.87 2.15637 1.74344 0
M  V30 60228 H 5692.82 1.47326 0.589987 0
M  V30 60229 H 5692.85 1.94613 3.26965 0
M  V30 60230 H 5692.36 3.29865 2.04476 0
M  V30 60231 H 5690.46 1.30172 3.49122 0
M  V30 60232 H 5690.57 3.18385 3.58005 0
M  V30 60233 H 5688.94 1.61908 1.96616 0
M  V30 60234 H 5689.72 3.16479 1.33025 0
M  V30 60235 N 5692.16 -1.01269 1.20757 0
M  V30 60236 C 5693.4 -1.76467 1.03145 0
M  V30 60237 C 5693.77 -1.87158 -0.428465 0
M  V30 60238 O 5694.97 -2.58841 -0.724882 0
M  V30 60239 C 5693.24 -3.1434 1.70074 0
M  V30 60240 S 5694.8 -4.05525 1.67616 0
M  V30 60241 H 5691.62 -0.607277 0.369778 0
M  V30 60242 H 5694.22 -1.21227 1.53377 0
M  V30 60243 H 5692.92 -3.04187 2.75497 0
M  V30 60244 H 5692.45 -3.74655 1.1999 0
M  V30 60245 H 5694.47 -4.91068 0.711796 0
M  V30 60246 N 5693.64 -1.01408 -1.2064 0
M  V30 60247 C 5694.89 -0.69731 -1.89263 0
M  V30 60248 C 5695.2 0.776086 -1.79545 0
M  V30 60249 O 5696.41 1.20531 -2.43279 0
M  V30 60250 C 5694.87 -1.19683 -3.39417 0
M  V30 60251 C 5694.47 -2.69696 -3.57727 0
M  V30 60252 C 5696.22 -0.95537 -4.1361 0
M  V30 60253 C 5694.12 -3.13142 -5.01693 0
M  V30 60254 H 5693.05 -0.25713 -0.708802 0
M  V30 60255 H 5695.71 -1.22644 -1.36494 0
M  V30 60256 H 5694.09 -0.595699 -3.91494 0
M  V30 60257 H 5695.26 -3.35337 -3.16047 0
M  V30 60258 H 5693.58 -2.91957 -2.96901 0
M  V30 60259 H 5696.17 -1.25542 -5.19753 0
M  V30 60260 H 5696.52 0.108216 -4.16159 0
M  V30 60261 H 5697.05 -1.51975 -3.67625 0
M  V30 60262 H 5693.79 -4.18766 -5.04297 0
M  V30 60263 H 5693.31 -2.52219 -5.44193 0
M  V30 60264 H 5694.99 -3.05637 -5.70259 0
M  V30 60265 N 5695.12 1.3637 -0.789992 0
M  V30 60266 C 5696.07 2.30042 -0.186879 0
M  V30 60267 C 5697.04 1.52005 0.669609 0
M  V30 60268 O 5698.22 1.80509 0.618168 0
M  V30 60269 C 5695.36 3.38496 0.671875 0
M  V30 60270 C 5694.47 4.31522 -0.203218 0
M  V30 60271 C 5693.61 5.27059 0.661963 0
M  V30 60272 C 5692.65 6.11724 -0.21455 0
M  V30 60273 N 5691.79 6.99448 0.609646 0
M  V30 60274 H 5696.63 2.81034 -0.991147 0
M  V30 60275 H 5694.16 1.38329 -0.500336 0
M  V30 60276 H 5696.12 4.00024 1.18476 0
M  V30 60277 H 5694.75 2.88823 1.44157 0
M  V30 60278 H 5693.8 3.71143 -0.834075 0
M  V30 60279 H 5695.11 4.91002 -0.878561 0
M  V30 60280 H 5694.27 5.9388 1.24063 0
M  V30 60281 H 5693.01 4.68035 1.37093 0
M  V30 60282 H 5692.01 5.43866 -0.805618 0
M  V30 60283 H 5693.24 6.72824 -0.921126 0
M  V30 60284 H 5691.18 6.42931 1.30289 0
M  V30 60285 H 5691.1 7.56 -0.00800363 0
M  V30 60286 H 5692.37 7.70637 1.17212 0
M  V30 60287 N 5696.6 0.542057 1.47985 0
M  V30 60288 C 5697.84 0.0124012 2.02796 0
M  V30 60289 C 5698.18 -1.32784 1.41711 0
M  V30 60290 O 5697.45 -1.86046 0.567185 0
M  V30 60291 C 5697.73 -0.0968012 3.5997 0
M  V30 60292 C 5697.59 1.26946 4.31515 0
M  V30 60293 C 5698.91 -0.817702 4.32437 0
M  V30 60294 H 5696.03 0.0059807 0.736976 0
M  V30 60295 H 5698.67 0.701422 1.76579 0
M  V30 60296 H 5696.82 -0.68362 3.82438 0
M  V30 60297 H 5698.49 1.89832 4.2043 0
M  V30 60298 H 5696.73 1.84818 3.9246 0
M  V30 60299 H 5697.4 1.14592 5.39975 0
M  V30 60300 H 5699.88 -0.319603 4.14871 0
M  V30 60301 H 5698.76 -0.863035 5.42073 0
M  V30 60302 H 5699.02 -1.87061 4.00575 0
M  V30 60303 N 5698.08 -1.55133 0.277764 0
M  V30 60304 C 5699.04 -2.21329 -0.595492 0
M  V30 60305 C 5700.04 -1.19197 -1.07929 0
M  V30 60306 O 5701.23 -1.44085 -0.979043 0
M  V30 60307 C 5698.36 -2.88134 -1.82186 0
M  V30 60308 H 5699.55 -2.99895 -0.0174801 0
M  V30 60309 H 5697.11 -1.56274 0.0284002 0
M  V30 60310 H 5697.84 -2.13587 -2.44031 0
M  V30 60311 H 5697.63 -3.6298 -1.48284 0
M  V30 60312 H 5699.12 -3.387 -2.44279 0
M  V30 60313 N 5699.55 -0.00508679 -1.57599 0
M  V30 60314 C 5700.78 0.689541 -1.95072 0
M  V30 60315 C 5701.2 1.67025 -0.880241 0
M  V30 60316 O 5700.55 1.8196 0.140343 0
M  V30 60317 C 5700.6 1.41697 -3.32572 0
M  V30 60318 O 5700.33 0.475592 -4.35511 0
M  V30 60319 C 5701.83 2.20564 -3.84534 0
M  V30 60320 H 5699.05 0.191728 -0.643025 0
M  V30 60321 H 5701.59 -0.0577179 -2.04419 0
M  V30 60322 H 5699.75 2.11582 -3.24518 0
M  V30 60323 H 5700.16 0.989392 -5.15084 0
M  V30 60324 H 5701.63 2.66952 -4.83157 0
M  V30 60325 H 5702.11 3.03456 -3.17508 0
M  V30 60326 H 5702.72 1.55686 -3.9578 0
M  V30 60327 N 5701.03 1.55309 0.267743 0
M  V30 60328 C 5702.28 1.76424 1.00012 0
M  V30 60329 C 5702.61 0.566624 1.8575 0
M  V30 60330 O 5701.89 -0.435685 1.89557 0
M  V30 60331 C 5702.17 3.07235 1.87825 0
M  V30 60332 C 5702.02 4.37362 1.05046 0
M  V30 60333 C 5703.34 3.34123 2.86443 0
M  V30 60334 H 5700.46 0.641871 0.362174 0
M  V30 60335 H 5703.1 1.88041 0.272121 0
M  V30 60336 H 5701.25 2.97462 2.49897 0
M  V30 60337 H 5702.92 4.59099 0.450047 0
M  V30 60338 H 5701.17 4.32352 0.35409 0
M  V30 60339 H 5701.84 5.25229 1.6982 0
M  V30 60340 H 5704.31 3.43724 2.34507 0
M  V30 60341 H 5703.19 4.26908 3.45023 0
M  V30 60342 H 5703.45 2.54018 3.61839 0
M  V30 60343 N 5702.51 -0.532493 1.48332 0
M  V30 60344 C 5703.44 -1.65319 1.58752 0
M  V30 60345 C 5704.45 -1.55808 0.471979 0
M  V30 60346 O 5705.64 -1.62315 0.742713 0
M  V30 60347 C 5702.74 -3.03952 1.49888 0
M  V30 60348 C 5701.92 -3.3897 2.76439 0
M  V30 60349 C 5700.98 -4.56872 2.61064 0
M  V30 60350 O 5700 -4.60219 3.34944 0
M  V30 60351 N 5701.2 -5.54892 1.70516 0
M  V30 60352 H 5703.97 -1.56818 2.55398 0
M  V30 60353 H 5701.53 -0.719709 1.45023 0
M  V30 60354 H 5703.52 -3.80697 1.37301 0
M  V30 60355 H 5702.09 -3.06545 0.612265 0
M  V30 60356 H 5701.31 -2.51427 3.03608 0
M  V30 60357 H 5702.6 -3.5915 3.60401 0
M  V30 60358 H 5702 -5.54964 1.0969 0
M  V30 60359 H 5700.55 -6.30865 1.63869 0
M  V30 60360 N 5703.99 -1.36878 -0.781172 0
M  V30 60361 C 5705.21 -1.34906 -1.57528 0
M  V30 60362 C 5705.64 0.0654588 -1.87986 0
M  V30 60363 O 5705 1.03981 -1.48518 0
M  V30 60364 C 5705.04 -2.18573 -2.86807 0
M  V30 60365 O 5704.15 -1.58388 -3.80772 0
M  V30 60366 H 5703.49 -0.461372 -0.477527 0
M  V30 60367 H 5706.02 -1.80274 -0.967597 0
M  V30 60368 H 5706.03 -2.31448 -3.36 0
M  V30 60369 H 5704.7 -3.21395 -2.63966 0
M  V30 60370 H 5703.28 -1.54499 -3.39388 0
M  V30 60371 N 5705.47 1.00628 -1.21292 0
M  V30 60372 C 5706.41 2.09379 -0.971044 0
M  V30 60373 C 5707.38 1.65783 0.102503 0
M  V30 60374 O 5708.57 1.90748 -0.0443557 0
M  V30 60375 C 5705.71 3.40842 -0.540434 0
M  V30 60376 C 5704.82 3.97856 -1.68328 0
M  V30 60377 C 5703.96 5.17423 -1.20196 0
M  V30 60378 C 5703 5.66543 -2.31722 0
M  V30 60379 N 5702.13 6.77361 -1.84733 0
M  V30 60380 H 5706.97 2.29404 -1.90205 0
M  V30 60381 H 5704.51 1.12485 -0.947925 0
M  V30 60382 H 5706.47 4.16312 -0.272027 0
M  V30 60383 H 5705.1 3.20858 0.353564 0
M  V30 60384 H 5704.15 3.19384 -2.06635 0
M  V30 60385 H 5705.46 4.30305 -2.52267 0
M  V30 60386 H 5704.62 6.00135 -0.890137 0
M  V30 60387 H 5703.35 4.86565 -0.332593 0
M  V30 60388 H 5702.36 4.82429 -2.63708 0
M  V30 60389 H 5703.58 5.99432 -3.19152 0
M  V30 60390 H 5701.53 6.48312 -1.00138 0
M  V30 60391 H 5701.45 7.09058 -2.62246 0
M  V30 60392 H 5702.72 7.63612 -1.56581 0
M  V30 60393 N 5706.94 1.02047 1.20101 0
M  V30 60394 C 5707.88 0.538681 2.21751 0
M  V30 60395 C 5708.86 -0.415961 1.57189 0
M  V30 60396 O 5710.04 -0.335049 1.85498 0
M  V30 60397 C 5707.17 -0.215587 3.38013 0
M  V30 60398 C 5706.21 0.689198 4.20895 0
M  V30 60399 S 5707.05 2.16058 4.89979 0
M  V30 60400 C 5708.2 1.41658 6.09659 0
M  V30 60401 H 5708.43 1.39997 2.62275 0
M  V30 60402 H 5705.97 0.829686 1.30214 0
M  V30 60403 H 5707.93 -0.644656 4.05407 0
M  V30 60404 H 5706.59 -1.0525 2.95941 0
M  V30 60405 H 5705.78 0.107372 5.03886 0
M  V30 60406 H 5705.38 1.05621 3.58776 0
M  V30 60407 H 5707.67 0.698651 6.73888 0
M  V30 60408 H 5708.62 2.22278 6.72308 0
M  V30 60409 H 5709.02 0.917768 5.56989 0
M  V30 60410 N 5708.42 -1.3595 0.797213 0
M  V30 60411 C 5709.65 -2.03809 0.384281 0
M  V30 60412 C 5710.07 -1.59704 -0.993798 0
M  V30 60413 O 5709.43 -0.769206 -1.64173 0
M  V30 60414 C 5709.48 -3.57587 0.465179 0
M  V30 60415 O 5708.58 -4.09045 -0.524951 0
M  V30 60416 H 5707.92 -0.643951 0.161935 0
M  V30 60417 H 5710.45 -1.73743 1.08049 0
M  V30 60418 H 5710.46 -4.0665 0.331591 0
M  V30 60419 H 5709.14 -3.8904 1.47041 0
M  V30 60420 H 5707.72 -3.71231 -0.352379 0
M  V30 60421 N 5709.9 -0.549898 -1.47695 0
M  V30 60422 C 5711.18 0.0422106 -1.95554 0
M  V30 60423 C 5711.56 1.49298 -1.49243 0
M  V30 60424 O 5710.91 2.16595 -0.72792 0
M  V30 60425 C 5711.12 -0.0956778 -3.48869 0
M  V30 60426 C 5712.46 0.0534206 -4.24566 0
M  V30 60427 O 5713.49 -0.0228617 -3.56193 0
M  V30 60428 O 5712.35 0.216258 -5.46072 0
M  V30 60429 H 5709.44 0.0682175 -0.824182 0
M  V30 60430 H 5711.99 -0.615905 -1.58129 0
M  V30 60431 H 5710.76 -1.10549 -3.75359 0
M  V30 60432 H 5710.38 0.600384 -3.93041 0
M  V30 60433 N 5711.38 1.54983 -0.285987 0
M  V30 60434 C 5712.62 2.00127 0.328152 0
M  V30 60435 C 5712.96 1.17414 1.54685 0
M  V30 60436 O 5712.23 0.246874 1.92927 0
M  V30 60437 C 5712.52 3.53239 0.699609 0
M  V30 60438 C 5712.37 4.467 -0.527186 0
M  V30 60439 C 5713.69 4.12578 1.53191 0
M  V30 60440 H 5710.81 0.727525 0.1178 0
M  V30 60441 H 5713.45 1.85847 -0.395097 0
M  V30 60442 H 5711.6 3.65539 1.31581 0
M  V30 60443 H 5713.27 4.46328 -1.16573 0
M  V30 60444 H 5711.51 4.17913 -1.16324 0
M  V30 60445 H 5712.18 5.51548 -0.223359 0
M  V30 60446 H 5714.66 4.03621 1.0114 0
M  V30 60447 H 5713.54 5.19898 1.76062 0
M  V30 60448 H 5713.8 3.63496 2.51641 0
M  V30 60449 N 5712.86 0.0134446 1.57594 0
M  V30 60450 C 5713.8 -0.973597 2.0926 0
M  V30 60451 C 5714.77 -1.33295 0.991045 0
M  V30 60452 O 5715.96 -1.42899 1.2643 0
M  V30 60453 C 5713.1 -2.25593 2.61154 0
M  V30 60454 C 5712.21 -1.95442 3.85261 0
M  V30 60455 C 5711.35 -3.17856 4.25607 0
M  V30 60456 C 5710.39 -2.83452 5.42514 0
M  V30 60457 N 5709.52 -3.98443 5.78089 0
M  V30 60458 H 5714.36 -0.526086 2.9332 0
M  V30 60459 H 5711.9 -0.248097 1.44993 0
M  V30 60460 H 5713.86 -3.00577 2.89326 0
M  V30 60461 H 5712.49 -2.67989 1.79949 0
M  V30 60462 H 5711.54 -1.10768 3.63916 0
M  V30 60463 H 5712.85 -1.66094 4.70334 0
M  V30 60464 H 5712.01 -4.01174 4.55131 0
M  V30 60465 H 5710.74 -3.50353 3.3927 0
M  V30 60466 H 5709.75 -1.98544 5.12699 0
M  V30 60467 H 5710.97 -2.52188 6.30538 0
M  V30 60468 H 5708.92 -4.30812 4.94709 0
M  V30 60469 H 5708.84 -3.72665 6.57767 0
M  V30 60470 H 5710.11 -4.82511 6.12212 0
M  V30 60471 N 5714.33 -1.55449 -0.259503 0
M  V30 60472 C 5715.57 -1.78448 -0.996787 0
M  V30 60473 C 5715.94 -0.580927 -1.83001 0
M  V30 60474 O 5717.14 -0.689431 -2.59808 0
M  V30 60475 C 5715.41 -3.06101 -1.84491 0
M  V30 60476 S 5716.97 -3.50272 -2.64301 0
M  V30 60477 H 5713.79 -0.626865 -0.335501 0
M  V30 60478 H 5716.39 -1.93684 -0.265861 0
M  V30 60479 H 5715.09 -3.91776 -1.22227 0
M  V30 60480 H 5714.62 -2.93568 -2.61881 0
M  V30 60481 H 5716.64 -3.1061 -3.86957 0
M  V30 60482 N 5715.81 0.524619 -1.48612 0
M  V30 60483 C 5717.04 1.30476 -1.60573 0
M  V30 60484 C 5717.46 1.86888 -0.268018 0
M  V30 60485 O 5716.81 1.66671 0.74343 0
M  V30 60486 C 5716.86 2.45182 -2.65647 0
M  V30 60487 O 5716.58 1.91093 -3.94227 0
M  V30 60488 C 5718.09 3.3692 -2.88096 0
M  V30 60489 H 5715.31 0.396593 -0.541253 0
M  V30 60490 H 5717.85 0.632323 -1.94479 0
M  V30 60491 H 5716 3.083 -2.34585 0
M  V30 60492 H 5716.42 2.66218 -4.51916 0
M  V30 60493 H 5717.89 4.13742 -3.65406 0
M  V30 60494 H 5718.37 3.9248 -1.9712 0
M  V30 60495 H 5718.98 2.7959 -3.20483 0
M  V30 60496 N 5717.29 1.3729 0.773902 0
M  V30 60497 C 5718.52 1.35739 1.56811 0
M  V30 60498 C 5718.94 -0.0554885 1.88018 0
M  V30 60499 O 5718.3 -1.03192 1.49068 0
M  V30 60500 C 5718.35 2.2009 2.85644 0
M  V30 60501 O 5717.45 1.60405 3.79926 0
M  V30 60502 H 5716.79 0.463898 0.475074 0
M  V30 60503 H 5719.32 1.80785 0.958023 0
M  V30 60504 H 5719.33 2.33227 3.34767 0
M  V30 60505 H 5718.01 3.2279 2.62258 0
M  V30 60506 H 5716.58 1.56297 3.38564 0
M  V30 60507 N 5718.77 -0.999829 1.21824 0
M  V30 60508 C 5720.01 -1.74094 1.04015 0
M  V30 60509 C 5720.35 -1.895 -0.42465 0
M  V30 60510 O 5719.62 -1.43311 -1.315 0
M  V30 60511 C 5719.91 -3.15054 1.74393 0
M  V30 60512 C 5719.76 -3.07339 3.28425 0
M  V30 60513 C 5721.08 -4.14085 1.49069 0
M  V30 60514 H 5718.2 -0.631922 0.379267 0
M  V30 60515 H 5720.84 -1.16529 1.5007 0
M  V30 60516 H 5718.99 -3.64201 1.3524 0
M  V30 60517 H 5720.66 -2.65866 3.76979 0
M  V30 60518 H 5718.9 -2.44313 3.5846 0
M  V30 60519 H 5719.57 -4.07056 3.72839 0
M  V30 60520 H 5722.05 -3.73665 1.83067 0
M  V30 60521 H 5720.93 -5.10846 2.00818 0
M  V30 60522 H 5721.19 -4.40083 0.421795 0
M  V30 60523 N 5720.25 -1.02682 -1.19558 0
M  V30 60524 C 5721.49 -0.723152 -1.89469 0
M  V30 60525 C 5721.83 0.746206 -1.79291 0
M  V30 60526 O 5721.1 1.54318 -1.1839 0
M  V30 60527 C 5721.38 -1.17236 -3.40482 0
M  V30 60528 C 5721.24 -2.70278 -3.59541 0
M  V30 60529 C 5722.56 -0.751549 -4.33636 0
M  V30 60530 H 5719.68 -0.264179 -0.688025 0
M  V30 60531 H 5722.32 -1.27638 -1.40743 0
M  V30 60532 H 5720.47 -0.701679 -3.82111 0
M  V30 60533 H 5722.14 -3.25277 -3.27097 0
M  V30 60534 H 5720.38 -3.10768 -3.02664 0
M  V30 60535 H 5721.05 -2.96765 -4.6544 0
M  V30 60536 H 5723.53 -1.15635 -3.9971 0
M  V30 60537 H 5722.41 -1.09377 -5.37892 0
M  V30 60538 H 5722.67 0.346212 -4.40742 0
M  V30 60539 N 5721.73 1.35525 -0.804411 0
M  V30 60540 C 5722.66 2.32387 -0.227686 0
M  V30 60541 C 5723.64 1.5737 0.645654 0
M  V30 60542 O 5724.82 1.8545 0.576376 0
M  V30 60543 C 5721.95 3.41606 0.62633 0
M  V30 60544 C 5720.91 4.27743 -0.148337 0
M  V30 60545 C 5720.23 5.28262 0.827239 0
M  V30 60546 C 5721.53 5.04656 -1.34609 0
M  V30 60547 H 5723.23 2.8087 -1.03694 0
M  V30 60548 H 5720.77 1.35038 -0.500078 0
M  V30 60549 H 5722.72 4.08369 1.03984 0
M  V30 60550 H 5721.45 2.91726 1.46844 0
M  V30 60551 H 5720.11 3.62556 -0.543001 0
M  V30 60552 H 5719.76 4.74651 1.6648 0
M  V30 60553 H 5719.46 5.86764 0.313247 0
M  V30 60554 H 5720.98 5.97897 1.239 0
M  V30 60555 H 5722.39 5.64377 -1.00756 0
M  V30 60556 H 5720.79 5.72644 -1.79442 0
M  V30 60557 H 5721.86 4.35425 -2.13385 0
M  V30 60558 N 5723.2 0.557723 1.47402 0
M  V30 60559 C 5724.13 -0.177938 2.32821 0
M  V30 60560 C 5725.11 -0.908268 1.43821 0
M  V30 60561 O 5726.3 -0.888632 1.72676 0
M  V30 60562 C 5723.43 -1.20809 3.25611 0
M  V30 60563 C 5722.38 -0.594186 4.23855 0
M  V30 60564 C 5721.71 -1.72901 5.05974 0
M  V30 60565 C 5723.01 0.452379 5.20337 0
M  V30 60566 H 5724.7 0.535194 2.94578 0
M  V30 60567 H 5722.25 0.258825 1.41655 0
M  V30 60568 H 5724.2 -1.73091 3.8421 0
M  V30 60569 H 5722.93 -1.95117 2.6191 0
M  V30 60570 H 5721.59 -0.0926609 3.66483 0
M  V30 60571 H 5721.23 -2.46114 4.38676 0
M  V30 60572 H 5720.93 -1.32402 5.72489 0
M  V30 60573 H 5722.46 -2.25508 5.67432 0
M  V30 60574 H 5723.87 0.0156026 5.73298 0
M  V30 60575 H 5722.27 0.776278 5.95058 0
M  V30 60576 H 5723.34 1.34807 4.65784 0
M  V30 60577 N 5724.68 -1.5483 0.294202 0
M  V30 60578 C 5725.91 -2.04874 -0.322688 0
M  V30 60579 C 5726.33 -1.17039 -1.47253 0
M  V30 60580 O 5725.69 -0.173012 -1.80473 0
M  V30 60581 C 5725.74 -3.52434 -0.763066 0
M  V30 60582 O 5724.84 -3.67641 -1.86852 0
M  V30 60583 H 5724.18 -0.660928 -0.0637929 0
M  V30 60584 H 5726.71 -1.99943 0.434066 0
M  V30 60585 H 5726.72 -3.94159 -1.05371 0
M  V30 60586 H 5725.4 -4.15827 0.0780926 0
M  V30 60587 H 5723.97 -3.37822 -1.57895 0
M  V30 60588 N 5726.16 -0.021802 -1.57585 0
M  V30 60589 C 5727.41 0.659395 -1.91781 0
M  V30 60590 C 5727.74 1.72198 -0.897861 0
M  V30 60591 O 5727.01 1.94334 0.0804407 0
M  V30 60592 C 5727.3 1.28257 -3.36485 0
M  V30 60593 C 5727.15 0.230043 -4.49211 0
M  V30 60594 C 5728.47 2.20266 -3.81013 0
M  V30 60595 H 5725.59 0.238238 -0.697432 0
M  V30 60596 H 5728.23 -0.0775634 -1.89842 0
M  V30 60597 H 5726.38 1.91068 -3.38268 0
M  V30 60598 H 5728.05 -0.400063 -4.59562 0
M  V30 60599 H 5726.29 -0.445309 -4.31508 0
M  V30 60600 H 5726.97 0.70554 -5.47472 0
M  V30 60601 H 5729.44 1.6745 -3.8092 0
M  V30 60602 H 5728.32 2.60825 -4.82972 0
M  V30 60603 H 5728.58 3.09081 -3.16103 0
M  V30 60604 N 5727.64 1.55584 0.251256 0
M  V30 60605 C 5728.57 1.92965 1.31479 0
M  V30 60606 C 5729.55 0.794054 1.50429 0
M  V30 60607 O 5730.73 1.05399 1.6311 0
M  V30 60608 C 5727.86 2.22055 2.67037 0
M  V30 60609 C 5726.82 3.37825 2.62789 0
M  V30 60610 C 5726.14 3.52447 4.02101 0
M  V30 60611 C 5727.44 4.73634 2.20155 0
M  V30 60612 H 5729.14 2.82049 1.00441 0
M  V30 60613 H 5726.68 1.35703 0.481727 0
M  V30 60614 H 5728.64 2.46795 3.4157 0
M  V30 60615 H 5727.36 1.29792 2.99702 0
M  V30 60616 H 5726.02 3.13088 1.90713 0
M  V30 60617 H 5725.67 2.57612 4.32025 0
M  V30 60618 H 5725.37 4.30297 4.00148 0
M  V30 60619 H 5726.89 3.79503 4.78341 0
M  V30 60620 H 5728.31 4.97774 2.84418 0
M  V30 60621 H 5726.7 5.54555 2.29321 0
M  V30 60622 H 5727.77 4.70989 1.15314 0
M  V30 60623 N 5729.12 -0.516731 1.48888 0
M  V30 60624 C 5730.05 -1.63626 1.60497 0
M  V30 60625 C 5731.06 -1.55299 0.488478 0
M  V30 60626 O 5732.25 -1.61518 0.759887 0
M  V30 60627 C 5729.35 -3.02345 1.53103 0
M  V30 60628 C 5728.52 -3.36019 2.80018 0
M  V30 60629 C 5727.58 -4.54077 2.65895 0
M  V30 60630 O 5726.61 -4.5664 3.39806 0
M  V30 60631 N 5727.81 -5.53052 1.76392 0
M  V30 60632 H 5730.57 -1.541 2.57047 0
M  V30 60633 H 5728.14 -0.704287 1.45779 0
M  V30 60634 H 5730.13 -3.7922 1.41331 0
M  V30 60635 H 5728.7 -3.05879 0.644744 0
M  V30 60636 H 5727.92 -2.48193 3.06258 0
M  V30 60637 H 5729.21 -3.55307 3.6419 0
M  V30 60638 H 5728.6 -5.53769 1.1557 0
M  V30 60639 H 5727.16 -6.29091 1.70551 0
M  V30 60640 N 5730.59 -1.37698 -0.766611 0
M  V30 60641 C 5731.53 -1.29756 -1.88934 0
M  V30 60642 C 5732.54 -0.212335 -1.61409 0
M  V30 60643 O 5733.73 -0.468885 -1.72232 0
M  V30 60644 C 5730.83 -0.984667 -3.2428 0
M  V30 60645 C 5730 -2.17639 -3.7941 0
M  V30 60646 C 5729.06 -1.83296 -4.93243 0
M  V30 60647 O 5728.09 -2.55649 -5.08559 0
M  V30 60648 N 5729.29 -0.780143 -5.75234 0
M  V30 60649 H 5732.05 -2.26498 -1.96261 0
M  V30 60650 H 5729.61 -1.3139 -0.945955 0
M  V30 60651 H 5731.61 -0.735676 -3.97957 0
M  V30 60652 H 5730.18 -0.105637 -3.12421 0
M  V30 60653 H 5729.4 -2.58682 -2.97451 0
M  V30 60654 H 5730.68 -2.97202 -4.12975 0
M  V30 60655 H 5730.08 -0.179859 -5.65414 0
M  V30 60656 H 5728.64 -0.591018 -6.49115 0
M  V30 60657 N 5732.07 0.993354 -1.22353 0
M  V30 60658 C 5733 2.10167 -1.01744 0
M  V30 60659 C 5733.98 1.69989 0.0614678 0
M  V30 60660 O 5735.17 1.93939 -0.100659 0
M  V30 60661 C 5732.3 3.42184 -0.593922 0
M  V30 60662 C 5731.25 3.96209 -1.61871 0
M  V30 60663 C 5730.58 5.24268 -1.05105 0
M  V30 60664 C 5731.88 4.26945 -3.00857 0
M  V30 60665 H 5733.57 2.27666 -1.94444 0
M  V30 60666 H 5731.12 1.09405 -0.936297 0
M  V30 60667 H 5733.07 4.19129 -0.436862 0
M  V30 60668 H 5731.79 3.24512 0.368741 0
M  V30 60669 H 5730.45 3.21395 -1.76354 0
M  V30 60670 H 5730.1 5.02937 -0.0797515 0
M  V30 60671 H 5729.8 5.61381 -1.73567 0
M  V30 60672 H 5731.33 6.03848 -0.905561 0
M  V30 60673 H 5732.74 4.94689 -2.89751 0
M  V30 60674 H 5731.14 4.75229 -3.66439 0
M  V30 60675 H 5732.21 3.34739 -3.50824 0
M  V30 60676 N 5733.55 1.03315 1.19012 0
M  V30 60677 C 5734.97 0.750995 1.40827 0
M  V30 60678 C 5735.17 -0.662637 1.90293 0
M  V30 60679 O 5734.22 -1.42799 2.08242 0
M  V30 60680 C 5735.53 1.79073 2.41565 0
M  V30 60681 C 5737.08 1.81077 2.55304 0
M  V30 60682 C 5737.56 2.84021 3.593 0
M  V30 60683 N 5739.05 2.82864 3.668 0
M  V30 60684 C 5739.78 3.59171 4.46971 0
M  V30 60685 N 5739.28 4.45207 5.30813 0
M  V30 60686 N 5741.07 3.47694 4.41662 0
M  V30 60687 H 5733.22 1.94551 0.852261 0
M  V30 60688 H 5735.49 0.841359 0.436828 0
M  V30 60689 H 5735.19 2.80432 2.12251 0
M  V30 60690 H 5735.07 1.61658 3.40803 0
M  V30 60691 H 5737.45 0.803925 2.83938 0
M  V30 60692 H 5737.53 2.02568 1.56205 0
M  V30 60693 H 5737.18 3.84879 3.31407 0
M  V30 60694 H 5737.11 2.59787 4.58059 0
M  V30 60695 H 5739.6 2.20468 3.06924 0
M  V30 60696 H 5739.91 5.0016 5.89118 0
M  V30 60697 H 5738.26 4.49277 5.30259 0
M  V30 60698 H 5741.45 2.7989 3.75206 0
M  V30 60699 H 5741.62 4.07414 5.03903 0
M  V30 60700 N 5735.03 -1.35096 0.811587 0
M  V30 60701 C 5736.27 -1.98918 0.394885 0
M  V30 60702 C 5736.61 -1.64223 -1.03655 0
M  V30 60703 O 5735.88 -0.908091 -1.72 0
M  V30 60704 C 5736.17 -3.55329 0.584255 0
M  V30 60705 C 5736.02 -3.99804 2.06098 0
M  V30 60706 C 5737.34 -4.40098 0.0130643 0
M  V30 60707 H 5734.46 -0.722605 0.144952 0
M  V30 60708 H 5737.1 -1.60169 1.02205 0
M  V30 60709 H 5735.25 -3.88467 0.0503812 0
M  V30 60710 H 5736.92 -3.77052 2.65762 0
M  V30 60711 H 5735.16 -3.5053 2.5556 0
M  V30 60712 H 5735.83 -5.08647 2.14434 0
M  V30 60713 H 5738.31 -4.13448 0.469063 0
M  V30 60714 H 5737.19 -5.4862 0.175445 0
M  V30 60715 H 5737.45 -4.28679 -1.08105 0
M  V30 60716 N 5736.51 -0.565532 -1.47104 0
M  V30 60717 C 5737.42 0.180406 -2.33905 0
M  V30 60718 C 5738.43 0.903498 -1.48704 0
M  V30 60719 O 5739.61 0.870531 -1.81614 0
M  V30 60720 C 5736.67 1.192 -3.25564 0
M  V30 60721 C 5735.73 0.475439 -4.26659 0
M  V30 60722 C 5734.97 1.43884 -5.13939 0
M  V30 60723 O 5735.19 2.67425 -5.03825 0
M  V30 60724 O 5734.12 0.958789 -5.94214 0
M  V30 60725 H 5737.95 -0.531831 -2.99007 0
M  V30 60726 H 5735.54 -0.326071 -1.45798 0
M  V30 60727 H 5737.42 1.77573 -3.82159 0
M  V30 60728 H 5736.09 1.88601 -2.6308 0
M  V30 60729 H 5735 -0.149693 -3.738 0
M  V30 60730 H 5736.33 -0.177276 -4.91881 0
M  V30 60731 N 5737.98 1.54671 -0.302409 0
M  V30 60732 C 5739.21 2.05043 0.311819 0
M  V30 60733 C 5739.63 1.17819 1.4663 0
M  V30 60734 O 5738.99 0.182581 1.80378 0
M  V30 60735 C 5739.04 3.52834 0.744365 0
M  V30 60736 O 5738.14 3.68627 1.849 0
M  V30 60737 H 5737.49 0.661257 0.060287 0
M  V30 60738 H 5740.02 1.9971 -0.444663 0
M  V30 60739 H 5740.03 3.94712 1.03279 0
M  V30 60740 H 5738.7 4.15779 -0.100144 0
M  V30 60741 H 5737.28 3.38654 1.56101 0
M  V30 60742 N 5739.46 0.0301588 1.57571 0
M  V30 60743 C 5740.69 -0.661976 1.96552 0
M  V30 60744 C 5741.11 -1.64808 0.906638 0
M  V30 60745 O 5740.47 -1.80816 -0.132351 0
M  V30 60746 C 5740.52 -1.34377 3.34627 0
M  V30 60747 O 5739.62 -2.45907 3.31064 0
M  V30 60748 H 5738.96 -0.17382 0.640845 0
M  V30 60749 H 5741.49 0.0923199 2.04392 0
M  V30 60750 H 5741.5 -1.70032 3.70881 0
M  V30 60751 H 5740.18 -0.620948 4.11238 0
M  V30 60752 H 5738.76 -2.12356 3.06528 0
M  V30 60753 N 5740.94 -1.55715 -0.243001 0
M  V30 60754 C 5742.17 -1.82129 -0.992155 0
M  V30 60755 C 5742.59 -0.607728 -1.78012 0
M  V30 60756 O 5741.95 0.443289 -1.75797 0
M  V30 60757 C 5742 -3.06321 -1.90263 0
M  V30 60758 O 5741.1 -2.8351 -2.99493 0
M  V30 60759 H 5740.44 -0.601092 -0.282106 0
M  V30 60760 H 5742.97 -2.02905 -0.262809 0
M  V30 60761 H 5742.98 -3.35858 -2.31654 0
M  V30 60762 H 5741.66 -3.94286 -1.3233 0
M  V30 60763 H 5740.23 -2.6515 -2.62202 0
M  V30 60764 N 5742.42 0.508828 -1.4916 0
M  V30 60765 C 5743.37 1.61123 -1.65251 0
M  V30 60766 C 5744.34 1.58581 -0.494105 0
M  V30 60767 O 5745.52 1.76686 -0.720184 0
M  V30 60768 C 5742.66 2.99305 -1.71787 0
M  V30 60769 C 5741.77 3.11922 -2.98879 0
M  V30 60770 C 5740.91 4.4079 -2.96442 0
M  V30 60771 C 5739.95 4.47012 -4.18147 0
M  V30 60772 N 5739.08 5.67297 -4.13665 0
M  V30 60773 H 5743.92 1.46711 -2.59384 0
M  V30 60774 H 5741.46 0.713932 -1.28613 0
M  V30 60775 H 5743.42 3.79386 -1.73557 0
M  V30 60776 H 5742.05 3.12439 -0.811269 0
M  V30 60777 H 5741.1 2.24955 -3.06756 0
M  V30 60778 H 5742.41 3.1238 -3.88871 0
M  V30 60779 H 5741.57 5.29184 -2.96731 0
M  V30 60780 H 5740.31 4.42886 -2.04215 0
M  V30 60781 H 5739.31 3.57021 -4.1811 0
M  V30 60782 H 5740.54 4.46638 -5.11558 0
M  V30 60783 H 5738.48 5.7025 -3.24271 0
M  V30 60784 H 5738.4 5.69338 -4.97384 0
M  V30 60785 H 5739.67 6.5792 -4.18045 0
M  V30 60786 N 5743.9 1.38103 0.759297 0
M  V30 60787 C 5744.83 1.37585 1.8866 0
M  V30 60788 C 5745.81 0.242588 1.68361 0
M  V30 60789 O 5746.99 0.444817 1.89037 0
M  V30 60790 C 5744.12 1.19448 3.26113 0
M  V30 60791 C 5743.08 2.29918 3.61001 0
M  V30 60792 C 5742.4 1.96892 4.9713 0
M  V30 60793 C 5743.7 3.72156 3.66465 0
M  V30 60794 H 5745.4 2.31919 1.89351 0
M  V30 60795 H 5742.94 1.11635 0.909591 0
M  V30 60796 H 5744.9 1.17712 4.04625 0
M  V30 60797 H 5743.62 0.215734 3.25887 0
M  V30 60798 H 5742.28 2.3083 2.84804 0
M  V30 60799 H 5741.93 0.975153 4.93457 0
M  V30 60800 H 5741.63 2.70874 5.21441 0
M  V30 60801 H 5743.15 1.96764 5.78028 0
M  V30 60802 H 5744.56 3.73306 4.35104 0
M  V30 60803 H 5742.96 4.45296 4.02283 0
M  V30 60804 H 5744.03 4.04883 2.66828 0
M  V30 60805 N 5745.37 -0.986851 1.22878 0
M  V30 60806 C 5746.62 -1.73067 1.06862 0
M  V30 60807 C 5746.98 -1.88378 -0.391364 0
M  V30 60808 O 5746.27 -1.42027 -1.28604 0
M  V30 60809 C 5746.46 -3.13277 1.72023 0
M  V30 60810 C 5746.29 -3.11641 3.24207 0
M  V30 60811 C 5745.06 -3.17193 3.9334 0
M  V30 60812 C 5747.26 -2.95316 4.21062 0
M  V30 60813 N 5745.24 -3.05374 5.3256 0
M  V30 60814 C 5746.61 -2.9159 5.47152 0
M  V30 60815 C 5748.67 -2.79752 4.11878 0
M  V30 60816 C 5747.37 -2.73893 6.65113 0
M  V30 60817 C 5749.4 -2.63418 5.29495 0
M  V30 60818 C 5748.76 -2.60385 6.54507 0
M  V30 60819 H 5744.86 -0.642681 0.445517 0
M  V30 60820 H 5747.44 -1.17152 1.5551 0
M  V30 60821 H 5745.61 -3.67423 1.25917 0
M  V30 60822 H 5747.34 -3.76256 1.49043 0
M  V30 60823 H 5744.1 -3.25117 3.44378 0
M  V30 60824 H 5744.52 -3.02757 6.0553 0
M  V30 60825 H 5749.17 -2.80891 3.16006 0
M  V30 60826 H 5746.88 -2.71499 7.61127 0
M  V30 60827 H 5750.47 -2.52349 5.24225 0
M  V30 60828 H 5749.35 -2.47902 7.43986 0
M  V30 60829 N 5746.85 -1.03945 -1.18462 0
M  V30 60830 C 5747.82 -0.633882 -2.2026 0
M  V30 60831 C 5748.82 0.308081 -1.57821 0
M  V30 60832 O 5750.01 0.0936476 -1.73948 0
M  V30 60833 C 5747.14 0.0708495 -3.40826 0
M  V30 60834 H 5748.33 -1.53473 -2.57655 0
M  V30 60835 H 5745.88 -0.831853 -1.32325 0
M  V30 60836 H 5746.62 0.985551 -3.08962 0
M  V30 60837 H 5746.4 -0.606159 -3.87386 0
M  V30 60838 H 5747.89 0.341152 -4.16204 0
M  V30 60839 N 5748.33 1.34664 -0.81874 0
M  V30 60840 C 5749.26 2.28367 -0.195206 0
M  V30 60841 C 5750.28 1.50838 0.612509 0
M  V30 60842 O 5751.46 1.72919 0.442875 0
M  V30 60843 C 5748.56 3.30603 0.745295 0
M  V30 60844 C 5747.74 4.37396 -0.0186846 0
M  V30 60845 C 5746.8 5.19418 0.842115 0
M  V30 60846 O 5745.82 5.68468 0.288621 0
M  V30 60847 N 5747.02 5.38717 2.16251 0
M  V30 60848 H 5749.79 2.82516 -1.00023 0
M  V30 60849 H 5747.35 1.47143 -0.675314 0
M  V30 60850 H 5749.34 3.82372 1.32567 0
M  V30 60851 H 5747.91 2.7688 1.45108 0
M  V30 60852 H 5747.13 3.86399 -0.780341 0
M  V30 60853 H 5748.42 5.05875 -0.544753 0
M  V30 60854 H 5747.82 5.00532 2.63598 0
M  V30 60855 H 5746.38 5.93619 2.69183 0
M  V30 60856 N 5749.81 0.573325 1.46802 0
M  V30 60857 C 5751.05 0.0578949 2.04318 0
M  V30 60858 C 5751.41 -1.27419 1.43626 0
M  V30 60859 O 5752.61 -1.87828 1.92286 0
M  V30 60860 C 5750.89 -0.0166974 3.57396 0
M  V30 60861 S 5752.44 -0.475914 4.36212 0
M  V30 60862 H 5749.26 0.0329275 0.710237 0
M  V30 60863 H 5751.86 0.763704 1.79966 0
M  V30 60864 H 5750.57 0.956897 3.99089 0
M  V30 60865 H 5750.1 -0.745566 3.8627 0
M  V30 60866 H 5752.11 -1.73252 4.64971 0
M  V30 60867 N 5751.29 -1.54509 0.310607 0
M  V30 60868 C 5752.53 -2.00624 -0.296272 0
M  V30 60869 C 5752.87 -1.19861 -1.52798 0
M  V30 60870 O 5752.14 -0.277536 -1.9251 0
M  V30 60871 C 5752.42 -3.54307 -0.643324 0
M  V30 60872 C 5752.28 -4.45805 0.598186 0
M  V30 60873 C 5753.6 -4.14963 -1.46608 0
M  V30 60874 H 5750.72 -0.729307 -0.106211 0
M  V30 60875 H 5753.36 -1.85195 0.424614 0
M  V30 60876 H 5751.51 -3.67586 -1.25749 0
M  V30 60877 H 5753.18 -4.44417 1.23659 0
M  V30 60878 H 5751.42 -4.16009 1.22958 0
M  V30 60879 H 5752.09 -5.51123 0.311077 0
M  V30 60880 H 5754.57 -4.05179 -0.947057 0
M  V30 60881 H 5753.45 -5.22633 -1.67768 0
M  V30 60882 H 5753.71 -3.67453 -2.45826 0
M  V30 60883 N 5752.77 -0.0385148 -1.57553 0
M  V30 60884 C 5753.7 0.969112 -2.07704 0
M  V30 60885 C 5754.71 1.28287 -1.00231 0
M  V30 60886 O 5755.9 1.24588 -1.27829 0
M  V30 60887 C 5753 2.29405 -2.49452 0
M  V30 60888 C 5752.17 2.16408 -3.80113 0
M  V30 60889 C 5751.23 3.31917 -4.08311 0
M  V30 60890 O 5750.26 3.08384 -4.78422 0
M  V30 60891 N 5751.46 4.56003 -3.59224 0
M  V30 60892 H 5754.22 0.541149 -2.94774 0
M  V30 60893 H 5751.79 0.148027 -1.61222 0
M  V30 60894 H 5753.78 3.05523 -2.65401 0
M  V30 60895 H 5752.35 2.63811 -1.67697 0
M  V30 60896 H 5751.57 1.24959 -3.7387 0
M  V30 60897 H 5752.86 2.04938 -4.65702 0
M  V30 60898 H 5752.25 4.78015 -3.0252 0
M  V30 60899 H 5750.81 5.29257 -3.80434 0
M  V30 60900 N 5754.24 1.55842 0.23474 0
M  V30 60901 C 5755.17 1.94348 1.29425 0
M  V30 60902 C 5756.15 0.809964 1.49578 0
M  V30 60903 O 5757.34 1.07123 1.61983 0
M  V30 60904 C 5754.47 2.24875 2.64667 0
M  V30 60905 C 5753.42 3.40594 2.59191 0
M  V30 60906 C 5752.75 3.56692 3.9834 0
M  V30 60907 C 5754.05 4.75943 2.15119 0
M  V30 60908 H 5755.74 2.83099 0.974441 0
M  V30 60909 H 5753.29 1.36207 0.467307 0
M  V30 60910 H 5755.24 2.50404 3.38934 0
M  V30 60911 H 5753.97 1.32964 2.98309 0
M  V30 60912 H 5752.63 3.15093 1.87382 0
M  V30 60913 H 5752.27 2.62179 4.29268 0
M  V30 60914 H 5751.97 4.34517 3.95562 0
M  V30 60915 H 5753.5 3.84555 4.74289 0
M  V30 60916 H 5754.91 5.00763 2.79123 0
M  V30 60917 H 5753.31 5.56956 2.23427 0
M  V30 60918 H 5754.38 4.72186 1.10312 0
M  V30 60919 N 5755.72 -0.50091 1.49428 0
M  V30 60920 C 5756.67 -1.59933 1.62497 0
M  V30 60921 C 5757.66 -1.53554 0.480638 0
M  V30 60922 O 5758.85 -1.61082 0.733595 0
M  V30 60923 C 5755.98 -2.98543 1.6949 0
M  V30 60924 C 5755.06 -3.09919 2.89502 0
M  V30 60925 N 5755.45 -2.91184 4.13577 0
M  V30 60926 C 5753.75 -3.41019 2.8744 0
M  V30 60927 C 5754.45 -3.06744 4.9425 0
M  V30 60928 N 5753.43 -3.35624 4.27618 0
M  V30 60929 H 5757.23 -1.44102 2.56148 0
M  V30 60930 H 5754.74 -0.707037 1.46201 0
M  V30 60931 H 5756.74 -3.77484 1.76951 0
M  V30 60932 H 5755.4 -3.15444 0.769769 0
M  V30 60933 H 5756.41 -2.67357 4.43555 0
M  V30 60934 H 5753.09 -3.64095 2.04306 0
M  V30 60935 H 5754.48 -2.9675 6.02817 0
M  V30 60936 N 5757.2 -1.38504 -0.751963 0
M  V30 60937 C 5758.15 -1.35982 -1.88711 0
M  V30 60938 C 5759.14 -0.245451 -1.67612 0
M  V30 60939 O 5760.35 -0.414575 -1.75161 0
M  V30 60940 H 5756.72 -0.424242 -0.620904 0
M  V30 60941 H 5758.69 -2.31767 -1.87954 0
M  V30 60942 C 5757.44 -1.20337 -3.26212 0
M  V30 60943 H 5756.77 -2.05348 -3.43034 0
M  V30 60944 H 5758.21 -1.22627 -4.0588 0
M  V30 60945 C 5756.66 0.0895845 -3.36781 0
M  V30 60946 O 5757.19 1.06602 -3.87297 0
M  V30 60947 N 5755.4 0.146963 -2.90228 0
M  V30 60948 H 5754.95 -0.648303 -2.49309 0
M  V30 60949 H 5754.91 1.01163 -2.9768 0
M  V30 60950 N 5758.68 0.980321 -1.234 0
M  V30 60951 C 5759.95 1.69603 -0.974379 0
M  V30 60952 C 5760.33 2.04921 0.506992 0
M  V30 60953 O 5759.68 1.74245 1.47821 0
M  V30 60954 C 5759.89 2.93736 -1.88467 0
M  V30 60955 C 5761.24 3.66249 -2.14819 0
M  V30 60956 O 5762.26 3.03769 -1.86018 0
M  V30 60957 O 5761.12 4.78689 -2.63665 0
M  V30 60958 H 5758.22 0.740866 -0.367488 0
M  V30 60959 H 5760.76 1.03554 -1.34442 0
M  V30 60960 H 5759.54 2.64234 -2.88611 0
M  V30 60961 H 5759.16 3.67522 -1.51701 0
M  V30 60962 N 5760.16 1.04571 1.17909 0
M  V30 60963 C 5761.4 0.747245 1.87348 0
M  V30 60964 C 5761.72 -0.72821 1.81539 0
M  V30 60965 O 5762.92 -1.14039 2.46389 0
M  V30 60966 C 5761.38 1.2864 3.36124 0
M  V30 60967 C 5760.99 2.79085 3.5045 0
M  V30 60968 C 5762.73 1.0647 4.10931 0
M  V30 60969 C 5760.64 3.26333 4.93214 0
M  V30 60970 H 5759.57 0.275832 0.701736 0
M  V30 60971 H 5762.22 1.2622 1.33195 0
M  V30 60972 H 5760.6 0.699288 3.89777 0
M  V30 60973 H 5761.78 3.43598 3.07045 0
M  V30 60974 H 5760.09 2.99726 2.89056 0
M  V30 60975 H 5762.69 1.39278 5.16242 0
M  V30 60976 H 5763.03 0.00215933 4.163 0
M  V30 60977 H 5763.56 1.61669 3.63467 0
M  V30 60978 H 5760.3 4.31989 4.93017 0
M  V30 60979 H 5759.82 2.66559 5.37314 0
M  V30 60980 H 5761.5 3.20649 5.61955 0
M  V30 60981 N 5761.63 -1.34228 0.82587 0
M  V30 60982 C 5762.56 -2.31996 0.264628 0
M  V30 60983 C 5763.54 -1.58377 -0.620536 0
M  V30 60984 O 5764.73 -1.86343 -0.5468 0
M  V30 60985 C 5761.86 -3.42559 -0.571904 0
M  V30 60986 C 5760.81 -4.27453 0.216369 0
M  V30 60987 C 5760.14 -5.29511 -0.743092 0
M  V30 60988 C 5761.44 -5.02451 1.42621 0
M  V30 60989 H 5763.13 -2.79185 1.08149 0
M  V30 60990 H 5760.68 -1.34225 0.521498 0
M  V30 60991 H 5762.63 -4.09972 -0.974744 0
M  V30 60992 H 5761.36 -2.94026 -1.42185 0
M  V30 60993 H 5760.02 -3.61647 0.600612 0
M  V30 60994 H 5759.66 -4.77239 -1.58907 0
M  V30 60995 H 5759.36 -5.87189 -0.219858 0
M  V30 60996 H 5760.89 -5.99793 -1.14373 0
M  V30 60997 H 5762.3 -5.62702 1.09722 0
M  V30 60998 H 5760.7 -5.69716 1.88529 0
M  V30 60999 H 5761.77 -4.31975 2.20285 0
M  V30 61000 N 5763.11 -0.581102 -1.46496 0
M  V30 61001 C 5764.04 0.140875 -2.33075 0
M  V30 61002 C 5765.02 0.885272 -1.45248 0
M  V30 61003 O 5766.21 0.861048 -1.74068 0
M  V30 61004 C 5763.34 1.15613 -3.27492 0
M  V30 61005 C 5762.29 0.526679 -4.24747 0
M  V30 61006 C 5761.62 1.64829 -5.0866 0
M  V30 61007 C 5762.92 -0.535103 -5.19552 0
M  V30 61008 H 5764.61 -0.581991 -2.93689 0
M  V30 61009 H 5762.16 -0.281328 -1.41225 0
M  V30 61010 H 5764.11 1.66956 -3.86915 0
M  V30 61011 H 5762.83 1.90926 -2.64981 0
M  V30 61012 H 5761.49 0.034345 -3.66584 0
M  V30 61013 H 5761.14 2.39104 -4.42536 0
M  V30 61014 H 5760.84 1.23277 -5.74523 0
M  V30 61015 H 5762.37 2.16452 -5.70948 0
M  V30 61016 H 5763.78 -0.106807 -5.732 0
M  V30 61017 H 5762.18 -0.870848 -5.93748 0
M  V30 61018 H 5763.25 -1.422 -4.63581 0
M  V30 61019 N 5764.59 1.54342 -0.318797 0
M  V30 61020 C 5765.55 2.2283 0.536601 0
M  V30 61021 C 5766.55 1.22017 1.04731 0
M  V30 61022 O 5767.74 1.4663 0.940497 0
M  V30 61023 C 5764.88 2.92863 1.74482 0
M  V30 61024 H 5766.07 2.99836 -0.0620379 0
M  V30 61025 H 5763.62 1.56144 -0.0698236 0
M  V30 61026 H 5764.36 2.19982 2.38283 0
M  V30 61027 H 5764.14 3.66784 1.38608 0
M  V30 61028 H 5765.63 3.45058 2.35213 0
M  V30 61029 N 5766.07 0.0468696 1.5753 0
M  V30 61030 C 5767.02 -0.928991 2.11278 0
M  V30 61031 C 5767.99 -1.31163 1.0191 0
M  V30 61032 O 5769.17 -1.40185 1.29433 0
M  V30 61033 C 5766.31 -2.20003 2.65881 0
M  V30 61034 C 5765.42 -1.87226 3.8932 0
M  V30 61035 C 5764.56 -3.08757 4.32253 0
M  V30 61036 C 5763.6 -2.71881 5.48404 0
M  V30 61037 N 5762.73 -3.86092 5.86411 0
M  V30 61038 H 5767.57 -0.46375 2.94369 0
M  V30 61039 H 5765.11 -0.217287 1.45486 0
M  V30 61040 H 5767.07 -2.94372 2.95636 0
M  V30 61041 H 5765.7 -2.64112 1.85593 0
M  V30 61042 H 5764.75 -1.03024 3.66183 0
M  V30 61043 H 5766.06 -1.5608 4.73752 0
M  V30 61044 H 5765.22 -3.91429 4.63538 0
M  V30 61045 H 5763.96 -3.43078 3.46625 0
M  V30 61046 H 5762.96 -1.87624 5.16795 0
M  V30 61047 H 5764.19 -2.38757 6.35745 0
M  V30 61048 H 5762.13 -4.20222 5.03736 0
M  V30 61049 H 5762.05 -3.58629 6.65523 0
M  V30 61050 H 5763.32 -4.69416 6.22309 0
M  V30 61051 N 5767.55 -1.55964 -0.226472 0
M  V30 61052 C 5768.82 -1.69531 -0.975629 0
M  V30 61053 C 5769.2 -0.592706 -2.02608 0
M  V30 61054 O 5768.55 0.400994 -2.24954 0
M  V30 61055 C 5768.76 -3.1065 -1.59052 0
M  V30 61056 C 5770.11 -3.69902 -2.08465 0
M  V30 61057 O 5771.13 -3.1358 -1.68955 0
M  V30 61058 O 5769.99 -4.68682 -2.81069 0
M  V30 61059 H 5767.09 -0.690301 -0.455427 0
M  V30 61060 H 5769.63 -1.68286 -0.218642 0
M  V30 61061 H 5768.4 -3.82358 -0.831769 0
M  V30 61062 H 5768.03 -3.15993 -2.41318 0
M  V30 61063 N 5769.02 0.492978 -1.49691 0
M  V30 61064 C 5770.25 1.27041 -1.63304 0
M  V30 61065 C 5770.67 1.86277 -0.307599 0
M  V30 61066 O 5770.02 1.68211 0.707909 0
M  V30 61067 C 5770.08 2.39492 -2.70788 0
M  V30 61068 O 5769.8 1.82688 -3.98192 0
M  V30 61069 C 5771.3 3.30734 -2.95178 0
M  V30 61070 H 5768.52 0.385023 -0.549544 0
M  V30 61071 H 5771.06 0.590929 -1.95776 0
M  V30 61072 H 5769.22 3.03254 -2.41072 0
M  V30 61073 H 5769.63 2.56572 -4.57461 0
M  V30 61074 H 5771.1 4.05898 -3.741 0
M  V30 61075 H 5771.58 3.8821 -2.05401 0
M  V30 61076 H 5772.19 2.72729 -3.26342 0
M  V30 61077 N 5770.5 1.38901 0.744607 0
M  V30 61078 C 5771.73 1.38853 1.53386 0
M  V30 61079 C 5772.15 -0.0194285 1.8879 0
M  V30 61080 O 5771.5 -0.988345 1.53421 0
M  V30 61081 C 5771.55 2.25253 2.82742 0
M  V30 61082 O 5771.27 3.60566 2.48846 0
M  V30 61083 C 5772.78 2.33484 3.76829 0
M  V30 61084 H 5770 0.474616 0.474321 0
M  V30 61085 H 5772.54 1.82595 0.920837 0
M  V30 61086 H 5770.69 1.8495 3.404 0
M  V30 61087 H 5771.11 4.06154 3.31872 0
M  V30 61088 H 5772.58 2.98206 4.64518 0
M  V30 61089 H 5773.06 1.35114 4.179 0
M  V30 61090 H 5773.67 2.74216 3.25093 0
M  V30 61091 N 5771.98 -0.973763 1.23918 0
M  V30 61092 C 5772.89 -2.10134 1.04311 0
M  V30 61093 C 5773.91 -1.73994 -0.0143276 0
M  V30 61094 O 5775.08 -2.00571 0.182551 0
M  V30 61095 C 5772.15 -3.40671 0.643759 0
M  V30 61096 C 5771.21 -3.90796 1.777 0
M  V30 61097 C 5770.44 -5.15103 1.3966 0
M  V30 61098 O 5770.66 -5.69694 0.283746 0
M  V30 61099 O 5769.6 -5.59461 2.22008 0
M  V30 61100 H 5773.42 -2.29567 1.98828 0
M  V30 61101 H 5771.01 -1.0852 1.02683 0
M  V30 61102 H 5772.89 -4.19177 0.432293 0
M  V30 61103 H 5771.57 -3.22552 -0.272344 0
M  V30 61104 H 5770.47 -3.13378 2.04316 0
M  V30 61105 H 5771.81 -4.13381 2.67165 0
M  V30 61106 N 5773.46 -1.05195 -1.17353 0
M  V30 61107 C 5774.42 -0.657208 -2.19576 0
M  V30 61108 C 5775.42 0.291325 -1.58139 0
M  V30 61109 O 5776.61 0.0751928 -1.74038 0
M  V30 61110 C 5773.74 0.0346963 -3.40882 0
M  V30 61111 H 5774.94 -1.56197 -2.56013 0
M  V30 61112 H 5772.49 -0.845841 -1.31435 0
M  V30 61113 H 5773.22 0.952726 -3.0999 0
M  V30 61114 H 5773.01 -0.647212 -3.86722 0
M  V30 61115 H 5774.5 0.296989 -4.16543 0
M  V30 61116 N 5774.94 1.33788 -0.832977 0
M  V30 61117 C 5776.18 1.97972 -0.425851 0
M  V30 61118 C 5776.51 1.66007 1.01351 0
M  V30 61119 O 5775.77 0.929077 1.7224 0
M  V30 61120 C 5776.07 3.52553 -0.586609 0
M  V30 61121 C 5775.73 4.04454 -1.99319 0
M  V30 61122 C 5774.39 4.18339 -2.37794 0
M  V30 61123 C 5776.75 4.3225 -2.91221 0
M  V30 61124 C 5774.07 4.57351 -3.67487 0
M  V30 61125 C 5776.43 4.72712 -4.20388 0
M  V30 61126 C 5775.09 4.84803 -4.58827 0
M  V30 61127 H 5774.36 0.724429 -0.15583 0
M  V30 61128 H 5777.01 1.59563 -1.05886 0
M  V30 61129 H 5775.31 3.91585 0.129747 0
M  V30 61130 H 5777.01 4.00208 -0.251976 0
M  V30 61131 H 5773.6 3.94116 -1.68434 0
M  V30 61132 H 5777.78 4.21051 -2.62735 0
M  V30 61133 H 5773.04 4.64904 -3.97082 0
M  V30 61134 H 5777.21 4.93177 -4.9168 0
M  V30 61135 H 5774.84 5.14789 -5.59371 0
M  V30 61136 N 5776.41 0.588863 1.46185 0
M  V30 61137 C 5777.32 -0.14317 2.34163 0
M  V30 61138 C 5778.34 -0.879726 1.50123 0
M  V30 61139 O 5779.52 -0.841528 1.82976 0
M  V30 61140 C 5776.58 -1.14006 3.2742 0
M  V30 61141 C 5775.64 -0.407501 4.27362 0
M  V30 61142 C 5774.88 -1.3569 5.16163 0
M  V30 61143 O 5775.1 -2.59376 5.08016 0
M  V30 61144 O 5774.03 -0.864133 5.95665 0
M  V30 61145 H 5777.86 0.579333 2.98123 0
M  V30 61146 H 5775.44 0.349225 1.45261 0
M  V30 61147 H 5777.33 -1.71471 3.84936 0
M  V30 61148 H 5776 -1.84392 2.66048 0
M  V30 61149 H 5774.91 0.209142 3.73515 0
M  V30 61150 H 5776.24 0.255507 4.91536 0
M  V30 61151 N 5777.89 -1.54171 0.326977 0
M  V30 61152 C 5778.84 -2.24456 -0.537422 0
M  V30 61153 C 5779.81 -1.23662 -1.10892 0
M  V30 61154 O 5780.99 -1.52352 -1.14862 0
M  V30 61155 C 5778.13 -3.00845 -1.69075 0
M  V30 61156 C 5777.25 -4.16463 -1.14815 0
M  V30 61157 C 5776.38 -4.80376 -2.26744 0
M  V30 61158 C 5775.42 -5.88091 -1.69751 0
M  V30 61159 N 5774.56 -6.45851 -2.75355 0
M  V30 61160 H 5779.4 -2.97921 0.068507 0
M  V30 61161 H 5776.94 -1.47029 0.0455804 0
M  V30 61162 H 5778.89 -3.43383 -2.36947 0
M  V30 61163 H 5777.52 -2.29708 -2.26791 0
M  V30 61164 H 5776.58 -3.78684 -0.360871 0
M  V30 61165 H 5777.89 -4.93988 -0.691146 0
M  V30 61166 H 5777.04 -5.25899 -3.02514 0
M  V30 61167 H 5775.78 -4.02238 -2.75782 0
M  V30 61168 H 5774.79 -5.41966 -0.924794 0
M  V30 61169 H 5776.01 -6.68127 -1.21585 0
M  V30 61170 H 5773.96 -5.70586 -3.23679 0
M  V30 61171 H 5773.87 -7.188 -2.34228 0
M  V30 61172 H 5775.14 -6.9603 -3.50945 0
M  V30 61173 N 5779.37 -0.0552232 -1.57503 0
M  V30 61174 C 5780.3 0.953275 -2.07335 0
M  V30 61175 C 5781.28 1.30144 -0.974744 0
M  V30 61176 O 5782.47 1.41361 -1.24696 0
M  V30 61177 C 5779.59 2.26613 -2.51723 0
M  V30 61178 C 5778.64 2.07072 -3.72858 0
M  V30 61179 S 5779.47 1.34535 -5.18325 0
M  V30 61180 C 5780.63 2.67135 -5.6603 0
M  V30 61181 H 5780.86 0.529191 -2.92552 0
M  V30 61182 H 5778.39 0.157142 -1.53598 0
M  V30 61183 H 5780.35 3.02075 -2.77958 0
M  V30 61184 H 5779.01 2.66149 -1.66804 0
M  V30 61185 H 5778.21 3.04192 -4.0185 0
M  V30 61186 H 5777.81 1.39749 -3.46909 0
M  V30 61187 H 5780.1 3.63289 -5.71863 0
M  V30 61188 H 5781.04 2.42774 -6.65181 0
M  V30 61189 H 5781.45 2.7358 -4.93776 0
M  V30 61190 N 5780.85 1.56082 0.218198 0
M  V30 61191 C 5782.1 1.79516 0.94349 0
M  V30 61192 C 5782.43 0.625432 1.83853 0
M  V30 61193 O 5781.7 -0.375159 1.90848 0
M  V30 61194 C 5781.99 3.13055 1.77956 0
M  V30 61195 C 5781.84 4.40482 0.910784 0
M  V30 61196 C 5783.16 3.43067 2.75668 0
M  V30 61197 H 5780.28 0.653069 0.34157 0
M  V30 61198 H 5782.92 1.88812 0.21216 0
M  V30 61199 H 5781.07 3.05262 2.40307 0
M  V30 61200 H 5782.74 4.60299 0.30376 0
M  V30 61201 H 5780.98 4.3326 0.216361 0
M  V30 61202 H 5781.66 5.30366 1.53024 0
M  V30 61203 H 5784.13 3.5101 2.23453 0
M  V30 61204 H 5783.01 4.37668 3.31267 0
M  V30 61205 H 5783.27 2.65401 3.53574 0
M  V30 61206 N 5782.33 -0.485033 1.49951 0
M  V30 61207 C 5783.55 -1.26642 1.64245 0
M  V30 61208 C 5783.98 -1.85358 0.320005 0
M  V30 61209 O 5783.34 -1.6663 -0.714429 0
M  V30 61210 C 5783.38 -2.361 2.72561 0
M  V30 61211 O 5782.49 -3.40379 2.32844 0
M  V30 61212 H 5781.83 -0.373189 0.549205 0
M  V30 61213 H 5784.36 -0.57886 1.96241 0
M  V30 61214 H 5784.37 -2.81624 2.95215 0
M  V30 61215 H 5783.04 -1.92732 3.68547 0
M  V30 61216 H 5781.62 -3.00663 2.20582 0
M  V30 61217 N 5783.81 -1.39293 -0.73723 0
M  V30 61218 C 5784.74 -1.40569 -1.86448 0
M  V30 61219 C 5785.72 -0.269342 -1.67954 0
M  V30 61220 O 5786.9 -0.474835 -1.88305 0
M  V30 61221 C 5784.03 -1.24621 -3.24171 0
M  V30 61222 C 5782.99 -2.35632 -3.57298 0
M  V30 61223 C 5782.31 -2.04776 -4.93934 0
M  V30 61224 C 5783.61 -3.77939 -3.60498 0
M  V30 61225 H 5785.31 -2.34902 -1.85638 0
M  V30 61226 H 5782.85 -1.13068 -0.891716 0
M  V30 61227 H 5784.8 -1.24135 -4.02702 0
M  V30 61228 H 5783.53 -0.267553 -3.25502 0
M  V30 61229 H 5782.19 -2.35332 -2.81095 0
M  V30 61230 H 5781.84 -1.05353 -4.91843 0
M  V30 61231 H 5781.54 -2.79135 -5.17066 0
M  V30 61232 H 5783.06 -2.05935 -5.74824 0
M  V30 61233 H 5784.47 -3.80181 -4.2911 0
M  V30 61234 H 5782.87 -4.5164 -3.95148 0
M  V30 61235 H 5783.94 -4.09077 -2.60353 0
M  V30 61236 N 5785.28 0.967178 -1.24432 0
M  V30 61237 C 5786.21 2.07962 -1.06179 0
M  V30 61238 C 5787.19 1.70081 0.0253969 0
M  V30 61239 O 5788.38 1.93682 -0.141774 0
M  V30 61240 C 5785.51 3.40847 -0.66637 0
M  V30 61241 C 5784.46 3.92686 -1.70239 0
M  V30 61242 C 5783.79 5.21921 -1.16201 0
M  V30 61243 C 5785.09 4.20468 -3.09846 0
M  V30 61244 H 5786.78 2.2349 -1.9923 0
M  V30 61245 H 5784.33 1.07394 -0.959293 0
M  V30 61246 H 5786.28 4.18108 -0.525667 0
M  V30 61247 H 5785.01 3.25221 0.299824 0
M  V30 61248 H 5783.67 3.17582 -1.83132 0
M  V30 61249 H 5783.31 5.02654 -0.186414 0
M  V30 61250 H 5783.01 5.57573 -1.85435 0
M  V30 61251 H 5784.54 6.01791 -1.03344 0
M  V30 61252 H 5785.95 4.88432 -3.00179 0
M  V30 61253 H 5784.35 4.67349 -3.76437 0
M  V30 61254 H 5785.42 3.27223 -3.57845 0
M  V30 61255 N 5786.76 1.05816 1.16794 0
M  V30 61256 C 5787.99 0.792586 1.91658 0
M  V30 61257 C 5788.41 -0.646536 1.7664 0
M  V30 61258 O 5787.77 -1.44994 1.08841 0
M  V30 61259 C 5787.82 1.18597 3.4054 0
M  V30 61260 O 5786.92 0.321861 4.11142 0
M  V30 61261 H 5786.26 0.290087 0.597282 0
M  V30 61262 H 5788.79 1.41268 1.48002 0
M  V30 61263 H 5788.8 1.15544 3.91297 0
M  V30 61264 H 5787.48 2.23425 3.5079 0
M  V30 61265 H 5786.05 0.413534 3.706 0
M  V30 61266 N 5788.24 -1.33344 0.84006 0
M  V30 61267 C 5789.49 -1.98036 0.43699 0
M  V30 61268 C 5789.82 -1.66385 -1.00148 0
M  V30 61269 O 5789.09 -0.94437 -1.70035 0
M  V30 61270 C 5789.38 -3.54009 0.659494 0
M  V30 61271 C 5789.23 -3.95343 2.14532 0
M  V30 61272 C 5790.55 -4.39971 0.106413 0
M  V30 61273 H 5787.67 -0.719368 0.160247 0
M  V30 61274 H 5790.31 -1.57965 1.05579 0
M  V30 61275 H 5788.46 -3.88273 0.132769 0
M  V30 61276 H 5790.13 -3.7133 2.737 0
M  V30 61277 H 5788.37 -3.45031 2.62938 0
M  V30 61278 H 5789.05 -5.03984 2.25175 0
M  V30 61279 H 5791.52 -4.1236 0.556656 0
M  V30 61280 H 5790.4 -5.48124 0.291776 0
M  V30 61281 H 5790.66 -4.30876 -0.98988 0
M  V30 61282 N 5789.72 -0.596607 -1.45871 0
M  V30 61283 C 5790.65 0.116147 -2.33211 0
M  V30 61284 C 5791.63 0.869817 -1.46179 0
M  V30 61285 O 5792.81 0.842538 -1.74971 0
M  V30 61286 C 5789.94 1.12133 -3.287 0
M  V30 61287 C 5788.9 0.4816 -4.25282 0
M  V30 61288 C 5788.22 1.59425 -5.1038 0
M  V30 61289 C 5789.52 -0.590178 -5.18955 0
M  V30 61290 H 5791.22 -0.613108 -2.93055 0
M  V30 61291 H 5788.76 -0.296291 -1.40919 0
M  V30 61292 H 5790.72 1.62843 -3.88664 0
M  V30 61293 H 5789.44 1.88104 -2.66991 0
M  V30 61294 H 5788.1 -0.00453808 -3.666 0
M  V30 61295 H 5787.75 2.34397 -4.45047 0
M  V30 61296 H 5787.45 1.17177 -5.75798 0
M  V30 61297 H 5788.97 2.10384 -5.73211 0
M  V30 61298 H 5790.39 -0.167597 -5.73055 0
M  V30 61299 H 5788.78 -0.933774 -5.92791 0
M  V30 61300 H 5789.85 -1.47109 -4.62046 0
M  V30 61301 N 5791.2 1.53995 -0.335149 0
M  V30 61302 C 5792.13 2.27682 0.518007 0
M  V30 61303 C 5793.11 1.28919 1.10968 0
M  V30 61304 O 5794.29 1.57749 1.13264 0
M  V30 61305 C 5791.42 3.04333 1.67329 0
M  V30 61306 C 5790.38 4.10529 1.21036 0
M  V30 61307 C 5789.7 4.75087 2.4535 0
M  V30 61308 C 5791 5.21338 0.316872 0
M  V30 61309 H 5792.7 2.99244 -0.0966721 0
M  V30 61310 H 5790.24 1.4392 -0.0479348 0
M  V30 61311 H 5792.19 3.54616 2.27651 0
M  V30 61312 H 5790.92 2.30408 2.31473 0
M  V30 61313 H 5789.58 3.61146 0.629997 0
M  V30 61314 H 5789.23 3.97765 3.07883 0
M  V30 61315 H 5788.93 5.4683 2.15061 0
M  V30 61316 H 5790.45 5.28151 3.06413 0
M  V30 61317 H 5791.86 5.67308 0.826706 0
M  V30 61318 H 5790.26 6.00006 0.106247 0
M  V30 61319 H 5791.33 4.80534 -0.649237 0
M  V30 61320 N 5792.67 0.0635752 1.57472 0
M  V30 61321 C 5793.9 -0.620136 1.97912 0
M  V30 61322 C 5794.32 -1.62848 0.941393 0
M  V30 61323 O 5793.68 -1.81056 -0.0939676 0
M  V30 61324 C 5793.73 -1.27249 3.37402 0
M  V30 61325 O 5792.83 -2.38829 3.36206 0
M  V30 61326 H 5792.17 -0.160187 0.644388 0
M  V30 61327 H 5794.7 0.135654 2.0415 0
M  V30 61328 H 5794.71 -1.62127 3.74405 0
M  V30 61329 H 5793.39 -0.533578 4.12463 0
M  V30 61330 H 5791.97 -2.05806 3.10963 0
M  V30 61331 N 5794.15 -1.56196 -0.209917 0
M  V30 61332 C 5795.09 -1.88394 -1.28775 0
M  V30 61333 C 5796.06 -0.74248 -1.44658 0
M  V30 61334 O 5797.25 -0.992011 -1.60285 0
M  V30 61335 C 5794.37 -2.10116 -2.65648 0
M  V30 61336 C 5793.42 -3.32813 -2.66716 0
M  V30 61337 S 5794.25 -4.88391 -2.19623 0
M  V30 61338 C 5795.41 -5.13164 -3.58349 0
M  V30 61339 H 5795.64 -2.7952 -1.01271 0
M  V30 61340 H 5793.18 -1.48782 -0.412716 0
M  V30 61341 H 5795.13 -2.23314 -3.44443 0
M  V30 61342 H 5793.79 -1.19767 -2.9037 0
M  V30 61343 H 5792.99 -3.45093 -3.67324 0
M  V30 61344 H 5792.59 -3.18532 -1.95993 0
M  V30 61345 H 5794.88 -5.02775 -4.54118 0
M  V30 61346 H 5795.82 -6.14997 -3.50976 0
M  V30 61347 H 5796.23 -4.40853 -3.52575 0
M  V30 61348 N 5795.63 0.477074 -1.50206 0
M  V30 61349 C 5796.56 1.59313 -1.64778 0
M  V30 61350 C 5797.58 1.53949 -0.529481 0
M  V30 61351 O 5798.76 1.59446 -0.802444 0
M  V30 61352 C 5795.86 2.9818 -1.61066 0
M  V30 61353 C 5795.04 3.28476 -2.88829 0
M  V30 61354 C 5794.1 4.46868 -2.77841 0
M  V30 61355 O 5793.12 4.4747 -3.51794 0
M  V30 61356 N 5794.32 5.48181 -1.90993 0
M  V30 61357 H 5797.09 1.47231 -2.61042 0
M  V30 61358 H 5794.65 0.665388 -1.47595 0
M  V30 61359 H 5796.64 3.75339 -1.51336 0
M  V30 61360 H 5795.21 3.04062 -0.725616 0
M  V30 61361 H 5794.43 2.39986 -3.12731 0
M  V30 61362 H 5795.72 3.45526 -3.73482 0
M  V30 61363 H 5795.12 5.5051 -1.30211 0
M  V30 61364 H 5793.68 6.24348 -1.8717 0
M  V30 61365 N 5797.11 1.39683 0.729833 0
M  V30 61366 C 5798.36 1.36916 1.48655 0
M  V30 61367 C 5798.68 -0.0325326 1.94973 0
M  V30 61368 O 5797.95 -0.98473 1.69351 0
M  V30 61369 H 5796.53 0.503867 0.551477 0
M  V30 61370 H 5799.19 1.74599 0.866094 0
M  V30 61371 H 5798.29 2.03512 2.3662 0
M  V30 61372 N 5798.59 -0.960565 1.24944 0
M  V30 61373 C 5799.55 -2.03787 1.04898 0
M  V30 61374 C 5800.55 -1.608 0.00381445 0
M  V30 61375 O 5801.74 -1.72462 0.245451 0
M  V30 61376 C 5798.87 -3.3573 0.591427 0
M  V30 61377 H 5800.06 -2.23003 2.00524 0
M  V30 61378 H 5797.62 -1.13682 1.07267 0
M  V30 61379 H 5798.35 -3.22209 -0.367703 0
M  V30 61380 H 5798.14 -3.68278 1.34587 0
M  V30 61381 H 5799.63 -4.14919 0.472429 0
M  V30 61382 N 5800.06 -1.06434 -1.16231 0
M  V30 61383 C 5801.31 -0.783064 -1.87072 0
M  V30 61384 C 5801.64 0.688788 -1.81575 0
M  V30 61385 O 5800.92 1.50474 -1.23239 0
M  V30 61386 C 5801.2 -1.28009 -3.3658 0
M  V30 61387 C 5801.05 -2.8158 -3.5076 0
M  V30 61388 C 5802.37 -0.889127 -4.31025 0
M  V30 61389 H 5799.49 -0.285934 -0.679272 0
M  V30 61390 H 5802.13 -1.32051 -1.36611 0
M  V30 61391 H 5800.28 -0.822889 -3.79685 0
M  V30 61392 H 5801.96 -3.35519 -3.16583 0
M  V30 61393 H 5800.2 -3.2024 -2.92624 0
M  V30 61394 H 5800.87 -3.11422 -4.55763 0
M  V30 61395 H 5803.35 -1.28293 -3.95828 0
M  V30 61396 H 5802.22 -1.26434 -5.3414 0
M  V30 61397 H 5802.48 0.205818 -4.41621 0
M  V30 61398 N 5801.54 1.32897 -0.84712 0
M  V30 61399 C 5802.82 1.92099 -0.368418 0
M  V30 61400 C 5803.2 1.77209 1.14718 0
M  V30 61401 O 5802.55 1.16554 1.96539 0
M  V30 61402 C 5802.76 3.39122 -0.824445 0
M  V30 61403 C 5804.11 4.16264 -0.837244 0
M  V30 61404 O 5805.13 3.47809 -0.768588 0
M  V30 61405 O 5803.99 5.38484 -0.932578 0
M  V30 61406 H 5801.08 0.820183 -0.105965 0
M  V30 61407 H 5803.63 1.41716 -0.933521 0
M  V30 61408 H 5802.4 3.43869 -1.86735 0
M  V30 61409 H 5802.02 3.96897 -0.236372 0
M  V30 61410 N 5803.02 0.604335 1.45553 0
M  V30 61411 C 5804.27 0.0958544 2.01472 0
M  V30 61412 C 5804.58 -1.28011 1.47894 0
M  V30 61413 O 5805.79 -1.88114 1.95769 0
M  V30 61414 C 5804.24 0.120692 3.59698 0
M  V30 61415 C 5803.85 1.49631 4.22273 0
M  V30 61416 C 5805.6 -0.332716 4.23194 0
M  V30 61417 C 5803.5 1.4777 5.72641 0
M  V30 61418 H 5802.43 0.0320664 0.753318 0
M  V30 61419 H 5805.08 0.759184 1.67059 0
M  V30 61420 H 5803.47 -0.609228 3.91286 0
M  V30 61421 H 5804.64 2.24768 4.02264 0
M  V30 61422 H 5802.96 1.89154 3.70958 0
M  V30 61423 H 5805.55 -0.365764 5.33448 0
M  V30 61424 H 5805.9 -1.35474 3.9364 0
M  V30 61425 H 5806.43 0.343831 3.96311 0
M  V30 61426 H 5803.17 2.47722 6.06889 0
M  V30 61427 H 5802.69 0.768868 5.94852 0
M  V30 61428 H 5804.37 1.19993 6.35776 0
M  V30 61429 N 5804.5 -1.53815 0.343311 0
M  V30 61430 C 5805.45 -2.26506 -0.528922 0
M  V30 61431 C 5806.44 -1.28643 -1.10215 0
M  V30 61432 O 5807.65 -1.46351 -1.04792 0
M  V30 61433 H 5804.02 -0.727796 -0.189254 0
M  V30 61434 H 5805.99 -2.98211 0.1062 0
M  V30 61435 C 5804.74 -3.05068 -1.66819 0
M  V30 61436 H 5804.06 -3.80202 -1.23637 0
M  V30 61437 H 5805.5 -3.59145 -2.25368 0
M  V30 61438 C 5803.96 -2.14552 -2.59748 0
M  V30 61439 O 5804.49 -1.74144 -3.6199 0
M  V30 61440 N 5802.7 -1.79636 -2.28428 0
M  V30 61441 H 5802.25 -2.12693 -1.45325 0
M  V30 61442 H 5802.2 -1.19355 -2.90864 0
M  V30 61443 N 5805.98 -0.0719254 -1.57436 0
M  V30 61444 C 5806.92 0.895261 -2.12729 0
M  V30 61445 C 5807.89 1.29525 -1.03983 0
M  V30 61446 O 5809.08 1.38108 -1.31647 0
M  V30 61447 C 5806.22 2.15745 -2.69347 0
M  V30 61448 C 5805.33 1.81009 -3.9225 0
M  V30 61449 C 5804.47 3.01841 -4.37111 0
M  V30 61450 C 5803.51 2.63122 -5.5266 0
M  V30 61451 N 5802.64 3.76713 -5.92479 0
M  V30 61452 H 5807.48 0.41686 -2.9507 0
M  V30 61453 H 5805.02 0.194113 -1.45814 0
M  V30 61454 H 5806.98 2.89632 -3.00282 0
M  V30 61455 H 5805.61 2.61126 -1.89771 0
M  V30 61456 H 5804.66 0.971853 -3.67776 0
M  V30 61457 H 5805.97 1.48523 -4.76175 0
M  V30 61458 H 5805.13 3.84005 -4.69707 0
M  V30 61459 H 5803.86 3.3752 -3.52039 0
M  V30 61460 H 5802.87 1.79379 -5.19715 0
M  V30 61461 H 5804.09 2.28612 -6.39463 0
M  V30 61462 H 5802.04 4.12155 -5.10357 0
M  V30 61463 H 5801.96 3.47996 -6.71145 0
M  V30 61464 H 5803.23 4.59456 -6.29698 0
M  V30 61465 N 5807.45 1.56305 0.201631 0
M  V30 61466 C 5808.38 1.9705 1.25274 0
M  V30 61467 C 5809.37 0.84151 1.47826 0
M  V30 61468 O 5810.55 1.10534 1.59674 0
M  V30 61469 C 5807.68 2.30439 2.59837 0
M  V30 61470 C 5806.63 3.46015 2.51908 0
M  V30 61471 C 5805.96 3.65061 3.90685 0
M  V30 61472 C 5807.26 4.80398 2.04975 0
M  V30 61473 H 5808.95 2.85102 0.914172 0
M  V30 61474 H 5806.5 1.37167 0.43831 0
M  V30 61475 H 5808.45 2.57537 3.33546 0
M  V30 61476 H 5807.18 1.39261 2.95421 0
M  V30 61477 H 5805.84 3.18997 1.80656 0
M  V30 61478 H 5805.48 2.71226 4.2361 0
M  V30 61479 H 5805.18 4.42809 3.86256 0
M  V30 61480 H 5806.71 3.94529 4.66025 0
M  V30 61481 H 5808.12 5.06571 2.68438 0
M  V30 61482 H 5806.52 5.6157 2.11563 0
M  V30 61483 H 5807.59 4.74419 1.00271 0
M  V30 61484 N 5808.93 -0.469102 1.50457 0
M  V30 61485 C 5810.17 -1.23086 1.63184 0
M  V30 61486 C 5810.54 -1.89214 0.325895 0
M  V30 61487 O 5811.74 -2.66784 0.328625 0
M  V30 61488 C 5810.01 -2.24518 2.78077 0
M  V30 61489 S 5811.57 -3.09606 3.10949 0
M  V30 61490 H 5808.39 -0.417866 0.575247 0
M  V30 61491 H 5810.99 -0.52755 1.88248 0
M  V30 61492 H 5809.69 -1.74521 3.71444 0
M  V30 61493 H 5809.22 -2.99474 2.55105 0
M  V30 61494 H 5811.24 -4.25707 2.54928 0
M  V30 61495 N 5810.41 -1.40068 -0.722415 0
M  V30 61496 C 5811.32 -1.42092 -1.86673 0
M  V30 61497 C 5812.34 -0.314283 -1.71138 0
M  V30 61498 O 5813.51 -0.557779 -1.93522 0
M  V30 61499 C 5810.58 -1.27509 -3.22401 0
M  V30 61500 C 5809.64 -2.48256 -3.50239 0
M  V30 61501 C 5808.87 -2.34358 -4.79491 0
M  V30 61502 O 5809.1 -1.35375 -5.54103 0
M  V30 61503 O 5808.03 -3.23597 -5.07512 0
M  V30 61504 H 5811.86 -2.38578 -1.87921 0
M  V30 61505 H 5809.44 -1.21317 -0.871925 0
M  V30 61506 H 5811.32 -1.21557 -4.03487 0
M  V30 61507 H 5810 -0.341254 -3.21896 0
M  V30 61508 H 5808.9 -2.59784 -2.6919 0
M  V30 61509 H 5810.24 -3.40376 -3.55535 0
M  V30 61510 N 5811.89 0.953925 -1.25451 0
M  V30 61511 C 5812.8 2.08448 -1.07641 0
M  V30 61512 C 5813.82 1.73995 -0.0133551 0
M  V30 61513 O 5814.99 2.00255 -0.214437 0
M  V30 61514 C 5812.06 3.39604 -0.697875 0
M  V30 61515 C 5811.12 3.87919 -1.83894 0
M  V30 61516 C 5810.35 5.12816 -1.47837 0
M  V30 61517 O 5810.57 5.6917 -0.374343 0
M  V30 61518 O 5809.51 5.55858 -2.3088 0
M  V30 61519 H 5813.33 2.26375 -2.02455 0
M  V30 61520 H 5810.92 1.06873 -1.04396 0
M  V30 61521 H 5812.8 4.18436 -0.498925 0
M  V30 61522 H 5811.48 3.22945 0.220995 0
M  V30 61523 H 5810.38 3.10088 -2.09276 0
M  V30 61524 H 5811.72 4.09078 -2.73708 0
M  V30 61525 N 5813.37 1.07049 1.15665 0
M  V30 61526 C 5814.3 0.632248 2.19267 0
M  V30 61527 C 5815.28 -0.348917 1.58812 0
M  V30 61528 O 5816.46 -0.256071 1.86753 0
M  V30 61529 C 5813.59 -0.0720301 3.38623 0
M  V30 61530 C 5812.64 0.867094 4.17593 0
M  V30 61531 S 5813.47 2.36645 4.80374 0
M  V30 61532 C 5814.62 1.67389 6.03102 0
M  V30 61533 H 5814.86 1.50995 2.56101 0
M  V30 61534 H 5812.39 0.884168 1.26577 0
M  V30 61535 H 5814.35 -0.472129 4.07776 0
M  V30 61536 H 5813.01 -0.926033 3.00139 0
M  V30 61537 H 5812.2 0.320991 5.02977 0
M  V30 61538 H 5811.8 1.20743 3.53973 0
M  V30 61539 H 5814.1 0.983842 6.70318 0
M  V30 61540 H 5815.04 2.50593 6.62276 0
M  V30 61541 H 5815.45 1.15318 5.52596 0
M  V30 61542 N 5814.85 -1.32446 0.854156 0
M  V30 61543 C 5815.78 -2.31382 0.313778 0
M  V30 61544 C 5816.76 -1.59658 -0.586802 0
M  V30 61545 O 5817.94 -1.87461 -0.507151 0
M  V30 61546 C 5815.07 -3.43695 -0.499114 0
M  V30 61547 C 5814.03 -4.26898 0.306989 0
M  V30 61548 C 5813.35 -5.30968 -0.630608 0
M  V30 61549 C 5814.65 -4.99312 1.53246 0
M  V30 61550 H 5816.35 -2.76828 1.14047 0
M  V30 61551 H 5813.89 -1.33089 0.549852 0
M  V30 61552 H 5815.84 -4.11947 -0.887564 0
M  V30 61553 H 5814.57 -2.96975 -1.35916 0
M  V30 61554 H 5813.23 -3.60291 0.677188 0
M  V30 61555 H 5812.88 -4.80503 -1.48748 0
M  V30 61556 H 5812.58 -5.87523 -0.095257 0
M  V30 61557 H 5814.1 -6.02084 -1.01624 0
M  V30 61558 H 5815.51 -5.60248 1.21633 0
M  V30 61559 H 5813.91 -5.65589 2.00571 0
M  V30 61560 H 5814.98 -4.27205 2.29398 0
M  V30 61561 N 5816.32 -0.612045 -1.4523 0
M  V30 61562 C 5817.6 -0.0407687 -1.95558 0
M  V30 61563 C 5817.98 1.42833 -1.55441 0
M  V30 61564 O 5817.33 2.13313 -0.81913 0
M  V30 61565 C 5817.54 -0.243559 -3.48149 0
M  V30 61566 C 5818.89 -0.126701 -4.24411 0
M  V30 61567 O 5819.91 -0.173915 -3.55775 0
M  V30 61568 O 5818.77 -0.0155447 -5.46498 0
M  V30 61569 H 5815.86 0.0331997 -0.826333 0
M  V30 61570 H 5818.41 -0.682418 -1.55374 0
M  V30 61571 H 5817.18 -1.2637 -3.70333 0
M  V30 61572 H 5816.8 0.433141 -3.95234 0
M  V30 61573 N 5817.8 1.53631 -0.351463 0
M  V30 61574 C 5818.75 2.26784 0.516903 0
M  V30 61575 C 5819.74 1.29225 1.09532 0
M  V30 61576 O 5820.95 1.46905 1.04014 0
M  V30 61577 H 5817.32 0.728789 0.185391 0
M  V30 61578 H 5819.3 2.9815 -0.122014 0
M  V30 61579 C 5818.04 3.05949 1.65199 0
M  V30 61580 H 5817.37 3.80853 1.21619 0
M  V30 61581 H 5818.81 3.60336 2.2346 0
M  V30 61582 C 5817.27 2.15926 2.58607 0
M  V30 61583 O 5817.8 1.76062 3.61061 0
M  V30 61584 N 5816 1.80845 2.27472 0
M  V30 61585 H 5815.55 2.13461 1.44195 0
M  V30 61586 H 5815.51 1.20896 2.90227 0
M  V30 61587 N 5819.28 0.0802736 1.57395 0
M  V30 61588 C 5820.7 -0.276372 1.57189 0
M  V30 61589 C 5820.9 -1.69452 1.09033 0
M  V30 61590 O 5819.95 -2.40789 0.760055 0
M  V30 61591 C 5821.26 -0.0783022 3.00598 0
M  V30 61592 C 5822.81 -0.14719 3.12654 0
M  V30 61593 C 5823.29 0.0227033 4.57994 0
M  V30 61594 N 5824.78 -0.0326226 4.63189 0
M  V30 61595 C 5825.51 0.0742938 5.73352 0
M  V30 61596 N 5825.01 0.235209 6.92401 0
M  V30 61597 N 5826.8 0.0166217 5.62098 0
M  V30 61598 H 5818.95 1.00702 1.8701 0
M  V30 61599 H 5821.22 0.393432 0.862505 0
M  V30 61600 H 5820.92 0.900607 3.39973 0
M  V30 61601 H 5820.8 -0.827001 3.68022 0
M  V30 61602 H 5823.18 -1.11659 2.7316 0
M  V30 61603 H 5823.26 0.632753 2.47851 0
M  V30 61604 H 5822.91 0.988909 4.9818 0
M  V30 61605 H 5822.84 -0.776749 5.2084 0
M  V30 61606 H 5825.33 -0.155058 3.77582 0
M  V30 61607 H 5825.64 0.308706 7.72183 0
M  V30 61608 H 5823.99 0.270683 6.94473 0
M  V30 61609 H 5827.18 -0.107854 4.67976 0
M  V30 61610 H 5827.35 0.103397 6.47918 0
M  V30 61611 N 5820.76 -1.5641 -0.193339 0
M  V30 61612 C 5821.72 -1.93826 -1.22327 0
M  V30 61613 C 5822.72 -0.819561 -1.38347 0
M  V30 61614 O 5823.91 -1.08695 -1.36129 0
M  V30 61615 C 5821.04 -2.21384 -2.59233 0
M  V30 61616 H 5822.24 -2.8597 -0.903401 0
M  V30 61617 H 5819.79 -1.50127 -0.434927 0
M  V30 61618 H 5820.52 -1.31884 -2.96272 0
M  V30 61619 H 5820.31 -3.02907 -2.48977 0
M  V30 61620 H 5821.8 -2.51331 -3.33501 0
M  V30 61621 N 5822.24 0.461116 -1.50703 0
M  V30 61622 C 5823.46 1.23548 -1.65962 0
M  V30 61623 C 5823.88 1.85583 -0.347042 0
M  V30 61624 O 5823.24 1.69675 0.67207 0
M  V30 61625 C 5823.29 2.33694 -2.75807 0
M  V30 61626 O 5823.01 1.74201 -4.01977 0
M  V30 61627 C 5824.51 3.24398 -3.02127 0
M  V30 61628 H 5821.73 0.373279 -0.557587 0
M  V30 61629 H 5824.27 0.549269 -1.96985 0
M  V30 61630 H 5822.43 2.98073 -2.4745 0
M  V30 61631 H 5822.84 2.46811 -4.62801 0
M  V30 61632 H 5824.32 3.97872 -3.82625 0
M  V30 61633 H 5824.79 3.83766 -2.13589 0
M  V30 61634 H 5825.4 2.65746 -3.32053 0
M  V30 61635 N 5823.71 1.40449 0.714977 0
M  V30 61636 C 5824.64 1.43517 1.84188 0
M  V30 61637 C 5825.63 0.296028 1.67504 0
M  V30 61638 O 5826.81 0.504733 1.87526 0
M  V30 61639 C 5823.94 1.29763 3.22147 0
M  V30 61640 C 5822.89 2.41286 3.53504 0
M  V30 61641 C 5822.22 2.12608 4.90614 0
M  V30 61642 C 5823.52 3.83627 3.5444 0
M  V30 61643 H 5825.21 2.37826 1.81877 0
M  V30 61644 H 5822.76 1.14473 0.873615 0
M  V30 61645 H 5824.71 1.30526 4.00676 0
M  V30 61646 H 5823.44 0.319304 3.25035 0
M  V30 61647 H 5822.1 2.39774 2.77316 0
M  V30 61648 H 5821.74 1.13165 4.90105 0
M  V30 61649 H 5821.44 2.87326 5.1256 0
M  V30 61650 H 5822.97 2.15054 5.71475 0
M  V30 61651 H 5824.38 3.8696 4.23007 0
M  V30 61652 H 5822.78 4.57869 3.87913 0
M  V30 61653 H 5823.85 4.13167 2.53812 0
M  V30 61654 N 5825.19 -0.947259 1.25955 0
M  V30 61655 C 5826.12 -2.04866 1.02774 0
M  V30 61656 C 5827.14 -1.62797 -0.0098026 0
M  V30 61657 O 5828.33 -1.77017 0.229589 0
M  V30 61658 C 5825.43 -3.3468 0.533166 0
M  V30 61659 C 5824.6 -4.05549 1.63855 0
M  V30 61660 C 5823.66 -5.13634 1.14308 0
M  V30 61661 O 5822.68 -5.38675 1.83895 0
M  V30 61662 N 5823.89 -5.80499 -0.0117336 0
M  V30 61663 H 5826.65 -2.2532 1.97613 0
M  V30 61664 H 5824.21 -1.11632 1.1726 0
M  V30 61665 H 5826.2 -4.04272 0.18601 0
M  V30 61666 H 5824.77 -3.10943 -0.321475 0
M  V30 61667 H 5823.99 -3.29954 2.15694 0
M  V30 61668 H 5825.28 -4.49652 2.38097 0
M  V30 61669 H 5824.68 -5.62583 -0.593014 0
M  V30 61670 H 5823.24 -6.5111 -0.299861 0
M  V30 61671 N 5826.67 -1.07661 -1.15095 0
M  V30 61672 C 5827.63 -0.703635 -2.18132 0
M  V30 61673 C 5828.63 0.257715 -1.58721 0
M  V30 61674 O 5829.82 0.0382599 -1.74158 0
M  V30 61675 C 5826.96 -0.0376177 -3.40879 0
M  V30 61676 H 5828.15 -1.61592 -2.52642 0
M  V30 61677 H 5825.7 -0.87353 -1.29612 0
M  V30 61678 H 5826.44 0.886758 -3.11941 0
M  V30 61679 H 5826.22 -0.729096 -3.85262 0
M  V30 61680 H 5827.71 0.208567 -4.17079 0
M  V30 61681 N 5828.15 1.31991 -0.861168 0
M  V30 61682 C 5829.4 1.96292 -0.463937 0
M  V30 61683 C 5829.71 1.68873 0.986981 0
M  V30 61684 O 5830.92 2.26964 1.48995 0
M  V30 61685 C 5829.37 3.51375 -0.778703 0
M  V30 61686 C 5828.98 3.87645 -2.24579 0
M  V30 61687 C 5830.72 4.22113 -0.449513 0
M  V30 61688 C 5828.63 5.35801 -2.50343 0
M  V30 61689 H 5827.56 0.734641 -0.169759 0
M  V30 61690 H 5830.21 1.50291 -1.05285 0
M  V30 61691 H 5828.59 3.95821 -0.119144 0
M  V30 61692 H 5829.77 3.54187 -2.94768 0
M  V30 61693 H 5828.08 3.29948 -2.54014 0
M  V30 61694 H 5830.68 5.31101 -0.619347 0
M  V30 61695 H 5831.02 4.11816 0.609383 0
M  V30 61696 H 5831.56 3.83272 -1.06524 0
M  V30 61697 H 5828.3 5.51125 -3.54882 0
M  V30 61698 H 5827.82 5.70641 -1.84739 0
M  V30 61699 H 5829.49 6.0296 -2.34623 0
M  V30 61700 N 5829.63 0.619739 1.44903 0
M  V30 61701 C 5830.59 -0.0821559 2.29053 0
M  V30 61702 C 5831.59 -0.783378 1.40427 0
M  V30 61703 O 5832.78 -0.629694 1.62421 0
M  V30 61704 C 5829.91 -1.12674 3.21741 0
M  V30 61705 H 5831.1 0.657829 2.92596 0
M  V30 61706 H 5828.66 0.379339 1.51627 0
M  V30 61707 H 5829.39 -1.89708 2.63023 0
M  V30 61708 H 5829.18 -0.627986 3.87038 0
M  V30 61709 H 5830.67 -1.61795 3.84983 0
M  V30 61710 N 5831.1 -1.53442 0.359606 0
M  V30 61711 C 5832.33 -2.06059 -0.235504 0
M  V30 61712 C 5832.75 -1.2318 -1.42156 0
M  V30 61713 O 5832.11 -0.249401 -1.79576 0
M  V30 61714 C 5832.16 -3.55353 -0.6129 0
M  V30 61715 O 5831.26 -3.75235 -1.71091 0
M  V30 61716 H 5830.61 -0.663039 -0.0357033 0
M  V30 61717 H 5833.14 -1.97922 0.518477 0
M  V30 61718 H 5833.15 -3.98273 -0.885582 0
M  V30 61719 H 5831.82 -4.15121 0.254389 0
M  V30 61720 H 5830.4 -3.44215 -1.43425 0
M  V30 61721 N 5832.58 -0.0886195 -1.57351 0
M  V30 61722 C 5833.49 0.887015 -2.17185 0
M  V30 61723 C 5834.51 1.31494 -1.13953 0
M  V30 61724 O 5835.68 1.38418 -1.46295 0
M  V30 61725 C 5832.75 2.13044 -2.7352 0
M  V30 61726 C 5831.81 1.75733 -3.91684 0
M  V30 61727 C 5831.04 2.94148 -4.45323 0
M  V30 61728 O 5831.27 4.08679 -3.97917 0
M  V30 61729 O 5830.2 2.72989 -5.36433 0
M  V30 61730 H 5834.03 0.407967 -3.00947 0
M  V30 61731 H 5831.61 0.135379 -1.48785 0
M  V30 61732 H 5833.49 2.85926 -3.09555 0
M  V30 61733 H 5832.17 2.60014 -1.92807 0
M  V30 61734 H 5831.08 1.00051 -3.60473 0
M  V30 61735 H 5832.41 1.33532 -4.7374 0
M  V30 61736 N 5834.06 1.5651 0.185041 0
M  V30 61737 C 5835.31 1.81209 0.903861 0
M  V30 61738 C 5835.64 0.663487 1.82834 0
M  V30 61739 O 5834.89 -0.350143 1.92542 0
M  V30 61740 C 5835.19 3.11974 1.74376 0
M  V30 61741 C 5834.86 4.40356 0.969398 0
M  V30 61742 C 5833.52 4.7523 0.755632 0
M  V30 61743 C 5835.87 5.19462 0.42526 0
M  V30 61744 C 5833.2 5.86698 -0.0135919 0
M  V30 61745 C 5835.55 6.31734 -0.330804 0
M  V30 61746 C 5834.21 6.65185 -0.555496 0
M  V30 61747 H 5833.48 0.66309 0.330746 0
M  V30 61748 H 5836.13 1.90747 0.169606 0
M  V30 61749 H 5834.44 2.97717 2.54699 0
M  V30 61750 H 5836.13 3.28292 2.30273 0
M  V30 61751 H 5832.72 4.12994 1.14603 0
M  V30 61752 H 5836.91 4.92925 0.577786 0
M  V30 61753 H 5832.16 6.11081 -0.19755 0
M  V30 61754 H 5836.34 6.92243 -0.759766 0
M  V30 61755 H 5833.96 7.51399 -1.15344 0
M  V30 61756 N 5835.54 -0.453117 1.50946 0
M  V30 61757 C 5836.76 -1.2313 1.66895 0
M  V30 61758 C 5837.19 -1.84637 0.35925 0
M  V30 61759 O 5836.55 -1.68108 -0.678923 0
M  V30 61760 C 5836.59 -2.30265 2.77507 0
M  V30 61761 O 5835.7 -3.35363 2.40011 0
M  V30 61762 H 5835.04 -0.361456 0.556997 0
M  V30 61763 H 5837.57 -0.537104 1.97424 0
M  V30 61764 H 5837.58 -2.75298 3.01123 0
M  V30 61765 H 5836.25 -1.84872 3.72552 0
M  V30 61766 H 5834.83 -2.95916 2.2691 0
M  V30 61767 N 5837.02 -1.40826 -0.707518 0
M  V30 61768 C 5838.24 -1.43066 -1.50156 0
M  V30 61769 C 5838.67 -0.0342805 -1.88069 0
M  V30 61770 O 5838.02 0.959619 -1.53821 0
M  V30 61771 C 5838.07 -2.33468 -2.74818 0
M  V30 61772 O 5837.18 -1.78349 -3.71841 0
M  V30 61773 H 5836.52 -0.486036 -0.4524 0
M  V30 61774 H 5839.05 -1.8515 -0.870677 0
M  V30 61775 H 5839.06 -2.48933 -3.23259 0
M  V30 61776 H 5837.73 -3.34935 -2.46559 0
M  V30 61777 H 5836.31 -1.72272 -3.30722 0
M  V30 61778 N 5838.5 0.940566 -1.26456 0
M  V30 61779 C 5839.43 2.05663 -1.10567 0
M  V30 61780 C 5840.41 1.70097 -0.0106856 0
M  V30 61781 O 5841.59 1.93338 -0.182824 0
M  V30 61782 C 5838.72 3.39357 -0.738519 0
M  V30 61783 C 5837.68 3.88987 -1.7853 0
M  V30 61784 C 5837 5.19339 -1.27246 0
M  V30 61785 C 5838.3 4.13801 -3.18695 0
M  V30 61786 H 5840 2.19214 -2.03925 0
M  V30 61787 H 5837.54 1.05336 -0.981857 0
M  V30 61788 H 5839.49 4.16899 -0.614236 0
M  V30 61789 H 5838.22 3.25784 0.230773 0
M  V30 61790 H 5836.88 3.13626 -1.89827 0
M  V30 61791 H 5836.53 5.02146 -0.292992 0
M  V30 61792 H 5836.23 5.53514 -1.97221 0
M  V30 61793 H 5837.75 5.99463 -1.16086 0
M  V30 61794 H 5839.16 4.81955 -3.10472 0
M  V30 61795 H 5837.56 4.59259 -3.86265 0
M  V30 61796 H 5838.63 3.19559 -3.64706 0
M  V30 61797 N 5839.97 1.0827 1.14523 0
M  V30 61798 C 5841.38 0.832761 1.67099 0
M  V30 61799 C 5841.74 -0.640711 1.85444 0
M  V30 61800 O 5840.86 -1.495 1.56457 0
M  V30 61801 C 5841.46 1.50512 3.03532 0
M  V30 61802 C 5840.01 1.30246 3.53147 0
M  V30 61803 C 5839.16 1.56882 2.28656 0
M  V30 61804 H 5842.11 1.24347 0.986074 0
M  V30 61805 H 5842.13 0.931556 3.6892 0
M  V30 61806 H 5841.65 2.57751 2.90148 0
M  V30 61807 H 5839.75 0.250713 3.71756 0
M  V30 61808 H 5839.86 2.02913 4.34008 0
M  V30 61809 H 5838.22 0.990296 2.3466 0
M  V30 61810 H 5839.01 2.65323 2.17849 0
M  V30 61811 N 5841.45 -1.31533 0.868156 0
M  V30 61812 C 5842.68 -2.01485 0.491776 0
M  V30 61813 C 5843.1 -1.64747 -0.907745 0
M  V30 61814 O 5842.46 -0.855149 -1.59865 0
M  V30 61815 C 5842.51 -3.54618 0.654074 0
M  V30 61816 O 5841.61 -4.11253 -0.307387 0
M  V30 61817 H 5840.95 -0.634462 0.195841 0
M  V30 61818 H 5843.48 -1.67771 1.17107 0
M  V30 61819 H 5843.49 -4.04321 0.546681 0
M  V30 61820 H 5842.17 -3.80698 1.67456 0
M  V30 61821 H 5840.74 -3.72577 -0.155102 0
M  V30 61822 N 5842.93 -0.627415 -1.44573 0
M  V30 61823 C 5844.16 -0.137187 -2.06144 0
M  V30 61824 C 5844.57 1.19195 -1.46932 0
M  V30 61825 O 5843.91 1.74128 -0.58526 0
M  V30 61826 C 5843.97 0.0558966 -3.59457 0
M  V30 61827 C 5843.64 -1.1945 -4.41113 0
M  V30 61828 C 5844.63 -2.11734 -4.74831 0
M  V30 61829 C 5842.32 -1.42888 -4.81548 0
M  V30 61830 C 5844.31 -3.25768 -5.47863 0
M  V30 61831 C 5842 -2.5722 -5.5433 0
M  V30 61832 C 5843 -3.48486 -5.87406 0
M  V30 61833 O 5842.69 -4.60825 -6.58707 0
M  V30 61834 H 5842.42 -0.075185 -0.671806 0
M  V30 61835 H 5844.97 -0.860826 -1.86491 0
M  V30 61836 H 5843.2 0.834642 -3.77585 0
M  V30 61837 H 5844.89 0.500211 -4.02806 0
M  V30 61838 H 5845.66 -1.94859 -4.44134 0
M  V30 61839 H 5841.54 -0.727406 -4.55225 0
M  V30 61840 H 5845.08 -3.97027 -5.73598 0
M  V30 61841 H 5840.98 -2.74039 -5.84442 0
M  V30 61842 H 5841.74 -4.59759 -6.77173 0
M  V30 61843 N 5844.41 1.5325 -0.367738 0
M  V30 61844 C 5845.37 2.24424 0.465438 0
M  V30 61845 C 5846.37 1.25287 1.00796 0
M  V30 61846 O 5847.56 1.49548 0.893372 0
M  V30 61847 C 5844.69 2.98266 1.65077 0
M  V30 61848 H 5845.89 2.99487 -0.157397 0
M  V30 61849 H 5843.44 1.55843 -0.119464 0
M  V30 61850 H 5844.17 2.27451 2.31163 0
M  V30 61851 H 5843.96 3.71008 1.26869 0
M  V30 61852 H 5845.45 3.52366 2.24116 0
M  V30 61853 N 5845.89 0.096963 1.57301 0
M  V30 61854 C 5846.85 -0.846821 2.12983 0
M  V30 61855 C 5847.85 -1.20958 1.05952 0
M  V30 61856 O 5849.04 -1.13871 1.3183 0
M  V30 61857 C 5846.17 -2.14206 2.65195 0
M  V30 61858 H 5847.36 -0.363293 2.97691 0
M  V30 61859 H 5844.92 -0.152052 1.55559 0
M  V30 61860 H 5845.65 -2.6704 1.84012 0
M  V30 61861 H 5845.44 -1.89164 3.43452 0
M  V30 61862 H 5846.93 -2.81717 3.08262 0
M  V30 61863 N 5847.36 -1.56606 -0.176738 0
M  V30 61864 C 5848.61 -1.81686 -0.894238 0
M  V30 61865 C 5848.94 -0.673174 -1.82479 0
M  V30 61866 O 5848.19 0.339927 -1.92725 0
M  V30 61867 C 5848.49 -3.12894 -1.72719 0
M  V30 61868 C 5848.16 -4.40864 -0.946031 0
M  V30 61869 C 5846.82 -4.75624 -0.730419 0
M  V30 61870 C 5849.17 -5.1968 -0.397706 0
M  V30 61871 C 5846.5 -5.86683 0.0447057 0
M  V30 61872 C 5848.85 -6.3155 0.364302 0
M  V30 61873 C 5847.52 -6.64881 0.590764 0
M  V30 61874 H 5846.79 -0.664834 -0.327225 0
M  V30 61875 H 5849.43 -1.90835 -0.159488 0
M  V30 61876 H 5847.74 -2.99064 -2.53117 0
M  V30 61877 H 5849.44 -3.29508 -2.28529 0
M  V30 61878 H 5846.03 -4.13596 -1.12412 0
M  V30 61879 H 5850.21 -4.93225 -0.551637 0
M  V30 61880 H 5845.47 -6.10967 0.229954 0
M  V30 61881 H 5849.64 -6.9183 0.796467 0
M  V30 61882 H 5847.27 -7.50776 1.19327 0
M  V30 61883 N 5848.84 0.445106 -1.51184 0
M  V30 61884 C 5849.8 1.52218 -1.71355 0
M  V30 61885 C 5850.8 1.49832 -0.583685 0
M  V30 61886 O 5851.99 1.51992 -0.851123 0
M  V30 61887 C 5849.13 2.91782 -1.76283 0
M  V30 61888 H 5850.32 1.3564 -2.67473 0
M  V30 61889 H 5847.87 0.673262 -1.41056 0
M  V30 61890 H 5848.61 3.13775 -0.819515 0
M  V30 61891 H 5848.39 2.94919 -2.58389 0
M  V30 61892 H 5849.88 3.69931 -1.93754 0
M  V30 61893 N 5850.32 1.41199 0.70004 0
M  V30 61894 C 5851.55 1.43663 1.48891 0
M  V30 61895 C 5851.96 0.0406435 1.88756 0
M  V30 61896 O 5851.32 -0.939035 1.56488 0
M  V30 61897 C 5851.37 2.34135 2.75433 0
M  V30 61898 O 5851.09 3.683 2.37248 0
M  V30 61899 C 5852.59 2.45355 3.6921 0
M  V30 61900 H 5849.81 0.489466 0.458981 0
M  V30 61901 H 5852.36 1.85432 0.86228 0
M  V30 61902 H 5850.51 1.95686 3.34344 0
M  V30 61903 H 5850.93 4.16507 3.18783 0
M  V30 61904 H 5852.4 3.12834 4.54796 0
M  V30 61905 H 5852.88 1.48341 4.1339 0
M  V30 61906 H 5853.48 2.8442 3.16204 0
M  V30 61907 N 5851.8 -0.933846 1.26953 0
M  V30 61908 C 5852.76 -2.01516 1.09197 0
M  V30 61909 C 5853.76 -1.60755 0.0379216 0
M  V30 61910 O 5854.95 -1.71903 0.281977 0
M  V30 61911 C 5852.08 -3.344 0.662507 0
M  V30 61912 H 5853.28 -2.18699 2.05209 0
M  V30 61913 H 5850.83 -1.11381 1.09654 0
M  V30 61914 H 5851.56 -3.22916 -0.299275 0
M  V30 61915 H 5851.35 -3.6534 1.42369 0
M  V30 61916 H 5852.84 -4.13824 0.560333 0
M  V30 61917 N 5853.28 -1.08875 -1.13947 0
M  V30 61918 C 5854.21 -0.680926 -2.18852 0
M  V30 61919 C 5855.22 0.274399 -1.60471 0
M  V30 61920 O 5856.41 0.0613177 -1.78395 0
M  V30 61921 C 5853.51 0.0181596 -3.38895 0
M  V30 61922 C 5852.68 -0.957275 -4.26796 0
M  V30 61923 C 5851.74 -0.292635 -5.25386 0
M  V30 61924 O 5850.77 -0.938526 -5.61409 0
M  V30 61925 N 5851.97 0.955537 -5.72582 0
M  V30 61926 H 5854.74 -1.58343 -2.54456 0
M  V30 61927 H 5852.3 -0.975463 -1.29214 0
M  V30 61928 H 5854.29 0.47386 -4.01916 0
M  V30 61929 H 5852.86 0.822826 -3.01576 0
M  V30 61930 H 5852.08 -1.59169 -3.60637 0
M  V30 61931 H 5853.37 -1.61809 -4.82385 0
M  V30 61932 H 5852.76 1.49995 -5.45452 0
M  V30 61933 H 5851.32 1.35465 -6.37568 0
M  V30 61934 N 5854.75 1.3107 -0.875119 0
M  V30 61935 C 5855.66 2.32148 -0.338278 0
M  V30 61936 C 5856.68 1.6493 0.554446 0
M  V30 61937 O 5857.86 1.9631 0.449929 0
M  V30 61938 C 5854.92 3.43806 0.447042 0
M  V30 61939 C 5853.98 4.26672 -0.474256 0
M  V30 61940 C 5853.22 5.32998 0.273679 0
M  V30 61941 O 5853.44 5.50294 1.5011 0
M  V30 61942 O 5852.37 6.00755 -0.371124 0
M  V30 61943 H 5856.2 2.79998 -1.17622 0
M  V30 61944 H 5853.78 1.35062 -0.638648 0
M  V30 61945 H 5855.67 4.1185 0.892055 0
M  V30 61946 H 5854.34 2.98109 1.26145 0
M  V30 61947 H 5853.25 3.61363 -0.967875 0
M  V30 61948 H 5854.58 4.75947 -1.2544 0
M  V30 61949 N 5856.23 0.635073 1.44238 0
M  V30 61950 C 5857.2 -0.0578572 2.29127 0
M  V30 61951 C 5858.2 -0.76844 1.4125 0
M  V30 61952 O 5859.39 -0.612432 1.63079 0
M  V30 61953 C 5856.52 -1.09255 3.22918 0
M  V30 61954 H 5857.71 0.688826 2.91882 0
M  V30 61955 H 5855.26 0.3954 1.51216 0
M  V30 61956 H 5856 -1.86908 2.65021 0
M  V30 61957 H 5855.78 -0.5869 3.87683 0
M  V30 61958 H 5857.27 -1.57702 3.86678 0
M  V30 61959 N 5857.71 -1.53052 0.37586 0
M  V30 61960 C 5858.94 -2.05522 -0.210756 0
M  V30 61961 C 5859.35 -1.24842 -1.42166 0
M  V30 61962 O 5858.69 -0.284698 -1.8148 0
M  V30 61963 C 5858.75 -3.53419 -0.658423 0
M  V30 61964 C 5858.42 -4.54904 0.437185 0
M  V30 61965 C 5859.41 -5.03633 1.29034 0
M  V30 61966 C 5857.1 -4.98699 0.60037 0
M  V30 61967 C 5859.09 -5.94769 2.29192 0
M  V30 61968 C 5856.78 -5.89638 1.60531 0
M  V30 61969 C 5857.78 -6.37564 2.44951 0
M  V30 61970 O 5857.47 -7.26709 3.43729 0
M  V30 61971 H 5857.2 -0.674895 -0.038639 0
M  V30 61972 H 5859.75 -1.98294 0.535603 0
M  V30 61973 H 5857.98 -3.5822 -1.45655 0
M  V30 61974 H 5859.67 -3.88696 -1.16919 0
M  V30 61975 H 5860.44 -4.70539 1.17551 0
M  V30 61976 H 5856.32 -4.60976 -0.0469725 0
M  V30 61977 H 5859.86 -6.32099 2.95121 0
M  V30 61978 H 5855.76 -6.22147 1.72057 0
M  V30 61979 H 5856.53 -7.44734 3.39579 0
M  V30 61980 N 5859.19 -0.105304 -1.57248 0
M  V30 61981 C 5860.1 0.86393 -2.18113 0
M  V30 61982 C 5861.11 1.30278 -1.15342 0
M  V30 61983 O 5862.29 1.36859 -1.47755 0
M  V30 61984 C 5859.36 2.10131 -2.75764 0
M  V30 61985 C 5858.42 1.71569 -3.93526 0
M  V30 61986 C 5857.65 2.89408 -4.48418 0
M  V30 61987 O 5857.87 4.04435 -4.02229 0
M  V30 61988 O 5856.81 2.67284 -5.39298 0
M  V30 61989 H 5860.63 0.376025 -3.01363 0
M  V30 61990 H 5858.22 0.119591 -1.48921 0
M  V30 61991 H 5860.1 2.82627 -3.1257 0
M  V30 61992 H 5858.77 2.57954 -1.95554 0
M  V30 61993 H 5857.68 0.96222 -3.61514 0
M  V30 61994 H 5859.01 1.285 -4.7513 0
M  V30 61995 N 5860.67 1.56697 0.168431 0
M  V30 61996 C 5861.6 1.93201 1.23312 0
M  V30 61997 C 5862.61 0.825422 1.40323 0
M  V30 61998 O 5863.8 1.10386 1.40275 0
M  V30 61999 C 5860.9 2.17214 2.60137 0
M  V30 62000 C 5860.07 3.48451 2.64387 0
M  V30 62001 C 5859.13 3.61257 3.82596 0
M  V30 62002 O 5858.16 4.3385 3.6846 0
M  V30 62003 N 5859.36 2.96322 4.99173 0
M  V30 62004 H 5862.13 2.85132 0.923038 0
M  V30 62005 H 5859.69 1.57888 0.358173 0
M  V30 62006 H 5861.68 2.23043 3.37689 0
M  V30 62007 H 5860.25 1.31653 2.83525 0
M  V30 62008 H 5859.47 3.54254 1.72909 0
M  V30 62009 H 5860.76 4.34804 2.64239 0
M  V30 62010 H 5860.15 2.37221 5.13559 0
M  V30 62011 H 5858.71 3.07742 5.74576 0
M  V30 62012 N 5862.14 -0.437082 1.51418 0
M  V30 62013 C 5863.11 -1.51307 1.7216 0
M  V30 62014 C 5864.11 -1.49521 0.591622 0
M  V30 62015 O 5865.3 -1.51538 0.859172 0
M  V30 62016 C 5862.43 -2.90844 1.77828 0
M  V30 62017 H 5863.62 -1.34219 2.68189 0
M  V30 62018 H 5861.18 -0.665772 1.41411 0
M  V30 62019 H 5861.91 -3.13335 0.836144 0
M  V30 62020 H 5861.7 -2.93545 2.5995 0
M  V30 62021 H 5863.19 -3.68898 1.95713 0
M  V30 62022 N 5863.62 -1.41568 -0.692542 0
M  V30 62023 C 5864.87 -1.41297 -1.45475 0
M  V30 62024 C 5865.2 -0.0229776 -1.94186 0
M  V30 62025 O 5864.48 0.94979 -1.69733 0
M  V30 62026 C 5864.76 -2.42234 -2.66448 0
M  V30 62027 C 5864.61 -3.90353 -2.23483 0
M  V30 62028 C 5865.93 -2.40387 -3.68649 0
M  V30 62029 H 5863.05 -0.514548 -0.527645 0
M  V30 62030 H 5865.69 -1.72864 -0.788537 0
M  V30 62031 H 5863.84 -2.15446 -3.23288 0
M  V30 62032 H 5865.51 -4.28056 -1.71947 0
M  V30 62033 H 5863.76 -4.05073 -1.55235 0
M  V30 62034 H 5864.43 -4.56529 -3.10298 0
M  V30 62035 H 5866.9 -2.64167 -3.21489 0
M  V30 62036 H 5865.78 -3.1302 -4.50899 0
M  V30 62037 H 5866.04 -1.42352 -4.18555 0
M  V30 62038 N 5865.1 0.927101 -1.27446 0
M  V30 62039 C 5866.06 2.00934 -1.10264 0
M  V30 62040 C 5867.06 1.60733 -0.0464463 0
M  V30 62041 O 5868.25 1.71751 -0.29109 0
M  V30 62042 C 5865.39 3.34044 -0.680232 0
M  V30 62043 H 5866.58 2.17608 -2.06366 0
M  V30 62044 H 5864.13 1.10798 -1.10243 0
M  V30 62045 H 5864.87 3.2307 0.282145 0
M  V30 62046 H 5864.65 3.6458 -1.44304 0
M  V30 62047 H 5866.14 4.13521 -0.582271 0
M  V30 62048 N 5866.58 1.09478 1.13368 0
M  V30 62049 C 5867.53 0.729352 2.20869 0
M  V30 62050 C 5868.52 -0.269977 1.67235 0
M  V30 62051 O 5869.73 -0.131382 1.7952 0
M  V30 62052 H 5866.1 0.217877 0.719746 0
M  V30 62053 H 5868.07 1.64514 2.48953 0
M  V30 62054 C 5866.82 0.16664 3.473 0
M  V30 62055 H 5866.14 0.926803 3.88909 0
M  V30 62056 H 5867.58 -0.0511126 4.23969 0
M  V30 62057 C 5866.04 -1.09825 3.18497 0
M  V30 62058 O 5866.57 -2.1814 3.3731 0
M  V30 62059 N 5864.78 -1.01297 2.72373 0
M  V30 62060 H 5864.33 -0.131461 2.57264 0
M  V30 62061 H 5864.28 -1.86002 2.53477 0
M  V30 62062 N 5868.06 -1.30604 0.882058 0
M  V30 62063 C 5869.31 -1.95867 0.498047 0
M  V30 62064 C 5869.63 -1.69995 -0.955345 0
M  V30 62065 O 5868.9 -1.02194 -1.67133 0
M  V30 62066 H 5867.48 -0.724692 0.18119 0
M  V30 62067 H 5870.14 -1.59189 1.12449 0
M  V30 62068 H 5869.23 -3.04914 0.665861 0
M  V30 62069 N 5869.54 -0.642713 -1.43899 0
M  V30 62070 C 5870.81 -0.0822402 -1.95427 0
M  V30 62071 C 5871.19 1.39504 -1.58436 0
M  V30 62072 O 5870.54 2.11528 -0.864193 0
M  V30 62073 C 5870.75 -0.317352 -3.47554 0
M  V30 62074 C 5872.1 -0.216696 -4.24047 0
M  V30 62075 O 5873.12 -0.249341 -3.55326 0
M  V30 62076 O 5871.98 -0.131462 -5.46342 0
M  V30 62077 H 5869.08 0.0156645 -0.826852 0
M  V30 62078 H 5871.62 -0.715222 -1.53892 0
M  V30 62079 H 5870.39 -1.34197 -3.67569 0
M  V30 62080 H 5870.02 0.349209 -3.96063 0
M  V30 62081 N 5871.01 1.52851 -0.383971 0
M  V30 62082 C 5872.24 2.06407 0.202692 0
M  V30 62083 C 5872.66 1.25426 1.40179 0
M  V30 62084 O 5872.02 0.277939 1.79157 0
M  V30 62085 C 5872.07 3.56283 0.556289 0
M  V30 62086 O 5871.17 3.7791 1.651 0
M  V30 62087 H 5870.51 0.663524 0.0251504 0
M  V30 62088 H 5873.04 1.97072 -0.549899 0
M  V30 62089 H 5873.05 3.99632 0.822108 0
M  V30 62090 H 5871.73 4.14664 -0.320399 0
M  V30 62091 H 5870.31 3.46453 1.3793 0
M  V30 62092 N 5872.49 0.113641 1.5719 0
M  V30 62093 C 5873.4 -0.852351 2.18568 0
M  V30 62094 C 5874.42 -1.29664 1.16031 0
M  V30 62095 O 5875.59 -1.36074 1.48479 0
M  V30 62096 C 5872.66 -2.08665 2.76875 0
M  V30 62097 C 5871.72 -1.6948 3.9443 0
M  V30 62098 C 5870.95 -2.87026 4.49946 0
M  V30 62099 O 5871.18 -4.02296 4.04368 0
M  V30 62100 O 5870.11 -2.6442 5.40708 0
M  V30 62101 H 5873.94 -0.360038 3.01558 0
M  V30 62102 H 5871.52 -0.111691 1.48982 0
M  V30 62103 H 5873.4 -2.80965 3.14064 0
M  V30 62104 H 5872.08 -2.56913 1.96919 0
M  V30 62105 H 5870.98 -0.943034 3.62019 0
M  V30 62106 H 5872.32 -1.25978 4.75805 0
M  V30 62107 N 5873.97 -1.56785 -0.160118 0
M  V30 62108 C 5875.22 -1.82894 -0.876214 0
M  V30 62109 C 5875.55 -0.693237 -1.81405 0
M  V30 62110 O 5874.82 0.304068 -1.92108 0
M  V30 62111 C 5875.11 -3.19445 -1.66214 0
M  V30 62112 C 5874.96 -4.43559 -0.746675 0
M  V30 62113 C 5876.28 -3.53062 -2.62746 0
M  V30 62114 H 5873.4 -0.665296 -0.317097 0
M  V30 62115 H 5876.04 -1.89469 -0.141937 0
M  V30 62116 H 5874.19 -3.13971 -2.28812 0
M  V30 62117 H 5875.86 -4.61109 -0.132714 0
M  V30 62118 H 5874.1 -4.33765 -0.0554101 0
M  V30 62119 H 5874.78 -5.3568 -1.33234 0
M  V30 62120 H 5877.25 -3.59062 -2.10271 0
M  V30 62121 H 5876.13 -4.49661 -3.14795 0
M  V30 62122 H 5876.39 -2.78341 -3.4348 0
M  V30 62123 N 5875.45 0.429046 -1.51647 0
M  V30 62124 C 5876.69 1.17952 -1.6497 0
M  V30 62125 C 5877.03 1.90666 -0.368822 0
M  V30 62126 O 5876.3 1.83947 0.631958 0
M  V30 62127 C 5876.58 2.18992 -2.85858 0
M  V30 62128 C 5876.44 1.50307 -4.23943 0
M  V30 62129 C 5877.76 3.19885 -3.02261 0
M  V30 62130 H 5874.88 0.427453 -0.600377 0
M  V30 62131 H 5877.52 0.467706 -1.84154 0
M  V30 62132 H 5875.67 2.79697 -2.69633 0
M  V30 62133 H 5877.34 0.928743 -4.51854 0
M  V30 62134 H 5875.58 0.805281 -4.2626 0
M  V30 62135 H 5876.25 2.23933 -5.04538 0
M  V30 62136 H 5878.73 2.6924 -3.17252 0
M  V30 62137 H 5877.61 3.87867 -3.88395 0
M  V30 62138 H 5877.87 3.86469 -2.14695 0
M  V30 62139 N 5876.93 1.41934 0.685024 0
M  V30 62140 C 5877.86 1.47392 1.81102 0
M  V30 62141 C 5878.84 0.331491 1.66839 0
M  V30 62142 O 5880.02 0.544396 1.86413 0
M  V30 62143 C 5877.15 1.36567 3.19322 0
M  V30 62144 C 5876.11 2.4873 3.48306 0
M  V30 62145 C 5875.43 2.22967 4.85994 0
M  V30 62146 C 5876.73 3.91059 3.46223 0
M  V30 62147 H 5878.43 2.4163 1.76792 0
M  V30 62148 H 5875.97 1.163 0.849137 0
M  V30 62149 H 5877.92 1.38995 3.97817 0
M  V30 62150 H 5876.65 0.388177 3.24285 0
M  V30 62151 H 5875.31 2.45602 2.72168 0
M  V30 62152 H 5874.96 1.23535 4.87594 0
M  V30 62153 H 5874.66 2.98133 5.0635 0
M  V30 62154 H 5876.18 2.27128 5.66785 0
M  V30 62155 H 5877.59 3.95845 4.14704 0
M  V30 62156 H 5875.99 4.65994 3.78113 0
M  V30 62157 H 5877.06 4.18458 2.44991 0
M  V30 62158 N 5878.4 -0.920329 1.27936 0
M  V30 62159 C 5879.35 -2.02192 1.11297 0
M  V30 62160 C 5880.32 -1.66096 0.0119454 0
M  V30 62161 O 5881.51 -1.8999 0.175653 0
M  V30 62162 C 5878.65 -3.36309 0.773949 0
M  V30 62163 C 5877.76 -3.85316 1.95336 0
M  V30 62164 C 5876.89 -5.07914 1.55555 0
M  V30 62165 C 5875.93 -5.49235 2.70199 0
M  V30 62166 N 5875.07 -6.63026 2.30956 0
M  V30 62167 H 5879.91 -2.15756 2.05556 0
M  V30 62168 H 5877.45 -1.05687 1.02316 0
M  V30 62169 H 5879.4 -4.13449 0.558169 0
M  V30 62170 H 5878.03 -3.22531 -0.131692 0
M  V30 62171 H 5877.09 -3.04391 2.28146 0
M  V30 62172 H 5878.4 -4.11905 2.81311 0
M  V30 62173 H 5877.55 -5.92577 1.30144 0
M  V30 62174 H 5876.29 -4.83118 0.666987 0
M  V30 62175 H 5875.3 -4.63117 2.96315 0
M  V30 62176 H 5876.52 -5.76022 3.59688 0
M  V30 62177 H 5874.47 -6.39873 1.44561 0
M  V30 62178 H 5874.38 -6.89308 3.10469 0
M  V30 62179 H 5875.65 -7.51011 2.08812 0
M  V30 62180 N 5879.88 -1.10078 -1.12786 0
M  V30 62181 C 5880.83 -0.746249 -2.18403 0
M  V30 62182 C 5881.8 0.275693 -1.63796 0
M  V30 62183 O 5882.98 0.155809 -1.90163 0
M  V30 62184 C 5880.12 -0.180226 -3.44629 0
M  V30 62185 C 5879.24 -1.25702 -4.13307 0
M  V30 62186 C 5878.37 -0.653038 -5.27171 0
M  V30 62187 C 5877.41 -1.71067 -5.87709 0
M  V30 62188 N 5876.55 -1.12722 -6.92992 0
M  V30 62189 H 5881.39 -1.65114 -2.48076 0
M  V30 62190 H 5878.92 -0.824811 -1.218 0
M  V30 62191 H 5880.88 0.165801 -4.1687 0
M  V30 62192 H 5879.51 0.687903 -3.15385 0
M  V30 62193 H 5878.56 -1.72023 -3.39282 0
M  V30 62194 H 5879.88 -2.05778 -4.54375 0
M  V30 62195 H 5879.03 -0.256243 -6.06159 0
M  V30 62196 H 5877.77 0.179199 -4.87371 0
M  V30 62197 H 5876.77 -2.11693 -5.07411 0
M  V30 62198 H 5878 -2.54569 -6.2958 0
M  V30 62199 H 5875.95 -0.316385 -6.55237 0
M  V30 62200 H 5875.86 -1.86487 -7.32638 0
M  V30 62201 H 5877.13 -0.756855 -7.75817 0
M  V30 62202 N 5881.36 1.30135 -0.888972 0
M  V30 62203 C 5882.29 2.30469 -0.375015 0
M  V30 62204 C 5883.27 1.61158 0.544265 0
M  V30 62205 O 5884.46 1.8874 0.45727 0
M  V30 62206 C 5881.59 3.44897 0.407814 0
M  V30 62207 C 5880.54 4.25934 -0.420066 0
M  V30 62208 C 5879.87 5.32454 0.489609 0
M  V30 62209 C 5881.17 4.95074 -1.66431 0
M  V30 62210 H 5882.86 2.73707 -1.21346 0
M  V30 62211 H 5880.41 1.31584 -0.584945 0
M  V30 62212 H 5882.36 4.14155 0.778032 0
M  V30 62213 H 5881.08 3.00475 1.27994 0
M  V30 62214 H 5879.74 3.58369 -0.772474 0
M  V30 62215 H 5879.39 4.84278 1.35957 0
M  V30 62216 H 5879.09 5.87569 -0.0605478 0
M  V30 62217 H 5880.61 6.04566 0.856256 0
M  V30 62218 H 5882.03 5.56827 -1.36444 0
M  V30 62219 H 5880.42 5.60073 -2.15496 0
M  V30 62220 H 5881.49 4.20973 -2.40644 0
M  V30 62221 N 5882.84 0.650335 1.43556 0
M  V30 62222 C 5883.79 -0.0430169 2.3076 0
M  V30 62223 C 5884.76 -0.817579 1.44585 0
M  V30 62224 O 5885.94 -0.794764 1.73459 0
M  V30 62225 C 5883.08 -1.00545 3.30128 0
M  V30 62226 C 5882.19 -0.227297 4.31402 0
M  V30 62227 C 5881.33 -1.18327 5.17853 0
M  V30 62228 C 5880.37 -0.395381 6.10822 0
M  V30 62229 N 5879.5 -1.3028 6.89907 0
M  V30 62230 H 5884.34 0.706503 2.89504 0
M  V30 62231 H 5881.88 0.360168 1.42623 0
M  V30 62232 H 5883.84 -1.57703 3.86245 0
M  V30 62233 H 5882.47 -1.72188 2.7304 0
M  V30 62234 H 5881.52 0.460524 3.77602 0
M  V30 62235 H 5882.83 0.385491 4.97308 0
M  V30 62236 H 5881.99 -1.82558 5.78582 0
M  V30 62237 H 5880.73 -1.82997 4.52066 0
M  V30 62238 H 5879.73 0.260292 5.49184 0
M  V30 62239 H 5880.96 0.246872 6.78651 0
M  V30 62240 H 5878.9 -1.93635 6.26771 0
M  V30 62241 H 5878.82 -0.744504 7.52325 0
M  V30 62242 H 5880.09 -1.93334 7.55144 0
M  V30 62243 N 5884.32 -1.52645 0.392072 0
M  V30 62244 C 5885.26 -2.26533 -0.441739 0
M  V30 62245 C 5886.23 -1.28254 -1.05547 0
M  V30 62246 O 5887.42 -1.57087 -1.08297 0
M  V30 62247 C 5884.56 -3.07745 -1.56163 0
M  V30 62248 C 5883.67 -4.20958 -0.970484 0
M  V30 62249 C 5882.81 -4.8956 -2.06165 0
M  V30 62250 C 5881.85 -5.94762 -1.44655 0
M  V30 62251 N 5880.98 -6.56949 -2.47715 0
M  V30 62252 H 5885.82 -2.97363 0.194804 0
M  V30 62253 H 5883.36 -1.46704 0.1079 0
M  V30 62254 H 5885.32 -3.53124 -2.2217 0
M  V30 62255 H 5883.95 -2.3912 -2.16844 0
M  V30 62256 H 5883 -3.79874 -0.199933 0
M  V30 62257 H 5884.31 -4.96475 -0.481007 0
M  V30 62258 H 5883.47 -5.38257 -2.79937 0
M  V30 62259 H 5882.2 -4.13573 -2.58474 0
M  V30 62260 H 5881.21 -5.45401 -0.694096 0
M  V30 62261 H 5882.43 -6.72683 -0.931381 0
M  V30 62262 H 5880.38 -5.83801 -2.99187 0
M  V30 62263 H 5880.3 -7.28088 -2.0353 0
M  V30 62264 H 5881.57 -7.10289 -3.21108 0
M  V30 62265 N 5885.79 -0.121976 -1.57127 0
M  V30 62266 C 5887.02 0.546255 -2.00077 0
M  V30 62267 C 5887.44 1.59242 -1.00118 0
M  V30 62268 O 5886.8 1.8128 0.026705 0
M  V30 62269 C 5886.85 1.14639 -3.41892 0
M  V30 62270 O 5885.95 2.26187 -3.44838 0
M  V30 62271 H 5885.3 0.136161 -0.649889 0
M  V30 62272 H 5887.83 -0.211329 -2.03506 0
M  V30 62273 H 5887.84 1.4812 -3.80164 0
M  V30 62274 H 5886.51 0.380128 -4.14159 0
M  V30 62275 H 5885.09 1.94123 -3.18388 0
M  V30 62276 N 5887.27 1.56867 0.151801 0
M  V30 62277 C 5888.2 2.00936 1.18941 0
M  V30 62278 C 5889.18 0.888113 1.45074 0
M  V30 62279 O 5890.37 1.15558 1.56077 0
M  V30 62280 C 5887.5 2.38588 2.52374 0
M  V30 62281 C 5886.45 3.53854 2.40773 0
M  V30 62282 C 5885.78 3.77306 3.78873 0
M  V30 62283 C 5887.08 4.86676 1.89587 0
M  V30 62284 H 5888.77 2.87866 0.823006 0
M  V30 62285 H 5886.32 1.38492 0.39445 0
M  V30 62286 H 5888.27 2.68018 3.25184 0
M  V30 62287 H 5887 1.4859 2.90841 0
M  V30 62288 H 5885.65 3.24583 1.70416 0
M  V30 62289 H 5885.3 2.84565 4.14767 0
M  V30 62290 H 5885 4.54874 3.71973 0
M  V30 62291 H 5886.53 4.09155 4.53238 0
M  V30 62292 H 5887.94 5.14855 2.52186 0
M  V30 62293 H 5886.34 5.68017 1.9359 0
M  V30 62294 H 5887.41 4.77369 0.85127 0
M  V30 62295 N 5888.75 -0.420997 1.51873 0
M  V30 62296 C 5889.7 -1.5327 1.7496 0
M  V30 62297 C 5890.69 -1.5779 0.616337 0
M  V30 62298 O 5891.9 -1.61339 0.79811 0
M  V30 62299 H 5888.27 -0.509511 0.553085 0
M  V30 62300 H 5890.24 -1.30978 2.68118 0
M  V30 62301 C 5888.99 -2.90765 1.90659 0
M  V30 62302 H 5888.32 -2.88026 2.77275 0
M  V30 62303 H 5889.76 -3.67875 2.10818 0
M  V30 62304 C 5888.22 -3.30159 0.67058 0
M  V30 62305 O 5888.75 -4.01352 -0.16713 0
M  V30 62306 N 5886.95 -2.86091 0.509914 0
M  V30 62307 H 5886.5 -2.28325 1.1927 0
M  V30 62308 H 5886.46 -3.1281 -0.315808 0
M  V30 62309 N 5890.23 -1.42295 -0.677488 0
M  V30 62310 C 5891.47 -1.42832 -1.43968 0
M  V30 62311 C 5891.81 -0.0435723 -1.94151 0
M  V30 62312 O 5891.08 0.931734 -1.70731 0
M  V30 62313 C 5891.37 -2.45046 -2.63864 0
M  V30 62314 C 5891.22 -3.92701 -2.1933 0
M  V30 62315 C 5892.54 -2.44283 -3.66079 0
M  V30 62316 H 5889.66 -0.520116 -0.522158 0
M  V30 62317 H 5892.3 -1.73691 -0.770158 0
M  V30 62318 H 5890.45 -2.18863 -3.20985 0
M  V30 62319 H 5892.12 -4.29856 -1.67397 0
M  V30 62320 H 5890.36 -4.06697 -1.5093 0
M  V30 62321 H 5891.03 -4.59795 -3.05439 0
M  V30 62322 H 5893.51 -2.67562 -3.18669 0
M  V30 62323 H 5892.39 -3.17785 -4.47553 0
M  V30 62324 H 5892.65 -1.46784 -4.17022 0
M  V30 62325 N 5891.71 0.913531 -1.28423 0
M  V30 62326 C 5892.67 1.99753 -1.12389 0
M  V30 62327 C 5893.67 1.60675 -0.0634915 0
M  V30 62328 O 5894.86 1.71432 -0.30929 0
M  V30 62329 C 5891.99 3.33304 -0.715624 0
M  V30 62330 H 5893.18 2.15407 -2.08662 0
M  V30 62331 H 5890.74 1.09622 -1.11412 0
M  V30 62332 H 5891.47 3.23351 0.247864 0
M  V30 62333 H 5891.26 3.63029 -1.48163 0
M  V30 62334 H 5892.75 4.1288 -0.626098 0
M  V30 62335 N 5893.18 1.10674 1.122 0
M  V30 62336 C 5894.13 0.757821 2.18004 0
M  V30 62337 C 5895.1 -0.267003 1.6394 0
M  V30 62338 O 5896.29 -0.145722 1.90243 0
M  V30 62339 C 5893.43 0.1985 3.44529 0
M  V30 62340 C 5892.54 1.27892 4.12635 0
M  V30 62341 C 5891.67 0.680986 5.26817 0
M  V30 62342 C 5890.71 1.74181 5.86794 0
M  V30 62343 N 5889.85 1.16396 6.92385 0
M  V30 62344 H 5894.69 1.66427 2.47197 0
M  V30 62345 H 5892.23 0.831258 1.21361 0
M  V30 62346 H 5894.19 -0.143691 4.16952 0
M  V30 62347 H 5892.82 -0.671168 3.15745 0
M  V30 62348 H 5891.87 1.7382 3.38365 0
M  V30 62349 H 5893.18 2.08185 4.53277 0
M  V30 62350 H 5892.33 0.288385 6.06014 0
M  V30 62351 H 5891.07 -0.15335 4.87459 0
M  V30 62352 H 5890.08 2.14381 5.06281 0
M  V30 62353 H 5891.3 2.57904 6.28222 0
M  V30 62354 H 5889.25 0.351129 6.5506 0
M  V30 62355 H 5889.17 1.90369 7.31639 0
M  V30 62356 H 5890.43 0.797988 7.75405 0
M  V30 62357 N 5894.66 -1.29661 0.89586 0
M  V30 62358 C 5895.89 -2.00397 0.534403 0
M  V30 62359 C 5896.31 -1.66635 -0.872596 0
M  V30 62360 O 5895.67 -0.888867 -1.58015 0
M  V30 62361 C 5895.72 -3.53151 0.729147 0
M  V30 62362 O 5894.82 -4.11812 -0.220085 0
M  V30 62363 H 5894.16 -0.630165 0.209255 0
M  V30 62364 H 5896.69 -1.65249 1.20639 0
M  V30 62365 H 5896.7 -4.0307 0.63232 0
M  V30 62366 H 5895.38 -3.77061 1.75494 0
M  V30 62367 H 5893.96 -3.72822 -0.0760376 0
M  V30 62368 N 5896.14 -0.657939 -1.43209 0
M  V30 62369 C 5897.05 0.0312853 -2.34579 0
M  V30 62370 C 5898.07 0.807099 -1.54149 0
M  V30 62371 O 5899.24 0.753269 -1.86783 0
M  V30 62372 C 5896.31 0.982542 -3.32486 0
M  V30 62373 C 5895.37 0.203137 -4.28819 0
M  V30 62374 C 5894.6 1.10908 -5.22049 0
M  V30 62375 O 5894.82 2.34843 -5.19813 0
M  V30 62376 O 5893.76 0.57895 -5.99109 0
M  V30 62377 H 5897.58 -0.720912 -2.9502 0
M  V30 62378 H 5895.17 -0.418133 -1.43429 0
M  V30 62379 H 5897.05 1.52909 -3.92679 0
M  V30 62380 H 5895.73 1.71488 -2.74542 0
M  V30 62381 H 5894.63 -0.387113 -3.72092 0
M  V30 62382 H 5895.97 -0.489735 -4.89758 0
M  V30 62383 N 5897.62 1.52435 -0.400162 0
M  V30 62384 C 5898.87 2.01711 0.178534 0
M  V30 62385 C 5899.19 1.28618 1.45903 0
M  V30 62386 O 5898.45 0.378273 1.92009 0
M  V30 62387 C 5898.75 3.54135 0.482016 0
M  V30 62388 C 5898.41 4.45303 -0.708216 0
M  V30 62389 C 5897.08 4.69944 -1.03471 0
M  V30 62390 C 5899.43 4.99029 -1.50396 0
M  V30 62391 C 5896.76 5.45558 -2.15831 0
M  V30 62392 C 5899.11 5.75874 -2.61825 0
M  V30 62393 C 5897.77 5.98789 -2.94971 0
M  V30 62394 H 5897.04 0.738114 0.0653303 0
M  V30 62395 H 5899.69 1.83736 -0.53974 0
M  V30 62396 H 5897.99 3.70241 1.28175 0
M  V30 62397 H 5899.69 3.89764 0.942588 0
M  V30 62398 H 5896.28 4.26297 -0.443749 0
M  V30 62399 H 5900.47 4.79909 -1.26495 0
M  V30 62400 H 5895.72 5.61524 -2.41869 0
M  V30 62401 H 5899.9 6.16503 -3.23879 0
M  V30 62402 H 5897.52 6.57163 -3.82153 0
M  V30 62403 N 5899.1 0.130307 1.5706 0
M  V30 62404 C 5900.37 -0.569105 1.87138 0
M  V30 62405 C 5900.75 -1.84074 1.03344 0
M  V30 62406 O 5900.1 -2.28208 0.11551 0
M  V30 62407 C 5900.31 -0.850663 3.38474 0
M  V30 62408 C 5901.66 -1.19878 4.07326 0
M  V30 62409 O 5902.68 -0.940562 3.43558 0
M  V30 62410 O 5901.54 -1.68391 5.1991 0
M  V30 62411 H 5898.64 -0.288406 0.775081 0
M  V30 62412 H 5901.18 0.165663 1.68889 0
M  V30 62413 H 5899.96 0.0499938 3.91268 0
M  V30 62414 H 5899.58 -1.6402 3.62192 0
M  V30 62415 N 5900.58 -1.56946 -0.14348 0
M  V30 62416 C 5901.99 -1.51689 -0.496238 0
M  V30 62417 C 5902.19 -0.839316 -1.83188 0
M  V30 62418 O 5901.25 -0.411323 -2.49127 0
M  V30 62419 C 5902.56 -2.96458 -0.503298 0
M  V30 62420 C 5904.11 -3.07416 -0.588568 0
M  V30 62421 C 5904.58 -4.53698 -0.626257 0
M  V30 62422 N 5906.07 -4.58056 -0.688382 0
M  V30 62423 C 5906.81 -5.68623 -0.738586 0
M  V30 62424 N 5906.31 -6.88751 -0.74792 0
M  V30 62425 N 5908.1 -5.56666 -0.779735 0
M  V30 62426 H 5900.25 -1.99389 0.731971 0
M  V30 62427 H 5902.51 -0.909537 0.267295 0
M  V30 62428 H 5902.22 -3.49302 0.409968 0
M  V30 62429 H 5902.09 -3.52598 -1.33995 0
M  V30 62430 H 5904.48 -2.54589 -1.49225 0
M  V30 62431 H 5904.56 -2.54314 0.275303 0
M  V30 62432 H 5904.2 -5.07164 0.273286 0
M  V30 62433 H 5904.13 -5.04586 -1.50667 0
M  V30 62434 H 5906.63 -3.71578 -0.688324 0
M  V30 62435 H 5906.94 -7.6877 -0.788174 0
M  V30 62436 H 5905.28 -6.91305 -0.715739 0
M  V30 62437 H 5908.47 -4.6173 -0.769636 0
M  V30 62438 H 5908.65 -6.42849 -0.815395 0
M  V30 62439 N 5902.05 0.412937 -1.52094 0
M  V30 62440 C 5903.33 1.17299 -1.56526 0
M  V30 62441 C 5903.71 2.08278 -0.343999 0
M  V30 62442 O 5903.06 2.18475 0.669399 0
M  V30 62443 C 5903.27 1.9536 -2.89198 0
M  V30 62444 C 5904.62 2.51559 -3.42057 0
M  V30 62445 O 5905.64 2.05545 -2.90912 0
M  V30 62446 O 5904.5 3.35548 -4.31358 0
M  V30 62447 H 5901.59 0.535364 -0.630329 0
M  V30 62448 H 5904.14 0.420026 -1.6442 0
M  V30 62449 H 5902.91 1.28688 -3.69534 0
M  V30 62450 H 5902.53 2.7767 -2.84579 0
M  V30 62451 N 5903.53 1.42652 0.669932 0
M  V30 62452 C 5904.49 1.46202 1.76515 0
M  V30 62453 C 5905.49 0.348939 1.56968 0
M  V30 62454 O 5906.68 0.609979 1.63171 0
M  V30 62455 C 5903.82 1.2984 3.15205 0
M  V30 62456 H 5905.01 2.43724 1.74754 0
M  V30 62457 H 5902.56 1.29171 0.880025 0
M  V30 62458 H 5903.3 0.332606 3.2259 0
M  V30 62459 H 5903.08 2.10513 3.30797 0
M  V30 62460 H 5904.57 1.35218 3.95102 0
M  V30 62461 N 5905.01 -0.906708 1.28905 0
M  V30 62462 C 5905.97 -1.99154 1.13447 0
M  V30 62463 C 5906.97 -1.60639 0.0720116 0
M  V30 62464 O 5908.16 -1.71266 0.318377 0
M  V30 62465 C 5905.29 -3.3292 0.73329 0
M  V30 62466 H 5906.49 -2.14297 2.09802 0
M  V30 62467 H 5904.04 -1.0903 1.11992 0
M  V30 62468 H 5904.78 -3.23478 -0.230712 0
M  V30 62469 H 5904.56 -3.62238 1.50086 0
M  V30 62470 H 5906.05 -4.12542 0.647985 0
M  V30 62471 N 5906.49 -1.11268 -1.11612 0
M  V30 62472 C 5907.42 -0.713192 -2.16769 0
M  V30 62473 C 5908.4 0.289735 -1.59998 0
M  V30 62474 O 5909.58 0.186583 -1.87574 0
M  V30 62475 C 5906.71 -0.0536974 -3.38657 0
M  V30 62476 C 5905.76 -1.02148 -4.14087 0
M  V30 62477 S 5906.59 -2.54311 -4.7126 0
M  V30 62478 C 5907.74 -1.89657 -5.96474 0
M  V30 62479 H 5907.98 -1.60396 -2.5032 0
M  V30 62480 H 5905.51 -0.930537 -1.23209 0
M  V30 62481 H 5907.47 0.32046 -4.09247 0
M  V30 62482 H 5906.13 0.814 -3.03369 0
M  V30 62483 H 5905.32 -0.507446 -5.01439 0
M  V30 62484 H 5904.92 -1.33798 -3.49248 0
M  V30 62485 H 5907.22 -1.23195 -6.66205 0
M  V30 62486 H 5908.16 -2.75 -6.52519 0
M  V30 62487 H 5908.57 -1.35748 -5.47935 0
M  V30 62488 N 5907.97 1.29185 -0.902724 0
M  V30 62489 C 5908.9 2.26663 -0.340044 0
M  V30 62490 C 5909.91 1.54428 0.515342 0
M  V30 62491 O 5911.1 1.75385 0.332009 0
M  V30 62492 C 5908.2 3.34674 0.533535 0
M  V30 62493 C 5907.37 4.36392 -0.296814 0
M  V30 62494 C 5906.43 5.23722 0.51008 0
M  V30 62495 O 5905.46 5.69153 -0.0734872 0
M  V30 62496 N 5906.66 5.51379 1.81553 0
M  V30 62497 H 5909.42 2.75583 -1.17787 0
M  V30 62498 H 5906.99 1.42551 -0.767524 0
M  V30 62499 H 5908.98 3.90028 1.07981 0
M  V30 62500 H 5907.55 2.85548 1.27206 0
M  V30 62501 H 5906.77 3.80654 -1.0245 0
M  V30 62502 H 5908.06 5.01387 -0.865368 0
M  V30 62503 H 5907.45 5.16283 2.31232 0
M  V30 62504 H 5906.01 6.09537 2.30886 0
M  V30 62505 N 5909.44 0.665525 1.42858 0
M  V30 62506 C 5910.86 0.334212 1.56061 0
M  V30 62507 C 5911.06 -1.16098 1.64692 0
M  V30 62508 O 5910.12 -1.94617 1.60874 0
M  V30 62509 C 5911.43 1.05638 2.81533 0
M  V30 62510 C 5912.98 1.03781 2.95294 0
M  V30 62511 C 5913.45 1.74112 4.23614 0
M  V30 62512 N 5914.94 1.70936 4.30506 0
M  V30 62513 C 5915.68 2.22218 5.28589 0
M  V30 62514 N 5915.17 2.81843 6.32879 0
M  V30 62515 N 5916.97 2.12647 5.20325 0
M  V30 62516 H 5909.12 1.63565 1.355 0
M  V30 62517 H 5911.38 0.688561 0.651604 0
M  V30 62518 H 5911.09 2.11151 2.81262 0
M  V30 62519 H 5910.96 0.615717 3.72141 0
M  V30 62520 H 5913.35 -0.0089495 2.95099 0
M  V30 62521 H 5913.43 1.51728 2.05942 0
M  V30 62522 H 5913.07 2.78752 4.2457 0
M  V30 62523 H 5913 1.23622 5.11884 0
M  V30 62524 H 5915.49 1.27437 3.55764 0
M  V30 62525 H 5915.81 3.18618 7.04061 0
M  V30 62526 H 5914.15 2.85909 6.33468 0
M  V30 62527 H 5917.34 1.65761 4.37768 0
M  V30 62528 H 5917.52 2.5292 5.96603 0
M  V30 62529 N 5910.92 -1.52221 0.40824 0
M  V30 62530 C 5911.87 -2.26989 -0.417687 0
M  V30 62531 C 5912.84 -1.29366 -1.04181 0
M  V30 62532 O 5914.02 -1.58227 -1.06625 0
M  V30 62533 C 5911.16 -3.09384 -1.5289 0
M  V30 62534 C 5910.28 -4.21964 -0.925781 0
M  V30 62535 C 5909.41 -4.91719 -2.00961 0
M  V30 62536 C 5908.45 -5.96262 -1.38339 0
M  V30 62537 N 5907.59 -6.59539 -2.40733 0
M  V30 62538 H 5912.43 -2.97139 0.226332 0
M  V30 62539 H 5909.96 -1.46581 0.123453 0
M  V30 62540 H 5911.92 -3.5546 -2.18412 0
M  V30 62541 H 5910.55 -2.41406 -2.14296 0
M  V30 62542 H 5909.6 -3.80065 -0.159631 0
M  V30 62543 H 5910.92 -4.96958 -0.428322 0
M  V30 62544 H 5910.07 -5.41195 -2.74212 0
M  V30 62545 H 5908.81 -4.16291 -2.54073 0
M  V30 62546 H 5907.81 -5.46107 -0.63621 0
M  V30 62547 H 5909.04 -6.73633 -0.859981 0
M  V30 62548 H 5906.99 -5.86941 -2.92978 0
M  V30 62549 H 5906.9 -7.30205 -1.95796 0
M  V30 62550 H 5908.17 -7.13655 -3.13556 0
M  V30 62551 N 5912.4 -0.138635 -1.56989 0
M  V30 62552 C 5913.33 0.800491 -2.1935 0
M  V30 62553 C 5914.31 1.26314 -1.13925 0
M  V30 62554 O 5915.5 1.32221 -1.42237 0
M  V30 62555 C 5912.63 2.04307 -2.80849 0
M  V30 62556 C 5911.58 1.7175 -3.92028 0
M  V30 62557 C 5910.91 3.03202 -4.40423 0
M  V30 62558 C 5912.21 0.970608 -5.13202 0
M  V30 62559 H 5913.9 0.280783 -2.9808 0
M  V30 62560 H 5911.45 0.133612 -1.43379 0
M  V30 62561 H 5913.4 2.70479 -3.23139 0
M  V30 62562 H 5912.12 2.58636 -1.99437 0
M  V30 62563 H 5910.78 1.07959 -3.50343 0
M  V30 62564 H 5910.43 3.55505 -3.55845 0
M  V30 62565 H 5910.13 2.82185 -5.15408 0
M  V30 62566 H 5911.65 3.70459 -4.85378 0
M  V30 62567 H 5913.07 1.53425 -5.52389 0
M  V30 62568 H 5911.47 0.860686 -5.93896 0
M  V30 62569 H 5912.54 -0.0391792 -4.84884 0
M  V30 62570 N 5913.88 1.57019 0.135155 0
M  V30 62571 C 5914.79 2.02431 1.18571 0
M  V30 62572 C 5915.8 0.941789 1.46309 0
M  V30 62573 O 5916.98 1.25214 1.57745 0
M  V30 62574 C 5914.05 2.40585 2.49639 0
M  V30 62575 C 5913.11 3.62843 2.29442 0
M  V30 62576 C 5912.34 3.99168 3.5426 0
M  V30 62577 O 5912.56 3.36017 4.60922 0
M  V30 62578 O 5911.5 4.92357 3.4622 0
M  V30 62579 H 5915.32 2.92134 0.830134 0
M  V30 62580 H 5912.91 1.45368 0.344763 0
M  V30 62581 H 5914.79 2.65933 3.26891 0
M  V30 62582 H 5913.46 1.54033 2.84702 0
M  V30 62583 H 5912.37 3.42666 1.50102 0
M  V30 62584 H 5913.7 4.5005 1.99289 0
M  V30 62585 N 5915.36 -0.404866 1.52311 0
M  V30 62586 C 5916.3 -1.49356 1.75958 0
M  V30 62587 C 5917.27 -1.548 0.602174 0
M  V30 62588 O 5918.46 -1.71305 0.840189 0
M  V30 62589 C 5915.6 -2.8676 1.91997 0
M  V30 62590 C 5914.71 -2.90592 3.19656 0
M  V30 62591 C 5913.85 -4.19322 3.26103 0
M  V30 62592 C 5912.89 -4.17145 4.47947 0
M  V30 62593 N 5912.02 -5.37453 4.51762 0
M  V30 62594 H 5916.86 -1.28494 2.68874 0
M  V30 62595 H 5914.4 -0.623637 1.33226 0
M  V30 62596 H 5916.36 -3.66529 1.9928 0
M  V30 62597 H 5914.99 -3.06108 1.02457 0
M  V30 62598 H 5914.04 -2.03289 3.21524 0
M  V30 62599 H 5915.35 -2.84849 4.09466 0
M  V30 62600 H 5914.51 -5.07486 3.32481 0
M  V30 62601 H 5913.24 -4.27766 2.34239 0
M  V30 62602 H 5912.25 -3.2737 4.41711 0
M  V30 62603 H 5913.47 -4.10337 5.4111 0
M  V30 62604 H 5911.42 -5.46557 3.62783 0
M  V30 62605 H 5911.34 -5.33722 5.35422 0
M  V30 62606 H 5912.61 -6.27559 4.62375 0
M  V30 62607 N 5916.83 -1.43006 -0.662357 0
M  V30 62608 C 5917.77 -1.41896 -1.7872 0
M  V30 62609 C 5918.75 -0.281571 -1.60143 0
M  V30 62610 O 5919.93 -0.473741 -1.8245 0
M  V30 62611 C 5917.06 -1.22178 -3.15896 0
M  V30 62612 C 5916.1 -2.39073 -3.53195 0
M  V30 62613 S 5916.94 -4.01619 -3.54207 0
M  V30 62614 C 5918.09 -3.84266 -4.94055 0
M  V30 62615 H 5918.32 -2.3708 -1.79389 0
M  V30 62616 H 5915.86 -1.29927 -0.834168 0
M  V30 62617 H 5917.82 -1.11488 -3.9507 0
M  V30 62618 H 5916.48 -0.285578 -3.12799 0
M  V30 62619 H 5915.67 -2.21057 -4.52935 0
M  V30 62620 H 5915.27 -2.46341 -2.81411 0
M  V30 62621 H 5917.56 -3.46026 -5.82471 0
M  V30 62622 H 5918.51 -4.83727 -5.17121 0
M  V30 62623 H 5918.91 -3.16896 -4.67159 0
M  V30 62624 N 5918.31 0.899859 -1.29384 0
M  V30 62625 C 5919.28 1.9855 -1.14501 0
M  V30 62626 C 5920.28 1.60598 -0.0805296 0
M  V30 62627 O 5921.47 1.71095 -0.327455 0
M  V30 62628 C 5918.6 3.32526 -0.750935 0
M  V30 62629 H 5919.79 2.13182 -2.10935 0
M  V30 62630 H 5917.34 1.08434 -1.12568 0
M  V30 62631 H 5918.08 3.23596 0.213554 0
M  V30 62632 H 5917.86 3.61437 -1.52005 0
M  V30 62633 H 5919.35 4.12193 -0.669854 0
M  V30 62634 N 5919.79 1.11858 1.1102 0
M  V30 62635 C 5921.07 0.781756 1.79298 0
M  V30 62636 C 5921.45 -0.72949 1.98095 0
M  V30 62637 O 5920.8 -1.66104 1.56913 0
M  V30 62638 C 5921.01 1.54987 3.12698 0
M  V30 62639 C 5922.35 1.73196 3.8767 0
M  V30 62640 O 5923.38 1.51448 3.224 0
M  V30 62641 O 5922.24 2.09368 5.04804 0
M  V30 62642 H 5919.33 0.283699 0.776816 0
M  V30 62643 H 5921.88 1.22226 1.17724 0
M  V30 62644 H 5920.65 2.57769 2.94399 0
M  V30 62645 H 5920.27 1.10321 3.81988 0
M  V30 62646 N 5921.27 -1.28704 0.909562 0
M  V30 62647 C 5922.2 -2.2648 0.35206 0
M  V30 62648 C 5923.21 -1.54699 -0.507145 0
M  V30 62649 O 5924.4 -1.75559 -0.322703 0
M  V30 62650 C 5921.5 -3.34952 -0.515779 0
M  V30 62651 C 5920.68 -4.36228 0.319953 0
M  V30 62652 C 5919.73 -5.23985 -0.482299 0
M  V30 62653 O 5918.76 -5.69106 0.10367 0
M  V30 62654 N 5919.96 -5.52334 -1.78626 0
M  V30 62655 H 5922.73 -2.74955 1.19247 0
M  V30 62656 H 5920.29 -1.42142 0.775073 0
M  V30 62657 H 5922.28 -3.90596 -1.05911 0
M  V30 62658 H 5920.85 -2.86218 -1.2569 0
M  V30 62659 H 5920.07 -3.80106 1.04467 0
M  V30 62660 H 5921.36 -5.00921 0.891945 0
M  V30 62661 H 5920.76 -5.17502 -2.28491 0
M  V30 62662 H 5919.31 -6.10752 -2.2765 0
M  V30 62663 N 5922.75 -0.673092 -1.42503 0
M  V30 62664 C 5923.71 -0.00291213 -2.292 0
M  V30 62665 C 5924.71 0.730719 -1.43238 0
M  V30 62666 O 5925.9 0.568979 -1.64646 0
M  V30 62667 C 5923.03 1.00655 -3.25701 0
M  V30 62668 H 5924.22 -0.765971 -2.89953 0
M  V30 62669 H 5921.78 -0.435353 -1.50115 0
M  V30 62670 H 5922.51 1.79816 -2.69883 0
M  V30 62671 H 5922.3 0.483906 -3.89103 0
M  V30 62672 H 5923.79 1.47395 -3.90723 0
M  V30 62673 N 5924.22 1.52002 -0.416307 0
M  V30 62674 C 5925.16 2.23711 0.450395 0
M  V30 62675 C 5926.14 1.24815 1.04211 0
M  V30 62676 O 5927.32 1.53889 1.0886 0
M  V30 62677 C 5924.45 2.97128 1.62581 0
M  V30 62678 C 5923.49 4.10512 1.15681 0
M  V30 62679 S 5924.33 5.35374 0.11605 0
M  V30 62680 C 5925.48 6.12322 1.29663 0
M  V30 62681 H 5925.71 2.96877 -0.158466 0
M  V30 62682 H 5923.25 1.53091 -0.200656 0
M  V30 62683 H 5925.21 3.4003 2.29978 0
M  V30 62684 H 5923.87 2.23591 2.20604 0
M  V30 62685 H 5923.06 4.61082 2.03518 0
M  V30 62686 H 5922.66 3.69763 0.561388 0
M  V30 62687 H 5924.95 6.40133 2.21892 0
M  V30 62688 H 5925.9 7.03203 0.831322 0
M  V30 62689 H 5926.3 5.43492 1.52567 0
M  V30 62690 N 5925.7 0.146958 1.56913 0
M  V30 62691 C 5926.93 -0.511111 2.00488 0
M  V30 62692 C 5927.35 -1.58421 1.02704 0
M  V30 62693 O 5926.7 -1.82484 0.024052 0
M  V30 62694 C 5926.75 -1.11179 3.43979 0
M  V30 62695 O 5926.47 -0.0815554 4.38024 0
M  V30 62696 C 5927.98 -1.85047 4.0283 0
M  V30 62697 H 5925.2 -0.133055 0.657676 0
M  V30 62698 H 5927.74 0.241529 2.03069 0
M  V30 62699 H 5925.89 -1.81505 3.42249 0
M  V30 62700 H 5926.31 -0.521626 5.219 0
M  V30 62701 H 5927.78 -2.22367 5.05229 0
M  V30 62702 H 5928.26 -2.73637 3.4354 0
M  V30 62703 H 5928.87 -1.1942 4.0819 0
M  V30 62704 N 5927.18 -1.57089 -0.126826 0
M  V30 62705 C 5928.11 -1.96403 -1.18147 0
M  V30 62706 C 5929.13 -0.862336 -1.38085 0
M  V30 62707 O 5930.32 -1.14067 -1.37299 0
M  V30 62708 C 5927.42 -2.24035 -2.54287 0
M  V30 62709 C 5926.59 -3.55339 -2.55055 0
M  V30 62710 C 5925.65 -3.71274 -3.72883 0
M  V30 62711 O 5924.67 -4.43466 -3.56828 0
M  V30 62712 N 5925.88 -3.09452 -4.91141 0
M  V30 62713 H 5928.64 -2.87479 -0.847116 0
M  V30 62714 H 5926.2 -1.58782 -0.316186 0
M  V30 62715 H 5928.19 -2.31918 -3.31657 0
M  V30 62716 H 5926.76 -1.39124 -2.79934 0
M  V30 62717 H 5925.98 -3.58714 -1.63456 0
M  V30 62718 H 5927.27 -4.41657 -2.52619 0
M  V30 62719 H 5926.67 -2.50754 -5.07089 0
M  V30 62720 H 5925.23 -3.22868 -5.66215 0
M  V30 62721 N 5928.66 0.396782 -1.52523 0
M  V30 62722 C 5929.59 1.50558 -1.71486 0
M  V30 62723 C 5930.57 1.52558 -0.562577 0
M  V30 62724 O 5931.75 1.7108 -0.791438 0
M  V30 62725 C 5928.88 2.89052 -1.76541 0
M  V30 62726 C 5927.93 3.04912 -2.98213 0
M  V30 62727 S 5928.76 2.76928 -4.58335 0
M  V30 62728 C 5929.92 4.17629 -4.66194 0
M  V30 62729 H 5930.15 1.34246 -2.65264 0
M  V30 62730 H 5927.68 0.589158 -1.42718 0
M  V30 62731 H 5929.64 3.68864 -1.80138 0
M  V30 62732 H 5928.3 3.02696 -0.838688 0
M  V30 62733 H 5927.49 4.06266 -2.98268 0
M  V30 62734 H 5927.1 2.32982 -2.92567 0
M  V30 62735 H 5929.39 5.11446 -4.4433 0
M  V30 62736 H 5930.33 4.22592 -5.68174 0
M  V30 62737 H 5930.74 4.03175 -3.95108 0
M  V30 62738 N 5930.14 1.43355 0.654764 0
M  V30 62739 C 5931.37 1.48112 1.44036 0
M  V30 62740 C 5931.78 0.0971087 1.88951 0
M  V30 62741 O 5931.12 -0.90263 1.59995 0
M  V30 62742 C 5931.18 2.36331 2.70902 0
M  V30 62743 C 5930.84 3.83896 2.47937 0
M  V30 62744 C 5931.84 4.75043 2.11258 0
M  V30 62745 C 5929.53 4.28368 2.62309 0
M  V30 62746 C 5931.52 6.08658 1.89246 0
M  V30 62747 C 5929.21 5.62037 2.39913 0
M  V30 62748 C 5930.21 6.51999 2.03437 0
M  V30 62749 O 5929.89 7.83196 1.81273 0
M  V30 62750 H 5929.63 0.505336 0.449012 0
M  V30 62751 H 5932.18 1.88747 0.81016 0
M  V30 62752 H 5930.41 1.90581 3.36476 0
M  V30 62753 H 5932.1 2.3231 3.32847 0
M  V30 62754 H 5932.86 4.41964 1.99732 0
M  V30 62755 H 5928.74 3.58621 2.89676 0
M  V30 62756 H 5932.29 6.78838 1.60699 0
M  V30 62757 H 5928.18 5.94684 2.51041 0
M  V30 62758 H 5928.95 7.94758 1.9571 0
M  V30 62759 N 5931.62 -0.892985 1.2986 0
M  V30 62760 C 5932.56 -1.99786 1.15561 0
M  V30 62761 C 5933.53 -1.66033 0.0471741 0
M  V30 62762 O 5934.72 -1.89574 0.215913 0
M  V30 62763 C 5931.86 -3.34592 0.845111 0
M  V30 62764 C 5930.97 -3.81085 2.03465 0
M  V30 62765 C 5930.11 -5.045 1.66293 0
M  V30 62766 C 5929.14 -5.4338 2.81789 0
M  V30 62767 N 5928.28 -6.57978 2.44968 0
M  V30 62768 H 5933.12 -2.11348 2.10086 0
M  V30 62769 H 5930.66 -1.03493 1.04535 0
M  V30 62770 H 5932.62 -4.12172 0.645743 0
M  V30 62771 H 5931.25 -3.22738 -0.0632491 0
M  V30 62772 H 5930.3 -2.99483 2.34551 0
M  V30 62773 H 5931.61 -4.05845 2.89985 0
M  V30 62774 H 5930.76 -5.89683 1.42684 0
M  V30 62775 H 5929.5 -4.81594 0.769314 0
M  V30 62776 H 5928.51 -4.56727 3.06072 0
M  V30 62777 H 5929.73 -5.68263 3.71825 0
M  V30 62778 H 5927.68 -6.36663 1.58102 0
M  V30 62779 H 5927.6 -6.82567 3.2502 0
M  V30 62780 H 5928.86 -7.46413 2.24695 0
M  V30 62781 N 5933.09 -1.12445 -1.10425 0
M  V30 62782 C 5934.03 -0.750207 -2.16575 0
M  V30 62783 C 5935.04 0.223208 -1.61263 0
M  V30 62784 O 5936.23 0.00453179 -1.78499 0
M  V30 62785 C 5933.33 -0.0896665 -3.38781 0
M  V30 62786 C 5932.5 -1.09257 -4.23535 0
M  V30 62787 C 5931.56 -0.459634 -5.24189 0
M  V30 62788 O 5930.59 -1.11666 -5.58139 0
M  V30 62789 N 5931.79 0.772891 -5.75332 0
M  V30 62790 H 5934.55 -1.66358 -2.49289 0
M  V30 62791 H 5932.11 -1.01608 -1.26046 0
M  V30 62792 H 5934.11 0.345754 -4.0322 0
M  V30 62793 H 5932.68 0.726465 -3.04042 0
M  V30 62794 H 5931.9 -1.70562 -3.5539 0
M  V30 62795 H 5933.18 -1.77074 -4.76993 0
M  V30 62796 H 5932.58 1.32566 -5.49948 0
M  V30 62797 H 5931.14 1.15113 -6.41555 0
M  V30 62798 N 5934.57 1.2822 -0.916375 0
M  V30 62799 C 5935.53 2.25476 -0.411503 0
M  V30 62800 C 5936.53 1.53971 0.463635 0
M  V30 62801 O 5937.72 1.72152 0.266318 0
M  V30 62802 C 5934.86 3.38429 0.409732 0
M  V30 62803 H 5936.05 2.71651 -1.27065 0
M  V30 62804 H 5933.6 1.39948 -0.696015 0
M  V30 62805 H 5934.34 2.97618 1.28818 0
M  V30 62806 H 5934.12 3.91496 -0.217572 0
M  V30 62807 H 5935.61 4.10742 0.753718 0
M  V30 62808 N 5936.05 0.68064 1.42144 0
M  V30 62809 C 5937.47 0.350745 1.55698 0
M  V30 62810 C 5937.67 -1.14345 1.65914 0
M  V30 62811 O 5936.72 -1.929 1.62929 0
M  V30 62812 C 5938.03 1.08618 2.80397 0
M  V30 62813 C 5939.58 1.06908 2.94176 0
M  V30 62814 C 5940.06 1.78596 4.21744 0
M  V30 62815 N 5941.55 1.75492 4.28669 0
M  V30 62816 C 5942.28 2.27812 5.26203 0
M  V30 62817 N 5941.78 2.8854 6.29854 0
M  V30 62818 N 5943.57 2.18153 5.1804 0
M  V30 62819 H 5935.72 1.64993 1.33757 0
M  V30 62820 H 5937.99 0.695433 0.644264 0
M  V30 62821 H 5937.69 2.14122 2.79006 0
M  V30 62822 H 5937.57 0.655153 3.71467 0
M  V30 62823 H 5939.95 0.0223502 2.95092 0
M  V30 62824 H 5940.03 1.53904 2.04321 0
M  V30 62825 H 5939.68 2.8324 4.2159 0
M  V30 62826 H 5939.61 1.29045 5.10544 0
M  V30 62827 H 5942.1 1.31203 3.54393 0
M  V30 62828 H 5942.41 3.26068 7.00642 0
M  V30 62829 H 5940.76 2.92612 6.30399 0
M  V30 62830 H 5943.95 1.70395 4.35985 0
M  V30 62831 H 5944.12 2.59234 5.93887 0
M  V30 62832 N 5937.53 -1.51779 0.424362 0
M  V30 62833 C 5938.75 -2.06872 -0.147895 0
M  V30 62834 C 5939.18 -1.29098 -1.36804 0
M  V30 62835 O 5938.54 -0.325341 -1.78357 0
M  V30 62836 C 5938.58 -3.57633 -0.461631 0
M  V30 62837 O 5937.69 -3.82154 -1.55022 0
M  V30 62838 H 5937.03 -0.663957 -0.00754941 0
M  V30 62839 H 5939.56 -1.95544 0.601956 0
M  V30 62840 H 5939.57 -4.01671 -0.715864 0
M  V30 62841 H 5938.24 -4.13669 0.430227 0
M  V30 62842 H 5936.82 -3.49988 -1.28696 0
M  V30 62843 N 5939.01 -0.155278 -1.56833 0
M  V30 62844 C 5939.92 0.794102 -2.20751 0
M  V30 62845 C 5940.93 1.26542 -1.19428 0
M  V30 62846 O 5942.11 1.32089 -1.52034 0
M  V30 62847 C 5939.17 2.01251 -2.8231 0
M  V30 62848 C 5938.23 1.58962 -3.98785 0
M  V30 62849 C 5937.47 2.74995 -4.57398 0
M  V30 62850 O 5937.69 3.91434 -4.14892 0
M  V30 62851 O 5936.62 2.49991 -5.47529 0
M  V30 62852 H 5940.45 0.279958 -3.02407 0
M  V30 62853 H 5938.03 0.0721523 -1.49226 0
M  V30 62854 H 5939.92 2.7254 -3.21403 0
M  V30 62855 H 5938.59 2.51602 -2.03662 0
M  V30 62856 H 5937.5 0.84672 -3.64392 0
M  V30 62857 H 5938.83 1.13319 -4.78978 0
M  V30 62858 N 5940.48 1.57154 0.118493 0
M  V30 62859 C 5941.76 1.75849 0.856525 0
M  V30 62860 C 5942.14 0.730871 1.98044 0
M  V30 62861 O 5941.49 -0.245076 2.27182 0
M  V30 62862 C 5941.7 3.20869 1.37274 0
M  V30 62863 C 5943.05 3.83384 1.82488 0
M  V30 62864 O 5944.07 3.24474 1.46952 0
M  V30 62865 O 5942.93 4.86931 2.48115 0
M  V30 62866 H 5940.02 0.720034 0.406792 0
M  V30 62867 H 5942.57 1.69392 0.102195 0
M  V30 62868 H 5941.34 3.87179 0.566395 0
M  V30 62869 H 5940.96 3.31866 2.18976 0
M  V30 62870 N 5941.96 -0.388688 1.52732 0
M  V30 62871 C 5942.91 -1.47482 1.77532 0
M  V30 62872 C 5943.88 -1.54153 0.618559 0
M  V30 62873 O 5945.06 -1.70404 0.858311 0
M  V30 62874 C 5942.2 -2.84707 1.95028 0
M  V30 62875 C 5941.32 -2.87185 3.2272 0
M  V30 62876 C 5940.45 -4.15839 3.30532 0
M  V30 62877 C 5939.49 -4.1237 4.52346 0
M  V30 62878 N 5938.63 -5.32631 4.57437 0
M  V30 62879 H 5943.47 -1.25635 2.70222 0
M  V30 62880 H 5941.01 -0.609472 1.3388 0
M  V30 62881 H 5942.96 -3.64395 2.03156 0
M  V30 62882 H 5941.59 -3.05004 1.05698 0
M  V30 62883 H 5940.65 -1.99867 3.23662 0
M  V30 62884 H 5941.96 -2.8049 4.12464 0
M  V30 62885 H 5941.11 -5.03931 3.37844 0
M  V30 62886 H 5939.85 -4.25257 2.38763 0
M  V30 62887 H 5938.86 -3.22667 4.45158 0
M  V30 62888 H 5940.08 -4.04575 5.45432 0
M  V30 62889 H 5938.03 -5.42678 3.6856 0
M  V30 62890 H 5937.94 -5.28013 5.41053 0
M  V30 62891 H 5939.21 -6.22619 4.69005 0
M  V30 62892 N 5943.44 -1.437 -0.647152 0
M  V30 62893 C 5944.86 -1.27234 -0.963518 0
M  V30 62894 C 5945.06 -0.196456 -2.0054 0
M  V30 62895 O 5944.11 0.423074 -2.4893 0
M  V30 62896 C 5945.43 -2.63868 -1.44201 0
M  V30 62897 C 5946.97 -2.71449 -1.55834 0
M  V30 62898 C 5947.45 -4.08516 -2.07073 0
M  V30 62899 N 5948.94 -4.10611 -2.14366 0
M  V30 62900 C 5949.67 -5.13505 -2.55148 0
M  V30 62901 N 5949.17 -6.26769 -2.95181 0
M  V30 62902 N 5950.96 -5.00859 -2.55141 0
M  V30 62903 H 5943.11 -2.12358 0.0421702 0
M  V30 62904 H 5945.38 -0.946991 -0.0437295 0
M  V30 62905 H 5945.08 -3.43592 -0.75084 0
M  V30 62906 H 5944.96 -2.89675 -2.41595 0
M  V30 62907 H 5947.34 -1.92054 -2.24052 0
M  V30 62908 H 5947.43 -2.49401 -0.568573 0
M  V30 62909 H 5947.07 -4.8838 -1.39455 0
M  V30 62910 H 5947 -4.27931 -3.06892 0
M  V30 62911 H 5949.49 -3.28857 -1.86176 0
M  V30 62912 H 5949.8 -7.01108 -3.25066 0
M  V30 62913 H 5948.15 -6.30232 -2.92971 0
M  V30 62914 H 5951.34 -4.11436 -2.23245 0
M  V30 62915 H 5951.51 -5.81175 -2.86601 0
M  V30 62916 N 5944.92 0.886085 -1.30331 0
M  V30 62917 C 5945.88 1.97324 -1.16601 0
M  V30 62918 C 5946.88 1.60504 -0.0975587 0
M  V30 62919 O 5948.07 1.70738 -0.345584 0
M  V30 62920 C 5945.2 3.31711 -0.786161 0
M  V30 62921 H 5946.4 2.10932 -2.13184 0
M  V30 62922 H 5943.95 1.07234 -1.13712 0
M  V30 62923 H 5944.68 3.23804 0.17922 0
M  V30 62924 H 5944.47 3.59805 -1.5583 0
M  V30 62925 H 5945.96 4.11459 -0.713535 0
M  V30 62926 N 5946.4 1.13029 1.09828 0
M  V30 62927 C 5947.34 0.803893 2.16347 0
M  V30 62928 C 5948.31 -0.232169 1.64469 0
M  V30 62929 O 5949.5 -0.105336 1.90509 0
M  V30 62930 C 5946.64 0.271535 3.4403 0
M  V30 62931 C 5945.75 1.36616 4.09829 0
M  V30 62932 C 5944.89 0.792578 5.25254 0
M  V30 62933 C 5943.93 1.86589 5.82967 0
M  V30 62934 N 5943.06 1.31056 6.8976 0
M  V30 62935 H 5947.9 1.71633 2.43611 0
M  V30 62936 H 5945.44 0.856814 1.19571 0
M  V30 62937 H 5947.4 -0.0552171 4.17163 0
M  V30 62938 H 5946.03 -0.604042 3.17098 0
M  V30 62939 H 5945.08 1.80958 3.34602 0
M  V30 62940 H 5946.39 2.17753 4.4876 0
M  V30 62941 H 5945.55 0.416865 6.05266 0
M  V30 62942 H 5944.28 -0.0499179 4.87674 0
M  V30 62943 H 5943.29 2.25072 5.0162 0
M  V30 62944 H 5944.51 2.71172 6.2261 0
M  V30 62945 H 5942.46 0.489998 6.54167 0
M  V30 62946 H 5942.38 2.05846 7.27436 0
M  V30 62947 H 5943.65 0.962283 7.73538 0
M  V30 62948 N 5947.87 -1.27732 0.923162 0
M  V30 62949 C 5949.12 -1.94856 0.562049 0
M  V30 62950 C 5949.45 -1.72417 -0.893637 0
M  V30 62951 O 5948.73 -1.05059 -1.63685 0
M  V30 62952 C 5949.01 -3.49099 0.883296 0
M  V30 62953 C 5948.86 -3.80899 2.3924 0
M  V30 62954 C 5950.18 -4.38404 0.386003 0
M  V30 62955 H 5947.3 -0.707721 0.205671 0
M  V30 62956 H 5949.94 -1.50931 1.15412 0
M  V30 62957 H 5948.09 -3.86643 0.379428 0
M  V30 62958 H 5949.77 -3.53172 2.96761 0
M  V30 62959 H 5948.01 -3.2761 2.84348 0
M  V30 62960 H 5948.68 -4.88644 2.56771 0
M  V30 62961 H 5951.16 -4.07985 0.817774 0
M  V30 62962 H 5950.03 -5.45159 0.639772 0
M  V30 62963 H 5950.29 -4.36299 -0.713855 0
M  V30 62964 N 5949.35 -0.688168 -1.41782 0
M  V30 62965 C 5950.58 -0.224822 -2.05675 0
M  V30 62966 C 5951 1.12314 -1.51759 0
M  V30 62967 O 5950.35 1.70039 -0.662795 0
M  V30 62968 C 5950.4 -0.165788 -3.6112 0
M  V30 62969 O 5950.12 -1.4605 -4.13039 0
M  V30 62970 C 5951.63 0.319444 -4.42148 0
M  V30 62971 H 5948.85 -0.106159 -0.662549 0
M  V30 62972 H 5951.39 -0.938669 -1.81684 0
M  V30 62973 H 5949.54 0.498833 -3.84175 0
M  V30 62974 H 5949.96 -1.34269 -5.07023 0
M  V30 62975 H 5951.43 0.309636 -5.51131 0
M  V30 62976 H 5951.91 1.35705 -4.17709 0
M  V30 62977 H 5952.52 -0.313914 -4.2414 0
M  V30 62978 N 5950.83 1.51552 -0.432405 0
M  V30 62979 C 5952.06 2.06948 0.136922 0
M  V30 62980 C 5952.48 1.29822 1.36117 0
M  V30 62981 O 5951.84 0.334795 1.78182 0
M  V30 62982 C 5951.89 3.57873 0.442659 0
M  V30 62983 O 5950.99 3.82971 1.52993 0
M  V30 62984 H 5950.33 0.663988 0.00402818 0
M  V30 62985 H 5952.86 1.95223 -0.612318 0
M  V30 62986 H 5952.87 4.02045 0.694552 0
M  V30 62987 H 5951.55 4.13435 -0.452159 0
M  V30 62988 H 5950.12 3.50666 1.26838 0
M  V30 62989 N 5952.31 0.163593 1.56749 0
M  V30 62990 C 5953.27 -0.755725 2.16383 0
M  V30 62991 C 5954.27 -1.16356 1.10987 0
M  V30 62992 O 5955.46 -1.08177 1.36541 0
M  V30 62993 C 5952.59 -2.02766 2.74042 0
M  V30 62994 H 5953.79 -0.236705 2.98964 0
M  V30 62995 H 5951.34 -0.0859377 1.56064 0
M  V30 62996 H 5952.07 -2.58995 1.95172 0
M  V30 62997 H 5951.86 -1.74427 3.51166 0
M  V30 62998 H 5953.35 -2.68389 3.19933 0
M  V30 62999 N 5953.79 -1.57215 -0.110157 0
M  V30 63000 C 5954.72 -1.96202 -1.16533 0
M  V30 63001 C 5955.7 -0.832974 -1.39643 0
M  V30 63002 O 5956.88 -1.09194 -1.53652 0
M  V30 63003 C 5954.01 -2.26585 -2.51748 0
M  V30 63004 C 5953.05 -3.49102 -2.45011 0
M  V30 63005 S 5953.89 -5.0137 -1.88118 0
M  V30 63006 C 5955.04 -5.34914 -3.24988 0
M  V30 63007 H 5955.28 -2.85395 -0.832896 0
M  V30 63008 H 5952.81 -1.51105 -0.317261 0
M  V30 63009 H 5954.77 -2.44767 -3.29544 0
M  V30 63010 H 5953.43 -1.37991 -2.82166 0
M  V30 63011 H 5952.62 -3.67755 -3.44634 0
M  V30 63012 H 5952.22 -3.30352 -1.75339 0
M  V30 63013 H 5954.52 -5.30638 -4.21224 0
M  V30 63014 H 5955.46 -6.36073 -3.11154 0
M  V30 63015 H 5955.87 -4.62383 -3.23825 0
M  V30 63016 N 5955.26 0.380583 -1.52936 0
M  V30 63017 C 5956.2 1.48511 -1.74577 0
M  V30 63018 C 5957.21 1.5027 -0.626316 0
M  V30 63019 O 5958.4 1.5402 -0.902221 0
M  V30 63020 C 5955.5 2.87333 -1.79703 0
M  V30 63021 C 5954.67 3.09443 -3.09134 0
M  V30 63022 C 5953.73 4.28294 -3.05697 0
M  V30 63023 O 5952.76 4.24192 -3.79539 0
M  V30 63024 N 5953.96 5.34925 -2.25468 0
M  V30 63025 H 5956.72 1.30332 -2.69877 0
M  V30 63026 H 5954.28 0.570177 -1.51528 0
M  V30 63027 H 5956.28 3.64955 -1.749 0
M  V30 63028 H 5954.85 2.98832 -0.917519 0
M  V30 63029 H 5954.07 2.19611 -3.2736 0
M  V30 63030 H 5955.35 3.21075 -3.947 0
M  V30 63031 H 5954.75 5.41115 -1.64958 0
M  V30 63032 H 5953.31 6.11181 -2.26498 0
M  V30 63033 N 5956.74 1.44041 0.639523 0
M  V30 63034 C 5957.97 1.49849 1.42664 0
M  V30 63035 C 5958.39 0.120665 1.88414 0
M  V30 63036 O 5957.74 -0.871819 1.6033 0
M  V30 63037 C 5957.79 2.45606 2.65255 0
M  V30 63038 O 5957.52 3.78031 2.21414 0
M  V30 63039 C 5959.02 2.60793 3.58471 0
M  V30 63040 H 5956.24 0.508493 0.437808 0
M  V30 63041 H 5958.78 1.88922 0.782856 0
M  V30 63042 H 5956.94 2.09691 3.25743 0
M  V30 63043 H 5957.35 4.29652 3.00831 0
M  V30 63044 H 5958.82 3.31842 4.41118 0
M  V30 63045 H 5959.3 1.65741 4.06727 0
M  V30 63046 H 5959.91 2.97576 3.03857 0
M  V30 63047 N 5958.22 -0.879161 1.308 0
M  V30 63048 C 5959.15 -1.98824 1.12001 0
M  V30 63049 C 5960.13 -1.62579 0.0260334 0
M  V30 63050 O 5961.32 -1.87632 0.180704 0
M  V30 63051 C 5958.44 -3.31187 0.709404 0
M  V30 63052 C 5957.49 -3.86418 1.80509 0
M  V30 63053 S 5958.32 -4.12998 3.4087 0
M  V30 63054 C 5959.48 -5.48373 3.01725 0
M  V30 63055 H 5959.71 -2.14465 2.05894 0
M  V30 63056 H 5957.24 -1.02825 1.1518 0
M  V30 63057 H 5959.2 -4.07693 0.479236 0
M  V30 63058 H 5957.86 -3.13396 -0.210254 0
M  V30 63059 H 5957.06 -4.8208 1.47021 0
M  V30 63060 H 5956.66 -3.16672 1.98984 0
M  V30 63061 H 5958.95 -6.29669 2.50047 0
M  V30 63062 H 5959.89 -5.86804 3.96316 0
M  V30 63063 H 5960.3 -5.11209 2.39427 0
M  V30 63064 N 5959.7 -1.1361 -1.09227 0
M  V30 63065 C 5960.63 -0.837985 -2.17945 0
M  V30 63066 C 5961.61 0.203516 -1.68878 0
M  V30 63067 O 5962.8 0.062002 -1.94101 0
M  V30 63068 C 5959.93 -0.305464 -3.45954 0
M  V30 63069 C 5958.88 -1.28145 -4.08366 0
M  V30 63070 C 5958.21 -0.608598 -5.31225 0
M  V30 63071 C 5959.51 -2.64071 -4.50626 0
M  V30 63072 H 5961.2 -1.74709 -2.4314 0
M  V30 63073 H 5958.75 -0.841451 -1.16857 0
M  V30 63074 H 5960.7 -0.0845597 -4.21315 0
M  V30 63075 H 5959.42 0.639032 -3.20287 0
M  V30 63076 H 5958.08 -1.48838 -3.35027 0
M  V30 63077 H 5957.73 0.341437 -5.0184 0
M  V30 63078 H 5957.43 -1.25976 -5.73937 0
M  V30 63079 H 5958.95 -0.397023 -6.09308 0
M  V30 63080 H 5960.37 -2.47334 -5.17203 0
M  V30 63081 H 5958.76 -3.25382 -5.04229 0
M  V30 63082 H 5959.83 -3.21579 -3.62926 0
M  V30 63083 N 5961.18 1.27241 -0.929923 0
M  V30 63084 C 5962.42 1.94267 -0.571528 0
M  V30 63085 C 5962.75 1.73067 0.887578 0
M  V30 63086 O 5962.01 1.05428 1.64874 0
M  V30 63087 C 5962.31 3.4723 -0.846508 0
M  V30 63088 C 5961.97 3.88555 -2.28771 0
M  V30 63089 C 5960.63 3.99547 -2.6817 0
M  V30 63090 C 5962.99 4.09457 -3.22482 0
M  V30 63091 C 5960.31 4.28832 -4.004 0
M  V30 63092 C 5962.67 4.40226 -4.54295 0
M  V30 63093 C 5961.33 4.49432 -4.93525 0
M  V30 63094 H 5960.6 0.710875 -0.209137 0
M  V30 63095 H 5963.25 1.51269 -1.17431 0
M  V30 63096 H 5961.55 3.91469 -0.161079 0
M  V30 63097 H 5963.25 3.97236 -0.548146 0
M  V30 63098 H 5959.84 3.80537 -1.97205 0
M  V30 63099 H 5964.02 4.00402 -2.93244 0
M  V30 63100 H 5959.28 4.34169 -4.30473 0
M  V30 63101 H 5963.45 4.55347 -5.26908 0
M  V30 63102 H 5961.08 4.71878 -5.96016 0
M  V30 63103 N 5962.66 0.695678 1.41415 0
M  V30 63104 C 5963.88 0.235726 2.05553 0
M  V30 63105 C 5964.3 -1.11508 1.52353 0
M  V30 63106 O 5963.66 -1.69685 0.671803 0
M  V30 63107 C 5963.71 0.184936 3.61027 0
M  V30 63108 O 5963.43 1.48238 4.12258 0
M  V30 63109 C 5964.93 -0.295991 4.42311 0
M  V30 63110 H 5962.15 0.109671 0.661977 0
M  V30 63111 H 5964.69 0.948291 1.81184 0
M  V30 63112 H 5962.85 -0.478453 3.84434 0
M  V30 63113 H 5963.26 1.36956 5.06303 0
M  V30 63114 H 5964.74 -0.280404 5.51287 0
M  V30 63115 H 5965.21 -1.33488 4.18423 0
M  V30 63116 H 5965.82 0.336402 4.23967 0
M  V30 63117 N 5964.13 -1.51321 0.440437 0
M  V30 63118 C 5965.07 -2.24399 -0.414748 0
M  V30 63119 C 5966.04 -1.26458 -1.02212 0
M  V30 63120 O 5967.23 -1.55601 -1.06398 0
M  V30 63121 C 5964.36 -2.99677 -1.57834 0
M  V30 63122 C 5963.4 -4.12301 -1.09135 0
M  V30 63123 S 5964.23 -5.35491 -0.0308623 0
M  V30 63124 C 5965.39 -6.14307 -1.19905 0
M  V30 63125 H 5965.62 -2.96588 0.205676 0
M  V30 63126 H 5963.16 -1.52752 0.224986 0
M  V30 63127 H 5965.11 -3.43646 -2.24539 0
M  V30 63128 H 5963.78 -2.27072 -2.17019 0
M  V30 63129 H 5962.97 -4.64261 -1.96157 0
M  V30 63130 H 5962.57 -3.70609 -0.502491 0
M  V30 63131 H 5964.86 -6.43582 -2.1168 0
M  V30 63132 H 5965.81 -7.04437 -0.719343 0
M  V30 63133 H 5966.21 -5.4585 -1.43901 0
M  V30 63134 N 5965.61 -0.171903 -1.5666 0
M  V30 63135 C 5966.54 0.753784 -2.20999 0
M  V30 63136 C 5967.52 1.23869 -1.16579 0
M  V30 63137 O 5968.71 1.29174 -1.45009 0
M  V30 63138 C 5965.84 1.98304 -2.85119 0
M  V30 63139 C 5964.79 1.63396 -3.95583 0
M  V30 63140 C 5964.12 2.93791 -4.46756 0
M  V30 63141 C 5965.42 0.861532 -5.15146 0
M  V30 63142 H 5967.11 0.217493 -2.98609 0
M  V30 63143 H 5964.66 0.10317 -1.4363 0
M  V30 63144 H 5966.61 2.63564 -3.28804 0
M  V30 63145 H 5965.33 2.54347 -2.04878 0
M  V30 63146 H 5963.99 1.00504 -3.52554 0
M  V30 63147 H 5963.64 3.47877 -3.63305 0
M  V30 63148 H 5963.34 2.71189 -5.21278 0
M  V30 63149 H 5964.87 3.60081 -4.93127 0
M  V30 63150 H 5966.28 1.41674 -5.55519 0
M  V30 63151 H 5964.68 0.734518 -5.95588 0
M  V30 63152 H 5965.75 -0.142022 -4.84692 0
M  V30 63153 N 5967.09 1.57271 0.101818 0
M  V30 63154 C 5968.51 1.52952 0.455845 0
M  V30 63155 C 5968.71 0.88759 1.80898 0
M  V30 63156 O 5967.76 0.47723 2.47949 0
M  V30 63157 C 5969.07 2.97688 0.424521 0
M  V30 63158 C 5970.62 3.08869 0.506855 0
M  V30 63159 C 5971.1 4.55199 0.505746 0
M  V30 63160 N 5972.59 4.5972 0.566695 0
M  V30 63161 C 5973.32 5.70382 0.587566 0
M  V30 63162 N 5972.82 6.90492 0.565047 0
M  V30 63163 N 5974.61 5.58537 0.631871 0
M  V30 63164 H 5966.76 1.97378 -0.784578 0
M  V30 63165 H 5969.03 0.90213 -0.291316 0
M  V30 63166 H 5968.73 3.48093 -0.502435 0
M  V30 63167 H 5968.61 3.56026 1.246 0
M  V30 63168 H 5970.99 2.58456 1.42423 0
M  V30 63169 H 5971.07 2.53495 -0.342633 0
M  V30 63170 H 5970.72 5.06261 -0.407655 0
M  V30 63171 H 5970.65 5.08403 1.37236 0
M  V30 63172 H 5973.14 3.73273 0.589565 0
M  V30 63173 H 5973.45 7.7059 0.584071 0
M  V30 63174 H 5971.8 6.92959 0.532201 0
M  V30 63175 H 5974.99 4.63608 0.646946 0
M  V30 63176 H 5975.16 6.44785 0.644668 0
M  V30 63177 N 5968.57 -0.372467 1.53135 0
M  V30 63178 C 5969.51 -1.45591 1.79087 0
M  V30 63179 C 5970.48 -1.53488 0.634874 0
M  V30 63180 O 5971.67 -1.69484 0.876336 0
M  V30 63181 C 5968.81 -2.82623 1.98036 0
M  V30 63182 C 5967.92 -2.83746 3.25748 0
M  V30 63183 C 5967.06 -4.1231 3.34924 0
M  V30 63184 C 5966.1 -4.07549 4.56695 0
M  V30 63185 N 5965.23 -5.27749 4.63061 0
M  V30 63186 H 5970.07 -1.22761 2.71539 0
M  V30 63187 H 5967.61 -0.595238 1.34519 0
M  V30 63188 H 5969.57 -3.62219 2.07009 0
M  V30 63189 H 5968.2 -3.03866 1.08927 0
M  V30 63190 H 5967.25 -1.96423 3.25764 0
M  V30 63191 H 5968.56 -2.761 4.15416 0
M  V30 63192 H 5967.72 -5.00319 3.4317 0
M  V30 63193 H 5966.46 -4.22701 2.4326 0
M  V30 63194 H 5965.46 -3.17927 4.48556 0
M  V30 63195 H 5966.69 -3.98767 5.49692 0
M  V30 63196 H 5964.63 -5.38738 3.74295 0
M  V30 63197 H 5964.55 -5.22244 5.46623 0
M  V30 63198 H 5965.82 -6.1761 4.75582 0
M  V30 63199 N 5970.05 -1.44378 -0.631875 0
M  V30 63200 C 5970.98 -1.54012 -1.75507 0
M  V30 63201 C 5971.96 -0.393184 -1.65493 0
M  V30 63202 O 5973.14 -0.613207 -1.84265 0
M  V30 63203 C 5970.27 -1.48324 -3.14034 0
M  V30 63204 C 5969.23 -2.61486 -3.38835 0
M  V30 63205 C 5968.55 -2.4085 -4.77384 0
M  V30 63206 C 5969.85 -4.03639 -3.31471 0
M  V30 63207 H 5971.55 -2.48025 -1.67702 0
M  V30 63208 H 5969.09 -1.19371 -0.805388 0
M  V30 63209 H 5971.04 -1.53664 -3.92384 0
M  V30 63210 H 5969.77 -0.508265 -3.22621 0
M  V30 63211 H 5968.43 -2.55534 -2.62865 0
M  V30 63212 H 5968.08 -1.41547 -4.82673 0
M  V30 63213 H 5967.78 -3.16721 -4.94936 0
M  V30 63214 H 5969.3 -2.48007 -5.57965 0
M  V30 63215 H 5970.71 -4.10964 -3.99727 0
M  V30 63216 H 5969.11 -4.79706 -3.60558 0
M  V30 63217 H 5970.18 -4.27263 -2.29292 0
M  V30 63218 N 5971.52 0.872212 -1.31264 0
M  V30 63219 C 5972.8 1.60735 -1.11461 0
M  V30 63220 C 5973.18 2.08481 0.331496 0
M  V30 63221 O 5972.53 1.86146 1.32522 0
M  V30 63222 C 5972.74 2.76707 -2.12684 0
M  V30 63223 C 5974.09 3.46725 -2.45086 0
M  V30 63224 O 5975.11 2.86911 -2.11093 0
M  V30 63225 O 5973.97 4.54621 -3.03286 0
M  V30 63226 H 5971.06 0.707055 -0.428954 0
M  V30 63227 H 5973.61 0.917871 -1.42735 0
M  V30 63228 H 5972.38 2.38824 -3.09966 0
M  V30 63229 H 5972.01 3.53343 -1.82302 0
M  V30 63230 N 5973 1.14188 1.08623 0
M  V30 63231 C 5973.95 0.822374 2.17577 0
M  V30 63232 C 5974.94 -0.198804 1.68229 0
M  V30 63233 O 5976.15 -0.0551236 1.79916 0
M  V30 63234 H 5972.53 0.248208 0.709857 0
M  V30 63235 H 5974.5 1.74925 2.41752 0
M  V30 63236 C 5973.25 0.313792 3.46281 0
M  V30 63237 H 5972.57 1.09092 3.84628 0
M  V30 63238 H 5974.01 0.128753 4.23804 0
M  V30 63239 C 5972.47 -0.962175 3.22868 0
M  V30 63240 O 5973 -2.03637 3.46258 0
M  V30 63241 N 5971.2 -0.896538 2.76425 0
M  V30 63242 H 5970.75 -0.0222281 2.5759 0
M  V30 63243 H 5970.71 -1.75084 2.61138 0
M  V30 63244 N 5974.48 -1.26746 0.936658 0
M  V30 63245 C 5975.76 -1.89105 0.499876 0
M  V30 63246 C 5976.14 -1.84691 -1.02238 0
M  V30 63247 O 5975.49 -1.29816 -1.88043 0
M  V30 63248 C 5975.7 -3.32637 1.0561 0
M  V30 63249 C 5977.04 -4.09507 1.12201 0
M  V30 63250 O 5978.07 -3.41688 1.00636 0
M  V30 63251 O 5976.93 -5.30781 1.30131 0
M  V30 63252 H 5974.02 -0.810935 0.162214 0
M  V30 63253 H 5976.57 -1.34949 1.02893 0
M  V30 63254 H 5975.34 -3.30188 2.0998 0
M  V30 63255 H 5974.96 -3.94326 0.509224 0
M  V30 63256 N 5975.96 -0.703167 -1.41044 0
M  V30 63257 C 5976.92 -0.0515282 -2.29142 0
M  V30 63258 C 5977.92 0.700172 -1.44756 0
M  V30 63259 O 5979.11 0.533927 -1.65816 0
M  V30 63260 C 5976.24 0.937235 -3.27763 0
M  V30 63261 H 5977.44 -0.827302 -2.88263 0
M  V30 63262 H 5974.99 -0.467097 -1.49157 0
M  V30 63263 H 5975.72 1.7405 -2.73636 0
M  V30 63264 H 5975.51 0.401263 -3.90041 0
M  V30 63265 H 5977 1.39074 -3.93762 0
M  V30 63266 N 5977.44 1.51085 -0.448455 0
M  V30 63267 C 5978.37 2.30897 0.347691 0
M  V30 63268 C 5979.35 1.36795 1.01099 0
M  V30 63269 O 5980.53 1.65716 1.01251 0
M  V30 63270 C 5977.66 3.15906 1.44293 0
M  V30 63271 C 5976.62 4.18376 0.902503 0
M  V30 63272 C 5975.94 4.91978 2.09433 0
M  V30 63273 C 5977.24 5.22252 -0.0707171 0
M  V30 63274 H 5978.94 2.97702 -0.318378 0
M  V30 63275 H 5976.48 1.43168 -0.154559 0
M  V30 63276 H 5978.44 3.70526 2.0072 0
M  V30 63277 H 5977.16 2.46943 2.13745 0
M  V30 63278 H 5975.82 3.64824 0.360372 0
M  V30 63279 H 5975.47 4.19507 2.7753 0
M  V30 63280 H 5975.17 5.61276 1.73906 0
M  V30 63281 H 5976.69 5.49425 2.66392 0
M  V30 63282 H 5978.1 5.71877 0.403613 0
M  V30 63283 H 5976.5 5.99141 -0.339116 0
M  V30 63284 H 5977.57 4.74394 -1.0039 0
M  V30 63285 N 5978.91 0.180209 1.56566 0
M  V30 63286 C 5979.86 -0.763407 2.19715 0
M  V30 63287 C 5980.86 -1.23091 1.16383 0
M  V30 63288 O 5982.06 -1.19553 1.34562 0
M  V30 63289 H 5978.44 -0.264491 0.703952 0
M  V30 63290 H 5980.41 -0.206934 2.97682 0
M  V30 63291 C 5979.16 -1.97874 2.85904 0
M  V30 63292 H 5978.48 -1.62805 3.6515 0
M  V30 63293 H 5979.92 -2.61768 3.33547 0
M  V30 63294 C 5978.38 -2.80805 1.86146 0
M  V30 63295 O 5978.91 -3.78248 1.35246 0
M  V30 63296 N 5977.12 -2.45997 1.54705 0
M  V30 63297 H 5976.66 -1.66816 1.96291 0
M  V30 63298 H 5976.62 -3.01771 0.882126 0
M  V30 63299 N 5980.39 -1.57323 -0.0934766 0
M  V30 63300 C 5981.34 -2.03188 -1.13214 0
M  V30 63301 C 5982.33 -0.933234 -1.41376 0
M  V30 63302 O 5983.54 -1.11841 -1.41038 0
M  V30 63303 H 5979.92 -0.647555 -0.382331 0
M  V30 63304 H 5981.89 -2.89608 -0.719003 0
M  V30 63305 C 5980.64 -2.47344 -2.44369 0
M  V30 63306 H 5979.96 -3.31464 -2.23544 0
M  V30 63307 H 5981.4 -2.8321 -3.15544 0
M  V30 63308 C 5979.86 -1.34739 -3.08783 0
M  V30 63309 O 5980.39 -0.677424 -3.95947 0
M  V30 63310 N 5978.59 -1.09797 -2.6906 0
M  V30 63311 H 5978.14 -1.64458 -1.98271 0
M  V30 63312 H 5978.1 -0.346546 -3.12484 0
M  V30 63313 N 5981.87 0.364341 -1.53331 0
M  V30 63314 C 5983.12 1.10417 -1.68793 0
M  V30 63315 C 5983.43 1.90427 -0.446886 0
M  V30 63316 O 5984.64 2.67186 -0.482072 0
M  V30 63317 C 5983.09 2.01217 -2.98395 0
M  V30 63318 C 5982.7 1.26513 -4.29765 0
M  V30 63319 C 5984.45 2.75184 -3.23224 0
M  V30 63320 C 5982.35 2.16223 -5.50456 0
M  V30 63321 H 5981.28 0.415913 -0.628914 0
M  V30 63322 H 5983.93 0.365082 -1.79832 0
M  V30 63323 H 5982.32 2.78862 -2.81162 0
M  V30 63324 H 5983.49 0.539239 -4.57634 0
M  V30 63325 H 5981.81 0.644036 -4.11389 0
M  V30 63326 H 5984.4 3.42534 -4.10579 0
M  V30 63327 H 5984.75 3.40621 -2.39339 0
M  V30 63328 H 5985.28 2.04623 -3.41137 0
M  V30 63329 H 5982.02 1.55363 -6.36822 0
M  V30 63330 H 5981.54 2.86659 -5.26865 0
M  V30 63331 H 5983.22 2.75753 -5.85294 0
M  V30 63332 N 5983.35 1.44711 0.624209 0
M  V30 63333 C 5984.6 1.47136 1.37963 0
M  V30 63334 C 5984.91 0.110576 1.95287 0
M  V30 63335 O 5986.12 0.0123847 2.71497 0
M  V30 63336 C 5984.57 2.59068 2.49824 0
M  V30 63337 C 5984.18 4.01385 1.98983 0
M  V30 63338 C 5985.92 2.70721 3.26972 0
M  V30 63339 C 5983.83 5.04728 3.08227 0
M  V30 63340 H 5982.76 0.547442 0.518481 0
M  V30 63341 H 5985.41 1.708 0.670803 0
M  V30 63342 H 5983.79 2.28657 3.23314 0
M  V30 63343 H 5984.97 4.41396 1.32312 0
M  V30 63344 H 5983.28 3.94035 1.3463 0
M  V30 63345 H 5985.88 3.45101 4.08423 0
M  V30 63346 H 5986.22 1.76777 3.76903 0
M  V30 63347 H 5986.76 3.00576 2.60575 0
M  V30 63348 H 5983.5 6.00324 2.63232 0
M  V30 63349 H 5983.02 4.69303 3.73517 0
M  V30 63350 H 5984.69 5.28738 3.72888 0
M  V30 63351 N 5984.83 -0.865239 1.31725 0
M  V30 63352 C 5985.77 -1.99429 1.19711 0
M  V30 63353 C 5986.77 -1.69079 0.104315 0
M  V30 63354 O 5987.97 -1.78016 0.266529 0
M  V30 63355 H 5984.35 -0.654231 0.370791 0
M  V30 63356 H 5986.32 -2.06691 2.15224 0
M  V30 63357 C 5985.07 -3.35139 0.926145 0
M  V30 63358 H 5984.39 -3.59016 1.75919 0
M  V30 63359 H 5985.83 -4.14719 0.882285 0
M  V30 63360 C 5984.29 -3.3485 -0.371123 0
M  V30 63361 O 5984.82 -3.77017 -1.38641 0
M  V30 63362 N 5983.03 -2.8798 -0.38934 0
M  V30 63363 H 5982.57 -2.5386 0.437382 0
M  V30 63364 H 5982.53 -2.88169 -1.25721 0
M  V30 63365 N 5986.31 -1.14762 -1.08016 0
M  V30 63366 C 5987.25 -0.833901 -2.17138 0
M  V30 63367 C 5988.25 0.18988 -1.68332 0
M  V30 63368 O 5989.45 0.0455815 -1.79942 0
M  V30 63369 H 5985.83 -0.251969 -0.708531 0
M  V30 63370 H 5987.8 -1.76204 -2.40821 0
M  V30 63371 C 5986.55 -0.332152 -3.4611 0
M  V30 63372 H 5985.87 -1.1113 -3.84044 0
M  V30 63373 H 5987.31 -0.151227 -4.2373 0
M  V30 63374 C 5985.77 0.945039 -3.23374 0
M  V30 63375 O 5986.3 2.01798 -3.47333 0
M  V30 63376 N 5984.51 0.881866 -2.76896 0
M  V30 63377 H 5984.05 0.00856712 -2.57599 0
M  V30 63378 H 5984.01 1.73697 -2.62063 0
M  V30 63379 N 5987.78 1.26247 -0.943366 0
M  V30 63380 C 5988.75 2.24552 -0.459237 0
M  V30 63381 C 5989.75 1.5492 0.430871 0
M  V30 63382 O 5990.94 1.72678 0.229742 0
M  V30 63383 C 5988.07 3.39222 0.337854 0
M  V30 63384 H 5989.26 2.68895 -1.32799 0
M  V30 63385 H 5986.81 1.3844 -0.725544 0
M  V30 63386 H 5987.55 3.00284 1.22476 0
M  V30 63387 H 5987.33 3.90946 -0.300565 0
M  V30 63388 H 5988.82 4.12248 0.666424 0
M  V30 63389 N 5989.26 0.710637 1.40669 0
M  V30 63390 C 5990.68 0.383692 1.54919 0
M  V30 63391 C 5990.88 -1.108 1.68302 0
M  V30 63392 O 5989.93 -1.894 1.66984 0
M  V30 63393 C 5991.25 1.14541 2.7803 0
M  V30 63394 C 5992.79 1.13123 2.91843 0
M  V30 63395 C 5993.27 1.87501 4.1786 0
M  V30 63396 N 5994.76 1.84545 4.2485 0
M  V30 63397 C 5995.5 2.38923 5.21252 0
M  V30 63398 N 5994.99 3.01835 6.23592 0
M  V30 63399 N 5996.78 2.29093 5.13296 0
M  V30 63400 H 5988.94 1.67793 1.30228 0
M  V30 63401 H 5991.2 0.708943 0.629368 0
M  V30 63402 H 5990.9 2.19992 2.74402 0
M  V30 63403 H 5990.78 0.733799 3.69994 0
M  V30 63404 H 5993.17 0.0849384 2.94978 0
M  V30 63405 H 5993.25 1.58203 2.01011 0
M  V30 63406 H 5992.89 2.92118 4.15487 0
M  V30 63407 H 5992.82 1.39845 5.07692 0
M  V30 63408 H 5995.31 1.38691 3.5153 0
M  V30 63409 H 5995.62 3.40856 6.93568 0
M  V30 63410 H 5993.97 3.05917 6.24051 0
M  V30 63411 H 5997.16 1.79604 4.32273 0
M  V30 63412 H 5997.33 2.71773 5.88255 0
M  V30 63413 N 5990.74 -1.50845 0.456461 0
M  V30 63414 C 5992.02 -1.94908 -0.164416 0
M  V30 63415 C 5992.4 -1.39615 -1.58338 0
M  V30 63416 O 5991.74 -0.591049 -2.20724 0
M  V30 63417 C 5991.95 -3.48784 -0.122672 0
M  V30 63418 C 5993.3 -4.23401 -0.318815 0
M  V30 63419 O 5994.33 -3.55638 -0.199925 0
M  V30 63420 O 5993.19 -5.43651 -0.557316 0
M  V30 63421 H 5990.28 -0.818303 -0.119624 0
M  V30 63422 H 5992.83 -1.61671 0.515815 0
M  V30 63423 H 5991.6 -3.81538 0.868602 0
M  V30 63424 H 5991.22 -3.88517 -0.844994 0
M  V30 63425 N 5992.22 -0.188509 -1.56469 0
M  V30 63426 C 5993.47 0.451096 -1.97001 0
M  V30 63427 C 5993.79 1.62607 -1.07629 0
M  V30 63428 O 5993.06 1.95354 -0.146193 0
M  V30 63429 H 5991.64 0.169645 -0.727482 0
M  V30 63430 H 5994.3 -0.273706 -1.92969 0
M  V30 63431 H 5993.39 0.799635 -3.01682 0
M  V30 63432 N 5993.7 1.5737 0.0851321 0
M  V30 63433 C 5994.94 1.8842 0.792287 0
M  V30 63434 C 5995.3 0.780712 1.75411 0
M  V30 63435 O 5996.5 0.973907 2.50536 0
M  V30 63436 C 5994.77 3.24709 1.49329 0
M  V30 63437 S 5996.33 3.77476 2.23735 0
M  V30 63438 H 5993.15 0.660269 0.263754 0
M  V30 63439 H 5995.75 1.95439 0.0489561 0
M  V30 63440 H 5994.45 4.02933 0.779284 0
M  V30 63441 H 5993.99 3.20854 2.27632 0
M  V30 63442 H 5996 3.51691 3.50039 0
M  V30 63443 N 5995.17 -0.356204 1.53522 0
M  V30 63444 C 5996.42 -1.09947 1.7041 0
M  V30 63445 C 5996.75 -1.88689 0.459371 0
M  V30 63446 O 5996.03 -1.86753 -0.543475 0
M  V30 63447 C 5996.31 -2.05104 2.95981 0
M  V30 63448 C 5996.16 -1.29909 4.30632 0
M  V30 63449 C 5997.48 -3.05099 3.17179 0
M  V30 63450 H 5994.6 -0.398322 0.620088 0
M  V30 63451 H 5997.24 -0.379311 1.86175 0
M  V30 63452 H 5995.39 -2.66514 2.8267 0
M  V30 63453 H 5997.07 -0.7121 4.55771 0
M  V30 63454 H 5995.31 -0.60099 4.29617 0
M  V30 63455 H 5995.98 -1.99605 5.14647 0
M  V30 63456 H 5998.46 -2.53797 3.29737 0
M  V30 63457 H 5997.33 -3.68894 4.06458 0
M  V30 63458 H 5997.59 -3.75786 2.3289 0
M  V30 63459 N 5996.65 -1.4504 -0.616526 0
M  V30 63460 C 5998.06 -1.43164 -1.19837 0
M  V30 63461 C 5998.41 -0.154573 -1.9559 0
M  V30 63462 O 5997.54 0.744338 -2.03196 0
M  V30 63463 C 5998.13 -2.59362 -2.17984 0
M  V30 63464 C 5996.69 -2.60634 -2.71564 0
M  V30 63465 C 5995.84 -2.35248 -1.46812 0
M  V30 63466 H 5998.79 -1.5341 -0.406348 0
M  V30 63467 H 5998.81 -2.3295 -3.00857 0
M  V30 63468 H 5998.32 -3.52294 -1.62821 0
M  V30 63469 H 5996.42 -1.71684 -3.30689 0
M  V30 63470 H 5996.54 -3.59579 -3.16606 0
M  V30 63471 H 5994.9 -1.84628 -1.75456 0
M  V30 63472 H 5995.68 -3.30314 -0.935298 0
M  V30 63473 N 5998.13 0.858241 -1.32182 0
M  V30 63474 C 5999.06 1.98215 -1.23422 0
M  V30 63475 C 6000.04 1.69684 -0.118839 0
M  V30 63476 O 6001.23 1.91783 -0.30541 0
M  V30 63477 C 5998.36 3.33973 -0.952843 0
M  V30 63478 C 5997.31 3.76846 -2.02907 0
M  V30 63479 C 5996.64 5.10195 -1.60016 0
M  V30 63480 C 5997.94 3.92695 -3.44366 0
M  V30 63481 H 5999.63 2.05801 -2.17454 0
M  V30 63482 H 5997.18 0.98878 -1.04686 0
M  V30 63483 H 5999.13 4.12149 -0.878125 0
M  V30 63484 H 5997.85 3.26592 0.0231192 0
M  V30 63485 H 5996.51 3.00919 -2.09388 0
M  V30 63486 H 5996.16 4.99266 -0.611745 0
M  V30 63487 H 5995.86 5.39851 -2.32023 0
M  V30 63488 H 5997.38 5.90867 -1.53974 0
M  V30 63489 H 5998.8 4.61234 -3.40494 0
M  V30 63490 H 5997.19 4.33765 -4.14691 0
M  V30 63491 H 5998.26 2.95718 -3.8429 0
M  V30 63492 N 5999.61 1.15334 1.07405 0
M  V30 63493 C 6000.56 0.845404 2.16693 0
M  V30 63494 C 6001.55 -0.18095 1.68431 0
M  V30 63495 O 6002.76 -0.0360381 1.79964 0
M  V30 63496 H 5999.13 0.255723 0.707184 0
M  V30 63497 H 6001.1 1.77479 2.39883 0
M  V30 63498 C 5999.85 0.350502 3.45929 0
M  V30 63499 H 5999.17 1.13165 3.8345 0
M  V30 63500 H 6000.61 0.173696 4.23644 0
M  V30 63501 C 5999.07 -0.927877 3.2387 0
M  V30 63502 O 5999.6 -1.99953 3.48399 0
M  V30 63503 N 5997.81 -0.867169 2.7736 0
M  V30 63504 H 5997.36 0.00509408 2.57599 0
M  V30 63505 H 5997.31 -1.72305 2.6298 0
M  V30 63506 N 6001.09 -1.25745 0.950048 0
M  V30 63507 C 6002.34 -1.9263 0.598056 0
M  V30 63508 C 6002.65 -1.75271 -0.868303 0
M  V30 63509 O 6003.85 -2.36689 -1.33006 0
M  V30 63510 C 6002.31 -3.45176 1.01891 0
M  V30 63511 C 6001.92 -3.71253 2.50749 0
M  V30 63512 C 6003.66 -4.18014 0.739231 0
M  V30 63513 C 6001.57 -5.17282 2.86659 0
M  V30 63514 H 6000.5 -0.721202 0.219964 0
M  V30 63515 H 6003.15 -1.42681 1.15388 0
M  V30 63516 H 6001.53 -3.9406 0.391533 0
M  V30 63517 H 6002.71 -3.3304 3.18467 0
M  V30 63518 H 6001.02 -3.11666 2.7614 0
M  V30 63519 H 6003.62 -5.25573 0.98374 0
M  V30 63520 H 6003.96 -4.15035 -0.324244 0
M  V30 63521 H 6004.49 -3.75023 1.32674 0
M  V30 63522 H 6001.23 -5.25369 3.92005 0
M  V30 63523 H 6000.75 -5.56559 2.23611 0
M  V30 63524 H 6002.43 -5.85365 2.75603 0
M  V30 63525 N 6002.56 -0.718087 -1.4029 0
M  V30 63526 C 6003.81 -0.255651 -2.00073 0
M  V30 63527 C 6004.13 1.15854 -1.57598 0
M  V30 63528 O 6005.33 1.71962 -2.10098 0
M  V30 63529 C 6003.79 -0.406145 -3.57601 0
M  V30 63530 C 6003.4 -1.82714 -4.09047 0
M  V30 63531 C 6005.14 -0.00462778 -4.245 0
M  V30 63532 C 6003.05 -1.92808 -5.59088 0
M  V30 63533 H 6001.98 -0.0918275 -0.748387 0
M  V30 63534 H 6004.63 -0.889537 -1.60498 0
M  V30 63535 H 6003.01 0.296366 -3.94889 0
M  V30 63536 H 6004.18 -2.56023 -3.83131 0
M  V30 63537 H 6002.5 -2.18034 -3.54754 0
M  V30 63538 H 6005.1 -0.0592979 -5.34667 0
M  V30 63539 H 6005.44 1.03764 -4.03161 0
M  V30 63540 H 6005.97 -0.657673 -3.92326 0
M  V30 63541 H 6002.71 -2.95165 -5.85284 0
M  V30 63542 H 6002.23 -1.23914 -5.86861 0
M  V30 63543 H 6003.91 -1.70136 -6.2423 0
M  V30 63544 N 6004.04 1.50601 -0.464455 0
M  V30 63545 C 6005.45 1.86698 -0.00774149 0
M  V30 63546 C 6005.8 1.37975 1.39489 0
M  V30 63547 O 6004.93 0.741915 2.03284 0
M  V30 63548 C 6005.52 3.38799 -0.00727233 0
M  V30 63549 C 6004.08 3.74333 0.393946 0
M  V30 63550 C 6003.23 2.74464 -0.395591 0
M  V30 63551 H 6006.18 1.43439 -0.679046 0
M  V30 63552 H 6006.2 3.72073 0.796366 0
M  V30 63553 H 6005.71 3.74231 -1.02825 0
M  V30 63554 H 6003.82 3.445 1.41952 0
M  V30 63555 H 6003.93 4.78996 0.0999019 0
M  V30 63556 H 6002.29 2.54259 0.149813 0
M  V30 63557 H 6003.08 3.12739 -1.41596 0
M  V30 63558 N 6005.52 0.196805 1.56366 0
M  V30 63559 C 6006.45 -0.718529 2.2217 0
M  V30 63560 C 6007.43 -1.21998 1.18535 0
M  V30 63561 O 6008.62 -1.26851 1.47046 0
M  V30 63562 C 6005.75 -1.93743 2.88238 0
M  V30 63563 C 6004.7 -1.57082 3.98132 0
M  V30 63564 C 6004.03 -2.86647 4.51373 0
M  V30 63565 C 6005.33 -0.779468 5.16451 0
M  V30 63566 H 6007.02 -0.169959 2.98917 0
M  V30 63567 H 6004.57 -0.0803062 1.43776 0
M  V30 63568 H 6006.52 -2.583 3.32955 0
M  V30 63569 H 6005.24 -2.51056 2.08899 0
M  V30 63570 H 6003.9 -0.948823 3.54109 0
M  V30 63571 H 6003.55 -3.42053 3.68794 0
M  V30 63572 H 6003.25 -2.62861 5.25526 0
M  V30 63573 H 6004.77 -3.5219 4.98793 0
M  V30 63574 H 6006.19 -1.32818 5.57703 0
M  V30 63575 H 6004.59 -0.639672 5.96681 0
M  V30 63576 H 6005.66 0.219114 4.84405 0
M  V30 63577 N 6007 -1.57413 -0.0767852 0
M  V30 63578 C 6008.23 -1.91226 -0.78994 0
M  V30 63579 C 6008.64 -0.792292 -1.71371 0
M  V30 63580 O 6008 0.234672 -1.80985 0
M  V30 63581 C 6008.05 -3.24763 -1.58781 0
M  V30 63582 O 6007.77 -4.32452 -0.701177 0
M  V30 63583 C 6009.27 -3.72558 -2.40241 0
M  V30 63584 H 6006.49 -0.632198 -0.224871 0
M  V30 63585 H 6009.04 -2.04442 -0.0485455 0
M  V30 63586 H 6007.19 -3.13089 -2.28154 0
M  V30 63587 H 6007.6 -5.09249 -1.25562 0
M  V30 63588 H 6009.08 -4.68638 -2.91689 0
M  V30 63589 H 6009.56 -3.01316 -3.19539 0
M  V30 63590 H 6010.16 -3.87159 -1.76034 0
M  V30 63591 N 6008.48 0.348057 -1.53709 0
M  V30 63592 C 6009.7 1.10897 -1.7467 0
M  V30 63593 C 6010.12 1.82497 -0.483747 0
M  V30 63594 O 6009.48 1.74192 0.544358 0
M  V30 63595 C 6009.53 2.12591 -2.92382 0
M  V30 63596 O 6009.25 1.43903 -4.13792 0
M  V30 63597 C 6010.75 3.01093 -3.25358 0
M  V30 63598 H 6007.97 0.330891 -0.58374 0
M  V30 63599 H 6010.51 0.401637 -2.00517 0
M  V30 63600 H 6008.67 2.78896 -2.68878 0
M  V30 63601 H 6009.08 2.11802 -4.79834 0
M  V30 63602 H 6010.56 3.68394 -4.11084 0
M  V30 63603 H 6011.03 3.66865 -2.41467 0
M  V30 63604 H 6011.64 2.40383 -3.50851 0
M  V30 63605 N 6009.95 1.45365 0.608825 0
M  V30 63606 C 6010.92 1.53557 1.70155 0
M  V30 63607 C 6011.92 0.4152 1.55347 0
M  V30 63608 O 6013.11 0.678637 1.60437 0
M  V30 63609 C 6010.24 1.43092 3.09415 0
M  V30 63610 H 6011.43 2.50916 1.64259 0
M  V30 63611 H 6008.99 1.32788 0.824447 0
M  V30 63612 H 6009.72 0.469128 3.20889 0
M  V30 63613 H 6009.51 2.24354 3.21571 0
M  V30 63614 H 6011 1.51854 3.89012 0
M  V30 63615 N 6011.43 -0.851219 1.32635 0
M  V30 63616 C 6012.4 -1.94164 1.21791 0
M  V30 63617 C 6013.4 -1.60189 0.140079 0
M  V30 63618 O 6014.59 -1.69761 0.39073 0
M  V30 63619 C 6011.72 -3.2951 0.873832 0
M  V30 63620 H 6012.91 -2.05206 2.18702 0
M  V30 63621 H 6010.46 -1.04182 1.16515 0
M  V30 63622 H 6011.2 -3.24166 -0.0933062 0
M  V30 63623 H 6010.98 -3.55547 1.65315 0
M  V30 63624 H 6012.47 -4.09422 0.822375 0
M  V30 63625 N 6012.91 -1.15902 -1.06792 0
M  V30 63626 C 6013.86 -0.860971 -2.1414 0
M  V30 63627 C 6014.83 0.188481 -1.65027 0
M  V30 63628 O 6016.01 0.0547887 -1.90721 0
M  V30 63629 C 6013.15 -0.362653 -3.43189 0
M  V30 63630 C 6012.27 -1.47434 -4.06063 0
M  V30 63631 C 6011.4 -0.931561 -5.22968 0
M  V30 63632 C 6010.44 -2.0198 -5.77815 0
M  V30 63633 N 6009.58 -1.49298 -6.86043 0
M  V30 63634 H 6014.42 -1.78031 -2.38975 0
M  V30 63635 H 6011.95 -0.888215 -1.17257 0
M  V30 63636 H 6013.91 -0.0554058 -4.17163 0
M  V30 63637 H 6012.54 0.519757 -3.18588 0
M  V30 63638 H 6011.59 -1.89766 -3.29686 0
M  V30 63639 H 6012.91 -2.29574 -4.42828 0
M  V30 63640 H 6012.06 -0.577194 -6.03948 0
M  V30 63641 H 6010.8 -0.0793979 -4.87635 0
M  V30 63642 H 6009.8 -2.38293 -4.95476 0
M  V30 63643 H 6011.03 -2.87584 -6.15201 0
M  V30 63644 H 6008.97 -0.663267 -6.52638 0
M  V30 63645 H 6008.89 -2.2506 -7.21723 0
M  V30 63646 H 6010.16 -1.16703 -7.70714 0
M  V30 63647 N 6014.39 1.2524 -0.956703 0
M  V30 63648 C 6015.32 2.28157 -0.496654 0
M  V30 63649 C 6016.3 1.63816 0.458074 0
M  V30 63650 O 6017.48 1.90898 0.356581 0
M  V30 63651 C 6014.61 3.46574 0.224418 0
M  V30 63652 C 6013.57 4.23108 -0.645253 0
M  V30 63653 C 6012.89 5.343 0.206679 0
M  V30 63654 C 6014.19 4.85556 -1.92439 0
M  V30 63655 H 6015.89 2.6689 -1.35684 0
M  V30 63656 H 6013.43 1.28299 -0.653872 0
M  V30 63657 H 6015.39 4.17697 0.557403 0
M  V30 63658 H 6014.11 3.06837 1.11887 0
M  V30 63659 H 6012.77 3.53771 -0.961352 0
M  V30 63660 H 6012.42 4.90804 1.10095 0
M  V30 63661 H 6012.12 5.86422 -0.37192 0
M  V30 63662 H 6013.64 6.08255 0.534584 0
M  V30 63663 H 6015.06 5.48811 -1.65769 0
M  V30 63664 H 6013.45 5.47862 -2.44882 0
M  V30 63665 H 6014.52 4.07625 -2.62621 0
M  V30 63666 N 6015.87 0.725517 1.39907 0
M  V30 63667 C 6016.8 0.0282811 2.28182 0
M  V30 63668 C 6017.78 -0.757489 1.43878 0
M  V30 63669 O 6018.96 -0.742044 1.7328 0
M  V30 63670 C 6016.09 -0.967243 3.24595 0
M  V30 63671 C 6015.14 -0.271099 4.25638 0
M  V30 63672 S 6015.97 1.00815 5.25925 0
M  V30 63673 C 6017.12 0.0149805 6.25898 0
M  V30 63674 H 6017.36 0.776916 2.86969 0
M  V30 63675 H 6014.89 0.516932 1.45489 0
M  V30 63676 H 6016.85 -1.53637 3.80665 0
M  V30 63677 H 6015.51 -1.68865 2.64846 0
M  V30 63678 H 6014.7 -1.02404 4.93487 0
M  V30 63679 H 6014.3 0.225734 3.73318 0
M  V30 63680 H 6016.6 -0.82858 6.72414 0
M  V30 63681 H 6017.54 0.660358 7.05014 0
M  V30 63682 H 6017.95 -0.353183 5.63394 0
M  V30 63683 N 6017.35 -1.50352 0.472435 0
M  V30 63684 C 6018.59 -2.02633 -0.0822133 0
M  V30 63685 C 6018.92 -1.35363 -1.3925 0
M  V30 63686 O 6018.2 -0.47978 -1.8849 0
M  V30 63687 C 6018.48 -3.59126 -0.264616 0
M  V30 63688 C 6018.34 -4.36967 1.06678 0
M  V30 63689 C 6019.65 -4.28152 -1.01854 0
M  V30 63690 H 6016.77 -0.736452 -0.0284045 0
M  V30 63691 H 6019.42 -1.79659 0.618287 0
M  V30 63692 H 6017.57 -3.78833 -0.861277 0
M  V30 63693 H 6019.24 -4.28828 1.70013 0
M  V30 63694 H 6017.48 -4.00654 1.66309 0
M  V30 63695 H 6018.15 -5.44732 0.892784 0
M  V30 63696 H 6020.63 -4.12928 -0.512786 0
M  V30 63697 H 6019.5 -5.37457 -1.11496 0
M  V30 63698 H 6019.76 -3.91413 -2.05543 0
M  V30 63699 N 6018.82 -0.205094 -1.5626 0
M  V30 63700 C 6020.07 0.431666 -1.98153 0
M  V30 63701 C 6020.4 1.60575 -1.09221 0
M  V30 63702 O 6019.68 1.93949 -0.146325 0
M  V30 63703 C 6019.96 0.882155 -3.49128 0
M  V30 63704 C 6019.81 -0.294436 -4.48835 0
M  V30 63705 C 6021.13 1.74416 -4.04063 0
M  V30 63706 H 6018.25 0.155432 -0.720423 0
M  V30 63707 H 6020.89 -0.298026 -1.87648 0
M  V30 63708 H 6019.04 1.50392 -3.5821 0
M  V30 63709 H 6020.72 -0.932307 -4.51781 0
M  V30 63710 H 6018.96 -0.944589 -4.23391 0
M  V30 63711 H 6019.63 0.063445 -5.51964 0
M  V30 63712 H 6022.11 1.21969 -3.97822 0
M  V30 63713 H 6020.98 2.0283 -5.1005 0
M  V30 63714 H 6021.24 2.70183 -3.49934 0
M  V30 63715 N 6020.3 1.57451 0.0684361 0
M  V30 63716 C 6021.55 1.86597 0.765791 0
M  V30 63717 C 6021.86 0.79822 1.78572 0
M  V30 63718 O 6023.07 0.97763 2.53288 0
M  V30 63719 C 6021.53 3.31006 1.4129 0
M  V30 63720 C 6021.13 4.45918 0.431371 0
M  V30 63721 C 6022.88 3.69348 2.09243 0
M  V30 63722 C 6020.78 5.8137 1.08459 0
M  V30 63723 H 6019.71 0.696102 0.289754 0
M  V30 63724 H 6022.37 1.8349 0.0191526 0
M  V30 63725 H 6020.75 3.28735 2.20792 0
M  V30 63726 H 6021.92 4.59587 -0.334074 0
M  V30 63727 H 6020.24 4.16151 -0.143889 0
M  V30 63728 H 6022.83 4.67843 2.58897 0
M  V30 63729 H 6023.18 2.99319 2.89334 0
M  V30 63730 H 6023.71 3.73623 1.36568 0
M  V30 63731 H 6020.45 6.54699 0.323931 0
M  V30 63732 H 6019.97 5.71495 1.82081 0
M  V30 63733 H 6021.65 6.26816 1.60345 0
M  V30 63734 N 6021.78 -0.339901 1.53891 0
M  V30 63735 C 6023.19 -0.915304 1.62724 0
M  V30 63736 C 6023.54 -1.89432 0.510864 0
M  V30 63737 O 6022.67 -2.13404 -0.358825 0
M  V30 63738 C 6023.26 -1.66688 2.94958 0
M  V30 63739 C 6021.82 -2.19125 3.06041 0
M  V30 63740 C 6020.97 -1.0115 2.58194 0
M  V30 63741 H 6023.92 -0.117934 1.58261 0
M  V30 63742 H 6023.94 -2.53001 2.84202 0
M  V30 63743 H 6023.45 -0.954086 3.7619 0
M  V30 63744 H 6021.55 -2.93569 2.29451 0
M  V30 63745 H 6021.67 -2.45246 4.11572 0
M  V30 63746 H 6020.03 -1.38596 2.13689 0
M  V30 63747 H 6020.81 -0.313275 3.41868 0
M  V30 63748 N 6023.26 -1.45686 -0.601108 0
M  V30 63749 C 6024.53 -1.40515 -1.36069 0
M  V30 63750 C 6024.91 -0.0790836 -2.10952 0
M  V30 63751 O 6024.26 0.939089 -2.08311 0
M  V30 63752 C 6024.47 -2.62305 -2.3021 0
M  V30 63753 C 6025.82 -3.0767 -2.92616 0
M  V30 63754 O 6026.84 -2.62724 -2.4053 0
M  V30 63755 O 6025.7 -3.85689 -3.87178 0
M  V30 63756 H 6022.8 -0.557924 -0.610451 0
M  V30 63757 H 6025.34 -1.57825 -0.623656 0
M  V30 63758 H 6024.12 -3.50395 -1.74181 0
M  V30 63759 H 6023.74 -2.47362 -3.11284 0
M  V30 63760 N 6024.74 0.844173 -1.33084 0
M  V30 63761 C 6025.97 1.62892 -1.27082 0
M  V30 63762 C 6026.37 1.88509 0.161517 0
M  V30 63763 O 6025.72 1.46188 1.11242 0
M  V30 63764 C 6025.78 3.00604 -1.97173 0
M  V30 63765 C 6025.44 2.97981 -3.46491 0
M  V30 63766 C 6026.44 2.74076 -4.4179 0
M  V30 63767 C 6024.12 3.18285 -3.88587 0
M  V30 63768 C 6026.12 2.70495 -5.77158 0
M  V30 63769 C 6023.81 3.14329 -5.24061 0
M  V30 63770 C 6024.8 2.90465 -6.18158 0
M  V30 63771 O 6024.49 2.86402 -7.51152 0
M  V30 63772 H 6024.22 0.51374 -0.439371 0
M  V30 63773 H 6026.78 1.06003 -1.75933 0
M  V30 63774 H 6025.01 3.59325 -1.42906 0
M  V30 63775 H 6026.7 3.61422 -1.84741 0
M  V30 63776 H 6027.46 2.58146 -4.10592 0
M  V30 63777 H 6023.34 3.35882 -3.15759 0
M  V30 63778 H 6026.89 2.51787 -6.50576 0
M  V30 63779 H 6022.78 3.29807 -5.54885 0
M  V30 63780 H 6023.55 3.02282 -7.60637 0
M  V30 63781 N 6026.21 1.16466 1.06176 0
M  V30 63782 C 6027.16 0.86834 2.15784 0
M  V30 63783 C 6028.16 -0.163076 1.68613 0
M  V30 63784 O 6029.36 -0.0169485 1.79992 0
M  V30 63785 H 6025.74 0.263209 0.704432 0
M  V30 63786 H 6027.71 1.80013 2.37987 0
M  V30 63787 C 6026.46 0.387173 3.45538 0
M  V30 63788 H 6025.78 1.17226 3.82228 0
M  V30 63789 H 6027.22 0.218619 4.23436 0
M  V30 63790 C 6025.68 -0.893474 3.24836 0
M  V30 63791 O 6026.21 -1.96247 3.505 0
M  V30 63792 N 6024.41 -0.837702 2.78264 0
M  V30 63793 H 6023.96 0.0324157 2.5758 0
M  V30 63794 H 6023.92 -1.69506 2.64793 0
M  V30 63795 N 6027.69 -1.2473 0.963332 0
M  V30 63796 C 6028.92 -1.96743 0.640303 0
M  V30 63797 C 6029.33 -1.71506 -0.789385 0
M  V30 63798 O 6028.69 -0.996227 -1.5291 0
M  V30 63799 C 6028.74 -3.50115 0.90011 0
M  V30 63800 O 6028.46 -3.74486 2.27359 0
M  V30 63801 C 6029.96 -4.39347 0.590666 0
M  V30 63802 H 6027.18 -0.626883 0.239288 0
M  V30 63803 H 6029.73 -1.58674 1.29008 0
M  V30 63804 H 6027.88 -3.86263 0.296614 0
M  V30 63805 H 6028.3 -4.68894 2.35029 0
M  V30 63806 H 6029.77 -5.45831 0.822936 0
M  V30 63807 H 6030.25 -4.36624 -0.474985 0
M  V30 63808 H 6030.85 -4.08779 1.17387 0
M  V30 63809 N 6029.17 -0.732927 -1.3952 0
M  V30 63810 C 6030.4 -0.289721 -2.04558 0
M  V30 63811 C 6030.81 1.07968 -1.55369 0
M  V30 63812 O 6030.15 1.69307 -0.712811 0
M  V30 63813 C 6030.21 -0.210894 -3.58881 0
M  V30 63814 C 6029.88 -1.51842 -4.31037 0
M  V30 63815 C 6030.87 -2.46372 -4.57817 0
M  V30 63816 C 6028.56 -1.78214 -4.69622 0
M  V30 63817 C 6030.55 -3.6551 -5.22189 0
M  V30 63818 C 6028.24 -2.9763 -5.33723 0
M  V30 63819 C 6029.24 -3.91099 -5.59938 0
M  V30 63820 O 6028.93 -5.08417 -6.2271 0
M  V30 63821 H 6028.66 -0.124811 -0.664378 0
M  V30 63822 H 6031.21 -0.996789 -1.79592 0
M  V30 63823 H 6029.44 0.552259 -3.82736 0
M  V30 63824 H 6031.13 0.200041 -4.05407 0
M  V30 63825 H 6031.9 -2.27267 -4.28456 0
M  V30 63826 H 6027.78 -1.06308 -4.48575 0
M  V30 63827 H 6031.32 -4.38481 -5.42568 0
M  V30 63828 H 6027.22 -3.16636 -5.62505 0
M  V30 63829 H 6027.98 -5.08724 -6.41204 0
M  V30 63830 N 6030.65 1.501 -0.480402 0
M  V30 63831 C 6031.6 2.28723 0.308912 0
M  V30 63832 C 6032.57 1.34189 0.978901 0
M  V30 63833 O 6033.75 1.63134 0.989545 0
M  V30 63834 C 6030.89 3.16327 1.37955 0
M  V30 63835 C 6030 4.259 0.723403 0
M  V30 63836 C 6029.14 5.00748 1.77272 0
M  V30 63837 C 6028.18 6.02184 1.09733 0
M  V30 63838 N 6027.31 6.70274 2.08991 0
M  V30 63839 H 6032.15 2.95721 -0.367843 0
M  V30 63840 H 6029.69 1.45825 -0.193248 0
M  V30 63841 H 6031.65 3.65476 2.01204 0
M  V30 63842 H 6030.28 2.51356 2.02534 0
M  V30 63843 H 6029.33 3.80394 -0.0218844 0
M  V30 63844 H 6030.64 4.98435 0.190729 0
M  V30 63845 H 6029.8 5.53662 2.48079 0
M  V30 63846 H 6028.54 4.27939 2.33922 0
M  V30 63847 H 6027.54 5.4852 0.374931 0
M  V30 63848 H 6028.77 6.76969 0.537603 0
M  V30 63849 H 6026.71 6.00251 2.64641 0
M  V30 63850 H 6026.63 7.38715 1.60734 0
M  V30 63851 H 6027.9 7.27802 2.7915 0
M  V30 63852 N 6032.13 0.213378 1.56149 0
M  V30 63853 C 6033.07 -0.71663 2.21285 0
M  V30 63854 C 6034.07 -1.20595 1.18968 0
M  V30 63855 O 6035.27 -1.16672 1.37068 0
M  V30 63856 H 6031.65 -0.249499 0.709404 0
M  V30 63857 H 6033.62 -0.143745 2.98054 0
M  V30 63858 C 6032.37 -1.91765 2.90037 0
M  V30 63859 H 6031.69 -1.55023 3.68521 0
M  V30 63860 H 6033.13 -2.54634 3.39025 0
M  V30 63861 C 6031.59 -2.76793 1.92061 0
M  V30 63862 O 6032.12 -3.75294 1.43239 0
M  V30 63863 N 6030.33 -2.4266 1.59889 0
M  V30 63864 H 6029.87 -1.62615 1.99785 0
M  V30 63865 H 6029.83 -2.99832 0.945938 0
M  V30 63866 N 6033.6 -1.57485 -0.0600851 0
M  V30 63867 C 6034.83 -1.92054 -0.769613 0
M  V30 63868 C 6035.25 -0.810424 -1.70521 0
M  V30 63869 O 6034.6 0.215463 -1.81224 0
M  V30 63870 C 6034.66 -3.26428 -1.55328 0
M  V30 63871 O 6034.38 -4.33172 -0.65527 0
M  V30 63872 C 6035.88 -3.75085 -2.36276 0
M  V30 63873 H 6033.1 -0.634547 -0.218153 0
M  V30 63874 H 6035.64 -2.04482 -0.0268589 0
M  V30 63875 H 6033.8 -3.15491 -2.2482 0
M  V30 63876 H 6034.21 -5.10552 -1.20153 0
M  V30 63877 H 6035.68 -4.71705 -2.86702 0
M  V30 63878 H 6036.16 -3.04688 -3.16325 0
M  V30 63879 H 6036.77 -3.89004 -1.71918 0
M  V30 63880 N 6035.08 0.331735 -1.54069 0
M  V30 63881 C 6036.32 1.07894 -1.73603 0
M  V30 63882 C 6036.69 1.85511 -0.494927 0
M  V30 63883 O 6037.89 2.62741 -0.567485 0
M  V30 63884 C 6036.16 1.9857 -2.97161 0
M  V30 63885 S 6037.72 2.80353 -3.37561 0
M  V30 63886 H 6034.54 0.364378 -0.610532 0
M  V30 63887 H 6037.14 0.355921 -1.92233 0
M  V30 63888 H 6035.84 1.4037 -3.85648 0
M  V30 63889 H 6035.37 2.7529 -2.81032 0
M  V30 63890 H 6037.39 4.01026 -2.92221 0
M  V30 63891 N 6036.56 1.46003 0.593373 0
M  V30 63892 C 6037.84 1.41235 1.35322 0
M  V30 63893 C 6038.22 0.0902698 2.10907 0
M  V30 63894 O 6037.57 -0.928028 2.08806 0
M  V30 63895 C 6037.78 2.63523 2.28816 0
M  V30 63896 C 6039.12 3.09218 2.9098 0
M  V30 63897 O 6040.15 2.63996 2.39133 0
M  V30 63898 O 6039.01 3.87736 3.85127 0
M  V30 63899 H 6036.1 0.561153 0.607483 0
M  V30 63900 H 6038.65 1.58153 0.615277 0
M  V30 63901 H 6037.42 3.51314 1.72321 0
M  V30 63902 H 6037.04 2.4901 3.09968 0
M  V30 63903 N 6038.04 -0.837103 1.3353 0
M  V30 63904 C 6039.29 -1.58932 1.2484 0
M  V30 63905 C 6039.61 -1.94118 -0.1853 0
M  V30 63906 O 6038.88 -1.61109 -1.11448 0
M  V30 63907 H 6037.46 -0.589285 0.459078 0
M  V30 63908 H 6040.12 -1.00032 1.67271 0
M  V30 63909 H 6039.22 -2.51848 1.84334 0
M  V30 63910 N 6039.52 -1.17028 -1.05557 0
M  V30 63911 C 6040.74 -0.980814 -1.82175 0
M  V30 63912 C 6041.16 0.470962 -1.82832 0
M  V30 63913 O 6040.52 1.32699 -1.25289 0
M  V30 63914 C 6040.57 -1.5099 -3.28457 0
M  V30 63915 O 6040.29 -2.90483 -3.2795 0
M  V30 63916 C 6041.79 -1.36451 -4.21777 0
M  V30 63917 H 6039.01 -0.34722 -0.574177 0
M  V30 63918 H 6041.55 -1.5523 -1.33131 0
M  V30 63919 H 6039.71 -0.980525 -3.74786 0
M  V30 63920 H 6040.12 -3.14862 -4.19478 0
M  V30 63921 H 6041.6 -1.78291 -5.22414 0
M  V30 63922 H 6042.07 -0.311076 -4.38097 0
M  V30 63923 H 6042.68 -1.88387 -3.81301 0
M  V30 63924 N 6040.99 1.24218 -0.969933 0
M  V30 63925 C 6042.22 1.964 -0.650728 0
M  V30 63926 C 6042.64 1.71922 0.780278 0
M  V30 63927 O 6041.99 1.00432 1.5238 0
M  V30 63928 C 6042.05 3.49632 -0.918665 0
M  V30 63929 O 6041.77 3.73275 -2.29342 0
M  V30 63930 C 6043.27 4.39028 -0.613957 0
M  V30 63931 H 6040.49 0.625605 -0.242609 0
M  V30 63932 H 6043.03 1.57987 -1.29847 0
M  V30 63933 H 6041.19 3.861 -0.317095 0
M  V30 63934 H 6041.6 4.67641 -2.37513 0
M  V30 63935 H 6043.07 5.45387 -0.851871 0
M  V30 63936 H 6043.55 4.3687 0.451823 0
M  V30 63937 H 6044.16 4.08151 -1.19553 0
M  V30 63938 N 6042.47 0.740315 1.3913 0
M  V30 63939 C 6043.72 0.290593 2.00404 0
M  V30 63940 C 6044.05 -1.12377 1.5875 0
M  V30 63941 O 6043.3 -1.78145 0.810113 0
M  V30 63942 C 6043.6 0.346135 3.5572 0
M  V30 63943 C 6043.27 1.71427 4.17041 0
M  V30 63944 C 6041.93 2.08872 4.33504 0
M  V30 63945 C 6044.28 2.61232 4.51007 0
M  V30 63946 C 6041.61 3.3562 4.81223 0
M  V30 63947 C 6043.96 3.87358 5.00137 0
M  V30 63948 C 6042.63 4.24889 5.14807 0
M  V30 63949 H 6041.9 0.106336 0.733331 0
M  V30 63950 H 6044.54 0.9482 1.66377 0
M  V30 63951 H 6042.85 -0.395046 3.89803 0
M  V30 63952 H 6044.54 -0.02005 4.00995 0
M  V30 63953 H 6041.13 1.41315 4.04633 0
M  V30 63954 H 6045.32 2.33572 4.37902 0
M  V30 63955 H 6040.57 3.64635 4.90766 0
M  V30 63956 H 6044.75 4.57098 5.2539 0
M  V30 63957 H 6042.38 5.23167 5.51544 0
M  V30 63958 N 6043.95 -1.49843 0.488355 0
M  V30 63959 C 6045.18 -2.06819 -0.057808 0
M  V30 63960 C 6045.59 -1.35022 -1.31964 0
M  V30 63961 O 6044.95 -0.424677 -1.7749 0
M  V30 63962 C 6045 -3.60006 -0.328308 0
M  V30 63963 O 6044.72 -4.29099 0.883489 0
M  V30 63964 C 6046.22 -4.33658 -0.919523 0
M  V30 63965 H 6043.44 -0.670837 0.0147986 0
M  V30 63966 H 6045.99 -1.92789 0.68209 0
M  V30 63967 H 6044.14 -3.73781 -1.01816 0
M  V30 63968 H 6044.56 -5.20598 0.638597 0
M  V30 63969 H 6046.03 -5.41757 -1.05845 0
M  V30 63970 H 6046.51 -3.95296 -1.9141 0
M  V30 63971 H 6047.11 -4.24458 -0.267523 0
M  V30 63972 N 6045.43 -0.221656 -1.56033 0
M  V30 63973 C 6046.66 0.414272 -2.02404 0
M  V30 63974 C 6047.07 1.53886 -1.10072 0
M  V30 63975 O 6046.41 1.83413 -0.102651 0
M  V30 63976 C 6046.47 1.00692 -3.45111 0
M  V30 63977 C 6046.14 0.0177652 -4.56997 0
M  V30 63978 C 6047.13 -0.782648 -5.13975 0
M  V30 63979 C 6044.82 -0.101019 -5.02198 0
M  V30 63980 C 6046.81 -1.68855 -6.14627 0
M  V30 63981 C 6044.5 -1.01045 -6.02688 0
M  V30 63982 C 6045.5 -1.80276 -6.58779 0
M  V30 63983 O 6045.19 -2.69691 -7.57312 0
M  V30 63984 H 6044.92 0.105621 -0.667698 0
M  V30 63985 H 6047.47 -0.335576 -2.0264 0
M  V30 63986 H 6045.7 1.80586 -3.41944 0
M  V30 63987 H 6047.39 1.55027 -3.75129 0
M  V30 63988 H 6048.16 -0.701329 -4.79902 0
M  V30 63989 H 6044.04 0.505562 -4.58219 0
M  V30 63990 H 6047.58 -2.30741 -6.58335 0
M  V30 63991 H 6043.48 -1.09279 -6.36183 0
M  V30 63992 H 6044.24 -2.63767 -7.74835 0
M  V30 63993 N 6046.91 1.57515 0.0517324 0
M  V30 63994 C 6047.87 2.04053 1.0438 0
M  V30 63995 C 6048.87 0.940791 1.30406 0
M  V30 63996 O 6050.06 1.2051 1.2579 0
M  V30 63997 C 6047.19 2.43825 2.38248 0
M  V30 63998 H 6048.39 2.92942 0.642264 0
M  V30 63999 H 6045.94 1.53433 0.297996 0
M  V30 64000 H 6046.67 1.58023 2.83195 0
M  V30 64001 H 6046.46 3.24094 2.20694 0
M  V30 64002 H 6047.95 2.80336 3.09518 0
M  V30 64003 N 6048.39 -0.32356 1.54243 0
M  V30 64004 C 6049.61 -1.08542 1.7673 0
M  V30 64005 C 6050.04 -1.80929 0.514439 0
M  V30 64006 O 6049.39 -1.73257 -0.534008 0
M  V30 64007 C 6049.44 -2.05918 2.96024 0
M  V30 64008 O 6048.55 -3.13815 2.6757 0
M  V30 64009 H 6047.89 -0.312949 0.585627 0
M  V30 64010 H 6050.42 -0.367854 2.01266 0
M  V30 64011 H 6050.43 -2.48788 3.23371 0
M  V30 64012 H 6049.1 -1.52633 3.8688 0
M  V30 64013 H 6047.68 -2.75621 2.51172 0
M  V30 64014 N 6049.86 -1.46316 -0.585622 0
M  V30 64015 C 6050.83 -1.56245 -1.67691 0
M  V30 64016 C 6051.83 -0.439862 -1.54667 0
M  V30 64017 O 6053.02 -0.704075 -1.59337 0
M  V30 64018 C 6050.15 -1.47997 -3.07099 0
M  V30 64019 H 6051.34 -2.53498 -1.60246 0
M  V30 64020 H 6048.89 -1.34082 -0.803217 0
M  V30 64021 H 6049.63 -0.52012 -3.20102 0
M  V30 64022 H 6049.41 -2.29441 -3.17961 0
M  V30 64023 H 6050.9 -1.58024 -3.86546 0
M  V30 64024 N 6051.34 0.83001 -1.33972 0
M  V30 64025 C 6052.27 1.95552 -1.27599 0
M  V30 64026 C 6053.25 1.69394 -0.154805 0
M  V30 64027 O 6054.44 1.91092 -0.346021 0
M  V30 64028 C 6051.57 3.31877 -1.02347 0
M  V30 64029 C 6050.52 3.72457 -2.10855 0
M  V30 64030 C 6049.85 5.06686 -1.70802 0
M  V30 64031 C 6051.15 3.85302 -3.52618 0
M  V30 64032 H 6052.84 2.01143 -2.2177 0
M  V30 64033 H 6050.39 0.966353 -1.0676 0
M  V30 64034 H 6052.34 4.10194 -0.965351 0
M  V30 64035 H 6051.06 3.26567 -0.046161 0
M  V30 64036 H 6049.72 2.9641 -2.15724 0
M  V30 64037 H 6049.37 4.97856 -0.717509 0
M  V30 64038 H 6049.07 5.34808 -2.43422 0
M  V30 64039 H 6050.6 5.87468 -1.66473 0
M  V30 64040 H 6052.01 4.53908 -3.50201 0
M  V30 64041 H 6050.41 4.24871 -4.23798 0
M  V30 64042 H 6051.48 2.875 -3.90476 0
M  V30 64043 N 6052.82 1.17586 1.04935 0
M  V30 64044 C 6054.07 0.977276 1.78384 0
M  V30 64045 C 6054.42 -0.488688 1.8609 0
M  V30 64046 O 6053.71 -1.35808 1.35155 0
M  V30 64047 C 6053.91 1.55518 3.2179 0
M  V30 64048 C 6053.74 3.07581 3.28061 0
M  V30 64049 C 6052.51 3.76332 3.37197 0
M  V30 64050 C 6054.7 4.05153 3.16789 0
M  V30 64051 N 6052.69 5.15978 3.32626 0
M  V30 64052 C 6054.06 5.31267 3.19618 0
M  V30 64053 C 6056.11 3.9679 3.00769 0
M  V30 64054 C 6054.82 6.49987 3.08073 0
M  V30 64055 C 6056.84 5.15097 2.90567 0
M  V30 64056 C 6056.2 6.40097 2.94032 0
M  V30 64057 H 6052.3 0.411532 0.664955 0
M  V30 64058 H 6054.89 1.49215 1.25072 0
M  V30 64059 H 6053.06 1.06661 3.73468 0
M  V30 64060 H 6054.79 1.29297 3.8349 0
M  V30 64061 H 6051.54 3.27024 3.42567 0
M  V30 64062 H 6051.97 5.88986 3.33803 0
M  V30 64063 H 6056.61 3.00989 2.96927 0
M  V30 64064 H 6054.33 7.45996 3.10669 0
M  V30 64065 H 6057.91 5.10408 2.79239 0
M  V30 64066 H 6056.79 7.30104 2.86213 0
M  V30 64067 N 6054.3 -1.23702 0.976507 0
M  V30 64068 C 6055.21 -2.28726 0.521685 0
M  V30 64069 C 6056.22 -1.68814 -0.421631 0
M  V30 64070 O 6057.4 -1.99265 -0.292508 0
M  V30 64071 C 6054.46 -3.46271 -0.172423 0
M  V30 64072 C 6053.53 -4.21554 0.811812 0
M  V30 64073 C 6052.76 -5.33487 0.150734 0
M  V30 64074 O 6052.98 -5.60482 -1.05906 0
M  V30 64075 O 6051.92 -5.95906 0.847341 0
M  V30 64076 H 6055.74 -2.69765 1.395 0
M  V30 64077 H 6053.33 -1.2956 0.743955 0
M  V30 64078 H 6055.21 -4.17636 -0.561956 0
M  V30 64079 H 6053.88 -3.07191 -1.02057 0
M  V30 64080 H 6052.79 -3.52529 1.25197 0
M  V30 64081 H 6054.12 -4.64474 1.62864 0
M  V30 64082 N 6055.78 -0.747683 -1.38735 0
M  V30 64083 C 6057.02 -0.298032 -1.99486 0
M  V30 64084 C 6057.34 1.12485 -1.6002 0
M  V30 64085 O 6058.54 1.67467 -2.13699 0
M  V30 64086 C 6057 -0.481906 -3.56659 0
M  V30 64087 C 6056.61 -1.91349 -4.0508 0
M  V30 64088 C 6058.35 -0.0946694 -4.24394 0
M  V30 64089 C 6056.26 -2.04624 -5.54872 0
M  V30 64090 H 6055.19 -0.107681 -0.746271 0
M  V30 64091 H 6057.84 -0.923381 -1.58575 0
M  V30 64092 H 6056.22 0.212537 -3.95429 0
M  V30 64093 H 6057.4 -2.64092 -3.77614 0
M  V30 64094 H 6055.71 -2.2551 -3.50049 0
M  V30 64095 H 6058.31 -0.172695 -5.34421 0
M  V30 64096 H 6058.65 0.951894 -4.05271 0
M  V30 64097 H 6059.18 -0.740743 -3.90842 0
M  V30 64098 H 6055.92 -3.07513 -5.78892 0
M  V30 64099 H 6055.44 -1.36334 -5.841 0
M  V30 64100 H 6057.12 -1.83338 -6.2048 0
M  V30 64101 N 6057.25 1.49582 -0.496295 0
M  V30 64102 C 6058.19 2.26937 0.321286 0
M  V30 64103 C 6059.2 1.33286 0.934816 0
M  V30 64104 O 6060.39 1.58605 0.818952 0
M  V30 64105 C 6057.49 3.05508 1.46689 0
M  V30 64106 C 6056.66 4.267 0.961537 0
M  V30 64107 C 6055.72 4.87356 1.98419 0
M  V30 64108 O 6054.75 5.47558 1.55463 0
M  V30 64109 N 6055.95 4.76589 3.31426 0
M  V30 64110 H 6058.71 2.97742 -0.341989 0
M  V30 64111 H 6056.27 1.58531 -0.32856 0
M  V30 64112 H 6058.27 3.42961 2.14848 0
M  V30 64113 H 6056.84 2.37341 2.03441 0
M  V30 64114 H 6056.06 3.9406 0.105004 0
M  V30 64115 H 6057.34 5.05223 0.602227 0
M  V30 64116 H 6056.74 4.28769 3.69017 0
M  V30 64117 H 6055.3 5.1824 3.95311 0
M  V30 64118 N 6058.73 0.229928 1.55914 0
M  V30 64119 C 6059.66 -0.709193 2.17952 0
M  V30 64120 C 6060.68 -1.15138 1.15096 0
M  V30 64121 O 6061.87 -1.08109 1.42038 0
M  V30 64122 C 6058.97 -1.9735 2.75511 0
M  V30 64123 C 6058.14 -1.68551 4.0362 0
M  V30 64124 C 6057.2 -2.79771 4.45662 0
M  V30 64125 O 6056.22 -2.47882 5.1239 0
M  V30 64126 N 6057.43 -4.08907 4.12038 0
M  V30 64127 H 6060.19 -0.178468 2.99168 0
M  V30 64128 H 6057.75 0.0492357 1.61825 0
M  V30 64129 H 6059.74 -2.70961 3.00603 0
M  V30 64130 H 6058.31 -2.41447 1.9855 0
M  V30 64131 H 6057.53 -0.785411 3.86296 0
M  V30 64132 H 6058.82 -1.46752 4.87177 0
M  V30 64133 H 6058.22 -4.37655 3.58434 0
M  V30 64134 H 6056.78 -4.79037 4.42004 0
M  V30 64135 N 6060.21 -1.5754 -0.0433783 0
M  V30 64136 C 6061.46 -1.8889 -0.738133 0
M  V30 64137 C 6061.79 -0.825889 -1.75763 0
M  V30 64138 O 6061.06 0.160729 -1.93835 0
M  V30 64139 C 6061.35 -3.30894 -1.42061 0
M  V30 64140 C 6061.2 -4.47876 -0.415596 0
M  V30 64141 C 6062.52 -3.71579 -2.35833 0
M  V30 64142 H 6059.64 -0.686985 -0.266873 0
M  V30 64143 H 6062.28 -1.9 -0.00100278 0
M  V30 64144 H 6060.43 -3.30078 -2.04892 0
M  V30 64145 H 6062.1 -4.60823 0.209691 0
M  V30 64146 H 6060.35 -4.32981 0.266499 0
M  V30 64147 H 6061.02 -5.44087 -0.931317 0
M  V30 64148 H 6063.49 -3.7367 -1.83058 0
M  V30 64149 H 6062.37 -4.71773 -2.80573 0
M  V30 64150 H 6062.63 -3.03053 -3.21887 0
M  V30 64151 N 6061.69 0.315375 -1.54412 0
M  V30 64152 C 6062.93 1.0539 -1.73265 0
M  V30 64153 C 6063.27 1.87404 -0.509237 0
M  V30 64154 O 6062.54 1.88128 0.493769 0
M  V30 64155 C 6062.83 1.97184 -3.01314 0
M  V30 64156 C 6062.68 1.18445 -4.33925 0
M  V30 64157 C 6064 2.96582 -3.25157 0
M  V30 64158 H 6061.12 0.381741 -0.630431 0
M  V30 64159 H 6063.76 0.329817 -1.87116 0
M  V30 64160 H 6061.91 2.58926 -2.89637 0
M  V30 64161 H 6063.58 0.59101 -4.57498 0
M  V30 64162 H 6061.82 0.486873 -4.31059 0
M  V30 64163 H 6062.49 1.8589 -5.19758 0
M  V30 64164 H 6064.97 2.44965 -3.3635 0
M  V30 64165 H 6063.85 3.57988 -4.16096 0
M  V30 64166 H 6064.11 3.69479 -2.42771 0
M  V30 64167 N 6063.17 1.46624 0.577854 0
M  V30 64168 C 6064.44 1.42662 1.33817 0
M  V30 64169 C 6064.82 0.112634 2.10799 0
M  V30 64170 O 6064.17 -0.90583 2.09778 0
M  V30 64171 C 6064.38 2.65935 2.26008 0
M  V30 64172 C 6065.73 3.12287 2.87684 0
M  V30 64173 O 6066.75 2.66517 2.3632 0
M  V30 64174 O 6065.61 3.91799 3.80993 0
M  V30 64175 H 6062.71 0.567565 0.601497 0
M  V30 64176 H 6065.25 1.58797 0.598469 0
M  V30 64177 H 6064.02 3.53122 1.68585 0
M  V30 64178 H 6063.65 2.52283 3.07309 0
M  V30 64179 N 6064.64 -0.822893 1.34411 0
M  V30 64180 C 6065.61 -1.91536 1.25883 0
M  V30 64181 C 6066.61 -1.59856 0.174026 0
M  V30 64182 O 6067.8 -1.68894 0.426651 0
M  V30 64183 C 6064.93 -3.27583 0.94353 0
M  V30 64184 H 6066.12 -2.00521 2.23005 0
M  V30 64185 H 6063.68 -1.01687 1.18699 0
M  V30 64186 H 6064.41 -3.24291 -0.0245249 0
M  V30 64187 H 6064.2 -3.5196 1.72819 0
M  V30 64188 H 6065.69 -4.07586 0.909035 0
M  V30 64189 N 6066.12 -1.18141 -1.0431 0
M  V30 64190 C 6067.4 -0.884963 -1.74436 0
M  V30 64191 C 6067.78 0.612754 -2.02011 0
M  V30 64192 O 6067.13 1.56673 -1.66331 0
M  V30 64193 C 6067.34 -1.72955 -3.0313 0
M  V30 64194 C 6068.69 -1.95504 -3.76913 0
M  V30 64195 O 6069.71 -1.69987 -3.13022 0
M  V30 64196 O 6068.57 -2.38444 -4.91739 0
M  V30 64197 H 6065.66 -0.328507 -0.758955 0
M  V30 64198 H 6068.21 -1.28882 -1.10398 0
M  V30 64199 H 6066.98 -2.74495 -2.78869 0
M  V30 64200 H 6066.6 -1.32405 -3.74906 0
M  V30 64201 N 6067.6 1.23182 -0.983053 0
M  V30 64202 C 6068.83 1.96239 -0.671183 0
M  V30 64203 C 6069.25 1.72251 0.755731 0
M  V30 64204 O 6068.61 0.995608 1.51517 0
M  V30 64205 C 6068.66 3.47289 -0.970693 0
M  V30 64206 O 6067.76 4.1235 -0.0641264 0
M  V30 64207 H 6067.1 0.614253 -0.252169 0
M  V30 64208 H 6069.63 1.56546 -1.31737 0
M  V30 64209 H 6069.64 3.97757 -0.908485 0
M  V30 64210 H 6068.32 3.64076 -2.01052 0
M  V30 64211 H 6066.89 3.72461 -0.180973 0
M  V30 64212 N 6069.08 0.75503 1.38337 0
M  V30 64213 C 6070.03 0.128274 2.30443 0
M  V30 64214 C 6071 -0.708077 1.50251 0
M  V30 64215 O 6072.18 -0.663906 1.78877 0
M  V30 64216 C 6069.32 -0.757803 3.36677 0
M  V30 64217 C 6068.43 0.0933329 4.31899 0
M  V30 64218 C 6067.57 -0.795882 5.25204 0
M  V30 64219 C 6066.61 0.0588006 6.12072 0
M  V30 64220 N 6065.74 -0.787454 6.9767 0
M  V30 64221 H 6070.58 0.919304 2.83466 0
M  V30 64222 H 6068.12 0.46497 1.39558 0
M  V30 64223 H 6070.08 -1.28618 3.96879 0
M  V30 64224 H 6068.71 -1.5146 2.85061 0
M  V30 64225 H 6067.76 0.739351 3.73146 0
M  V30 64226 H 6069.07 0.75332 4.93079 0
M  V30 64227 H 6068.23 -1.39137 5.9053 0
M  V30 64228 H 6066.97 -1.4896 4.64395 0
M  V30 64229 H 6065.97 0.666946 5.4574 0
M  V30 64230 H 6067.2 0.749598 6.7495 0
M  V30 64231 H 6065.14 -1.46609 6.39407 0
M  V30 64232 H 6065.06 -0.184396 7.55775 0
M  V30 64233 H 6066.33 -1.36787 7.67404 0
M  V30 64234 N 6070.56 -1.49316 0.50422 0
M  V30 64235 C 6071.81 -2.01658 -0.0410172 0
M  V30 64236 C 6072.12 -1.38871 -1.37747 0
M  V30 64237 O 6073.32 -1.82559 -2.00959 0
M  V30 64238 C 6071.78 -3.59688 -0.123555 0
M  V30 64239 C 6071.39 -4.3145 1.20645 0
M  V30 64240 C 6073.13 -4.19963 -0.618986 0
M  V30 64241 C 6071.04 -5.81345 1.0859 0
M  V30 64242 H 6069.97 -0.753758 -0.0191022 0
M  V30 64243 H 6072.62 -1.71823 0.644126 0
M  V30 64244 H 6071 -3.86252 -0.873219 0
M  V30 64245 H 6072.18 -4.16583 1.96966 0
M  V30 64246 H 6070.49 -3.82933 1.63558 0
M  V30 64247 H 6073.09 -5.29738 -0.726738 0
M  V30 64248 H 6073.43 -3.83545 -1.61861 0
M  V30 64249 H 6073.96 -3.97731 0.0742365 0
M  V30 64250 H 6070.7 -6.22293 2.05989 0
M  V30 64251 H 6070.22 -5.98697 0.363633 0
M  V30 64252 H 6071.9 -6.4245 0.765948 0
M  V30 64253 N 6072.03 -0.238193 -1.5579 0
M  V30 64254 C 6073.28 0.389538 -1.99024 0
M  V30 64255 C 6073.61 1.58223 -1.12602 0
M  V30 64256 O 6072.89 1.93595 -0.187431 0
M  V30 64257 C 6073.17 0.807901 -3.5092 0
M  V30 64258 C 6073.02 -0.389574 -4.4811 0
M  V30 64259 C 6074.34 1.65806 -4.07672 0
M  V30 64260 H 6071.46 0.140116 -0.723558 0
M  V30 64261 H 6074.1 -0.337762 -1.86974 0
M  V30 64262 H 6072.25 1.4276 -3.6132 0
M  V30 64263 H 6073.93 -1.02793 -4.49701 0
M  V30 64264 H 6072.17 -1.03418 -4.21292 0
M  V30 64265 H 6072.84 -0.0536489 -5.51974 0
M  V30 64266 H 6075.32 1.13504 -4.0032 0
M  V30 64267 H 6074.19 1.91966 -5.14238 0
M  V30 64268 H 6074.45 2.62699 -3.55586 0
M  V30 64269 N 6073.51 1.57561 0.0350229 0
M  V30 64270 C 6074.44 2.02957 1.06495 0
M  V30 64271 C 6075.46 0.941377 1.32823 0
M  V30 64272 O 6076.65 1.21878 1.30415 0
M  V30 64273 C 6073.75 2.38479 2.40792 0
M  V30 64274 C 6072.92 3.69605 2.33904 0
M  V30 64275 C 6071.98 3.92383 3.50603 0
M  V30 64276 O 6071 4.63516 3.30366 0
M  V30 64277 N 6072.21 3.37561 4.72263 0
M  V30 64278 H 6074.97 2.91929 0.678067 0
M  V30 64279 H 6072.53 1.60356 0.223074 0
M  V30 64280 H 6074.52 2.5086 3.17571 0
M  V30 64281 H 6073.09 1.55209 2.71347 0
M  V30 64282 H 6072.31 3.67634 1.42264 0
M  V30 64283 H 6073.6 4.55635 2.26439 0
M  V30 64284 H 6073 2.79892 4.91606 0
M  V30 64285 H 6071.56 3.55331 5.46428 0
M  V30 64286 N 6074.99 -0.307182 1.54577 0
M  V30 64287 C 6075.92 -1.38351 1.88099 0
M  V30 64288 C 6076.9 -1.53194 0.739307 0
M  V30 64289 O 6078.09 -1.66803 0.994499 0
M  V30 64290 C 6075.22 -2.74869 2.12284 0
M  V30 64291 C 6074.17 -2.74797 3.28132 0
M  V30 64292 C 6073.5 -4.14546 3.37722 0
M  V30 64293 C 6074.8 -2.37086 4.65389 0
M  V30 64294 H 6076.49 -1.10544 2.78245 0
M  V30 64295 H 6074.04 -0.530336 1.33878 0
M  V30 64296 H 6075.99 -3.50246 2.3432 0
M  V30 64297 H 6074.71 -3.04187 1.18903 0
M  V30 64298 H 6073.37 -2.01876 3.06009 0
M  V30 64299 H 6073.02 -4.41031 2.41869 0
M  V30 64300 H 6072.72 -4.154 4.15591 0
M  V30 64301 H 6074.25 -4.91711 3.62011 0
M  V30 64302 H 6075.66 -3.02179 4.87197 0
M  V30 64303 H 6074.06 -2.49165 5.45928 0
M  V30 64304 H 6075.13 -1.32218 4.66526 0
M  V30 64305 N 6076.47 -1.46928 -0.57007 0
M  V30 64306 C 6077.69 -1.56727 -1.35836 0
M  V30 64307 C 6078.12 -0.21338 -1.86886 0
M  V30 64308 O 6077.48 0.808637 -1.62268 0
M  V30 64309 C 6077.53 -2.58599 -2.51314 0
M  V30 64310 O 6076.63 -2.12978 -3.53149 0
M  V30 64311 H 6075.97 -0.526943 -0.404014 0
M  V30 64312 H 6078.5 -1.92605 -0.69024 0
M  V30 64313 H 6078.51 -2.78611 -2.9806 0
M  V30 64314 H 6077.19 -3.56911 -2.13512 0
M  V30 64315 H 6075.76 -2.0301 -3.12796 0
M  V30 64316 N 6077.95 0.815754 -1.34845 0
M  V30 64317 C 6078.86 1.95881 -1.29104 0
M  V30 64318 C 6079.87 1.72876 -0.197483 0
M  V30 64319 O 6081.05 1.9686 -0.425235 0
M  V30 64320 C 6078.11 3.30307 -1.05348 0
M  V30 64321 C 6077.18 3.66271 -2.23929 0
M  V30 64322 C 6076.41 4.94283 -2.01297 0
M  V30 64323 O 6076.63 5.62009 -0.974801 0
M  V30 64324 O 6075.57 5.28292 -2.88429 0
M  V30 64325 H 6079.39 2.0367 -2.25283 0
M  V30 64326 H 6076.98 0.952202 -1.15124 0
M  V30 64327 H 6078.86 4.10803 -0.939105 0
M  V30 64328 H 6077.53 3.23469 -0.122138 0
M  V30 64329 H 6076.44 2.8619 -2.40928 0
M  V30 64330 H 6077.77 3.77802 -3.15478 0
M  V30 64331 N 6079.43 1.18692 1.03682 0
M  V30 64332 C 6080.67 0.97901 1.76347 0
M  V30 64333 C 6080.99 -0.491883 1.89314 0
M  V30 64334 O 6082.19 -0.81841 2.58871 0
M  V30 64335 C 6080.65 1.70266 3.17077 0
M  V30 64336 C 6080.26 3.21312 3.1219 0
M  V30 64337 C 6082 1.5777 3.94093 0
M  V30 64338 C 6079.91 3.863 4.47802 0
M  V30 64339 H 6078.84 0.362675 0.661047 0
M  V30 64340 H 6081.49 1.42106 1.16095 0
M  V30 64341 H 6079.87 1.18839 3.77748 0
M  V30 64342 H 6081.05 3.79794 2.60947 0
M  V30 64343 H 6079.36 3.33993 2.48672 0
M  V30 64344 H 6081.96 2.03681 4.94387 0
M  V30 64345 H 6082.3 0.530572 4.12905 0
M  V30 64346 H 6082.83 2.06498 3.40005 0
M  V30 64347 H 6079.57 4.91076 4.34194 0
M  V30 64348 H 6079.09 3.32607 4.99132 0
M  V30 64349 H 6080.77 3.89387 5.16707 0
M  V30 64350 N 6080.9 -1.22659 0.989572 0
M  V30 64351 C 6082.13 -1.95881 0.68158 0
M  V30 64352 C 6082.55 -1.72649 -0.746585 0
M  V30 64353 O 6081.91 -1.00363 -1.50987 0
M  V30 64354 C 6081.96 -3.4677 0.989097 0
M  V30 64355 O 6081.06 -4.1231 0.0859934 0
M  V30 64356 H 6080.4 -0.612907 0.255423 0
M  V30 64357 H 6082.93 -1.55845 1.32565 0
M  V30 64358 H 6082.94 -3.9727 0.929566 0
M  V30 64359 H 6081.62 -3.63004 2.0298 0
M  V30 64360 H 6080.2 -3.72359 0.200722 0
M  V30 64361 N 6082.38 -0.762356 -1.37934 0
M  V30 64362 C 6083.31 -0.0887697 -2.28027 0
M  V30 64363 C 6084.29 0.719076 -1.45836 0
M  V30 64364 O 6085.48 0.695841 -1.75186 0
M  V30 64365 C 6082.6 0.880842 -3.27046 0
M  V30 64366 C 6081.65 0.158154 -4.26207 0
M  V30 64367 S 6082.48 -1.14723 -5.23067 0
M  V30 64368 C 6083.64 -0.180921 -6.25638 0
M  V30 64369 H 6083.87 -0.852727 -2.84808 0
M  V30 64370 H 6081.4 -0.555324 -1.44068 0
M  V30 64371 H 6083.36 1.4349 -3.84605 0
M  V30 64372 H 6082.02 1.61784 -2.6923 0
M  V30 64373 H 6081.22 0.892838 -4.96029 0
M  V30 64374 H 6080.82 -0.324634 -3.72588 0
M  V30 64375 H 6083.11 0.65001 -6.74375 0
M  V30 64376 H 6084.05 -0.847048 -7.03015 0
M  V30 64377 H 6084.46 0.203685 -5.64132 0
M  V30 64378 N 6083.86 1.49047 -0.512132 0
M  V30 64379 C 6085.14 1.95384 0.0919644 0
M  V30 64380 C 6085.52 1.45395 1.53047 0
M  V30 64381 O 6084.86 0.672562 2.18378 0
M  V30 64382 C 6085.07 3.48999 -0.00686171 0
M  V30 64383 C 6086.42 4.24293 0.161453 0
M  V30 64384 O 6087.45 3.56135 0.0677946 0
M  V30 64385 O 6086.31 5.45345 0.35516 0
M  V30 64386 H 6083.4 0.822179 0.0891703 0
M  V30 64387 H 6085.95 1.59645 -0.575462 0
M  V30 64388 H 6084.72 3.78051 -1.00961 0
M  V30 64389 H 6084.34 3.91386 0.700216 0
M  V30 64390 N 6085.34 0.246452 1.55661 0
M  V30 64391 C 6086.29 -0.669531 2.22756 0
M  V30 64392 C 6087.28 -1.18044 1.21499 0
M  V30 64393 O 6088.49 -1.13739 1.39512 0
M  V30 64394 H 6084.86 -0.234395 0.714537 0
M  V30 64395 H 6086.83 -0.0804913 2.98291 0
M  V30 64396 C 6085.58 -1.8557 2.94039 0
M  V30 64397 H 6084.9 -1.47171 3.71727 0
M  V30 64398 H 6086.34 -2.47385 3.44349 0
M  V30 64399 C 6084.8 -2.72657 1.97889 0
M  V30 64400 O 6085.33 -3.72171 1.51167 0
M  V30 64401 N 6083.54 -2.39214 1.65 0
M  V30 64402 H 6083.09 -1.58341 2.03189 0
M  V30 64403 H 6083.04 -2.97758 1.00932 0
M  V30 64404 N 6086.82 -1.57577 -0.0266666 0
M  V30 64405 C 6088.04 -1.94038 -0.732405 0
M  V30 64406 C 6088.47 -0.846634 -1.67969 0
M  V30 64407 O 6087.82 0.197451 -1.80222 0
M  V30 64408 C 6087.87 -3.29565 -1.46354 0
M  V30 64409 O 6086.98 -3.21984 -2.57682 0
M  V30 64410 H 6086.32 -0.634162 -0.19681 0
M  V30 64411 H 6088.85 -2.04592 0.0185749 0
M  V30 64412 H 6088.86 -3.6451 -1.83292 0
M  V30 64413 H 6087.53 -4.08733 -0.768799 0
M  V30 64414 H 6086.11 -2.98673 -2.23268 0
M  V30 64415 N 6088.29 0.29898 -1.54738 0
M  V30 64416 C 6089.7 0.871839 -1.65093 0
M  V30 64417 C 6090.06 1.88011 -0.560909 0
M  V30 64418 O 6089.18 2.14281 0.302118 0
M  V30 64419 C 6089.78 1.58809 -2.99274 0
M  V30 64420 C 6088.33 2.10933 -3.11744 0
M  V30 64421 C 6087.48 0.942684 -2.60785 0
M  V30 64422 H 6090.43 0.0759326 -1.58518 0
M  V30 64423 H 6090.45 2.45376 -2.9081 0
M  V30 64424 H 6089.97 0.854011 -3.78587 0
M  V30 64425 H 6088.07 2.87383 -2.37154 0
M  V30 64426 H 6088.18 2.34247 -4.17929 0
M  V30 64427 H 6086.54 1.32882 -2.17289 0
M  V30 64428 H 6087.33 0.222525 -3.42578 0
M  V30 64429 N 6089.77 1.47229 0.56227 0
M  V30 64430 C 6090.72 1.59735 1.69079 0
M  V30 64431 C 6091.71 0.46487 1.62897 0
M  V30 64432 O 6092.92 0.642488 1.68143 0
M  V30 64433 H 6089.3 0.502599 0.559373 0
M  V30 64434 H 6091.27 2.54579 1.55667 0
M  V30 64435 C 6090.02 1.62404 3.07441 0
M  V30 64436 H 6089.34 2.48893 3.12878 0
M  V30 64437 H 6090.78 1.75205 3.86108 0
M  V30 64438 C 6089.24 0.356405 3.3501 0
M  V30 64439 O 6089.77 -0.544678 3.9799 0
M  V30 64440 N 6087.97 0.23799 2.89624 0
M  V30 64441 H 6087.52 0.972184 2.38551 0
M  V30 64442 H 6087.48 -0.60924 3.08441 0
M  V30 64443 N 6091.25 -0.808591 1.35276 0
M  V30 64444 C 6092.18 -1.93498 1.30694 0
M  V30 64445 C 6093.16 -1.69126 0.181734 0
M  V30 64446 O 6094.35 -1.90518 0.376379 0
M  V30 64447 C 6091.48 -3.30207 1.07614 0
M  V30 64448 C 6090.43 -3.69055 2.16754 0
M  V30 64449 C 6089.76 -5.03904 1.78842 0
M  V30 64450 C 6091.06 -3.79644 3.58703 0
M  V30 64451 H 6092.75 -1.97589 2.24942 0
M  V30 64452 H 6090.3 -0.949246 1.08284 0
M  V30 64453 H 6092.25 -4.08606 1.03049 0
M  V30 64454 H 6090.97 -3.26453 0.0981092 0
M  V30 64455 H 6089.63 -2.9294 2.20412 0
M  V30 64456 H 6089.28 -4.96652 0.796623 0
M  V30 64457 H 6088.98 -5.30868 2.51899 0
M  V30 64458 H 6090.5 -5.84746 1.75798 0
M  V30 64459 H 6091.92 -4.48279 3.57378 0
M  V30 64460 H 6090.32 -4.18075 4.30504 0
M  V30 64461 H 6091.39 -2.81251 3.95001 0
M  V30 64462 N 6092.73 -1.1924 -1.03051 0
M  V30 64463 C 6093.69 -0.93061 -2.09457 0
M  V30 64464 C 6094.69 0.0882342 -1.60558 0
M  V30 64465 O 6095.88 -0.14633 -1.73584 0
M  V30 64466 C 6093.01 -0.398284 -3.38565 0
M  V30 64467 H 6094.21 -1.8743 -2.34115 0
M  V30 64468 H 6091.76 -1.00584 -1.19635 0
M  V30 64469 H 6092.49 0.551534 -3.19576 0
M  V30 64470 H 6092.28 -1.13286 -3.75378 0
M  V30 64471 H 6093.77 -0.234152 -4.16943 0
M  V30 64472 N 6094.21 1.22132 -0.996063 0
M  V30 64473 C 6095.45 1.91541 -0.684363 0
M  V30 64474 C 6095.81 1.76081 0.775461 0
M  V30 64475 O 6095.1 1.12097 1.55386 0
M  V30 64476 C 6095.29 3.42255 -1.02938 0
M  V30 64477 C 6095.12 3.72379 -2.52119 0
M  V30 64478 C 6093.89 3.92221 -3.18576 0
M  V30 64479 C 6096.09 3.76603 -3.50249 0
M  V30 64480 N 6094.07 4.09684 -4.57201 0
M  V30 64481 C 6095.44 3.99244 -4.74346 0
M  V30 64482 C 6097.5 3.59467 -3.44511 0
M  V30 64483 C 6096.2 4.06527 -5.93404 0
M  V30 64484 C 6098.23 3.68011 -4.62949 0
M  V30 64485 C 6097.59 3.91104 -5.85847 0
M  V30 64486 H 6093.69 0.721435 -0.301755 0
M  V30 64487 H 6096.27 1.46997 -1.27672 0
M  V30 64488 H 6094.44 3.856 -0.465567 0
M  V30 64489 H 6096.18 3.99059 -0.673337 0
M  V30 64490 H 6092.93 3.89764 -2.69037 0
M  V30 64491 H 6093.36 4.22336 -5.29114 0
M  V30 64492 H 6098 3.40596 -2.50508 0
M  V30 64493 H 6095.72 4.24201 -6.87808 0
M  V30 64494 H 6099.3 3.56086 -4.60102 0
M  V30 64495 H 6098.18 3.97548 -6.75962 0
M  V30 64496 N 6095.68 0.76966 1.37528 0
M  V30 64497 C 6097.1 0.398708 1.82393 0
M  V30 64498 C 6097.45 -1.07487 1.64137 0
M  V30 64499 O 6096.57 -1.8323 1.15134 0
M  V30 64500 C 6097.17 0.716905 3.31128 0
M  V30 64501 C 6095.73 0.399035 3.74279 0
M  V30 64502 C 6094.87 0.961822 2.60085 0
M  V30 64503 H 6097.82 0.964485 1.26029 0
M  V30 64504 H 6097.84 0.000810644 3.805 0
M  V30 64505 H 6097.36 1.78946 3.44384 0
M  V30 64506 H 6095.46 -0.666283 3.66594 0
M  V30 64507 H 6095.57 0.905825 4.70459 0
M  V30 64508 H 6093.93 0.386191 2.51755 0
M  V30 64509 H 6094.72 2.03973 2.76134 0
M  V30 64510 N 6097.16 -1.48773 0.520029 0
M  V30 64511 C 6098.09 -2.32293 -0.237132 0
M  V30 64512 C 6099.07 -1.41463 -0.944575 0
M  V30 64513 O 6100.26 -1.70358 -0.932289 0
M  V30 64514 C 6097.39 -3.22431 -1.29056 0
M  V30 64515 C 6096.34 -4.22206 -0.701863 0
M  V30 64516 C 6095.67 -5.0141 -1.85722 0
M  V30 64517 C 6096.97 -5.2132 0.31981 0
M  V30 64518 H 6098.66 -2.95844 0.460053 0
M  V30 64519 H 6096.21 -1.42268 0.222691 0
M  V30 64520 H 6098.16 -3.79681 -1.82813 0
M  V30 64521 H 6096.89 -2.5686 -2.01719 0
M  V30 64522 H 6095.54 -3.66128 -0.185899 0
M  V30 64523 H 6095.19 -4.32271 -2.57199 0
M  V30 64524 H 6094.89 -5.68934 -1.46929 0
M  V30 64525 H 6096.42 -5.61509 -2.39875 0
M  V30 64526 H 6097.83 -5.73152 -0.130303 0
M  V30 64527 H 6096.23 -5.96841 0.624587 0
M  V30 64528 H 6097.3 -4.69064 1.22909 0
M  V30 64529 N 6098.64 -0.254703 -1.55528 0
M  V30 64530 C 6099.89 0.368392 -1.98307 0
M  V30 64531 C 6100.2 1.58496 -1.14623 0
M  V30 64532 O 6101.41 2.2797 -1.47451 0
M  V30 64533 C 6099.86 0.706806 -3.52891 0
M  V30 64534 C 6099.47 -0.488804 -4.45325 0
M  V30 64535 C 6101.22 1.29366 -4.04308 0
M  V30 64536 C 6099.12 -0.126111 -5.91266 0
M  V30 64537 H 6098.05 0.141418 -0.740619 0
M  V30 64538 H 6100.7 -0.356148 -1.80011 0
M  V30 64539 H 6099.09 1.48969 -3.66912 0
M  V30 64540 H 6100.26 -1.26603 -4.43067 0
M  V30 64541 H 6098.58 -0.991111 -4.04433 0
M  V30 64542 H 6101.17 1.57848 -5.1087 0
M  V30 64543 H 6101.52 2.22075 -3.5212 0
M  V30 64544 H 6102.05 0.573509 -3.93644 0
M  V30 64545 H 6098.79 -1.02055 -6.47507 0
M  V30 64546 H 6098.31 0.614759 -5.96641 0
M  V30 64547 H 6099.99 0.288947 -6.46354 0
M  V30 64548 N 6100.12 1.57589 0.0183095 0
M  V30 64549 C 6101.36 1.9004 0.707989 0
M  V30 64550 C 6101.7 0.853747 1.74427 0
M  V30 64551 O 6100.97 -0.129871 1.94066 0
M  V30 64552 C 6101.26 3.33112 1.36779 0
M  V30 64553 C 6101.11 4.4848 0.344291 0
M  V30 64554 C 6102.43 3.75284 2.29891 0
M  V30 64555 H 6099.55 0.691143 0.25591 0
M  V30 64556 H 6102.19 1.89978 -0.0292247 0
M  V30 64557 H 6100.34 3.33296 1.99615 0
M  V30 64558 H 6102.01 4.60431 -0.282978 0
M  V30 64559 H 6100.25 4.32502 -0.335348 0
M  V30 64560 H 6100.92 5.455 0.84464 0
M  V30 64561 H 6103.4 3.76535 1.7709 0
M  V30 64562 H 6102.28 4.76177 2.73032 0
M  V30 64563 H 6102.54 3.08135 3.17025 0
M  V30 64564 N 6101.6 -0.29077 1.54894 0
M  V30 64565 C 6102.82 -1.04338 1.78665 0
M  V30 64566 C 6103.24 -1.80576 0.551147 0
M  V30 64567 O 6102.6 -1.76093 -0.479332 0
M  V30 64568 C 6102.65 -2.01593 3.00071 0
M  V30 64569 O 6102.37 -1.28446 4.18847 0
M  V30 64570 C 6103.87 -2.88811 3.36308 0
M  V30 64571 H 6101.09 -0.308997 0.595619 0
M  V30 64572 H 6103.63 -0.32694 2.0187 0
M  V30 64573 H 6101.79 -2.68725 2.79044 0
M  V30 64574 H 6102.2 -1.93847 4.87364 0
M  V30 64575 H 6103.68 -3.52883 4.24474 0
M  V30 64576 H 6104.15 -3.57651 2.54917 0
M  V30 64577 H 6104.76 -2.27195 3.59531 0
M  V30 64578 N 6103.07 -1.47525 -0.554454 0
M  V30 64579 C 6104.04 -1.59766 -1.64339 0
M  V30 64580 C 6105.04 -0.47257 -1.53699 0
M  V30 64581 O 6106.23 -0.737714 -1.57808 0
M  V30 64582 C 6103.36 -1.54477 -3.03891 0
M  V30 64583 H 6104.55 -2.5684 -1.54833 0
M  V30 64584 H 6102.11 -1.35756 -0.774595 0
M  V30 64585 H 6102.84 -0.587901 -3.18927 0
M  V30 64586 H 6102.63 -2.36134 -3.13022 0
M  V30 64587 H 6104.12 -1.66188 -3.83108 0
M  V30 64588 N 6104.55 0.801406 -1.35703 0
M  V30 64589 C 6105.48 1.92802 -1.31718 0
M  V30 64590 C 6106.46 1.69028 -0.190701 0
M  V30 64591 O 6107.65 1.90316 -0.386477 0
M  V30 64592 C 6104.78 3.29631 -1.09363 0
M  V30 64593 C 6103.73 3.67901 -2.18708 0
M  V30 64594 C 6103.06 5.02949 -1.81512 0
M  V30 64595 C 6104.36 3.77736 -3.60711 0
M  V30 64596 H 6106.05 1.96393 -2.25987 0
M  V30 64597 H 6103.6 0.94349 -1.08785 0
M  V30 64598 H 6105.55 4.08054 -1.05214 0
M  V30 64599 H 6104.28 3.26396 -0.11542 0
M  V30 64600 H 6102.94 2.91767 -2.21963 0
M  V30 64601 H 6102.58 4.96222 -0.822951 0
M  V30 64602 H 6102.28 5.29524 -2.54711 0
M  V30 64603 H 6103.81 5.83805 -1.78897 0
M  V30 64604 H 6105.22 4.46378 -3.5975 0
M  V30 64605 H 6103.62 4.15786 -4.32715 0
M  V30 64606 H 6104.69 2.79153 -3.96487 0
M  V30 64607 N 6106.03 1.19785 1.02417 0
M  V30 64608 C 6107.45 0.951079 1.28166 0
M  V30 64609 C 6107.65 -0.373814 1.98002 0
M  V30 64610 O 6106.7 -1.10419 2.27077 0
M  V30 64611 C 6108.02 2.12841 2.12413 0
M  V30 64612 C 6109.56 2.16855 2.25705 0
M  V30 64613 C 6110.04 3.34052 3.13326 0
M  V30 64614 N 6111.53 3.34018 3.20914 0
M  V30 64615 C 6112.27 4.21347 3.88915 0
M  V30 64616 N 6111.76 5.18839 4.59105 0
M  V30 64617 N 6113.55 4.0921 3.85361 0
M  V30 64618 H 6105.71 2.05019 0.55505 0
M  V30 64619 H 6107.97 0.896727 0.307545 0
M  V30 64620 H 6107.67 3.08748 1.68426 0
M  V30 64621 H 6107.55 2.10299 3.13136 0
M  V30 64622 H 6109.94 1.21516 2.6892 0
M  V30 64623 H 6110.02 2.23448 1.24517 0
M  V30 64624 H 6109.66 4.29674 2.70818 0
M  V30 64625 H 6109.59 3.24696 4.14584 0
M  V30 64626 H 6112.08 2.6345 2.70929 0
M  V30 64627 H 6112.39 5.81814 5.08638 0
M  V30 64628 H 6110.74 5.22783 4.57955 0
M  V30 64629 H 6113.93 3.3232 3.29668 0
M  V30 64630 H 6114.1 4.77481 4.38082 0
M  V30 64631 N 6107.51 -1.21603 1.00253 0
M  V30 64632 C 6108.47 -2.22105 0.565851 0
M  V30 64633 C 6109.47 -1.56799 -0.356466 0
M  V30 64634 O 6110.66 -1.73578 -0.147093 0
M  V30 64635 C 6107.79 -3.40447 -0.175622 0
M  V30 64636 H 6108.99 -2.62253 1.45477 0
M  V30 64637 H 6106.54 -1.3482 0.790769 0
M  V30 64638 H 6107.28 -3.05785 -1.08009 0
M  V30 64639 H 6107.06 -3.89067 0.486749 0
M  V30 64640 H 6108.55 -4.14958 -0.468976 0
M  V30 64641 N 6108.99 -0.776943 -1.37118 0
M  V30 64642 C 6109.94 -0.154603 -2.32086 0
M  V30 64643 C 6110.93 0.679101 -1.55192 0
M  V30 64644 O 6112.14 0.575581 -1.70549 0
M  V30 64645 H 6108.51 -0.0312113 -0.751352 0
M  V30 64646 H 6110.48 -0.971224 -2.82152 0
M  V30 64647 C 6109.23 0.706045 -3.40456 0
M  V30 64648 H 6108.55 0.0738936 -3.99732 0
M  V30 64649 H 6109.99 1.10838 -4.09257 0
M  V30 64650 C 6108.45 1.85891 -2.80974 0
M  V30 64651 O 6108.98 2.95472 -2.72138 0
M  V30 64652 N 6107.19 1.66114 -2.38442 0
M  V30 64653 H 6106.74 0.769829 -2.45828 0
M  V30 64654 H 6106.69 2.43415 -1.98989 0
M  V30 64655 N 6110.47 1.48495 -0.527912 0
M  V30 64656 C 6111.69 2.07399 0.00503434 0
M  V30 64657 C 6112.12 1.38216 1.27586 0
M  V30 64658 O 6111.47 0.447435 1.75692 0
M  V30 64659 C 6111.52 3.59963 0.214169 0
M  V30 64660 O 6110.63 3.91926 1.28328 0
M  V30 64661 H 6109.97 0.6629 -0.0382071 0
M  V30 64662 H 6112.5 1.90933 -0.735233 0
M  V30 64663 H 6112.51 4.05648 0.437461 0
M  V30 64664 H 6111.18 4.09722 -0.714172 0
M  V30 64665 H 6109.76 3.58022 1.04281 0
M  V30 64666 N 6111.94 0.262948 1.55391 0
M  V30 64667 C 6112.91 -0.616584 2.20751 0
M  V30 64668 C 6113.91 -1.09062 1.18162 0
M  V30 64669 O 6115.1 -0.992747 1.43144 0
M  V30 64670 C 6112.23 -1.84927 2.86382 0
M  V30 64671 H 6113.42 -0.0460959 2.99865 0
M  V30 64672 H 6110.97 0.0134869 1.56294 0
M  V30 64673 H 6111.71 -2.46058 2.11248 0
M  V30 64674 H 6111.49 -1.51741 3.61548 0
M  V30 64675 H 6112.98 -2.47499 3.36354 0
M  V30 64676 N 6113.42 -1.57597 -0.00995191 0
M  V30 64677 C 6114.67 -1.90413 -0.697901 0
M  V30 64678 C 6115 -0.862985 -1.73972 0
M  V30 64679 O 6114.28 0.119578 -1.94132 0
M  V30 64680 C 6114.56 -3.33833 -1.3501 0
M  V30 64681 C 6114.41 -4.48657 -0.320502 0
M  V30 64682 C 6115.73 -3.76498 -2.27898 0
M  V30 64683 H 6112.85 -0.692491 -0.252241 0
M  V30 64684 H 6115.49 -1.89959 0.0392993 0
M  V30 64685 H 6113.64 -3.3435 -1.97844 0
M  V30 64686 H 6115.31 -4.60275 0.307391 0
M  V30 64687 H 6113.56 -4.32318 0.35828 0
M  V30 64688 H 6114.23 -5.4594 -0.815699 0
M  V30 64689 H 6116.7 -3.77469 -1.7509 0
M  V30 64690 H 6115.58 -4.77619 -2.70503 0
M  V30 64691 H 6115.84 -3.09812 -3.15387 0
M  V30 64692 N 6114.9 0.282551 -1.55046 0
M  V30 64693 C 6115.85 1.34902 -1.8727 0
M  V30 64694 C 6116.82 1.49525 -0.723282 0
M  V30 64695 O 6118 1.64087 -0.97366 0
M  V30 64696 C 6115.14 2.70596 -2.14177 0
M  V30 64697 C 6114.25 2.64272 -3.41737 0
M  V30 64698 C 6113.39 3.92082 -3.58393 0
M  V30 64699 C 6112.43 3.80229 -4.79679 0
M  V30 64700 N 6111.57 4.99854 -4.93042 0
M  V30 64701 H 6116.41 1.06721 -2.78235 0
M  V30 64702 H 6113.94 0.515797 -1.3776 0
M  V30 64703 H 6115.9 3.49534 -2.27776 0
M  V30 64704 H 6114.53 2.96999 -1.26458 0
M  V30 64705 H 6113.58 1.77096 -3.36662 0
M  V30 64706 H 6114.89 2.5141 -4.30807 0
M  V30 64707 H 6114.05 4.7946 -3.71756 0
M  V30 64708 H 6112.79 4.07799 -2.67491 0
M  V30 64709 H 6111.79 2.91234 -4.66329 0
M  V30 64710 H 6113.02 3.6604 -5.72007 0
M  V30 64711 H 6110.96 5.16 -4.05068 0
M  V30 64712 H 6110.88 4.89486 -5.76142 0
M  V30 64713 H 6112.15 5.88831 -5.10782 0
M  V30 64714 N 6116.38 1.47817 0.546623 0
M  V30 64715 C 6117.31 1.63982 1.66229 0
M  V30 64716 C 6118.29 0.489003 1.6292 0
M  V30 64717 O 6119.47 0.719596 1.80376 0
M  V30 64718 C 6116.6 1.66381 3.04852 0
M  V30 64719 C 6115.56 2.80796 3.23013 0
M  V30 64720 C 6114.88 2.68274 4.62529 0
M  V30 64721 C 6116.18 4.22278 3.07373 0
M  V30 64722 H 6117.88 2.57381 1.52956 0
M  V30 64723 H 6115.42 1.23864 0.734421 0
M  V30 64724 H 6117.38 1.7628 3.82758 0
M  V30 64725 H 6116.1 0.695498 3.19109 0
M  V30 64726 H 6114.76 2.70425 2.47519 0
M  V30 64727 H 6114.41 1.69447 4.736 0
M  V30 64728 H 6114.11 3.45038 4.75628 0
M  V30 64729 H 6115.63 2.80116 5.42556 0
M  V30 64730 H 6117.05 4.3357 3.75087 0
M  V30 64731 H 6115.44 4.99912 3.31976 0
M  V30 64732 H 6116.51 4.39904 2.03991 0
M  V30 64733 N 6117.86 -0.794198 1.36126 0
M  V30 64734 C 6118.79 -1.9151 1.25923 0
M  V30 64735 C 6119.8 -1.61804 0.179772 0
M  V30 64736 O 6120.99 -1.73141 0.43409 0
M  V30 64737 C 6118.09 -3.26198 0.919133 0
M  V30 64738 C 6117.26 -3.83718 2.0995 0
M  V30 64739 C 6116.32 -4.96836 1.73322 0
M  V30 64740 O 6115.35 -5.13606 2.45351 0
M  V30 64741 N 6116.55 -5.76689 0.66409 0
M  V30 64742 H 6119.31 -2.00785 2.22498 0
M  V30 64743 H 6116.88 -0.972235 1.29457 0
M  V30 64744 H 6118.87 -3.99359 0.655348 0
M  V30 64745 H 6117.44 -3.12571 0.0426705 0
M  V30 64746 H 6116.66 -3.02602 2.52637 0
M  V30 64747 H 6117.95 -4.18879 2.88821 0
M  V30 64748 H 6117.34 -5.65662 0.065906 0
M  V30 64749 H 6115.9 -6.50174 0.460118 0
M  V30 64750 N 6119.33 -1.20327 -1.0178 0
M  V30 64751 C 6120.28 -0.947828 -2.12412 0
M  V30 64752 C 6121.28 0.100384 -1.69102 0
M  V30 64753 O 6122.48 -0.0498661 -1.79931 0
M  V30 64754 H 6118.86 -0.289172 -0.694178 0
M  V30 64755 H 6120.83 -1.88722 -2.31142 0
M  V30 64756 C 6119.58 -0.51515 -3.43863 0
M  V30 64757 H 6118.9 -1.31331 -3.77614 0
M  V30 64758 H 6120.34 -0.375624 -4.22333 0
M  V30 64759 C 6118.8 0.772297 -3.27929 0
M  V30 64760 O 6119.33 1.83103 -3.57542 0
M  V30 64761 N 6117.54 0.733849 -2.81181 0
M  V30 64762 H 6117.08 -0.127992 -2.57282 0
M  V30 64763 H 6117.04 1.59561 -2.70901 0
M  V30 64764 N 6120.81 1.21069 -1.00896 0
M  V30 64765 C 6121.76 2.25611 -0.565908 0
M  V30 64766 C 6122.75 1.64813 0.391531 0
M  V30 64767 O 6123.96 1.78079 0.262289 0
M  V30 64768 H 6120.34 0.733749 -0.164669 0
M  V30 64769 H 6122.31 2.60316 -1.45871 0
M  V30 64770 C 6121.06 3.47589 0.0877388 0
M  V30 64771 H 6120.38 3.94645 -0.639967 0
M  V30 64772 H 6121.82 4.22461 0.360966 0
M  V30 64773 C 6120.28 3.09614 1.32818 0
M  V30 64774 O 6120.81 3.20457 2.42219 0
M  V30 64775 N 6119.01 2.64238 1.20941 0
M  V30 64776 H 6118.56 2.55615 0.319211 0
M  V30 64777 H 6118.52 2.39199 2.04038 0
M  V30 64778 N 6122.29 0.784204 1.36704 0
M  V30 64779 C 6123.2 0.180042 2.33908 0
M  V30 64780 C 6124.22 -0.665035 1.6079 0
M  V30 64781 O 6125.39 -0.582043 1.92806 0
M  V30 64782 C 6122.46 -0.679203 3.39982 0
M  V30 64783 C 6121.52 0.183768 4.28906 0
M  V30 64784 C 6120.75 -0.634561 5.29914 0
M  V30 64785 O 6120.97 -1.87088 5.38845 0
M  V30 64786 O 6119.91 -0.0371997 6.01889 0
M  V30 64787 H 6123.73 0.9836 2.87331 0
M  V30 64788 H 6121.32 0.54557 1.39082 0
M  V30 64789 H 6123.2 -1.16934 4.04851 0
M  V30 64790 H 6121.88 -1.46074 2.88867 0
M  V30 64791 H 6120.78 0.720548 3.67095 0
M  V30 64792 H 6122.12 0.928691 4.83359 0
M  V30 64793 N 6123.77 -1.48213 0.535779 0
M  V30 64794 C 6124.7 -2.32531 -0.21248 0
M  V30 64795 C 6125.68 -1.42457 -0.929518 0
M  V30 64796 O 6126.86 -1.71338 -0.914168 0
M  V30 64797 C 6123.99 -3.23782 -1.25629 0
M  V30 64798 C 6122.95 -4.22927 -0.657043 0
M  V30 64799 C 6122.27 -5.03351 -1.80393 0
M  V30 64800 C 6123.57 -5.20951 0.375085 0
M  V30 64801 H 6125.27 -2.9534 0.491405 0
M  V30 64802 H 6122.81 -1.42023 0.237767 0
M  V30 64803 H 6124.77 -3.81598 -1.78775 0
M  V30 64804 H 6123.49 -2.58985 -1.98984 0
M  V30 64805 H 6122.15 -3.66305 -0.147055 0
M  V30 64806 H 6121.8 -4.34974 -2.52599 0
M  V30 64807 H 6121.5 -5.7046 -1.40886 0
M  V30 64808 H 6123.02 -5.64021 -2.33906 0
M  V30 64809 H 6124.44 -5.73258 -0.0695057 0
M  V30 64810 H 6122.83 -5.96145 0.687855 0
M  V30 64811 H 6123.9 -4.67734 1.27877 0
M  V30 64812 N 6125.25 -0.271185 -1.55249 0
M  V30 64813 C 6126.47 0.353067 -2.04373 0
M  V30 64814 C 6126.9 1.48974 -1.14841 0
M  V30 64815 O 6126.25 1.8071 -0.146202 0
M  V30 64816 C 6126.3 0.815301 -3.51262 0
M  V30 64817 O 6125.41 1.92289 -3.64827 0
M  V30 64818 H 6124.75 0.0735975 -0.659909 0
M  V30 64819 H 6127.28 -0.404336 -2.00565 0
M  V30 64820 H 6127.29 1.1121 -3.92551 0
M  V30 64821 H 6125.96 -0.0163541 -4.15897 0
M  V30 64822 H 6124.54 1.62893 -3.35441 0
M  V30 64823 N 6126.72 1.576 0.00159402 0
M  V30 64824 C 6128.14 1.7858 0.544618 0
M  V30 64825 C 6128.49 0.905636 1.74048 0
M  V30 64826 O 6127.61 0.10769 2.16132 0
M  V30 64827 C 6128.21 3.23866 0.994784 0
M  V30 64828 C 6126.77 3.45948 1.48313 0
M  V30 64829 C 6125.91 2.73889 0.433606 0
M  V30 64830 H 6128.86 1.57103 -0.224579 0
M  V30 64831 H 6128.88 3.31891 1.86087 0
M  V30 64832 H 6128.4 3.87901 0.124215 0
M  V30 64833 H 6126.5 2.87126 2.37464 0
M  V30 64834 H 6126.61 4.54626 1.51169 0
M  V30 64835 H 6124.97 2.38462 0.894886 0
M  V30 64836 H 6125.76 3.40622 -0.427969 0
M  V30 64837 N 6128.2 -0.274325 1.55194 0
M  V30 64838 C 6129.45 -1.00759 1.75998 0
M  V30 64839 C 6129.78 -1.85988 0.558745 0
M  V30 64840 O 6129.06 -1.89371 -0.443717 0
M  V30 64841 C 6129.34 -1.89126 3.06437 0
M  V30 64842 C 6129.19 -1.06899 4.36913 0
M  V30 64843 C 6130.51 -2.87857 3.32906 0
M  V30 64844 H 6127.63 -0.364892 0.64033 0
M  V30 64845 H 6130.27 -0.28009 1.87924 0
M  V30 64846 H 6128.42 -2.51156 2.964 0
M  V30 64847 H 6130.09 -0.469505 4.58905 0
M  V30 64848 H 6128.34 -0.372414 4.32198 0
M  V30 64849 H 6129.01 -1.72044 5.24504 0
M  V30 64850 H 6131.48 -2.35962 3.42726 0
M  V30 64851 H 6130.36 -3.4683 4.25441 0
M  V30 64852 H 6130.62 -3.62912 2.52482 0
M  V30 64853 N 6129.68 -1.48105 -0.538776 0
M  V30 64854 C 6130.64 -1.61501 -1.62635 0
M  V30 64855 C 6131.64 -0.488846 -1.53189 0
M  V30 64856 O 6132.83 -0.75441 -1.57017 0
M  V30 64857 C 6129.97 -1.57692 -3.02235 0
M  V30 64858 H 6131.16 -2.58468 -1.521 0
M  V30 64859 H 6128.71 -1.3657 -0.760153 0
M  V30 64860 H 6129.45 -0.621694 -3.18285 0
M  V30 64861 H 6129.23 -2.39441 -3.105 0
M  V30 64862 H 6130.72 -1.70242 -3.81323 0
M  V30 64863 N 6131.16 0.786968 -1.36545 0
M  V30 64864 C 6132.09 1.91394 -1.33756 0
M  V30 64865 C 6133.07 1.68816 -0.208618 0
M  V30 64866 O 6134.25 1.89895 -0.406641 0
M  V30 64867 C 6131.38 3.28453 -1.12853 0
M  V30 64868 C 6130.34 3.6556 -2.22598 0
M  V30 64869 C 6129.66 5.00995 -1.86836 0
M  V30 64870 C 6130.96 3.73889 -3.64697 0
M  V30 64871 H 6132.66 1.93985 -2.28057 0
M  V30 64872 H 6130.2 0.931899 -1.0978 0
M  V30 64873 H 6132.16 4.06915 -1.09536 0
M  V30 64874 H 6130.88 3.26255 -0.150033 0
M  V30 64875 H 6129.54 2.89397 -2.25045 0
M  V30 64876 H 6129.19 4.95321 -0.875535 0
M  V30 64877 H 6128.89 5.26793 -2.60313 0
M  V30 64878 H 6130.41 5.81875 -1.85079 0
M  V30 64879 H 6131.83 4.42537 -3.64464 0
M  V30 64880 H 6130.22 4.11173 -4.37101 0
M  V30 64881 H 6131.29 2.74932 -3.99425 0
M  V30 64882 N 6132.64 1.20865 1.01141 0
M  V30 64883 C 6134.05 0.964619 1.27151 0
M  V30 64884 C 6134.25 -0.352792 1.98388 0
M  V30 64885 O 6133.31 -1.08004 2.28235 0
M  V30 64886 C 6134.62 2.15082 2.10144 0
M  V30 64887 C 6136.17 2.19237 2.23392 0
M  V30 64888 C 6136.64 3.37357 3.09765 0
M  V30 64889 N 6138.14 3.37403 3.17354 0
M  V30 64890 C 6138.87 4.25448 3.84424 0
M  V30 64891 N 6138.37 5.2368 4.53576 0
M  V30 64892 N 6140.16 4.13274 3.81 0
M  V30 64893 H 6132.31 2.05597 0.533274 0
M  V30 64894 H 6134.57 0.899939 0.298017 0
M  V30 64895 H 6134.28 3.10517 1.65142 0
M  V30 64896 H 6134.15 2.13609 3.10888 0
M  V30 64897 H 6136.54 1.24361 2.67616 0
M  V30 64898 H 6136.62 2.24757 1.2214 0
M  V30 64899 H 6136.27 4.32522 2.66246 0
M  V30 64900 H 6136.2 3.29075 4.11117 0
M  V30 64901 H 6138.69 2.66309 2.68119 0
M  V30 64902 H 6139 5.87176 5.02438 0
M  V30 64903 H 6137.34 5.27611 4.52384 0
M  V30 64904 H 6140.54 3.35798 3.26125 0
M  V30 64905 H 6140.71 4.821 4.32993 0
M  V30 64906 N 6134.12 -1.20532 1.01537 0
M  V30 64907 C 6135.05 -2.22681 0.542736 0
M  V30 64908 C 6136.06 -1.58441 -0.374212 0
M  V30 64909 O 6137.25 -1.77662 -0.172755 0
M  V30 64910 C 6134.35 -3.38118 -0.23005 0
M  V30 64911 C 6133.52 -4.31947 0.688508 0
M  V30 64912 C 6132.58 -5.26187 -0.0364837 0
M  V30 64913 O 6131.61 -5.66179 0.585617 0
M  V30 64914 N 6132.81 -5.65486 -1.31173 0
M  V30 64915 H 6135.57 -2.63859 1.42121 0
M  V30 64916 H 6133.14 -1.35061 0.89275 0
M  V30 64917 H 6135.13 -3.98166 -0.724268 0
M  V30 64918 H 6133.7 -2.95841 -1.0098 0
M  V30 64919 H 6132.92 -3.69884 1.36305 0
M  V30 64920 H 6134.21 -4.91559 1.31327 0
M  V30 64921 H 6133.6 -5.35005 -1.83811 0
M  V30 64922 H 6132.16 -6.27849 -1.7507 0
M  V30 64923 N 6135.59 -0.791442 -1.36286 0
M  V30 64924 C 6136.53 -0.137118 -2.27788 0
M  V30 64925 C 6137.5 0.68798 -1.47328 0
M  V30 64926 O 6138.69 0.658524 -1.76623 0
M  V30 64927 C 6135.82 0.811273 -3.2884 0
M  V30 64928 C 6134.86 0.0677132 -4.26446 0
M  V30 64929 S 6135.69 -1.25793 -5.20516 0
M  V30 64930 C 6136.85 -0.313588 -6.25114 0
M  V30 64931 H 6137.08 -0.912948 -2.82936 0
M  V30 64932 H 6134.62 -0.585758 -1.42857 0
M  V30 64933 H 6136.57 1.353 -3.87562 0
M  V30 64934 H 6135.24 1.56037 -2.72601 0
M  V30 64935 H 6134.43 0.787422 -4.97811 0
M  V30 64936 H 6134.03 -0.403592 -3.71816 0
M  V30 64937 H 6136.32 0.506819 -6.75602 0
M  V30 64938 H 6137.27 -0.995977 -7.01061 0
M  V30 64939 H 6137.67 0.0839784 -5.64438 0
M  V30 64940 N 6137.07 1.47927 -0.543632 0
M  V30 64941 C 6138.3 2.07393 -0.0169634 0
M  V30 64942 C 6138.72 1.39561 1.26112 0
M  V30 64943 O 6138.08 0.466044 1.75208 0
M  V30 64944 C 6138.13 3.6017 0.175978 0
M  V30 64945 O 6137.23 3.93265 1.24164 0
M  V30 64946 H 6136.57 0.662457 -0.0452359 0
M  V30 64947 H 6139.1 1.90143 -0.755442 0
M  V30 64948 H 6139.11 4.06089 0.394412 0
M  V30 64949 H 6137.79 4.08942 -0.757589 0
M  V30 64950 H 6136.36 3.59108 1.00478 0
M  V30 64951 N 6138.55 0.279414 1.55103 0
M  V30 64952 C 6139.79 -0.337273 2.01598 0
M  V30 64953 C 6140.15 -1.52728 1.16353 0
M  V30 64954 O 6141.35 -2.21389 1.52448 0
M  V30 64955 C 6139.63 -0.705716 3.50363 0
M  V30 64956 S 6141.18 -1.30833 4.18842 0
M  V30 64957 H 6138 -0.104679 0.703252 0
M  V30 64958 H 6140.6 0.402252 1.91317 0
M  V30 64959 H 6139.31 0.169183 4.10051 0
M  V30 64960 H 6138.84 -1.47659 3.64637 0
M  V30 64961 H 6140.85 -2.59681 4.22824 0
M  V30 64962 N 6140.03 -1.57599 0.00676391 0
M  V30 64963 C 6140.99 -2.07786 -0.967344 0
M  V30 64964 C 6141.99 -0.988542 -1.26825 0
M  V30 64965 O 6143.18 -1.25095 -1.2123 0
M  V30 64966 C 6140.31 -2.52499 -2.29035 0
M  V30 64967 H 6141.51 -2.95124 -0.533098 0
M  V30 64968 H 6139.06 -1.54433 -0.240845 0
M  V30 64969 H 6139.79 -1.68425 -2.77135 0
M  V30 64970 H 6139.58 -3.32061 -2.08513 0
M  V30 64971 H 6141.07 -2.91631 -2.989 0
M  V30 64972 N 6141.51 0.266091 -1.55337 0
M  V30 64973 C 6142.47 1.31236 -1.87909 0
M  V30 64974 C 6143.47 1.42019 -0.754133 0
M  V30 64975 O 6144.66 1.41051 -1.02227 0
M  V30 64976 C 6141.79 2.69278 -2.0905 0
M  V30 64977 H 6142.98 1.03582 -2.81444 0
M  V30 64978 H 6140.54 0.504485 -1.47935 0
M  V30 64979 H 6141.27 3.02102 -1.1792 0
M  V30 64980 H 6141.06 2.62836 -2.90963 0
M  V30 64981 H 6142.55 3.44862 -2.355 0
M  V30 64982 N 6142.98 1.48388 0.530914 0
M  V30 64983 C 6144.23 1.56049 1.28425 0
M  V30 64984 C 6144.55 0.235763 1.9357 0
M  V30 64985 O 6143.82 -0.742613 1.81279 0
M  V30 64986 H 6142.4 0.574885 0.476987 0
M  V30 64987 H 6145.06 1.84846 0.61789 0
M  V30 64988 H 6144.16 2.34104 2.06402 0
M  V30 64989 N 6144.46 -0.779715 1.36961 0
M  V30 64990 C 6145.69 -1.5687 1.34905 0
M  V30 64991 C 6146.1 -1.88679 -0.0674682 0
M  V30 64992 O 6145.46 -1.50856 -1.02707 0
M  V30 64993 C 6145.51 -2.88383 2.17985 0
M  V30 64994 O 6145.23 -2.57941 3.54116 0
M  V30 64995 C 6146.73 -3.82649 2.23819 0
M  V30 64996 H 6143.95 -0.486246 0.462391 0
M  V30 64997 H 6146.5 -0.967008 1.80192 0
M  V30 64998 H 6144.65 -3.44997 1.76227 0
M  V30 64999 H 6145.07 -3.42101 3.97576 0
M  V30 65000 H 6146.54 -4.71957 2.86288 0
M  V30 65001 H 6147.02 -4.21204 1.24435 0
M  V30 65002 H 6147.62 -3.31966 2.65854 0
M  V30 65003 N 6145.94 -1.21399 -1.00498 0
M  V30 65004 C 6147.17 -1.0572 -1.77851 0
M  V30 65005 C 6147.58 0.392993 -1.84665 0
M  V30 65006 O 6146.94 1.27265 -1.30804 0
M  V30 65007 C 6146.99 -1.64785 -3.21758 0
M  V30 65008 O 6146.71 -3.04131 -3.15335 0
M  V30 65009 C 6148.21 -1.54217 -4.1561 0
M  V30 65010 H 6145.43 -0.37126 -0.558934 0
M  V30 65011 H 6147.98 -1.60737 -1.26427 0
M  V30 65012 H 6146.13 -1.1386 -3.7029 0
M  V30 65013 H 6146.55 -3.3237 -4.05747 0
M  V30 65014 H 6148.02 -2.00288 -5.14382 0
M  V30 65015 H 6148.5 -0.496608 -4.36383 0
M  V30 65016 H 6149.1 -2.0439 -3.72968 0
M  V30 65017 N 6147.42 1.19992 -1.02175 0
M  V30 65018 C 6148.35 2.2239 -0.554538 0
M  V30 65019 C 6149.36 1.58637 0.365804 0
M  V30 65020 O 6150.55 1.77751 0.163331 0
M  V30 65021 C 6147.65 3.38236 0.212115 0
M  V30 65022 C 6146.82 4.31576 -0.711405 0
M  V30 65023 C 6145.88 5.26199 0.00857815 0
M  V30 65024 O 6144.91 5.65861 -0.615634 0
M  V30 65025 N 6146.11 5.66173 1.28172 0
M  V30 65026 H 6148.88 2.63102 -1.43518 0
M  V30 65027 H 6146.44 1.34586 -0.899901 0
M  V30 65028 H 6148.43 3.98545 0.703142 0
M  V30 65029 H 6147 2.96372 0.994101 0
M  V30 65030 H 6146.22 3.69156 -1.38265 0
M  V30 65031 H 6147.51 4.90856 -1.33932 0
M  V30 65032 H 6146.91 5.35972 1.80971 0
M  V30 65033 H 6145.46 6.28768 1.71738 0
M  V30 65034 N 6148.9 0.798659 1.35865 0
M  V30 65035 C 6150.12 0.387551 2.03238 0
M  V30 65036 C 6150.54 -0.998996 1.60205 0
M  V30 65037 O 6149.9 -1.64234 0.79582 0
M  V30 65038 C 6149.95 0.452228 3.5866 0
M  V30 65039 O 6149.67 1.7841 4.00127 0
M  V30 65040 C 6151.17 0.0329197 4.43288 0
M  V30 65041 H 6148.39 0.158472 0.652018 0
M  V30 65042 H 6150.93 1.08008 1.73651 0
M  V30 65043 H 6149.09 -0.191971 3.86924 0
M  V30 65044 H 6149.5 1.74136 4.9475 0
M  V30 65045 H 6150.98 0.1293 5.51849 0
M  V30 65046 H 6151.45 -1.02083 4.27172 0
M  V30 65047 H 6152.06 0.649964 4.20304 0
M  V30 65048 N 6150.37 -1.47637 0.551469 0
M  V30 65049 C 6151.34 -2.2842 -0.188916 0
M  V30 65050 C 6152.34 -1.3662 -0.848032 0
M  V30 65051 O 6153.53 -1.59306 -0.704775 0
M  V30 65052 C 6150.66 -3.16135 -1.2756 0
M  V30 65053 H 6151.85 -2.95346 0.520622 0
M  V30 65054 H 6149.41 -1.53231 0.308195 0
M  V30 65055 H 6150.14 -2.53887 -2.01771 0
M  V30 65056 H 6149.93 -3.83688 -0.807849 0
M  V30 65057 H 6151.42 -3.77017 -1.79577 0
M  V30 65058 N 6151.85 -0.287636 -1.54953 0
M  V30 65059 C 6153.09 0.326577 -2.01774 0
M  V30 65060 C 6153.46 1.52109 -1.17162 0
M  V30 65061 O 6154.66 2.20577 -1.5362 0
M  V30 65062 C 6152.93 0.687125 -3.50733 0
M  V30 65063 S 6154.49 1.2861 -4.1953 0
M  V30 65064 H 6151.31 0.100948 -0.703797 0
M  V30 65065 H 6153.91 -0.412392 -1.91101 0
M  V30 65066 H 6152.61 -0.190926 -4.09956 0
M  V30 65067 H 6152.14 1.45723 -3.65415 0
M  V30 65068 H 6154.16 2.57435 -4.24195 0
M  V30 65069 N 6153.33 1.57593 -0.0151216 0
M  V30 65070 C 6154.56 1.95507 0.677106 0
M  V30 65071 C 6154.97 0.890859 1.66461 0
M  V30 65072 O 6154.33 -0.128754 1.82045 0
M  V30 65073 C 6154.38 3.33467 1.39577 0
M  V30 65074 O 6154.1 4.35805 0.447852 0
M  V30 65075 C 6155.6 3.85931 2.18111 0
M  V30 65076 H 6152.82 0.644233 0.187629 0
M  V30 65077 H 6155.37 2.04378 -0.0707329 0
M  V30 65078 H 6153.52 3.25858 2.09511 0
M  V30 65079 H 6153.94 5.15703 0.956575 0
M  V30 65080 H 6155.41 4.84847 2.6387 0
M  V30 65081 H 6155.89 3.19434 3.01428 0
M  V30 65082 H 6156.49 3.96764 1.53162 0
M  V30 65083 N 6154.81 -0.257849 1.55476 0
M  V30 65084 C 6156.09 -1.00959 1.67531 0
M  V30 65085 C 6156.47 -2.03762 0.551765 0
M  V30 65086 O 6155.81 -2.241 -0.446236 0
M  V30 65087 C 6156.02 -1.65279 3.07382 0
M  V30 65088 C 6157.37 -2.15875 3.65627 0
M  V30 65089 O 6158.4 -1.75239 3.10112 0
M  V30 65090 O 6157.25 -2.90455 4.62924 0
M  V30 65091 H 6154.35 -0.469242 0.680985 0
M  V30 65092 H 6156.89 -0.252503 1.67811 0
M  V30 65093 H 6155.67 -0.908635 3.80604 0
M  V30 65094 H 6155.29 -2.47635 3.11067 0
M  V30 65095 N 6156.29 -1.48668 -0.523038 0
M  V30 65096 C 6157.56 -1.4753 -1.2843 0
M  V30 65097 C 6157.94 -0.190793 -2.10236 0
M  V30 65098 O 6157.29 0.827348 -2.12996 0
M  V30 65099 C 6157.5 -2.7414 -2.15983 0
M  V30 65100 C 6158.85 -3.22749 -2.75896 0
M  V30 65101 O 6159.87 -2.75105 -2.26265 0
M  V30 65102 O 6158.73 -4.0567 -3.66189 0
M  V30 65103 H 6155.83 -0.589498 -0.580018 0
M  V30 65104 H 6158.37 -1.60909 -0.53912 0
M  V30 65105 H 6157.14 -3.59135 -1.55363 0
M  V30 65106 H 6156.77 -2.63515 -2.97734 0
M  V30 65107 N 6157.76 0.772441 -1.37372 0
M  V30 65108 C 6158.71 1.90709 -1.33165 0
M  V30 65109 C 6159.71 1.67958 -0.220542 0
M  V30 65110 O 6160.91 1.75757 -0.388527 0
M  V30 65111 H 6157.29 0.627134 -0.414978 0
M  V30 65112 H 6159.26 1.91374 -2.28951 0
M  V30 65113 C 6158.01 3.27962 -1.15481 0
M  V30 65114 H 6157.33 3.46045 -2.00233 0
M  V30 65115 H 6158.77 4.07656 -1.16588 0
M  V30 65116 C 6157.23 3.36611 0.13957 0
M  V30 65117 O 6157.76 3.85672 1.12339 0
M  V30 65118 N 6155.97 2.89978 0.190032 0
M  V30 65119 H 6155.51 2.50244 -0.611222 0
M  V30 65120 H 6155.47 2.96145 1.05571 0
M  V30 65121 N 6159.24 1.21931 0.998532 0
M  V30 65122 C 6160.21 0.985816 2.06916 0
M  V30 65123 C 6161.21 -0.0456342 1.60735 0
M  V30 65124 O 6162.4 0.192302 1.73135 0
M  V30 65125 C 6159.53 0.487908 3.3739 0
M  V30 65126 H 6160.72 1.93571 2.29064 0
M  V30 65127 H 6158.27 1.0372 1.16927 0
M  V30 65128 H 6159.01 -0.46661 3.20926 0
M  V30 65129 H 6158.79 1.23199 3.72242 0
M  V30 65130 H 6160.28 0.344615 4.16176 0
M  V30 65131 N 6160.72 -1.19449 1.02809 0
M  V30 65132 C 6161.65 -2.24873 0.628831 0
M  V30 65133 C 6162.63 -1.66208 -0.361785 0
M  V30 65134 O 6163.82 -1.92652 -0.244675 0
M  V30 65135 C 6160.95 -3.47293 -0.0219733 0
M  V30 65136 C 6159.9 -4.18626 0.89084 0
M  V30 65137 C 6159.23 -5.34597 0.105185 0
M  V30 65138 C 6160.53 -4.7351 2.20421 0
M  V30 65139 H 6162.22 -2.58525 1.51014 0
M  V30 65140 H 6159.77 -1.24268 0.727562 0
M  V30 65141 H 6161.72 -4.20237 -0.312925 0
M  V30 65142 H 6160.44 -3.12838 -0.938072 0
M  V30 65143 H 6159.1 -3.47564 1.16598 0
M  V30 65144 H 6158.75 -4.96388 -0.812923 0
M  V30 65145 H 6158.45 -5.83256 0.713188 0
M  V30 65146 H 6159.97 -6.10337 -0.179045 0
M  V30 65147 H 6161.39 -5.38213 1.97484 0
M  V30 65148 H 6159.79 -5.32653 2.76407 0
M  V30 65149 H 6160.86 -3.9162 2.8594 0
M  V30 65150 N 6162.2 -0.805853 -1.35439 0
M  V30 65151 C 6163.16 -0.221358 -2.28129 0
M  V30 65152 C 6164.16 0.590867 -1.49551 0
M  V30 65153 O 6165.35 0.409458 -1.69319 0
M  V30 65154 C 6162.48 0.691526 -3.33812 0
M  V30 65155 H 6163.68 -1.03885 -2.81332 0
M  V30 65156 H 6161.23 -0.576451 -1.45282 0
M  V30 65157 H 6161.96 1.53273 -2.85793 0
M  V30 65158 H 6161.75 0.110834 -3.91943 0
M  V30 65159 H 6163.24 1.09482 -4.02993 0
M  V30 65160 N 6163.68 1.47342 -0.559291 0
M  V30 65161 C 6164.91 2.0656 -0.0408746 0
M  V30 65162 C 6165.32 1.41212 1.2592 0
M  V30 65163 O 6164.66 0.503395 1.76668 0
M  V30 65164 C 6164.72 3.58804 0.223516 0
M  V30 65165 C 6164.38 4.46205 -0.987432 0
M  V30 65166 C 6165.38 4.84191 -1.89353 0
M  V30 65167 C 6163.07 4.87689 -1.20269 0
M  V30 65168 C 6165.06 5.62463 -2.99856 0
M  V30 65169 C 6162.75 5.65725 -2.31081 0
M  V30 65170 C 6163.75 6.03023 -3.20705 0
M  V30 65171 O 6163.43 6.79487 -4.29596 0
M  V30 65172 H 6163.17 0.674582 -0.0437645 0
M  V30 65173 H 6165.72 1.90304 -0.772894 0
M  V30 65174 H 6163.95 3.73281 1.00987 0
M  V30 65175 H 6165.64 4.00034 0.687568 0
M  V30 65176 H 6166.4 4.5274 -1.73929 0
M  V30 65177 H 6162.28 4.58123 -0.51426 0
M  V30 65178 H 6165.83 5.91495 -3.69838 0
M  V30 65179 H 6161.72 5.9659 -2.46477 0
M  V30 65180 H 6162.49 6.97883 -4.2767 0
M  V30 65181 N 6165.16 0.295849 1.54798 0
M  V30 65182 C 6166.39 -0.31723 2.0415 0
M  V30 65183 C 6166.79 -1.48459 1.17289 0
M  V30 65184 O 6166.14 -1.82714 0.190043 0
M  V30 65185 C 6166.2 -0.841118 3.49522 0
M  V30 65186 C 6165.86 0.200294 4.56561 0
M  V30 65187 C 6166.86 1.02698 5.09656 0
M  V30 65188 C 6164.54 0.340509 5.01145 0
M  V30 65189 C 6166.54 1.97987 6.05871 0
M  V30 65190 C 6164.23 1.29685 5.97181 0
M  V30 65191 C 6165.22 2.11502 6.49427 0
M  V30 65192 O 6164.91 3.05516 7.43583 0
M  V30 65193 H 6164.64 -0.0736443 0.671977 0
M  V30 65194 H 6167.2 0.431876 2.00808 0
M  V30 65195 H 6165.43 -1.64066 3.5017 0
M  V30 65196 H 6167.12 -1.36952 3.82098 0
M  V30 65197 H 6167.88 0.929498 4.7601 0
M  V30 65198 H 6163.76 -0.286364 4.6011 0
M  V30 65199 H 6167.31 2.61888 6.46576 0
M  V30 65200 H 6163.2 1.39508 6.30244 0
M  V30 65201 H 6163.97 3.00435 7.61368 0
M  V30 65202 N 6166.63 -1.57583 0.023479 0
M  V30 65203 C 6167.58 -2.11026 -0.978305 0
M  V30 65204 C 6168.58 -1.03553 -1.34064 0
M  V30 65205 O 6169.78 -1.21995 -1.32353 0
M  V30 65206 H 6166.16 -0.674131 -0.333243 0
M  V30 65207 H 6168.13 -2.94144 -0.502198 0
M  V30 65208 C 6166.88 -2.64789 -2.25348 0
M  V30 65209 H 6166.2 -3.47132 -1.98341 0
M  V30 65210 H 6167.64 -3.05836 -2.93667 0
M  V30 65211 C 6166.1 -1.57273 -2.97938 0
M  V30 65212 O 6166.63 -0.969261 -3.89831 0
M  V30 65213 N 6164.83 -1.29452 -2.60174 0
M  V30 65214 H 6164.38 -1.78712 -1.85525 0
M  V30 65215 H 6164.34 -0.577384 -3.09053 0
M  V30 65216 N 6168.11 0.2496 -1.55611 0
M  V30 65217 C 6169.34 0.995643 -1.81369 0
M  V30 65218 C 6169.75 1.79052 -0.59883 0
M  V30 65219 O 6169.11 1.77302 0.432476 0
M  V30 65220 C 6169.16 1.93567 -3.0531 0
M  V30 65221 O 6168.88 1.17296 -4.22106 0
M  V30 65222 C 6170.38 2.79792 -3.43848 0
M  V30 65223 H 6167.6 0.293097 -0.603602 0
M  V30 65224 H 6170.15 0.273302 -2.02666 0
M  V30 65225 H 6168.3 2.61232 -2.86071 0
M  V30 65226 H 6168.72 1.80857 -4.92332 0
M  V30 65227 H 6170.19 3.41504 -4.3368 0
M  V30 65228 H 6170.67 3.50766 -2.6431 0
M  V30 65229 H 6171.27 2.17583 -3.65428 0
M  V30 65230 N 6169.59 1.48943 0.515146 0
M  V30 65231 C 6170.82 1.614 1.29451 0
M  V30 65232 C 6171.23 0.279913 1.86713 0
M  V30 65233 O 6170.59 -0.732802 1.67141 0
M  V30 65234 C 6170.64 2.67203 2.43485 0
M  V30 65235 O 6170.36 3.95436 1.88579 0
M  V30 65236 C 6171.86 2.90236 3.35079 0
M  V30 65237 H 6169.08 0.543768 0.393138 0
M  V30 65238 H 6171.63 1.94877 0.619927 0
M  V30 65239 H 6169.78 2.36543 3.068 0
M  V30 65240 H 6170.2 4.53602 2.63335 0
M  V30 65241 H 6171.67 3.68033 4.11407 0
M  V30 65242 H 6172.15 1.99615 3.91217 0
M  V30 65243 H 6172.75 3.22257 2.77544 0
M  V30 65244 N 6171.07 -0.765145 1.3778 0
M  V30 65245 C 6172.01 -1.87861 1.34077 0
M  V30 65246 C 6172.98 -1.64827 0.205212 0
M  V30 65247 O 6174.17 -1.86653 0.395621 0
M  V30 65248 C 6171.31 -3.25014 1.16018 0
M  V30 65249 C 6170.42 -3.59957 2.38861 0
M  V30 65250 C 6169.56 -4.86353 2.13622 0
M  V30 65251 C 6168.6 -5.14048 3.32297 0
M  V30 65252 N 6167.73 -6.31634 3.06567 0
M  V30 65253 H 6172.57 -1.90361 2.29274 0
M  V30 65254 H 6170.11 -0.930585 1.13923 0
M  V30 65255 H 6172.07 -4.04141 1.03566 0
M  V30 65256 H 6170.7 -3.21872 0.244653 0
M  V30 65257 H 6169.75 -2.75763 2.62028 0
M  V30 65258 H 6171.06 -3.76358 3.27347 0
M  V30 65259 H 6170.22 -5.73399 1.9824 0
M  V30 65260 H 6168.96 -4.72069 1.22484 0
M  V30 65261 H 6167.96 -4.25475 3.48211 0
M  V30 65262 H 6169.19 -5.30236 4.24295 0
M  V30 65263 H 6167.13 -6.18695 2.18065 0
M  V30 65264 H 6167.05 -6.48481 3.88598 0
M  V30 65265 H 6168.32 -7.21598 2.94816 0
M  V30 65266 N 6172.55 -1.22459 -0.992051 0
M  V30 65267 C 6173.79 -1.04758 -1.7283 0
M  V30 65268 C 6174.11 0.418085 -1.90465 0
M  V30 65269 O 6173.38 1.30067 -1.46491 0
M  V30 65270 H 6171.96 -0.384649 -0.640355 0
M  V30 65271 H 6174.63 -1.53984 -1.19477 0
M  V30 65272 H 6173.72 -1.52611 -2.72243 0
M  V30 65273 N 6174.02 1.18902 -1.03441 0
M  V30 65274 C 6175.27 1.88352 -0.732664 0
M  V30 65275 C 6175.59 1.80356 0.74141 0
M  V30 65276 O 6174.86 1.2177 1.53457 0
M  V30 65277 H 6173.44 0.697262 -0.26802 0
M  V30 65278 H 6176.1 1.44324 -1.30983 0
M  V30 65279 H 6175.2 2.94547 -1.03191 0
M  V30 65280 N 6175.5 0.813024 1.3501 0
M  V30 65281 C 6176.92 0.497551 1.51646 0
M  V30 65282 C 6177.12 -0.980101 1.76058 0
M  V30 65283 O 6176.17 -1.76492 1.80574 0
M  V30 65284 C 6177.49 1.3485 2.68768 0
M  V30 65285 C 6179.03 1.3446 2.82647 0
M  V30 65286 C 6179.51 2.17981 4.02801 0
M  V30 65287 N 6181 2.15551 4.0999 0
M  V30 65288 C 6181.74 2.7693 5.02093 0
M  V30 65289 N 6181.23 3.4726 5.99485 0
M  V30 65290 N 6183.02 2.66537 4.94888 0
M  V30 65291 H 6175.18 1.76991 1.17422 0
M  V30 65292 H 6177.44 0.753674 0.575047 0
M  V30 65293 H 6177.14 2.39741 2.57327 0
M  V30 65294 H 6177.02 1.00623 3.63531 0
M  V30 65295 H 6179.41 0.303512 2.93535 0
M  V30 65296 H 6179.49 1.72678 1.88722 0
M  V30 65297 H 6179.13 3.22133 3.92673 0
M  V30 65298 H 6179.06 1.77119 4.9592 0
M  V30 65299 H 6181.55 1.64385 3.40274 0
M  V30 65300 H 6181.86 3.91365 6.66374 0
M  V30 65301 H 6180.21 3.51365 5.99639 0
M  V30 65302 H 6183.4 2.11175 4.17759 0
M  V30 65303 H 6183.57 3.14659 5.66475 0
M  V30 65304 N 6176.98 -1.47043 0.567097 0
M  V30 65305 C 6178.23 -2.02446 0.046751 0
M  V30 65306 C 6178.55 -1.44037 -1.30705 0
M  V30 65307 O 6177.81 -0.589326 -1.86616 0
M  V30 65308 C 6178.11 -3.57298 -0.0854498 0
M  V30 65309 C 6177.77 -4.34674 1.19873 0
M  V30 65310 C 6176.44 -4.55533 1.55059 0
M  V30 65311 C 6178.79 -4.79223 2.04926 0
M  V30 65312 C 6176.12 -5.18191 2.75126 0
M  V30 65313 C 6178.47 -5.43207 3.24205 0
M  V30 65314 C 6177.13 -5.62297 3.59692 0
M  V30 65315 H 6176.4 -0.740802 0.0171074 0
M  V30 65316 H 6179.05 -1.766 0.740598 0
M  V30 65317 H 6177.35 -3.82193 -0.862329 0
M  V30 65318 H 6179.05 -3.97826 -0.50357 0
M  V30 65319 H 6175.64 -4.18724 0.91478 0
M  V30 65320 H 6179.83 -4.62877 1.79048 0
M  V30 65321 H 6175.08 -5.31164 3.02778 0
M  V30 65322 H 6179.26 -5.76688 3.9039 0
M  V30 65323 H 6176.88 -6.1062 4.52822 0
M  V30 65324 N 6178.46 -0.304054 -1.54639 0
M  V30 65325 C 6179.7 0.304774 -2.00497 0
M  V30 65326 C 6180.04 1.53304 -1.19212 0
M  V30 65327 O 6179.31 1.92626 -0.269373 0
M  V30 65328 C 6179.6 0.658337 -3.54031 0
M  V30 65329 C 6179.45 -0.579282 -4.46054 0
M  V30 65330 C 6180.77 1.48366 -4.14338 0
M  V30 65331 H 6177.89 0.109301 -0.72885 0
M  V30 65332 H 6180.53 -0.41676 -1.85373 0
M  V30 65333 H 6178.68 1.27307 -3.67049 0
M  V30 65334 H 6180.35 -1.21774 -4.44937 0
M  V30 65335 H 6178.59 -1.21194 -4.16527 0
M  V30 65336 H 6179.26 -0.287712 -5.5125 0
M  V30 65337 H 6181.74 0.964224 -4.04774 0
M  V30 65338 H 6180.62 1.69982 -5.21917 0
M  V30 65339 H 6180.88 2.47381 -3.66408 0
M  V30 65340 N 6179.94 1.57568 -0.0318356 0
M  V30 65341 C 6180.87 2.13415 0.947424 0
M  V30 65342 C 6181.85 1.05095 1.3375 0
M  V30 65343 O 6183.03 1.32941 1.41564 0
M  V30 65344 C 6180.16 2.66345 2.22885 0
M  V30 65345 C 6179.12 3.79476 1.97945 0
M  V30 65346 C 6178.44 4.18844 3.32376 0
M  V30 65347 C 6179.74 5.05437 1.31646 0
M  V30 65348 H 6181.44 2.9549 0.482313 0
M  V30 65349 H 6178.98 1.42142 0.230553 0
M  V30 65350 H 6180.94 3.04049 2.91774 0
M  V30 65351 H 6179.66 1.81435 2.71567 0
M  V30 65352 H 6178.32 3.42214 1.31473 0
M  V30 65353 H 6177.97 3.30913 3.78822 0
M  V30 65354 H 6177.67 4.95082 3.16493 0
M  V30 65355 H 6179.19 4.59134 4.02528 0
M  V30 65356 H 6180.6 5.40711 1.90539 0
M  V30 65357 H 6179 5.8669 1.26152 0
M  V30 65358 H 6180.07 4.84033 0.289789 0
M  V30 65359 N 6181.41 -0.241344 1.55741 0
M  V30 65360 C 6182.38 -1.2823 1.89973 0
M  V30 65361 C 6183.38 -1.40802 0.776631 0
M  V30 65362 O 6184.57 -1.39407 1.04458 0
M  V30 65363 C 6181.7 -2.65918 2.13308 0
M  V30 65364 H 6182.89 -0.990911 2.83056 0
M  V30 65365 H 6180.45 -0.480886 1.48718 0
M  V30 65366 H 6181.18 -3.00187 1.22711 0
M  V30 65367 H 6180.97 -2.58174 2.95108 0
M  V30 65368 H 6182.46 -3.41072 2.40956 0
M  V30 65369 N 6182.89 -1.49214 -0.50724 0
M  V30 65370 C 6183.82 -1.68332 -1.61823 0
M  V30 65371 C 6184.8 -0.532026 -1.61566 0
M  V30 65372 O 6185.99 -0.767166 -1.78405 0
M  V30 65373 C 6183.12 -1.74405 -3.00333 0
M  V30 65374 C 6182.07 -2.89262 -3.15455 0
M  V30 65375 C 6181.4 -2.80442 -4.55254 0
M  V30 65376 C 6182.7 -4.30279 -2.96069 0
M  V30 65377 H 6184.39 -2.61346 -1.46078 0
M  V30 65378 H 6181.94 -1.25767 -0.701323 0
M  V30 65379 H 6183.89 -1.86366 -3.77949 0
M  V30 65380 H 6182.62 -0.77986 -3.17153 0
M  V30 65381 H 6181.27 -2.76893 -2.40262 0
M  V30 65382 H 6180.92 -1.81944 -4.68941 0
M  V30 65383 H 6180.62 -3.57527 -4.66313 0
M  V30 65384 H 6182.15 -2.94403 -5.34939 0
M  V30 65385 H 6183.56 -4.43362 -3.63459 0
M  V30 65386 H 6181.96 -5.08538 -3.18605 0
M  V30 65387 H 6183.03 -4.45158 -1.92256 0
M  V30 65388 N 6184.37 0.757827 -1.38184 0
M  V30 65389 C 6185.3 1.88514 -1.37785 0
M  V30 65390 C 6186.28 1.68335 -0.244379 0
M  V30 65391 O 6187.47 1.8899 -0.446829 0
M  V30 65392 C 6184.6 3.25985 -1.19795 0
M  V30 65393 C 6183.55 3.60756 -2.30302 0
M  V30 65394 C 6182.88 4.9692 -1.97421 0
M  V30 65395 C 6184.18 3.66069 -3.72546 0
M  V30 65396 H 6185.87 1.89104 -2.3212 0
M  V30 65397 H 6183.42 0.908403 -1.11732 0
M  V30 65398 H 6185.37 4.045 -1.18143 0
M  V30 65399 H 6184.09 3.25864 -0.219202 0
M  V30 65400 H 6182.75 2.84558 -2.31133 0
M  V30 65401 H 6182.4 4.93353 -0.980403 0
M  V30 65402 H 6182.1 5.21153 -2.71428 0
M  V30 65403 H 6183.62 5.77818 -1.97379 0
M  V30 65404 H 6185.04 4.34706 -3.73769 0
M  V30 65405 H 6183.44 4.01809 -4.45724 0
M  V30 65406 H 6184.51 2.66397 -4.05167 0
M  V30 65407 N 6185.85 1.22983 0.985543 0
M  V30 65408 C 6187.07 1.08622 1.76681 0
M  V30 65409 C 6187.5 -0.358525 1.84652 0
M  V30 65410 O 6186.86 -1.2592 1.30437 0
M  V30 65411 C 6186.9 1.7105 3.1745 0
M  V30 65412 O 6186.01 0.969159 4.0085 0
M  V30 65413 H 6185.35 0.381049 0.543781 0
M  V30 65414 H 6187.88 1.62932 1.23752 0
M  V30 65415 H 6187.89 1.76077 3.6805 0
M  V30 65416 H 6186.56 2.76179 3.10963 0
M  V30 65417 H 6185.14 0.995444 3.59368 0
M  V30 65418 N 6187.33 -1.18352 1.04071 0
M  V30 65419 C 6188.6 -1.84188 0.658345 0
M  V30 65420 C 6188.98 -1.92691 -0.862171 0
M  V30 65421 O 6188.33 -1.45286 -1.76364 0
M  V30 65422 C 6188.54 -3.2249 1.33421 0
M  V30 65423 C 6189.89 -3.98525 1.46503 0
M  V30 65424 O 6190.91 -3.3193 1.29232 0
M  V30 65425 O 6189.77 -5.17842 1.74647 0
M  V30 65426 H 6186.87 -0.79427 0.230357 0
M  V30 65427 H 6189.41 -1.25743 1.1396 0
M  V30 65428 H 6188.18 -3.11204 2.37208 0
M  V30 65429 H 6187.81 -3.88591 0.841585 0
M  V30 65430 N 6188.8 -0.820173 -1.34577 0
M  V30 65431 C 6189.73 -0.254791 -2.32106 0
M  V30 65432 C 6190.72 0.627244 -1.58113 0
M  V30 65433 O 6191.9 0.554694 -1.8611 0
M  V30 65434 C 6189.03 0.58642 -3.42313 0
M  V30 65435 C 6187.98 -0.198247 -4.27541 0
M  V30 65436 C 6187.31 0.765532 -5.29192 0
M  V30 65437 C 6188.61 -1.40489 -5.03051 0
M  V30 65438 H 6190.3 -1.06965 -2.79641 0
M  V30 65439 H 6187.85 -0.515804 -1.34445 0
M  V30 65440 H 6189.8 0.992115 -4.09555 0
M  V30 65441 H 6188.53 1.4343 -2.9342 0
M  V30 65442 H 6187.19 -0.585276 -3.61898 0
M  V30 65443 H 6186.83 1.60929 -4.76562 0
M  V30 65444 H 6186.53 0.244747 -5.8709 0
M  V30 65445 H 6188.06 1.16914 -5.99302 0
M  V30 65446 H 6189.47 -1.07336 -5.63162 0
M  V30 65447 H 6187.87 -1.86113 -5.7051 0
M  V30 65448 H 6188.94 -2.18452 -4.32905 0
M  V30 65449 N 6190.28 1.46741 -0.574887 0
M  V30 65450 C 6191.21 2.28321 0.20054 0
M  V30 65451 C 6192.23 1.38053 0.86285 0
M  V30 65452 O 6193.42 1.62723 0.733728 0
M  V30 65453 C 6190.52 3.12855 1.30289 0
M  V30 65454 C 6189.69 4.31197 0.734001 0
M  V30 65455 C 6188.75 4.97189 1.72306 0
M  V30 65456 O 6187.77 5.55029 1.2622 0
M  V30 65457 N 6188.98 4.93487 3.05697 0
M  V30 65458 H 6191.74 2.95511 -0.499335 0
M  V30 65459 H 6189.3 1.56567 -0.412132 0
M  V30 65460 H 6191.29 3.53868 1.96366 0
M  V30 65461 H 6189.86 2.47791 1.90574 0
M  V30 65462 H 6189.08 3.94063 -0.104026 0
M  V30 65463 H 6190.37 5.07705 0.333573 0
M  V30 65464 H 6189.77 4.47727 3.4577 0
M  V30 65465 H 6188.33 5.38466 3.67285 0
M  V30 65466 N 6191.76 0.312251 1.54476 0
M  V30 65467 C 6193.04 -0.347394 1.9249 0
M  V30 65468 C 6193.42 -1.70793 1.24069 0
M  V30 65469 O 6192.77 -2.25312 0.380376 0
M  V30 65470 C 6192.98 -0.450871 3.46075 0
M  V30 65471 C 6194.32 -0.716471 4.18511 0
M  V30 65472 O 6195.35 -0.534241 3.52171 0
M  V30 65473 O 6194.21 -1.06725 5.35978 0
M  V30 65474 H 6191.3 -0.19622 0.803385 0
M  V30 65475 H 6193.85 0.361136 1.65813 0
M  V30 65476 H 6192.62 0.505119 3.88026 0
M  V30 65477 H 6192.24 -1.20743 3.78823 0
M  V30 65478 N 6193.24 -1.57549 0.0401914 0
M  V30 65479 C 6194.17 -2.13915 -0.936093 0
M  V30 65480 C 6195.15 -1.05803 -1.33191 0
M  V30 65481 O 6196.34 -1.3369 -1.40857 0
M  V30 65482 C 6193.47 -2.67523 -2.2147 0
M  V30 65483 C 6192.42 -3.8052 -1.95929 0
M  V30 65484 C 6191.75 -4.20601 -3.3015 0
M  V30 65485 C 6193.05 -5.06128 -1.28964 0
M  V30 65486 H 6194.74 -2.95741 -0.466636 0
M  V30 65487 H 6192.29 -1.42263 -0.223012 0
M  V30 65488 H 6194.24 -3.05592 -2.90157 0
M  V30 65489 H 6192.96 -1.82873 -2.70601 0
M  V30 65490 H 6191.62 -3.42906 -1.29657 0
M  V30 65491 H 6191.27 -3.32917 -3.77061 0
M  V30 65492 H 6190.97 -4.96753 -3.13863 0
M  V30 65493 H 6192.49 -4.61262 -4.00087 0
M  V30 65494 H 6193.91 -5.41713 -1.87668 0
M  V30 65495 H 6192.3 -5.87351 -1.23039 0
M  V30 65496 H 6193.37 -4.8418 -0.264116 0
M  V30 65497 N 6194.72 0.233081 -1.55867 0
M  V30 65498 C 6195.66 1.28875 -1.91467 0
M  V30 65499 C 6196.63 1.47149 -0.770486 0
M  V30 65500 O 6197.82 1.60906 -1.02537 0
M  V30 65501 C 6194.96 2.63645 -2.22678 0
M  V30 65502 C 6194.07 2.53266 -3.49972 0
M  V30 65503 C 6193.21 3.80481 -3.70685 0
M  V30 65504 C 6192.25 3.64776 -4.91533 0
M  V30 65505 N 6191.38 4.83915 -5.08695 0
M  V30 65506 H 6196.22 0.978152 -2.81489 0
M  V30 65507 H 6193.76 0.471708 -1.39332 0
M  V30 65508 H 6195.72 3.42111 -2.38781 0
M  V30 65509 H 6194.35 2.92825 -1.35843 0
M  V30 65510 H 6193.4 1.66296 -3.42126 0
M  V30 65511 H 6194.71 2.37577 -4.38587 0
M  V30 65512 H 6193.87 4.6739 -3.86822 0
M  V30 65513 H 6192.61 3.99083 -2.80329 0
M  V30 65514 H 6191.61 2.76251 -4.75358 0
M  V30 65515 H 6192.84 3.47657 -5.83362 0
M  V30 65516 H 6190.78 5.02851 -4.2128 0
M  V30 65517 H 6190.7 4.70909 -5.91423 0
M  V30 65518 H 6191.97 5.72283 -5.29256 0
M  V30 65519 N 6196.2 1.49481 0.49932 0
M  V30 65520 C 6197.44 1.60262 1.25251 0
M  V30 65521 C 6197.8 0.286404 1.90256 0
M  V30 65522 O 6197.09 -0.713505 1.77819 0
M  V30 65523 C 6197.28 2.70015 2.34151 0
M  V30 65524 C 6197.11 4.12181 1.79825 0
M  V30 65525 C 6195.88 4.78947 1.61051 0
M  V30 65526 C 6198.08 4.97359 1.30915 0
M  V30 65527 N 6196.06 6.05422 1.01672 0
M  V30 65528 C 6197.43 6.14327 0.836809 0
M  V30 65529 C 6199.49 4.83346 1.19504 0
M  V30 65530 C 6198.19 7.18824 0.261641 0
M  V30 65531 C 6200.22 5.87994 0.63384 0
M  V30 65532 C 6199.58 7.04191 0.171733 0
M  V30 65533 H 6195.68 0.640793 0.448227 0
M  V30 65534 H 6198.26 1.86493 0.559328 0
M  V30 65535 H 6196.43 2.45554 3.00928 0
M  V30 65536 H 6198.17 2.70308 3.0119 0
M  V30 65537 H 6194.92 4.35774 1.85467 0
M  V30 65538 H 6195.34 6.72954 0.739043 0
M  V30 65539 H 6199.99 3.93823 1.5383 0
M  V30 65540 H 6197.7 8.08045 -0.0938794 0
M  V30 65541 H 6201.29 5.79211 0.548302 0
M  V30 65542 H 6200.17 7.83783 -0.255742 0
M  V30 65543 N 6197.67 -0.750488 1.38584 0
M  V30 65544 C 6198.64 -1.84594 1.35859 0
M  V30 65545 C 6199.64 -1.58708 0.258517 0
M  V30 65546 O 6200.83 -1.66395 0.515579 0
M  V30 65547 C 6197.96 -3.22121 1.11585 0
M  V30 65548 H 6199.15 -1.88418 2.33321 0
M  V30 65549 H 6196.7 -0.95252 1.23922 0
M  V30 65550 H 6197.44 -3.23965 0.147409 0
M  V30 65551 H 6197.22 -3.42304 1.91233 0
M  V30 65552 H 6198.71 -4.02194 1.12381 0
M  V30 65553 N 6199.15 -1.23504 -0.979007 0
M  V30 65554 C 6200.57 -0.997992 -1.24548 0
M  V30 65555 C 6200.77 0.300069 -1.99253 0
M  V30 65556 O 6199.82 1.01915 -2.31019 0
M  V30 65557 C 6201.14 -2.20578 -2.04367 0
M  V30 65558 C 6202.68 -2.25083 -2.17501 0
M  V30 65559 C 6203.16 -3.45451 -3.00712 0
M  V30 65560 N 6204.65 -3.45699 -3.08296 0
M  V30 65561 C 6205.39 -4.35491 -3.73009 0
M  V30 65562 N 6204.88 -5.35521 -4.39533 0
M  V30 65563 N 6206.67 -4.23231 -3.69908 0
M  V30 65564 H 6198.83 -2.06938 -0.478576 0
M  V30 65565 H 6201.09 -0.907524 -0.274052 0
M  V30 65566 H 6200.79 -3.14786 -1.56851 0
M  V30 65567 H 6200.67 -2.21776 -3.05115 0
M  V30 65568 H 6203.06 -1.31413 -2.64225 0
M  V30 65569 H 6203.14 -2.27916 -1.16138 0
M  V30 65570 H 6202.78 -4.39429 -2.54685 0
M  V30 65571 H 6202.71 -3.39859 -4.02248 0
M  V30 65572 H 6205.2 -2.73324 -2.60964 0
M  V30 65573 H 6205.51 -6.00291 -4.86694 0
M  V30 65574 H 6203.86 -5.3942 -4.38237 0
M  V30 65575 H 6207.05 -3.44326 -3.17107 0
M  V30 65576 H 6207.22 -4.93411 -4.20059 0
M  V30 65577 N 6200.63 1.17798 -1.04697 0
M  V30 65578 C 6201.88 1.87935 -0.75409 0
M  V30 65579 C 6202.2 1.80739 0.71858 0
M  V30 65580 O 6201.46 1.20663 1.54075 0
M  V30 65581 C 6201.76 3.37581 -1.17361 0
M  V30 65582 C 6201.42 3.64981 -2.64764 0
M  V30 65583 C 6200.09 3.72168 -3.05032 0
M  V30 65584 C 6202.44 3.76856 -3.6004 0
M  V30 65585 C 6199.77 3.88716 -4.3945 0
M  V30 65586 C 6202.12 3.94921 -4.94186 0
M  V30 65587 C 6200.78 4.00346 -5.34115 0
M  V30 65588 H 6200.05 0.687705 -0.275941 0
M  V30 65589 H 6202.7 1.39387 -1.31314 0
M  V30 65590 H 6201 3.88151 -0.533469 0
M  V30 65591 H 6202.7 3.90203 -0.924271 0
M  V30 65592 H 6199.29 3.60008 -2.32578 0
M  V30 65593 H 6203.48 3.70629 -3.30073 0
M  V30 65594 H 6198.73 3.91162 -4.69896 0
M  V30 65595 H 6202.91 4.03052 -5.6791 0
M  V30 65596 H 6200.53 4.12921 -6.38279 0
M  V30 65597 N 6202.11 0.827298 1.3414 0
M  V30 65598 C 6203.52 0.475709 1.80538 0
M  V30 65599 C 6203.87 -1.00429 1.68548 0
M  V30 65600 O 6202.99 -1.78182 1.22802 0
M  V30 65601 C 6203.59 0.856703 3.2779 0
M  V30 65602 C 6202.15 0.55742 3.7225 0
M  V30 65603 C 6201.3 1.07127 2.55772 0
M  V30 65604 H 6204.25 1.01707 1.21825 0
M  V30 65605 H 6204.27 0.162193 3.80154 0
M  V30 65606 H 6203.78 1.93391 3.36484 0
M  V30 65607 H 6201.88 -0.510198 3.6909 0
M  V30 65608 H 6201.99 1.10455 4.66194 0
M  V30 65609 H 6200.36 0.492622 2.49891 0
M  V30 65610 H 6201.14 2.15501 2.67234 0
M  V30 65611 N 6203.59 -1.46434 0.582661 0
M  V30 65612 C 6204.53 -2.30308 -0.150616 0
M  V30 65613 C 6205.5 -1.40614 -0.884135 0
M  V30 65614 O 6206.69 -1.69563 -0.874814 0
M  V30 65615 C 6203.83 -3.25079 -1.15836 0
M  V30 65616 C 6202.94 -4.29872 -0.428291 0
M  V30 65617 C 6202.08 -5.1177 -1.42355 0
M  V30 65618 C 6201.11 -6.08312 -0.679889 0
M  V30 65619 N 6200.25 -6.83079 -1.62321 0
M  V30 65620 H 6205.09 -2.92484 0.570686 0
M  V30 65621 H 6202.63 -1.44147 0.293245 0
M  V30 65622 H 6204.59 -3.78468 -1.75549 0
M  V30 65623 H 6203.22 -2.64711 -1.84738 0
M  V30 65624 H 6202.27 -3.79339 0.283878 0
M  V30 65625 H 6203.58 -4.98565 0.153085 0
M  V30 65626 H 6202.73 -5.69436 -2.09349 0
M  V30 65627 H 6201.47 -4.43037 -2.03886 0
M  V30 65628 H 6200.48 -5.498 0.00382395 0
M  V30 65629 H 6201.7 -6.79064 -0.0699765 0
M  V30 65630 H 6199.65 -6.17056 -2.22662 0
M  V30 65631 H 6199.57 -7.48033 -1.09464 0
M  V30 65632 H 6200.83 -7.45303 -2.2835 0
M  V30 65633 N 6205.06 -0.320439 -1.54308 0
M  V30 65634 C 6206.29 0.287868 -2.05392 0
M  V30 65635 C 6206.71 1.45245 -1.19522 0
M  V30 65636 O 6206.07 1.80153 -0.203619 0
M  V30 65637 C 6206.12 0.703137 -3.53678 0
M  V30 65638 O 6205.22 1.80585 -3.7076 0
M  V30 65639 H 6204.56 0.0525657 -0.661916 0
M  V30 65640 H 6207.09 -0.46794 -1.99177 0
M  V30 65641 H 6207.1 0.986654 -3.9589 0
M  V30 65642 H 6205.78 -0.14866 -4.15634 0
M  V30 65643 H 6204.36 1.52138 -3.40453 0
M  V30 65644 N 6206.54 1.57525 -0.048546 0
M  V30 65645 C 6207.82 1.83929 0.665546 0
M  V30 65646 C 6208.2 0.936426 1.89194 0
M  V30 65647 O 6207.55 -0.00318872 2.285 0
M  V30 65648 C 6207.76 3.33598 1.02534 0
M  V30 65649 C 6209.1 4.00549 1.40875 0
M  V30 65650 O 6210.13 3.38208 1.11775 0
M  V30 65651 O 6208.99 5.10461 1.95171 0
M  V30 65652 H 6206.08 0.759054 0.328278 0
M  V30 65653 H 6208.63 1.69522 -0.0777093 0
M  V30 65654 H 6207.4 3.91 0.153318 0
M  V30 65655 H 6207.02 3.53183 1.82612 0
M  V30 65656 N 6208.02 -0.224812 1.55988 0
M  V30 65657 C 6209.27 -0.947809 1.78496 0
M  V30 65658 C 6209.59 -1.84999 0.616478 0
M  V30 65659 O 6208.86 -1.92436 -0.366779 0
M  V30 65660 H 6207.44 -0.352964 0.65835 0
M  V30 65661 H 6210.1 -0.237451 1.93448 0
M  V30 65662 H 6209.2 -1.55654 2.70515 0
M  V30 65663 N 6209.5 -1.49744 -0.491385 0
M  V30 65664 C 6210.73 -1.63439 -1.26867 0
M  V30 65665 C 6211.14 -0.309582 -1.86245 0
M  V30 65666 O 6210.5 0.706118 -1.68286 0
M  V30 65667 C 6210.55 -2.71043 -2.39203 0
M  V30 65668 O 6210.27 -3.98386 -1.82264 0
M  V30 65669 C 6211.77 -2.9553 -3.30419 0
M  V30 65670 H 6208.99 -0.549953 -0.384438 0
M  V30 65671 H 6211.54 -1.95839 -0.588845 0
M  V30 65672 H 6209.69 -2.41394 -3.02998 0
M  V30 65673 H 6210.1 -4.57734 -2.56085 0
M  V30 65674 H 6211.58 -3.74531 -4.055 0
M  V30 65675 H 6212.06 -2.05814 -3.87991 0
M  V30 65676 H 6212.66 -3.26632 -2.72382 0
M  V30 65677 N 6210.98 0.743128 -1.3898 0
M  V30 65678 C 6212.22 1.49955 -1.35492 0
M  V30 65679 C 6212.55 1.94933 0.0511359 0
M  V30 65680 O 6211.82 1.68404 1.00084 0
M  V30 65681 H 6210.4 0.55626 -0.498582 0
M  V30 65682 H 6213.06 0.882715 -1.73765 0
M  V30 65683 H 6212.15 2.38552 -2.01245 0
M  V30 65684 N 6212.45 1.24021 0.972444 0
M  V30 65685 C 6213.68 1.10398 1.74985 0
M  V30 65686 C 6214.1 -0.343895 1.85642 0
M  V30 65687 O 6213.45 -1.23753 1.34132 0
M  V30 65688 C 6213.51 1.73258 3.17276 0
M  V30 65689 O 6213.23 3.12384 3.07161 0
M  V30 65690 C 6214.73 1.65182 4.11375 0
M  V30 65691 H 6211.95 0.385949 0.548894 0
M  V30 65692 H 6214.49 1.64033 1.22121 0
M  V30 65693 H 6212.65 1.23638 3.67141 0
M  V30 65694 H 6213.06 3.43011 3.96792 0
M  V30 65695 H 6214.53 2.13855 5.08891 0
M  V30 65696 H 6215.01 0.612133 4.34913 0
M  V30 65697 H 6215.62 2.14206 3.67418 0
M  V30 65698 N 6213.93 -1.17241 1.0532 0
M  V30 65699 C 6215.18 -1.86868 0.759159 0
M  V30 65700 C 6215.49 -1.81999 -0.716636 0
M  V30 65701 O 6216.7 -2.4711 -1.12468 0
M  V30 65702 C 6215.16 -3.35299 1.30778 0
M  V30 65703 C 6214.76 -3.48666 2.81311 0
M  V30 65704 C 6216.51 -4.10245 1.09084 0
M  V30 65705 C 6214.42 -4.91127 3.29467 0
M  V30 65706 H 6213.35 -0.699965 0.280294 0
M  V30 65707 H 6216 -1.32388 1.27065 0
M  V30 65708 H 6214.38 -3.89324 0.724092 0
M  V30 65709 H 6215.55 -3.04851 3.45546 0
M  V30 65710 H 6213.87 -2.87141 3.0156 0
M  V30 65711 H 6216.46 -5.15345 1.42563 0
M  V30 65712 H 6216.81 -4.1629 0.0286667 0
M  V30 65713 H 6217.34 -3.6243 1.6398 0
M  V30 65714 H 6214.08 -4.90256 4.3512 0
M  V30 65715 H 6213.6 -5.35606 2.69975 0
M  V30 65716 H 6215.28 -5.59902 3.24221 0
M  V30 65717 N 6215.41 -0.8344 -1.33699 0
M  V30 65718 C 6216.64 -0.44066 -2.01846 0
M  V30 65719 C 6217.05 0.961456 -1.6295 0
M  V30 65720 O 6216.39 1.63553 -0.836435 0
M  V30 65721 C 6216.45 -0.476522 -3.56328 0
M  V30 65722 C 6216.12 -1.83397 -4.18586 0
M  V30 65723 C 6217.11 -2.79654 -4.38281 0
M  V30 65724 C 6214.8 -2.12559 -4.55109 0
M  V30 65725 C 6216.79 -4.03237 -4.93638 0
M  V30 65726 C 6214.48 -3.364 -5.10175 0
M  V30 65727 C 6215.48 -4.31556 -5.29385 0
M  V30 65728 O 6215.17 -5.53207 -5.83281 0
M  V30 65729 H 6214.9 -0.173749 -0.65329 0
M  V30 65730 H 6217.45 -1.12726 -1.71703 0
M  V30 65731 H 6215.68 0.266833 -3.85778 0
M  V30 65732 H 6217.37 -0.101231 -4.05774 0
M  V30 65733 H 6218.14 -2.58423 -4.10418 0
M  V30 65734 H 6214.02 -1.39289 -4.39454 0
M  V30 65735 H 6217.56 -4.7752 -5.08548 0
M  V30 65736 H 6213.46 -3.57489 -5.37468 0
M  V30 65737 H 6214.23 -5.54885 -6.01701 0
M  V30 65738 N 6216.89 1.46123 -0.590418 0
M  V30 65739 C 6218.12 2.06726 -0.0848027 0
M  V30 65740 C 6218.53 1.43792 1.22349 0
M  V30 65741 O 6217.89 0.545937 1.74143 0
M  V30 65742 C 6217.94 3.61413 0.079528 0
M  V30 65743 O 6217.66 4.21994 -1.17699 0
M  V30 65744 C 6219.16 4.38963 0.6186 0
M  V30 65745 H 6216.38 0.668224 -0.0609759 0
M  V30 65746 H 6218.93 1.87633 -0.813278 0
M  V30 65747 H 6217.08 3.79907 0.758256 0
M  V30 65748 H 6217.49 5.14962 -0.995709 0
M  V30 65749 H 6218.97 5.47762 0.682734 0
M  V30 65750 H 6219.45 4.07543 1.63724 0
M  V30 65751 H 6220.05 4.25292 -0.0255127 0
M  V30 65752 N 6218.37 0.328618 1.54136 0
M  V30 65753 C 6219.28 -0.543842 2.28209 0
M  V30 65754 C 6220.29 -1.12485 1.32752 0
M  V30 65755 O 6221.47 -1.14374 1.65773 0
M  V30 65756 C 6218.53 -1.68629 3.02928 0
M  V30 65757 C 6217.59 -1.13657 4.13981 0
M  V30 65758 C 6216.83 -2.22457 4.85127 0
M  V30 65759 O 6217.05 -3.42898 4.55825 0
M  V30 65760 O 6215.98 -1.87591 5.71921 0
M  V30 65761 H 6219.81 0.0578669 3.03645 0
M  V30 65762 H 6217.4 0.0941419 1.49103 0
M  V30 65763 H 6219.28 -2.35131 3.49702 0
M  V30 65764 H 6217.95 -2.27409 2.30363 0
M  V30 65765 H 6216.86 -0.436494 3.71545 0
M  V30 65766 H 6218.19 -0.593841 4.88605 0
M  V30 65767 N 6219.84 -1.57497 0.0568993 0
M  V30 65768 C 6220.77 -2.14896 -0.913352 0
M  V30 65769 C 6221.76 -1.0721 -1.32061 0
M  V30 65770 O 6222.94 -1.35177 -1.39431 0
M  V30 65771 C 6220.07 -2.69857 -2.1862 0
M  V30 65772 C 6219.02 -3.82577 -1.91882 0
M  V30 65773 C 6218.35 -4.24079 -3.2567 0
M  V30 65774 C 6219.65 -5.07467 -1.23588 0
M  V30 65775 H 6221.34 -2.9622 -0.435243 0
M  V30 65776 H 6218.89 -1.42491 -0.20791 0
M  V30 65777 H 6220.84 -3.08653 -2.869 0
M  V30 65778 H 6219.57 -1.85733 -2.68646 0
M  V30 65779 H 6218.23 -3.44262 -1.26012 0
M  V30 65780 H 6217.87 -3.36898 -3.73509 0
M  V30 65781 H 6217.57 -5.00054 -3.08577 0
M  V30 65782 H 6219.1 -4.6548 -3.95172 0
M  V30 65783 H 6220.51 -5.43673 -1.81912 0
M  V30 65784 H 6218.91 -5.88623 -1.16802 0
M  V30 65785 H 6219.98 -4.84433 -0.212747 0
M  V30 65786 N 6221.32 0.216536 -1.56105 0
M  V30 65787 C 6222.23 1.28926 -1.95998 0
M  V30 65788 C 6223.25 1.51004 -0.864517 0
M  V30 65789 O 6224.42 1.64036 -1.16851 0
M  V30 65790 C 6221.49 2.61799 -2.27293 0
M  V30 65791 C 6220.55 2.4798 -3.50435 0
M  V30 65792 C 6219.78 3.74517 -3.80227 0
M  V30 65793 O 6220.01 4.77754 -3.11621 0
M  V30 65794 O 6218.94 3.71328 -4.73708 0
M  V30 65795 H 6222.77 0.980763 -2.87428 0
M  V30 65796 H 6220.35 0.419809 -1.4338 0
M  V30 65797 H 6222.23 3.40263 -2.48594 0
M  V30 65798 H 6220.91 2.92319 -1.39036 0
M  V30 65799 H 6219.82 1.67699 -3.34407 0
M  V30 65800 H 6221.15 2.22398 -4.3909 0
M  V30 65801 N 6222.8 1.50002 0.483437 0
M  V30 65802 C 6224.21 1.53372 1.0646 0
M  V30 65803 C 6224.56 0.330041 1.93404 0
M  V30 65804 O 6223.69 -0.558371 2.09072 0
M  V30 65805 C 6224.28 2.77934 1.93747 0
M  V30 65806 C 6222.84 2.84026 2.46995 0
M  V30 65807 C 6221.99 2.47511 1.25035 0
M  V30 65808 H 6224.94 1.56445 0.266578 0
M  V30 65809 H 6224.96 2.59091 2.78662 0
M  V30 65810 H 6224.47 3.65522 1.30441 0
M  V30 65811 H 6222.57 2.0076 3.13889 0
M  V30 65812 H 6222.69 3.86624 2.82946 0
M  V30 65813 H 6221.05 1.99675 1.5812 0
M  V30 65814 H 6221.83 3.37393 0.634106 0
M  V30 65815 N 6224.28 -0.735747 1.39372 0
M  V30 65816 C 6225.69 -1.31398 1.32633 0
M  V30 65817 C 6226.04 -1.96198 -0.00965938 0
M  V30 65818 O 6225.17 -1.96254 -0.911781 0
M  V30 65819 C 6225.76 -2.38925 2.40209 0
M  V30 65820 C 6224.32 -2.92423 2.36993 0
M  V30 65821 C 6223.47 -1.65985 2.22136 0
M  V30 65822 H 6226.42 -0.533311 1.49471 0
M  V30 65823 H 6226.44 -3.19297 2.06954 0
M  V30 65824 H 6225.95 -1.91733 3.37431 0
M  V30 65825 H 6224.05 -3.43898 1.43406 0
M  V30 65826 H 6224.17 -3.45589 3.31821 0
M  V30 65827 H 6222.53 -1.90292 1.69296 0
M  V30 65828 H 6223.31 -1.20846 3.21327 0
M  V30 65829 N 6225.76 -1.24535 -0.965853 0
M  V30 65830 C 6227 -1.09807 -1.724 0
M  V30 65831 C 6227.36 0.3567 -1.88657 0
M  V30 65832 O 6228.56 0.625534 -2.6142 0
M  V30 65833 C 6226.83 -1.81951 -3.07618 0
M  V30 65834 S 6228.39 -1.82976 -3.9883 0
M  V30 65835 H 6225.21 -0.392693 -0.592717 0
M  V30 65836 H 6227.81 -1.57893 -1.15283 0
M  V30 65837 H 6226.52 -2.86909 -2.93447 0
M  V30 65838 H 6226.05 -1.34206 -3.698 0
M  V30 65839 H 6228.06 -0.898756 -4.87993 0
M  V30 65840 N 6227.24 1.16681 -1.0594 0
M  V30 65841 C 6228.65 1.39119 -0.782179 0
M  V30 65842 C 6228.85 1.91722 0.620084 0
M  V30 65843 O 6227.91 2.11371 1.38125 0
M  V30 65844 C 6229.22 2.37516 -1.84409 0
M  V30 65845 C 6230.77 2.51207 -1.86719 0
M  V30 65846 C 6231.24 3.52884 -2.91954 0
M  V30 65847 N 6232.73 3.60408 -2.90965 0
M  V30 65848 C 6233.47 4.3886 -3.69039 0
M  V30 65849 N 6232.97 5.20764 -4.5692 0
M  V30 65850 N 6234.76 4.33807 -3.57446 0
M  V30 65851 H 6226.91 0.808712 -1.96402 0
M  V30 65852 H 6229.17 0.417978 -0.850881 0
M  V30 65853 H 6228.88 2.05952 -2.85091 0
M  V30 65854 H 6228.75 3.37117 -1.69209 0
M  V30 65855 H 6231.14 2.82077 -0.866974 0
M  V30 65856 H 6231.22 1.51654 -2.05997 0
M  V30 65857 H 6230.86 3.22751 -3.92166 0
M  V30 65858 H 6230.79 4.52159 -2.69926 0
M  V30 65859 H 6233.29 3.01937 -2.2725 0
M  V30 65860 H 6233.6 5.7783 -5.13159 0
M  V30 65861 H 6231.94 5.2012 -4.60978 0
M  V30 65862 H 6235.13 3.68878 -2.88178 0
M  V30 65863 H 6235.31 4.94703 -4.18537 0
M  V30 65864 N 6228.71 0.841479 1.33255 0
M  V30 65865 C 6229.96 0.438448 1.97696 0
M  V30 65866 C 6230.29 -1.00292 1.66649 0
M  V30 65867 O 6229.54 -1.71645 0.940025 0
M  V30 65868 C 6229.84 0.609045 3.52172 0
M  V30 65869 C 6229.51 2.0189 4.03177 0
M  V30 65870 C 6228.17 2.40453 4.16816 0
M  V30 65871 C 6230.52 2.93967 4.30387 0
M  V30 65872 C 6227.85 3.70392 4.55002 0
M  V30 65873 C 6230.2 4.2339 4.70026 0
M  V30 65874 C 6228.87 4.61905 4.81871 0
M  V30 65875 H 6228.14 0.160439 0.723423 0
M  V30 65876 H 6230.78 1.069 1.58885 0
M  V30 65877 H 6229.09 -0.104811 3.9166 0
M  V30 65878 H 6230.79 0.277454 4.00039 0
M  V30 65879 H 6227.38 1.70941 3.93036 0
M  V30 65880 H 6231.56 2.65411 4.1937 0
M  V30 65881 H 6226.82 4.00034 4.62366 0
M  V30 65882 H 6230.99 4.9481 4.90036 0
M  V30 65883 H 6228.62 5.62638 5.11217 0
M  V30 65884 N 6230.19 -1.45807 0.598159 0
M  V30 65885 C 6231.44 -2.02601 0.0898152 0
M  V30 65886 C 6231.77 -1.46678 -1.27277 0
M  V30 65887 O 6231.05 -0.6378 -1.83745 0
M  V30 65888 C 6231.33 -3.60077 0.0406978 0
M  V30 65889 C 6231.18 -4.26353 1.43328 0
M  V30 65890 C 6232.5 -4.35243 -0.652011 0
M  V30 65891 H 6229.62 -0.73621 0.0341124 0
M  V30 65892 H 6232.26 -1.73772 0.768324 0
M  V30 65893 H 6230.41 -3.84769 -0.537116 0
M  V30 65894 H 6232.08 -4.12876 2.05744 0
M  V30 65895 H 6230.33 -3.85118 1.99666 0
M  V30 65896 H 6231 -5.35206 1.35124 0
M  V30 65897 H 6233.47 -4.15788 -0.160982 0
M  V30 65898 H 6232.35 -5.44972 -0.655454 0
M  V30 65899 H 6232.61 -4.07425 -1.71632 0
M  V30 65900 N 6231.67 -0.336787 -1.53959 0
M  V30 65901 C 6232.9 0.263374 -2.05217 0
M  V30 65902 C 6233.31 1.44748 -1.21217 0
M  V30 65903 O 6232.67 1.80836 -0.245907 0
M  V30 65904 C 6232.72 0.685002 -3.54951 0
M  V30 65905 O 6232.44 -0.452007 -4.35762 0
M  V30 65906 C 6233.94 1.34659 -4.22353 0
M  V30 65907 H 6231.16 0.0520452 -0.668979 0
M  V30 65908 H 6233.71 -0.486814 -1.98621 0
M  V30 65909 H 6231.86 1.38514 -3.61791 0
M  V30 65910 H 6232.28 -0.11726 -5.24369 0
M  V30 65911 H 6233.75 1.59242 -5.28532 0
M  V30 65912 H 6234.23 2.29804 -3.74281 0
M  V30 65913 H 6234.83 0.688669 -4.19687 0
M  V30 65914 N 6233.15 1.57465 -0.0652509 0
M  V30 65915 C 6234.42 1.84624 0.646 0
M  V30 65916 C 6234.8 0.95644 1.8819 0
M  V30 65917 O 6234.15 0.0210469 2.2849 0
M  V30 65918 C 6234.36 3.34667 0.989895 0
M  V30 65919 C 6235.71 4.02021 1.36618 0
M  V30 65920 O 6236.73 3.39375 1.08182 0
M  V30 65921 O 6235.59 5.12503 1.89746 0
M  V30 65922 H 6232.69 0.762493 0.320209 0
M  V30 65923 H 6235.23 1.6943 -0.095685 0
M  V30 65924 H 6234.01 3.9114 0.111839 0
M  V30 65925 H 6233.63 3.551 1.78856 0
M  V30 65926 N 6234.63 -0.208255 1.56218 0
M  V30 65927 C 6235.85 -0.947206 1.83945 0
M  V30 65928 C 6236.27 -1.77401 0.646092 0
M  V30 65929 O 6235.63 -1.78386 -0.385315 0
M  V30 65930 C 6235.68 -1.85404 3.10335 0
M  V30 65931 O 6235.4 -1.06064 4.25067 0
M  V30 65932 C 6236.9 -2.70577 3.51145 0
M  V30 65933 H 6234.12 -0.276991 0.611161 0
M  V30 65934 H 6236.66 -0.219473 2.03319 0
M  V30 65935 H 6234.82 -2.53556 2.92896 0
M  V30 65936 H 6235.23 -1.6774 4.96954 0
M  V30 65937 H 6236.71 -3.29886 4.42582 0
M  V30 65938 H 6237.18 -3.43635 2.73517 0
M  V30 65939 H 6237.79 -2.07818 3.71068 0
M  V30 65940 N 6236.1 -1.50256 -0.475475 0
M  V30 65941 C 6237.51 -1.53935 -1.05646 0
M  V30 65942 C 6237.87 -0.340293 -1.93226 0
M  V30 65943 O 6236.99 0.547275 -2.09365 0
M  V30 65944 C 6237.59 -2.78958 -1.92271 0
M  V30 65945 C 6236.14 -2.85331 -2.45485 0
M  V30 65946 C 6235.29 -2.4817 -1.23721 0
M  V30 65947 H 6238.24 -1.56584 -0.258277 0
M  V30 65948 H 6238.26 -2.60565 -2.77284 0
M  V30 65949 H 6237.78 -3.66209 -1.28501 0
M  V30 65950 H 6235.88 -2.02421 -3.1282 0
M  V30 65951 H 6235.99 -3.88119 -2.80892 0
M  V30 65952 H 6234.35 -2.00511 -1.57059 0
M  V30 65953 H 6235.14 -3.37724 -0.616205 0
M  V30 65954 N 6237.58 0.728346 -1.3976 0
M  V30 65955 C 6238.53 1.84241 -1.39011 0
M  V30 65956 C 6239.5 1.64225 -0.248841 0
M  V30 65957 O 6240.68 1.85539 -0.44497 0
M  V30 65958 C 6237.82 3.21823 -1.24594 0
M  V30 65959 C 6236.94 3.53498 -2.48321 0
M  V30 65960 C 6236.07 4.80518 -2.26442 0
M  V30 65961 C 6235.11 5.05057 -3.4581 0
M  V30 65962 N 6234.25 6.23284 -3.23206 0
M  V30 65963 H 6239.09 1.84216 -2.34241 0
M  V30 65964 H 6236.63 0.900053 -1.16351 0
M  V30 65965 H 6238.58 4.01253 -1.14245 0
M  V30 65966 H 6237.21 3.2111 -0.329906 0
M  V30 65967 H 6236.27 2.68719 -2.69247 0
M  V30 65968 H 6237.58 3.67547 -3.37211 0
M  V30 65969 H 6236.73 5.67941 -2.13373 0
M  V30 65970 H 6235.47 4.68655 -1.34957 0
M  V30 65971 H 6234.48 4.16093 -3.5937 0
M  V30 65972 H 6235.7 5.188 -4.38205 0
M  V30 65973 H 6233.65 6.12696 -2.34392 0
M  V30 65974 H 6233.56 6.3795 -4.05655 0
M  V30 65975 H 6234.83 7.13528 -3.13844 0
M  V30 65976 N 6239.06 1.25046 0.959235 0
M  V30 65977 C 6240.31 1.09304 1.69991 0
M  V30 65978 C 6240.63 -0.367439 1.91507 0
M  V30 65979 O 6239.9 -1.26137 1.49888 0
M  V30 65980 H 6238.48 0.401492 0.629931 0
M  V30 65981 H 6241.14 1.57098 1.15353 0
M  V30 65982 H 6240.24 1.59775 2.68101 0
M  V30 65983 N 6240.54 -1.16117 1.06558 0
M  V30 65984 C 6241.95 -1.68317 0.807863 0
M  V30 65985 C 6242.3 -1.84472 -0.668169 0
M  V30 65986 O 6241.43 -1.54221 -1.51806 0
M  V30 65987 C 6242.02 -3.05733 1.4599 0
M  V30 65988 C 6240.58 -3.55042 1.2499 0
M  V30 65989 C 6239.73 -2.3096 1.5347 0
M  V30 65990 H 6242.68 -1.00443 1.2287 0
M  V30 65991 H 6242.7 -3.70263 0.876687 0
M  V30 65992 H 6242.21 -2.93942 2.53416 0
M  V30 65993 H 6240.31 -3.72087 0.195498 0
M  V30 65994 H 6240.42 -4.36973 1.96448 0
M  V30 65995 H 6238.79 -2.36104 0.955351 0
M  V30 65996 H 6239.57 -2.21764 2.6206 0
M  V30 65997 N 6242.02 -0.848534 -1.32807 0
M  V30 65998 C 6242.96 -0.286716 -2.29012 0
M  V30 65999 C 6243.93 0.60289 -1.54772 0
M  V30 66000 O 6245.12 0.539105 -1.83025 0
M  V30 66001 C 6242.26 0.524073 -3.41097 0
M  V30 66002 C 6241.37 -0.390637 -4.3023 0
M  V30 66003 C 6240.51 0.432189 -5.29439 0
M  V30 66004 C 6239.55 -0.480304 -6.10213 0
M  V30 66005 N 6238.68 0.304974 -7.01437 0
M  V30 66006 H 6243.52 -1.11239 -2.76459 0
M  V30 66007 H 6241.06 -0.560004 -1.36023 0
M  V30 66008 H 6243.02 1.00972 -4.04797 0
M  V30 66009 H 6241.65 1.31463 -2.94817 0
M  V30 66010 H 6240.7 -0.994647 -3.67166 0
M  V30 66011 H 6242.01 -1.0912 -4.86718 0
M  V30 66012 H 6241.17 0.981261 -5.98712 0
M  V30 66013 H 6239.9 1.16615 -4.73553 0
M  V30 66014 H 6238.91 -1.04131 -5.39849 0
M  V30 66015 H 6240.13 -1.21278 -6.68183 0
M  V30 66016 H 6238.08 1.02214 -6.47988 0
M  V30 66017 H 6238 -0.336679 -7.5525 0
M  V30 66018 H 6239.27 0.83597 -7.75004 0
M  V30 66019 N 6243.49 1.45488 -0.605884 0
M  V30 66020 C 6244.74 2.02551 -0.100558 0
M  V30 66021 C 6245.07 1.4735 1.26497 0
M  V30 66022 O 6244.35 0.647535 1.83405 0
M  V30 66023 C 6244.63 3.6005 -0.059793 0
M  V30 66024 C 6244.48 4.25587 -1.45587 0
M  V30 66025 C 6245.8 4.35583 0.628919 0
M  V30 66026 H 6242.92 0.736019 -0.0380162 0
M  V30 66027 H 6245.56 1.73362 -0.777529 0
M  V30 66028 H 6243.71 3.85049 0.516703 0
M  V30 66029 H 6245.39 4.1178 -2.07931 0
M  V30 66030 H 6243.63 3.84054 -2.01706 0
M  V30 66031 H 6244.3 5.34482 -1.3796 0
M  V30 66032 H 6246.78 4.15868 0.138929 0
M  V30 66033 H 6245.65 5.45312 0.626544 0
M  V30 66034 H 6245.91 4.08329 1.69468 0
M  V30 66035 N 6244.97 0.344947 1.53779 0
M  V30 66036 C 6245.92 -0.51119 2.25068 0
M  V30 66037 C 6246.89 -1.09441 1.24947 0
M  V30 66038 O 6248.07 -1.13077 1.53683 0
M  V30 66039 C 6245.21 -1.65552 3.02798 0
M  V30 66040 C 6244.33 -1.09947 4.17775 0
M  V30 66041 C 6243.46 -2.21122 4.82989 0
M  V30 66042 C 6242.5 -1.62876 5.90032 0
M  V30 66043 N 6241.64 -2.67799 6.49021 0
M  V30 66044 H 6246.48 0.103271 2.97821 0
M  V30 66045 H 6244.02 0.0627363 1.46966 0
M  V30 66046 H 6245.97 -2.32924 3.46125 0
M  V30 66047 H 6244.6 -2.24095 2.32339 0
M  V30 66048 H 6243.66 -0.316652 3.7908 0
M  V30 66049 H 6244.97 -0.633449 4.94761 0
M  V30 66050 H 6244.12 -2.96356 5.29394 0
M  V30 66051 H 6242.86 -2.71069 4.05429 0
M  V30 66052 H 6241.87 -0.861482 5.43009 0
M  V30 66053 H 6243.09 -1.13779 6.69501 0
M  V30 66054 H 6241.04 -3.16998 5.74324 0
M  V30 66055 H 6240.95 -2.25823 7.21485 0
M  V30 66056 H 6242.22 -3.42798 7.00079 0
M  V30 66057 N 6246.45 -1.57428 0.0736007 0
M  V30 66058 C 6247.68 -1.97598 -0.603202 0
M  V30 66059 C 6248.09 -0.950773 -1.63576 0
M  V30 66060 O 6247.43 0.0706808 -1.83564 0
M  V30 66061 C 6247.49 -3.34084 -1.32772 0
M  V30 66062 C 6247.16 -4.54795 -0.448426 0
M  V30 66063 C 6248.15 -5.19064 0.294719 0
M  V30 66064 C 6245.84 -5.00915 -0.372776 0
M  V30 66065 C 6247.83 -6.27806 1.10172 0
M  V30 66066 C 6245.52 -6.09529 0.437893 0
M  V30 66067 C 6246.52 -6.72838 1.17381 0
M  V30 66068 O 6246.21 -7.79361 1.9711 0
M  V30 66069 H 6245.94 -0.65477 -0.168085 0
M  V30 66070 H 6248.49 -2.04901 0.143085 0
M  V30 66071 H 6246.72 -3.234 -2.12012 0
M  V30 66072 H 6248.41 -3.58847 -1.89694 0
M  V30 66073 H 6249.18 -4.84376 0.245877 0
M  V30 66074 H 6245.06 -4.51414 -0.935204 0
M  V30 66075 H 6248.6 -6.77152 1.67662 0
M  V30 66076 H 6244.5 -6.4365 0.488293 0
M  V30 66077 H 6245.27 -7.96247 1.89561 0
M  V30 66078 N 6247.93 0.199967 -1.56326 0
M  V30 66079 C 6248.86 1.25064 -1.97183 0
M  V30 66080 C 6249.84 1.47737 -0.843082 0
M  V30 66081 O 6251.02 1.59556 -1.10704 0
M  V30 66082 C 6248.15 2.59592 -2.30715 0
M  V30 66083 C 6247.11 2.5154 -3.46283 0
M  V30 66084 C 6246.43 3.90296 -3.65477 0
M  V30 66085 C 6247.73 2.04463 -4.80616 0
M  V30 66086 H 6249.43 0.911138 -2.85199 0
M  V30 66087 H 6246.97 0.436851 -1.37214 0
M  V30 66088 H 6248.93 3.33272 -2.57891 0
M  V30 66089 H 6247.65 2.95273 -1.39576 0
M  V30 66090 H 6246.31 1.80316 -3.19189 0
M  V30 66091 H 6245.96 4.23321 -2.71677 0
M  V30 66092 H 6245.66 3.85784 -4.4322 0
M  V30 66093 H 6247.18 4.65605 -3.95024 0
M  V30 66094 H 6248.6 2.67899 -5.06856 0
M  V30 66095 H 6246.99 2.10965 -5.61795 0
M  V30 66096 H 6248.06 0.997661 -4.74526 0
M  V30 66097 N 6249.41 1.50506 0.4675 0
M  V30 66098 C 6250.64 1.65197 1.2407 0
M  V30 66099 C 6251.04 0.336168 1.8619 0
M  V30 66100 O 6250.39 -0.692239 1.70158 0
M  V30 66101 C 6250.45 2.68807 2.38712 0
M  V30 66102 C 6250.11 4.12263 1.97201 0
M  V30 66103 C 6251.11 4.98017 1.49249 0
M  V30 66104 C 6248.8 4.58199 2.05813 0
M  V30 66105 C 6250.79 6.27757 1.10455 0
M  V30 66106 C 6248.48 5.87944 1.6663 0
M  V30 66107 C 6249.47 6.72548 1.1903 0
M  V30 66108 O 6249.16 7.9987 0.803916 0
M  V30 66109 H 6248.89 0.558244 0.381235 0
M  V30 66110 H 6251.45 1.97504 0.56402 0
M  V30 66111 H 6249.68 2.31749 3.09563 0
M  V30 66112 H 6251.37 2.72681 3.00666 0
M  V30 66113 H 6252.13 4.63742 1.42015 0
M  V30 66114 H 6248.01 3.9249 2.41811 0
M  V30 66115 H 6251.56 6.93746 0.73231 0
M  V30 66116 H 6247.45 6.21739 1.73524 0
M  V30 66117 H 6248.22 8.13171 0.932448 0
M  V30 66118 N 6250.88 -0.720924 1.40144 0
M  V30 66119 C 6252.13 -1.48073 1.38133 0
M  V30 66120 C 6252.46 -1.94492 -0.0181208 0
M  V30 66121 O 6251.71 -1.68123 -1.00166 0
M  V30 66122 C 6252.01 -2.72505 2.31249 0
M  V30 66123 C 6251.68 -2.44879 3.78609 0
M  V30 66124 C 6250.34 -2.37055 4.18758 0
M  V30 66125 C 6252.69 -2.21581 4.71753 0
M  V30 66126 C 6250.02 -2.03993 5.50094 0
M  V30 66127 C 6252.37 -1.90034 6.03382 0
M  V30 66128 C 6251.04 -1.80688 6.42579 0
M  V30 66129 H 6250.31 -0.541836 0.505465 0
M  V30 66130 H 6252.95 -0.82625 1.72758 0
M  V30 66131 H 6251.26 -3.42764 1.8979 0
M  V30 66132 H 6252.96 -3.30578 2.26978 0
M  V30 66133 H 6249.55 -2.51854 3.46796 0
M  V30 66134 H 6253.73 -2.26586 4.41557 0
M  V30 66135 H 6248.99 -1.95291 5.79372 0
M  V30 66136 H 6253.16 -1.71019 6.75075 0
M  V30 66137 H 6250.79 -1.54836 7.44265 0
M  V30 66138 N 6252.36 -1.25553 -0.95259 0
M  V30 66139 C 6253.61 -1.09817 -1.69184 0
M  V30 66140 C 6253.93 0.3603 -1.92253 0
M  V30 66141 O 6255.13 0.638135 -2.63894 0
M  V30 66142 C 6253.59 -1.91704 -3.04594 0
M  V30 66143 C 6253.2 -3.42055 -2.89314 0
M  V30 66144 C 6254.94 -1.84543 -3.82288 0
M  V30 66145 C 6252.85 -4.1623 -4.20127 0
M  V30 66146 H 6251.78 -0.407352 -0.634492 0
M  V30 66147 H 6254.43 -1.49766 -1.0603 0
M  V30 66148 H 6252.81 -1.44579 -3.68664 0
M  V30 66149 H 6253.98 -3.96868 -2.34164 0
M  V30 66150 H 6252.3 -3.5033 -2.25073 0
M  V30 66151 H 6254.9 -2.37254 -4.79181 0
M  V30 66152 H 6255.24 -0.813754 -4.08269 0
M  V30 66153 H 6255.77 -2.29429 -3.24972 0
M  V30 66154 H 6252.51 -5.1982 -3.99333 0
M  V30 66155 H 6252.03 -3.66201 -4.75034 0
M  V30 66156 H 6253.71 -4.24057 -4.88656 0
M  V30 66157 N 6253.84 1.15551 -1.07172 0
M  V30 66158 C 6254.79 2.20231 -0.690425 0
M  V30 66159 C 6255.76 1.63041 0.317289 0
M  V30 66160 O 6256.94 1.89705 0.204154 0
M  V30 66161 C 6254.08 3.44976 -0.0924617 0
M  V30 66162 C 6253.2 4.16373 -1.15143 0
M  V30 66163 C 6252.33 5.28662 -0.518664 0
M  V30 66164 C 6251.37 5.91873 -1.56055 0
M  V30 66165 N 6250.51 6.95636 -0.950496 0
M  V30 66166 H 6255.35 2.52197 -1.58747 0
M  V30 66167 H 6252.88 1.2386 -0.793546 0
M  V30 66168 H 6254.84 4.16313 0.271839 0
M  V30 66169 H 6253.47 3.13532 0.767944 0
M  V30 66170 H 6252.52 3.4355 -1.63333 0
M  V30 66171 H 6253.84 4.59465 -1.94148 0
M  V30 66172 H 6252.99 6.06614 -0.101896 0
M  V30 66173 H 6251.73 4.86757 0.303174 0
M  V30 66174 H 6250.73 5.12634 -1.98712 0
M  V30 66175 H 6251.96 6.35855 -2.38464 0
M  V30 66176 H 6249.91 6.5583 -0.149528 0
M  V30 66177 H 6249.82 7.37147 -1.67781 0
M  V30 66178 H 6251.09 7.77492 -0.559169 0
M  V30 66179 N 6255.32 0.855565 1.32355 0
M  V30 66180 C 6256.57 0.458484 1.96831 0
M  V30 66181 C 6256.89 -0.989401 1.68035 0
M  V30 66182 O 6256.16 -1.69158 0.988055 0
M  V30 66183 H 6254.74 0.166553 0.728196 0
M  V30 66184 H 6257.4 1.09219 1.61422 0
M  V30 66185 H 6256.5 0.604293 3.06194 0
M  V30 66186 N 6256.8 -1.45165 0.613591 0
M  V30 66187 C 6257.73 -2.33331 -0.0889219 0
M  V30 66188 C 6258.71 -1.47184 -0.852698 0
M  V30 66189 O 6259.89 -1.75943 -0.82206 0
M  V30 66190 C 6257.02 -3.29986 -1.0829 0
M  V30 66191 C 6255.98 -4.25815 -0.431935 0
M  V30 66192 C 6255.3 -5.12206 -1.53458 0
M  V30 66193 C 6256.6 -5.18231 0.650702 0
M  V30 66194 H 6258.3 -2.9232 0.647267 0
M  V30 66195 H 6255.84 -1.40563 0.312717 0
M  V30 66196 H 6257.8 -3.90538 -1.58296 0
M  V30 66197 H 6256.52 -2.69168 -1.84976 0
M  V30 66198 H 6255.18 -3.66569 0.0473216 0
M  V30 66199 H 6254.83 -4.47752 -2.29187 0
M  V30 66200 H 6254.53 -5.77126 -1.10449 0
M  V30 66201 H 6256.05 -5.75627 -2.0368 0
M  V30 66202 H 6257.47 -5.7282 0.234464 0
M  V30 66203 H 6255.86 -5.9166 1.00289 0
M  V30 66204 H 6256.93 -4.60298 1.52491 0
M  V30 66205 N 6258.28 -0.353098 -1.53594 0
M  V30 66206 C 6259.22 0.514489 -2.26839 0
M  V30 66207 C 6260.22 1.09394 -1.29342 0
M  V30 66208 O 6261.42 1.03858 -1.47016 0
M  V30 66209 H 6257.8 0.184616 -0.728986 0
M  V30 66210 H 6259.77 -0.125187 -2.98137 0
M  V30 66211 C 6258.52 1.64873 -3.06124 0
M  V30 66212 H 6257.84 1.21214 -3.80982 0
M  V30 66213 H 6259.28 2.23076 -3.60573 0
M  V30 66214 C 6257.74 2.58377 -2.16201 0
M  V30 66215 O 6258.27 3.60874 -1.76446 0
M  V30 66216 N 6256.48 2.27279 -1.81087 0
M  V30 66217 H 6256.02 1.43968 -2.13614 0
M  V30 66218 H 6255.98 2.90098 -1.21205 0
M  V30 66219 N 6259.75 1.57387 -0.0819485 0
M  V30 66220 C 6260.7 2.14511 0.89931 0
M  V30 66221 C 6261.7 1.08458 1.30128 0
M  V30 66222 O 6262.9 1.26823 1.27734 0
M  V30 66223 H 6259.28 0.686035 0.307994 0
M  V30 66224 H 6261.25 2.95805 0.392682 0
M  V30 66225 C 6260 2.72971 2.15366 0
M  V30 66226 H 6259.32 3.54255 1.85321 0
M  V30 66227 H 6260.76 3.16525 2.82114 0
M  V30 66228 C 6259.22 1.68222 2.91895 0
M  V30 66229 O 6259.75 1.11328 3.85965 0
M  V30 66230 N 6257.95 1.39019 2.5519 0
M  V30 66231 H 6257.5 1.85475 1.78765 0
M  V30 66232 H 6257.46 0.69169 3.06697 0
M  V30 66233 N 6261.23 -0.191674 1.5643 0
M  V30 66234 C 6262.16 -1.24017 1.97844 0
M  V30 66235 C 6263.14 -1.47288 0.850905 0
M  V30 66236 O 6264.33 -1.58967 1.11549 0
M  V30 66237 C 6261.46 -2.58365 2.32088 0
M  V30 66238 C 6260.41 -2.497 3.47612 0
M  V30 66239 C 6259.74 -3.88352 3.67541 0
M  V30 66240 C 6261.04 -2.01912 4.81694 0
M  V30 66241 H 6262.73 -0.896 2.85678 0
M  V30 66242 H 6260.28 -0.429568 1.37444 0
M  V30 66243 H 6262.23 -3.31899 2.59655 0
M  V30 66244 H 6260.95 -2.94529 1.4114 0
M  V30 66245 H 6259.61 -1.78621 3.20141 0
M  V30 66246 H 6259.26 -4.21875 2.73918 0
M  V30 66247 H 6258.96 -3.83428 4.4526 0
M  V30 66248 H 6260.49 -4.63504 3.97488 0
M  V30 66249 H 6261.9 -2.65207 5.0827 0
M  V30 66250 H 6260.3 -2.07983 5.62906 0
M  V30 66251 H 6261.37 -0.972482 4.75048 0
M  V30 66252 N 6262.71 -1.50752 -0.459512 0
M  V30 66253 C 6263.66 -1.71003 -1.57673 0
M  V30 66254 C 6264.65 -0.575981 -1.59307 0
M  V30 66255 O 6265.86 -0.756792 -1.63318 0
M  V30 66256 H 6262.23 -0.539939 -0.523421 0
M  V30 66257 H 6264.2 -2.64698 -1.37759 0
M  V30 66258 C 6262.95 -1.83198 -2.95523 0
M  V30 66259 H 6262.28 -2.69855 -2.94989 0
M  V30 66260 H 6263.72 -2.01387 -3.73121 0
M  V30 66261 C 6262.17 -0.586339 -3.31758 0
M  V30 66262 O 6262.7 0.269217 -4.00797 0
M  V30 66263 N 6260.91 -0.43694 -2.87296 0
M  V30 66264 H 6260.46 -1.13421 -2.31287 0
M  V30 66265 H 6260.42 0.395314 -3.11905 0
M  V30 66266 N 6264.19 0.713481 -1.40525 0
M  V30 66267 C 6265.6 1.02182 -1.22601 0
M  V30 66268 C 6265.8 2.01238 -0.102693 0
M  V30 66269 O 6264.86 2.46686 0.538735 0
M  V30 66270 C 6266.17 1.56353 -2.56854 0
M  V30 66271 C 6267.72 1.68327 -2.63884 0
M  V30 66272 C 6268.2 2.25904 -3.98411 0
M  V30 66273 N 6269.69 2.33287 -4.00164 0
M  V30 66274 C 6270.42 2.78824 -5.01044 0
M  V30 66275 N 6269.92 3.24098 -6.12317 0
M  V30 66276 N 6271.71 2.78227 -4.88412 0
M  V30 66277 H 6263.86 0.0569371 -2.12324 0
M  V30 66278 H 6266.12 0.0878574 -0.94392 0
M  V30 66279 H 6265.83 0.910302 -3.39715 0
M  V30 66280 H 6265.7 2.54845 -2.7809 0
M  V30 66281 H 6268.09 2.32767 -1.81394 0
M  V30 66282 H 6268.17 0.684295 -2.46477 0
M  V30 66283 H 6267.82 1.62085 -4.81343 0
M  V30 66284 H 6267.75 3.2652 -4.13149 0
M  V30 66285 H 6270.24 2.01314 -3.19814 0
M  V30 66286 H 6270.55 3.57418 -6.8518 0
M  V30 66287 H 6268.9 3.22052 -6.1588 0
M  V30 66288 H 6272.09 2.42195 -4.00574 0
M  V30 66289 H 6272.26 3.13399 -5.67173 0
M  V30 66290 N 6265.67 1.26056 0.945918 0
M  V30 66291 C 6266.91 1.11101 1.68822 0
M  V30 66292 C 6267.23 -0.347107 1.91886 0
M  V30 66293 O 6266.5 -1.2454 1.51217 0
M  V30 66294 H 6265.08 0.40815 0.625638 0
M  V30 66295 H 6267.75 1.58312 1.1368 0
M  V30 66296 H 6266.84 1.6261 2.66392 0
M  V30 66297 N 6267.14 -1.14981 1.07783 0
M  V30 66298 C 6268.08 -2.1886 0.646197 0
M  V30 66299 C 6269.06 -1.59031 -0.338798 0
M  V30 66300 O 6270.24 -1.86912 -0.244175 0
M  V30 66301 C 6267.37 -3.38662 -0.0504671 0
M  V30 66302 C 6266.41 -4.17032 0.893666 0
M  V30 66303 S 6267.25 -4.78858 2.39699 0
M  V30 66304 C 6268.4 -6.02024 1.71225 0
M  V30 66305 H 6268.63 -2.55134 1.52623 0
M  V30 66306 H 6266.17 -1.26012 0.89221 0
M  V30 66307 H 6268.13 -4.08068 -0.446155 0
M  V30 66308 H 6266.79 -3.00723 -0.906903 0
M  V30 66309 H 6265.98 -5.02762 0.353011 0
M  V30 66310 H 6265.58 -3.53197 1.22995 0
M  V30 66311 H 6267.87 -6.69678 1.0265 0
M  V30 66312 H 6268.82 -6.60667 2.54805 0
M  V30 66313 H 6269.22 -5.5185 1.18834 0
M  V30 66314 N 6268.62 -0.862572 -1.31899 0
M  V30 66315 C 6269.87 -0.47054 -1.97266 0
M  V30 66316 C 6270.2 0.973094 -1.68061 0
M  V30 66317 O 6269.48 1.68408 -0.973095 0
M  V30 66318 C 6269.76 -0.719486 -3.52839 0
M  V30 66319 C 6269.61 -2.21212 -3.91645 0
M  V30 66320 C 6270.93 -0.181074 -4.39727 0
M  V30 66321 H 6268.05 -0.172433 -0.716544 0
M  V30 66322 H 6270.69 -1.08245 -1.5615 0
M  V30 66323 H 6268.84 -0.198653 -3.87992 0
M  V30 66324 H 6270.51 -2.79963 -3.66631 0
M  V30 66325 H 6268.76 -2.68756 -3.40518 0
M  V30 66326 H 6269.43 -2.33697 -5.0009 0
M  V30 66327 H 6271.9 -0.626566 -4.11356 0
M  V30 66328 H 6270.78 -0.384768 -5.4755 0
M  V30 66329 H 6271.04 0.916604 -4.32494 0
M  V30 66330 N 6270.1 1.44837 -0.62128 0
M  V30 66331 C 6271.03 2.33374 0.0765466 0
M  V30 66332 C 6272.01 1.47634 0.84488 0
M  V30 66333 O 6273.2 1.76376 0.812718 0
M  V30 66334 C 6270.33 3.30555 1.06538 0
M  V30 66335 C 6269.28 4.26038 0.409347 0
M  V30 66336 C 6268.61 5.13012 1.50739 0
M  V30 66337 C 6269.91 5.17878 -0.678176 0
M  V30 66338 H 6271.6 2.91972 -0.662761 0
M  V30 66339 H 6269.15 1.40396 -0.320167 0
M  V30 66340 H 6271.1 3.91372 1.56223 0
M  V30 66341 H 6269.82 2.70146 1.83546 0
M  V30 66342 H 6268.48 3.66539 -0.066761 0
M  V30 66343 H 6268.13 4.48962 2.26809 0
M  V30 66344 H 6267.83 5.77704 1.07387 0
M  V30 66345 H 6269.35 5.76699 2.00624 0
M  V30 66346 H 6270.77 5.72688 -0.264838 0
M  V30 66347 H 6269.17 5.9112 -1.03425 0
M  V30 66348 H 6270.24 4.59483 -1.5493 0
M  V30 66349 N 6271.58 0.361238 1.53404 0
M  V30 66350 C 6272.83 -0.229357 2.00794 0
M  V30 66351 C 6273.15 -1.49637 1.25035 0
M  V30 66352 O 6272.42 -1.92519 0.362401 0
M  V30 66353 H 6271 -0.0877426 0.741829 0
M  V30 66354 H 6273.66 0.486472 1.88731 0
M  V30 66355 H 6272.76 -0.459396 3.087 0
M  V30 66356 N 6273.06 -1.57341 0.090294 0
M  V30 66357 C 6274.28 -1.98936 -0.586455 0
M  V30 66358 C 6274.71 -0.968897 -1.61227 0
M  V30 66359 O 6274.06 0.0632231 -1.8119 0
M  V30 66360 C 6274.11 -3.39513 -1.21504 0
M  V30 66361 O 6273.22 -3.40211 -2.33088 0
M  V30 66362 H 6272.56 -0.647014 -0.149227 0
M  V30 66363 H 6275.09 -2.0389 0.170285 0
M  V30 66364 H 6275.1 -3.77102 -1.55749 0
M  V30 66365 H 6273.77 -4.13309 -0.463494 0
M  V30 66366 H 6272.35 -3.14412 -2.00498 0
M  V30 66367 N 6274.53 0.183375 -1.5653 0
M  V30 66368 C 6275.46 1.22966 -1.98499 0
M  V30 66369 C 6276.45 1.46834 -0.858704 0
M  V30 66370 O 6277.63 1.58373 -1.1239 0
M  V30 66371 C 6274.76 2.5713 -2.33455 0
M  V30 66372 C 6273.71 2.47853 -3.48931 0
M  V30 66373 C 6273.04 3.86398 -3.69596 0
M  V30 66374 C 6274.34 1.99354 -4.82758 0
M  V30 66375 H 6276.03 0.880837 -2.8615 0
M  V30 66376 H 6273.58 0.422273 -1.37669 0
M  V30 66377 H 6275.53 3.30518 -2.61412 0
M  V30 66378 H 6274.26 2.93776 -1.427 0
M  V30 66379 H 6272.92 1.76921 -3.21084 0
M  V30 66380 H 6272.56 4.20416 -2.76151 0
M  V30 66381 H 6272.26 3.81062 -4.47287 0
M  V30 66382 H 6273.79 4.61389 -3.9994 0
M  V30 66383 H 6275.2 2.62508 -5.09669 0
M  V30 66384 H 6273.6 2.04994 -5.64001 0
M  V30 66385 H 6274.67 0.947275 -4.75557 0
M  V30 66386 N 6276.01 1.50994 0.451511 0
M  V30 66387 C 6276.98 1.70708 1.52943 0
M  V30 66388 C 6277.98 0.577328 1.50079 0
M  V30 66389 O 6279.17 0.844672 1.52351 0
M  V30 66390 C 6276.3 1.75045 2.92527 0
M  V30 66391 H 6277.49 2.66896 1.36772 0
M  V30 66392 H 6275.04 1.4077 0.679236 0
M  V30 66393 H 6275.78 0.806206 3.14119 0
M  V30 66394 H 6275.56 2.57137 2.96012 0
M  V30 66395 H 6277.05 1.92184 3.70749 0
M  V30 66396 N 6277.49 -0.706019 1.40901 0
M  V30 66397 C 6278.45 -1.80179 1.41662 0
M  V30 66398 C 6279.45 -1.57806 0.308878 0
M  V30 66399 O 6280.64 -1.64671 0.568255 0
M  V30 66400 C 6277.78 -3.18408 1.21776 0
M  V30 66401 H 6278.97 -1.809 2.39197 0
M  V30 66402 H 6276.52 -0.912613 1.2689 0
M  V30 66403 H 6277.26 -3.23332 0.250401 0
M  V30 66404 H 6277.04 -3.36047 2.02026 0
M  V30 66405 H 6278.53 -3.98415 1.2512 0
M  V30 66406 N 6278.97 -1.26556 -0.93922 0
M  V30 66407 C 6280.2 -1.14999 -1.71997 0
M  V30 66408 C 6280.61 0.294554 -1.86488 0
M  V30 66409 O 6279.97 1.20153 -1.37366 0
M  V30 66410 C 6280.02 -1.81609 -3.1257 0
M  V30 66411 O 6279.74 -3.20418 -2.9877 0
M  V30 66412 C 6281.24 -1.76031 -4.06851 0
M  V30 66413 H 6278.46 -0.400366 -0.538468 0
M  V30 66414 H 6281.01 -1.67213 -1.17729 0
M  V30 66415 H 6279.16 -1.33328 -3.63734 0
M  V30 66416 H 6279.57 -3.53411 -3.87558 0
M  V30 66417 H 6281.05 -2.27272 -5.03042 0
M  V30 66418 H 6281.53 -0.727228 -4.33137 0
M  V30 66419 H 6282.13 -2.23873 -3.61609 0
M  V30 66420 N 6280.45 1.14407 -1.08391 0
M  V30 66421 C 6281.69 1.85716 -0.814703 0
M  V30 66422 C 6282.03 1.82718 0.65787 0
M  V30 66423 O 6281.3 1.25776 1.4836 0
M  V30 66424 C 6281.58 3.34358 -1.33703 0
M  V30 66425 C 6281.44 3.4593 -2.87493 0
M  V30 66426 C 6282.76 4.29454 -0.962157 0
M  V30 66427 H 6279.87 0.674321 -0.297422 0
M  V30 66428 H 6282.52 1.3435 -1.34351 0
M  V30 66429 H 6280.67 3.78234 -0.887215 0
M  V30 66430 H 6282.34 3.10842 -3.40844 0
M  V30 66431 H 6280.58 2.87146 -3.25161 0
M  V30 66432 H 6281.25 4.50412 -3.19113 0
M  V30 66433 H 6283.73 3.93594 -1.34993 0
M  V30 66434 H 6282.6 5.31917 -1.35482 0
M  V30 66435 H 6282.87 4.41906 0.130832 0
M  V30 66436 N 6281.93 0.869555 1.3144 0
M  V30 66437 C 6283.34 0.561421 1.494 0
M  V30 66438 C 6283.54 -0.904547 1.80056 0
M  V30 66439 O 6282.6 -1.68674 1.87897 0
M  V30 66440 C 6283.91 1.46128 2.62806 0
M  V30 66441 C 6285.46 1.46327 2.7669 0
M  V30 66442 C 6285.93 2.34869 3.93193 0
M  V30 66443 N 6287.42 2.32746 4.00479 0
M  V30 66444 C 6288.16 2.97976 4.89896 0
M  V30 66445 N 6287.66 3.72374 5.84217 0
M  V30 66446 N 6289.45 2.87287 4.83138 0
M  V30 66447 H 6281.6 1.81812 1.0981 0
M  V30 66448 H 6283.86 0.777386 0.542563 0
M  V30 66449 H 6283.57 2.50439 2.46927 0
M  V30 66450 H 6283.44 1.15951 3.58936 0
M  V30 66451 H 6285.83 0.427737 2.91984 0
M  V30 66452 H 6285.91 1.80527 1.81228 0
M  V30 66453 H 6285.55 3.38498 3.78657 0
M  V30 66454 H 6285.48 1.97993 4.87961 0
M  V30 66455 H 6287.98 1.78669 3.32995 0
M  V30 66456 H 6288.29 4.19276 6.49175 0
M  V30 66457 H 6286.63 3.76482 5.84197 0
M  V30 66458 H 6289.82 2.28703 4.08427 0
M  V30 66459 H 6290 3.38402 5.52619 0
M  V30 66460 N 6283.4 -1.44506 0.628953 0
M  V30 66461 C 6284.33 -2.33412 -0.0641691 0
M  V30 66462 C 6285.31 -1.4808 -0.837039 0
M  V30 66463 O 6286.5 -1.76805 -0.803353 0
M  V30 66464 C 6283.63 -3.31116 -1.04784 0
M  V30 66465 C 6282.58 -4.26249 -0.386747 0
M  V30 66466 C 6281.91 -5.13805 -1.48017 0
M  V30 66467 C 6283.21 -5.17511 0.705631 0
M  V30 66468 H 6284.9 -2.91617 0.678235 0
M  V30 66469 H 6282.45 -1.40224 0.327608 0
M  V30 66470 H 6284.4 -3.92195 -1.54145 0
M  V30 66471 H 6283.13 -2.71115 -1.8211 0
M  V30 66472 H 6281.79 -3.66499 0.0861985 0
M  V30 66473 H 6281.43 -4.50158 -2.24425 0
M  V30 66474 H 6281.13 -5.78265 -1.04322 0
M  V30 66475 H 6282.66 -5.77755 -1.97563 0
M  V30 66476 H 6284.07 -5.72539 0.295206 0
M  V30 66477 H 6282.47 -5.90563 1.06559 0
M  V30 66478 H 6283.54 -4.58655 1.57365 0
M  V30 66479 N 6284.88 -0.369369 -1.5321 0
M  V30 66480 C 6285.81 0.510083 -2.23452 0
M  V30 66481 C 6286.83 1.04308 -1.24994 0
M  V30 66482 O 6288.02 0.948815 -1.51194 0
M  V30 66483 C 6285.12 1.71743 -2.9216 0
M  V30 66484 C 6284.29 1.31527 -4.17156 0
M  V30 66485 C 6283.35 2.3851 -4.69041 0
M  V30 66486 O 6282.37 2.00743 -5.32626 0
M  V30 66487 N 6283.58 3.70149 -4.4718 0
M  V30 66488 H 6286.34 -0.0916084 -2.9956 0
M  V30 66489 H 6283.9 -0.194733 -1.60725 0
M  V30 66490 H 6285.89 2.42797 -3.23778 0
M  V30 66491 H 6284.46 2.2259 -2.19482 0
M  V30 66492 H 6283.68 0.434425 -3.91799 0
M  V30 66493 H 6284.97 1.02294 -4.98411 0
M  V30 66494 H 6284.37 4.03606 -3.96382 0
M  V30 66495 H 6282.93 4.37296 -4.83338 0
M  V30 66496 N 6286.36 1.57291 -0.0986369 0
M  V30 66497 C 6287.32 2.13073 0.844554 0
M  V30 66498 C 6288.32 1.0608 1.20845 0
M  V30 66499 O 6289.51 1.31951 1.13731 0
M  V30 66500 C 6286.64 2.65423 2.13924 0
M  V30 66501 H 6287.84 2.9773 0.360125 0
M  V30 66502 H 6285.39 1.55575 0.150397 0
M  V30 66503 H 6286.13 1.84296 2.66844 0
M  V30 66504 H 6285.91 3.43653 1.88799 0
M  V30 66505 H 6287.4 3.08561 2.81389 0
M  V30 66506 N 6287.84 -0.175072 1.56625 0
M  V30 66507 C 6289.09 -0.890541 1.81422 0
M  V30 66508 C 6289.41 -1.82944 0.675022 0
M  V30 66509 O 6288.68 -1.93505 -0.305371 0
M  V30 66510 H 6287.26 -0.331841 0.669246 0
M  V30 66511 H 6289.92 -0.175786 1.94106 0
M  V30 66512 H 6289.01 -1.46969 2.7533 0
M  V30 66513 N 6289.32 -1.51231 -0.443497 0
M  V30 66514 C 6290.26 -1.72665 -1.55851 0
M  V30 66515 C 6291.26 -0.592845 -1.58687 0
M  V30 66516 O 6292.46 -0.774071 -1.62506 0
M  V30 66517 H 6288.84 -0.54546 -0.517665 0
M  V30 66518 H 6290.81 -2.66144 -1.34944 0
M  V30 66519 C 6289.56 -1.86322 -2.93563 0
M  V30 66520 H 6288.88 -2.72968 -2.9211 0
M  V30 66521 H 6290.32 -2.05334 -3.70964 0
M  V30 66522 C 6288.78 -0.621493 -3.31118 0
M  V30 66523 O 6289.31 0.226692 -4.0106 0
M  V30 66524 N 6287.52 -0.467387 -2.86817 0
M  V30 66525 H 6287.06 -1.15867 -2.30071 0
M  V30 66526 H 6287.02 0.36221 -3.12307 0
M  V30 66527 N 6290.79 0.698537 -1.41274 0
M  V30 66528 C 6291.76 1.79425 -1.42616 0
M  V30 66529 C 6292.76 1.57639 -0.317243 0
M  V30 66530 O 6293.95 1.64367 -0.57698 0
M  V30 66531 C 6291.08 3.17757 -1.23463 0
M  V30 66532 H 6292.27 1.79628 -2.40153 0
M  V30 66533 H 6289.82 0.905871 -1.27372 0
M  V30 66534 H 6290.56 3.23195 -0.267545 0
M  V30 66535 H 6290.34 3.34971 -2.03806 0
M  V30 66536 H 6291.83 3.97746 -1.27231 0
M  V30 66537 N 6292.27 1.27052 0.932495 0
M  V30 66538 C 6293.5 1.15909 1.71385 0
M  V30 66539 C 6293.91 -0.28466 1.86642 0
M  V30 66540 O 6293.27 -1.19423 1.38002 0
M  V30 66541 C 6293.32 1.83265 3.11603 0
M  V30 66542 O 6293.04 3.21998 2.97067 0
M  V30 66543 C 6294.54 1.78186 4.05912 0
M  V30 66544 H 6291.76 0.403216 0.536337 0
M  V30 66545 H 6294.31 1.67835 1.16841 0
M  V30 66546 H 6292.46 1.35255 3.63022 0
M  V30 66547 H 6292.88 3.55461 3.85678 0
M  V30 66548 H 6294.35 2.29937 5.0183 0
M  V30 66549 H 6294.83 0.750188 4.32746 0
M  V30 66550 H 6295.43 2.25787 3.60417 0
M  V30 66551 N 6293.75 -1.13831 1.08997 0
M  V30 66552 C 6294.66 -2.22712 0.737318 0
M  V30 66553 C 6295.68 -1.72064 -0.258808 0
M  V30 66554 O 6296.85 -2.01145 -0.10125 0
M  V30 66555 C 6293.92 -3.46338 0.158407 0
M  V30 66556 C 6292.98 -4.11897 1.20992 0
M  V30 66557 C 6292.21 -5.29622 0.658535 0
M  V30 66558 O 6292.43 -5.68025 -0.520019 0
M  V30 66559 O 6291.37 -5.85116 1.41146 0
M  V30 66560 H 6295.19 -2.55241 1.64577 0
M  V30 66561 H 6292.78 -1.21879 0.864056 0
M  V30 66562 H 6294.66 -4.21091 -0.161333 0
M  V30 66563 H 6293.34 -3.1552 -0.723124 0
M  V30 66564 H 6292.24 -3.38991 1.58228 0
M  V30 66565 H 6293.58 -4.46836 2.06394 0
M  V30 66566 N 6295.23 -0.876513 -1.30977 0
M  V30 66567 C 6296.47 -0.491436 -1.96756 0
M  V30 66568 C 6296.81 0.955214 -1.69084 0
M  V30 66569 O 6296.08 1.67366 -0.990902 0
M  V30 66570 C 6296.36 -0.756869 -3.52056 0
M  V30 66571 C 6296.22 -2.25353 -3.89276 0
M  V30 66572 C 6297.54 -0.227703 -4.39511 0
M  V30 66573 H 6294.66 -0.180024 -0.714675 0
M  V30 66574 H 6297.3 -1.09895 -1.54994 0
M  V30 66575 H 6295.45 -0.239793 -3.87759 0
M  V30 66576 H 6297.12 -2.83836 -3.63641 0
M  V30 66577 H 6295.36 -2.72353 -3.37648 0
M  V30 66578 H 6296.03 -2.38988 -4.97583 0
M  V30 66579 H 6298.51 -0.67016 -4.10668 0
M  V30 66580 H 6297.39 -0.442821 -5.47111 0
M  V30 66581 H 6297.65 0.870681 -4.33442 0
M  V30 66582 N 6296.71 1.4417 -0.636607 0
M  V30 66583 C 6298.12 1.85339 -0.22502 0
M  V30 66584 C 6298.47 1.53275 1.22479 0
M  V30 66585 O 6297.59 0.973509 1.93266 0
M  V30 66586 C 6298.19 3.36411 -0.40161 0
M  V30 66587 C 6296.75 3.76374 -0.0444834 0
M  V30 66588 C 6295.89 2.67993 -0.712398 0
M  V30 66589 H 6298.85 1.34559 -0.841403 0
M  V30 66590 H 6298.87 3.78814 0.357831 0
M  V30 66591 H 6298.38 3.59717 -1.45689 0
M  V30 66592 H 6296.48 3.58682 1.00885 0
M  V30 66593 H 6296.59 4.76902 -0.458364 0
M  V30 66594 H 6294.96 2.54274 -0.147181 0
M  V30 66595 H 6295.74 2.9413 -1.77038 0
M  V30 66596 N 6298.18 0.377489 1.53012 0
M  V30 66597 C 6299.15 -0.451138 2.24716 0
M  V30 66598 C 6300.15 -0.999963 1.25926 0
M  V30 66599 O 6301.34 -0.883831 1.50113 0
M  V30 66600 C 6298.47 -1.63174 2.99311 0
M  V30 66601 H 6299.66 0.176463 2.9938 0
M  V30 66602 H 6297.22 0.129385 1.55764 0
M  V30 66603 H 6297.95 -2.2971 2.28918 0
M  V30 66604 H 6297.74 -1.24504 3.71808 0
M  V30 66605 H 6299.23 -2.21868 3.53786 0
M  V30 66606 N 6299.66 -1.57237 0.106977 0
M  V30 66607 C 6300.61 -2.15915 -0.86507 0
M  V30 66608 C 6301.6 -1.10514 -1.28386 0
M  V30 66609 O 6302.81 -1.28839 -1.257 0
M  V30 66610 H 6299.19 -0.690848 -0.297041 0
M  V30 66611 H 6301.16 -2.96392 -0.345573 0
M  V30 66612 C 6299.91 -2.76362 -2.10996 0
M  V30 66613 H 6299.23 -3.57158 -1.79661 0
M  V30 66614 H 6300.67 -3.20973 -2.77042 0
M  V30 66615 C 6299.13 -1.72845 -2.89182 0
M  V30 66616 O 6299.66 -1.17454 -3.84145 0
M  V30 66617 N 6297.86 -1.43062 -2.52946 0
M  V30 66618 H 6297.41 -1.88295 -1.75792 0
M  V30 66619 H 6297.37 -0.740395 -3.05558 0
M  V30 66620 N 6301.14 0.166763 -1.56715 0
M  V30 66621 C 6302.37 0.902142 -1.86752 0
M  V30 66622 C 6302.79 1.74836 -0.693828 0
M  V30 66623 O 6302.15 1.7775 0.357018 0
M  V30 66624 C 6302.2 1.75096 -3.15236 0
M  V30 66625 O 6301.3 2.85308 -2.9778 0
M  V30 66626 H 6300.64 0.252453 -0.614136 0
M  V30 66627 H 6303.17 0.163531 -2.03945 0
M  V30 66628 H 6303.18 2.14997 -3.46757 0
M  V30 66629 H 6301.86 1.12941 -4.00271 0
M  V30 66630 H 6300.43 2.48957 -2.77624 0
M  V30 66631 N 6302.62 1.51464 0.43547 0
M  V30 66632 C 6303.85 1.68035 1.20713 0
M  V30 66633 C 6304.26 0.378492 1.84967 0
M  V30 66634 O 6303.62 -0.643174 1.70791 0
M  V30 66635 C 6303.67 2.79734 2.28979 0
M  V30 66636 O 6303.39 4.04876 1.67353 0
M  V30 66637 C 6304.89 3.0759 3.19223 0
M  V30 66638 H 6302.11 0.563843 0.363762 0
M  V30 66639 H 6304.66 1.97889 0.515755 0
M  V30 66640 H 6302.81 2.52473 2.9383 0
M  V30 66641 H 6303.22 4.66923 2.3892 0
M  V30 66642 H 6304.7 3.89323 3.9132 0
M  V30 66643 H 6305.18 2.20072 3.80085 0
M  V30 66644 H 6305.78 3.36516 2.60071 0
M  V30 66645 N 6304.1 -0.691035 1.41642 0
M  V30 66646 C 6305.34 -1.45324 1.41452 0
M  V30 66647 C 6305.68 -1.94184 0.025044 0
M  V30 66648 O 6304.95 -1.69834 -0.947983 0
M  V30 66649 C 6305.23 -2.6619 2.42517 0
M  V30 66650 C 6305.09 -2.23067 3.90591 0
M  V30 66651 C 6306.41 -3.68393 2.40779 0
M  V30 66652 H 6303.52 -0.527097 0.515109 0
M  V30 66653 H 6306.17 -0.786697 1.72948 0
M  V30 66654 H 6304.32 -3.23059 2.1579 0
M  V30 66655 H 6305.99 -1.71491 4.28239 0
M  V30 66656 H 6304.23 -1.54804 4.05238 0
M  V30 66657 H 6304.9 -3.09812 4.56859 0
M  V30 66658 H 6307.38 -3.21208 2.64509 0
M  V30 66659 H 6306.25 -4.50565 3.135 0
M  V30 66660 H 6306.52 -4.18403 1.42798 0
M  V30 66661 N 6305.57 -1.27545 -0.925744 0
M  V30 66662 C 6306.5 -1.12959 -2.04359 0
M  V30 66663 C 6307.49 -0.0305359 -1.70073 0
M  V30 66664 O 6308.67 -0.205375 -1.93111 0
M  V30 66665 C 6305.8 -0.778073 -3.38472 0
M  V30 66666 C 6304.75 -1.83058 -3.86877 0
M  V30 66667 C 6304.08 -1.33298 -5.17818 0
M  V30 66668 C 6305.38 -3.23502 -4.10053 0
M  V30 66669 H 6307.07 -2.0647 -2.16819 0
M  V30 66670 H 6304.62 -0.994083 -1.04182 0
M  V30 66671 H 6306.57 -0.662848 -4.16154 0
M  V30 66672 H 6305.3 0.192737 -3.26031 0
M  V30 66673 H 6303.96 -1.93474 -3.11389 0
M  V30 66674 H 6303.6 -0.351575 -5.0177 0
M  V30 66675 H 6303.3 -2.03667 -5.51175 0
M  V30 66676 H 6304.83 -1.23074 -5.98068 0
M  V30 66677 H 6306.24 -3.16075 -4.78298 0
M  V30 66678 H 6304.64 -3.91599 -4.5472 0
M  V30 66679 H 6305.71 -3.6841 -3.15281 0
M  V30 66680 N 6307.05 1.13251 -1.09599 0
M  V30 66681 C 6308.28 1.88949 -0.85517 0
M  V30 66682 C 6308.7 1.7867 0.588111 0
M  V30 66683 O 6308.06 1.13549 1.41337 0
M  V30 66684 C 6308.11 3.36456 -1.29729 0
M  V30 66685 O 6307.21 4.09862 -0.456861 0
M  V30 66686 H 6306.55 0.587421 -0.309568 0
M  V30 66687 H 6309.08 1.43277 -1.46058 0
M  V30 66688 H 6309.09 3.87287 -1.28347 0
M  V30 66689 H 6307.77 3.43255 -2.34838 0
M  V30 66690 H 6306.35 3.6904 -0.535155 0
M  V30 66691 N 6308.53 0.883447 1.3051 0
M  V30 66692 C 6309.78 0.501121 1.96201 0
M  V30 66693 C 6310.11 -0.949394 1.69755 0
M  V30 66694 O 6309.36 -1.68568 0.994157 0
M  V30 66695 C 6309.66 0.720778 3.50056 0
M  V30 66696 C 6309.33 2.14614 3.96549 0
M  V30 66697 C 6307.99 2.53592 4.08956 0
M  V30 66698 C 6310.34 3.07511 4.20817 0
M  V30 66699 C 6307.67 3.8468 4.42988 0
M  V30 66700 C 6310.02 4.38129 4.56318 0
M  V30 66701 C 6308.68 4.77002 4.66932 0
M  V30 66702 H 6307.95 0.183373 0.717952 0
M  V30 66703 H 6310.6 1.11901 1.55404 0
M  V30 66704 H 6308.91 0.0198459 3.91795 0
M  V30 66705 H 6310.6 0.404582 3.98954 0
M  V30 66706 H 6307.19 1.83358 3.87399 0
M  V30 66707 H 6311.38 2.78618 4.10714 0
M  V30 66708 H 6306.63 4.14541 4.49406 0
M  V30 66709 H 6310.81 5.1015 4.74046 0
M  V30 66710 H 6308.43 5.78617 4.93058 0
M  V30 66711 N 6310.01 -1.43831 0.644244 0
M  V30 66712 C 6311.25 -2.03792 0.15748 0
M  V30 66713 C 6311.61 -1.4967 -1.20262 0
M  V30 66714 O 6312.81 -2.01218 -1.78226 0
M  V30 66715 C 6311.08 -3.57052 0.15764 0
M  V30 66716 S 6312.64 -4.38014 -0.262589 0
M  V30 66717 H 6309.46 -0.707786 0.0675296 0
M  V30 66718 H 6312.06 -1.76027 0.850572 0
M  V30 66719 H 6310.77 -3.93946 1.15041 0
M  V30 66720 H 6310.3 -3.89447 -0.556279 0
M  V30 66721 H 6312.31 -4.72868 -1.50367 0
M  V30 66722 N 6311.49 -0.385598 -1.5281 0
M  V30 66723 C 6312.45 0.439215 -2.24952 0
M  V30 66724 C 6313.45 0.993271 -1.26455 0
M  V30 66725 O 6314.64 0.875858 -1.5058 0
M  V30 66726 C 6311.77 1.61585 -3.00172 0
M  V30 66727 H 6312.97 -0.192338 -2.99283 0
M  V30 66728 H 6310.52 -0.137644 -1.55693 0
M  V30 66729 H 6311.25 2.28493 -2.30133 0
M  V30 66730 H 6311.04 1.22531 -3.72463 0
M  V30 66731 H 6312.53 2.19988 -3.54958 0
M  V30 66732 N 6312.97 1.57178 -0.115314 0
M  V30 66733 C 6314.21 1.95068 0.543576 0
M  V30 66734 C 6314.54 0.998377 1.66921 0
M  V30 66735 O 6313.8 0.0215865 1.95688 0
M  V30 66736 C 6314.09 3.39395 1.12007 0
M  V30 66737 C 6313.76 4.5075 0.116165 0
M  V30 66738 C 6312.42 4.80934 -0.159894 0
M  V30 66739 C 6314.77 5.18094 -0.568198 0
M  V30 66740 C 6312.1 5.7578 -1.12666 0
M  V30 66741 C 6314.45 6.13979 -1.52357 0
M  V30 66742 C 6313.12 6.42557 -1.80766 0
M  V30 66743 H 6312.39 0.713804 0.198909 0
M  V30 66744 H 6315.04 1.905 -0.195438 0
M  V30 66745 H 6313.34 3.40639 1.93577 0
M  V30 66746 H 6315.04 3.66023 1.63792 0
M  V30 66747 H 6311.63 4.27237 0.341513 0
M  V30 66748 H 6315.81 4.94933 -0.368087 0
M  V30 66749 H 6311.07 5.96229 -1.35355 0
M  V30 66750 H 6315.24 6.65248 -2.05956 0
M  V30 66751 H 6312.87 7.15858 -2.55834 0
M  V30 66752 N 6314.44 -0.15845 1.56801 0
M  V30 66753 C 6315.41 -1.17979 1.96503 0
M  V30 66754 C 6316.41 -1.36487 0.850175 0
M  V30 66755 O 6317.6 -1.33674 1.11701 0
M  V30 66756 C 6314.73 -2.54237 2.27104 0
M  V30 66757 H 6315.92 -0.839476 2.87911 0
M  V30 66758 H 6313.47 -0.401378 1.51058 0
M  V30 66759 H 6314.21 -2.93261 1.38451 0
M  V30 66760 H 6313.99 -2.42168 3.08378 0
M  V30 66761 H 6315.48 -3.27819 2.58697 0
M  V30 66762 N 6315.92 -1.51693 -0.427432 0
M  V30 66763 C 6317.17 -1.65095 -1.17777 0
M  V30 66764 C 6317.5 -0.370851 -1.90626 0
M  V30 66765 O 6316.78 0.63 -1.84014 0
M  V30 66766 C 6317.06 -2.86091 -2.18687 0
M  V30 66767 C 6316.91 -4.24103 -1.49855 0
M  V30 66768 C 6318.23 -3.02602 -3.19563 0
M  V30 66769 H 6315.35 -0.600832 -0.426814 0
M  V30 66770 H 6317.99 -1.84203 -0.465746 0
M  V30 66771 H 6316.14 -2.6993 -2.7941 0
M  V30 66772 H 6317.81 -4.51953 -0.923934 0
M  V30 66773 H 6316.06 -4.26346 -0.800744 0
M  V30 66774 H 6316.73 -5.04776 -2.23396 0
M  V30 66775 H 6319.2 -3.17539 -2.68902 0
M  V30 66776 H 6318.08 -3.88808 -3.87453 0
M  V30 66777 H 6318.34 -2.15106 -3.8624 0
M  V30 66778 N 6317.4 0.683514 -1.42007 0
M  V30 66779 C 6318.68 1.43889 -1.32496 0
M  V30 66780 C 6319.06 2.11059 0.0417959 0
M  V30 66781 O 6318.4 2.02594 1.05679 0
M  V30 66782 C 6318.61 2.44848 -2.48698 0
M  V30 66783 C 6319.96 3.09747 -2.90416 0
M  V30 66784 O 6320.99 2.55174 -2.48525 0
M  V30 66785 O 6319.85 4.0862 -3.62894 0
M  V30 66786 H 6316.94 0.641386 -0.522067 0
M  V30 66787 H 6319.49 0.712973 -1.53996 0
M  V30 66788 H 6318.26 1.93952 -3.3985 0
M  V30 66789 H 6317.88 3.24933 -2.29139 0
M  V30 66790 N 6318.88 1.28034 0.918967 0
M  V30 66791 C 6319.84 1.11541 2.00228 0
M  V30 66792 C 6320.84 0.0566798 1.607 0
M  V30 66793 O 6322.03 0.30202 1.71562 0
M  V30 66794 C 6319.16 0.701488 3.33604 0
M  V30 66795 H 6320.36 2.07747 2.16289 0
M  V30 66796 H 6317.91 1.10946 1.10094 0
M  V30 66797 H 6318.64 -0.261569 3.23243 0
M  V30 66798 H 6318.43 1.46623 3.63654 0
M  V30 66799 H 6319.92 0.60859 4.13142 0
M  V30 66800 N 6320.36 -1.12669 1.10198 0
M  V30 66801 C 6321.32 -2.16511 0.75205 0
M  V30 66802 C 6322.32 -1.59256 -0.222296 0
M  V30 66803 O 6323.51 -1.742 0.000543984 0
M  V30 66804 C 6320.64 -3.40711 0.113541 0
M  V30 66805 H 6321.83 -2.4898 1.6718 0
M  V30 66806 H 6319.39 -1.27634 0.902185 0
M  V30 66807 H 6320.12 -3.13839 -0.817052 0
M  V30 66808 H 6319.91 -3.83542 0.814734 0
M  V30 66809 H 6321.4 -4.1744 -0.115609 0
M  V30 66810 N 6321.83 -0.890356 -1.3004 0
M  V30 66811 C 6322.78 -0.35943 -2.27984 0
M  V30 66812 C 6323.75 0.553345 -1.56612 0
M  V30 66813 O 6324.94 0.480604 -1.84648 0
M  V30 66814 C 6322.08 0.41529 -3.42592 0
M  V30 66815 C 6321.19 -0.527314 -4.2877 0
M  V30 66816 C 6320.32 0.263534 -5.30546 0
M  V30 66817 C 6319.36 -0.674196 -6.08376 0
M  V30 66818 N 6318.5 0.0816622 -7.02053 0
M  V30 66819 H 6323.34 -1.19978 -2.7278 0
M  V30 66820 H 6320.88 -0.602995 -1.34173 0
M  V30 66821 H 6322.83 0.880429 -4.07804 0
M  V30 66822 H 6321.46 1.22017 -2.9885 0
M  V30 66823 H 6320.52 -1.11095 -3.63816 0
M  V30 66824 H 6321.83 -1.24549 -4.83 0
M  V30 66825 H 6320.98 0.790289 -6.01531 0
M  V30 66826 H 6319.72 1.0149 -4.77023 0
M  V30 66827 H 6318.73 -1.21253 -5.36263 0
M  V30 66828 H 6319.95 -1.42474 -6.63986 0
M  V30 66829 H 6317.9 0.815467 -6.50912 0
M  V30 66830 H 6317.81 -0.576786 -7.53797 0
M  V30 66831 H 6319.08 0.588985 -7.77272 0
M  V30 66832 N 6323.31 1.43487 -0.651863 0
M  V30 66833 C 6324.27 2.29179 0.0311131 0
M  V30 66834 C 6325.27 1.42137 0.751903 0
M  V30 66835 O 6326.46 1.63783 0.593358 0
M  V30 66836 C 6323.6 3.24171 1.05479 0
M  V30 66837 H 6324.79 2.91058 -0.722843 0
M  V30 66838 H 6322.34 1.50744 -0.413021 0
M  V30 66839 H 6323.08 2.67184 1.83802 0
M  V30 66840 H 6322.86 3.88341 0.541616 0
M  V30 66841 H 6324.35 3.88492 1.53179 0
M  V30 66842 N 6324.79 0.393696 1.52603 0
M  V30 66843 C 6326.02 -0.186756 2.05754 0
M  V30 66844 C 6326.43 -1.40699 1.26493 0
M  V30 66845 O 6325.77 -1.81136 0.305858 0
M  V30 66846 C 6325.83 -0.617133 3.54163 0
M  V30 66847 C 6325.5 0.490244 4.54363 0
M  V30 66848 C 6326.49 1.34902 5.02093 0
M  V30 66849 C 6324.18 0.658529 4.97965 0
M  V30 66850 C 6326.17 2.36118 5.92053 0
M  V30 66851 C 6323.86 1.67401 5.87724 0
M  V30 66852 C 6324.86 2.52375 6.34662 0
M  V30 66853 O 6324.55 3.52187 7.22648 0
M  V30 66854 H 6324.28 -0.03076 0.6753 0
M  V30 66855 H 6326.83 0.558709 1.97655 0
M  V30 66856 H 6325.06 -1.41464 3.59895 0
M  V30 66857 H 6326.75 -1.12375 3.90034 0
M  V30 66858 H 6327.52 1.23034 4.69135 0
M  V30 66859 H 6323.4 0.00682859 4.60999 0
M  V30 66860 H 6326.94 3.02478 6.28612 0
M  V30 66861 H 6322.84 1.79306 6.20096 0
M  V30 66862 H 6323.6 3.48247 7.4072 0
M  V30 66863 N 6326.27 -1.57114 0.123648 0
M  V30 66864 C 6327.22 -2.15558 -0.824836 0
M  V30 66865 C 6328.19 -1.08186 -1.26036 0
M  V30 66866 O 6329.37 -1.36116 -1.33705 0
M  V30 66867 C 6326.51 -2.76295 -2.06773 0
M  V30 66868 C 6325.62 -3.97989 -1.68015 0
M  V30 66869 C 6324.76 -4.46798 -2.87306 0
M  V30 66870 C 6323.8 -5.61012 -2.44809 0
M  V30 66871 N 6322.93 -6.04544 -3.5703 0
M  V30 66872 H 6327.77 -2.96281 -0.319622 0
M  V30 66873 H 6325.31 -1.46373 -0.146068 0
M  V30 66874 H 6327.27 -3.09642 -2.79603 0
M  V30 66875 H 6325.9 -1.98254 -2.54745 0
M  V30 66876 H 6324.95 -3.70772 -0.850411 0
M  V30 66877 H 6326.26 -4.808 -1.32787 0
M  V30 66878 H 6325.42 -4.82078 -3.68355 0
M  V30 66879 H 6324.16 -3.62946 -3.25763 0
M  V30 66880 H 6323.16 -5.25331 -1.62195 0
M  V30 66881 H 6324.39 -6.46634 -2.07464 0
M  V30 66882 H 6322.33 -5.23632 -3.95152 0
M  V30 66883 H 6322.25 -6.82223 -3.25742 0
M  V30 66884 H 6323.52 -6.44464 -4.38505 0
M  V30 66885 N 6327.75 0.150132 -1.56883 0
M  V30 66886 C 6329.02 0.89178 -1.74088 0
M  V30 66887 C 6329.4 1.99476 -0.690822 0
M  V30 66888 O 6328.75 2.26642 0.290798 0
M  V30 66889 C 6328.96 1.43711 -3.18038 0
M  V30 66890 C 6330.31 1.90175 -3.7963 0
M  V30 66891 O 6331.33 1.5346 -3.21448 0
M  V30 66892 O 6330.19 2.57875 -4.81833 0
M  V30 66893 H 6327.29 0.421216 -0.711692 0
M  V30 66894 H 6329.83 0.136302 -1.69152 0
M  V30 66895 H 6328.6 0.644287 -3.85959 0
M  V30 66896 H 6328.23 2.25618 -3.27387 0
M  V30 66897 N 6329.22 1.51918 0.419381 0
M  V30 66898 C 6330.45 1.69061 1.18752 0
M  V30 66899 C 6330.86 0.395232 1.85026 0
M  V30 66900 O 6330.21 -0.637754 1.72274 0
M  V30 66901 C 6330.27 2.76265 2.30039 0
M  V30 66902 C 6329.93 4.18328 1.83986 0
M  V30 66903 C 6330.93 5.02513 1.33329 0
M  V30 66904 C 6328.61 4.64515 1.91131 0
M  V30 66905 C 6330.61 6.30953 0.904276 0
M  V30 66906 C 6328.29 5.92947 1.47841 0
M  V30 66907 C 6329.29 6.75994 0.975729 0
M  V30 66908 O 6328.98 8.02023 0.549036 0
M  V30 66909 H 6328.71 0.57009 0.363282 0
M  V30 66910 H 6331.27 1.99199 0.5009 0
M  V30 66911 H 6329.5 2.41481 3.02033 0
M  V30 66912 H 6331.19 2.82108 2.91839 0
M  V30 66913 H 6331.95 4.68025 1.2719 0
M  V30 66914 H 6327.83 3.99984 2.29202 0
M  V30 66915 H 6331.37 6.95724 0.511229 0
M  V30 66916 H 6327.27 6.26945 1.53656 0
M  V30 66917 H 6328.04 8.15726 0.673271 0
M  V30 66918 N 6330.7 -0.675973 1.42367 0
M  V30 66919 C 6331.63 -1.8016 1.48542 0
M  V30 66920 C 6332.61 -1.66624 0.342108 0
M  V30 66921 O 6333.8 -1.86063 0.556255 0
M  V30 66922 C 6330.93 -3.18446 1.38597 0
M  V30 66923 C 6329.88 -3.46715 2.50943 0
M  V30 66924 C 6329.21 -4.84564 2.26057 0
M  V30 66925 C 6330.51 -3.43726 3.93255 0
M  V30 66926 H 6332.2 -1.75249 2.42751 0
M  V30 66927 H 6329.75 -0.841715 1.16838 0
M  V30 66928 H 6331.7 -3.96924 1.41525 0
M  V30 66929 H 6330.43 -3.24031 0.408817 0
M  V30 66930 H 6329.08 -2.70598 2.4733 0
M  V30 66931 H 6328.73 -4.86798 1.26637 0
M  V30 66932 H 6328.43 -5.04441 3.01351 0
M  V30 66933 H 6329.96 -5.65327 2.30732 0
M  V30 66934 H 6331.37 -4.12175 3.98478 0
M  V30 66935 H 6329.77 -3.75138 4.68392 0
M  V30 66936 H 6330.84 -2.42322 4.2001 0
M  V30 66937 N 6332.18 -1.2852 -0.912164 0
M  V30 66938 C 6333.14 -1.12601 -1.99634 0
M  V30 66939 C 6334.14 -0.0652013 -1.60668 0
M  V30 66940 O 6335.33 -0.311114 -1.71399 0
M  V30 66941 C 6332.47 -0.71917 -3.33228 0
M  V30 66942 H 6333.66 -2.08891 -2.15185 0
M  V30 66943 H 6331.21 -1.11529 -1.09504 0
M  V30 66944 H 6331.95 0.244422 -3.23378 0
M  V30 66945 H 6331.73 -1.48549 -3.62871 0
M  V30 66946 H 6333.22 -0.630491 -4.12813 0
M  V30 66947 N 6333.66 1.12083 -1.10794 0
M  V30 66948 C 6334.88 1.88031 -0.875163 0
M  V30 66949 C 6335.31 1.79283 0.569128 0
M  V30 66950 O 6334.67 1.15042 1.40125 0
M  V30 66951 C 6334.71 3.35061 -1.3329 0
M  V30 66952 O 6333.82 4.09354 -0.500307 0
M  V30 66953 H 6333.16 0.584105 -0.315781 0
M  V30 66954 H 6335.69 1.4172 -1.47569 0
M  V30 66955 H 6335.7 3.85904 -1.32447 0
M  V30 66956 H 6334.37 3.40745 -2.38465 0
M  V30 66957 H 6332.95 3.68452 -0.574267 0
M  V30 66958 N 6335.14 0.89724 1.29566 0
M  V30 66959 C 6336.38 0.520872 1.95272 0
M  V30 66960 C 6336.71 -0.935441 1.71098 0
M  V30 66961 O 6335.98 -1.65929 1.04137 0
M  V30 66962 H 6334.56 0.189636 0.722528 0
M  V30 66963 H 6337.22 1.143 1.57866 0
M  V30 66964 H 6336.31 0.7014 3.04116 0
M  V30 66965 N 6336.61 -1.43139 0.659463 0
M  V30 66966 C 6337.86 -2.0134 0.175058 0
M  V30 66967 C 6338.18 -1.52327 -1.21744 0
M  V30 66968 O 6337.45 -0.738487 -1.81447 0
M  V30 66969 H 6336.03 -0.744445 0.0617275 0
M  V30 66970 H 6338.7 -1.75265 0.852533 0
M  V30 66971 H 6337.79 -3.11666 0.164488 0
M  V30 66972 N 6338.09 -0.401784 -1.52392 0
M  V30 66973 C 6339.02 0.462571 -2.24484 0
M  V30 66974 C 6340.04 1.01634 -1.27179 0
M  V30 66975 O 6341.23 0.916531 -1.53173 0
M  V30 66976 C 6338.33 1.65507 -2.95737 0
M  V30 66977 C 6337.5 1.22649 -4.19852 0
M  V30 66978 C 6336.56 2.28507 -4.73995 0
M  V30 66979 O 6335.58 1.894 -5.36765 0
M  V30 66980 N 6336.79 3.6058 -4.54931 0
M  V30 66981 H 6339.55 -0.155129 -2.99298 0
M  V30 66982 H 6337.11 -0.228781 -1.60275 0
M  V30 66983 H 6339.1 2.35874 -3.28855 0
M  V30 66984 H 6337.67 2.17884 -2.24154 0
M  V30 66985 H 6336.89 0.351221 -3.92632 0
M  V30 66986 H 6338.18 0.916986 -5.00469 0
M  V30 66987 H 6337.58 3.95108 -4.04854 0
M  V30 66988 H 6336.14 4.26945 -4.92505 0
M  V30 66989 N 6339.57 1.57046 -0.131978 0
M  V30 66990 C 6340.98 1.82553 0.391311 0
M  V30 66991 C 6341.33 1.04988 1.65746 0
M  V30 66992 O 6340.46 0.290475 2.14442 0
M  V30 66993 C 6341.05 3.31132 0.716727 0
M  V30 66994 C 6339.61 3.57273 1.1846 0
M  V30 66995 C 6338.76 2.76578 0.199924 0
M  V30 66996 H 6341.71 1.54634 -0.356917 0
M  V30 66997 H 6341.73 3.46468 1.5729 0
M  V30 66998 H 6341.24 3.87558 -0.20498 0
M  V30 66999 H 6339.34 3.06218 2.12276 0
M  V30 67000 H 6339.46 4.65802 1.12095 0
M  V30 67001 H 6337.82 2.45188 0.689569 0
M  V30 67002 H 6338.6 3.35769 -0.715108 0
M  V30 67003 N 6341.05 -0.14181 1.56961 0
M  V30 67004 C 6342.3 -0.852001 1.82822 0
M  V30 67005 C 6342.61 -1.82101 0.714051 0
M  V30 67006 O 6343.82 -2.57572 0.858411 0
M  V30 67007 C 6342.27 -1.56577 3.24055 0
M  V30 67008 C 6341.88 -0.638915 4.43421 0
M  V30 67009 C 6343.63 -2.26244 3.59185 0
M  V30 67010 C 6341.53 -1.35461 5.75677 0
M  V30 67011 H 6340.46 -0.32191 0.681828 0
M  V30 67012 H 6343.11 -0.104727 1.83201 0
M  V30 67013 H 6341.5 -2.35886 3.18078 0
M  V30 67014 H 6342.67 0.119321 4.60645 0
M  V30 67015 H 6340.98 -0.0503949 4.1637 0
M  V30 67016 H 6343.58 -2.80439 4.55256 0
M  V30 67017 H 6343.92 -3.02982 2.85496 0
M  V30 67018 H 6344.46 -1.53848 3.66845 0
M  V30 67019 H 6341.2 -0.628985 6.52475 0
M  V30 67020 H 6340.72 -2.08543 5.62379 0
M  V30 67021 H 6342.4 -1.8941 6.18654 0
M  V30 67022 N 6342.53 -1.52138 -0.411319 0
M  V30 67023 C 6343.76 -1.69935 -1.18025 0
M  V30 67024 C 6344.17 -0.407871 -1.84342 0
M  V30 67025 O 6343.53 0.615921 -1.71793 0
M  V30 67026 C 6343.58 -2.83341 -2.245 0
M  V30 67027 O 6343.3 -4.07487 -1.60891 0
M  V30 67028 C 6344.8 -3.12629 -3.14289 0
M  V30 67029 H 6342.02 -0.569558 -0.354745 0
M  V30 67030 H 6344.56 -1.98685 -0.484208 0
M  V30 67031 H 6342.72 -2.57116 -2.89776 0
M  V30 67032 H 6343.13 -4.70665 -2.31462 0
M  V30 67033 H 6344.61 -3.95499 -3.85077 0
M  V30 67034 H 6345.08 -2.26091 -3.76536 0
M  V30 67035 H 6345.69 -3.40611 -2.54685 0
M  V30 67036 N 6344.01 0.668413 -1.42723 0
M  V30 67037 C 6344.95 1.80305 -1.46945 0
M  V30 67038 C 6345.95 1.6586 -0.344521 0
M  V30 67039 O 6347.15 1.72391 -0.517828 0
M  V30 67040 H 6343.53 0.594624 -0.460354 0
M  V30 67041 H 6345.5 1.73864 -2.42516 0
M  V30 67042 C 6344.25 3.18493 -1.39491 0
M  V30 67043 H 6343.57 3.30238 -2.2535 0
M  V30 67044 H 6345.01 3.97884 -1.46506 0
M  V30 67045 C 6343.47 3.36719 -0.110504 0
M  V30 67046 O 6344 3.92942 0.834216 0
M  V30 67047 N 6342.21 2.90589 -0.0255904 0
M  V30 67048 H 6341.75 2.4502 -0.795163 0
M  V30 67049 H 6341.71 3.03161 0.833129 0
M  V30 67050 N 6345.48 1.29002 0.905335 0
M  V30 67051 C 6346.72 1.17907 1.66965 0
M  V30 67052 C 6347.09 -0.266283 1.90145 0
M  V30 67053 O 6348.29 -0.500095 2.64107 0
M  V30 67054 C 6346.56 1.9642 2.98586 0
M  V30 67055 S 6348.12 2.01796 3.89646 0
M  V30 67056 H 6344.94 0.420525 0.573306 0
M  V30 67057 H 6347.54 1.63213 1.07618 0
M  V30 67058 H 6346.24 3.00583 2.79424 0
M  V30 67059 H 6345.77 1.51697 3.62976 0
M  V30 67060 H 6347.79 1.13056 4.83149 0
M  V30 67061 N 6346.96 -1.11493 1.11387 0
M  V30 67062 C 6348.21 -1.83491 0.863656 0
M  V30 67063 C 6348.54 -1.84398 -0.609194 0
M  V30 67064 O 6347.82 -1.29665 -1.44973 0
M  V30 67065 C 6348.1 -3.30696 1.42521 0
M  V30 67066 C 6347.95 -3.38186 2.96564 0
M  V30 67067 C 6349.27 -4.26752 1.07568 0
M  V30 67068 H 6346.39 -0.666198 0.315196 0
M  V30 67069 H 6349.03 -1.3074 1.37866 0
M  V30 67070 H 6347.18 -3.75748 0.987185 0
M  V30 67071 H 6348.85 -3.01696 3.48966 0
M  V30 67072 H 6347.1 -2.78424 3.3266 0
M  V30 67073 H 6347.77 -4.41793 3.30943 0
M  V30 67074 H 6350.24 -3.89876 1.45381 0
M  V30 67075 H 6349.12 -5.28138 1.49537 0
M  V30 67076 H 6349.38 -4.42098 -0.0136219 0
M  V30 67077 N 6348.44 -0.904098 -1.29088 0
M  V30 67078 C 6349.39 -0.38359 -2.2759 0
M  V30 67079 C 6350.36 0.536703 -1.5719 0
M  V30 67080 O 6351.54 0.460992 -1.85147 0
M  V30 67081 C 6348.68 0.37893 -3.43013 0
M  V30 67082 C 6347.79 -0.572761 -4.28186 0
M  V30 67083 C 6346.93 0.207247 -5.30796 0
M  V30 67084 C 6345.97 -0.738684 -6.07626 0
M  V30 67085 N 6345.11 0.00719555 -7.021 0
M  V30 67086 H 6349.95 -1.22865 -2.71493 0
M  V30 67087 H 6347.48 -0.617192 -1.33526 0
M  V30 67088 H 6349.44 0.837126 -4.08715 0
M  V30 67089 H 6348.07 1.18841 -3.00128 0
M  V30 67090 H 6347.12 -1.14948 -3.62617 0
M  V30 67091 H 6348.43 -1.29665 -4.81652 0
M  V30 67092 H 6347.59 0.726444 -6.02335 0
M  V30 67093 H 6346.33 0.964249 -4.78073 0
M  V30 67094 H 6345.33 -1.26934 -5.34947 0
M  V30 67095 H 6346.56 -1.49508 -6.62438 0
M  V30 67096 H 6344.5 0.746383 -6.5174 0
M  V30 67097 H 6344.42 -0.656703 -7.53142 0
M  V30 67098 H 6345.69 0.506512 -7.77853 0
M  V30 67099 N 6349.92 1.42788 -0.667045 0
M  V30 67100 C 6350.85 2.28104 0.066097 0
M  V30 67101 C 6351.83 1.40623 0.816335 0
M  V30 67102 O 6353.01 1.70063 0.813061 0
M  V30 67103 C 6350.14 3.20318 1.10064 0
M  V30 67104 C 6349.19 4.24152 0.446869 0
M  V30 67105 S 6350.02 5.29643 -0.789817 0
M  V30 67106 C 6351.17 6.25425 0.243842 0
M  V30 67107 H 6351.41 2.89936 -0.657589 0
M  V30 67108 H 6348.94 1.47503 -0.45633 0
M  V30 67109 H 6350.9 3.73987 1.69246 0
M  V30 67110 H 6349.56 2.57637 1.79672 0
M  V30 67111 H 6348.75 4.88831 1.22722 0
M  V30 67112 H 6348.35 3.73932 -0.0711734 0
M  V30 67113 H 6350.65 6.68413 1.10592 0
M  V30 67114 H 6351.59 7.07142 -0.368269 0
M  V30 67115 H 6352 5.61452 0.585846 0
M  V30 67116 N 6351.4 0.40986 1.52177 0
M  V30 67117 C 6352.33 -0.406341 2.29937 0
M  V30 67118 C 6353.31 -1.04548 1.34178 0
M  V30 67119 O 6354.49 -1.05435 1.63086 0
M  V30 67120 C 6351.62 -1.52286 3.12132 0
M  V30 67121 C 6350.58 -1.00869 4.15944 0
M  V30 67122 C 6349.9 -2.21886 4.86488 0
M  V30 67123 C 6351.2 -0.062216 5.22263 0
M  V30 67124 H 6352.9 0.242511 2.98416 0
M  V30 67125 H 6350.44 0.118074 1.43515 0
M  V30 67126 H 6352.39 -2.10084 3.65298 0
M  V30 67127 H 6351.12 -2.1996 2.41423 0
M  V30 67128 H 6349.78 -0.453101 3.63789 0
M  V30 67129 H 6349.43 -2.88116 4.12308 0
M  V30 67130 H 6349.13 -1.88134 5.56668 0
M  V30 67131 H 6350.65 -2.80289 5.42467 0
M  V30 67132 H 6352.06 -0.549022 5.70665 0
M  V30 67133 H 6350.46 0.186528 5.9981 0
M  V30 67134 H 6351.53 0.882841 4.76795 0
M  V30 67135 N 6352.87 -1.56974 0.140305 0
M  V30 67136 C 6354.11 -1.97798 -0.515305 0
M  V30 67137 C 6354.48 -1.02303 -1.62475 0
M  V30 67138 O 6355.68 -1.32145 -2.34075 0
M  V30 67139 C 6353.95 -3.42695 -1.01465 0
M  V30 67140 S 6355.51 -4.0554 -1.6758 0
M  V30 67141 H 6352.33 -0.691149 -0.166834 0
M  V30 67142 H 6354.93 -1.94137 0.230435 0
M  V30 67143 H 6353.63 -4.0993 -0.196326 0
M  V30 67144 H 6353.16 -3.50053 -1.79517 0
M  V30 67145 H 6355.18 -3.98043 -2.96271 0
M  V30 67146 N 6354.35 0.133484 -1.57034 0
M  V30 67147 C 6355.58 0.858365 -1.88254 0
M  V30 67148 C 6355.99 1.74116 -0.729996 0
M  V30 67149 O 6355.35 1.80021 0.299766 0
M  V30 67150 C 6355.4 1.70386 -3.18827 0
M  V30 67151 O 6355.12 0.856624 -4.29644 0
M  V30 67152 C 6356.62 2.53516 -3.63655 0
M  V30 67153 H 6353.84 0.247516 -0.62368 0
M  V30 67154 H 6356.39 0.122217 -2.04134 0
M  V30 67155 H 6354.54 2.39292 -3.0466 0
M  V30 67156 H 6354.96 1.43839 -5.04391 0
M  V30 67157 H 6356.43 3.08394 -4.57818 0
M  V30 67158 H 6356.91 3.30194 -2.89601 0
M  V30 67159 H 6357.51 1.89877 -3.80561 0
M  V30 67160 N 6355.83 1.52354 0.403245 0
M  V30 67161 C 6356.78 1.72498 1.49092 0
M  V30 67162 C 6357.76 0.578918 1.50124 0
M  V30 67163 O 6358.96 0.836212 1.56002 0
M  V30 67164 C 6356.09 1.88439 2.86959 0
M  V30 67165 C 6355.17 3.08935 2.90552 0
M  V30 67166 N 6355.56 4.31539 2.63833 0
M  V30 67167 C 6353.86 3.08889 3.2172 0
M  V30 67168 C 6354.56 5.13049 2.74144 0
M  V30 67169 N 6353.54 4.48424 3.07273 0
M  V30 67170 H 6357.34 2.64929 1.27239 0
M  V30 67171 H 6354.85 1.50467 0.611027 0
M  V30 67172 H 6356.85 2.00989 3.65252 0
M  V30 67173 H 6355.51 0.972119 3.09806 0
M  V30 67174 H 6356.52 4.59913 2.38118 0
M  V30 67175 H 6353.2 2.2742 3.50123 0
M  V30 67176 H 6354.59 6.20743 2.57152 0
M  V30 67177 N 6357.31 -0.660835 1.43076 0
M  V30 67178 C 6358.54 -1.44873 1.47714 0
M  V30 67179 C 6358.95 -1.88572 0.0926813 0
M  V30 67180 O 6358.31 -1.59018 -0.895524 0
M  V30 67181 C 6358.36 -2.68871 2.41641 0
M  V30 67182 O 6358.08 -2.27002 3.74702 0
M  V30 67183 C 6359.58 -3.62303 2.55443 0
M  V30 67184 H 6356.8 -0.445309 0.501937 0
M  V30 67185 H 6359.35 -0.810816 1.87739 0
M  V30 67186 H 6357.5 -3.2882 2.04832 0
M  V30 67187 H 6357.91 -3.07176 4.25139 0
M  V30 67188 H 6359.39 -4.45996 3.25257 0
M  V30 67189 H 6359.87 -4.09142 1.59685 0
M  V30 67190 H 6360.47 -3.08241 2.93032 0
M  V30 67191 N 6358.79 -1.2948 -0.898481 0
M  V30 67192 C 6360.03 -1.1729 -1.64583 0
M  V30 67193 C 6360.36 0.27565 -1.93042 0
M  V30 67194 O 6359.63 1.18842 -1.55735 0
M  V30 67195 H 6358.21 -0.431089 -0.610058 0
M  V30 67196 H 6360.87 -1.62423 -1.07726 0
M  V30 67197 H 6359.96 -1.72385 -2.60173 0
M  V30 67198 N 6360.26 1.10901 -1.11976 0
M  V30 67199 C 6361.49 1.86552 -0.894765 0
M  V30 67200 C 6361.91 1.80436 0.555737 0
M  V30 67201 O 6361.26 1.18962 1.38399 0
M  V30 67202 C 6361.32 3.35143 -1.35504 0
M  V30 67203 O 6361.04 3.41144 -2.74868 0
M  V30 67204 C 6362.54 4.27683 -1.16627 0
M  V30 67205 H 6359.76 0.589749 -0.320057 0
M  V30 67206 H 6362.3 1.40227 -1.48851 0
M  V30 67207 H 6360.46 3.78952 -0.804626 0
M  V30 67208 H 6360.87 4.3371 -2.94951 0
M  V30 67209 H 6362.34 5.30162 -1.53727 0
M  V30 67210 H 6362.82 4.39071 -0.106373 0
M  V30 67211 H 6363.43 3.89674 -1.70395 0
M  V30 67212 N 6361.74 0.910931 1.28607 0
M  V30 67213 C 6362.99 0.541554 1.94709 0
M  V30 67214 C 6363.31 -0.917241 1.7208 0
M  V30 67215 O 6362.58 -1.64815 1.05891 0
M  V30 67216 H 6361.16 0.197288 0.720476 0
M  V30 67217 H 6363.82 1.15967 1.56645 0
M  V30 67218 H 6362.92 0.733617 3.03355 0
M  V30 67219 N 6363.22 -1.42432 0.674608 0
M  V30 67220 C 6364.15 -2.2916 -0.0427783 0
M  V30 67221 C 6365.17 -1.43669 -0.765698 0
M  V30 67222 O 6366.35 -1.67391 -0.619889 0
M  V30 67223 C 6363.45 -3.21087 -1.08427 0
M  V30 67224 C 6362.63 -4.35229 -0.435215 0
M  V30 67225 C 6361.69 -5.07878 -1.37647 0
M  V30 67226 O 6360.71 -5.62406 -0.876849 0
M  V30 67227 N 6361.91 -5.13374 -2.70976 0
M  V30 67228 H 6364.68 -2.91369 0.70172 0
M  V30 67229 H 6362.24 -1.53356 0.519008 0
M  V30 67230 H 6364.23 -3.66554 -1.71522 0
M  V30 67231 H 6362.8 -2.60331 -1.73051 0
M  V30 67232 H 6362.02 -3.9241 0.375241 0
M  V30 67233 H 6363.31 -5.08797 0.0169671 0
M  V30 67234 H 6362.71 -4.70483 -3.14106 0
M  V30 67235 H 6361.27 -5.62488 -3.29318 0
M  V30 67236 N 6364.7 -0.417924 -1.51958 0
M  V30 67237 C 6365.66 0.3914 -2.25833 0
M  V30 67238 C 6366.66 0.966225 -1.28533 0
M  V30 67239 O 6367.85 0.843721 -1.52404 0
M  V30 67240 C 6364.98 1.55181 -3.03532 0
M  V30 67241 H 6366.18 -0.255777 -2.98807 0
M  V30 67242 H 6363.73 -0.170637 -1.55366 0
M  V30 67243 H 6364.46 2.2356 -2.34928 0
M  V30 67244 H 6364.25 1.14603 -3.74978 0
M  V30 67245 H 6365.74 2.1241 -3.59544 0
M  V30 67246 N 6366.18 1.56898 -0.148628 0
M  V30 67247 C 6367.43 1.95352 0.502047 0
M  V30 67248 C 6367.74 1.03609 1.65905 0
M  V30 67249 O 6368.94 1.31649 2.37446 0
M  V30 67250 C 6367.4 3.47285 0.944531 0
M  V30 67251 C 6367.01 4.47615 -0.185631 0
M  V30 67252 C 6368.75 3.94602 1.5649 0
M  V30 67253 C 6366.66 5.90759 0.275213 0
M  V30 67254 H 6365.59 0.729322 0.191326 0
M  V30 67255 H 6368.24 1.82012 -0.233233 0
M  V30 67256 H 6366.62 3.55963 1.73512 0
M  V30 67257 H 6367.8 4.50634 -0.962599 0
M  V30 67258 H 6366.11 4.10224 -0.714517 0
M  V30 67259 H 6368.71 4.98987 1.92135 0
M  V30 67260 H 6369.05 3.36246 2.45447 0
M  V30 67261 H 6369.58 3.88848 0.839182 0
M  V30 67262 H 6366.32 6.52938 -0.579017 0
M  V30 67263 H 6365.84 5.91098 1.01802 0
M  V30 67264 H 6367.52 6.42906 0.726679 0
M  V30 67265 N 6367.65 -0.125154 1.57102 0
M  V30 67266 C 6368.88 -0.84837 1.88707 0
M  V30 67267 C 6369.3 -1.73727 0.73922 0
M  V30 67268 O 6368.65 -1.80178 -0.290215 0
M  V30 67269 C 6368.71 -1.68693 3.19726 0
M  V30 67270 O 6368.43 -0.833827 4.30092 0
M  V30 67271 C 6369.93 -2.51584 3.64994 0
M  V30 67272 H 6367.15 -0.244205 0.624984 0
M  V30 67273 H 6369.69 -0.11139 2.04196 0
M  V30 67274 H 6367.85 -2.37673 3.05925 0
M  V30 67275 H 6368.26 -1.41162 5.05147 0
M  V30 67276 H 6369.73 -3.05962 4.59447 0
M  V30 67277 H 6370.21 -3.28654 2.91348 0
M  V30 67278 H 6370.82 -1.87856 3.81563 0
M  V30 67279 N 6369.13 -1.52566 -0.395159 0
M  V30 67280 C 6370.38 -1.67556 -1.14248 0
M  V30 67281 C 6370.71 -0.411202 -1.89797 0
M  V30 67282 O 6369.99 0.590826 -1.85309 0
M  V30 67283 C 6370.27 -2.90665 -2.1257 0
M  V30 67284 C 6370.12 -4.27186 -1.40826 0
M  V30 67285 C 6371.44 -3.09312 -3.13072 0
M  V30 67286 H 6368.56 -0.60975 -0.413973 0
M  V30 67287 H 6371.2 -1.8515 -0.426569 0
M  V30 67288 H 6369.35 -2.75796 -2.73621 0
M  V30 67289 H 6371.02 -4.53811 -0.82786 0
M  V30 67290 H 6369.27 -4.27948 -0.71013 0
M  V30 67291 H 6369.94 -5.09401 -2.12638 0
M  V30 67292 H 6372.41 -3.23171 -2.62106 0
M  V30 67293 H 6371.29 -3.96939 -3.79119 0
M  V30 67294 H 6371.55 -2.23251 -3.81591 0
M  V30 67295 N 6370.61 0.653238 -1.43424 0
M  V30 67296 C 6371.84 1.44087 -1.4848 0
M  V30 67297 C 6372.25 1.88521 -0.10268 0
M  V30 67298 O 6371.61 1.5949 0.887078 0
M  V30 67299 C 6371.66 2.67586 -2.43064 0
M  V30 67300 O 6371.38 2.25011 -3.75901 0
M  V30 67301 C 6372.88 3.60944 -2.57361 0
M  V30 67302 H 6370.1 0.442641 -0.504292 0
M  V30 67303 H 6372.65 0.800848 -1.88167 0
M  V30 67304 H 6370.8 3.27729 -2.06573 0
M  V30 67305 H 6371.22 3.04917 -4.26762 0
M  V30 67306 H 6372.69 4.44264 -3.27617 0
M  V30 67307 H 6373.17 4.0829 -1.61852 0
M  V30 67308 H 6373.77 3.06682 -2.94663 0
M  V30 67309 N 6372.09 1.29955 0.891602 0
M  V30 67310 C 6373.5 1.16591 1.4582 0
M  V30 67311 C 6373.85 -0.23591 1.94777 0
M  V30 67312 O 6372.98 -1.13207 1.84426 0
M  V30 67313 C 6373.57 2.11045 2.65039 0
M  V30 67314 C 6372.13 2.0168 3.17809 0
M  V30 67315 C 6371.28 2.01507 1.905 0
M  V30 67316 H 6374.23 1.42321 0.702166 0
M  V30 67317 H 6374.25 1.68741 3.41038 0
M  V30 67318 H 6373.76 3.13062 2.29376 0
M  V30 67319 H 6371.86 1.0278 3.58144 0
M  V30 67320 H 6371.98 2.89742 3.81558 0
M  V30 67321 H 6370.34 1.46216 2.0855 0
M  V30 67322 H 6371.12 3.05243 1.57104 0
M  V30 67323 N 6373.57 -1.10306 1.12563 0
M  V30 67324 C 6374.48 -2.20254 0.807799 0
M  V30 67325 C 6375.49 -1.72801 -0.203936 0
M  V30 67326 O 6376.67 -2.01366 -0.0372058 0
M  V30 67327 C 6373.73 -3.45659 0.268511 0
M  V30 67328 C 6372.8 -4.0784 1.34035 0
M  V30 67329 C 6372.03 -5.27258 0.826697 0
M  V30 67330 O 6372.25 -5.69391 -0.339043 0
M  V30 67331 O 6371.19 -5.8033 1.5969 0
M  V30 67332 H 6375.01 -2.49876 1.72614 0
M  V30 67333 H 6372.6 -1.19068 0.902394 0
M  V30 67334 H 6374.48 -4.21391 -0.027284 0
M  V30 67335 H 6373.15 -3.1766 -0.622378 0
M  V30 67336 H 6372.06 -3.33785 1.68933 0
M  V30 67337 H 6373.39 -4.40044 2.20505 0
M  V30 67338 N 6375.05 -0.917739 -1.28122 0
M  V30 67339 C 6376.01 -0.413902 -2.25432 0
M  V30 67340 C 6377.01 0.461996 -1.5402 0
M  V30 67341 O 6378.2 0.264486 -1.7218 0
M  V30 67342 C 6375.33 0.40613 -3.38472 0
M  V30 67343 H 6376.52 -1.27354 -2.71516 0
M  V30 67344 H 6374.08 -0.697504 -1.39873 0
M  V30 67345 H 6374.81 1.28501 -2.97755 0
M  V30 67346 H 6374.6 -0.221738 -3.91473 0
M  V30 67347 H 6376.09 0.749346 -4.10822 0
M  V30 67348 N 6376.52 1.42072 -0.682152 0
M  V30 67349 C 6377.47 2.326 0.00316801 0
M  V30 67350 C 6378.47 1.50229 0.782798 0
M  V30 67351 O 6379.67 1.66253 0.689932 0
M  V30 67352 H 6376.05 0.751739 0.0198219 0
M  V30 67353 H 6378.02 2.8809 -0.777614 0
M  V30 67354 C 6376.77 3.34883 0.935338 0
M  V30 67355 H 6376.09 3.9831 0.344846 0
M  V30 67356 H 6377.53 4.00796 1.38341 0
M  V30 67357 C 6375.99 2.67718 2.0452 0
M  V30 67358 O 6376.52 2.51471 3.1325 0
M  V30 67359 N 6374.72 2.26626 1.81904 0
M  V30 67360 H 6374.27 2.4004 0.934792 0
M  V30 67361 H 6374.23 1.8202 2.56351 0
M  V30 67362 N 6378 0.425977 1.51734 0
M  V30 67363 C 6378.93 -0.436142 2.23993 0
M  V30 67364 C 6379.91 -1.03414 1.25476 0
M  V30 67365 O 6381.1 -1.07878 1.54579 0
M  V30 67366 C 6378.22 -1.60686 2.98157 0
M  V30 67367 C 6377.27 -1.13064 4.1124 0
M  V30 67368 S 6378.1 -0.0819587 5.35437 0
M  V30 67369 C 6379.26 -1.25761 6.13135 0
M  V30 67370 H 6379.49 0.177366 2.9677 0
M  V30 67371 H 6377.02 0.210399 1.5296 0
M  V30 67372 H 6378.98 -2.27808 3.41488 0
M  V30 67373 H 6377.64 -2.19175 2.24991 0
M  V30 67374 H 6376.84 -2.00578 4.62368 0
M  V30 67375 H 6376.44 -0.537832 3.70113 0
M  V30 67376 H 6378.73 -2.17811 6.41533 0
M  V30 67377 H 6379.67 -0.786529 7.03718 0
M  V30 67378 H 6380.08 -1.49104 5.44452 0
M  V30 67379 N 6379.48 -1.56817 0.156946 0
M  V30 67380 C 6380.76 -1.88077 -0.53726 0
M  V30 67381 C 6381.14 -1.06453 -1.82293 0
M  V30 67382 O 6380.48 -0.154228 -2.27979 0
M  V30 67383 C 6380.69 -3.39869 -0.793091 0
M  V30 67384 C 6382.04 -4.09302 -1.12947 0
M  V30 67385 O 6383.07 -3.45105 -0.882113 0
M  V30 67386 O 6381.93 -5.22693 -1.59542 0
M  V30 67387 H 6379.02 -0.779865 -0.275208 0
M  V30 67388 H 6381.57 -1.68584 0.194305 0
M  V30 67389 H 6380.34 -3.91127 0.116397 0
M  V30 67390 H 6379.96 -3.64924 -1.57848 0
M  V30 67391 N 6380.96 0.116821 -1.57166 0
M  V30 67392 C 6381.89 1.16894 -1.97151 0
M  V30 67393 C 6382.9 1.37534 -0.871111 0
M  V30 67394 O 6384.09 1.3657 -1.14939 0
M  V30 67395 C 6381.19 2.52855 -2.25649 0
M  V30 67396 C 6380.36 2.52788 -3.56955 0
M  V30 67397 C 6379.42 3.70512 -3.73641 0
M  V30 67398 O 6378.45 3.53997 -4.45729 0
M  V30 67399 N 6379.65 4.89161 -3.12574 0
M  V30 67400 H 6382.42 0.828794 -2.88012 0
M  V30 67401 H 6379.98 0.306069 -1.58981 0
M  V30 67402 H 6381.97 3.30173 -2.34025 0
M  V30 67403 H 6380.54 2.79043 -1.40904 0
M  V30 67404 H 6379.76 1.61168 -3.59748 0
M  V30 67405 H 6381.05 2.49801 -4.43257 0
M  V30 67406 H 6380.45 5.05482 -2.53978 0
M  V30 67407 H 6379 5.64148 -3.26467 0
M  V30 67408 N 6382.44 1.52773 0.387063 0
M  V30 67409 C 6383.35 1.80615 1.49718 0
M  V30 67410 C 6384.36 0.693037 1.59603 0
M  V30 67411 O 6385.54 0.980832 1.75902 0
M  V30 67412 C 6382.6 1.97093 2.85229 0
M  V30 67413 C 6381.66 3.21007 2.85049 0
M  V30 67414 C 6380.9 3.36689 4.14097 0
M  V30 67415 O 6381.12 2.57135 5.09154 0
M  V30 67416 O 6380.05 4.29952 4.21218 0
M  V30 67417 H 6383.88 2.74885 1.29121 0
M  V30 67418 H 6381.46 1.37888 0.575092 0
M  V30 67419 H 6383.35 2.09626 3.65561 0
M  V30 67420 H 6382.02 1.06013 3.05848 0
M  V30 67421 H 6380.93 3.13914 2.03492 0
M  V30 67422 H 6382.26 4.1194 2.69382 0
M  V30 67423 N 6383.91 -0.645623 1.43769 0
M  V30 67424 C 6385.14 -1.43794 1.49459 0
M  V30 67425 C 6385.56 -1.87742 0.116014 0
M  V30 67426 O 6384.92 -1.57848 -0.891836 0
M  V30 67427 C 6384.97 -2.64408 2.45196 0
M  V30 67428 O 6384.07 -3.63735 1.94347 0
M  V30 67429 H 6383.41 -0.430841 0.505245 0
M  V30 67430 H 6385.94 -0.789357 1.8876 0
M  V30 67431 H 6385.95 -3.1213 2.62752 0
M  V30 67432 H 6384.63 -2.31764 3.45338 0
M  V30 67433 H 6383.21 -3.22919 1.86488 0
M  V30 67434 N 6385.39 -1.30426 -0.884698 0
M  V30 67435 C 6386.64 -1.19265 -1.63653 0
M  V30 67436 C 6386.97 0.252578 -1.92853 0
M  V30 67437 O 6386.22 1.19713 -1.54814 0
M  V30 67438 C 6386.52 -1.96692 -2.98408 0
M  V30 67439 C 6386.19 -3.46308 -2.88758 0
M  V30 67440 C 6384.85 -3.87108 -2.85834 0
M  V30 67441 C 6387.2 -4.41583 -2.76865 0
M  V30 67442 C 6384.53 -5.21473 -2.68855 0
M  V30 67443 C 6386.88 -5.76056 -2.61424 0
M  V30 67444 C 6385.55 -6.16094 -2.56874 0
M  V30 67445 H 6384.82 -0.43642 -0.598848 0
M  V30 67446 H 6387.46 -1.61531 -1.02859 0
M  V30 67447 H 6385.77 -1.47061 -3.63153 0
M  V30 67448 H 6387.46 -1.85448 -3.55542 0
M  V30 67449 H 6384.05 -3.13887 -2.91844 0
M  V30 67450 H 6388.24 -4.11003 -2.7819 0
M  V30 67451 H 6383.49 -5.51586 -2.63747 0
M  V30 67452 H 6387.67 -6.49518 -2.51195 0
M  V30 67453 H 6385.3 -7.20155 -2.43476 0
M  V30 67454 N 6386.87 1.09707 -1.13146 0
M  V30 67455 C 6388.12 1.81465 -0.889657 0
M  V30 67456 C 6388.44 1.8599 0.58589 0
M  V30 67457 O 6387.71 1.34337 1.42584 0
M  V30 67458 H 6386.29 0.672039 -0.326149 0
M  V30 67459 H 6388.95 1.32704 -1.42743 0
M  V30 67460 H 6388.05 2.84742 -1.27783 0
M  V30 67461 N 6388.35 0.924521 1.27634 0
M  V30 67462 C 6389.6 0.562175 1.94124 0
M  V30 67463 C 6389.92 -0.898938 1.73044 0
M  V30 67464 O 6389.19 -1.63682 1.07633 0
M  V30 67465 H 6387.77 0.204919 0.718343 0
M  V30 67466 H 6390.43 1.17622 1.55406 0
M  V30 67467 H 6389.53 0.76575 3.0256 0
M  V30 67468 N 6389.83 -1.41708 0.689677 0
M  V30 67469 C 6390.79 -2.29181 0.0296606 0
M  V30 67470 C 6391.79 -1.44081 -0.713953 0
M  V30 67471 O 6392.98 -1.65299 -0.549725 0
M  V30 67472 C 6390.11 -3.26854 -0.968468 0
M  V30 67473 H 6391.3 -2.8904 0.799758 0
M  V30 67474 H 6388.86 -1.49596 0.452843 0
M  V30 67475 H 6389.59 -2.71963 -1.76654 0
M  V30 67476 H 6389.38 -3.89641 -0.438463 0
M  V30 67477 H 6390.87 -3.92417 -1.42825 0
M  V30 67478 N 6391.3 -0.434018 -1.51506 0
M  V30 67479 C 6392.53 0.13472 -2.06962 0
M  V30 67480 C 6392.95 1.35979 -1.29967 0
M  V30 67481 O 6392.31 1.78146 -0.336691 0
M  V30 67482 C 6392.36 0.43885 -3.5792 0
M  V30 67483 O 6391.46 1.52585 -3.83134 0
M  V30 67484 H 6390.81 0.00332158 -0.663992 0
M  V30 67485 H 6393.34 -0.614395 -1.95157 0
M  V30 67486 H 6393.35 0.690274 -4.02118 0
M  V30 67487 H 6392.02 -0.456558 -4.13386 0
M  V30 67488 H 6390.6 1.26465 -3.508 0
M  V30 67489 N 6392.78 1.56731 -0.165261 0
M  V30 67490 C 6394.02 1.98593 0.483771 0
M  V30 67491 C 6394.39 1.04875 1.60827 0
M  V30 67492 O 6395.59 1.35853 2.31943 0
M  V30 67493 C 6393.86 3.44266 0.96 0
M  V30 67494 S 6395.42 4.08155 1.61107 0
M  V30 67495 H 6392.24 0.693716 0.155818 0
M  V30 67496 H 6394.84 1.93746 -0.261291 0
M  V30 67497 H 6393.54 4.10191 0.131084 0
M  V30 67498 H 6393.07 3.52865 1.73925 0
M  V30 67499 H 6395.09 4.02706 2.89901 0
M  V30 67500 N 6394.26 -0.108484 1.57226 0
M  V30 67501 C 6395.5 -0.820171 1.87223 0
M  V30 67502 C 6395.86 -1.7655 0.754586 0
M  V30 67503 O 6397.07 -2.51955 0.936607 0
M  V30 67504 C 6395.34 -1.54133 3.22456 0
M  V30 67505 S 6396.9 -2.29314 3.74113 0
M  V30 67506 H 6393.71 -0.273526 0.656281 0
M  V30 67507 H 6396.32 -0.0779638 1.95344 0
M  V30 67508 H 6395.02 -0.839014 4.01732 0
M  V30 67509 H 6394.55 -2.3237 3.17439 0
M  V30 67510 H 6396.57 -3.55222 3.46456 0
M  V30 67511 N 6395.74 -1.52976 -0.378955 0
M  V30 67512 C 6396.67 -1.81441 -1.46974 0
M  V30 67513 C 6397.65 -0.66704 -1.56476 0
M  V30 67514 O 6398.83 -0.915605 -1.71261 0
M  V30 67515 C 6395.96 -1.99231 -2.84472 0
M  V30 67516 C 6394.92 -3.14956 -2.89805 0
M  V30 67517 C 6394.24 -3.18016 -4.29848 0
M  V30 67518 C 6395.54 -4.53823 -2.58538 0
M  V30 67519 H 6397.24 -2.72786 -1.23403 0
M  V30 67520 H 6394.78 -1.31259 -0.592211 0
M  V30 67521 H 6396.74 -2.17727 -3.60795 0
M  V30 67522 H 6395.46 -1.04584 -3.09402 0
M  V30 67523 H 6394.12 -2.96259 -2.15931 0
M  V30 67524 H 6393.77 -2.21033 -4.51833 0
M  V30 67525 H 6393.47 -3.95761 -4.34335 0
M  V30 67526 H 6394.99 -3.3868 -5.08063 0
M  V30 67527 H 6396.41 -4.72571 -3.24576 0
M  V30 67528 H 6394.8 -5.3371 -2.7436 0
M  V30 67529 H 6395.87 -4.5985 -1.53837 0
M  V30 67530 N 6397.22 0.637989 -1.44109 0
M  V30 67531 C 6398.45 1.42298 -1.49783 0
M  V30 67532 C 6398.85 1.88824 -0.119153 0
M  V30 67533 O 6398.2 1.61037 0.883896 0
M  V30 67534 C 6398.26 2.68125 -2.39477 0
M  V30 67535 C 6397.92 2.4344 -3.86764 0
M  V30 67536 C 6398.92 2.05699 -4.77477 0
M  V30 67537 C 6396.61 2.57292 -4.314 0
M  V30 67538 C 6398.6 1.8213 -6.10825 0
M  V30 67539 C 6396.29 2.33337 -5.64798 0
M  V30 67540 C 6397.28 1.95814 -6.54329 0
M  V30 67541 O 6396.97 1.7212 -7.85258 0
M  V30 67542 H 6396.7 0.443084 -0.510542 0
M  V30 67543 H 6399.26 0.788077 -1.8968 0
M  V30 67544 H 6397.49 3.34229 -1.94494 0
M  V30 67545 H 6399.18 3.30113 -2.36179 0
M  V30 67546 H 6399.94 1.9456 -4.44265 0
M  V30 67547 H 6395.82 2.85471 -3.61977 0
M  V30 67548 H 6399.37 1.52766 -6.80668 0
M  V30 67549 H 6395.26 2.44084 -5.97573 0
M  V30 67550 H 6396.03 1.86422 -7.96988 0
M  V30 67551 N 6398.69 1.30893 0.877769 0
M  V30 67552 C 6399.93 1.21422 1.64426 0
M  V30 67553 C 6400.3 -0.225891 1.90667 0
M  V30 67554 O 6401.5 -0.443961 2.65108 0
M  V30 67555 C 6399.77 2.02709 2.94353 0
M  V30 67556 S 6401.33 2.10016 3.85278 0
M  V30 67557 H 6398.15 0.432591 0.564257 0
M  V30 67558 H 6400.75 1.65459 1.04132 0
M  V30 67559 H 6399.45 3.06443 2.72986 0
M  V30 67560 H 6398.98 1.59362 3.59677 0
M  V30 67561 H 6401 1.23279 4.80642 0
M  V30 67562 N 6400.17 -1.09106 1.13726 0
M  V30 67563 C 6401.59 -1.334 0.876157 0
M  V30 67564 C 6401.79 -1.95538 -0.486538 0
M  V30 67565 O 6400.85 -2.20384 -1.23236 0
M  V30 67566 C 6402.16 -2.24248 2.00333 0
M  V30 67567 C 6403.71 -2.37748 2.0358 0
M  V30 67568 C 6404.18 -3.31933 3.1557 0
M  V30 67569 N 6405.67 -3.39508 3.15101 0
M  V30 67570 C 6406.41 -4.12395 3.98394 0
M  V30 67571 N 6405.9 -4.88051 4.91709 0
M  V30 67572 N 6407.7 -4.08153 3.86481 0
M  V30 67573 H 6399.85 -0.671494 2.01506 0
M  V30 67574 H 6402.11 -0.35837 0.877653 0
M  V30 67575 H 6401.82 -1.85823 2.98601 0
M  V30 67576 H 6401.69 -3.2466 1.9203 0
M  V30 67577 H 6404.08 -2.75435 1.05923 0
M  V30 67578 H 6404.16 -1.37103 2.15955 0
M  V30 67579 H 6403.8 -2.94969 4.13468 0
M  V30 67580 H 6403.73 -4.3249 3.00433 0
M  V30 67581 H 6406.22 -2.85565 2.4751 0
M  V30 67582 H 6406.54 -5.41107 5.51745 0
M  V30 67583 H 6404.88 -4.87128 4.95713 0
M  V30 67584 H 6408.07 -3.4815 3.12905 0
M  V30 67585 H 6408.25 -4.64695 4.51622 0
M  V30 67586 N 6401.65 -0.931276 -1.27142 0
M  V30 67587 C 6402.89 -0.580937 -1.95971 0
M  V30 67588 C 6403.26 0.862365 -1.71544 0
M  V30 67589 O 6404.46 1.32115 -2.34092 0
M  V30 67590 C 6402.73 -0.902176 -3.45826 0
M  V30 67591 S 6404.29 -0.660889 -4.33795 0
M  V30 67592 H 6401.1 -0.214314 -0.677931 0
M  V30 67593 H 6403.71 -1.20048 -1.54301 0
M  V30 67594 H 6402.41 -1.95021 -3.61102 0
M  V30 67595 H 6401.94 -0.271969 -3.92459 0
M  V30 67596 H 6403.96 0.47963 -4.93876 0
M  V30 67597 N 6403.13 1.4134 -0.697182 0
M  V30 67598 C 6404.08 2.27998 -0.00967751 0
M  V30 67599 C 6405.06 1.42287 0.751204 0
M  V30 67600 O 6406.26 1.65544 0.626432 0
M  V30 67601 C 6403.38 3.30609 0.924802 0
M  V30 67602 C 6402.47 4.23798 0.160083 0
M  V30 67603 N 6402.86 4.98658 -0.846972 0
M  V30 67604 C 6401.16 4.44244 0.39533 0
M  V30 67605 C 6401.86 5.66876 -1.30487 0
M  V30 67606 N 6400.84 5.39931 -0.630483 0
M  V30 67607 H 6404.64 2.83311 -0.781784 0
M  V30 67608 H 6402.15 1.53572 -0.528158 0
M  V30 67609 H 6404.15 3.91516 1.4325 0
M  V30 67610 H 6402.81 2.76856 1.69649 0
M  V30 67611 H 6403.82 5.03149 -1.22726 0
M  V30 67612 H 6400.5 4.01499 1.14478 0
M  V30 67613 H 6401.89 6.36888 -2.14062 0
M  V30 67614 N 6404.61 0.442047 1.51274 0
M  V30 67615 C 6405.86 -0.124368 2.01316 0
M  V30 67616 C 6406.17 -1.43372 1.33056 0
M  V30 67617 O 6407.38 -2.08336 1.74093 0
M  V30 67618 C 6405.83 -0.272181 3.58869 0
M  V30 67619 C 6405.44 1.02701 4.36069 0
M  V30 67620 C 6407.18 -0.792112 4.17044 0
M  V30 67621 C 6405.09 0.844584 5.85338 0
M  V30 67622 H 6404.02 -0.0502539 0.752323 0
M  V30 67623 H 6406.67 0.572526 1.7434 0
M  V30 67624 H 6405.05 -1.03219 3.82311 0
M  V30 67625 H 6406.23 1.79572 4.24371 0
M  V30 67626 H 6404.54 1.47583 3.89369 0
M  V30 67627 H 6407.14 -0.945165 5.2628 0
M  V30 67628 H 6407.48 -1.77582 3.76524 0
M  V30 67629 H 6408.02 -0.0902894 3.97698 0
M  V30 67630 H 6404.75 1.8008 6.30279 0
M  V30 67631 H 6404.27 0.115759 5.99688 0
M  V30 67632 H 6405.95 0.499639 6.45068 0
M  V30 67633 N 6406.09 -1.56641 0.17357 0
M  V30 67634 C 6407.36 -1.88636 -0.517282 0
M  V30 67635 C 6407.74 -1.08381 -1.81154 0
M  V30 67636 O 6407.09 -0.178399 -2.27803 0
M  V30 67637 C 6407.3 -3.40691 -0.756998 0
M  V30 67638 C 6408.65 -4.10477 -1.08599 0
M  V30 67639 O 6409.67 -3.46021 -0.845461 0
M  V30 67640 O 6408.53 -5.24356 -1.5399 0
M  V30 67641 H 6405.63 -0.78274 -0.266922 0
M  V30 67642 H 6408.17 -1.68368 0.212174 0
M  V30 67643 H 6406.94 -3.90981 0.157875 0
M  V30 67644 H 6406.57 -3.66578 -1.53969 0
M  V30 67645 N 6407.56 0.100145 -1.57281 0
M  V30 67646 C 6408.51 1.12811 -1.98136 0
M  V30 67647 C 6409.5 1.36048 -0.85905 0
M  V30 67648 O 6410.69 1.36824 -1.12286 0
M  V30 67649 C 6407.82 2.4497 -2.40509 0
M  V30 67650 C 6406.9 2.25127 -3.59414 0
M  V30 67651 N 6407.3 1.75141 -4.7451 0
M  V30 67652 C 6405.59 2.55713 -3.65413 0
M  V30 67653 C 6406.29 1.6945 -5.56473 0
M  V30 67654 N 6405.27 2.14482 -4.99498 0
M  V30 67655 H 6409.07 0.734483 -2.84574 0
M  V30 67656 H 6406.59 0.307642 -1.59459 0
M  V30 67657 H 6408.58 3.19343 -2.68003 0
M  V30 67658 H 6407.24 2.85074 -1.55444 0
M  V30 67659 H 6408.25 1.44411 -4.97359 0
M  V30 67660 H 6404.93 2.99376 -2.90999 0
M  V30 67661 H 6406.32 1.31896 -6.58827 0
M  V30 67662 N 6409.04 1.53175 0.370837 0
M  V30 67663 C 6410.45 1.60847 0.947903 0
M  V30 67664 C 6410.8 0.472595 1.90423 0
M  V30 67665 O 6409.93 -0.401748 2.12638 0
M  V30 67666 C 6410.52 2.9154 1.72597 0
M  V30 67667 C 6409.08 3.01565 2.25246 0
M  V30 67668 C 6408.23 2.56104 1.06331 0
M  V30 67669 H 6411.18 1.57991 0.149796 0
M  V30 67670 H 6411.2 2.79047 2.58675 0
M  V30 67671 H 6410.71 3.74191 1.02969 0
M  V30 67672 H 6408.81 2.2349 2.98133 0
M  V30 67673 H 6408.93 4.06547 2.53488 0
M  V30 67674 H 6407.29 2.10854 1.42873 0
M  V30 67675 H 6408.07 3.41167 0.38209 0
M  V30 67676 N 6410.52 -0.630338 1.44445 0
M  V30 67677 C 6411.47 -1.76346 1.51673 0
M  V30 67678 C 6412.46 -1.64888 0.388375 0
M  V30 67679 O 6413.67 -1.70957 0.563353 0
M  V30 67680 H 6410.04 -0.58221 0.475958 0
M  V30 67681 H 6412.01 -1.67373 2.4704 0
M  V30 67682 C 6410.76 -3.14682 1.47886 0
M  V30 67683 H 6410.09 -3.24148 2.34026 0
M  V30 67684 H 6411.53 -3.9386 1.57003 0
M  V30 67685 C 6409.98 -3.36307 0.19974 0
M  V30 67686 O 6410.51 -3.95016 -0.729741 0
M  V30 67687 N 6408.72 -2.90419 0.102626 0
M  V30 67688 H 6408.27 -2.42826 0.859846 0
M  V30 67689 H 6408.23 -3.05263 -0.752459 0
M  V30 67690 N 6412 -1.31357 -0.870815 0
M  V30 67691 C 6413.41 -1.18896 -1.43947 0
M  V30 67692 C 6413.76 0.204892 -1.95127 0
M  V30 67693 O 6412.88 1.10259 -1.86204 0
M  V30 67694 C 6413.48 -2.15235 -2.61647 0
M  V30 67695 C 6412.04 -2.0671 -3.1456 0
M  V30 67696 C 6411.19 -2.04512 -1.8727 0
M  V30 67697 H 6414.14 -1.4342 -0.679435 0
M  V30 67698 H 6414.16 -1.74145 -3.3831 0
M  V30 67699 H 6413.67 -3.16672 -2.24367 0
M  V30 67700 H 6411.77 -1.08465 -3.56463 0
M  V30 67701 H 6411.88 -2.95776 -3.769 0
M  V30 67702 H 6410.25 -1.49515 -2.06197 0
M  V30 67703 H 6411.03 -3.07704 -1.52228 0
M  V30 67704 N 6413.48 1.08501 -1.14303 0
M  V30 67705 C 6414.42 2.15395 -0.829087 0
M  V30 67706 C 6415.39 1.64729 0.212958 0
M  V30 67707 O 6416.58 1.90619 0.0830954 0
M  V30 67708 C 6413.72 3.4369 -0.311666 0
M  V30 67709 C 6412.83 4.08207 -1.4139 0
M  V30 67710 C 6411.97 5.24293 -0.853824 0
M  V30 67711 C 6411 5.8075 -1.9338 0
M  V30 67712 N 6410.14 6.88183 -1.39097 0
M  V30 67713 H 6414.98 2.41591 -1.74464 0
M  V30 67714 H 6412.52 1.18562 -0.87071 0
M  V30 67715 H 6414.48 4.17199 0.00652855 0
M  V30 67716 H 6413.11 3.17781 0.566995 0
M  V30 67717 H 6412.16 3.32467 -1.84851 0
M  V30 67718 H 6413.47 4.46188 -2.22975 0
M  V30 67719 H 6412.62 6.04738 -0.487474 0
M  V30 67720 H 6411.36 4.87699 -0.00699923 0
M  V30 67721 H 6410.37 4.98959 -2.30911 0
M  V30 67722 H 6411.59 6.19403 -2.78419 0
M  V30 67723 H 6409.54 6.53551 -0.566309 0
M  V30 67724 H 6409.46 7.24984 -2.14321 0
M  V30 67725 H 6410.72 7.72362 -1.05249 0
M  V30 67726 N 6414.95 0.938006 1.26646 0
M  V30 67727 C 6416.2 0.582733 1.93517 0
M  V30 67728 C 6416.52 -0.880534 1.73987 0
M  V30 67729 O 6415.79 -1.62532 1.09363 0
M  V30 67730 H 6414.37 0.212526 0.71613 0
M  V30 67731 H 6417.04 1.19264 1.5415 0
M  V30 67732 H 6416.13 0.797798 3.01731 0
M  V30 67733 N 6416.43 -1.40969 0.704668 0
M  V30 67734 C 6417.68 -2.01079 0.239497 0
M  V30 67735 C 6418.01 -1.55839 -1.16381 0
M  V30 67736 O 6417.26 -0.764514 -1.80149 0
M  V30 67737 C 6417.56 -3.56486 0.255494 0
M  V30 67738 C 6417.23 -4.21269 1.60758 0
M  V30 67739 C 6415.89 -4.3868 1.97772 0
M  V30 67740 C 6418.24 -4.57509 2.4967 0
M  V30 67741 C 6415.57 -4.89609 3.23265 0
M  V30 67742 C 6417.92 -5.09833 3.74504 0
M  V30 67743 C 6416.59 -5.25453 4.11649 0
M  V30 67744 H 6415.86 -0.735799 0.0876383 0
M  V30 67745 H 6418.5 -1.68737 0.905551 0
M  V30 67746 H 6416.81 -3.88672 -0.49412 0
M  V30 67747 H 6418.5 -4.00814 -0.122094 0
M  V30 67748 H 6415.09 -4.08098 1.30972 0
M  V30 67749 H 6419.28 -4.43704 2.22352 0
M  V30 67750 H 6414.53 -4.99887 3.52027 0
M  V30 67751 H 6418.71 -5.36853 4.43579 0
M  V30 67752 H 6416.34 -5.64679 5.08961 0
M  V30 67753 N 6417.91 -0.450063 -1.51037 0
M  V30 67754 C 6419.15 0.11113 -2.04098 0
M  V30 67755 C 6419.51 1.38851 -1.32607 0
M  V30 67756 O 6420.72 2.03075 -1.76108 0
M  V30 67757 C 6418.99 0.311955 -3.56036 0
M  V30 67758 S 6420.55 0.834727 -4.30787 0
M  V30 67759 H 6417.36 0.0258717 -0.710529 0
M  V30 67760 H 6419.97 -0.612387 -1.85661 0
M  V30 67761 H 6418.67 -0.623859 -4.05631 0
M  V30 67762 H 6418.2 1.06219 -3.78789 0
M  V30 67763 H 6420.22 2.1108 -4.49065 0
M  V30 67764 N 6419.39 1.56547 -0.181875 0
M  V30 67765 C 6420.67 1.88908 0.507271 0
M  V30 67766 C 6421.05 1.0934 1.80577 0
M  V30 67767 O 6420.39 0.190477 2.27705 0
M  V30 67768 C 6420.6 3.41088 0.73892 0
M  V30 67769 C 6421.95 4.11047 1.06421 0
M  V30 67770 O 6422.98 3.46464 0.827099 0
M  V30 67771 O 6421.83 5.25165 1.51207 0
M  V30 67772 H 6418.93 0.784145 0.262767 0
M  V30 67773 H 6421.47 1.68253 -0.2211 0
M  V30 67774 H 6420.25 3.90892 -0.178607 0
M  V30 67775 H 6419.87 3.67389 1.52023 0
M  V30 67776 N 6420.87 -0.0918024 1.57332 0
M  V30 67777 C 6421.8 -1.11183 2.0533 0
M  V30 67778 C 6422.78 -1.41578 0.942852 0
M  V30 67779 O 6423.96 -1.51551 1.21433 0
M  V30 67780 C 6421.09 -2.43082 2.4805 0
M  V30 67781 C 6420.05 -2.27088 3.62788 0
M  V30 67782 C 6419.37 -3.64192 3.91495 0
M  V30 67783 C 6420.67 -1.70869 4.9356 0
M  V30 67784 H 6422.37 -0.712505 2.90798 0
M  V30 67785 H 6419.91 -0.341289 1.39897 0
M  V30 67786 H 6421.87 -3.14714 2.80237 0
M  V30 67787 H 6420.59 -2.84957 1.59585 0
M  V30 67788 H 6419.25 -1.579 3.30852 0
M  V30 67789 H 6418.9 -4.036 3.00193 0
M  V30 67790 H 6418.6 -3.54335 4.68743 0
M  V30 67791 H 6420.12 -4.37287 4.2616 0
M  V30 67792 H 6421.53 -2.32346 5.24107 0
M  V30 67793 H 6419.93 -1.71763 5.74994 0
M  V30 67794 H 6421 -0.6684 4.80271 0
M  V30 67795 N 6422.34 -1.53369 -0.362709 0
M  V30 67796 C 6423.29 -1.8001 -1.44447 0
M  V30 67797 C 6424.26 -0.644635 -1.53081 0
M  V30 67798 O 6425.45 -0.88711 -1.68923 0
M  V30 67799 C 6422.59 -1.99832 -2.81356 0
M  V30 67800 C 6421.7 -3.27548 -2.81667 0
M  V30 67801 C 6420.83 -3.37542 -4.10169 0
M  V30 67802 C 6419.87 -4.5928 -4.04633 0
M  V30 67803 N 6419.01 -4.66412 -5.2479 0
M  V30 67804 H 6423.85 -2.72316 -1.2103 0
M  V30 67805 H 6421.39 -1.34895 -0.58666 0
M  V30 67806 H 6423.35 -2.09312 -3.60894 0
M  V30 67807 H 6421.98 -1.1086 -3.03166 0
M  V30 67808 H 6421.03 -3.27008 -1.94345 0
M  V30 67809 H 6422.34 -4.17166 -2.73449 0
M  V30 67810 H 6421.49 -3.46349 -4.98124 0
M  V30 67811 H 6420.23 -2.45946 -4.21143 0
M  V30 67812 H 6419.24 -4.50571 -3.15065 0
M  V30 67813 H 6420.46 -5.5222 -3.95259 0
M  V30 67814 H 6418.41 -3.77718 -5.36344 0
M  V30 67815 H 6418.33 -5.49937 -5.18753 0
M  V30 67816 H 6419.59 -4.79505 -6.14569 0
M  V30 67817 N 6423.82 0.622669 -1.44778 0
M  V30 67818 C 6425.07 1.37932 -1.47713 0
M  V30 67819 C 6425.39 1.94665 -0.114255 0
M  V30 67820 O 6424.66 1.7628 0.854521 0
M  V30 67821 H 6423.24 0.512003 -0.543932 0
M  V30 67822 H 6425.9 0.732273 -1.80621 0
M  V30 67823 H 6425 2.20638 -2.20738 0
M  V30 67824 N 6425.3 1.31817 0.863836 0
M  V30 67825 C 6426.25 1.19983 1.97162 0
M  V30 67826 C 6427.22 0.0841469 1.65887 0
M  V30 67827 O 6428.4 0.258088 1.89046 0
M  V30 67828 C 6425.54 0.919433 3.32627 0
M  V30 67829 C 6424.66 2.11903 3.76459 0
M  V30 67830 C 6423.79 1.7749 5.0067 0
M  V30 67831 C 6422.83 2.93823 5.36968 0
M  V30 67832 N 6421.97 2.59564 6.52358 0
M  V30 67833 H 6426.81 2.14742 2.06615 0
M  V30 67834 H 6424.34 1.06814 1.01139 0
M  V30 67835 H 6426.3 0.737395 4.10632 0
M  V30 67836 H 6424.93 0.00865778 3.22799 0
M  V30 67837 H 6423.98 2.41164 2.94184 0
M  V30 67838 H 6425.3 2.98953 3.99285 0
M  V30 67839 H 6424.45 1.55784 5.86358 0
M  V30 67840 H 6423.19 0.8764 4.79761 0
M  V30 67841 H 6422.19 3.1617 4.49796 0
M  V30 67842 H 6423.42 3.84391 5.5984 0
M  V30 67843 H 6421.36 1.72244 6.32983 0
M  V30 67844 H 6421.28 3.40144 6.75158 0
M  V30 67845 H 6422.55 2.41266 7.41223 0
M  V30 67846 N 6426.78 -1.07893 1.14877 0
M  V30 67847 C 6428.01 -1.83847 0.942543 0
M  V30 67848 C 6428.42 -1.82129 -0.512422 0
M  V30 67849 O 6427.76 -1.22714 -1.367 0
M  V30 67850 C 6427.82 -3.32267 1.37256 0
M  V30 67851 C 6427.49 -3.57713 2.84413 0
M  V30 67852 C 6428.48 -3.52117 3.82504 0
M  V30 67853 C 6426.17 -3.85556 3.2195 0
M  V30 67854 C 6428.16 -3.74004 5.16139 0
M  V30 67855 C 6425.85 -4.07095 4.5576 0
M  V30 67856 C 6426.85 -4.01313 5.52663 0
M  V30 67857 O 6426.53 -4.22282 6.84056 0
M  V30 67858 H 6426.27 -0.587069 0.335151 0
M  V30 67859 H 6428.82 -1.37137 1.52914 0
M  V30 67860 H 6427.05 -3.7976 0.729324 0
M  V30 67861 H 6428.74 -3.8967 1.1363 0
M  V30 67862 H 6429.51 -3.30615 3.5485 0
M  V30 67863 H 6425.38 -3.89173 2.47114 0
M  V30 67864 H 6428.93 -3.69407 5.91764 0
M  V30 67865 H 6424.83 -4.28082 4.83132 0
M  V30 67866 H 6425.59 -4.3966 6.90392 0
M  V30 67867 N 6428.26 -0.944709 -1.26147 0
M  V30 67868 C 6429.5 -0.595041 -1.93874 0
M  V30 67869 C 6429.84 0.864244 -1.73909 0
M  V30 67870 O 6429.11 1.61878 -1.07823 0
M  V30 67871 C 6429.39 -0.942422 -3.47549 0
M  V30 67872 C 6429.25 -2.45671 -3.76784 0
M  V30 67873 C 6430.57 -0.460358 -4.37686 0
M  V30 67874 H 6427.68 -0.217654 -0.704128 0
M  V30 67875 H 6430.33 -1.17957 -1.4895 0
M  V30 67876 H 6428.48 -0.444999 -3.85943 0
M  V30 67877 H 6430.15 -3.02713 -3.48084 0
M  V30 67878 H 6428.39 -2.89868 -3.22737 0
M  V30 67879 H 6429.06 -2.65028 -4.84215 0
M  V30 67880 H 6431.54 -0.886904 -4.06538 0
M  V30 67881 H 6430.41 -0.73221 -5.43994 0
M  V30 67882 H 6430.68 0.639699 -4.37447 0
M  V30 67883 N 6429.74 1.40593 -0.712134 0
M  V30 67884 C 6430.67 2.29193 -0.0179945 0
M  V30 67885 C 6431.68 1.45649 0.727337 0
M  V30 67886 O 6432.87 1.68975 0.57529 0
M  V30 67887 C 6429.97 3.23849 0.998762 0
M  V30 67888 C 6429.14 4.3623 0.319668 0
M  V30 67889 C 6428.2 5.11349 1.24133 0
M  V30 67890 O 6427.23 5.64533 0.727429 0
M  V30 67891 N 6428.43 5.20378 2.57269 0
M  V30 67892 H 6431.19 2.89406 -0.778725 0
M  V30 67893 H 6428.76 1.51926 -0.559485 0
M  V30 67894 H 6430.75 3.70973 1.61744 0
M  V30 67895 H 6429.32 2.64827 1.66088 0
M  V30 67896 H 6428.54 3.91277 -0.479149 0
M  V30 67897 H 6429.83 5.08573 -0.15186 0
M  V30 67898 H 6429.22 4.78645 3.01521 0
M  V30 67899 H 6427.78 5.71021 3.14289 0
M  V30 67900 N 6431.21 0.458066 1.50796 0
M  V30 67901 C 6432.46 -0.103009 2.01437 0
M  V30 67902 C 6432.78 -1.41952 1.34569 0
M  V30 67903 O 6433.98 -2.06477 1.76293 0
M  V30 67904 C 6432.44 -0.234103 3.59138 0
M  V30 67905 C 6432.05 1.07321 4.34956 0
M  V30 67906 C 6433.79 -0.747835 4.17861 0
M  V30 67907 C 6431.7 0.906619 5.84409 0
M  V30 67908 H 6430.63 -0.0422716 0.752814 0
M  V30 67909 H 6433.28 0.590985 1.73723 0
M  V30 67910 H 6431.66 -0.991581 3.83384 0
M  V30 67911 H 6432.83 1.84063 4.22442 0
M  V30 67912 H 6431.15 1.51705 3.87782 0
M  V30 67913 H 6433.75 -0.889292 5.27253 0
M  V30 67914 H 6434.09 -1.73578 3.78386 0
M  V30 67915 H 6434.62 -0.0481032 3.97771 0
M  V30 67916 H 6431.36 1.86755 6.28333 0
M  V30 67917 H 6430.88 0.179358 5.99532 0
M  V30 67918 H 6432.56 0.568029 6.44502 0
M  V30 67919 N 6432.69 -1.56448 0.190174 0
M  V30 67920 C 6434.1 -1.8388 -0.323288 0
M  V30 67921 C 6434.45 -1.11068 -1.61736 0
M  V30 67922 O 6433.58 -0.369864 -2.13216 0
M  V30 67923 C 6434.17 -3.33564 -0.593335 0
M  V30 67924 C 6432.73 -3.61424 -1.05118 0
M  V30 67925 C 6431.88 -2.7713 -0.0971357 0
M  V30 67926 H 6434.83 -1.53203 0.414063 0
M  V30 67927 H 6434.85 -3.52067 -1.44322 0
M  V30 67928 H 6434.36 -3.86531 0.348678 0
M  V30 67929 H 6432.46 -3.13886 -2.00764 0
M  V30 67930 H 6432.58 -4.69641 -0.947299 0
M  V30 67931 H 6430.94 -2.47578 -0.598094 0
M  V30 67932 H 6431.72 -3.32884 0.839234 0
M  V30 67933 N 6434.17 0.0834573 -1.57379 0
M  V30 67934 C 6435.4 0.798039 -1.9089 0
M  V30 67935 C 6435.81 1.71706 -0.78502 0
M  V30 67936 O 6435.17 1.80884 0.242342 0
M  V30 67937 C 6435.22 1.60157 -3.24087 0
M  V30 67938 O 6434.94 0.719503 -4.32151 0
M  V30 67939 C 6436.44 2.41818 -3.71536 0
M  V30 67940 H 6433.66 0.227549 -0.631239 0
M  V30 67941 H 6436.21 0.0572115 -2.0442 0
M  V30 67942 H 6434.36 2.29479 -3.12119 0
M  V30 67943 H 6434.78 1.27719 -5.08712 0
M  V30 67944 H 6436.25 2.93673 -4.67397 0
M  V30 67945 H 6436.73 3.20813 -2.99959 0
M  V30 67946 H 6437.33 1.77674 -3.86409 0
M  V30 67947 N 6435.65 1.5356 0.35457 0
M  V30 67948 C 6436.88 1.74198 1.11637 0
M  V30 67949 C 6437.29 0.476007 1.82701 0
M  V30 67950 O 6436.65 -0.551737 1.7396 0
M  V30 67951 C 6436.7 2.91478 2.13829 0
M  V30 67952 O 6436.42 4.13178 1.45656 0
M  V30 67953 C 6437.92 3.24078 3.0247 0
M  V30 67954 H 6435.14 0.582332 0.333362 0
M  V30 67955 H 6437.68 2.00345 0.410133 0
M  V30 67956 H 6435.84 2.67694 2.80034 0
M  V30 67957 H 6436.25 4.78931 2.13834 0
M  V30 67958 H 6437.73 4.09519 3.70133 0
M  V30 67959 H 6438.2 2.3991 3.67886 0
M  V30 67960 H 6438.81 3.49829 2.41868 0
M  V30 67961 N 6437.13 -0.614982 1.45106 0
M  V30 67962 C 6438.37 -1.38557 1.5027 0
M  V30 67963 C 6438.73 -1.91504 0.137985 0
M  V30 67964 O 6439.93 -2.68723 0.0643151 0
M  V30 67965 C 6438.2 -2.5081 2.54616 0
M  V30 67966 S 6439.76 -3.38722 2.7895 0
M  V30 67967 H 6436.58 -0.472482 0.531302 0
M  V30 67968 H 6439.18 -0.71036 1.82138 0
M  V30 67969 H 6437.88 -2.1025 3.52453 0
M  V30 67970 H 6437.42 -3.2314 2.24375 0
M  V30 67971 H 6439.43 -4.48741 2.11768 0
M  V30 67972 N 6438.6 -1.32273 -0.856834 0
M  V30 67973 C 6439.57 -1.20967 -1.94678 0
M  V30 67974 C 6440.57 -0.133287 -1.60247 0
M  V30 67975 O 6441.76 -0.38353 -1.69926 0
M  V30 67976 C 6438.89 -0.859856 -3.29878 0
M  V30 67977 H 6440.08 -2.1783 -2.06131 0
M  V30 67978 H 6437.63 -1.16073 -1.04675 0
M  V30 67979 H 6438.37 0.107047 -3.24123 0
M  V30 67980 H 6438.15 -1.63806 -3.56244 0
M  V30 67981 H 6439.64 -0.805012 -4.09767 0
M  V30 67982 N 6440.08 1.07283 -1.15448 0
M  V30 67983 C 6441.03 2.16602 -0.84771 0
M  V30 67984 C 6442.02 1.6845 0.179158 0
M  V30 67985 O 6443.23 1.79968 0.0341229 0
M  V30 67986 H 6439.6 0.706912 -0.256475 0
M  V30 67987 H 6441.58 2.39694 -1.77734 0
M  V30 67988 C 6440.32 3.45891 -0.354184 0
M  V30 67989 H 6439.65 3.83329 -1.13573 0
M  V30 67990 H 6441.09 4.23625 -0.178204 0
M  V30 67991 C 6439.55 3.23969 0.92443 0
M  V30 67992 O 6440.08 3.48611 1.99582 0
M  V30 67993 N 6438.28 2.77452 0.864217 0
M  V30 67994 H 6437.83 2.57599 -0.00783537 0
M  V30 67995 H 6437.79 2.63163 1.72025 0
M  V30 67996 N 6441.56 0.951386 1.25644 0
M  V30 67997 C 6442.84 0.521911 1.88508 0
M  V30 67998 C 6443.22 -1.00075 1.85871 0
M  V30 67999 O 6442.56 -1.86515 1.32002 0
M  V30 68000 C 6442.77 1.09485 3.31382 0
M  V30 68001 C 6444.12 1.16972 4.0817 0
M  V30 68002 O 6445.15 1.04617 3.4049 0
M  V30 68003 O 6444.01 1.36317 5.29226 0
M  V30 68004 H 6441.1 0.171667 0.808987 0
M  V30 68005 H 6443.65 1.04461 1.33739 0
M  V30 68006 H 6442.42 2.13819 3.27715 0
M  V30 68007 H 6442.04 0.555209 3.93704 0
M  V30 68008 N 6443.04 -1.40213 0.71958 0
M  V30 68009 C 6444.45 -1.83712 0.332695 0
M  V30 68010 C 6444.8 -1.60155 -1.13335 0
M  V30 68011 O 6443.92 -1.08453 -1.87261 0
M  V30 68012 C 6444.52 -3.33497 0.597064 0
M  V30 68013 C 6443.08 -3.75474 0.263844 0
M  V30 68014 C 6442.23 -2.63384 0.867433 0
M  V30 68015 H 6445.18 -1.29424 0.918424 0
M  V30 68016 H 6445.2 -3.80256 -0.136364 0
M  V30 68017 H 6444.71 -3.50611 1.66414 0
M  V30 68018 H 6442.81 -3.63954 -0.798011 0
M  V30 68019 H 6442.92 -4.73419 0.735632 0
M  V30 68020 H 6441.29 -2.52984 0.29518 0
M  V30 68021 H 6442.07 -2.83308 1.93885 0
M  V30 68022 N 6444.52 -0.466057 -1.50551 0
M  V30 68023 C 6445.76 0.0908024 -2.02597 0
M  V30 68024 C 6446.1 1.39822 -1.34772 0
M  V30 68025 O 6445.37 1.88691 -0.471785 0
M  V30 68026 C 6445.65 0.279837 -3.59011 0
M  V30 68027 C 6445.51 -1.04825 -4.37415 0
M  V30 68028 C 6446.83 1.03668 -4.27716 0
M  V30 68029 H 6443.94 0.0315261 -0.736325 0
M  V30 68030 H 6446.59 -0.610666 -1.79919 0
M  V30 68031 H 6444.74 0.877328 -3.78464 0
M  V30 68032 H 6446.41 -1.68193 -4.29545 0
M  V30 68033 H 6444.65 -1.64609 -4.01356 0
M  V30 68034 H 6445.32 -0.869684 -5.45106 0
M  V30 68035 H 6447.8 0.530285 -4.12707 0
M  V30 68036 H 6446.67 1.13774 -5.36979 0
M  V30 68037 H 6446.94 2.07201 -3.90538 0
M  V30 68038 N 6445.99 1.56345 -0.198468 0
M  V30 68039 C 6447.24 1.97285 0.438543 0
M  V30 68040 C 6447.56 1.08663 1.61918 0
M  V30 68041 O 6446.83 0.158629 1.95257 0
M  V30 68042 H 6445.41 0.728547 0.165009 0
M  V30 68043 H 6448.08 1.9279 -0.285987 0
M  V30 68044 H 6447.17 3.02185 0.780409 0
M  V30 68045 N 6447.47 -0.07511 1.57421 0
M  V30 68046 C 6448.72 -0.774892 1.87087 0
M  V30 68047 C 6449.05 -1.77745 0.789753 0
M  V30 68048 O 6448.3 -1.9452 -0.214603 0
M  V30 68049 C 6448.6 -1.52126 3.23407 0
M  V30 68050 C 6448.27 -0.658996 4.46058 0
M  V30 68051 C 6446.93 -0.42136 4.79352 0
M  V30 68052 C 6449.28 -0.0608575 5.21164 0
M  V30 68053 C 6446.61 0.423951 5.85166 0
M  V30 68054 C 6448.96 0.771889 6.27873 0
M  V30 68055 C 6447.63 1.01943 6.5967 0
M  V30 68056 H 6446.9 -0.283553 0.684601 0
M  V30 68057 H 6449.54 -0.0357638 1.91467 0
M  V30 68058 H 6447.85 -2.3325 3.14804 0
M  V30 68059 H 6449.54 -2.06745 3.43595 0
M  V30 68060 H 6446.13 -0.854339 4.19999 0
M  V30 68061 H 6450.32 -0.231572 4.95759 0
M  V30 68062 H 6445.57 0.624514 6.08202 0
M  V30 68063 H 6449.75 1.24213 6.85233 0
M  V30 68064 H 6447.38 1.67621 7.4149 0
M  V30 68065 N 6448.95 -1.53746 -0.346422 0
M  V30 68066 C 6450.18 -1.74787 -1.10711 0
M  V30 68067 C 6450.59 -0.485689 -1.82446 0
M  V30 68068 O 6449.95 0.542504 -1.7425 0
M  V30 68069 C 6450 -2.92608 -2.1228 0
M  V30 68070 O 6449.72 -4.13944 -1.43463 0
M  V30 68071 C 6451.22 -3.25678 -3.00747 0
M  V30 68072 H 6448.44 -0.584092 -0.330269 0
M  V30 68073 H 6450.99 -2.0056 -0.399503 0
M  V30 68074 H 6449.14 -2.69175 -2.7861 0
M  V30 68075 H 6449.56 -4.80059 -2.11291 0
M  V30 68076 H 6451.03 -4.11476 -3.67956 0
M  V30 68077 H 6451.51 -2.41858 -3.66608 0
M  V30 68078 H 6452.11 -3.51106 -2.40009 0
M  V30 68079 N 6450.43 0.607278 -1.4543 0
M  V30 68080 C 6451.36 1.72868 -1.56968 0
M  V30 68081 C 6452.34 1.64802 -0.421217 0
M  V30 68082 O 6453.52 1.83197 -0.644395 0
M  V30 68083 C 6450.65 3.11471 -1.53633 0
M  V30 68084 C 6449.61 3.34348 -2.67199 0
M  V30 68085 C 6448.93 4.73227 -2.48918 0
M  V30 68086 C 6450.23 3.24572 -4.09207 0
M  V30 68087 H 6451.93 1.63468 -2.50836 0
M  V30 68088 H 6449.47 0.785011 -1.20721 0
M  V30 68089 H 6451.43 3.89719 -1.60302 0
M  V30 68090 H 6450.15 3.21712 -0.562951 0
M  V30 68091 H 6448.81 2.5849 -2.59959 0
M  V30 68092 H 6448.46 4.80201 -1.49719 0
M  V30 68093 H 6448.16 4.89489 -3.25076 0
M  V30 68094 H 6449.68 5.53675 -2.57442 0
M  V30 68095 H 6451.1 3.92694 -4.17689 0
M  V30 68096 H 6449.49 3.52364 -4.85757 0
M  V30 68097 H 6450.56 2.22007 -4.31093 0
M  V30 68098 N 6451.91 1.32725 0.849807 0
M  V30 68099 C 6452.85 1.22067 1.95878 0
M  V30 68100 C 6453.82 0.101737 1.65788 0
M  V30 68101 O 6455.01 0.278124 1.88762 0
M  V30 68102 C 6452.15 0.954661 3.31633 0
M  V30 68103 C 6451.26 2.15884 3.7419 0
M  V30 68104 C 6450.4 1.8279 4.9876 0
M  V30 68105 C 6449.44 2.99501 5.33821 0
M  V30 68106 N 6448.57 2.66468 6.49568 0
M  V30 68107 H 6453.41 2.16921 2.04326 0
M  V30 68108 H 6450.95 1.07881 1.00001 0
M  V30 68109 H 6452.91 0.780907 4.09826 0
M  V30 68110 H 6451.54 0.0428944 3.22771 0
M  V30 68111 H 6450.59 2.44271 2.91609 0
M  V30 68112 H 6451.9 3.03171 3.96092 0
M  V30 68113 H 6451.06 1.61995 5.84673 0
M  V30 68114 H 6449.79 0.927236 4.78804 0
M  V30 68115 H 6448.8 3.20923 4.46417 0
M  V30 68116 H 6450.02 3.90307 5.55731 0
M  V30 68117 H 6447.97 1.78948 6.31121 0
M  V30 68118 H 6447.89 3.47286 6.71512 0
M  V30 68119 H 6449.16 2.49114 7.38622 0
M  V30 68120 N 6453.38 -1.06669 1.16015 0
M  V30 68121 C 6454.33 -2.1615 0.859185 0
M  V30 68122 C 6455.33 -1.68543 -0.170222 0
M  V30 68123 O 6456.53 -1.79983 -0.0245783 0
M  V30 68124 H 6452.91 -0.705542 0.260221 0
M  V30 68125 H 6454.88 -2.38748 1.79003 0
M  V30 68126 C 6453.63 -3.45699 0.372522 0
M  V30 68127 H 6452.95 -3.82721 1.15605 0
M  V30 68128 H 6454.39 -4.23525 0.200668 0
M  V30 68129 C 6452.85 -3.24455 -0.907236 0
M  V30 68130 O 6453.38 -3.49665 -1.97731 0
M  V30 68131 N 6451.59 -2.77906 -0.849491 0
M  V30 68132 H 6451.13 -2.57591 0.0214964 0
M  V30 68133 H 6451.09 -2.64072 -1.70627 0
M  V30 68134 N 6454.86 -0.958036 -1.25138 0
M  V30 68135 C 6456.09 -0.631957 -1.97012 0
M  V30 68136 C 6456.51 0.796648 -1.71169 0
M  V30 68137 O 6455.86 1.53331 -0.989736 0
M  V30 68138 C 6455.91 -0.88526 -3.50493 0
M  V30 68139 O 6455.63 -2.25769 -3.75446 0
M  V30 68140 C 6457.14 -0.572036 -4.39594 0
M  V30 68141 H 6454.36 -0.236628 -0.627892 0
M  V30 68142 H 6456.9 -1.28334 -1.59219 0
M  V30 68143 H 6455.05 -0.280238 -3.86385 0
M  V30 68144 H 6455.47 -2.33039 -4.69886 0
M  V30 68145 H 6456.94 -0.79979 -5.46175 0
M  V30 68146 H 6457.42 0.493489 -4.36419 0
M  V30 68147 H 6458.03 -1.15653 -4.09273 0
M  V30 68148 N 6456.34 1.3983 -0.727006 0
M  V30 68149 C 6457.59 2.0097 -0.271859 0
M  V30 68150 C 6457.92 1.57541 1.13554 0
M  V30 68151 O 6457.19 0.800642 1.77257 0
M  V30 68152 C 6457.48 3.58248 -0.364722 0
M  V30 68153 C 6457.33 4.11718 -1.81132 0
M  V30 68154 C 6458.65 4.39346 0.257498 0
M  V30 68155 H 6455.77 0.730149 -0.100257 0
M  V30 68156 H 6458.41 1.66149 -0.921657 0
M  V30 68157 H 6456.56 3.88042 0.188513 0
M  V30 68158 H 6458.23 3.92676 -2.42081 0
M  V30 68159 H 6456.48 3.65577 -2.33529 0
M  V30 68160 H 6457.15 5.20867 -1.82761 0
M  V30 68161 H 6459.62 4.15549 -0.214021 0
M  V30 68162 H 6458.5 5.4866 0.162135 0
M  V30 68163 H 6458.76 4.21223 1.34253 0
M  V30 68164 N 6457.82 0.474035 1.50302 0
M  V30 68165 C 6459.06 -0.0786461 2.04249 0
M  V30 68166 C 6459.42 -1.36723 1.34799 0
M  V30 68167 O 6460.62 -2.00247 1.79317 0
M  V30 68168 C 6458.89 -0.255274 3.56487 0
M  V30 68169 S 6460.45 -0.766087 4.32061 0
M  V30 68170 H 6457.27 -0.0145646 0.710851 0
M  V30 68171 H 6459.87 0.641846 1.84663 0
M  V30 68172 H 6458.58 0.688313 4.04587 0
M  V30 68173 H 6458.11 -1.00179 3.80431 0
M  V30 68174 H 6460.12 -2.03909 4.52367 0
M  V30 68175 N 6459.3 -1.56238 0.206757 0
M  V30 68176 C 6460.53 -2.02293 -0.434196 0
M  V30 68177 C 6460.94 -1.08678 -1.54385 0
M  V30 68178 O 6460.3 -0.0937028 -1.82259 0
M  V30 68179 C 6460.35 -3.47973 -0.979658 0
M  V30 68180 O 6460.07 -4.38016 0.0857318 0
M  V30 68181 C 6461.57 -4.09601 -1.69533 0
M  V30 68182 H 6458.79 -0.662276 -0.10785 0
M  V30 68183 H 6461.33 -2.01999 0.31888 0
M  V30 68184 H 6459.49 -3.48929 -1.68307 0
M  V30 68185 H 6459.9 -5.23511 -0.321996 0
M  V30 68186 H 6461.38 -5.13351 -2.02917 0
M  V30 68187 H 6461.85 -3.53736 -2.60322 0
M  V30 68188 H 6462.46 -4.12451 -1.03749 0
M  V30 68189 N 6460.78 0.0667605 -1.57459 0
M  V30 68190 C 6462.02 0.766093 -1.87773 0
M  V30 68191 C 6462.35 1.7697 -0.799706 0
M  V30 68192 O 6461.63 1.93575 0.189486 0
M  V30 68193 C 6461.91 1.46957 -3.28748 0
M  V30 68194 C 6461.77 0.482038 -4.4721 0
M  V30 68195 C 6463.08 2.41323 -3.68037 0
M  V30 68196 H 6460.2 0.277042 -0.682947 0
M  V30 68197 H 6462.85 0.0292083 -1.89978 0
M  V30 68198 H 6461 2.09769 -3.27 0
M  V30 68199 H 6462.67 -0.141258 -4.61084 0
M  V30 68200 H 6460.91 -0.202193 -4.33329 0
M  V30 68201 H 6461.58 1.01198 -5.42644 0
M  V30 68202 H 6464.06 1.88584 -3.70911 0
M  V30 68203 H 6462.93 2.87545 -4.67556 0
M  V30 68204 H 6463.19 3.26351 -2.98241 0
M  V30 68205 N 6462.25 1.53927 0.338263 0
M  V30 68206 C 6463.49 1.73145 1.08629 0
M  V30 68207 C 6463.86 0.487059 1.8572 0
M  V30 68208 O 6465.06 0.556342 2.6298 0
M  V30 68209 C 6463.33 2.96317 1.99827 0
M  V30 68210 S 6464.89 3.3637 2.81781 0
M  V30 68211 H 6461.71 0.608982 0.366963 0
M  V30 68212 H 6464.31 1.9208 0.364067 0
M  V30 68213 H 6463.01 3.8505 1.42003 0
M  V30 68214 H 6462.54 2.79862 2.76479 0
M  V30 68215 H 6464.56 2.90518 4.02261 0
M  V30 68216 N 6463.73 -0.599557 1.4575 0
M  V30 68217 C 6464.98 -1.35565 1.49889 0
M  V30 68218 C 6465.3 -1.94459 0.14521 0
M  V30 68219 O 6464.57 -1.77617 -0.826368 0
M  V30 68220 H 6463.15 -0.503285 0.552008 0
M  V30 68221 H 6465.81 -0.703445 1.81763 0
M  V30 68222 H 6464.91 -2.17098 2.2422 0
M  V30 68223 N 6465.21 -1.33174 -0.842756 0
M  V30 68224 C 6466.14 -1.17442 -1.9566 0
M  V30 68225 C 6467.12 -0.070858 -1.62446 0
M  V30 68226 O 6468.3 -0.232378 -1.87062 0
M  V30 68227 C 6465.43 -0.800465 -3.29105 0
M  V30 68228 C 6464.48 -1.91097 -3.81293 0
M  V30 68229 S 6465.31 -3.5213 -4.03441 0
M  V30 68230 C 6466.47 -3.16733 -5.39844 0
M  V30 68231 H 6466.7 -2.1173 -2.08705 0
M  V30 68232 H 6464.23 -1.17972 -0.996094 0
M  V30 68233 H 6466.19 -0.591484 -4.06216 0
M  V30 68234 H 6464.85 0.123749 -3.13856 0
M  V30 68235 H 6464.04 -1.60259 -4.77842 0
M  V30 68236 H 6463.65 -2.07641 -3.11065 0
M  V30 68237 H 6465.94 -2.67316 -6.22534 0
M  V30 68238 H 6466.88 -4.12348 -5.75652 0
M  V30 68239 H 6467.29 -2.53433 -5.04412 0
M  V30 68240 N 6466.69 1.06052 -1.16579 0
M  V30 68241 C 6467.93 1.79308 -0.96021 0
M  V30 68242 C 6468.29 1.85616 0.506423 0
M  V30 68243 O 6467.58 1.33853 1.37091 0
M  V30 68244 C 6467.78 3.23259 -1.5244 0
M  V30 68245 C 6467.6 3.30981 -3.04437 0
M  V30 68246 C 6466.37 3.40773 -3.73098 0
M  V30 68247 C 6468.57 3.20641 -4.02112 0
M  V30 68248 N 6466.55 3.37534 -5.12781 0
M  V30 68249 C 6467.93 3.24673 -5.28193 0
M  V30 68250 C 6469.98 3.04542 -3.93902 0
M  V30 68251 C 6468.68 3.14261 -6.47018 0
M  V30 68252 C 6470.71 2.95469 -5.12301 0
M  V30 68253 C 6470.07 3.00126 -6.37263 0
M  V30 68254 H 6466.17 0.668852 -0.405168 0
M  V30 68255 H 6468.75 1.2649 -1.48014 0
M  V30 68256 H 6466.93 3.74468 -1.03092 0
M  V30 68257 H 6468.66 3.84706 -1.25632 0
M  V30 68258 H 6465.41 3.45672 -3.23741 0
M  V30 68259 H 6465.84 3.39408 -5.85774 0
M  V30 68260 H 6470.48 2.99786 -2.98141 0
M  V30 68261 H 6468.2 3.17774 -7.42998 0
M  V30 68262 H 6471.78 2.84097 -5.07721 0
M  V30 68263 H 6470.66 2.93167 -7.27339 0
M  V30 68264 N 6468.17 0.964658 1.24628 0
M  V30 68265 C 6469.11 0.49174 2.25501 0
M  V30 68266 C 6470.08 -0.461094 1.59572 0
M  V30 68267 O 6471.27 -0.372131 1.87136 0
M  V30 68268 C 6468.41 -0.214843 3.44431 0
M  V30 68269 C 6467.52 0.776402 4.24966 0
M  V30 68270 C 6466.66 0.046238 5.3118 0
M  V30 68271 C 6465.69 1.02775 6.0341 0
M  V30 68272 N 6464.83 0.327793 7.01334 0
M  V30 68273 H 6469.67 1.35678 2.65321 0
M  V30 68274 H 6467.21 0.680196 1.30429 0
M  V30 68275 H 6469.17 -0.641169 4.12244 0
M  V30 68276 H 6467.8 -1.04386 3.05456 0
M  V30 68277 H 6466.85 1.32118 3.5672 0
M  V30 68278 H 6468.16 1.52498 4.74917 0
M  V30 68279 H 6467.31 -0.438235 6.05115 0
M  V30 68280 H 6466.05 -0.735056 4.82129 0
M  V30 68281 H 6465.06 1.52313 5.28281 0
M  V30 68282 H 6466.28 1.80944 6.5455 0
M  V30 68283 H 6464.23 -0.43458 6.54559 0
M  V30 68284 H 6464.15 1.01529 7.49151 0
M  V30 68285 H 6465.41 -0.134811 7.79383 0
M  V30 68286 N 6469.64 -1.39442 0.734411 0
M  V30 68287 C 6470.89 -2.00129 0.281538 0
M  V30 68288 C 6471.21 -1.58566 -1.13498 0
M  V30 68289 O 6470.48 -0.833631 -1.77278 0
M  V30 68290 H 6469.06 -0.740127 0.101102 0
M  V30 68291 H 6471.72 -1.705 0.944238 0
M  V30 68292 H 6470.82 -3.10356 0.329465 0
M  V30 68293 N 6471.12 -0.481999 -1.50048 0
M  V30 68294 C 6472.35 0.0664782 -2.06493 0
M  V30 68295 C 6472.76 1.33085 -1.34481 0
M  V30 68296 O 6472.1 1.79044 -0.410945 0
M  V30 68297 C 6472.16 0.409596 -3.57159 0
M  V30 68298 C 6471.83 -0.754317 -4.50732 0
M  V30 68299 C 6472.83 -1.63946 -4.93374 0
M  V30 68300 C 6470.51 -0.947737 -4.93278 0
M  V30 68301 C 6472.5 -2.70234 -5.7728 0
M  V30 68302 C 6470.19 -2.01382 -5.76965 0
M  V30 68303 C 6471.19 -2.88948 -6.18868 0
M  V30 68304 O 6470.88 -3.9372 -7.00885 0
M  V30 68305 H 6470.61 -0.00866419 -0.675944 0
M  V30 68306 H 6473.16 -0.672997 -1.94062 0
M  V30 68307 H 6471.39 1.20241 -3.67531 0
M  V30 68308 H 6473.08 0.894438 -3.95922 0
M  V30 68309 H 6473.85 -1.50177 -4.61164 0
M  V30 68310 H 6469.73 -0.275593 -4.60175 0
M  V30 68311 H 6473.27 -3.38613 -6.09907 0
M  V30 68312 H 6469.17 -2.15155 -6.08587 0
M  V30 68313 H 6469.94 -3.90841 -7.19156 0
M  V30 68314 N 6472.6 1.56126 -0.21504 0
M  V30 68315 C 6473.85 1.97739 0.417593 0
M  V30 68316 C 6474.17 1.10374 1.60756 0
M  V30 68317 O 6473.44 0.17933 1.95077 0
M  V30 68318 H 6472.02 0.730256 0.157273 0
M  V30 68319 H 6474.68 1.92476 -0.306419 0
M  V30 68320 H 6473.78 3.02996 0.748315 0
M  V30 68321 N 6474.08 -0.0584092 1.57492 0
M  V30 68322 C 6475.32 -0.760192 1.89738 0
M  V30 68323 C 6475.68 -1.7406 0.810372 0
M  V30 68324 O 6476.88 -2.48847 1.01629 0
M  V30 68325 C 6475.15 -1.43796 3.27196 0
M  V30 68326 S 6476.71 -2.17296 3.81219 0
M  V30 68327 H 6473.53 -0.252509 0.664651 0
M  V30 68328 H 6476.13 -0.015777 1.95494 0
M  V30 68329 H 6474.84 -0.710782 4.04198 0
M  V30 68330 H 6474.37 -2.22153 3.24671 0
M  V30 68331 H 6476.38 -3.4402 3.57582 0
M  V30 68332 N 6475.56 -1.54104 -0.330095 0
M  V30 68333 C 6476.78 -1.76268 -1.0929 0
M  V30 68334 C 6477.21 -0.506764 -1.81145 0
M  V30 68335 O 6476.56 0.541348 -1.73029 0
M  V30 68336 C 6476.61 -2.95148 -2.07171 0
M  V30 68337 O 6475.72 -2.66237 -3.14947 0
M  V30 68338 H 6475.06 -0.584295 -0.315429 0
M  V30 68339 H 6477.59 -2.01108 -0.376382 0
M  V30 68340 H 6477.6 -3.22313 -2.50156 0
M  V30 68341 H 6476.27 -3.86229 -1.54271 0
M  V30 68342 H 6474.85 -2.50002 -2.76683 0
M  V30 68343 N 6477.03 0.591819 -1.46066 0
M  V30 68344 C 6478.27 1.36149 -1.52456 0
M  V30 68345 C 6478.64 1.9126 -0.168434 0
M  V30 68346 O 6479.84 2.68587 -0.107058 0
M  V30 68347 C 6478.11 2.46727 -2.58574 0
M  V30 68348 S 6479.67 3.34241 -2.84303 0
M  V30 68349 H 6476.49 0.46397 -0.538751 0
M  V30 68350 H 6479.09 0.681294 -1.83245 0
M  V30 68351 H 6477.79 2.04616 -3.55753 0
M  V30 68352 H 6477.32 3.1953 -2.29487 0
M  V30 68353 H 6479.34 4.45315 -2.1888 0
M  V30 68354 N 6478.51 1.33619 0.835682 0
M  V30 68355 C 6479.79 1.15851 1.576 0
M  V30 68356 C 6480.17 -0.273877 2.09316 0
M  V30 68357 O 6479.52 -1.27338 1.89729 0
M  V30 68358 C 6479.73 2.20234 2.70736 0
M  V30 68359 C 6481.08 2.54554 3.39834 0
M  V30 68360 O 6482.1 2.18925 2.80981 0
M  V30 68361 O 6480.96 3.15707 4.46084 0
M  V30 68362 H 6478.05 0.44829 0.694957 0
M  V30 68363 H 6480.6 1.45212 0.87816 0
M  V30 68364 H 6479.37 3.16434 2.30185 0
M  V30 68365 H 6478.99 1.91977 3.48182 0
M  V30 68366 N 6479.99 -1.05432 1.1714 0
M  V30 68367 C 6480.92 -2.13108 0.843657 0
M  V30 68368 C 6481.94 -1.62081 -0.152885 0
M  V30 68369 O 6483.12 -1.7835 0.073078 0
M  V30 68370 C 6480.22 -3.38071 0.236872 0
M  V30 68371 C 6479.4 -4.18384 1.27568 0
M  V30 68372 C 6478.46 -5.21695 0.687099 0
M  V30 68373 O 6477.48 -5.52757 1.35826 0
M  V30 68374 N 6478.68 -5.78148 -0.522025 0
M  V30 68375 H 6481.45 -2.41821 1.77039 0
M  V30 68376 H 6479.01 -1.21509 1.06992 0
M  V30 68377 H 6481 -4.04342 -0.17012 0
M  V30 68378 H 6479.57 -3.06912 -0.593591 0
M  V30 68379 H 6478.79 -3.47639 1.85852 0
M  V30 68380 H 6480.08 -4.68843 1.97645 0
M  V30 68381 H 6479.48 -5.55192 -1.0853 0
M  V30 68382 H 6478.04 -6.45953 -0.871114 0
M  V30 68383 N 6481.47 -0.971254 -1.24115 0
M  V30 68384 C 6482.4 -0.523247 -2.27562 0
M  V30 68385 C 6483.38 0.438925 -1.64339 0
M  V30 68386 O 6484.56 0.334278 -1.91301 0
M  V30 68387 C 6481.69 0.183956 -3.46812 0
M  V30 68388 C 6480.65 -0.694588 -4.22326 0
M  V30 68389 C 6479.97 0.14431 -5.34505 0
M  V30 68390 C 6481.27 -1.98093 -4.83277 0
M  V30 68391 H 6482.97 -1.3879 -2.65288 0
M  V30 68392 H 6480.51 -0.668801 -1.27527 0
M  V30 68393 H 6482.47 0.508618 -4.18319 0
M  V30 68394 H 6481.19 1.08298 -3.08122 0
M  V30 68395 H 6479.85 -1.00257 -3.52624 0
M  V30 68396 H 6479.5 1.04359 -4.92055 0
M  V30 68397 H 6479.2 -0.440333 -5.85948 0
M  V30 68398 H 6480.72 0.463562 -6.08838 0
M  V30 68399 H 6482.14 -1.72162 -5.46839 0
M  V30 68400 H 6480.53 -2.51259 -5.44967 0
M  V30 68401 H 6481.6 -2.6736 -4.04532 0
M  V30 68402 N 6482.95 1.39051 -0.741796 0
M  V30 68403 C 6484.36 1.54026 -0.418106 0
M  V30 68404 C 6484.56 1.70729 1.07023 0
M  V30 68405 O 6483.62 1.71162 1.85634 0
M  V30 68406 C 6484.93 2.7541 -1.20706 0
M  V30 68407 C 6486.48 2.8925 -1.19596 0
M  V30 68408 C 6486.95 4.1358 -1.96763 0
M  V30 68409 N 6488.45 4.20633 -1.93963 0
M  V30 68410 C 6489.18 5.158 -2.50474 0
M  V30 68411 N 6488.68 6.16714 -3.15651 0
M  V30 68412 N 6490.47 5.08066 -2.4047 0
M  V30 68413 H 6482.62 1.26458 -1.70652 0
M  V30 68414 H 6484.88 0.61342 -0.722786 0
M  V30 68415 H 6484.59 2.69433 -2.2605 0
M  V30 68416 H 6484.46 3.68267 -0.816035 0
M  V30 68417 H 6486.85 2.94715 -0.150625 0
M  V30 68418 H 6486.93 1.97437 -1.62642 0
M  V30 68419 H 6486.58 4.08877 -3.01301 0
M  V30 68420 H 6486.51 5.04451 -1.51119 0
M  V30 68421 H 6489 3.48353 -1.46487 0
M  V30 68422 H 6489.31 6.85803 -3.56221 0
M  V30 68423 H 6487.65 6.17082 -3.19743 0
M  V30 68424 H 6490.85 4.28165 -1.89189 0
M  V30 68425 H 6491.02 5.82055 -2.84809 0
M  V30 68426 N 6484.42 0.489949 1.49791 0
M  V30 68427 C 6485.33 -0.299188 2.32684 0
M  V30 68428 C 6486.35 -0.977992 1.43914 0
M  V30 68429 O 6487.53 -0.961813 1.76949 0
M  V30 68430 C 6484.59 -1.35611 3.19078 0
M  V30 68431 C 6483.65 -0.691918 4.23687 0
M  V30 68432 C 6482.89 -1.69848 5.05952 0
M  V30 68433 O 6483.11 -2.92715 4.89565 0
M  V30 68434 O 6482.04 -1.2599 5.88566 0
M  V30 68435 H 6485.87 0.379 3.01326 0
M  V30 68436 H 6483.45 0.251463 1.47269 0
M  V30 68437 H 6485.34 -1.96788 3.72629 0
M  V30 68438 H 6484.01 -2.01743 2.53143 0
M  V30 68439 H 6482.92 -0.0406995 3.74078 0
M  V30 68440 H 6484.25 -0.0732343 4.92146 0
M  V30 68441 N 6485.9 -1.5601 0.223316 0
M  V30 68442 C 6487.31 -1.84524 -0.284212 0
M  V30 68443 C 6487.66 -1.14473 -1.59343 0
M  V30 68444 O 6486.79 -0.415007 -2.12383 0
M  V30 68445 C 6487.38 -3.34748 -0.522448 0
M  V30 68446 C 6485.94 -3.63572 -0.974281 0
M  V30 68447 C 6485.09 -2.77274 -0.0383305 0
M  V30 68448 H 6488.04 -1.5229 0.446466 0
M  V30 68449 H 6488.06 -3.55049 -1.36822 0
M  V30 68450 H 6487.57 -3.85704 0.430589 0
M  V30 68451 H 6485.68 -3.18074 -1.94061 0
M  V30 68452 H 6485.79 -4.71545 -0.847468 0
M  V30 68453 H 6484.15 -2.48791 -0.545444 0
M  V30 68454 H 6484.94 -3.31029 0.909655 0
M  V30 68455 N 6487.38 0.0500562 -1.5752 0
M  V30 68456 C 6488.31 1.08957 -2.00508 0
M  V30 68457 C 6489.29 1.36362 -0.88568 0
M  V30 68458 O 6490.48 1.49371 -1.1498 0
M  V30 68459 C 6487.6 2.42913 -2.36031 0
M  V30 68460 C 6486.65 2.31504 -3.58201 0
M  V30 68461 S 6487.48 1.6884 -5.08186 0
M  V30 68462 C 6488.64 3.0433 -5.46932 0
M  V30 68463 H 6488.87 0.723332 -2.88366 0
M  V30 68464 H 6486.4 0.259341 -1.52206 0
M  V30 68465 H 6488.36 3.19959 -2.5717 0
M  V30 68466 H 6487.02 2.76692 -1.48662 0
M  V30 68467 H 6486.22 3.30342 -3.80644 0
M  V30 68468 H 6485.82 1.62599 -3.36805 0
M  V30 68469 H 6488.11 4.00659 -5.46332 0
M  V30 68470 H 6489.05 2.86643 -6.47488 0
M  V30 68471 H 6489.46 3.05936 -4.74408 0
M  V30 68472 N 6488.86 1.54277 0.321918 0
M  V30 68473 C 6489.79 1.86771 1.40139 0
M  V30 68474 C 6490.77 0.724655 1.53892 0
M  V30 68475 O 6491.96 0.978537 1.67745 0
M  V30 68476 C 6489.09 2.09652 2.76882 0
M  V30 68477 C 6488.04 3.25495 2.77916 0
M  V30 68478 C 6487.37 3.33751 4.17749 0
M  V30 68479 C 6488.67 4.63106 2.41516 0
M  V30 68480 H 6490.36 2.77178 1.13194 0
M  V30 68481 H 6487.91 1.33366 0.543087 0
M  V30 68482 H 6489.86 2.30968 3.52466 0
M  V30 68483 H 6488.58 1.15995 3.05307 0
M  V30 68484 H 6487.24 3.04069 2.04787 0
M  V30 68485 H 6486.89 2.3765 4.43319 0
M  V30 68486 H 6486.59 4.11609 4.19347 0
M  V30 68487 H 6488.11 3.57303 4.95143 0
M  V30 68488 H 6489.53 4.84291 3.06814 0
M  V30 68489 H 6487.92 5.43525 2.54363 0
M  V30 68490 H 6488.99 4.65243 1.36664 0
M  V30 68491 N 6490.34 -0.584065 1.46378 0
M  V30 68492 C 6491.27 -1.70772 1.52871 0
M  V30 68493 C 6492.28 -1.57364 0.417177 0
M  V30 68494 O 6493.47 -1.64814 0.685469 0
M  V30 68495 C 6490.57 -3.0901 1.39162 0
M  V30 68496 C 6489.74 -3.48434 2.6441 0
M  V30 68497 C 6488.8 -4.65726 2.44919 0
M  V30 68498 O 6487.83 -4.71656 3.18637 0
M  V30 68499 N 6489.03 -5.60518 1.50997 0
M  V30 68500 H 6491.8 -1.65658 2.49755 0
M  V30 68501 H 6489.36 -0.770008 1.42417 0
M  V30 68502 H 6491.35 -3.85268 1.23897 0
M  V30 68503 H 6489.92 -3.085 0.504638 0
M  V30 68504 H 6489.14 -2.61896 2.94626 0
M  V30 68505 H 6490.43 -3.7154 3.47614 0
M  V30 68506 H 6489.83 -5.58462 0.902057 0
M  V30 68507 H 6488.38 -6.36212 1.41696 0
M  V30 68508 N 6491.82 -1.34061 -0.828584 0
M  V30 68509 C 6493.04 -1.29312 -1.62152 0
M  V30 68510 C 6493.47 0.13119 -1.87642 0
M  V30 68511 O 6492.82 1.09113 -1.44789 0
M  V30 68512 C 6492.87 -2.08404 -2.94279 0
M  V30 68513 O 6491.98 -1.44968 -3.8608 0
M  V30 68514 H 6491.32 -0.444382 -0.493377 0
M  V30 68515 H 6493.85 -1.76778 -1.03008 0
M  V30 68516 H 6493.86 -2.19551 -3.43892 0
M  V30 68517 H 6492.53 -3.11963 -2.75049 0
M  V30 68518 H 6491.11 -1.4253 -3.44586 0
M  V30 68519 N 6493.29 1.0481 -1.17698 0
M  V30 68520 C 6494.26 2.10816 -0.899413 0
M  V30 68521 C 6495.26 1.60409 0.112059 0
M  V30 68522 O 6496.45 1.73782 -0.120545 0
M  V30 68523 C 6493.58 3.39119 -0.347979 0
M  V30 68524 H 6494.77 2.36872 -1.83934 0
M  V30 68525 H 6492.32 1.21115 -0.987966 0
M  V30 68526 H 6493.06 3.18722 0.598914 0
M  V30 68527 H 6492.84 3.77018 -1.07701 0
M  V30 68528 H 6494.33 4.17245 -0.172231 0
M  V30 68529 N 6494.77 0.977823 1.23598 0
M  V30 68530 C 6496.05 0.561779 1.87359 0
M  V30 68531 C 6496.43 -0.9611 1.87952 0
M  V30 68532 O 6495.78 -1.83673 1.35928 0
M  V30 68533 C 6495.99 1.16489 3.28985 0
M  V30 68534 C 6497.33 1.25604 4.05597 0
M  V30 68535 O 6498.36 1.11816 3.38195 0
M  V30 68536 O 6497.22 1.47512 5.26215 0
M  V30 68537 H 6494.31 0.188788 0.805163 0
M  V30 68538 H 6496.86 1.07274 1.31493 0
M  V30 68539 H 6495.63 2.20722 3.23106 0
M  V30 68540 H 6495.25 0.638595 3.92438 0
M  V30 68541 N 6496.25 -1.38656 0.749159 0
M  V30 68542 C 6497.21 -2.28849 0.126837 0
M  V30 68543 C 6498.21 -1.4698 -0.652201 0
M  V30 68544 O 6499.4 -1.67482 -0.479122 0
M  V30 68545 C 6496.53 -3.30667 -0.828966 0
M  V30 68546 H 6497.73 -2.85387 0.92163 0
M  V30 68547 H 6495.28 -1.47541 0.515884 0
M  V30 68548 H 6496.02 -2.79211 -1.6496 0
M  V30 68549 H 6495.8 -3.9115 -0.272809 0
M  V30 68550 H 6497.29 -3.98121 -1.26053 0
M  V30 68551 N 6497.73 -0.497886 -1.49529 0
M  V30 68552 C 6498.66 0.318871 -2.26971 0
M  V30 68553 C 6499.67 0.933397 -1.33385 0
M  V30 68554 O 6500.86 0.817264 -1.58692 0
M  V30 68555 C 6497.96 1.46364 -3.05664 0
M  V30 68556 C 6497.13 0.956996 -4.26802 0
M  V30 68557 C 6496.19 1.979 -4.87567 0
M  V30 68558 O 6495.22 1.5488 -5.47723 0
M  V30 68559 N 6496.42 3.30919 -4.76941 0
M  V30 68560 H 6499.19 -0.345157 -2.97706 0
M  V30 68561 H 6496.75 -0.330247 -1.58496 0
M  V30 68562 H 6498.74 2.14483 -3.4319 0
M  V30 68563 H 6497.31 2.03188 -2.37557 0
M  V30 68564 H 6496.53 0.100811 -3.94071 0
M  V30 68565 H 6497.82 0.596851 -5.05287 0
M  V30 68566 H 6497.22 3.68561 -4.29162 0
M  V30 68567 H 6495.77 3.94759 -5.1866 0
M  V30 68568 N 6499.21 1.55889 -0.231587 0
M  V30 68569 C 6500.43 2.03408 0.404964 0
M  V30 68570 C 6500.86 1.11012 1.51848 0
M  V30 68571 O 6500.21 0.100165 1.81023 0
M  V30 68572 C 6500.26 3.49074 0.904431 0
M  V30 68573 O 6499.37 3.59815 2.01511 0
M  V30 68574 H 6498.71 0.657822 0.0903679 0
M  V30 68575 H 6501.24 2.01529 -0.353163 0
M  V30 68576 H 6501.25 3.89594 1.21165 0
M  V30 68577 H 6499.92 4.15804 0.0894945 0
M  V30 68578 H 6498.5 3.31186 1.71377 0
M  V30 68579 N 6500.68 -0.0417018 1.57545 0
M  V30 68580 C 6501.93 -0.735034 1.88689 0
M  V30 68581 C 6502.26 -1.76029 0.827278 0
M  V30 68582 O 6501.51 -1.94931 -0.173295 0
M  V30 68583 C 6501.81 -1.45232 3.26562 0
M  V30 68584 C 6501.48 -0.564232 4.47356 0
M  V30 68585 C 6500.14 -0.319587 4.80138 0
M  V30 68586 C 6502.49 0.0497029 5.21176 0
M  V30 68587 C 6499.82 0.547978 5.84135 0
M  V30 68588 C 6502.17 0.904897 6.26095 0
M  V30 68589 C 6500.84 1.15912 6.57359 0
M  V30 68590 H 6500.11 -0.268968 0.690462 0
M  V30 68591 H 6502.75 0.00485719 1.91499 0
M  V30 68592 H 6501.06 -2.2652 3.19681 0
M  V30 68593 H 6502.76 -1.9941 3.47903 0
M  V30 68594 H 6499.35 -0.765059 4.21717 0
M  V30 68595 H 6503.53 -0.126362 4.96139 0
M  V30 68596 H 6498.79 0.753382 6.06741 0
M  V30 68597 H 6502.96 1.38719 6.82444 0
M  V30 68598 H 6500.59 1.83312 7.37767 0
M  V30 68599 N 6502.16 -1.54446 -0.313732 0
M  V30 68600 C 6503.09 -1.87511 -1.39147 0
M  V30 68601 C 6504.07 -0.732806 -1.53506 0
M  V30 68602 O 6505.26 -0.987419 -1.67223 0
M  V30 68603 C 6502.39 -2.11117 -2.75766 0
M  V30 68604 C 6501.34 -3.26964 -2.76186 0
M  V30 68605 C 6500.67 -3.35962 -4.15973 0
M  V30 68606 C 6501.97 -4.6438 -2.39057 0
M  V30 68607 H 6503.66 -2.77774 -1.11723 0
M  V30 68608 H 6501.21 -1.33652 -0.536007 0
M  V30 68609 H 6503.16 -2.32833 -3.51236 0
M  V30 68610 H 6501.88 -1.17613 -3.04688 0
M  V30 68611 H 6500.54 -3.05151 -2.03171 0
M  V30 68612 H 6500.19 -2.39998 -4.42052 0
M  V30 68613 H 6499.89 -4.13827 -4.17158 0
M  V30 68614 H 6501.42 -3.59924 -4.93242 0
M  V30 68615 H 6502.83 -4.85912 -3.04241 0
M  V30 68616 H 6501.23 -5.44867 -2.51477 0
M  V30 68617 H 6502.3 -4.65961 -1.34195 0
M  V30 68618 N 6503.64 0.576294 -1.46685 0
M  V30 68619 C 6504.59 1.70595 -1.58114 0
M  V30 68620 C 6505.58 1.63333 -0.449304 0
M  V30 68621 O 6506.79 1.68748 -0.626414 0
M  V30 68622 H 6503.16 0.564144 -0.497238 0
M  V30 68623 H 6505.13 1.58089 -2.53082 0
M  V30 68624 C 6503.88 3.08977 -1.59463 0
M  V30 68625 H 6503.21 3.15239 -2.45896 0
M  V30 68626 H 6504.65 3.87762 -1.71513 0
M  V30 68627 C 6503.11 3.35334 -0.324421 0
M  V30 68628 O 6503.64 3.97452 0.582631 0
M  V30 68629 N 6501.84 2.89838 -0.210342 0
M  V30 68630 H 6501.39 2.39467 -0.949377 0
M  V30 68631 H 6501.35 3.07845 0.638644 0
M  V30 68632 N 6505.12 1.34498 0.821463 0
M  V30 68633 C 6506.37 1.26686 1.57464 0
M  V30 68634 C 6506.69 -0.162633 1.94321 0
M  V30 68635 O 6505.96 -1.0956 1.62399 0
M  V30 68636 H 6504.54 0.465924 0.583887 0
M  V30 68637 H 6507.2 1.68427 0.980731 0
M  V30 68638 H 6506.3 1.8726 2.4968 0
M  V30 68639 N 6506.6 -1.04184 1.18252 0
M  V30 68640 C 6507.84 -1.77364 0.977154 0
M  V30 68641 C 6508.17 -1.8814 -0.493331 0
M  V30 68642 O 6507.43 -1.38513 -1.38248 0
M  V30 68643 C 6507.73 -3.20793 1.57564 0
M  V30 68644 C 6507.39 -3.30054 3.07205 0
M  V30 68645 C 6506.05 -3.32289 3.48048 0
M  V30 68646 C 6508.41 -3.30249 4.03219 0
M  V30 68647 C 6505.73 -3.32359 4.83482 0
M  V30 68648 C 6508.09 -3.31858 5.38566 0
M  V30 68649 C 6506.75 -3.32385 5.78858 0
M  V30 68650 H 6506.02 -0.649021 0.357566 0
M  V30 68651 H 6508.67 -1.22375 1.47298 0
M  V30 68652 H 6506.97 -3.78776 1.00178 0
M  V30 68653 H 6508.67 -3.76058 1.39218 0
M  V30 68654 H 6505.26 -3.29035 2.74653 0
M  V30 68655 H 6509.44 -3.27714 3.72716 0
M  V30 68656 H 6504.7 -3.31082 5.13998 0
M  V30 68657 H 6508.87 -3.30958 6.12731 0
M  V30 68658 H 6506.5 -3.32192 6.83778 0
M  V30 68659 N 6508.07 -0.984364 -1.23077 0
M  V30 68660 C 6509.04 -0.532816 -2.22921 0
M  V30 68661 C 6510.04 0.379704 -1.56253 0
M  V30 68662 O 6511.23 0.172845 -1.7334 0
M  V30 68663 C 6508.36 0.226142 -3.40149 0
M  V30 68664 H 6509.55 -1.41568 -2.64383 0
M  V30 68665 H 6507.11 -0.770668 -1.35979 0
M  V30 68666 H 6507.84 1.12537 -3.04148 0
M  V30 68667 H 6507.63 -0.428938 -3.89747 0
M  V30 68668 H 6509.12 0.530525 -4.14216 0
M  V30 68669 N 6509.55 1.38256 -0.756502 0
M  V30 68670 C 6510.8 2.00348 -0.314427 0
M  V30 68671 C 6511.13 1.59914 1.10187 0
M  V30 68672 O 6510.41 0.83806 1.75519 0
M  V30 68673 C 6510.69 3.57394 -0.44063 0
M  V30 68674 C 6510.54 4.07783 -1.89824 0
M  V30 68675 C 6511.86 4.39793 0.164248 0
M  V30 68676 H 6508.98 0.727858 -0.115722 0
M  V30 68677 H 6511.62 1.64157 -0.956692 0
M  V30 68678 H 6509.77 3.88355 0.106161 0
M  V30 68679 H 6511.44 3.87453 -2.50356 0
M  V30 68680 H 6509.69 3.60542 -2.41231 0
M  V30 68681 H 6510.36 5.16873 -1.93768 0
M  V30 68682 H 6512.83 4.15002 -0.302117 0
M  V30 68683 H 6511.71 5.48881 0.0457191 0
M  V30 68684 H 6511.97 4.23976 1.25288 0
M  V30 68685 O 6511.07 0.647406 1.47956 0
M  V30 68686 H 6511.76 0.171137 1.92943 0
M  V30 END ATOM
M  V30 BEGIN BOND
M  V30 END BOND
M  V30 END CTAB
M  END
$$$$
