drugbank_target|P0DTC2 Spike glycoprotein (DB15691; DB15718; DB15897; DB15940; DB15941)
 OpenBabel12092121283D

  0  0  0     0  0            999 V3000
M  V30 BEGIN CTAB
M  V30 COUNTS 19703 19932 0 0 0
M  V30 BEGIN ATOM
M  V30 1 H -0.908 1.98254 -0.117106 0
M  V30 2 N 0 1.576 0 0
M  V30 3 C 0.933 2.03868 1.02534 0
M  V30 4 C 1.911 0.928543 1.3348 0
M  V30 5 O 3.095 1.19667 1.45644 0
M  V30 6 C 0.222 2.43627 2.35294 0
M  V30 7 C -0.732 3.65373 2.2001 0
M  V30 8 S 0.101 5.13292 1.52614 0
M  V30 9 C 1.257 5.56322 2.86805 0
M  V30 10 H 1.49 2.90518 0.631377 0
M  V30 11 H -0.977 1.52953 0.210867 0
M  V30 12 H 0.981 2.67203 3.11629 0
M  V30 13 H -0.358 1.57376 2.7183 0
M  V30 14 H -1.165 3.90944 3.18086 0
M  V30 15 H -1.563 3.418 1.51819 0
M  V30 16 H 0.729 5.58782 3.83104 0
M  V30 17 H 1.672 6.56266 2.65933 0
M  V30 18 H 2.08 4.83886 2.90714 0
M  V30 19 N 1.4781 -0.272755 1.55222 0
M  V30 20 C 2.7251 -1.00433 1.7584 0
M  V30 21 C 3.0531 -1.86275 0.559629 0
M  V30 22 O 2.3081 -1.90269 -0.457857 0
M  V30 23 C 2.6071 -1.91642 3.01675 0
M  V30 24 C 2.2731 -1.21548 4.34208 0
M  V30 25 C 0.9351 -1.02166 4.70229 0
M  V30 26 C 3.2871 -0.716684 5.16249 0
M  V30 27 C 0.6151 -0.316334 5.85847 0
M  V30 28 C 2.9671 -0.0249476 6.32595 0
M  V30 29 C 1.6311 0.180579 6.67256 0
M  V30 30 H 0.9011 -0.367509 0.643443 0
M  V30 31 H 3.5481 -0.276596 1.89492 0
M  V30 32 H 1.8531 -2.71037 2.82924 0
M  V30 33 H 3.5501 -2.48369 3.14824 0
M  V30 34 H 0.1401 -1.37645 4.05896 0
M  V30 35 H 4.3241 -0.854047 4.88896 0
M  V30 36 H -0.4199 -0.146378 6.11225 0
M  V30 37 H 3.7541 0.369311 6.9542 0
M  V30 38 H 1.3811 0.729098 7.56696 0
M  V30 39 N 2.9562 -1.48159 -0.537278 0
M  V30 40 C 4.2022 -1.56035 -1.29541 0
M  V30 41 C 4.5352 -0.230377 -1.92829 0
M  V30 42 O 3.8102 0.762952 -1.78911 0
M  V30 43 C 4.0932 -2.69323 -2.39034 0
M  V30 44 C 3.9462 -4.12002 -1.80485 0
M  V30 45 C 5.2652 -2.78408 -3.40847 0
M  V30 46 H 2.3842 -0.567992 -0.469632 0
M  V30 47 H 5.0262 -1.80302 -0.599277 0
M  V30 48 H 3.1762 -2.48763 -2.98412 0
M  V30 49 H 4.8482 -4.43981 -1.25215 0
M  V30 50 H 3.0912 -4.19344 -1.11055 0
M  V30 51 H 3.7622 -4.87077 -2.59731 0
M  V30 52 H 6.2382 -2.97012 -2.91416 0
M  V30 53 H 5.1142 -3.59416 -4.14863 0
M  V30 54 H 5.3752 -1.86269 -4.00944 0
M  V30 55 N 4.4343 0.785586 -1.36625 0
M  V30 56 C 5.6813 1.54362 -1.31067 0
M  V30 57 C 6.0093 1.94195 0.10893 0
M  V30 58 O 5.2643 1.63262 1.07908 0
M  V30 59 C 5.5633 2.83007 -2.1827 0
M  V30 60 C 5.2293 2.62294 -3.6676 0
M  V30 61 C 3.8913 2.56353 -4.0723 0
M  V30 62 C 6.2433 2.43371 -4.6089 0
M  V30 63 C 3.5713 2.29461 -5.39967 0
M  V30 64 C 5.9233 2.18005 -5.93849 0
M  V30 65 C 4.5873 2.105 -6.3344 0
M  V30 66 H 3.8573 0.564851 -0.479609 0
M  V30 67 H 6.5043 0.906028 -1.68711 0
M  V30 68 H 4.8093 3.51253 -1.73576 0
M  V30 69 H 6.5063 3.40817 -2.11292 0
M  V30 70 H 3.0963 2.67774 -3.34656 0
M  V30 71 H 7.2803 2.46959 -4.30494 0
M  V30 72 H 2.5363 2.22135 -5.69619 0
M  V30 73 H 6.7103 2.02359 -6.66351 0
M  V30 74 H 4.3373 1.89425 -7.36222 0
M  V30 75 N 5.9124 1.20967 1.01018 0
M  V30 76 C 6.8424 0.988272 2.11555 0
M  V30 77 C 7.8234 -0.0849778 1.69888 0
M  V30 78 O 9.0084 0.0738202 1.9406 0
M  V30 79 C 6.1384 0.546528 3.42973 0
M  V30 80 C 5.0924 1.56375 3.9841 0
M  V30 81 C 4.4184 0.97842 5.25672 0
M  V30 82 C 5.7184 2.94922 4.31066 0
M  V30 83 H 7.4124 1.91276 2.30334 0
M  V30 84 H 4.9584 0.921073 1.1069 0
M  V30 85 H 6.9114 0.378839 4.19694 0
M  V30 86 H 5.6354 -0.413598 3.23971 0
M  V30 87 H 4.2944 1.71891 3.23804 0
M  V30 88 H 3.9424 0.0101688 5.02999 0
M  V30 89 H 3.6424 1.65784 5.63728 0
M  V30 90 H 5.1664 0.821939 6.05043 0
M  V30 91 H 6.5804 2.8288 4.9865 0
M  V30 92 H 4.9774 3.5983 4.80253 0
M  V30 93 H 6.0474 3.4616 3.39561 0
M  V30 94 N 7.3905 -1.2043 1.01659 0
M  V30 95 C 8.6365 -1.90079 0.706963 0
M  V30 96 C 8.9695 -1.78648 -0.761474 0
M  V30 97 O 8.2445 -1.17069 -1.55323 0
M  V30 98 C 8.5275 -3.41469 1.14327 0
M  V30 99 C 8.3805 -3.61833 2.67201 0
M  V30 100 C 9.6995 -4.34261 0.714529 0
M  V30 101 H 6.8185 -0.690254 0.2583 0
M  V30 102 H 9.4605 -1.41826 1.26433 0
M  V30 103 H 7.6105 -3.82696 0.669056 0
M  V30 104 H 9.2825 -3.2986 3.22475 0
M  V30 105 H 7.5255 -3.05304 3.08175 0
M  V30 106 H 8.1965 -4.67955 2.92783 0
M  V30 107 H 10.6725 -4.00682 1.12221 0
M  V30 108 H 9.5485 -5.38806 1.04784 0
M  V30 109 H 9.8095 -4.40431 -0.383799 0
M  V30 110 N 8.8686 -0.792821 -1.36206 0
M  V30 111 C 9.7986 -0.207853 -2.32573 0
M  V30 112 C 10.7796 0.659055 -1.56813 0
M  V30 113 O 11.9646 0.592176 -1.84951 0
M  V30 114 C 9.0946 0.655449 -3.41059 0
M  V30 115 C 8.0486 -0.111842 -4.27854 0
M  V30 116 C 7.3746 0.872274 -5.27537 0
M  V30 117 C 8.6746 -1.30299 -5.05786 0
M  V30 118 H 10.3686 -1.01294 -2.81744 0
M  V30 119 H 7.9146 -0.48854 -1.3546 0
M  V30 120 H 9.8676 1.07464 -4.07467 0
M  V30 121 H 8.5916 1.49328 -2.90463 0
M  V30 122 H 7.2506 -0.512053 -3.63006 0
M  V30 123 H 6.8986 1.70523 -4.73214 0
M  V30 124 H 6.5986 0.363291 -5.86476 0
M  V30 125 H 8.1226 1.28996 -5.96818 0
M  V30 126 H 9.5366 -0.959379 -5.65216 0
M  V30 127 H 7.9336 -1.7455 -5.74154 0
M  V30 128 H 9.0036 -2.09663 -4.37229 0
M  V30 129 N 10.3467 1.47872 -0.545128 0
M  V30 130 C 11.2767 2.32661 0.197793 0
M  V30 131 C 12.2577 1.43041 0.920504 0
M  V30 132 O 13.4427 1.71912 0.90333 0
M  V30 133 C 10.5727 3.24569 1.23582 0
M  V30 134 C 9.5267 4.23333 0.630323 0
M  V30 135 C 8.8527 5.0448 1.77211 0
M  V30 136 C 10.1527 5.20704 -0.407974 0
M  V30 137 H 11.8467 2.95024 -0.510045 0
M  V30 138 H 9.3927 1.4187 -0.246731 0
M  V30 139 H 11.3457 3.8272 1.76362 0
M  V30 140 H 10.0697 2.60236 1.97344 0
M  V30 141 H 8.7287 3.6639 0.123922 0
M  V30 142 H 8.3767 4.36561 2.49847 0
M  V30 143 H 8.0767 5.71339 1.37281 0
M  V30 144 H 9.6007 5.65487 2.3034 0
M  V30 145 H 11.0147 5.7329 0.033305 0
M  V30 146 H 9.4117 5.95699 -0.725486 0
M  V30 147 H 10.4817 4.66917 -1.30828 0
M  V30 148 N 11.8248 0.280983 1.55075 0
M  V30 149 C 13.2358 -0.215629 1.85451 0
M  V30 150 C 13.5868 -1.54991 1.203 0
M  V30 151 O 12.7118 -2.10699 0.493435 0
M  V30 152 C 13.3068 -0.398026 3.36454 0
M  V30 153 C 11.8658 -0.838866 3.66933 0
M  V30 154 C 11.0128 0.064458 2.77225 0
M  V30 155 H 13.9638 0.502601 1.50531 0
M  V30 156 H 13.9848 -1.23569 3.59876 0
M  V30 157 H 13.4968 0.573241 3.83843 0
M  V30 158 H 11.5978 -1.8214 3.25048 0
M  V30 159 H 11.7108 -0.672123 4.74362 0
M  V30 160 H 10.0748 -0.452863 2.50642 0
M  V30 161 H 10.8578 1.03172 3.2743 0
M  V30 162 N 13.3029 -1.57598 0.00835791 0
M  V30 163 C 14.2329 -2.1198 -0.979113 0
M  V30 164 C 15.2139 -1.03091 -1.35301 0
M  V30 165 O 16.3989 -1.30818 -1.43528 0
M  V30 166 C 13.5289 -2.62995 -2.26828 0
M  V30 167 C 12.4829 -3.76485 -2.03576 0
M  V30 168 C 11.8089 -4.13846 -3.38579 0
M  V30 169 C 13.1089 -5.0342 -1.39161 0
M  V30 170 H 14.8029 -2.94738 -0.526281 0
M  V30 171 H 12.3489 -1.41783 -0.251704 0
M  V30 172 H 14.3019 -2.99669 -2.96271 0
M  V30 173 H 13.0259 -1.7737 -2.7424 0
M  V30 174 H 11.6849 -3.40217 -1.36557 0
M  V30 175 H 11.3329 -3.25232 -3.83709 0
M  V30 176 H 11.0329 -4.90312 -3.23834 0
M  V30 177 H 12.5569 -4.53086 -4.09323 0
M  V30 178 H 13.9709 -5.37812 -1.98573 0
M  V30 179 H 12.3679 -5.84746 -1.34878 0
M  V30 180 H 13.4379 -4.83548 -0.361868 0
M  V30 181 N 14.781 0.264519 -1.55364 0
M  V30 182 C 16.027 0.99646 -1.76631 0
M  V30 183 C 16.36 1.85632 -0.570478 0
M  V30 184 O 15.635 1.89647 0.43175 0
M  V30 185 C 15.918 1.87187 -3.07625 0
M  V30 186 C 15.771 1.04138 -4.37579 0
M  V30 187 C 17.09 2.85749 -3.34717 0
M  V30 188 H 14.209 0.360841 -0.642622 0
M  V30 189 H 16.851 0.268218 -1.88097 0
M  V30 190 H 15.001 2.49279 -2.9798 0
M  V30 191 H 16.673 0.440517 -4.59192 0
M  V30 192 H 14.916 0.345115 -4.32425 0
M  V30 193 H 15.587 1.68729 -5.2558 0
M  V30 194 H 18.063 2.33793 -3.4421 0
M  V30 195 H 16.939 3.44136 -4.27623 0
M  V30 196 H 17.2 3.61311 -2.54768 0
M  V30 197 N 16.2591 1.48442 0.529413 0
M  V30 198 C 17.4841 1.60406 1.31471 0
M  V30 199 C 17.9091 0.264738 1.86228 0
M  V30 200 O 17.2671 -0.763668 1.64432 0
M  V30 201 C 17.3151 2.65419 2.44101 0
M  V30 202 O 16.4191 2.22618 3.47153 0
M  V30 203 H 15.7601 0.537863 0.389357 0
M  V30 204 H 18.2901 1.94432 0.636965 0
M  V30 205 H 18.3001 2.86709 2.90279 0
M  V30 206 H 16.9751 3.62652 2.03608 0
M  V30 207 H 15.5521 2.11543 3.0709 0
M  V30 208 N 17.7372 -0.778329 1.37039 0
M  V30 209 C 18.9622 -1.57248 1.35233 0
M  V30 210 C 19.3872 -1.87999 -0.0615568 0
M  V30 211 O 18.7452 -1.48734 -1.03672 0
M  V30 212 C 18.7932 -2.86353 2.19167 0
M  V30 213 O 17.8972 -3.80442 1.59178 0
M  V30 214 H 17.2382 -0.476569 0.462362 0
M  V30 215 H 19.7682 -0.963853 1.80474 0
M  V30 216 H 19.7782 -3.35519 2.32145 0
M  V30 217 H 18.4532 -2.63299 3.21942 0
M  V30 218 H 17.0302 -3.39067 1.55203 0
M  V30 219 N 19.2153 -1.21501 -1.00376 0
M  V30 220 C 20.1473 -0.933174 -2.09343 0
M  V30 221 C 21.1603 0.0840896 -1.62583 0
M  V30 222 O 22.3493 -0.148563 -1.77881 0
M  V30 223 C 19.4493 -0.379869 -3.36764 0
M  V30 224 C 18.6223 -1.45176 -4.12605 0
M  V30 225 C 17.6813 -0.907476 -5.18316 0
M  V30 226 O 16.7073 -1.5912 -5.46507 0
M  V30 227 N 17.9093 0.276649 -5.7984 0
M  V30 228 H 20.6743 -1.87124 -2.34104 0
M  V30 229 H 18.2353 -1.12043 -1.16867 0
M  V30 230 H 20.2273 -0.00131488 -4.047 0
M  V30 231 H 18.7973 0.463048 -3.09151 0
M  V30 232 H 18.0173 -2.00411 -3.39454 0
M  V30 233 H 19.3053 -2.17328 -4.6005 0
M  V30 234 H 18.7033 0.849147 -5.59291 0
M  V30 235 H 17.2603 0.596702 -6.49063 0
M  V30 236 N 20.6934 1.19889 -1.02296 0
M  V30 237 C 21.9334 1.91125 -0.724602 0
M  V30 238 C 22.2974 1.77464 0.732835 0
M  V30 239 O 23.4984 2.43241 1.144 0
M  V30 240 C 21.7694 3.38187 -1.15604 0
M  V30 241 S 23.3284 4.27702 -0.980621 0
M  V30 242 H 20.1464 0.66018 -0.263976 0
M  V30 243 H 22.7484 1.44978 -1.31155 0
M  V30 244 H 21.4524 3.45653 -2.21251 0
M  V30 245 H 20.9834 3.89363 -0.562131 0
M  V30 246 H 22.9984 4.96073 0.112225 0
M  V30 247 N 22.1715 0.800033 1.35784 0
M  V30 248 C 23.4175 0.377901 1.99248 0
M  V30 249 C 23.7505 -1.05052 1.63333 0
M  V30 250 O 23.0255 -1.72768 0.893385 0
M  V30 251 C 23.3085 0.553922 3.55814 0
M  V30 252 C 23.1615 2.0268 4.01548 0
M  V30 253 C 24.4805 -0.0244802 4.40093 0
M  V30 254 H 21.5995 0.138782 0.723815 0
M  V30 255 H 24.2415 1.00835 1.61035 0
M  V30 256 H 22.3915 0.0172398 3.88496 0
M  V30 257 H 24.0635 2.62536 3.79305 0
M  V30 258 H 22.3065 2.5256 3.52698 0
M  V30 259 H 22.9775 2.10087 5.10458 0
M  V30 260 H 25.4535 0.433775 4.13833 0
M  V30 261 H 24.3295 0.128637 5.48749 0
M  V30 262 H 24.5905 -1.11758 4.27741 0
M  V30 263 N 23.6496 -1.47581 0.552962 0
M  V30 264 C 24.5976 -2.31648 -0.21023 0
M  V30 265 C 25.5916 -1.42663 -0.913432 0
M  V30 266 O 26.7976 -1.5945 -0.835201 0
M  V30 267 H 23.1726 -0.746989 -0.0866676 0
M  V30 268 H 25.1436 -2.93869 0.518051 0
M  V30 269 C 23.8926 -3.25226 -1.22976 0
M  V30 270 H 23.2156 -3.93658 -0.698077 0
M  V30 271 H 24.6556 -3.86889 -1.73473 0
M  V30 272 C 23.1146 -2.48448 -2.27542 0
M  V30 273 O 23.6446 -2.22585 -3.34393 0
M  V30 274 N 21.8506 -2.09532 -2.01357 0
M  V30 275 H 21.3976 -2.30765 -1.14478 0
M  V30 276 H 21.3556 -1.58476 -2.71538 0
M  V30 277 N 25.1277 -0.289203 -1.54924 0
M  V30 278 C 26.0577 0.58549 -2.2604 0
M  V30 279 C 27.0387 1.14753 -1.25562 0
M  V30 280 O 28.2237 1.17906 -1.54311 0
M  V30 281 C 25.3537 1.76305 -2.99222 0
M  V30 282 C 24.3077 1.33191 -4.06748 0
M  V30 283 C 23.6337 2.5937 -4.6758 0
M  V30 284 C 24.9337 0.471775 -5.20165 0
M  V30 285 H 26.6277 -0.00763532 -2.99399 0
M  V30 286 H 24.1737 -0.00511229 -1.43999 0
M  V30 287 H 26.1267 2.38097 -3.47689 0
M  V30 288 H 24.8507 2.38223 -2.23422 0
M  V30 289 H 23.5097 0.737121 -3.59113 0
M  V30 290 H 23.1577 3.19576 -3.88433 0
M  V30 291 H 22.8577 2.31228 -5.40192 0
M  V30 292 H 24.3817 3.21985 -5.18804 0
M  V30 293 H 25.7957 0.995056 -5.64599 0
M  V30 294 H 24.1927 0.284639 -5.99425 0
M  V30 295 H 25.2627 -0.506041 -4.82252 0
M  V30 296 N 26.6058 1.57591 -0.0167156 0
M  V30 297 C 27.8338 1.95575 0.675128 0
M  V30 298 C 28.2488 0.892542 1.6637 0
M  V30 299 O 27.6058 -0.126912 1.82058 0
M  V30 300 C 27.6568 3.33608 1.39239 0
M  V30 301 O 27.3778 4.3585 0.443444 0
M  V30 302 C 28.8788 3.86151 2.17721 0
M  V30 303 H 26.0988 0.644423 0.186978 0
M  V30 304 H 28.6428 2.0437 -0.0728 0
M  V30 305 H 26.7978 3.2607 2.09182 0
M  V30 306 H 27.2118 5.158 0.951358 0
M  V30 307 H 28.6858 4.85114 2.63379 0
M  V30 308 H 29.1628 3.19738 3.01105 0
M  V30 309 H 29.7688 3.96918 1.52761 0
M  V30 310 N 28.0839 -0.256276 1.55502 0
M  V30 311 C 29.3119 -1.00342 1.8094 0
M  V30 312 C 29.7269 -1.79307 0.59114 0
M  V30 313 O 29.0839 -1.77114 -0.440081 0
M  V30 314 C 29.1349 -1.94875 3.04476 0
M  V30 315 O 28.8559 -1.19107 4.21598 0
M  V30 316 C 30.3569 -2.81266 3.42644 0
M  V30 317 H 27.5769 -0.295685 0.602338 0
M  V30 318 H 30.1209 -0.281998 2.02546 0
M  V30 319 H 28.2759 -2.62457 2.84947 0
M  V30 320 H 28.6899 -1.82969 4.91551 0
M  V30 321 H 30.1639 -3.43362 4.32211 0
M  V30 322 H 30.6409 -3.51897 2.62802 0
M  V30 323 H 31.2469 -2.1915 3.64491 0
M  V30 324 N 29.562 -1.4872 -0.521534 0
M  V30 325 C 30.978 -1.35028 -0.850855 0
M  V30 326 C 31.178 -0.367712 -1.98116 0
M  V30 327 O 30.234 0.208037 -2.51642 0
M  V30 328 C 31.547 -2.75263 -1.21041 0
M  V30 329 C 33.095 -2.83813 -1.31981 0
M  V30 330 C 33.57 -4.24769 -1.71276 0
M  V30 331 N 35.061 -4.27482 -1.78363 0
M  V30 332 C 35.796 -5.33494 -2.1017 0
M  V30 333 N 35.292 -6.49775 -2.40343 0
M  V30 334 N 37.085 -5.20894 -2.11248 0
M  V30 335 H 29.236 -2.11214 0.22413 0
M  V30 336 H 31.499 -0.947252 0.0376439 0
M  V30 337 H 31.205 -3.48765 -0.453415 0
M  V30 338 H 31.079 -3.09327 -2.15863 0
M  V30 339 H 33.466 -2.10561 -2.06756 0
M  V30 340 H 33.547 -2.53358 -0.352596 0
M  V30 341 H 33.191 -4.9854 -0.970588 0
M  V30 342 H 33.121 -4.52673 -2.69062 0
M  V30 343 H 35.612 -3.43611 -1.57288 0
M  V30 344 H 35.925 -7.26402 -2.63743 0
M  V30 345 H 34.27 -6.53035 -2.37844 0
M  V30 346 H 37.461 -4.29065 -1.87139 0
M  V30 347 H 37.634 -6.03612 -2.35704 0
M  V30 348 N 31.0401 0.771051 -1.3745 0
M  V30 349 C 32.2681 1.56015 -1.35893 0
M  V30 350 C 32.6831 1.88718 0.0555523 0
M  V30 351 O 32.0401 1.51502 1.01752 0
M  V30 352 C 32.0911 2.87001 -2.19801 0
M  V30 353 O 31.8121 2.557 -3.55738 0
M  V30 354 C 33.3131 3.81228 -2.26231 0
M  V30 355 H 30.5331 0.483317 -0.465453 0
M  V30 356 H 33.0771 0.955611 -1.80799 0
M  V30 357 H 31.2321 3.43877 -1.78402 0
M  V30 358 H 31.6461 3.39584 -3.99729 0
M  V30 359 H 33.1201 4.70139 -2.89263 0
M  V30 360 H 33.5971 4.20409 -1.27093 0
M  V30 361 H 34.2031 3.30281 -2.67945 0
M  V30 362 N 32.5182 1.22032 0.997298 0
M  V30 363 C 33.4502 0.944263 2.08845 0
M  V30 364 C 34.4632 -0.0754663 1.62625 0
M  V30 365 O 35.6522 0.157994 1.77799 0
M  V30 366 C 32.7522 0.397723 3.36558 0
M  V30 367 C 31.9252 1.47362 4.11829 0
M  V30 368 C 30.9842 0.934951 5.17827 0
M  V30 369 O 30.0102 1.62016 5.45655 0
M  V30 370 N 31.2122 -0.245895 5.79979 0
M  V30 371 H 33.9772 1.88363 2.33109 0
M  V30 372 H 31.5382 1.12661 1.16272 0
M  V30 373 H 33.5302 0.0227771 4.04694 0
M  V30 374 H 32.1002 -0.446646 3.09393 0
M  V30 375 H 31.3202 2.02208 3.38386 0
M  V30 376 H 32.6082 2.19764 4.58891 0
M  V30 377 H 32.0062 -0.819475 5.59733 0
M  V30 378 H 30.5632 -0.562272 6.4937 0
M  V30 379 N 33.9963 -1.19345 1.0293 0
M  V30 380 C 34.9263 -2.2481 0.631105 0
M  V30 381 C 35.9073 -1.66245 -0.360104 0
M  V30 382 O 37.0923 -1.92677 -0.242726 0
M  V30 383 C 34.2223 -3.47295 -0.0184607 0
M  V30 384 C 33.1763 -4.18536 0.895073 0
M  V30 385 C 32.5023 -5.34586 0.110592 0
M  V30 386 C 33.8023 -4.73287 2.209 0
M  V30 387 H 35.4963 -2.58372 1.51275 0
M  V30 388 H 33.0423 -1.24194 0.728818 0
M  V30 389 H 34.9953 -4.20268 -0.308675 0
M  V30 390 H 33.7193 -3.12933 -0.934907 0
M  V30 391 H 32.3783 -3.47446 1.16949 0
M  V30 392 H 32.0263 -4.96469 -0.807902 0
M  V30 393 H 31.7263 -5.83183 0.719087 0
M  V30 394 H 33.2503 -6.10355 -0.172871 0
M  V30 395 H 34.6643 -5.38013 1.98028 0
M  V30 396 H 33.0613 -5.32373 2.76946 0
M  V30 397 H 34.1313 -3.91331 2.86336 0
M  V30 398 N 35.4744 -0.807222 -1.35358 0
M  V30 399 C 36.8854 -0.44876 -1.81226 0
M  V30 400 C 37.2364 1.02929 -1.67033 0
M  V30 401 O 36.3614 1.79991 -1.20133 0
M  V30 402 C 36.9564 -0.807774 -3.2903 0
M  V30 403 C 35.5154 -0.501901 -3.73039 0
M  V30 404 C 34.6624 -1.03304 -2.57339 0
M  V30 405 H 37.6134 -0.998808 -1.23327 0
M  V30 406 H 37.6344 -0.10554 -3.80354 0
M  V30 407 H 37.1464 -1.88357 -3.39328 0
M  V30 408 H 35.2474 0.565128 -3.68289 0
M  V30 409 H 35.3604 -1.03497 -4.67787 0
M  V30 410 H 33.7244 -0.455339 -2.50597 0
M  V30 411 H 34.5074 -2.11496 -2.70415 0
M  V30 412 N 36.9525 1.47285 -0.560781 0
M  V30 413 C 38.3635 1.86258 -0.128343 0
M  V30 414 C 38.7145 1.46699 1.30284 0
M  V30 415 O 37.8395 0.871698 1.98067 0
M  V30 416 C 38.4345 3.38044 -0.22614 0
M  V30 417 C 36.9935 3.76096 0.151283 0
M  V30 418 C 36.1405 2.71335 -0.572084 0
M  V30 419 H 39.0915 1.38752 -0.770297 0
M  V30 420 H 39.1125 3.76441 0.554322 0
M  V30 421 H 38.6245 3.66806 -1.26788 0
M  V30 422 H 36.7255 3.52951 1.19399 0
M  V30 423 H 36.8385 4.78641 -0.209765 0
M  V30 424 H 35.2025 2.54696 -0.0147653 0
M  V30 425 H 35.9855 3.02938 -1.61504 0
M  V30 426 N 38.4306 0.297415 1.54768 0
M  V30 427 C 39.3936 -0.567375 2.22066 0
M  V30 428 C 40.3936 -1.06409 1.20556 0
M  V30 429 O 41.5836 -0.960691 1.45315 0
M  V30 430 C 38.7156 -1.78517 2.90421 0
M  V30 431 H 39.9086 0.0205534 2.99893 0
M  V30 432 H 37.4616 0.0482163 1.56226 0
M  V30 433 H 38.1966 -2.41303 2.16664 0
M  V30 434 H 37.9816 -1.43669 3.64831 0
M  V30 435 H 39.4716 -2.39964 3.41771 0
M  V30 436 N 39.9087 -1.5758 0.0250728 0
M  V30 437 C 41.1387 -1.95646 -0.663783 0
M  V30 438 C 41.5467 -0.899935 -1.66427 0
M  V30 439 O 40.8897 0.127191 -1.83259 0
M  V30 440 C 40.9517 -3.29835 -1.43 0
M  V30 441 C 40.6157 -4.53197 -0.588305 0
M  V30 442 C 41.6127 -5.19726 0.13469 0
M  V30 443 C 39.2977 -4.99529 -0.526897 0
M  V30 444 C 41.2917 -6.30902 0.90781 0
M  V30 445 C 38.9787 -6.10589 0.24993 0
M  V30 446 C 39.9767 -6.76134 0.965994 0
M  V30 447 O 39.6647 -7.85062 1.7301 0
M  V30 448 H 39.3967 -0.649282 -0.188174 0
M  V30 449 H 41.9507 -2.05245 0.0799006 0
M  V30 450 H 40.1807 -3.16716 -2.21873 0
M  V30 451 H 41.8697 -3.52833 -2.00658 0
M  V30 452 H 42.6357 -4.84904 0.0965562 0
M  V30 453 H 38.5147 -4.48319 -1.07381 0
M  V30 454 H 42.0587 -6.81995 1.46724 0
M  V30 455 H 37.9557 -6.44849 0.289795 0
M  V30 456 H 38.7237 -8.01708 1.64944 0
M  V30 457 N 41.3868 0.248026 -1.55636 0
M  V30 458 C 42.6148 0.993808 -1.81469 0
M  V30 459 C 43.0298 1.78991 -0.60064 0
M  V30 460 O 42.3868 1.77345 0.430682 0
M  V30 461 C 42.4378 1.93258 -3.05506 0
M  V30 462 O 42.1588 1.16869 -4.22224 0
M  V30 463 C 43.6598 2.79444 -3.4413 0
M  V30 464 H 40.8798 0.292486 -0.603898 0
M  V30 465 H 43.4238 0.271253 -2.02693 0
M  V30 466 H 41.5788 2.60943 -2.86335 0
M  V30 467 H 41.9928 1.80359 -4.92515 0
M  V30 468 H 43.4668 3.41066 -4.34026 0
M  V30 469 H 43.9438 3.50499 -2.64665 0
M  V30 470 H 44.5498 2.17214 -3.65648 0
M  V30 471 N 42.8649 1.48995 0.513639 0
M  V30 472 C 43.8129 1.65199 1.63744 0
M  V30 473 C 44.8069 0.51809 1.61283 0
M  V30 474 O 46.0129 0.697335 1.65943 0
M  V30 475 H 42.3879 0.52069 0.542574 0
M  V30 476 H 44.3589 2.59552 1.47226 0
M  V30 477 C 43.1079 1.72409 3.01945 0
M  V30 478 H 42.4309 2.59029 3.04539 0
M  V30 479 H 43.8709 1.87785 3.80148 0
M  V30 480 C 42.3299 0.46618 3.33659 0
M  V30 481 O 42.8599 -0.413744 3.99564 0
M  V30 482 N 41.0659 0.332931 2.88687 0
M  V30 483 H 40.6129 1.04996 2.35231 0
M  V30 484 H 40.5709 -0.507665 3.10274 0
M  V30 485 N 44.343 -0.763751 1.37857 0
M  V30 486 C 45.568 -1.55805 1.36893 0
M  V30 487 C 45.993 -1.88054 -0.0416135 0
M  V30 488 O 45.351 -1.49825 -1.02089 0
M  V30 489 C 45.399 -2.84012 2.22192 0
M  V30 490 O 44.503 -3.78732 1.63204 0
M  V30 491 H 43.844 -0.471638 0.46739 0
M  V30 492 H 46.374 -0.944657 1.81487 0
M  V30 493 H 46.384 -3.33037 2.35691 0
M  V30 494 H 45.059 -2.59869 3.24716 0
M  V30 495 H 43.636 -3.37402 1.58791 0
M  V30 496 N 45.8211 -1.22559 -0.990812 0
M  V30 497 C 47.0681 -1.05141 -1.73065 0
M  V30 498 C 47.3961 0.413191 -1.9006 0
M  V30 499 O 46.6511 1.32257 -1.44245 0
M  V30 500 C 46.9501 -1.71011 -3.13831 0
M  V30 501 C 46.6161 -3.20911 -3.16745 0
M  V30 502 C 45.2781 -3.61812 -3.17247 0
M  V30 503 C 47.6301 -4.16846 -3.12872 0
M  V30 504 C 44.9581 -4.97127 -3.1158 0
M  V30 505 C 47.3101 -5.5214 -3.08746 0
M  V30 506 C 45.9741 -5.92419 -3.07565 0
M  V30 507 H 45.2441 -0.384738 -0.633291 0
M  V30 508 H 47.8911 -1.5235 -1.16025 0
M  V30 509 H 46.1961 -1.16133 -3.74193 0
M  V30 510 H 47.8931 -1.55023 -3.69823 0
M  V30 511 H 44.4831 -2.88344 -3.17105 0
M  V30 512 H 48.6671 -3.86263 -3.11632 0
M  V30 513 H 43.9231 -5.27562 -3.09012 0
M  V30 514 H 48.0971 -6.26201 -3.04705 0
M  V30 515 H 45.7241 -6.97236 -3.02929 0
M  V30 516 N 47.2992 1.18797 -1.03562 0
M  V30 517 C 48.5272 1.92599 -0.755869 0
M  V30 518 C 48.9422 1.75886 0.686271 0
M  V30 519 O 48.2992 1.08517 1.46732 0
M  V30 520 C 48.3502 3.44159 -1.10619 0
M  V30 521 O 48.0712 3.60341 -2.4917 0
M  V30 522 C 49.5722 4.3507 -0.850214 0
M  V30 523 H 46.7922 0.611587 -0.276048 0
M  V30 524 H 49.3362 1.50742 -1.38192 0
M  V30 525 H 47.4912 3.83823 -0.525194 0
M  V30 526 H 47.9052 4.54128 -2.62427 0
M  V30 527 H 49.3792 5.39989 -1.14523 0
M  V30 528 H 49.8562 4.38673 0.215176 0
M  V30 529 H 50.4622 4.01097 -1.41426 0
M  V30 530 N 48.7773 0.814389 1.34928 0
M  V30 531 C 50.1933 0.499084 1.51596 0
M  V30 532 C 50.3933 -0.978319 1.76157 0
M  V30 533 O 49.4493 -1.76309 1.80752 0
M  V30 534 C 50.7623 1.35121 2.68631 0
M  V30 535 C 52.3103 1.34746 2.82511 0
M  V30 536 C 52.7853 2.18388 4.0258 0
M  V30 537 N 54.2763 2.15966 4.09772 0
M  V30 538 C 55.0113 2.77437 5.01813 0
M  V30 539 N 54.5073 3.47866 5.99134 0
M  V30 540 N 56.3003 2.67037 4.94619 0
M  V30 541 H 48.4513 1.7711 1.17243 0
M  V30 542 H 50.7143 0.754256 0.574284 0
M  V30 543 H 50.4203 2.40001 2.57085 0
M  V30 544 H 50.2943 1.00991 3.63429 0
M  V30 545 H 52.6813 0.30648 2.93504 0
M  V30 546 H 52.7623 1.72869 1.88547 0
M  V30 547 H 52.4063 3.2253 3.92347 0
M  V30 548 H 52.3363 1.77621 4.9574 0
M  V30 549 H 54.8273 1.64729 3.40107 0
M  V30 550 H 55.1403 3.92038 6.65977 0
M  V30 551 H 53.4853 3.51972 5.99284 0
M  V30 552 H 56.6763 2.11597 4.17546 0
M  V30 553 H 56.8493 3.15232 5.66156 0
M  V30 554 N 50.2554 -1.46986 0.568584 0
M  V30 555 C 51.5034 -2.02041 0.0487022 0
M  V30 556 C 51.8244 -1.44408 -1.31039 0
M  V30 557 O 51.0944 -0.623477 -1.85714 0
M  V30 558 H 49.6744 -0.746849 0.015014 0
M  V30 559 H 52.3364 -1.80257 0.741168 0
M  V30 560 H 51.4324 -3.12085 -0.0308961 0
M  V30 561 N 51.7335 -0.305618 -1.54608 0
M  V30 562 C 52.9795 0.302746 -2.00528 0
M  V30 563 C 53.3125 1.53184 -1.19367 0
M  V30 564 O 52.5875 1.92598 -0.271321 0
M  V30 565 C 52.8705 0.654756 -3.54097 0
M  V30 566 C 52.7235 -0.583793 -4.45995 0
M  V30 567 C 54.0425 1.47947 -4.14487 0
M  V30 568 H 51.1615 0.108564 -0.72896 0
M  V30 569 H 53.8035 -0.418634 -1.85331 0
M  V30 570 H 51.9535 1.26935 -3.67178 0
M  V30 571 H 53.6255 -1.22224 -4.44814 0
M  V30 572 H 51.8685 -1.21615 -4.16404 0
M  V30 573 H 52.5395 -0.293287 -5.5122 0
M  V30 574 H 55.0155 0.96013 -4.04871 0
M  V30 575 H 53.8915 1.69454 -5.22088 0
M  V30 576 H 54.1525 2.47011 -3.66658 0
M  V30 577 N 53.2116 1.57565 -0.0334293 0
M  V30 578 C 54.4416 1.95996 0.653398 0
M  V30 579 C 54.8496 0.908749 1.65947 0
M  V30 580 O 54.1926 -0.117471 1.83324 0
M  V30 581 C 54.2546 3.30589 1.41249 0
M  V30 582 C 53.9186 4.53503 0.564263 0
M  V30 583 C 54.9156 5.19647 -0.16225 0
M  V30 584 C 52.6006 4.99801 0.500398 0
M  V30 585 C 54.5946 6.30412 -0.941255 0
M  V30 586 C 52.2816 6.10448 -0.282308 0
M  V30 587 C 53.2796 6.75612 -1.00184 0
M  V30 588 O 52.9676 7.84134 -1.77171 0
M  V30 589 H 52.6996 0.65027 0.184728 0
M  V30 590 H 55.2536 2.05199 -0.0907841 0
M  V30 591 H 53.4836 3.17888 2.20191 0
M  V30 592 H 55.1726 3.53892 1.98784 0
M  V30 593 H 55.9386 4.84846 -0.12227 0
M  V30 594 H 51.8176 4.48883 1.05002 0
M  V30 595 H 55.3616 6.81208 -1.50339 0
M  V30 596 H 51.2586 6.44686 -0.323989 0
M  V30 597 H 52.0266 8.00822 -1.69194 0
M  V30 598 N 54.6897 -0.239769 1.55765 0
M  V30 599 C 55.9197 -0.982743 1.8173 0
M  V30 600 C 56.3277 -1.7917 0.607835 0
M  V30 601 O 55.6707 -1.78525 -0.432973 0
M  V30 602 C 55.7327 -1.96332 3.01155 0
M  V30 603 C 55.3967 -1.34062 4.36894 0
M  V30 604 C 56.3937 -0.739539 5.14613 0
M  V30 605 C 54.0787 -1.35784 4.83599 0
M  V30 606 C 56.0727 -0.163989 6.37189 0
M  V30 607 C 53.7597 -0.778441 6.06122 0
M  V30 608 C 54.7577 -0.182548 6.82756 0
M  V30 609 O 54.4457 0.387887 8.02964 0
M  V30 610 H 54.1777 -0.294481 0.608487 0
M  V30 611 H 56.7317 -0.26572 2.03674 0
M  V30 612 H 54.9617 -2.71884 2.74984 0
M  V30 613 H 56.6507 -2.57032 3.14149 0
M  V30 614 H 57.4167 -0.718687 4.79646 0
M  V30 615 H 53.2957 -1.81105 4.23936 0
M  V30 616 H 56.8397 0.301753 6.96947 0
M  V30 617 H 52.7367 -0.796645 6.40565 0
M  V30 618 H 53.5047 0.28044 8.18019 0
M  V30 619 N 56.1678 -1.49265 -0.50573 0
M  V30 620 C 57.5788 -1.51769 -1.08734 0
M  V30 621 C 57.9298 -0.301192 -1.93874 0
M  V30 622 O 57.0548 0.589456 -2.08217 0
M  V30 623 C 57.6498 -2.75017 -1.97867 0
M  V30 624 C 56.2088 -2.80314 -2.51199 0
M  V30 625 C 55.3558 -2.4562 -1.28709 0
M  V30 626 H 58.3068 -1.56031 -0.289855 0
M  V30 627 H 58.3278 -2.5491 -2.82491 0
M  V30 628 H 57.8398 -3.63539 -1.35873 0
M  V30 629 H 55.9408 -1.96061 -3.16845 0
M  V30 630 H 56.0538 -3.82366 -2.88675 0
M  V30 631 H 54.4178 -1.97297 -1.61078 0
M  V30 632 H 55.2008 -3.36411 -0.6843 0
M  V30 633 N 57.6459 0.756429 -1.3826 0
M  V30 634 C 58.9229 1.50584 -1.24835 0
M  V30 635 C 59.3029 2.10556 0.151485 0
M  V30 636 O 58.6509 1.96825 1.1607 0
M  V30 637 C 58.8609 2.57448 -2.3563 0
M  V30 638 C 60.2089 3.24429 -2.73917 0
M  V30 639 O 61.2329 2.67751 -2.34921 0
M  V30 640 O 60.0919 4.26937 -3.41156 0
M  V30 641 H 57.1859 0.667664 -0.48801 0
M  V30 642 H 59.7319 0.792083 -1.5008 0
M  V30 643 H 58.5039 2.11362 -3.29305 0
M  V30 644 H 58.1269 3.36408 -2.11933 0
M  V30 645 N 59.124 1.23083 0.984299 0
M  V30 646 C 60.071 1.00854 2.07598 0
M  V30 647 C 61.041 -0.0726709 1.65941 0
M  V30 648 O 62.226 0.0786535 1.90638 0
M  V30 649 C 59.366 0.601645 3.39815 0
M  V30 650 C 58.479 1.75456 3.94765 0
M  V30 651 C 57.614 1.29482 5.15177 0
M  V30 652 C 56.653 2.41873 5.62284 0
M  V30 653 N 55.79 1.96885 6.73929 0
M  V30 654 H 60.63 1.943 2.25946 0
M  V30 655 H 58.167 0.968001 1.10762 0
M  V30 656 H 60.125 0.346854 4.15756 0
M  V30 657 H 58.755 -0.295803 3.21442 0
M  V30 658 H 57.807 2.12346 3.15616 0
M  V30 659 H 59.119 2.59965 4.25699 0
M  V30 660 H 58.273 0.997923 5.98437 0
M  V30 661 H 57.012 0.420046 4.85888 0
M  V30 662 H 56.017 2.72342 4.77608 0
M  V30 663 H 57.242 3.29881 5.93595 0
M  V30 664 H 55.188 1.11782 6.46406 0
M  V30 665 H 55.105 2.74956 7.04227 0
M  V30 666 H 56.373 1.70289 7.60672 0
M  V30 667 N 60.6021 -1.18246 1.0419 0
M  V30 668 C 61.8481 -1.88536 0.747122 0
M  V30 669 C 62.1811 -1.80223 -0.723409 0
M  V30 670 O 61.4561 -1.20337 -1.52804 0
M  V30 671 C 61.7391 -3.38968 1.21544 0
M  V30 672 C 61.5921 -3.56084 2.74816 0
M  V30 673 C 62.9111 -4.32648 0.806482 0
M  V30 674 H 60.0301 -0.684619 0.272883 0
M  V30 675 H 62.6721 -1.39113 1.29413 0
M  V30 676 H 60.8221 -3.8119 0.750081 0
M  V30 677 H 62.4941 -3.22946 3.29399 0
M  V30 678 H 60.7371 -2.98699 3.14582 0
M  V30 679 H 61.4081 -4.61639 3.02644 0
M  V30 680 H 63.8841 -3.98211 1.20695 0
M  V30 681 H 62.7601 -5.36462 1.1619 0
M  V30 682 H 63.0211 -4.41146 -0.29029 0
M  V30 683 N 62.0802 -0.821533 -1.34494 0
M  V30 684 C 63.3272 -0.408946 -1.98328 0
M  V30 685 C 63.6552 1.02764 -1.65136 0
M  V30 686 O 62.9102 1.73026 -0.914349 0
M  V30 687 C 63.2092 -0.556512 -3.53041 0
M  V30 688 C 62.8752 -1.95861 -4.0614 0
M  V30 689 C 61.5372 -2.34217 -4.20352 0
M  V30 690 C 63.8892 -2.87523 -4.34718 0
M  V30 691 C 61.2172 -3.63572 -4.6047 0
M  V30 692 C 63.5692 -4.1634 -4.76281 0
M  V30 693 C 62.2332 -4.54675 -4.88699 0
M  V30 694 H 61.5032 -0.149644 -0.725732 0
M  V30 695 H 64.1502 -1.04521 -1.6046 0
M  V30 696 H 62.4552 0.163148 -3.9146 0
M  V30 697 H 64.1522 -0.217826 -4.00408 0
M  V30 698 H 60.7422 -1.65066 -3.95539 0
M  V30 699 H 64.9262 -2.59133 -4.23277 0
M  V30 700 H 60.1822 -3.93101 -4.68275 0
M  V30 701 H 64.3562 -4.87455 -4.97354 0
M  V30 702 H 61.9832 -5.54959 -5.19542 0
M  V30 703 N 63.5583 1.46682 -0.576371 0
M  V30 704 C 64.9743 1.57822 -0.237562 0
M  V30 705 C 65.1743 1.57237 1.26011 0
M  V30 706 O 64.2303 1.48596 2.04146 0
M  V30 707 C 65.5433 2.87499 -0.881168 0
M  V30 708 C 67.0913 3.01119 -0.85417 0
M  V30 709 C 67.5663 4.33524 -1.4772 0
M  V30 710 N 69.0573 4.40207 -1.44125 0
M  V30 711 C 69.7923 5.4126 -1.89276 0
M  V30 712 N 69.2883 6.49021 -2.42371 0
M  V30 713 N 71.0813 5.32422 -1.80231 0
M  V30 714 H 63.2323 1.45306 -1.54919 0
M  V30 715 H 65.4953 0.692733 -0.647167 0
M  V30 716 H 65.2013 2.9372 -1.93447 0
M  V30 717 H 65.0753 3.75224 -0.385592 0
M  V30 718 H 67.4623 2.94485 0.190491 0
M  V30 719 H 67.5433 2.14887 -1.3877 0
M  V30 720 H 67.1873 4.40916 -2.52103 0
M  V30 721 H 67.1173 5.1852 -0.918947 0
M  V30 722 H 69.6083 3.62931 -1.05307 0
M  V30 723 H 69.9213 7.2233 -2.74698 0
M  V30 724 H 68.2663 6.49858 -2.46393 0
M  V30 725 H 71.4573 4.47137 -1.38514 0
M  V30 726 H 71.6303 6.11034 -2.15735 0
M  V30 727 N 65.0364 0.313813 1.54444 0
M  V30 728 C 66.2614 -0.296681 2.05267 0
M  V30 729 C 66.6864 -1.45757 1.18897 0
M  V30 730 O 66.0444 -1.80239 0.195886 0
M  V30 731 C 66.0924 -0.71831 3.53373 0
M  V30 732 O 65.1964 -1.82175 3.69981 0
M  V30 733 H 64.5374 -0.0554061 0.661684 0
M  V30 734 H 67.0674 0.459387 1.99376 0
M  V30 735 H 67.0774 -1.00364 3.95463 0
M  V30 736 H 65.7524 0.130821 4.15694 0
M  V30 737 H 64.3294 -1.53598 3.39797 0
M  V30 738 N 66.5145 -1.57545 0.0417849 0
M  V30 739 C 67.7395 -1.97035 -0.647455 0
M  V30 740 C 68.1645 -0.918775 -1.64135 0
M  V30 741 O 67.5225 0.119006 -1.80909 0
M  V30 742 C 67.5705 -3.35609 -1.31905 0
M  V30 743 O 66.6745 -3.3287 -2.43457 0
M  V30 744 H 66.0155 -0.64211 -0.169086 0
M  V30 745 H 68.5455 -2.04318 0.107399 0
M  V30 746 H 68.5555 -3.72126 -1.67291 0
M  V30 747 H 67.2305 -4.11685 -0.590586 0
M  V30 748 H 65.8075 -3.08087 -2.10088 0
M  V30 749 N 67.9926 0.231505 -1.5589 0
M  V30 750 C 69.2386 0.95877 -1.78705 0
M  V30 751 C 69.5716 1.8438 -0.609725 0
M  V30 752 O 68.8466 1.90521 0.391426 0
M  V30 753 C 69.1296 1.8062 -3.11526 0
M  V30 754 C 68.9826 0.948328 -4.39689 0
M  V30 755 C 70.3016 2.78585 -3.40703 0
M  V30 756 H 67.4206 0.347129 -0.650131 0
M  V30 757 H 70.0626 0.228259 -1.88624 0
M  V30 758 H 68.2126 2.42902 -3.03201 0
M  V30 759 H 69.8846 0.343016 -4.60023 0
M  V30 760 H 68.1276 0.253314 -4.3306 0
M  V30 761 H 68.7986 1.57543 -5.29041 0
M  V30 762 H 71.2746 2.26439 -3.49091 0
M  V30 763 H 70.1506 3.34988 -4.34826 0
M  V30 764 H 70.4116 3.55825 -2.62375 0
M  V30 765 N 69.4707 1.49531 0.497807 0
M  V30 766 C 70.4007 1.6935 1.60757 0
M  V30 767 C 71.3817 0.542218 1.61227 0
M  V30 768 O 72.5667 0.778417 1.77917 0
M  V30 769 C 69.6967 1.76298 2.99226 0
M  V30 770 C 68.6507 2.91248 3.13622 0
M  V30 771 C 67.9767 2.83312 4.53474 0
M  V30 772 C 69.2767 4.3214 2.93346 0
M  V30 773 H 70.9707 2.62263 1.44425 0
M  V30 774 H 68.5167 1.26208 0.693367 0
M  V30 775 H 70.4697 1.88749 3.76765 0
M  V30 776 H 69.1937 0.799871 3.16654 0
M  V30 777 H 67.8527 2.78404 2.38509 0
M  V30 778 H 67.5007 1.84902 4.67782 0
M  V30 779 H 67.2007 3.60465 4.64046 0
M  V30 780 H 68.7247 2.97775 5.33069 0
M  V30 781 H 70.1387 4.45649 3.60652 0
M  V30 782 H 68.5357 5.1054 3.15387 0
M  V30 783 H 69.6057 4.46363 1.89441 0
M  V30 784 N 70.9488 -0.749086 1.3866 0
M  V30 785 C 71.8988 -1.85368 1.32751 0
M  V30 786 C 72.8828 -1.59511 0.210945 0
M  V30 787 O 74.0748 -1.71255 0.447299 0
M  V30 788 C 71.2038 -3.23131 1.15935 0
M  V30 789 C 70.2898 -3.54864 2.32233 0
M  V30 790 N 70.6808 -3.57625 3.57684 0
M  V30 791 C 68.9788 -3.85154 2.24883 0
M  V30 792 C 69.6798 -3.86753 4.34508 0
M  V30 793 N 68.6558 -4.03812 3.63918 0
M  V30 794 H 72.4578 -1.85787 2.27729 0
M  V30 795 H 69.9718 -0.946658 1.31955 0
M  V30 796 H 71.9688 -4.02185 1.09786 0
M  V30 797 H 70.6288 -3.23961 0.218947 0
M  V30 798 H 71.6398 -3.39276 3.91295 0
M  V30 799 H 68.3168 -3.93672 1.39027 0
M  V30 800 H 69.7068 -3.95474 5.43185 0
M  V30 801 N 72.4269 -1.23603 -0.977757 0
M  V30 802 C 73.6519 -1.09735 -1.75991 0
M  V30 803 C 74.0769 0.346858 -1.84874 0
M  V30 804 O 73.4349 1.25093 -1.3123 0
M  V30 805 C 73.4829 -1.73051 -3.16363 0
M  V30 806 O 72.5869 -0.994452 -4.0023 0
M  V30 807 H 71.9279 -0.384476 -0.541364 0
M  V30 808 H 74.4579 -1.6371 -1.2272 0
M  V30 809 H 74.4679 -1.78398 -3.66931 0
M  V30 810 H 73.1429 -2.78137 -3.09213 0
M  V30 811 H 71.7199 -1.01812 -3.58732 0
M  V30 812 N 73.905 1.17692 -1.04816 0
M  V30 813 C 75.133 1.91786 -0.776254 0
M  V30 814 C 75.548 1.76604 0.667577 0
M  V30 815 O 74.905 1.10067 1.45573 0
M  V30 816 C 74.956 3.42967 -1.14263 0
M  V30 817 O 74.677 3.57678 -2.52978 0
M  V30 818 C 76.178 4.34144 -0.896311 0
M  V30 819 H 73.398 0.608624 -0.282519 0
M  V30 820 H 75.942 1.49268 -1.39783 0
M  V30 821 H 74.097 3.83245 -0.565874 0
M  V30 822 H 74.511 4.51319 -2.67229 0
M  V30 823 H 75.985 5.38744 -1.20244 0
M  V30 824 H 76.462 4.38876 0.168636 0
M  V30 825 H 77.068 3.99574 -1.45672 0
M  V30 826 N 75.3831 0.828654 1.34056 0
M  V30 827 C 76.3151 0.212052 2.28217 0
M  V30 828 C 77.3281 -0.601362 1.51286 0
M  V30 829 O 78.5171 -0.430104 1.73241 0
M  V30 830 C 75.6171 -0.72088 3.31144 0
M  V30 831 C 74.7901 0.0509587 4.3737 0
M  V30 832 C 73.8491 -0.803766 5.20025 0
M  V30 833 O 72.8751 -0.246667 5.68665 0
M  V30 834 N 74.0771 -2.1227 5.40298 0
M  V30 835 H 76.8421 1.02105 2.81771 0
M  V30 836 H 74.4031 0.686153 1.46641 0
M  V30 837 H 76.3951 -1.29742 3.8334 0
M  V30 838 H 74.9651 -1.43061 2.77943 0
M  V30 839 H 74.1851 0.808831 3.85813 0
M  V30 840 H 75.4731 0.582065 5.0546 0
M  V30 841 H 74.8711 -2.59898 5.02464 0
M  V30 842 H 73.4281 -2.64796 5.95589 0
M  V30 843 N 76.8612 -1.46375 0.584142 0
M  V30 844 C 78.1382 -1.956 0.0033388 0
M  V30 845 C 78.5182 -1.52679 -1.45782 0
M  V30 846 O 77.8662 -0.77816 -2.14842 0
M  V30 847 C 78.0762 -3.48551 0.176891 0
M  V30 848 C 79.4242 -4.24576 0.0454609 0
M  V30 849 O 80.4482 -3.56043 0.105801 0
M  V30 850 O 79.3072 -5.46427 -0.0890376 0
M  V30 851 H 76.4012 -0.825547 -0.0490066 0
M  V30 852 H 78.9472 -1.56652 0.65256 0
M  V30 853 H 77.7192 -3.72683 1.1926 0
M  V30 854 H 77.3422 -3.94332 -0.508695 0
M  V30 855 N 78.3393 -0.321999 -1.54275 0
M  V30 856 C 79.2693 0.537411 -2.27231 0
M  V30 857 C 80.2503 1.12064 -1.27968 0
M  V30 858 O 81.4353 1.14606 -1.56777 0
M  V30 859 C 78.5653 1.69919 -3.02894 0
M  V30 860 C 77.5193 1.24534 -4.09482 0
M  V30 861 C 76.8453 2.49394 -4.72977 0
M  V30 862 C 78.1453 0.361335 -5.21049 0
M  V30 863 H 79.8393 -0.0711406 -2.99315 0
M  V30 864 H 77.3853 -0.0356555 -1.43956 0
M  V30 865 H 79.3383 2.30668 -3.52662 0
M  V30 866 H 78.0623 2.33431 -2.28424 0
M  V30 867 H 76.7213 0.660782 -3.60596 0
M  V30 868 H 76.3693 3.11265 -3.95124 0
M  V30 869 H 76.0693 2.19718 -5.44975 0
M  V30 870 H 77.5933 3.10908 -5.25517 0
M  V30 871 H 79.0073 0.875072 -5.66582 0
M  V30 872 H 77.4043 0.157428 -5.99893 0
M  V30 873 H 78.4743 -0.60822 -4.8107 0
M  V30 874 N 79.8174 1.5752 -0.0501392 0
M  V30 875 C 81.0644 1.9265 0.623874 0
M  V30 876 C 81.3924 0.928411 1.70912 0
M  V30 877 O 80.6474 -0.0594525 1.9561 0
M  V30 878 C 80.9464 3.34467 1.25963 0
M  V30 879 C 80.6124 4.49883 0.302689 0
M  V30 880 C 79.2744 4.81184 0.0393636 0
M  V30 881 C 81.6264 5.20002 -0.353205 0
M  V30 882 C 78.9544 5.79951 -0.887308 0
M  V30 883 C 81.3064 6.1976 -1.26806 0
M  V30 884 C 79.9704 6.49491 -1.54007 0
M  V30 885 H 79.2404 0.704957 0.228292 0
M  V30 886 H 81.8874 1.91146 -0.116398 0
M  V30 887 H 80.1924 3.32333 2.07514 0
M  V30 888 H 81.8894 3.58928 1.78806 0
M  V30 889 H 78.4794 4.25457 0.518109 0
M  V30 890 H 82.6634 4.96033 -0.162854 0
M  V30 891 H 77.9194 6.01322 -1.10553 0
M  V30 892 H 82.0934 6.73205 -1.78236 0
M  V30 893 H 79.7204 7.25837 -2.25976 0
M  V30 894 N 81.2955 -0.223234 1.56011 0
M  V30 895 C 82.2255 -1.27988 1.95298 0
M  V30 896 C 83.2065 -1.48976 0.820979 0
M  V30 897 O 84.3915 -1.61188 1.08315 0
M  V30 898 C 81.5215 -2.63 2.26822 0
M  V30 899 C 80.4755 -2.56671 3.42497 0
M  V30 900 C 79.8015 -3.95697 3.59622 0
M  V30 901 C 81.1015 -2.11601 4.77517 0
M  V30 902 H 82.7955 -0.953525 2.8381 0
M  V30 903 H 80.3415 -0.457244 1.36548 0
M  V30 904 H 82.2945 -3.37077 2.52898 0
M  V30 905 H 81.0185 -2.9732 1.35161 0
M  V30 906 H 79.6775 -1.85051 3.16467 0
M  V30 907 H 79.3255 -4.27322 2.6534 0
M  V30 908 H 79.0255 -3.92345 4.37424 0
M  V30 909 H 80.5495 -4.71438 3.88044 0
M  V30 910 H 81.9635 -2.7542 5.02809 0
M  V30 911 H 80.3605 -2.19311 5.5859 0
M  V30 912 H 81.4305 -1.06824 4.72987 0
M  V30 913 N 82.7736 -1.49793 -0.48987 0
M  V30 914 C 84.1846 -1.52914 -1.07118 0
M  V30 915 C 84.5356 -0.321738 -1.93544 0
M  V30 916 O 83.6606 0.567338 -2.08831 0
M  V30 917 C 84.2556 -2.771 -1.94938 0
M  V30 918 C 82.8146 -2.82963 -2.48212 0
M  V30 919 C 81.9616 -2.46972 -1.26096 0
M  V30 920 H 84.9126 -1.56329 -0.273289 0
M  V30 921 H 84.9336 -2.57892 -2.79771 0
M  V30 922 H 84.4456 -3.64959 -1.32009 0
M  V30 923 H 82.5466 -1.99411 -3.14748 0
M  V30 924 H 82.6596 -3.85406 -2.84603 0
M  V30 925 H 81.0236 -1.98994 -1.58976 0
M  V30 926 H 81.8066 -3.37118 -0.648581 0
M  V30 927 N 84.2517 0.741722 -1.39055 0
M  V30 928 C 85.4987 1.50114 -1.35912 0
M  V30 929 C 85.8267 1.94443 0.0470937 0
M  V30 930 O 85.0817 1.66612 1.02659 0
M  V30 931 C 85.3807 2.7592 -2.27163 0
M  V30 932 C 85.0467 2.50493 -3.74919 0
M  V30 933 C 83.7087 2.43267 -4.1518 0
M  V30 934 C 86.0607 2.28585 -4.684 0
M  V30 935 C 83.3887 2.12166 -5.46994 0
M  V30 936 C 85.7407 1.99002 -6.00484 0
M  V30 937 C 84.4047 1.90241 -6.39816 0
M  V30 938 H 83.6747 0.549306 -0.497336 0
M  V30 939 H 86.3217 0.851896 -1.71508 0
M  V30 940 H 84.6267 3.45553 -1.84663 0
M  V30 941 H 86.3237 3.33923 -2.22028 0
M  V30 942 H 82.9137 2.56992 -3.43006 0
M  V30 943 H 87.0977 2.33139 -4.38132 0
M  V30 944 H 82.3537 2.03901 -5.76398 0
M  V30 945 H 86.5277 1.81057 -6.72452 0
M  V30 946 H 84.1547 1.65907 -7.41875 0
M  V30 947 N 85.7298 1.2412 0.971189 0
M  V30 948 C 86.9768 1.07881 1.71371 0
M  V30 949 C 87.3048 -0.382901 1.90694 0
M  V30 950 O 86.5598 -1.29945 1.46331 0
M  V30 951 C 86.8588 1.75983 3.11071 0
M  V30 952 C 86.5248 3.25909 3.11599 0
M  V30 953 C 85.1868 3.66813 3.11451 0
M  V30 954 C 87.5388 4.21771 3.062 0
M  V30 955 C 84.8668 5.02021 3.03631 0
M  V30 956 C 87.2188 5.56982 2.99923 0
M  V30 957 C 85.8828 5.97237 2.98102 0
M  V30 958 H 85.1528 0.394764 0.62709 0
M  V30 959 H 87.7998 1.54176 1.13587 0
M  V30 960 H 86.1048 1.22072 3.72298 0
M  V30 961 H 87.8018 1.60887 3.6731 0
M  V30 962 H 84.3918 2.93353 3.12477 0
M  V30 963 H 88.5758 3.91172 3.05447 0
M  V30 964 H 83.8318 5.32411 3.0058 0
M  V30 965 H 88.0058 6.30969 2.94704 0
M  V30 966 H 85.6328 7.01967 2.91798 0
M  V30 967 N 87.2079 -1.17134 1.05439 0
M  V30 968 C 88.4329 -1.91913 0.786396 0
M  V30 969 C 88.8579 -1.7643 -0.652234 0
M  V30 970 O 88.2159 -1.08372 -1.45345 0
M  V30 971 C 88.2639 -3.40921 1.17497 0
M  V30 972 O 87.3679 -4.11244 0.308589 0
M  V30 973 H 86.7089 -0.598215 0.288158 0
M  V30 974 H 89.2389 -1.48457 1.4079 0
M  V30 975 H 89.2489 -3.91668 1.14281 0
M  V30 976 H 87.9239 -3.5151 2.22292 0
M  V30 977 H 86.5009 -3.70731 0.40157 0
M  V30 978 N 88.686 -0.835752 -1.33615 0
M  V30 979 C 89.634 -0.255238 -2.31195 0
M  V30 980 C 90.628 0.61107 -1.57995 0
M  V30 981 O 91.834 0.500979 -1.72888 0
M  V30 982 H 88.209 -0.0638085 -0.749288 0
M  V30 983 H 90.18 -1.09283 -2.77669 0
M  V30 984 C 88.929 0.55754 -3.43201 0
M  V30 985 H 88.252 -0.0997553 -3.99676 0
M  V30 986 H 89.692 0.929622 -4.13683 0
M  V30 987 C 88.151 1.73515 -2.88781 0
M  V30 988 O 88.681 2.83376 -2.84712 0
M  V30 989 N 86.887 1.55603 -2.4543 0
M  V30 990 H 86.434 0.662354 -2.48939 0
M  V30 991 H 86.392 2.34545 -2.09371 0
M  V30 992 N 90.1641 1.46063 -0.591896 0
M  V30 993 C 91.4101 2.02638 -0.0811191 0
M  V30 994 C 91.7431 1.4613 1.27905 0
M  V30 995 O 91.0181 0.629908 1.84017 0
M  V30 996 C 91.3011 3.60091 -0.0252436 0
M  V30 997 C 91.1541 4.26965 -1.41496 0
M  V30 998 C 92.4731 4.3496 0.670685 0
M  V30 999 H 89.5921 0.73635 -0.0309524 0
M  V30 1000 H 92.2341 1.741 -0.760859 0
M  V30 1001 H 90.3841 3.84535 0.553624 0
M  V30 1002 H 92.0561 4.13756 -2.0397 0
M  V30 1003 H 90.2991 3.85971 -1.98011 0
M  V30 1004 H 90.9701 5.35781 -1.32825 0
M  V30 1005 H 93.4461 4.15716 0.178825 0
M  V30 1006 H 92.3221 5.44686 0.678837 0
M  V30 1007 H 92.5831 4.06685 1.73379 0
M  V30 1008 N 91.6422 0.330177 1.54103 0
M  V30 1009 C 92.8702 -0.272179 2.05102 0
M  V30 1010 C 93.2852 -1.45267 1.20595 0
M  V30 1011 O 92.6422 -1.8094 0.238144 0
M  V30 1012 C 92.6932 -0.70023 3.54653 0
M  V30 1013 O 92.4142 0.433301 4.35952 0
M  V30 1014 C 93.9152 -1.3647 4.21771 0
M  V30 1015 H 91.1352 -0.0549159 0.668749 0
M  V30 1016 H 93.6792 0.478285 1.98828 0
M  V30 1017 H 91.8342 -1.40066 3.61193 0
M  V30 1018 H 92.2482 0.0947539 5.24414 0
M  V30 1019 H 93.7222 -1.61509 5.27843 0
M  V30 1020 H 94.1992 -2.31409 3.73292 0
M  V30 1021 H 94.8052 -0.706675 4.19388 0
M  V30 1022 N 93.1203 -1.57491 0.0584922 0
M  V30 1023 C 94.3663 -1.94081 -0.608617 0
M  V30 1024 C 94.7213 -0.937438 -1.68017 0
M  V30 1025 O 94.0143 0.0423034 -1.91553 0
M  V30 1026 C 94.2083 -3.3513 -1.24188 0
M  V30 1027 C 94.0373 -4.49095 -0.233187 0
M  V30 1028 C 92.8073 -5.04988 0.177439 0
M  V30 1029 C 95.0053 -5.1162 0.524306 0
M  V30 1030 N 92.9873 -6.02487 1.17823 0
M  V30 1031 C 94.3583 -6.04493 1.37796 0
M  V30 1032 C 96.4133 -4.94489 0.581822 0
M  V30 1033 C 95.1163 -6.82075 2.28399 0
M  V30 1034 C 97.1423 -5.72703 1.47531 0
M  V30 1035 C 96.5043 -6.65214 2.31667 0
M  V30 1036 H 92.6033 -0.75752 -0.194134 0
M  V30 1037 H 95.1873 -1.94248 0.132533 0
M  V30 1038 H 93.3583 -3.35726 -1.95302 0
M  V30 1039 H 95.0903 -3.5899 -1.86838 0
M  V30 1040 H 91.8453 -4.73165 -0.203004 0
M  V30 1041 H 92.2693 -6.55933 1.67573 0
M  V30 1042 H 96.9113 -4.22765 -0.054443 0
M  V30 1043 H 94.6293 -7.53085 2.93067 0
M  V30 1044 H 98.2153 -5.61472 1.52448 0
M  V30 1045 H 97.0953 -7.24679 2.99683 0
M  V30 1046 N 94.5984 0.214957 -1.56127 0
M  V30 1047 C 95.8454 0.938372 -1.79446 0
M  V30 1048 C 96.1734 1.8407 -0.628378 0
M  V30 1049 O 95.4284 1.91837 0.386925 0
M  V30 1050 C 95.7274 1.80314 -3.0858 0
M  V30 1051 C 95.3934 1.05349 -4.3842 0
M  V30 1052 C 94.0554 0.846435 -4.73697 0
M  V30 1053 C 96.4074 0.524588 -5.18553 0
M  V30 1054 C 93.7354 0.098683 -5.86617 0
M  V30 1055 C 96.0874 -0.209853 -6.32252 0
M  V30 1056 C 94.7514 -0.428102 -6.66126 0
M  V30 1057 H 94.0214 0.343375 -0.656639 0
M  V30 1058 H 96.6684 0.206077 -1.90388 0
M  V30 1059 H 94.9734 2.6035 -2.92789 0
M  V30 1060 H 96.6704 2.36513 -3.23825 0
M  V30 1061 H 93.2604 1.22486 -4.10725 0
M  V30 1062 H 97.4444 0.672008 -4.91729 0
M  V30 1063 H 92.7004 -0.0805753 -6.11347 0
M  V30 1064 H 96.8744 -0.627157 -6.9357 0
M  V30 1065 H 94.5014 -1.00944 -7.53468 0
M  V30 1066 N 96.0765 1.50051 0.48192 0
M  V30 1067 C 97.0265 1.64512 1.5786 0
M  V30 1068 C 98.0105 0.500073 1.52932 0
M  V30 1069 O 99.2025 0.753964 1.60139 0
M  V30 1070 C 96.3315 1.73263 2.9637 0
M  V30 1071 C 95.4175 2.93409 3.06222 0
M  V30 1072 N 95.8085 4.17236 2.85915 0
M  V30 1073 C 94.1065 2.91742 3.37346 0
M  V30 1074 C 94.8075 4.981 3.00451 0
M  V30 1075 N 93.7835 4.3184 3.30174 0
M  V30 1076 H 97.5855 2.57955 1.40842 0
M  V30 1077 H 95.0995 1.47086 0.688439 0
M  V30 1078 H 97.0965 1.81724 3.75209 0
M  V30 1079 H 95.7565 0.809711 3.14442 0
M  V30 1080 H 96.7675 4.46909 2.6171 0
M  V30 1081 H 93.4445 2.08907 3.61475 0
M  V30 1082 H 94.8345 6.06532 2.89082 0
M  V30 1083 N 97.5546 -0.734337 1.39446 0
M  V30 1084 C 98.5176 -1.83004 1.37994 0
M  V30 1085 C 99.5176 -1.58397 0.276938 0
M  V30 1086 O 100.708 -1.65785 0.534875 0
M  V30 1087 C 97.8396 -3.20802 1.1532 0
M  V30 1088 H 99.0326 -1.85694 2.35494 0
M  V30 1089 H 96.5856 -0.938059 1.25021 0
M  V30 1090 H 97.3206 -3.23772 0.185036 0
M  V30 1091 H 97.1056 -3.4006 1.95197 0
M  V30 1092 H 98.5956 -4.00862 1.17046 0
M  V30 1093 N 99.0327 -1.24633 -0.964593 0
M  V30 1094 C 100.282 -1.08188 -1.7023 0
M  V30 1095 C 100.595 0.37873 -1.91898 0
M  V30 1096 O 101.801 0.663427 -2.6327 0
M  V30 1097 C 100.257 -1.88773 -3.06419 0
M  V30 1098 C 99.8647 -3.39263 -2.92582 0
M  V30 1099 C 101.609 -1.80867 -3.84041 0
M  V30 1100 C 99.5157 -4.1218 -4.24101 0
M  V30 1101 H 98.4457 -0.401245 -0.638372 0
M  V30 1102 H 101.097 -1.48742 -1.07462 0
M  V30 1103 H 99.4787 -1.41035 -3.70034 0
M  V30 1104 H 100.653 -3.94603 -2.37961 0
M  V30 1105 H 98.9677 -3.48154 -2.28424 0
M  V30 1106 H 101.565 -2.32646 -4.81435 0
M  V30 1107 H 101.908 -0.774543 -4.09031 0
M  V30 1108 H 102.441 -2.26301 -3.27159 0
M  V30 1109 H 99.1797 -5.15965 -4.04303 0
M  V30 1110 H 98.6997 -3.61626 -4.78526 0
M  V30 1111 H 100.379 -4.19349 -4.92702 0
M  V30 1112 N 100.511 1.16574 -1.06058 0
M  V30 1113 C 101.461 2.18854 -0.63929 0
M  V30 1114 C 102.445 1.57505 0.328798 0
M  V30 1115 O 103.637 1.76408 0.144623 0
M  V30 1116 C 100.766 3.43291 -0.0247203 0
M  V30 1117 C 99.8518 4.11722 -1.01716 0
M  V30 1118 N 100.243 4.55841 -2.19186 0
M  V30 1119 C 98.5408 4.37872 -0.847569 0
M  V30 1120 C 99.2418 5.08751 -2.82042 0
M  V30 1121 N 98.2178 5.01489 -2.09784 0
M  V30 1122 H 102.02 2.5068 -1.53417 0
M  V30 1123 H 99.5338 1.32999 -0.931935 0
M  V30 1124 H 101.531 4.15856 0.294915 0
M  V30 1125 H 100.191 3.12954 0.865448 0
M  V30 1126 H 101.202 4.49649 -2.56975 0
M  V30 1127 H 97.8788 4.17499 -0.00918848 0
M  V30 1128 H 99.2688 5.52944 -3.81709 0
M  V30 1129 N 101.989 0.842826 1.3317 0
M  V30 1130 C 103.235 0.441099 1.97945 0
M  V30 1131 C 103.568 -0.998024 1.66593 0
M  V30 1132 O 102.843 -1.69839 0.947898 0
M  V30 1133 C 103.126 0.666841 3.53872 0
M  V30 1134 C 102.979 2.15352 3.94897 0
M  V30 1135 C 104.298 0.115544 4.39948 0
M  V30 1136 H 101.417 0.161739 0.719034 0
M  V30 1137 H 104.059 1.05907 1.57746 0
M  V30 1138 H 102.209 0.140828 3.88245 0
M  V30 1139 H 103.881 2.7447 3.70761 0
M  V30 1140 H 102.124 2.63653 3.44484 0
M  V30 1141 H 102.795 2.26221 5.03516 0
M  V30 1142 H 105.271 0.565213 4.12243 0
M  V30 1143 H 104.147 0.303152 5.48062 0
M  V30 1144 H 104.408 -0.980935 4.3108 0
M  V30 1145 N 103.467 -1.45747 0.599634 0
M  V30 1146 C 104.692 -2.07178 0.0960198 0
M  V30 1147 C 105.117 -1.44268 -1.207 0
M  V30 1148 O 104.475 -0.532503 -1.73303 0
M  V30 1149 C 104.523 -3.60579 -0.0385348 0
M  V30 1150 O 103.627 -3.97713 -1.0908 0
M  V30 1151 H 102.968 -0.660251 0.0704593 0
M  V30 1152 H 105.498 -1.87124 0.827385 0
M  V30 1153 H 105.508 -4.07298 -0.239304 0
M  V30 1154 H 104.183 -4.05756 0.912947 0
M  V30 1155 H 102.76 -3.62678 -0.867135 0
M  V30 1156 N 104.945 -0.338344 -1.53925 0
M  V30 1157 C 106.193 0.259245 -2.0043 0
M  V30 1158 C 106.514 1.51484 -1.22791 0
M  V30 1159 O 105.784 1.93037 -0.33368 0
M  V30 1160 H 104.364 0.0987845 -0.740439 0
M  V30 1161 H 107.026 -0.458302 -1.89435 0
M  V30 1162 H 106.122 0.505334 -3.07982 0
M  V30 1163 N 106.423 1.57458 -0.0668435 0
M  V30 1164 C 107.651 1.97624 0.612565 0
M  V30 1165 C 108.066 0.94502 1.63447 0
M  V30 1166 O 107.423 -0.0689276 1.8237 0
M  V30 1167 C 107.474 3.37869 1.28555 0
M  V30 1168 O 107.195 4.3704 0.304557 0
M  V30 1169 C 108.696 3.92882 2.05325 0
M  V30 1170 H 105.916 0.650045 0.166381 0
M  V30 1171 H 108.46 2.04035 -0.137782 0
M  V30 1172 H 106.615 3.3256 1.98702 0
M  V30 1173 H 107.029 5.18565 0.786779 0
M  V30 1174 H 108.503 4.93247 2.47812 0
M  V30 1175 H 108.98 3.29156 2.9078 0
M  V30 1176 H 109.586 4.01577 1.40056 0
M  V30 1177 N 107.901 -0.206675 1.56239 0
M  V30 1178 C 108.849 -1.27571 1.94495 0
M  V30 1179 C 109.843 -1.47737 0.828862 0
M  V30 1180 O 111.049 -1.48735 1.0138 0
M  V30 1181 H 107.424 -0.428029 0.6183 0
M  V30 1182 H 109.395 -0.925961 2.8367 0
M  V30 1183 C 108.144 -2.61568 2.29079 0
M  V30 1184 H 107.467 -2.46863 3.14482 0
M  V30 1185 H 108.907 -3.35144 2.5972 0
M  V30 1186 C 107.366 -3.17695 1.12123 0
M  V30 1187 O 107.896 -3.99801 0.390153 0
M  V30 1188 N 106.102 -2.76276 0.901097 0
M  V30 1189 H 105.649 -2.09613 1.49733 0
M  V30 1190 H 105.607 -3.1417 0.120319 0
M  V30 1191 N 109.379 -1.50304 -0.473955 0
M  V30 1192 C 110.627 -1.60832 -1.22382 0
M  V30 1193 C 110.948 -0.30939 -1.9253 0
M  V30 1194 O 110.218 0.67296 -1.83978 0
M  V30 1195 H 108.798 -0.592652 -0.454723 0
M  V30 1196 H 111.46 -1.87068 -0.546968 0
M  V30 1197 H 110.556 -2.41803 -1.97327 0
M  V30 1198 N 110.857 0.726932 -1.39834 0
M  V30 1199 C 112.085 1.51613 -1.40787 0
M  V30 1200 C 112.5 1.88799 -0.00451505 0
M  V30 1201 O 111.857 1.54662 0.968809 0
M  V30 1202 C 111.908 2.79863 -2.28821 0
M  V30 1203 O 111.629 2.44253 -3.63692 0
M  V30 1204 C 113.13 3.73837 -2.38245 0
M  V30 1205 H 110.35 0.468264 -0.480593 0
M  V30 1206 H 112.894 0.897607 -1.83748 0
M  V30 1207 H 111.049 3.38027 -1.89252 0
M  V30 1208 H 111.463 3.26695 -4.1033 0
M  V30 1209 H 112.937 4.60699 -3.04073 0
M  V30 1210 H 113.414 4.16153 -1.40403 0
M  V30 1211 H 114.02 3.21589 -2.78317 0
M  V30 1212 N 112.336 1.25143 0.95797 0
M  V30 1213 C 113.283 1.05235 2.05412 0
M  V30 1214 C 114.253 -0.0374561 1.66058 0
M  V30 1215 O 115.438 0.119073 1.90428 0
M  V30 1216 C 112.578 0.673589 3.38462 0
M  V30 1217 C 111.691 1.8379 3.90954 0
M  V30 1218 C 110.826 1.40381 5.12315 0
M  V30 1219 C 109.865 2.53746 5.57027 0
M  V30 1220 N 109.002 2.11136 6.69601 0
M  V30 1221 H 113.842 1.99048 2.21774 0
M  V30 1222 H 111.379 0.991277 1.08683 0
M  V30 1223 H 113.337 0.434964 4.14926 0
M  V30 1224 H 111.967 -0.227554 3.21997 0
M  V30 1225 H 111.019 2.18992 3.11041 0
M  V30 1226 H 112.331 2.68937 4.20089 0
M  V30 1227 H 111.485 1.12464 5.96185 0
M  V30 1228 H 110.224 0.523015 4.84887 0
M  V30 1229 H 109.229 2.82412 4.71724 0
M  V30 1230 H 110.454 3.42398 5.86464 0
M  V30 1231 H 108.4 1.25468 6.4389 0
M  V30 1232 H 108.317 2.89832 6.98236 0
M  V30 1233 H 109.585 1.86385 7.56889 0
M  V30 1234 N 113.814 -1.1601 1.06675 0
M  V30 1235 C 115.23 -1.38622 0.790948 0
M  V30 1236 C 115.43 -1.92109 -0.607965 0
M  V30 1237 O 114.486 -2.12239 -1.36787 0
M  V30 1238 C 115.799 -2.36347 1.85905 0
M  V30 1239 C 117.347 -2.50023 1.88301 0
M  V30 1240 C 117.822 -3.51033 2.94176 0
M  V30 1241 N 119.313 -3.58563 2.93235 0
M  V30 1242 C 120.048 -4.36521 3.71803 0
M  V30 1243 N 119.544 -5.17869 4.602 0
M  V30 1244 N 121.337 -4.31541 3.60178 0
M  V30 1245 H 113.488 -0.796294 1.96908 0
M  V30 1246 H 115.751 -0.412597 0.853503 0
M  V30 1247 H 115.457 -2.04147 2.86386 0
M  V30 1248 H 115.331 -3.36042 1.71334 0
M  V30 1249 H 117.718 -2.81524 0.884769 0
M  V30 1250 H 117.799 -1.5035 2.06951 0
M  V30 1251 H 117.443 -3.20268 3.94196 0
M  V30 1252 H 117.373 -4.50445 2.72776 0
M  V30 1253 H 119.864 -3.00496 2.29152 0
M  V30 1254 H 120.177 -5.74578 5.16797 0
M  V30 1255 H 118.522 -5.17199 4.64253 0
M  V30 1256 H 121.713 -3.67051 2.90502 0
M  V30 1257 H 121.886 -4.9205 4.21653 0
M  V30 1258 N 115.292 -0.849877 -1.32721 0
M  V30 1259 C 116.539 -0.450923 -1.97416 0
M  V30 1260 C 116.867 0.992376 -1.67279 0
M  V30 1261 O 116.122 1.71048 -0.950845 0
M  V30 1262 C 116.421 -0.631272 -3.51781 0
M  V30 1263 C 116.087 -2.04432 -4.01894 0
M  V30 1264 C 114.749 -2.4308 -4.1529 0
M  V30 1265 C 117.101 -2.96679 -4.28522 0
M  V30 1266 C 114.429 -3.73257 -4.52654 0
M  V30 1267 C 116.781 -4.26349 -4.67343 0
M  V30 1268 C 115.445 -4.64939 -4.78945 0
M  V30 1269 H 114.715 -0.165004 -0.722395 0
M  V30 1270 H 117.362 -1.07901 -1.58207 0
M  V30 1271 H 115.667 0.0800767 -3.91718 0
M  V30 1272 H 117.364 -0.302709 -3.99856 0
M  V30 1273 H 113.954 -1.73419 -3.91949 0
M  V30 1274 H 118.138 -2.68054 -4.17685 0
M  V30 1275 H 113.394 -4.02946 -4.59831 0
M  V30 1276 H 117.568 -4.97895 -4.86902 0
M  V30 1277 H 115.195 -5.65855 -5.07654 0
M  V30 1278 N 116.77 1.45427 -0.607355 0
M  V30 1279 C 118.047 1.9557 -0.0344566 0
M  V30 1280 C 118.427 1.54979 1.43334 0
M  V30 1281 O 117.775 0.812241 2.13576 0
M  V30 1282 C 117.985 3.48226 -0.232321 0
M  V30 1283 C 119.333 4.2445 -0.113001 0
M  V30 1284 O 120.357 3.55829 -0.162431 0
M  V30 1285 O 119.216 5.465 0.00209442 0
M  V30 1286 H 116.31 0.826222 0.0358667 0
M  V30 1287 H 118.856 1.55594 -0.6774 0
M  V30 1288 H 117.628 3.70739 -1.25174 0
M  V30 1289 H 117.251 3.95092 0.445896 0
M  V30 1290 N 118.248 0.346503 1.53744 0
M  V30 1291 C 119.196 -0.52422 2.26616 0
M  V30 1292 C 120.19 -1.09948 1.28871 0
M  V30 1293 O 121.396 -1.04488 1.46568 0
M  V30 1294 H 117.771 -0.187743 0.728187 0
M  V30 1295 H 119.742 0.11239 2.98188 0
M  V30 1296 C 118.491 -1.66186 3.05414 0
M  V30 1297 H 117.814 -1.22848 3.80458 0
M  V30 1298 H 119.254 -2.24622 3.59612 0
M  V30 1299 C 117.713 -2.59302 2.1509 0
M  V30 1300 O 118.243 -3.61628 1.74895 0
M  V30 1301 N 116.449 -2.28055 1.8011 0
M  V30 1302 H 115.996 -1.44883 2.12994 0
M  V30 1303 H 115.954 -2.90615 1.19958 0
M  V30 1304 N 119.726 -1.57421 0.075193 0
M  V30 1305 C 121.137 -1.81021 -0.456964 0
M  V30 1306 C 121.488 -0.98936 -1.69429 0
M  V30 1307 O 120.613 -0.212865 -2.15351 0
M  V30 1308 C 121.208 -3.28329 -0.83581 0
M  V30 1309 C 119.767 -3.52764 -1.31281 0
M  V30 1310 C 118.914 -2.75676 -0.299648 0
M  V30 1311 H 121.865 -1.55822 0.300856 0
M  V30 1312 H 121.886 -3.40564 -1.69696 0
M  V30 1313 H 121.398 -3.88046 0.0649238 0
M  V30 1314 H 119.499 -2.98355 -2.23193 0
M  V30 1315 H 119.612 -4.61451 -1.28839 0
M  V30 1316 H 117.976 -2.42538 -0.777641 0
M  V30 1317 H 118.759 -3.38132 0.593417 0
M  V30 1318 N 121.204 0.198386 -1.56346 0
M  V30 1319 C 122.45 0.920648 -1.80698 0
M  V30 1320 C 122.783 1.83045 -0.648697 0
M  V30 1321 O 122.058 1.91308 0.350925 0
M  V30 1322 C 122.341 1.73971 -3.15287 0
M  V30 1323 C 122.194 0.85485 -4.41602 0
M  V30 1324 C 123.513 2.71296 -3.46535 0
M  V30 1325 H 120.632 0.333261 -0.657348 0
M  V30 1326 H 123.274 0.188198 -1.89066 0
M  V30 1327 H 121.424 2.36416 -3.08285 0
M  V30 1328 H 123.096 0.245362 -4.60647 0
M  V30 1329 H 121.339 0.161398 -4.335 0
M  V30 1330 H 122.01 1.46286 -5.32264 0
M  V30 1331 H 124.486 2.18983 -3.53816 0
M  V30 1332 H 123.362 3.2569 -4.41834 0
M  V30 1333 H 123.623 3.5018 -2.69864 0
M  V30 1334 N 122.682 1.50554 0.465978 0
M  V30 1335 C 123.612 1.72722 1.57128 0
M  V30 1336 C 124.593 0.576294 1.6004 0
M  V30 1337 O 125.778 0.81598 1.76225 0
M  V30 1338 C 122.908 1.82605 2.95419 0
M  V30 1339 C 121.862 2.97835 3.07373 0
M  V30 1340 C 121.188 2.92867 4.47363 0
M  V30 1341 C 122.488 4.38265 2.84114 0
M  V30 1342 H 124.182 2.65267 1.38829 0
M  V30 1343 H 121.728 1.2765 0.666441 0
M  V30 1344 H 123.681 1.96698 3.72677 0
M  V30 1345 H 122.405 0.866858 3.14886 0
M  V30 1346 H 121.064 2.83401 2.3255 0
M  V30 1347 H 120.712 1.94783 4.63755 0
M  V30 1348 H 120.412 3.70227 4.56296 0
M  V30 1349 H 121.936 3.09015 5.26633 0
M  V30 1350 H 123.35 4.53198 3.51118 0
M  V30 1351 H 121.747 5.17115 3.04487 0
M  V30 1352 H 122.817 4.50281 1.7993 0
M  V30 1353 N 124.16 -0.719506 1.40217 0
M  V30 1354 C 125.571 -1.29848 1.34151 0
M  V30 1355 C 125.922 -1.96196 0.0131349 0
M  V30 1356 O 125.047 -1.973 -0.88892 0
M  V30 1357 C 125.642 -2.36118 2.42968 0
M  V30 1358 C 124.201 -2.8965 2.40374 0
M  V30 1359 C 123.348 -1.63393 2.24049 0
M  V30 1360 H 126.299 -0.51591 1.5008 0
M  V30 1361 H 126.32 -3.16871 2.10649 0
M  V30 1362 H 125.832 -1.878 3.39636 0
M  V30 1363 H 123.933 -3.42208 1.47392 0
M  V30 1364 H 124.046 -3.4171 3.35814 0
M  V30 1365 H 122.41 -1.88312 1.71495 0
M  V30 1366 H 123.193 -1.17104 3.2271 0
M  V30 1367 N 125.638 -1.25649 -0.95132 0
M  V30 1368 C 126.885 -1.10594 -1.69633 0
M  V30 1369 C 127.213 0.352515 -1.91279 0
M  V30 1370 O 126.468 1.27601 -1.4838 0
M  V30 1371 C 126.767 -1.80909 -3.08231 0
M  V30 1372 C 126.433 -3.30825 -3.06375 0
M  V30 1373 C 125.095 -3.71722 -3.05576 0
M  V30 1374 C 127.447 -4.26589 -2.99452 0
M  V30 1375 C 124.775 -5.06788 -2.95606 0
M  V30 1376 C 127.127 -5.61683 -2.91024 0
M  V30 1377 C 125.791 -6.01904 -2.88562 0
M  V30 1378 H 125.061 -0.404691 -0.620731 0
M  V30 1379 H 127.708 -1.55964 -1.11119 0
M  V30 1380 H 126.013 -1.27979 -3.70309 0
M  V30 1381 H 127.71 -1.6671 -3.64704 0
M  V30 1382 H 124.3 -2.98287 -3.07771 0
M  V30 1383 H 128.484 -3.95982 -2.99185 0
M  V30 1384 H 123.74 -5.37126 -2.92071 0
M  V30 1385 H 127.914 -6.35578 -2.84629 0
M  V30 1386 H 125.541 -7.06521 -2.80593 0
M  V30 1387 N 127.117 1.15442 -1.07289 0
M  V30 1388 C 128.065 2.22225 -0.686952 0
M  V30 1389 C 129.059 1.66688 0.30193 0
M  V30 1390 O 130.265 1.79236 0.165712 0
M  V30 1391 H 126.64 0.723783 -0.204064 0
M  V30 1392 H 128.611 2.52056 -1.5972 0
M  V30 1393 C 127.36 3.47556 -0.100149 0
M  V30 1394 H 126.683 3.90612 -0.852211 0
M  V30 1395 H 128.123 4.23794 0.132235 0
M  V30 1396 C 126.582 3.16337 1.159 0
M  V30 1397 O 127.112 3.33074 2.24555 0
M  V30 1398 N 125.318 2.70385 1.06491 0
M  V30 1399 H 124.865 2.56966 0.180668 0
M  V30 1400 H 124.823 2.49871 1.90819 0
M  V30 1401 N 128.595 0.856903 1.32268 0
M  V30 1402 C 129.872 0.382583 1.91822 0
M  V30 1403 C 130.252 -1.13407 1.78051 0
M  V30 1404 O 129.6 -1.95673 1.18001 0
M  V30 1405 C 129.81 0.849446 3.38505 0
M  V30 1406 C 131.158 0.867936 4.15634 0
M  V30 1407 O 132.182 0.794232 3.47232 0
M  V30 1408 O 131.041 0.972286 5.37781 0
M  V30 1409 H 128.135 0.112014 0.819379 0
M  V30 1410 H 130.681 0.943952 1.41024 0
M  V30 1411 H 129.453 1.89267 3.42482 0
M  V30 1412 H 129.076 0.265652 3.96712 0
M  V30 1413 N 130.073 -1.45103 0.615059 0
M  V30 1414 C 131.321 -2.01784 0.112955 0
M  V30 1415 C 131.642 -1.48504 -1.26378 0
M  V30 1416 O 130.912 -0.682245 -1.83636 0
M  V30 1417 H 129.492 -0.745993 0.0387668 0
M  V30 1418 H 132.154 -1.77808 0.798141 0
M  V30 1419 H 131.25 -3.12025 0.0684069 0
M  V30 1420 N 131.551 -0.354651 -1.53558 0
M  V30 1421 C 132.797 0.238797 -2.01389 0
M  V30 1422 C 133.13 1.49309 -1.2418 0
M  V30 1423 O 132.405 1.91638 -0.332457 0
M  V30 1424 C 132.688 0.541771 -3.56001 0
M  V30 1425 C 132.541 -0.725388 -4.43912 0
M  V30 1426 C 133.86 1.34685 -4.18984 0
M  V30 1427 H 130.979 0.0853177 -0.732045 0
M  V30 1428 H 133.621 -0.477384 -1.83905 0
M  V30 1429 H 131.771 1.15189 -3.71031 0
M  V30 1430 H 133.443 -1.36313 -4.407 0
M  V30 1431 H 131.686 -1.34801 -4.12324 0
M  V30 1432 H 132.357 -0.468505 -5.50008 0
M  V30 1433 H 134.833 0.830837 -4.07721 0
M  V30 1434 H 133.709 1.52759 -5.27215 0
M  V30 1435 H 133.97 2.35221 -3.74331 0
M  V30 1436 N 133.029 1.57378 -0.0835403 0
M  V30 1437 C 134.259 1.97975 0.590713 0
M  V30 1438 C 134.667 0.961083 1.62972 0
M  V30 1439 O 134.01 -0.0590879 1.83605 0
M  V30 1440 C 134.072 3.34915 1.3066 0
M  V30 1441 C 133.736 4.55069 0.419698 0
M  V30 1442 C 134.733 5.18868 -0.32749 0
M  V30 1443 C 132.418 5.0114 0.341137 0
M  V30 1444 C 134.412 6.27098 -1.14134 0
M  V30 1445 C 132.099 6.0924 -0.476374 0
M  V30 1446 C 133.097 6.72083 -1.21627 0
M  V30 1447 O 132.785 7.781 -2.02028 0
M  V30 1448 H 132.517 0.655818 0.163947 0
M  V30 1449 H 135.071 2.04807 -0.156021 0
M  V30 1450 H 133.301 3.24733 2.09966 0
M  V30 1451 H 134.99 3.60037 1.87424 0
M  V30 1452 H 135.756 4.84211 -0.276459 0
M  V30 1453 H 131.635 4.51996 0.90668 0
M  V30 1454 H 135.179 6.7608 -1.71935 0
M  V30 1455 H 131.076 6.43329 -0.528927 0
M  V30 1456 H 131.844 7.95034 -1.94586 0
M  V30 1457 N 134.507 -0.190092 1.56449 0
M  V30 1458 C 135.754 -0.909705 1.80916 0
M  V30 1459 C 136.082 -1.83047 0.657583 0
M  V30 1460 O 135.337 -1.92428 -0.356356 0
M  V30 1461 C 135.636 -1.75382 3.1141 0
M  V30 1462 C 135.302 -0.983606 4.40041 0
M  V30 1463 C 133.964 -0.770967 4.74984 0
M  V30 1464 C 136.316 -0.442024 5.19322 0
M  V30 1465 C 133.644 -0.0053448 5.867 0
M  V30 1466 C 135.996 0.310412 6.31838 0
M  V30 1467 C 134.66 0.534023 6.6536 0
M  V30 1468 H 133.93 -0.332885 0.662019 0
M  V30 1469 H 136.577 -0.175762 1.90692 0
M  V30 1470 H 134.882 -2.55659 2.96893 0
M  V30 1471 H 136.579 -2.31331 3.27547 0
M  V30 1472 H 133.169 -1.15936 4.12622 0
M  V30 1473 H 137.353 -0.593693 4.92736 0
M  V30 1474 H 132.609 0.177825 6.11141 0
M  V30 1475 H 136.783 0.737419 6.92485 0
M  V30 1476 H 134.41 1.12918 7.51767 0
M  V30 1477 N 135.985 -1.50799 -0.457987 0
M  V30 1478 C 136.948 -1.7005 -1.53674 0
M  V30 1479 C 137.948 -0.570881 -1.50325 0
M  V30 1480 O 139.138 -0.838126 -1.52712 0
M  V30 1481 C 136.27 -1.73788 -2.93276 0
M  V30 1482 H 137.463 -2.66306 -1.37917 0
M  V30 1483 H 135.016 -1.40477 -0.685271 0
M  V30 1484 H 135.751 -0.792717 -3.14462 0
M  V30 1485 H 135.536 -2.55864 -2.97113 0
M  V30 1486 H 137.026 -1.90591 -3.71571 0
M  V30 1487 N 137.463 0.71206 -1.40597 0
M  V30 1488 C 138.688 1.50617 -1.42581 0
M  V30 1489 C 139.113 1.88079 -0.0282102 0
M  V30 1490 O 138.471 1.53511 0.964579 0
M  V30 1491 C 138.519 2.7557 -2.3258 0
M  V30 1492 O 137.623 3.72414 -1.77148 0
M  V30 1493 H 136.964 0.453966 -0.484573 0
M  V30 1494 H 139.494 0.876649 -1.84868 0
M  V30 1495 H 139.504 3.2406 -2.47889 0
M  V30 1496 H 138.179 2.47639 -3.34138 0
M  V30 1497 H 136.756 3.31276 -1.71204 0
M  V30 1498 N 138.941 1.26152 0.944643 0
M  V30 1499 C 140.169 1.14259 1.72489 0
M  V30 1500 C 140.584 -0.302555 1.8636 0
M  V30 1501 O 139.941 -1.20741 1.36849 0
M  V30 1502 C 139.992 1.80266 3.13347 0
M  V30 1503 O 139.713 3.19133 3.00143 0
M  V30 1504 C 141.214 1.74283 4.07603 0
M  V30 1505 H 138.434 0.398051 0.540181 0
M  V30 1506 H 140.978 1.66706 1.18446 0
M  V30 1507 H 139.133 1.31766 3.64303 0
M  V30 1508 H 139.547 3.51744 3.89071 0
M  V30 1509 H 141.021 2.25111 5.04013 0
M  V30 1510 H 141.498 0.708631 4.33446 0
M  V30 1511 H 142.104 2.22319 3.62567 0
M  V30 1512 N 140.419 -1.14872 1.07899 0
M  V30 1513 C 141.329 -2.2341 0.715915 0
M  V30 1514 C 142.345 -1.71808 -0.275306 0
M  V30 1515 O 143.521 -2.01039 -0.120545 0
M  V30 1516 C 140.586 -3.46474 0.125168 0
M  V30 1517 C 139.647 -4.13039 1.17034 0
M  V30 1518 C 138.88 -5.30229 0.607688 0
M  V30 1519 O 139.103 -5.675 -0.574497 0
M  V30 1520 O 138.037 -5.86444 1.35526 0
M  V30 1521 H 141.863 -2.56808 1.62121 0
M  V30 1522 H 139.448 -1.22702 0.852322 0
M  V30 1523 H 141.33 -4.20917 -0.201729 0
M  V30 1524 H 140.005 -3.14811 -0.753364 0
M  V30 1525 H 138.912 -3.40493 1.54968 0
M  V30 1526 H 140.245 -4.48796 2.02097 0
M  V30 1527 N 141.898 -0.863906 -1.31812 0
M  V30 1528 C 142.845 -0.313303 -2.28664 0
M  V30 1529 C 143.815 0.584868 -1.55462 0
M  V30 1530 O 145 0.517805 -1.83639 0
M  V30 1531 C 142.14 0.48441 -3.41683 0
M  V30 1532 C 141.253 -0.440594 -4.29747 0
M  V30 1533 C 140.388 0.370652 -5.29905 0
M  V30 1534 C 139.427 -0.551164 -6.09613 0
M  V30 1535 N 138.564 0.223462 -7.01744 0
M  V30 1536 H 143.404 -1.14444 -2.75148 0
M  V30 1537 H 140.941 -0.575769 -1.35364 0
M  V30 1538 H 142.899 0.962627 -4.05943 0
M  V30 1539 H 141.529 1.28029 -2.96325 0
M  V30 1540 H 140.581 -1.03724 -3.65986 0
M  V30 1541 H 141.893 -1.14767 -4.85417 0
M  V30 1542 H 141.047 0.911638 -5.99812 0
M  V30 1543 H 139.786 1.11105 -4.74876 0
M  V30 1544 H 138.791 -1.10396 -5.38603 0
M  V30 1545 H 140.016 -1.29032 -6.66729 0
M  V30 1546 H 137.962 0.946787 -6.49132 0
M  V30 1547 H 137.879 -0.424399 -7.54808 0
M  V30 1548 H 139.147 0.745876 -7.75923 0
M  V30 1549 N 143.376 1.44774 -0.622745 0
M  V30 1550 C 144.601 2.06999 -0.128968 0
M  V30 1551 C 145.026 1.4617 1.1839 0
M  V30 1552 O 144.384 0.560007 1.72434 0
M  V30 1553 C 144.432 3.60595 -0.0188351 0
M  V30 1554 O 143.536 3.99398 1.02739 0
M  V30 1555 H 142.877 0.659047 -0.0809544 0
M  V30 1556 H 145.407 1.85784 -0.85705 0
M  V30 1557 H 145.417 4.07627 0.174476 0
M  V30 1558 H 144.092 4.04252 -0.977384 0
M  V30 1559 H 142.669 3.64011 0.809326 0
M  V30 1560 N 144.854 0.36279 1.53368 0
M  V30 1561 C 145.802 -0.500155 2.27159 0
M  V30 1562 C 146.796 -1.08575 1.3003 0
M  V30 1563 O 148.002 -1.02927 1.47668 0
M  V30 1564 H 144.377 -0.180009 0.730138 0
M  V30 1565 H 146.348 0.14401 2.98052 0
M  V30 1566 C 145.097 -1.62937 3.07159 0
M  V30 1567 H 144.42 -1.18806 3.8174 0
M  V30 1568 H 145.86 -2.20795 3.61975 0
M  V30 1569 C 144.319 -2.57007 2.17829 0
M  V30 1570 O 144.849 -3.59752 1.78721 0
M  V30 1571 N 143.055 -2.26131 1.82518 0
M  V30 1572 H 142.602 -1.42616 2.14519 0
M  V30 1573 H 142.56 -2.89327 1.23034 0
M  V30 1574 N 146.332 -1.57332 0.0918853 0
M  V30 1575 C 147.581 -1.93412 -0.572249 0
M  V30 1576 C 147.894 -0.975515 -1.69538 0
M  V30 1577 O 149.1 -1.22991 -2.42045 0
M  V30 1578 C 147.556 -3.43648 -1.0693 0
M  V30 1579 C 147.164 -4.47994 0.0239049 0
M  V30 1580 C 148.908 -3.88695 -1.70635 0
M  V30 1581 C 146.815 -5.89381 -0.488319 0
M  V30 1582 H 145.745 -0.721939 -0.217532 0
M  V30 1583 H 148.396 -1.82735 0.167369 0
M  V30 1584 H 146.778 -3.49466 -1.8625 0
M  V30 1585 H 147.952 -4.53815 0.799277 0
M  V30 1586 H 146.267 -4.12536 0.565946 0
M  V30 1587 H 148.864 -4.91725 -2.10025 0
M  V30 1588 H 149.207 -3.27166 -2.57426 0
M  V30 1589 H 149.74 -3.85564 -0.979023 0
M  V30 1590 H 146.479 -6.54602 0.342906 0
M  V30 1591 H 145.999 -5.87037 -1.23077 0
M  V30 1592 H 147.678 -6.39863 -0.958317 0
M  V30 1593 N 147.81 0.181792 -1.56548 0
M  V30 1594 C 149.059 0.898348 -1.8059 0
M  V30 1595 C 149.372 1.83862 -0.667379 0
M  V30 1596 O 150.578 2.59678 -0.792446 0
M  V30 1597 C 149.034 1.64791 -3.19956 0
M  V30 1598 C 148.642 0.751789 -4.41647 0
M  V30 1599 C 150.386 2.35331 -3.53298 0
M  V30 1600 C 148.293 1.50098 -5.72035 0
M  V30 1601 H 147.223 0.339194 -0.673397 0
M  V30 1602 H 149.874 0.151413 -1.82874 0
M  V30 1603 H 148.256 2.43921 -3.11959 0
M  V30 1604 H 149.43 -0.0018076 -4.608 0
M  V30 1605 H 147.745 0.156562 -4.16106 0
M  V30 1606 H 150.342 2.91958 -4.47956 0
M  V30 1607 H 150.685 3.10164 -2.77676 0
M  V30 1608 H 151.218 1.63154 -3.62803 0
M  V30 1609 H 147.957 0.795175 -6.50659 0
M  V30 1610 H 147.477 2.22817 -5.56878 0
M  V30 1611 H 149.156 2.05125 -6.13622 0
M  V30 1612 N 149.288 1.51039 0.449983 0
M  V30 1613 C 150.704 1.38934 0.785462 0
M  V30 1614 C 150.904 0.461817 1.96136 0
M  V30 1615 O 149.96 -0.0877389 2.52348 0
M  V30 1616 C 151.273 2.80724 1.0777 0
M  V30 1617 C 152.821 2.89787 1.1829 0
M  V30 1618 C 153.296 4.32457 1.50815 0
M  V30 1619 N 154.787 4.35505 1.57764 0
M  V30 1620 C 155.522 5.42914 1.84477 0
M  V30 1621 N 155.018 6.60502 2.09068 0
M  V30 1622 N 156.811 5.3038 1.86155 0
M  V30 1623 H 148.962 2.09904 -0.324647 0
M  V30 1624 H 151.225 0.944378 -0.0827957 0
M  V30 1625 H 150.931 3.50531 0.286498 0
M  V30 1626 H 150.805 3.19273 2.00859 0
M  V30 1627 H 153.192 2.20186 1.96474 0
M  V30 1628 H 153.273 2.54752 0.231314 0
M  V30 1629 H 152.917 5.02603 0.731622 0
M  V30 1630 H 152.847 4.64995 2.47158 0
M  V30 1631 H 155.338 3.50724 1.40715 0
M  V30 1632 H 155.651 7.38158 2.28785 0
M  V30 1633 H 153.996 6.63639 2.06416 0
M  V30 1634 H 157.187 4.37505 1.66454 0
M  V30 1635 H 157.36 6.1417 2.06637 0
M  V30 1636 N 150.766 -0.704594 1.40972 0
M  V30 1637 C 152.014 -1.46169 1.39568 0
M  V30 1638 C 152.335 -1.95 0.00253745 0
M  V30 1639 O 151.605 -1.71095 -0.954114 0
M  V30 1640 H 150.185 -0.542326 0.513704 0
M  V30 1641 H 152.847 -0.834553 1.76128 0
M  V30 1642 H 151.943 -2.32922 2.07735 0
M  V30 1643 N 152.244 -1.26651 -0.937939 0
M  V30 1644 C 153.49 -1.13562 -1.68746 0
M  V30 1645 C 153.845 0.317241 -1.89767 0
M  V30 1646 O 153.138 1.22939 -1.46957 0
M  V30 1647 C 153.332 -1.84168 -3.06295 0
M  V30 1648 C 153.161 -3.36171 -2.98696 0
M  V30 1649 C 151.931 -4.05468 -3.01535 0
M  V30 1650 C 154.129 -4.32312 -2.78588 0
M  V30 1651 N 152.111 -5.44118 -2.84269 0
M  V30 1652 C 153.482 -5.58159 -2.69924 0
M  V30 1653 C 155.537 -4.22524 -2.63396 0
M  V30 1654 C 154.24 -6.75335 -2.47618 0
M  V30 1655 C 156.266 -5.39411 -2.42466 0
M  V30 1656 C 155.628 -6.64208 -2.34536 0
M  V30 1657 H 151.727 -0.470361 -0.624728 0
M  V30 1658 H 154.311 -1.59982 -1.10968 0
M  V30 1659 H 152.482 -1.40219 -3.62206 0
M  V30 1660 H 154.214 -1.63674 -3.70126 0
M  V30 1661 H 150.969 -3.56854 -3.11372 0
M  V30 1662 H 151.393 -6.1693 -2.78795 0
M  V30 1663 H 156.035 -3.26771 -2.68292 0
M  V30 1664 H 153.753 -7.71182 -2.41463 0
M  V30 1665 H 157.339 -5.33711 -2.31611 0
M  V30 1666 H 156.219 -7.53129 -2.18555 0
M  V30 1667 N 153.722 1.14298 -1.08507 0
M  V30 1668 C 154.971 1.84708 -0.810305 0
M  V30 1669 C 155.284 1.83903 0.666271 0
M  V30 1670 O 156.49 2.50112 1.05624 0
M  V30 1671 C 154.946 3.31572 -1.39957 0
M  V30 1672 C 154.554 3.40791 -2.90801 0
M  V30 1673 C 156.298 4.07087 -1.20334 0
M  V30 1674 C 154.205 4.81872 -3.4286 0
M  V30 1675 H 153.135 0.691985 -0.299454 0
M  V30 1676 H 155.786 1.28841 -1.30661 0
M  V30 1677 H 154.168 3.87183 -0.830976 0
M  V30 1678 H 155.342 2.95225 -3.53806 0
M  V30 1679 H 153.657 2.78732 -3.0935 0
M  V30 1680 H 156.254 5.11225 -1.56693 0
M  V30 1681 H 156.597 4.16054 -0.143237 0
M  V30 1682 H 157.13 3.57779 -1.73893 0
M  V30 1683 H 153.869 4.78094 -4.48449 0
M  V30 1684 H 153.389 5.27972 -2.84615 0
M  V30 1685 H 155.068 5.50765 -3.39509 0
M  V30 1686 N 155.201 0.870884 1.31352 0
M  V30 1687 C 156.448 0.482273 1.96673 0
M  V30 1688 C 156.776 -0.965638 1.68836 0
M  V30 1689 O 156.031 -1.69514 0.977937 0
M  V30 1690 C 156.33 0.687157 3.50732 0
M  V30 1691 C 155.996 2.108 3.9859 0
M  V30 1692 C 154.658 2.49656 4.1137 0
M  V30 1693 C 157.01 3.03459 4.23748 0
M  V30 1694 C 154.338 3.80412 4.46659 0
M  V30 1695 C 156.69 4.3373 4.60501 0
M  V30 1696 C 155.354 4.725 4.71487 0
M  V30 1697 H 154.624 0.176476 0.719679 0
M  V30 1698 H 157.271 1.10405 1.56471 0
M  V30 1699 H 155.576 -0.0177476 3.91796 0
M  V30 1700 H 157.273 0.366284 3.99324 0
M  V30 1701 H 153.863 1.79633 3.8914 0
M  V30 1702 H 158.047 2.74665 4.13368 0
M  V30 1703 H 153.303 4.1021 4.53362 0
M  V30 1704 H 157.477 5.05578 4.78919 0
M  V30 1705 H 155.104 5.73859 4.98588 0
M  V30 1706 N 156.679 -1.44442 0.630414 0
M  V30 1707 C 157.927 -2.01653 0.134351 0
M  V30 1708 C 158.248 -1.49836 -1.24796 0
M  V30 1709 O 157.518 -0.701684 -1.82902 0
M  V30 1710 H 156.098 -0.74554 0.0466769 0
M  V30 1711 H 158.76 -1.76952 0.816955 0
M  V30 1712 H 157.856 -3.11935 0.101498 0
M  V30 1713 N 158.157 -0.370918 -1.53173 0
M  V30 1714 C 159.385 0.217704 -2.05751 0
M  V30 1715 C 159.8 1.42018 -1.24404 0
M  V30 1716 O 159.157 1.80245 -0.286033 0
M  V30 1717 C 159.208 0.605954 -3.56385 0
M  V30 1718 O 158.929 -0.548734 -4.3465 0
M  V30 1719 C 160.43 1.2524 -4.25241 0
M  V30 1720 H 157.65 0.0371659 -0.66997 0
M  V30 1721 H 160.194 -0.530832 -1.9749 0
M  V30 1722 H 158.349 1.3044 -3.6478 0
M  V30 1723 H 158.763 -0.23376 -5.23979 0
M  V30 1724 H 160.237 1.47458 -5.3194 0
M  V30 1725 H 160.714 2.2143 -3.79296 0
M  V30 1726 H 161.32 0.595233 -4.21114 0
M  V30 1727 N 159.635 1.57281 -0.100228 0
M  V30 1728 C 160.863 1.98879 0.570509 0
M  V30 1729 C 161.278 0.979476 1.61405 0
M  V30 1730 O 160.635 -0.0302288 1.82475 0
M  V30 1731 C 160.686 3.4052 1.2136 0
M  V30 1732 O 160.407 4.37588 0.211786 0
M  V30 1733 C 161.908 3.97149 1.96945 0
M  V30 1734 H 159.128 0.653428 0.152555 0
M  V30 1735 H 161.672 2.03697 -0.18103 0
M  V30 1736 H 159.827 3.367 1.91603 0
M  V30 1737 H 160.241 5.20118 0.676607 0
M  V30 1738 H 161.715 4.98393 2.37294 0
M  V30 1739 H 162.192 3.3525 2.83733 0
M  V30 1740 H 162.798 4.04458 1.31506 0
M  V30 1741 N 161.113 -0.173488 1.56642 0
M  V30 1742 C 162.043 -1.2171 1.99271 0
M  V30 1743 C 163.024 -1.46289 0.867959 0
M  V30 1744 O 164.209 -1.5766 1.13388 0
M  V30 1745 C 161.339 -2.55651 2.35074 0
M  V30 1746 C 160.293 -2.45645 3.50489 0
M  V30 1747 C 159.619 -3.84056 3.72028 0
M  V30 1748 C 160.919 -1.96302 4.84007 0
M  V30 1749 H 162.613 -0.86275 2.867 0
M  V30 1750 H 160.159 -0.413571 1.37933 0
M  V30 1751 H 162.112 -3.2886 2.63494 0
M  V30 1752 H 160.836 -2.92869 1.44552 0
M  V30 1753 H 159.495 -1.7489 3.22194 0
M  V30 1754 H 159.143 -4.18664 2.788 0
M  V30 1755 H 158.843 -3.7823 4.49684 0
M  V30 1756 H 160.367 -4.58854 4.02846 0
M  V30 1757 H 161.781 -2.59284 5.11317 0
M  V30 1758 H 160.178 -2.01429 5.65284 0
M  V30 1759 H 161.248 -0.917226 4.76146 0
M  V30 1760 N 162.591 -1.51276 -0.441967 0
M  V30 1761 C 163.868 -1.54252 -1.20273 0
M  V30 1762 C 164.248 -0.30408 -2.08898 0
M  V30 1763 O 163.596 0.711084 -2.17154 0
M  V30 1764 C 163.806 -2.85406 -2.00859 0
M  V30 1765 C 165.154 -3.37181 -2.58059 0
M  V30 1766 O 166.178 -2.86925 -2.11074 0
M  V30 1767 O 165.037 -4.24858 -3.43741 0
M  V30 1768 H 162.131 -0.619969 -0.547328 0
M  V30 1769 H 164.677 -1.63586 -0.451413 0
M  V30 1770 H 163.449 -3.67003 -1.35736 0
M  V30 1771 H 163.072 -2.79213 -2.83065 0
M  V30 1772 N 164.069 0.697108 -1.41344 0
M  V30 1773 C 165.294 1.49096 -1.44171 0
M  V30 1774 C 165.719 1.88038 -0.0481568 0
M  V30 1775 O 165.077 1.54525 0.948243 0
M  V30 1776 C 165.125 2.73088 -2.3549 0
M  V30 1777 O 164.229 3.70514 -1.81088 0
M  V30 1778 H 163.57 0.448801 -0.489361 0
M  V30 1779 H 166.1 0.856992 -1.85787 0
M  V30 1780 H 166.11 3.21413 -2.51312 0
M  V30 1781 H 164.785 2.44081 -3.36745 0
M  V30 1782 H 163.362 3.29441 -1.74708 0
M  V30 1783 N 165.547 1.27147 0.931209 0
M  V30 1784 C 166.494 1.09568 2.03134 0
M  V30 1785 C 167.464 -0.00222433 1.661 0
M  V30 1786 O 168.649 0.159439 1.90133 0
M  V30 1787 C 165.789 0.745231 3.36957 0
M  V30 1788 C 164.902 1.92041 3.86968 0
M  V30 1789 C 164.037 1.51216 5.09222 0
M  V30 1790 C 163.076 2.65504 5.5152 0
M  V30 1791 N 162.213 2.25291 6.64972 0
M  V30 1792 H 167.053 2.03708 2.17502 0
M  V30 1793 H 164.59 1.01411 1.06556 0
M  V30 1794 H 166.548 0.522878 4.1391 0
M  V30 1795 H 165.178 -0.159202 3.22407 0
M  V30 1796 H 164.23 2.25541 3.06326 0
M  V30 1797 H 165.542 2.77787 4.1429 0
M  V30 1798 H 164.696 1.25084 5.93666 0
M  V30 1799 H 163.435 0.625749 4.83669 0
M  V30 1800 H 162.44 2.92354 4.65628 0
M  V30 1801 H 163.665 3.54761 5.7907 0
M  V30 1802 H 161.611 1.39098 6.41083 0
M  V30 1803 H 161.528 3.04577 6.91931 0
M  V30 1804 H 162.796 2.02398 7.52765 0
M  V30 1805 N 167.025 -1.13721 1.09112 0
M  V30 1806 C 168.253 -1.88773 0.846899 0
M  V30 1807 C 168.668 -1.7896 -0.601572 0
M  V30 1808 O 168.025 -1.15394 -1.41388 0
M  V30 1809 C 168.076 -3.3849 1.26913 0
M  V30 1810 O 167.797 -3.48043 2.66079 0
M  V30 1811 C 169.298 -4.30518 1.05682 0
M  V30 1812 H 166.518 -0.59772 0.304914 0
M  V30 1813 H 169.062 -1.43977 1.45227 0
M  V30 1814 H 167.217 -3.80881 0.707723 0
M  V30 1815 H 167.631 -4.4109 2.83795 0
M  V30 1816 H 169.105 -5.3391 1.40156 0
M  V30 1817 H 169.582 -4.392 -0.00563416 0
M  V30 1818 H 170.188 -3.93893 1.60402 0
M  V30 1819 N 168.503 -0.877838 -1.30888 0
M  V30 1820 C 169.435 -0.296607 -2.27273 0
M  V30 1821 C 170.448 0.544799 -1.53414 0
M  V30 1822 O 171.637 0.365511 -1.74718 0
M  V30 1823 C 168.737 0.597481 -3.33592 0
M  V30 1824 C 167.91 -0.213251 -4.3688 0
M  V30 1825 C 166.969 0.610208 -5.2265 0
M  V30 1826 O 165.995 0.035441 -5.69189 0
M  V30 1827 N 167.197 1.92071 -5.47804 0
M  V30 1828 H 169.962 -1.12492 -2.77787 0
M  V30 1829 H 167.523 -0.740105 -1.43993 0
M  V30 1830 H 169.515 1.15425 -3.87891 0
M  V30 1831 H 168.085 1.32647 -2.83061 0
M  V30 1832 H 167.305 -0.951466 -3.82545 0
M  V30 1833 H 168.593 -0.769262 -5.02951 0
M  V30 1834 H 167.991 2.4107 -5.11763 0
M  V30 1835 H 166.548 2.42508 -6.05007 0
M  V30 1836 N 169.982 1.44106 -0.638065 0
M  V30 1837 C 171.207 2.0685 -0.150916 0
M  V30 1838 C 171.632 1.47417 1.16833 0
M  V30 1839 O 170.99 0.578264 1.71831 0
M  V30 1840 C 171.038 3.60555 -0.05708 0
M  V30 1841 O 170.142 4.00465 0.984972 0
M  V30 1842 H 169.483 0.658151 -0.0879399 0
M  V30 1843 H 172.013 1.84865 -0.876707 0
M  V30 1844 H 172.023 4.07789 0.131232 0
M  V30 1845 H 170.698 4.03193 -1.02021 0
M  V30 1846 H 169.275 3.64849 0.770672 0
M  V30 1847 N 171.46 0.379036 1.52974 0
M  V30 1848 C 172.39 -0.452706 2.29069 0
M  V30 1849 C 173.371 -1.07237 1.32039 0
M  V30 1850 O 174.556 -1.08708 1.60923 0
M  V30 1851 C 171.686 -1.5856 3.08992 0
M  V30 1852 C 170.64 -1.0925 4.13822 0
M  V30 1853 C 169.966 -2.31668 4.81907 0
M  V30 1854 C 171.266 -0.167702 5.22031 0
M  V30 1855 H 172.96 0.182181 2.98845 0
M  V30 1856 H 170.506 0.0890592 1.43724 0
M  V30 1857 H 172.459 -2.1742 3.6098 0
M  V30 1858 H 171.183 -2.24792 2.36931 0
M  V30 1859 H 169.842 -0.526494 3.628 0
M  V30 1860 H 169.49 -2.96386 4.06404 0
M  V30 1861 H 169.19 -1.9934 5.52754 0
M  V30 1862 H 170.714 -2.91189 5.36695 0
M  V30 1863 H 172.128 -0.664186 5.6944 0
M  V30 1864 H 170.525 0.0653265 6.00064 0
M  V30 1865 H 171.595 0.786347 4.78482 0
M  V30 1866 N 172.938 -1.57226 0.108567 0
M  V30 1867 C 173.868 -2.17778 -0.84232 0
M  V30 1868 C 174.849 -1.11487 -1.2847 0
M  V30 1869 O 176.034 -1.39681 -1.34918 0
M  V30 1870 C 173.164 -2.76888 -2.09644 0
M  V30 1871 C 172.118 -3.88669 -1.79221 0
M  V30 1872 C 171.444 -4.34541 -3.11574 0
M  V30 1873 C 172.744 -5.11251 -1.06864 0
M  V30 1874 H 174.438 -2.97489 -0.337774 0
M  V30 1875 H 171.984 -1.43097 -0.161025 0
M  V30 1876 H 173.937 -3.17904 -2.76614 0
M  V30 1877 H 172.661 -1.94451 -2.62405 0
M  V30 1878 H 171.32 -3.48213 -1.14644 0
M  V30 1879 H 170.968 -3.48977 -3.62249 0
M  V30 1880 H 170.668 -5.09914 -2.91996 0
M  V30 1881 H 172.192 -4.782 -3.7968 0
M  V30 1882 H 173.606 -5.49352 -1.63968 0
M  V30 1883 H 172.003 -5.9214 -0.974178 0
M  V30 1884 H 173.073 -4.8487 -0.0536168 0
M  V30 1885 N 174.416 0.165178 -1.56732 0
M  V30 1886 C 175.665 0.879143 -1.81532 0
M  V30 1887 C 175.978 1.83144 -0.686842 0
M  V30 1888 O 177.184 2.58823 -0.819944 0
M  V30 1889 C 175.64 1.61388 -3.21686 0
M  V30 1890 C 175.248 0.704904 -4.4242 0
M  V30 1891 C 176.992 2.3157 -3.55774 0
M  V30 1892 C 174.899 1.44022 -5.73595 0
M  V30 1893 H 173.829 0.332033 -0.676957 0
M  V30 1894 H 176.48 0.132008 -1.83025 0
M  V30 1895 H 174.862 2.40599 -3.14529 0
M  V30 1896 H 176.036 -0.0506815 -4.60772 0
M  V30 1897 H 174.351 0.112419 -4.16248 0
M  V30 1898 H 176.948 2.8719 -4.51028 0
M  V30 1899 H 177.291 3.07201 -2.8095 0
M  V30 1900 H 177.824 1.59297 -3.64513 0
M  V30 1901 H 174.563 0.72612 -6.51466 0
M  V30 1902 H 174.083 2.16898 -5.5921 0
M  V30 1903 H 175.762 1.98606 -6.15764 0
M  V30 1904 N 175.894 1.51508 0.433938 0
M  V30 1905 C 177.14 1.64588 1.18484 0
M  V30 1906 C 177.473 0.362666 1.90784 0
M  V30 1907 O 176.748 -0.637892 1.83742 0
M  V30 1908 C 177.031 2.85149 2.19913 0
M  V30 1909 C 176.884 4.23456 1.51674 0
M  V30 1910 C 178.203 3.01227 3.20858 0
M  V30 1911 H 175.322 0.598994 0.429389 0
M  V30 1912 H 177.964 1.84002 0.473647 0
M  V30 1913 H 176.114 2.68729 2.80566 0
M  V30 1914 H 177.786 4.51552 0.943322 0
M  V30 1915 H 176.029 4.25998 0.819035 0
M  V30 1916 H 176.7 5.03812 2.2556 0
M  V30 1917 H 179.176 3.16382 2.70263 0
M  V30 1918 H 178.052 3.87141 3.89118 0
M  V30 1919 H 178.313 2.13447 3.8716 0
M  V30 1920 N 177.372 -0.689602 1.41712 0
M  V30 1921 C 178.32 -1.82475 1.44242 0
M  V30 1922 C 179.314 -1.66354 0.319774 0
M  V30 1923 O 180.52 -1.73143 0.492089 0
M  V30 1924 H 176.895 -0.601416 0.451445 0
M  V30 1925 H 178.866 -1.77458 2.39899 0
M  V30 1926 C 177.615 -3.20535 1.3473 0
M  V30 1927 H 176.938 -3.33559 2.20405 0
M  V30 1928 H 178.378 -4.00023 1.40562 0
M  V30 1929 C 176.837 -3.36846 0.0603281 0
M  V30 1930 O 177.367 -3.91656 -0.892663 0
M  V30 1931 N 175.573 -2.90595 -0.0177039 0
M  V30 1932 H 175.12 -2.46178 0.758572 0
M  V30 1933 H 175.078 -3.01886 -0.878201 0
M  V30 1934 N 178.85 -1.27639 -0.924453 0
M  V30 1935 C 179.798 -1.10485 -2.04685 0
M  V30 1936 C 180.792 -0.0270421 -1.69378 0
M  V30 1937 O 181.998 -0.185008 -1.79047 0
M  V30 1938 H 178.373 -0.340546 -0.670472 0
M  V30 1939 H 180.344 -2.05566 -2.16298 0
M  V30 1940 C 179.093 -0.772229 -3.39016 0
M  V30 1941 H 178.416 -1.59351 -3.66671 0
M  V30 1942 H 179.856 -0.692097 -4.18313 0
M  V30 1943 C 178.315 0.523554 -3.32807 0
M  V30 1944 O 178.845 1.55702 -3.70297 0
M  V30 1945 N 177.051 0.520363 -2.85903 0
M  V30 1946 H 176.598 -0.32107 -2.55591 0
M  V30 1947 H 176.556 1.38742 -2.82131 0
M  V30 1948 N 180.328 1.1314 -1.09713 0
M  V30 1949 C 181.291 2.16831 -0.742751 0
M  V30 1950 C 182.291 1.59159 0.229129 0
M  V30 1951 O 183.481 1.74199 0.00693237 0
M  V30 1952 C 180.613 3.40756 -0.0989168 0
M  V30 1953 H 181.806 2.49695 -1.66109 0
M  V30 1954 H 179.359 1.2802 -0.896699 0
M  V30 1955 H 180.094 3.13485 0.830514 0
M  V30 1956 H 179.879 3.83888 -0.798265 0
M  V30 1957 H 181.369 4.17386 0.133524 0
M  V30 1958 N 181.806 0.884767 1.30421 0
M  V30 1959 C 183.034 0.518044 2.0031 0
M  V30 1960 C 183.449 -0.893408 1.66324 0
M  V30 1961 O 182.806 -1.5875 0.900262 0
M  V30 1962 C 182.857 0.682997 3.54989 0
M  V30 1963 O 182.578 2.03888 3.87764 0
M  V30 1964 C 184.079 0.31924 4.42149 0
M  V30 1965 H 181.299 0.200265 0.640418 0
M  V30 1966 H 183.843 1.19001 1.6631 0
M  V30 1967 H 181.998 0.0584052 3.87356 0
M  V30 1968 H 182.412 2.05735 4.82466 0
M  V30 1969 H 183.886 0.485555 5.4986 0
M  V30 1970 H 184.363 -0.742717 4.32875 0
M  V30 1971 H 184.969 0.920147 4.15227 0
M  V30 1972 N 183.284 -1.43765 0.645699 0
M  V30 1973 C 184.232 -2.32516 -0.0624849 0
M  V30 1974 C 185.226 -1.48183 -0.820855 0
M  V30 1975 O 186.432 -1.64439 -0.732106 0
M  V30 1976 H 182.807 -0.750989 -0.0389864 0
M  V30 1977 H 184.778 -2.89979 0.703892 0
M  V30 1978 C 183.527 -3.32389 -1.02044 0
M  V30 1979 H 182.85 -3.97301 -0.446312 0
M  V30 1980 H 184.29 -3.97138 -1.48517 0
M  V30 1981 C 182.749 -2.62416 -2.11281 0
M  V30 1982 O 183.279 -2.434 -3.19561 0
M  V30 1983 N 181.485 -2.21913 -1.87624 0
M  V30 1984 H 181.032 -2.37578 -0.995703 0
M  V30 1985 H 180.99 -1.75424 -2.6091 0
M  V30 1986 N 184.763 -0.387143 -1.52771 0
M  V30 1987 C 186.009 0.196025 -2.0185 0
M  V30 1988 C 186.342 1.46641 -1.27319 0
M  V30 1989 O 185.617 1.90889 -0.373032 0
M  V30 1990 C 185.9 0.466136 -3.5707 0
M  V30 1991 C 185.753 -0.819385 -4.42274 0
M  V30 1992 C 187.072 1.25768 -4.21747 0
M  V30 1993 H 184.191 0.0697708 -0.73369 0
M  V30 1994 H 186.833 -0.516286 -1.82851 0
M  V30 1995 H 184.983 1.07293 -3.7339 0
M  V30 1996 H 186.655 -1.4563 -4.37709 0
M  V30 1997 H 184.898 -1.43517 -4.09372 0
M  V30 1998 H 185.569 -0.585065 -5.48891 0
M  V30 1999 H 188.045 0.744167 -4.09391 0
M  V30 2000 H 186.921 1.41541 -5.30337 0
M  V30 2001 H 187.182 2.27228 -3.79236 0
M  V30 2002 N 186.241 1.57166 -0.116904 0
M  V30 2003 C 187.487 1.95412 0.542405 0
M  V30 2004 C 187.82 1.00019 1.66463 0
M  V30 2005 O 187.095 0.0370346 1.94465 0
M  V30 2006 C 187.378 3.43615 1.07708 0
M  V30 2007 C 187.231 4.49781 -0.0415868 0
M  V30 2008 C 188.55 3.93616 1.96861 0
M  V30 2009 H 185.669 0.710543 0.195696 0
M  V30 2010 H 188.311 1.89027 -0.192038 0
M  V30 2011 H 186.461 3.49187 1.70296 0
M  V30 2012 H 188.133 4.56308 -0.676793 0
M  V30 2013 H 186.376 4.28033 -0.705019 0
M  V30 2014 H 187.047 5.50733 0.373717 0
M  V30 2015 H 189.523 3.90335 1.44146 0
M  V30 2016 H 188.399 4.97838 2.3119 0
M  V30 2017 H 188.66 3.34188 2.89432 0
M  V30 2018 N 187.719 -0.156864 1.56817 0
M  V30 2019 C 188.968 -0.869504 1.81996 0
M  V30 2020 C 189.281 -1.82777 0.696545 0
M  V30 2021 O 190.487 -2.58384 0.833658 0
M  V30 2022 C 188.943 -1.59679 3.22538 0
M  V30 2023 C 188.551 -0.681431 4.42787 0
M  V30 2024 C 190.295 -2.2968 3.56997 0
M  V30 2025 C 188.202 -1.40978 5.74351 0
M  V30 2026 H 187.132 -0.328438 0.678708 0
M  V30 2027 H 189.783 -0.1223 1.83092 0
M  V30 2028 H 188.165 -2.38927 3.158 0
M  V30 2029 H 189.339 0.0751166 4.60739 0
M  V30 2030 H 187.654 -0.0903431 4.16302 0
M  V30 2031 H 190.251 -2.84794 4.52544 0
M  V30 2032 H 190.594 -3.05707 2.82576 0
M  V30 2033 H 191.127 -1.57361 3.65352 0
M  V30 2034 H 187.866 -0.691561 6.51842 0
M  V30 2035 H 187.386 -2.13929 5.60352 0
M  V30 2036 H 189.065 -1.95337 6.16808 0
M  V30 2037 N 189.197 -1.51736 -0.425897 0
M  V30 2038 C 190.144 -1.73875 -1.51776 0
M  V30 2039 C 191.114 -0.580702 -1.55618 0
M  V30 2040 O 192.299 -0.81641 -1.72451 0
M  V30 2041 C 189.439 -1.88012 -2.89388 0
M  V30 2042 C 188.552 -3.15606 -2.94986 0
M  V30 2043 C 187.687 -3.20271 -4.23793 0
M  V30 2044 C 186.726 -4.42134 -4.23302 0
M  V30 2045 N 185.863 -4.44284 -5.43651 0
M  V30 2046 H 190.703 -2.67071 -1.32201 0
M  V30 2047 H 188.24 -1.32351 -0.642008 0
M  V30 2048 H 190.198 -1.9419 -3.69251 0
M  V30 2049 H 188.828 -0.98213 -3.07496 0
M  V30 2050 H 187.88 -3.18681 -2.07717 0
M  V30 2051 H 189.192 -4.05486 -2.90486 0
M  V30 2052 H 188.346 -3.25428 -5.12036 0
M  V30 2053 H 187.085 -2.28299 -4.30965 0
M  V30 2054 H 186.09 -4.3714 -3.3345 0
M  V30 2055 H 187.315 -5.35382 -4.17783 0
M  V30 2056 H 185.261 -3.55188 -5.51523 0
M  V30 2057 H 185.178 -5.27988 -5.41078 0
M  V30 2058 H 186.446 -4.53649 -6.33895 0
M  V30 2059 N 190.675 0.682077 -1.42076 0
M  V30 2060 C 191.921 1.44428 -1.42367 0
M  V30 2061 C 192.254 1.94164 -0.0373056 0
M  V30 2062 O 191.529 1.70429 0.937239 0
M  V30 2063 C 191.812 2.64654 -2.44194 0
M  V30 2064 C 191.665 2.20596 -3.91991 0
M  V30 2065 C 192.984 3.66865 -2.431 0
M  V30 2066 H 190.103 0.523834 -0.518428 0
M  V30 2067 H 192.745 0.77576 -1.73442 0
M  V30 2068 H 190.895 3.2169 -2.17826 0
M  V30 2069 H 192.567 1.68783 -4.29313 0
M  V30 2070 H 190.81 1.52242 -4.06208 0
M  V30 2071 H 191.481 3.06921 -4.58807 0
M  V30 2072 H 193.957 3.19531 -2.66532 0
M  V30 2073 H 192.833 4.48577 -3.16339 0
M  V30 2074 H 193.094 4.17493 -1.45437 0
M  V30 2075 N 192.153 1.28127 0.917671 0
M  V30 2076 C 193.393 1.163 1.68088 0
M  V30 2077 C 193.757 -0.284515 1.8988 0
M  V30 2078 O 194.958 -0.525413 2.63615 0
M  V30 2079 C 193.229 1.93546 3.00457 0
M  V30 2080 S 194.788 1.98048 3.91564 0
M  V30 2081 H 191.606 0.415005 0.577315 0
M  V30 2082 H 194.208 1.62173 1.09179 0
M  V30 2083 H 192.912 2.97888 2.82295 0
M  V30 2084 H 192.443 1.48207 3.64415 0
M  V30 2085 H 194.458 1.08415 4.84211 0
M  V30 2086 N 193.631 -1.12557 1.10312 0
M  V30 2087 C 194.541 -2.21841 0.763142 0
M  V30 2088 C 195.557 -1.72354 -0.238801 0
M  V30 2089 O 196.733 -2.01249 -0.0778746 0
M  V30 2090 C 193.798 -3.46131 0.198632 0
M  V30 2091 C 192.859 -4.10464 1.25769 0
M  V30 2092 C 192.092 -5.28821 0.72002 0
M  V30 2093 O 192.315 -5.6859 -0.453993 0
M  V30 2094 O 191.249 -5.83437 1.47935 0
M  V30 2095 H 195.075 -2.53312 1.67532 0
M  V30 2096 H 192.66 -1.20867 0.878157 0
M  V30 2097 H 194.542 -4.2125 -0.112401 0
M  V30 2098 H 193.217 -3.16338 -0.686419 0
M  V30 2099 H 192.124 -3.3713 1.62156 0
M  V30 2100 H 193.457 -4.44408 2.11571 0
M  V30 2101 N 195.109 -0.891671 -1.2995 0
M  V30 2102 C 196.356 -0.513501 -1.95881 0
M  V30 2103 C 196.684 0.938655 -1.70351 0
M  V30 2104 O 195.939 1.67936 -1.00478 0
M  V30 2105 C 196.238 -0.742868 -3.49594 0
M  V30 2106 C 195.904 -2.17114 -3.95186 0
M  V30 2107 C 194.566 -2.56169 -4.07346 0
M  V30 2108 C 196.918 -3.10162 -4.18866 0
M  V30 2109 C 194.246 -3.87469 -4.4055 0
M  V30 2110 C 196.598 -4.41001 -4.53542 0
M  V30 2111 C 195.262 -4.79941 -4.63911 0
M  V30 2112 H 194.532 -0.187903 -0.71678 0
M  V30 2113 H 197.179 -1.1288 -1.54694 0
M  V30 2114 H 195.484 -0.044586 -3.91775 0
M  V30 2115 H 197.181 -0.429767 -3.9869 0
M  V30 2116 H 193.771 -1.85801 -3.86233 0
M  V30 2117 H 197.955 -2.81206 -4.08946 0
M  V30 2118 H 193.211 -4.17371 -4.46779 0
M  V30 2119 H 197.385 -5.13133 -4.70815 0
M  V30 2120 H 195.012 -5.81719 -4.89395 0
M  V30 2121 N 196.587 1.43421 -0.653314 0
M  V30 2122 C 197.519 2.29071 0.0769134 0
M  V30 2123 C 198.532 1.42513 0.787017 0
M  V30 2124 O 199.721 1.66449 0.644757 0
M  V30 2125 C 196.821 3.19436 1.13199 0
M  V30 2126 C 195.994 4.34533 0.500006 0
M  V30 2127 C 195.053 5.05771 1.45198 0
M  V30 2128 O 194.079 5.61037 0.960538 0
M  V30 2129 N 195.281 5.0928 2.78594 0
M  V30 2130 H 198.046 2.92382 -0.658235 0
M  V30 2131 H 195.607 1.54112 -0.496104 0
M  V30 2132 H 197.599 3.63958 1.76964 0
M  V30 2133 H 196.169 2.57724 1.7691 0
M  V30 2134 H 195.389 3.92925 -0.316738 0
M  V30 2135 H 196.677 5.08766 0.0588345 0
M  V30 2136 H 196.075 4.65751 3.2108 0
M  V30 2137 H 194.632 5.57519 3.37662 0
M  V30 2138 N 198.065 0.39524 1.52563 0
M  V30 2139 C 199.312 -0.185044 2.01653 0
M  V30 2140 C 199.64 -1.46317 1.28146 0
M  V30 2141 O 198.895 -1.9213 0.372074 0
M  V30 2142 C 199.194 -0.493444 3.53977 0
M  V30 2143 C 198.86 0.69384 4.4553 0
M  V30 2144 C 197.522 1.01954 4.70275 0
M  V30 2145 C 199.874 1.48785 4.99512 0
M  V30 2146 C 197.202 2.14069 5.46252 0
M  V30 2147 C 199.554 2.59965 5.76716 0
M  V30 2148 C 198.218 2.93037 5.99738 0
M  V30 2149 H 197.488 -0.0677123 0.7379 0
M  V30 2150 H 200.135 0.533807 1.8391 0
M  V30 2151 H 198.44 -1.29369 3.69825 0
M  V30 2152 H 200.137 -0.955163 3.89458 0
M  V30 2153 H 196.727 0.429987 4.26438 0
M  V30 2154 H 200.911 1.24946 4.80315 0
M  V30 2155 H 196.167 2.40056 5.62302 0
M  V30 2156 H 200.341 3.21887 6.17545 0
M  V30 2157 H 197.968 3.8003 6.58393 0
M  V30 2158 N 199.544 -1.57102 0.125237 0
M  V30 2159 C 200.784 -1.97294 -0.534259 0
M  V30 2160 C 201.148 -1.0074 -1.63449 0
M  V30 2161 O 202.349 -1.29893 -2.35332 0
M  V30 2162 C 200.62 -3.41705 -1.04748 0
M  V30 2163 S 202.179 -4.03913 -1.71463 0
M  V30 2164 H 198.997 -0.689517 -0.173458 0
M  V30 2165 H 201.599 -1.94349 0.211797 0
M  V30 2166 H 200.303 -4.09723 -0.235649 0
M  V30 2167 H 199.834 -3.48315 -1.82867 0
M  V30 2168 H 201.849 -3.95182 -3.00077 0
M  V30 2169 N 201.022 0.148545 -1.56898 0
M  V30 2170 C 201.97 1.20265 -1.99096 0
M  V30 2171 C 202.964 1.44559 -0.883123 0
M  V30 2172 O 204.17 1.4487 -1.0683 0
M  V30 2173 H 200.545 0.404786 -0.63376 0
M  V30 2174 H 202.516 0.82004 -2.86911 0
M  V30 2175 C 201.265 2.52886 -2.3863 0
M  V30 2176 H 200.588 2.35021 -3.23427 0
M  V30 2177 H 202.028 3.25274 -2.7198 0
M  V30 2178 C 200.487 3.13315 -1.23837 0
M  V30 2179 O 201.017 3.98077 -0.538268 0
M  V30 2180 N 199.223 2.72742 -1.00301 0
M  V30 2181 H 198.77 2.03912 -1.5741 0
M  V30 2182 H 198.728 3.13507 -0.236838 0
M  V30 2183 N 202.5 1.5196 0.417844 0
M  V30 2184 C 203.777 1.56146 1.17803 0
M  V30 2185 C 204.157 0.337275 2.08388 0
M  V30 2186 O 203.505 -0.676447 2.18258 0
M  V30 2187 C 203.715 2.88566 1.96293 0
M  V30 2188 C 205.063 3.41244 2.52662 0
M  V30 2189 O 206.087 2.90247 2.06483 0
M  V30 2190 O 204.946 4.30273 3.36938 0
M  V30 2191 H 202.04 0.628598 0.537395 0
M  V30 2192 H 204.586 1.64283 0.425331 0
M  V30 2193 H 203.358 3.69116 1.2988 0
M  V30 2194 H 202.981 2.83681 2.78587 0
M  V30 2195 N 203.978 -0.674533 1.42435 0
M  V30 2196 C 205.389 -1.25514 1.38214 0
M  V30 2197 C 205.74 -1.96055 0.0755464 0
M  V30 2198 O 204.865 -2.00028 -0.8257 0
M  V30 2199 C 205.46 -2.28269 2.50357 0
M  V30 2200 C 204.019 -2.81856 2.49467 0
M  V30 2201 C 203.166 -1.56182 2.29134 0
M  V30 2202 H 206.117 -0.467902 1.51646 0
M  V30 2203 H 206.138 -3.10009 2.20624 0
M  V30 2204 H 205.65 -1.769 3.45439 0
M  V30 2205 H 203.751 -3.37346 1.58204 0
M  V30 2206 H 203.864 -3.30854 3.46515 0
M  V30 2207 H 202.228 -1.82761 1.774 0
M  V30 2208 H 203.011 -1.06778 3.26272 0
M  V30 2209 N 205.456 -1.28612 -0.910864 0
M  V30 2210 C 206.703 -1.15934 -1.66029 0
M  V30 2211 C 207.031 0.291483 -1.92303 0
M  V30 2212 O 206.286 1.22816 -1.52364 0
M  V30 2213 C 206.585 -1.90624 -3.0232 0
M  V30 2214 C 206.251 -3.40405 -2.95695 0
M  V30 2215 C 204.913 -3.81255 -2.93595 0
M  V30 2216 C 207.265 -4.359 -2.85728 0
M  V30 2217 C 204.593 -5.15936 -2.79334 0
M  V30 2218 C 206.945 -5.70657 -2.73007 0
M  V30 2219 C 205.609 -6.10779 -2.69267 0
M  V30 2220 H 204.879 -0.424234 -0.607541 0
M  V30 2221 H 207.526 -1.5942 -1.06101 0
M  V30 2222 H 205.831 -1.39696 -3.6605 0
M  V30 2223 H 207.528 -1.78228 -3.59215 0
M  V30 2224 H 204.118 -3.07927 -2.98125 0
M  V30 2225 H 208.302 -4.053 -2.86436 0
M  V30 2226 H 203.558 -5.46146 -2.74835 0
M  V30 2227 H 207.732 -6.44311 -2.64264 0
M  V30 2228 H 205.359 -7.1509 -2.57974 0
M  V30 2229 N 206.934 1.1197 -1.10907 0
M  V30 2230 C 207.864 2.19928 -0.784473 0
M  V30 2231 C 208.845 1.6833 0.244726 0
M  V30 2232 O 210.03 1.93892 0.109418 0
M  V30 2233 C 207.16 3.46597 -0.220827 0
M  V30 2234 C 206.114 4.11376 -1.18127 0
M  V30 2235 C 205.44 5.32554 -0.478594 0
M  V30 2236 C 206.74 4.56945 -2.52979 0
M  V30 2237 H 208.434 2.47337 -1.68715 0
M  V30 2238 H 205.98 1.18879 -0.812642 0
M  V30 2239 H 207.933 4.21396 0.0184278 0
M  V30 2240 H 206.657 3.1863 0.717113 0
M  V30 2241 H 205.316 3.38564 -1.40606 0
M  V30 2242 H 204.964 5.00856 0.463976 0
M  V30 2243 H 204.664 5.76844 -1.11912 0
M  V30 2244 H 206.188 6.10096 -0.248 0
M  V30 2245 H 207.602 5.23093 -2.3462 0
M  V30 2246 H 205.999 5.1203 -3.12962 0
M  V30 2247 H 207.069 3.70676 -3.12614 0
M  V30 2248 N 208.412 0.89855 1.29475 0
M  V30 2249 C 209.66 0.522847 1.9522 0
M  V30 2250 C 209.981 -0.93371 1.71192 0
M  V30 2251 O 209.251 -1.65823 1.04305 0
M  V30 2252 H 207.831 0.190366 0.722336 0
M  V30 2253 H 210.493 1.14459 1.5775 0
M  V30 2254 H 209.589 0.704476 3.04045 0
M  V30 2255 N 209.89 -1.43072 0.660911 0
M  V30 2256 C 211.136 -2.0202 0.177708 0
M  V30 2257 C 211.469 -1.52066 -1.20787 0
M  V30 2258 O 210.744 -0.716987 -1.80802 0
M  V30 2259 C 211.027 -3.59561 0.197019 0
M  V30 2260 C 210.88 -4.19727 1.61706 0
M  V30 2261 C 212.199 -4.37664 -0.462396 0
M  V30 2262 H 209.318 -0.734034 0.0660494 0
M  V30 2263 H 211.96 -1.70272 0.843058 0
M  V30 2264 H 210.11 -3.86739 -0.369527 0
M  V30 2265 H 211.782 -4.03553 2.23479 0
M  V30 2266 H 210.025 -3.76084 2.16201 0
M  V30 2267 H 210.696 -5.28834 1.58237 0
M  V30 2268 H 213.172 -4.16095 0.0197215 0
M  V30 2269 H 212.048 -5.47305 -0.418188 0
M  V30 2270 H 212.309 -4.14493 -1.53778 0
M  V30 2271 N 211.368 -0.403325 -1.52352 0
M  V30 2272 C 212.598 0.17376 -2.05868 0
M  V30 2273 C 213.006 1.39898 -1.27378 0
M  V30 2274 O 212.349 1.80939 -0.31729 0
M  V30 2275 C 212.411 0.594756 -3.54546 0
M  V30 2276 C 212.075 -0.518926 -4.54044 0
M  V30 2277 C 213.072 -1.3807 -5.01231 0
M  V30 2278 C 210.757 -0.689961 -4.97539 0
M  V30 2279 C 212.751 -2.39852 -5.90551 0
M  V30 2280 C 210.438 -1.71109 -5.86656 0
M  V30 2281 C 211.436 -2.56378 -6.33056 0
M  V30 2282 O 211.124 -3.56743 -7.20409 0
M  V30 2283 H 210.856 0.0264951 -0.675481 0
M  V30 2284 H 213.41 -0.571179 -1.97299 0
M  V30 2285 H 211.64 1.39189 -3.60782 0
M  V30 2286 H 213.329 1.0991 -3.90736 0
M  V30 2287 H 214.095 -1.25994 -4.68349 0
M  V30 2288 H 209.974 -0.035939 -4.60986 0
M  V30 2289 H 213.518 -3.06441 -6.26689 0
M  V30 2290 H 209.415 -1.83218 -6.18952 0
M  V30 2291 H 210.183 -3.52918 -7.38506 0
M  V30 2292 N 212.846 1.57033 -0.133567 0
M  V30 2293 C 214.076 1.99754 0.527429 0
M  V30 2294 C 214.484 1.01245 1.59832 0
M  V30 2295 O 213.827 -0.000645496 1.837 0
M  V30 2296 C 213.889 3.38903 1.19939 0
M  V30 2297 C 213.553 4.56174 0.274709 0
M  V30 2298 C 214.55 5.17563 -0.492398 0
M  V30 2299 C 212.235 5.01972 0.18153 0
M  V30 2300 C 214.229 6.2315 -1.34027 0
M  V30 2301 C 211.916 6.07416 -0.669958 0
M  V30 2302 C 212.914 6.67874 -1.42947 0
M  V30 2303 O 212.602 7.71279 -2.2668 0
M  V30 2304 H 212.334 0.660702 0.142999 0
M  V30 2305 H 214.888 2.04207 -0.221099 0
M  V30 2306 H 213.118 3.31248 1.99528 0
M  V30 2307 H 214.807 3.65818 1.75875 0
M  V30 2308 H 215.573 4.83087 -0.430367 0
M  V30 2309 H 211.452 4.54652 0.762422 0
M  V30 2310 H 214.996 6.70268 -1.93357 0
M  V30 2311 H 210.893 6.41321 -0.73333 0
M  V30 2312 H 211.661 7.88441 -2.1978 0
M  V30 2313 N 214.325 -0.140222 1.56975 0
M  V30 2314 C 215.275 -1.17827 1.95194 0
M  V30 2315 C 216.259 -1.38195 0.824075 0
M  V30 2316 O 217.451 -1.39643 1.0876 0
M  V30 2317 C 214.58 -2.51024 2.34184 0
M  V30 2318 C 213.666 -2.3422 3.53556 0
M  V30 2319 N 214.057 -1.87185 4.69889 0
M  V30 2320 C 212.355 -2.64949 3.58773 0
M  V30 2321 C 213.056 -1.83586 5.5197 0
M  V30 2322 N 212.032 -2.2715 4.93866 0
M  V30 2323 H 215.834 -0.806817 2.82609 0
M  V30 2324 H 213.348 -0.348208 1.58623 0
M  V30 2325 H 215.345 -3.26074 2.59772 0
M  V30 2326 H 214.005 -2.88945 1.48124 0
M  V30 2327 H 215.016 -1.57048 4.93514 0
M  V30 2328 H 211.693 -3.067 2.8327 0
M  V30 2329 H 213.083 -1.48655 6.55249 0
M  V30 2330 N 215.803 -1.52179 -0.40978 0
M  V30 2331 C 216.75 -1.75475 -1.49924 0
M  V30 2332 C 217.72 -0.597175 -1.54994 0
M  V30 2333 O 218.905 -0.834655 -1.71575 0
M  V30 2334 C 216.045 -1.9107 -2.87378 0
M  V30 2335 C 215.158 -3.18717 -2.91622 0
M  V30 2336 C 214.293 -3.24747 -4.20372 0
M  V30 2337 C 213.332 -4.46598 -4.18588 0
M  V30 2338 N 212.469 -4.50025 -5.38908 0
M  V30 2339 H 217.309 -2.68458 -1.29361 0
M  V30 2340 H 214.846 -1.33024 -0.627934 0
M  V30 2341 H 216.804 -1.98096 -3.6717 0
M  V30 2342 H 215.434 -1.01469 -3.06437 0
M  V30 2343 H 214.486 -3.20866 -2.04326 0
M  V30 2344 H 215.798 -4.08544 -2.86169 0
M  V30 2345 H 214.952 -3.30841 -5.08556 0
M  V30 2346 H 213.691 -2.32857 -4.28519 0
M  V30 2347 H 212.696 -4.40652 -3.28794 0
M  V30 2348 H 213.921 -5.39783 -4.12081 0
M  V30 2349 H 211.867 -3.61017 -5.47725 0
M  V30 2350 H 211.784 -5.33697 -5.35447 0
M  V30 2351 H 213.052 -4.60347 -6.29048 0
M  V30 2352 N 217.281 0.66697 -1.42791 0
M  V30 2353 C 218.229 1.80157 -1.47127 0
M  V30 2354 C 219.223 1.65825 -0.346199 0
M  V30 2355 O 220.429 1.72338 -0.519572 0
M  V30 2356 H 216.804 0.594158 -0.460956 0
M  V30 2357 H 218.775 1.73619 -2.42692 0
M  V30 2358 C 217.524 3.18351 -1.39813 0
M  V30 2359 H 216.847 3.3001 -2.25684 0
M  V30 2360 H 218.287 3.97736 -1.46908 0
M  V30 2361 C 216.746 3.36707 -0.11391 0
M  V30 2362 O 217.276 3.93027 0.830241 0
M  V30 2363 N 215.482 2.90586 -0.0285295 0
M  V30 2364 H 215.029 2.4494 -0.79764 0
M  V30 2365 H 214.987 3.03245 0.830063 0
M  V30 2366 N 218.759 1.29093 0.90403 0
M  V30 2367 C 219.707 1.13727 2.02901 0
M  V30 2368 C 220.701 0.0539853 1.69314 0
M  V30 2369 O 221.907 0.213469 1.7873 0
M  V30 2370 H 218.282 0.35117 0.664969 0
M  V30 2371 H 220.253 2.08982 2.13001 0
M  V30 2372 C 219.002 0.826066 3.37745 0
M  V30 2373 H 218.325 1.65164 3.64089 0
M  V30 2374 H 219.765 0.758559 4.17159 0
M  V30 2375 C 218.224 -0.470541 3.33598 0
M  V30 2376 O 218.754 -1.49792 3.72727 0
M  V30 2377 N 216.96 -0.474812 2.86695 0
M  V30 2378 H 216.507 0.361692 2.55048 0
M  V30 2379 H 216.465 -1.34236 2.84303 0
M  V30 2380 N 220.237 -1.11381 1.11499 0
M  V30 2381 C 221.184 -2.17439 0.773887 0
M  V30 2382 C 222.154 -1.64132 -0.254899 0
M  V30 2383 O 223.339 -1.90345 -0.13168 0
M  V30 2384 C 220.479 -3.44373 0.223917 0
M  V30 2385 C 219.592 -4.1168 1.30934 0
M  V30 2386 C 218.727 -5.263 0.71984 0
M  V30 2387 C 217.766 -5.85493 1.78507 0
M  V30 2388 N 216.903 -6.91507 1.21502 0
M  V30 2389 H 221.743 -2.45962 1.68246 0
M  V30 2390 H 219.28 -1.20744 0.840191 0
M  V30 2391 H 221.238 -4.17047 -0.112921 0
M  V30 2392 H 219.868 -3.16232 -0.647851 0
M  V30 2393 H 218.92 -3.37073 1.76312 0
M  V30 2394 H 220.232 -4.51729 2.11524 0
M  V30 2395 H 219.386 -6.05785 0.333094 0
M  V30 2396 H 218.125 -4.87559 -0.117377 0
M  V30 2397 H 217.13 -5.04686 2.18111 0
M  V30 2398 H 218.355 -6.26301 2.62533 0
M  V30 2399 H 216.301 -6.54783 0.399455 0
M  V30 2400 H 216.218 -7.30214 1.95763 0
M  V30 2401 H 217.486 -7.74795 0.855181 0
M  V30 2402 N 221.715 -0.905404 -1.28997 0
M  V30 2403 C 222.94 -0.549175 -1.99997 0
M  V30 2404 C 223.365 0.860276 -1.67275 0
M  V30 2405 O 222.723 1.57355 -0.900502 0
M  V30 2406 C 222.771 -0.755185 -3.52604 0
M  V30 2407 O 221.875 0.189692 -4.11964 0
M  V30 2408 H 221.216 -0.213899 -0.628604 0
M  V30 2409 H 223.746 -1.21856 -1.64354 0
M  V30 2410 H 223.756 -0.662045 -4.02593 0
M  V30 2411 H 222.431 -1.78271 -3.75755 0
M  V30 2412 H 221.008 0.0485257 -3.72868 0
M  V30 2413 N 223.193 1.4272 -0.668489 0
M  V30 2414 C 224.439 2.02443 -0.197076 0
M  V30 2415 C 224.794 1.51882 1.18109 0
M  V30 2416 O 224.087 0.708618 1.78015 0
M  V30 2417 C 224.281 3.57021 -0.164499 0
M  V30 2418 C 224.11 4.22583 -1.53797 0
M  V30 2419 C 222.88 4.58019 -2.13416 0
M  V30 2420 C 225.078 4.50588 -2.47941 0
M  V30 2421 N 223.06 5.08729 -3.4361 0
M  V30 2422 C 224.431 5.02782 -3.62782 0
M  V30 2423 C 226.486 4.32571 -2.46551 0
M  V30 2424 C 225.189 5.38852 -4.76478 0
M  V30 2425 C 227.215 4.69713 -3.59338 0
M  V30 2426 C 226.577 5.22053 -4.72906 0
M  V30 2427 H 222.676 0.773214 -0.116894 0
M  V30 2428 H 225.26 1.73673 -0.880108 0
M  V30 2429 H 223.431 3.85323 0.487925 0
M  V30 2430 H 225.163 4.03439 0.319207 0
M  V30 2431 H 221.918 4.43566 -1.65969 0
M  V30 2432 H 222.342 5.38521 -4.10273 0
M  V30 2433 H 226.984 3.91365 -1.59978 0
M  V30 2434 H 224.702 5.78993 -5.63731 0
M  V30 2435 H 228.288 4.57454 -3.59482 0
M  V30 2436 H 227.168 5.50258 -5.58736 0
M  V30 2437 N 224.671 0.411399 1.52136 0
M  V30 2438 C 225.604 -0.457614 2.23565 0
M  V30 2439 C 226.582 -1.04613 1.24478 0
M  V30 2440 O 227.766 -1.09356 1.53536 0
M  V30 2441 C 224.893 -1.6354 2.96602 0
M  V30 2442 C 223.939 -1.17005 4.10137 0
M  V30 2443 S 224.772 -0.13333 5.35334 0
M  V30 2444 C 225.928 -1.31638 6.119 0
M  V30 2445 H 226.161 0.148883 2.96927 0
M  V30 2446 H 223.694 0.195713 1.53155 0
M  V30 2447 H 225.652 -2.31074 3.39286 0
M  V30 2448 H 224.313 -2.21324 2.22878 0
M  V30 2449 H 223.506 -2.05005 4.60422 0
M  V30 2450 H 223.108 -0.573319 3.6958 0
M  V30 2451 H 225.4 -2.23957 6.39413 0
M  V30 2452 H 226.343 -0.854014 7.02931 0
M  V30 2453 H 226.751 -1.54321 5.42997 0
M  V30 2454 N 226.149 -1.5696 0.141893 0
M  V30 2455 C 227.059 -2.20066 -0.812905 0
M  V30 2456 C 228.075 -1.18344 -1.27557 0
M  V30 2457 O 229.251 -1.50902 -1.33381 0
M  V30 2458 C 226.316 -2.80583 -2.03652 0
M  V30 2459 C 225.377 -3.97414 -1.62359 0
M  V30 2460 C 224.61 -4.55036 -2.78887 0
M  V30 2461 O 224.833 -4.11538 -3.94959 0
M  V30 2462 O 223.767 -5.45376 -2.54653 0
M  V30 2463 H 227.593 -3.02157 -0.305746 0
M  V30 2464 H 225.178 -1.49159 -0.0848799 0
M  V30 2465 H 227.06 -3.19067 -2.75272 0
M  V30 2466 H 225.735 -2.01508 -2.5333 0
M  V30 2467 H 224.642 -3.63656 -0.877775 0
M  V30 2468 H 225.975 -4.77994 -1.17401 0
M  V30 2469 N 227.627 0.131896 -1.57047 0
M  V30 2470 C 228.852 0.860418 -1.8871 0
M  V30 2471 C 229.277 1.73251 -0.73251 0
M  V30 2472 O 228.635 1.785 0.317429 0
M  V30 2473 C 228.683 1.68047 -3.19049 0
M  V30 2474 O 227.787 2.7862 -3.04047 0
M  V30 2475 H 227.128 0.238743 -0.619595 0
M  V30 2476 H 229.658 0.118169 -2.04258 0
M  V30 2477 H 229.668 2.07238 -3.51449 0
M  V30 2478 H 228.343 1.04018 -4.02682 0
M  V30 2479 H 226.92 2.42726 -2.83088 0
M  V30 2480 N 229.106 1.52395 0.401703 0
M  V30 2481 C 230.016 1.7917 1.51444 0
M  V30 2482 C 231.032 0.677691 1.6026 0
M  V30 2483 O 232.208 0.963909 1.76835 0
M  V30 2484 C 229.273 1.94347 2.87107 0
M  V30 2485 C 228.334 3.18257 2.88116 0
M  V30 2486 C 227.567 3.32701 4.17308 0
M  V30 2487 O 227.79 2.52238 5.11598 0
M  V30 2488 O 226.724 4.25891 4.25324 0
M  V30 2489 H 230.55 2.73633 1.31752 0
M  V30 2490 H 228.135 1.3733 0.588296 0
M  V30 2491 H 230.017 2.06109 3.67555 0
M  V30 2492 H 228.692 1.03073 3.06851 0
M  V30 2493 H 227.599 3.11947 2.06494 0
M  V30 2494 H 228.932 4.09336 2.73322 0
M  V30 2495 N 230.584 -0.659388 1.43143 0
M  V30 2496 C 231.831 -1.41935 1.44433 0
M  V30 2497 C 232.159 -1.94387 0.0663522 0
M  V30 2498 O 231.414 -1.72314 -0.927706 0
M  V30 2499 C 231.713 -2.62206 2.42864 0
M  V30 2500 C 231.379 -2.28208 3.88886 0
M  V30 2501 C 230.041 -2.18647 4.28657 0
M  V30 2502 C 232.393 -2.00887 4.8093 0
M  V30 2503 C 229.721 -1.79914 5.58433 0
M  V30 2504 C 232.073 -1.63653 6.11065 0
M  V30 2505 C 230.737 -1.52614 6.49819 0
M  V30 2506 H 230.007 -0.519376 0.528517 0
M  V30 2507 H 232.654 -0.750453 1.76183 0
M  V30 2508 H 230.959 -3.34199 2.04495 0
M  V30 2509 H 232.656 -3.2041 2.41119 0
M  V30 2510 H 229.246 -2.36557 3.57406 0
M  V30 2511 H 233.43 -2.07198 4.5098 0
M  V30 2512 H 228.686 -1.69948 5.87305 0
M  V30 2513 H 232.86 -1.41543 6.81864 0
M  V30 2514 H 230.487 -1.22371 7.50286 0
M  V30 2515 N 232.062 -1.29571 -0.897171 0
M  V30 2516 C 233.478 -1.07637 -1.17841 0
M  V30 2517 C 233.678 0.170713 -2.00776 0
M  V30 2518 O 232.734 0.867768 -2.3712 0
M  V30 2519 C 234.047 -2.3332 -1.8969 0
M  V30 2520 C 235.595 -2.38664 -2.02505 0
M  V30 2521 C 236.07 -3.64157 -2.77765 0
M  V30 2522 N 237.561 -3.64894 -2.85318 0
M  V30 2523 C 238.296 -4.58679 -3.44094 0
M  V30 2524 N 237.792 -5.62799 -4.04017 0
M  V30 2525 N 239.585 -4.46245 -3.41793 0
M  V30 2526 H 231.736 -2.09598 -0.343883 0
M  V30 2527 H 233.999 -0.923333 -0.214848 0
M  V30 2528 H 233.705 -3.24262 -1.36187 0
M  V30 2529 H 233.579 -2.41025 -2.9015 0
M  V30 2530 H 235.966 -1.48208 -2.55183 0
M  V30 2531 H 236.047 -2.34943 -1.01171 0
M  V30 2532 H 235.691 -4.54965 -2.25763 0
M  V30 2533 H 235.621 -3.65137 -3.7945 0
M  V30 2534 H 238.112 -2.89613 -2.42761 0
M  V30 2535 H 238.425 -6.3048 -4.46895 0
M  V30 2536 H 236.77 -5.66605 -4.02472 0
M  V30 2537 H 239.961 -3.64094 -2.94199 0
M  V30 2538 H 240.134 -5.19518 -3.87304 0
M  V30 2539 N 233.54 1.10788 -1.12088 0
M  V30 2540 C 234.786 1.82942 -0.875226 0
M  V30 2541 C 235.119 1.84779 0.597538 0
M  V30 2542 O 234.394 1.30578 1.44152 0
M  V30 2543 C 234.677 3.29789 -1.44606 0
M  V30 2544 C 234.53 3.36307 -2.98693 0
M  V30 2545 C 235.849 4.26064 -1.10261 0
M  V30 2546 H 232.968 0.664195 -0.319397 0
M  V30 2547 H 235.61 1.29867 -1.38689 0
M  V30 2548 H 233.76 3.75118 -1.01089 0
M  V30 2549 H 235.432 2.99487 -3.50864 0
M  V30 2550 H 233.675 2.76318 -3.34411 0
M  V30 2551 H 234.346 4.39694 -3.33726 0
M  V30 2552 H 236.822 3.88951 -1.4784 0
M  V30 2553 H 235.698 5.27183 -1.52869 0
M  V30 2554 H 235.959 4.42098 -0.0142953 0
M  V30 2555 N 235.018 0.912232 1.28515 0
M  V30 2556 C 236.248 0.559604 1.98877 0
M  V30 2557 C 236.656 -0.863113 1.68366 0
M  V30 2558 O 235.999 -1.58304 0.931969 0
M  V30 2559 C 236.061 0.68703 3.52874 0
M  V30 2560 C 235.725 2.07901 4.06972 0
M  V30 2561 C 236.722 3.05157 4.20922 0
M  V30 2562 C 234.407 2.39178 4.417 0
M  V30 2563 C 236.401 4.31806 4.68852 0
M  V30 2564 C 234.088 3.66068 4.89324 0
M  V30 2565 C 235.086 4.62195 5.02856 0
M  V30 2566 O 234.774 5.86829 5.49442 0
M  V30 2567 H 234.506 0.212191 0.641834 0
M  V30 2568 H 237.06 1.22712 1.64715 0
M  V30 2569 H 235.29 -0.0375486 3.86682 0
M  V30 2570 H 236.979 0.341727 4.04459 0
M  V30 2571 H 237.745 2.82311 3.94367 0
M  V30 2572 H 233.624 1.65109 4.30418 0
M  V30 2573 H 237.168 5.06842 4.79329 0
M  V30 2574 H 233.065 3.88739 5.15318 0
M  V30 2575 H 233.833 5.89597 5.6773 0
M  V30 2576 N 236.496 -1.42363 0.676048 0
M  V30 2577 C 237.721 -2.06377 0.205705 0
M  V30 2578 C 238.146 -1.50463 -1.12883 0
M  V30 2579 O 237.504 -0.623619 -1.70237 0
M  V30 2580 C 237.552 -3.60277 0.152655 0
M  V30 2581 O 236.656 -4.02935 -0.87845 0
M  V30 2582 H 235.997 -0.655588 0.105359 0
M  V30 2583 H 238.527 -1.82475 0.925412 0
M  V30 2584 H 238.537 -4.07993 -0.0230675 0
M  V30 2585 H 237.212 -4.00346 1.12675 0
M  V30 2586 H 235.789 -3.66764 -0.673668 0
M  V30 2587 N 237.974 -0.419461 -1.51915 0
M  V30 2588 C 239.199 0.154572 -2.06823 0
M  V30 2589 C 239.624 1.3722 -1.28656 0
M  V30 2590 O 238.982 1.78461 -0.319583 0
M  V30 2591 C 239.03 0.473172 -3.57482 0
M  V30 2592 O 238.134 1.56255 -3.81652 0
M  V30 2593 H 237.475 0.0096924 -0.663929 0
M  V30 2594 H 240.005 -0.595642 -1.95738 0
M  V30 2595 H 240.015 0.728825 -4.01438 0
M  V30 2596 H 238.69 -0.416873 -4.13805 0
M  V30 2597 H 237.267 1.29825 -3.49571 0
M  V30 2598 N 239.452 1.56882 -0.150215 0
M  V30 2599 C 240.415 2.1573 0.774157 0
M  V30 2600 C 241.415 1.0999 1.17298 0
M  V30 2601 O 242.605 1.35613 1.09338 0
M  V30 2602 C 239.737 2.72302 2.05096 0
M  V30 2603 H 240.93 2.98752 0.262201 0
M  V30 2604 H 238.483 1.55985 0.099248 0
M  V30 2605 H 239.218 1.92956 2.6065 0
M  V30 2606 H 239.003 3.49665 1.77416 0
M  V30 2607 H 240.493 3.17632 2.71109 0
M  V30 2608 N 240.93 -0.123565 1.57115 0
M  V30 2609 C 241.878 -1.17082 2.00984 0
M  V30 2610 C 242.872 -1.43136 0.906009 0
M  V30 2611 O 244.078 -1.43152 1.09121 0
M  V30 2612 H 240.453 -0.394653 0.64012 0
M  V30 2613 H 242.424 -0.774292 2.88179 0
M  V30 2614 C 241.173 -2.49057 2.42623 0
M  V30 2615 H 240.496 -2.29846 3.27125 0
M  V30 2616 H 241.936 -3.20906 2.7712 0
M  V30 2617 C 240.395 -3.11305 1.28805 0
M  V30 2618 O 240.925 -3.97171 0.60153 0
M  V30 2619 N 239.131 -2.71111 1.04628 0
M  V30 2620 H 238.678 -2.01382 1.60634 0
M  V30 2621 H 238.636 -3.1309 0.286685 0
M  V30 2622 N 242.408 -1.52605 -0.393616 0
M  V30 2623 C 243.356 -1.77688 -1.50099 0
M  V30 2624 C 244.35 -0.644615 -1.56656 0
M  V30 2625 O 245.556 -0.826997 -1.59877 0
M  V30 2626 H 241.931 -0.562159 -0.499481 0
M  V30 2627 H 243.902 -2.7043 -1.26135 0
M  V30 2628 C 242.651 -1.95858 -2.87289 0
M  V30 2629 H 241.974 -2.8241 -2.82992 0
M  V30 2630 H 243.414 -2.174 -3.64024 0
M  V30 2631 C 241.873 -0.729848 -3.28899 0
M  V30 2632 O 242.403 0.0949217 -4.01588 0
M  V30 2633 N 240.609 -0.561283 -2.85128 0
M  V30 2634 H 240.156 -1.23357 -2.26143 0
M  V30 2635 H 240.114 0.2595 -3.13327 0
M  V30 2636 N 243.887 0.651787 -1.4349 0
M  V30 2637 C 245.127 1.42345 -1.46688 0
M  V30 2638 C 245.491 1.91793 -0.0891023 0
M  V30 2639 O 246.692 2.688 0.00423594 0
M  V30 2640 C 244.963 2.57221 -2.48137 0
M  V30 2641 S 246.522 3.45725 -2.70221 0
M  V30 2642 H 243.34 0.485878 -0.51908 0
M  V30 2643 H 245.942 0.756578 -1.80267 0
M  V30 2644 H 244.646 2.1917 -3.46976 0
M  V30 2645 H 244.177 3.28757 -2.16061 0
M  V30 2646 H 246.192 4.53996 -2.00255 0
M  V30 2647 N 245.365 1.30045 0.890287 0
M  V30 2648 C 246.593 1.21472 1.67487 0
M  V30 2649 C 247.008 -0.223241 1.87476 0
M  V30 2650 O 246.365 -1.14828 1.41847 0
M  V30 2651 C 246.416 1.93394 3.05419 0
M  V30 2652 O 246.137 3.31576 2.86337 0
M  V30 2653 C 247.638 1.91414 3.99844 0
M  V30 2654 H 244.858 0.420604 0.522813 0
M  V30 2655 H 247.402 1.7158 1.11268 0
M  V30 2656 H 245.557 1.47099 3.58386 0
M  V30 2657 H 245.971 3.67929 3.73802 0
M  V30 2658 H 247.445 2.46285 4.94012 0
M  V30 2659 H 247.922 0.891833 4.3005 0
M  V30 2660 H 248.528 2.37496 3.52811 0
M  V30 2661 N 246.843 -1.10192 1.12674 0
M  V30 2662 C 248.09 -1.82205 0.883606 0
M  V30 2663 C 248.418 -1.8532 -0.590492 0
M  V30 2664 O 247.673 -1.31137 -1.45264 0
M  V30 2665 C 247.972 -3.28552 1.4067 0
M  V30 2666 C 247.638 -3.45582 2.89627 0
M  V30 2667 C 246.3 -3.49937 3.30299 0
M  V30 2668 C 248.652 -3.50768 3.85501 0
M  V30 2669 C 245.98 -3.57049 4.65546 0
M  V30 2670 C 248.332 -3.59414 5.20581 0
M  V30 2671 C 246.996 -3.62034 5.60792 0
M  V30 2672 H 246.266 -0.666735 0.323334 0
M  V30 2673 H 248.913 -1.29868 1.40736 0
M  V30 2674 H 247.218 -3.83473 0.80347 0
M  V30 2675 H 248.915 -3.82788 1.19475 0
M  V30 2676 H 245.505 -3.42871 2.57172 0
M  V30 2677 H 249.689 -3.46651 3.55171 0
M  V30 2678 H 244.945 -3.57361 4.96088 0
M  V30 2679 H 249.119 -3.62371 5.94693 0
M  V30 2680 H 246.746 -3.67298 6.6558 0
M  V30 2681 N 248.321 -0.919034 -1.28029 0
M  V30 2682 C 249.231 -0.416756 -2.30869 0
M  V30 2683 C 250.247 0.498235 -1.66714 0
M  V30 2684 O 251.423 0.383144 -1.97722 0
M  V30 2685 C 248.488 0.330274 -3.45123 0
M  V30 2686 C 247.549 -0.618578 -4.2482 0
M  V30 2687 C 246.782 0.0928959 -5.33619 0
M  V30 2688 O 247.005 1.31375 -5.55065 0
M  V30 2689 O 245.939 -0.574499 -5.99152 0
M  V30 2690 H 249.765 -1.27043 -2.75851 0
M  V30 2691 H 247.35 -0.684052 -1.3282 0
M  V30 2692 H 249.232 0.751972 -4.14636 0
M  V30 2693 H 247.907 1.1597 -3.02213 0
M  V30 2694 H 246.814 -1.08978 -3.57875 0
M  V30 2695 H 248.147 -1.41497 -4.71423 0
M  V30 2696 N 249.799 1.42003 -0.683588 0
M  V30 2697 C 251.029 2.05448 -0.217866 0
M  V30 2698 C 251.437 1.51491 1.13346 0
M  V30 2699 O 250.78 0.653048 1.717 0
M  V30 2700 C 250.842 3.59399 -0.0850118 0
M  V30 2701 C 250.506 4.36093 -1.36645 0
M  V30 2702 C 251.503 4.66169 -2.30179 0
M  V30 2703 C 249.188 4.75578 -1.61649 0
M  V30 2704 C 251.182 5.34676 -3.46988 0
M  V30 2705 C 248.869 5.43824 -2.78745 0
M  V30 2706 C 249.867 5.73299 -3.71238 0
M  V30 2707 O 249.555 6.40142 -4.86285 0
M  V30 2708 H 249.287 0.668344 -0.101454 0
M  V30 2709 H 251.841 1.82974 -0.933248 0
M  V30 2710 H 250.071 3.80566 0.686031 0
M  V30 2711 H 251.76 4.04457 0.341973 0
M  V30 2712 H 252.526 4.36156 -2.12115 0
M  V30 2713 H 248.405 4.52025 -0.905243 0
M  V30 2714 H 251.949 5.57599 -4.19201 0
M  V30 2715 H 247.846 5.73254 -2.96732 0
M  V30 2716 H 248.614 6.58636 -4.85944 0
M  V30 2717 N 251.277 0.427512 1.51691 0
M  V30 2718 C 252.523 -0.142439 2.02299 0
M  V30 2719 C 252.856 -1.43214 1.31162 0
M  V30 2720 O 252.131 -1.89833 0.423511 0
M  V30 2721 C 252.414 -0.371301 3.58181 0
M  V30 2722 C 252.267 0.936358 4.39946 0
M  V30 2723 C 253.586 -1.14542 4.24933 0
M  V30 2724 H 250.705 -0.0502937 0.735282 0
M  V30 2725 H 253.347 0.564584 1.81418 0
M  V30 2726 H 251.497 -0.973559 3.76104 0
M  V30 2727 H 253.169 1.57184 4.33694 0
M  V30 2728 H 251.412 1.5432 4.05423 0
M  V30 2729 H 252.083 0.730388 5.47147 0
M  V30 2730 H 254.559 -0.635362 4.11221 0
M  V30 2731 H 253.435 -1.27431 5.33903 0
M  V30 2732 H 253.696 -2.17093 3.85127 0
M  V30 2733 N 252.755 -1.56801 0.158532 0
M  V30 2734 C 253.98 -2.01295 -0.499516 0
M  V30 2735 C 254.405 -1.03799 -1.56867 0
M  V30 2736 O 253.763 -0.0155162 -1.81293 0
M  V30 2737 C 253.811 -3.44469 -1.06647 0
M  V30 2738 O 252.915 -3.50012 -2.18095 0
M  V30 2739 H 252.256 -0.652884 -0.12099 0
M  V30 2740 H 254.786 -2.02958 0.258661 0
M  V30 2741 H 254.796 -3.8351 -1.39227 0
M  V30 2742 H 253.471 -4.14932 -0.283581 0
M  V30 2743 H 252.048 -3.22822 -1.86656 0
M  V30 2744 N 254.233 0.115231 -1.57178 0
M  V30 2745 C 255.165 1.16694 -1.97269 0
M  V30 2746 C 256.178 1.37445 -0.872502 0
M  V30 2747 O 257.367 1.36454 -1.15077 0
M  V30 2748 C 254.467 2.52627 -2.25905 0
M  V30 2749 C 253.64 2.52427 -3.57211 0
M  V30 2750 C 252.699 3.70134 -3.74016 0
M  V30 2751 O 251.725 3.53546 -4.46087 0
M  V30 2752 N 252.927 4.88844 -3.13068 0
M  V30 2753 H 255.692 0.82588 -2.88096 0
M  V30 2754 H 253.253 0.304461 -1.59011 0
M  V30 2755 H 255.245 3.29937 -2.34359 0
M  V30 2756 H 253.815 2.789 -1.41186 0
M  V30 2757 H 253.035 1.60805 -3.5991 0
M  V30 2758 H 254.323 2.49353 -4.43509 0
M  V30 2759 H 253.721 5.05225 -2.54489 0
M  V30 2760 H 252.278 5.63817 -3.27037 0
M  V30 2761 N 255.711 1.52812 0.385517 0
M  V30 2762 C 257.122 1.5993 0.963293 0
M  V30 2763 C 257.473 0.454302 1.90868 0
M  V30 2764 O 256.598 -0.422132 2.12243 0
M  V30 2765 C 257.193 2.89871 1.75387 0
M  V30 2766 C 255.752 2.99389 2.28129 0
M  V30 2767 C 254.899 2.55071 1.08783 0
M  V30 2768 H 257.85 1.5784 0.164948 0
M  V30 2769 H 257.871 2.76553 2.61341 0
M  V30 2770 H 257.383 3.73186 1.06554 0
M  V30 2771 H 255.484 2.20619 3.00263 0
M  V30 2772 H 255.597 4.04096 2.57377 0
M  V30 2773 H 253.961 2.09473 1.4489 0
M  V30 2774 H 254.744 3.40785 0.414807 0
M  V30 2775 N 257.189 -0.644168 1.43834 0
M  V30 2776 C 258.436 -1.40395 1.4593 0
M  V30 2777 C 258.764 -1.94305 0.0869658 0
M  V30 2778 O 258.019 -1.73288 -0.909378 0
M  V30 2779 C 258.318 -2.59615 2.45631 0
M  V30 2780 C 257.984 -2.2407 3.91284 0
M  V30 2781 C 256.646 -2.14089 4.30952 0
M  V30 2782 C 258.998 -1.95775 4.83034 0
M  V30 2783 C 256.326 -1.73981 5.6031 0
M  V30 2784 C 258.678 -1.57163 6.12766 0
M  V30 2785 C 257.342 -1.45713 6.51402 0
M  V30 2786 H 256.612 -0.513741 0.533995 0
M  V30 2787 H 259.259 -0.731724 1.76969 0
M  V30 2788 H 257.564 -3.32011 2.08028 0
M  V30 2789 H 259.261 -3.17834 2.44504 0
M  V30 2790 H 255.851 -2.32753 3.59895 0
M  V30 2791 H 260.035 -2.02403 4.53152 0
M  V30 2792 H 255.291 -1.63709 5.89075 0
M  V30 2793 H 259.465 -1.34303 6.83327 0
M  V30 2794 H 257.092 -1.14406 7.51542 0
M  V30 2795 N 258.668 -1.30515 -0.883378 0
M  V30 2796 C 259.598 -1.19607 -2.00541 0
M  V30 2797 C 260.579 -0.086346 -1.69881 0
M  V30 2798 O 261.764 -0.268654 -1.92333 0
M  V30 2799 C 258.894 -0.888758 -3.35736 0
M  V30 2800 C 257.848 -1.95659 -3.8066 0
M  V30 2801 C 257.174 -1.50224 -5.13164 0
M  V30 2802 C 258.474 -3.36788 -3.99213 0
M  V30 2803 H 260.168 -2.13476 -2.09925 0
M  V30 2804 H 257.714 -1.02775 -1.00863 0
M  V30 2805 H 259.667 -0.799094 -4.13754 0
M  V30 2806 H 258.391 0.0856125 -3.26488 0
M  V30 2807 H 257.05 -2.03591 -3.04871 0
M  V30 2808 H 256.698 -0.516092 -5.00345 0
M  V30 2809 H 256.398 -2.2165 -5.44192 0
M  V30 2810 H 257.922 -1.42639 -5.93706 0
M  V30 2811 H 259.336 -3.31605 -4.67665 0
M  V30 2812 H 257.733 -4.06314 -4.41621 0
M  V30 2813 H 258.803 -3.78561 -3.03017 0
M  V30 2814 N 260.146 1.09593 -1.13257 0
M  V30 2815 C 261.079 2.15451 -0.752061 0
M  V30 2816 C 262.057 1.60493 0.260913 0
M  V30 2817 O 263.241 1.8788 0.152819 0
M  V30 2818 C 260.368 3.38506 -0.114594 0
M  V30 2819 C 259.414 4.12183 -1.09579 0
M  V30 2820 S 260.247 4.6661 -2.62745 0
M  V30 2821 C 261.403 5.92966 -2.00354 0
M  V30 2822 H 261.636 2.47395 -1.64872 0
M  V30 2823 H 259.169 1.21515 -0.952545 0
M  V30 2824 H 261.127 4.09757 0.246808 0
M  V30 2825 H 259.788 3.04784 0.759309 0
M  V30 2826 H 258.981 5.00445 -0.597545 0
M  V30 2827 H 258.583 3.46785 -1.40057 0
M  V30 2828 H 260.875 6.63882 -1.35156 0
M  V30 2829 H 261.818 6.47467 -2.86691 0
M  V30 2830 H 262.226 5.45405 -1.4558 0
M  V30 2831 N 261.624 0.925811 1.2754 0
M  V30 2832 C 262.901 0.483726 1.89524 0
M  V30 2833 C 263.281 -1.03809 1.83812 0
M  V30 2834 O 262.629 -1.89143 1.28207 0
M  V30 2835 C 262.839 1.02769 3.33526 0
M  V30 2836 C 264.187 1.08703 4.10449 0
M  V30 2837 O 265.211 0.977175 3.42534 0
M  V30 2838 O 264.07 1.25599 5.31871 0
M  V30 2839 H 261.164 0.15529 0.812289 0
M  V30 2840 H 263.71 1.01738 1.35822 0
M  V30 2841 H 262.482 2.07155 3.31967 0
M  V30 2842 H 262.105 0.475567 3.94746 0
M  V30 2843 N 263.102 -1.41638 0.69111 0
M  V30 2844 C 264.032 -2.3347 0.037248 0
M  V30 2845 C 265.013 -1.51575 -0.771947 0
M  V30 2846 O 266.198 -1.80126 -0.72582 0
M  V30 2847 C 263.328 -3.35354 -0.903064 0
M  V30 2848 C 262.282 -4.27526 -0.201288 0
M  V30 2849 C 261.608 -5.19747 -1.25565 0
M  V30 2850 C 262.908 -5.13959 0.929689 0
M  V30 2851 H 264.602 -2.88397 0.804227 0
M  V30 2852 H 262.148 -1.38669 0.388189 0
M  V30 2853 H 264.101 -3.98519 -1.36969 0
M  V30 2854 H 262.825 -2.78767 -1.70166 0
M  V30 2855 H 261.484 -3.65779 0.245265 0
M  V30 2856 H 261.132 -4.59479 -2.04666 0
M  V30 2857 H 260.832 -5.8225 -0.791128 0
M  V30 2858 H 262.356 -5.85789 -1.72288 0
M  V30 2859 H 263.77 -5.70718 0.543546 0
M  V30 2860 H 262.167 -5.85379 1.32103 0
M  V30 2861 H 263.237 -4.51389 1.77133 0
M  V30 2862 N 264.58 -0.43555 -1.51462 0
M  V30 2863 C 265.49 0.383001 -2.31453 0
M  V30 2864 C 266.506 1.02931 -1.4029 0
M  V30 2865 O 267.682 1.02507 -1.73362 0
M  V30 2866 C 264.747 1.47043 -3.13973 0
M  V30 2867 C 263.808 0.844433 -4.20913 0
M  V30 2868 C 263.041 1.88004 -4.9949 0
M  V30 2869 O 263.264 3.10199 -4.78678 0
M  V30 2870 O 262.198 1.47157 -5.83634 0
M  V30 2871 H 266.024 -0.269964 -3.02498 0
M  V30 2872 H 263.609 -0.19813 -1.4808 0
M  V30 2873 H 265.491 2.10113 -3.65281 0
M  V30 2874 H 264.166 2.10751 -2.45695 0
M  V30 2875 H 263.073 0.175729 -3.73687 0
M  V30 2876 H 264.406 0.250869 -4.9156 0
M  V30 2877 N 266.058 1.56714 -0.166846 0
M  V30 2878 C 267.306 1.96358 0.478305 0
M  V30 2879 C 267.627 1.0537 1.6408 0
M  V30 2880 O 266.897 0.119154 1.95537 0
M  V30 2881 H 265.477 0.725065 0.179692 0
M  V30 2882 H 268.139 1.93329 -0.246985 0
M  V30 2883 H 267.235 3.00547 0.841292 0
M  V30 2884 N 267.536 -0.106894 1.57237 0
M  V30 2885 C 268.483 -1.13049 2.01217 0
M  V30 2886 C 269.453 -1.40471 0.886403 0
M  V30 2887 O 270.638 -1.52133 1.15153 0
M  V30 2888 C 267.778 -2.4487 2.43172 0
M  V30 2889 C 266.891 -2.24281 3.69218 0
M  V30 2890 C 266.026 -3.49417 4.00101 0
M  V30 2891 C 265.065 -3.24038 5.19294 0
M  V30 2892 N 264.202 -4.41409 5.45988 0
M  V30 2893 H 269.042 -0.748456 2.88448 0
M  V30 2894 H 266.579 -0.358054 1.42676 0
M  V30 2895 H 268.537 -3.21786 2.65537 0
M  V30 2896 H 267.167 -2.80944 1.58967 0
M  V30 2897 H 266.219 -1.38224 3.54398 0
M  V30 2898 H 267.531 -2.01512 4.56283 0
M  V30 2899 H 266.685 -4.34746 4.2318 0
M  V30 2900 H 265.424 -3.75229 3.11535 0
M  V30 2901 H 264.429 -2.37102 4.96047 0
M  V30 2902 H 265.654 -2.99584 6.09447 0
M  V30 2903 H 263.6 -4.67319 4.60379 0
M  V30 2904 H 263.517 -4.21788 6.274 0
M  V30 2905 H 264.785 -5.27836 5.73593 0
M  V30 2906 N 269.014 -1.53014 -0.377408 0
M  V30 2907 C 269.946 -1.74884 -1.48149 0
M  V30 2908 C 270.959 -0.629433 -1.5014 0
M  V30 2909 O 272.148 -0.905416 -1.53833 0
M  V30 2910 C 269.248 -1.80299 -2.86959 0
M  V30 2911 C 268.421 -3.09776 -3.08801 0
M  V30 2912 C 267.48 -3.06586 -4.27658 0
M  V30 2913 O 266.506 -3.80419 -4.23403 0
M  V30 2914 N 267.708 -2.26578 -5.34455 0
M  V30 2915 H 270.473 -2.70147 -1.29771 0
M  V30 2916 H 268.034 -1.51646 -0.56703 0
M  V30 2917 H 270.026 -1.75657 -3.64591 0
M  V30 2918 H 268.596 -0.92372 -2.98641 0
M  V30 2919 H 267.816 -3.27815 -2.18931 0
M  V30 2920 H 269.104 -3.95366 -3.20255 0
M  V30 2921 H 268.502 -1.66081 -5.40771 0
M  V30 2922 H 267.059 -2.27766 -6.10709 0
M  V30 2923 N 270.492 0.636531 -1.44174 0
M  V30 2924 C 271.74 1.39343 -1.46383 0
M  V30 2925 C 272.061 1.94766 -0.0955715 0
M  V30 2926 O 271.331 1.75452 0.871395 0
M  V30 2927 H 269.911 0.517199 -0.538994 0
M  V30 2928 H 272.573 0.74957 -1.7991 0
M  V30 2929 H 271.669 2.22746 -2.18611 0
M  V30 2930 N 271.97 1.30982 0.876444 0
M  V30 2931 C 272.918 1.18006 2.00443 0
M  V30 2932 C 273.912 0.0898871 1.69161 0
M  V30 2933 O 275.118 0.251333 1.78237 0
M  V30 2934 H 271.493 0.365196 0.65737 0
M  V30 2935 H 273.464 2.13453 2.0852 0
M  V30 2936 C 272.213 0.897521 3.35916 0
M  V30 2937 H 271.536 1.7285 3.60504 0
M  V30 2938 H 272.976 0.846874 4.15456 0
M  V30 2939 C 271.435 -0.399674 3.34521 0
M  V30 2940 O 271.965 -1.41852 3.7582 0
M  V30 2941 N 270.171 -0.413893 2.87637 0
M  V30 2942 H 269.718 0.41571 2.54224 0
M  V30 2943 H 269.676 -1.28175 2.87086 0
M  V30 2944 N 273.449 -1.08991 1.13837 0
M  V30 2945 C 274.696 -1.81258 0.902882 0
M  V30 2946 C 275.024 -1.85936 -0.570803 0
M  V30 2947 O 274.279 -1.3267 -1.43865 0
M  V30 2948 C 274.578 -3.27042 1.44147 0
M  V30 2949 C 274.244 -3.4249 2.93276 0
M  V30 2950 C 272.906 -3.46414 3.33992 0
M  V30 2951 C 275.258 -3.4666 3.892 0
M  V30 2952 C 272.586 -3.52091 4.69307 0
M  V30 2953 C 274.938 -3.53872 5.24364 0
M  V30 2954 C 273.602 -3.56066 5.646 0
M  V30 2955 H 272.872 -0.663268 0.330388 0
M  V30 2956 H 275.519 -1.28368 1.42105 0
M  V30 2957 H 273.824 -3.82599 0.844097 0
M  V30 2958 H 275.521 -3.81499 1.23528 0
M  V30 2959 H 272.111 -3.40124 2.60794 0
M  V30 2960 H 276.295 -3.42865 3.58828 0
M  V30 2961 H 271.551 -3.52079 4.9985 0
M  V30 2962 H 275.725 -3.56043 5.98503 0
M  V30 2963 H 273.352 -3.60218 6.69438 0
M  V30 2964 N 274.927 -0.932562 -1.27047 0
M  V30 2965 C 275.874 -0.434072 -2.26681 0
M  V30 2966 C 276.844 0.501639 -1.58344 0
M  V30 2967 O 278.029 0.419734 -1.86126 0
M  V30 2968 C 275.169 0.30261 -3.43771 0
M  V30 2969 C 274.282 -0.667774 -4.26808 0
M  V30 2970 C 273.417 0.0892393 -5.31125 0
M  V30 2971 C 272.456 -0.873532 -6.05835 0
M  V30 2972 N 271.593 -0.148832 -7.01942 0
M  V30 2973 H 276.433 -1.28868 -2.68695 0
M  V30 2974 H 273.97 -0.646713 -1.32121 0
M  V30 2975 H 275.928 0.746092 -4.10474 0
M  V30 2976 H 274.558 1.12142 -3.02695 0
M  V30 2977 H 273.61 -1.22978 -3.59973 0
M  V30 2978 H 274.922 -1.40337 -4.78651 0
M  V30 2979 H 274.076 0.592409 -6.03801 0
M  V30 2980 H 272.815 0.85777 -4.80097 0
M  V30 2981 H 271.82 -1.38791 -5.31994 0
M  V30 2982 H 273.045 -1.64193 -6.58952 0
M  V30 2983 H 270.991 0.601365 -6.53238 0
M  V30 2984 H 270.908 -0.82391 -7.51497 0
M  V30 2985 H 272.176 0.333527 -7.78786 0
M  V30 2986 N 276.405 1.4127 -0.698611 0
M  V30 2987 C 277.353 2.32588 -0.023855 0
M  V30 2988 C 278.347 1.51128 0.765292 0
M  V30 2989 O 279.553 1.67043 0.670571 0
M  V30 2990 H 275.928 0.751918 0.0110871 0
M  V30 2991 H 277.899 2.87167 -0.811031 0
M  V30 2992 C 276.648 3.35947 0.896369 0
M  V30 2993 H 275.971 3.98684 0.298548 0
M  V30 2994 H 277.411 4.02376 1.33676 0
M  V30 2995 C 275.87 2.70076 2.01396 0
M  V30 2996 O 276.4 2.55093 3.10307 0
M  V30 2997 N 274.606 2.28724 1.79259 0
M  V30 2998 H 274.153 2.4111 0.906841 0
M  V30 2999 H 274.111 1.84986 2.54219 0
M  V30 3000 N 277.883 0.443576 1.51229 0
M  V30 3001 C 278.813 -0.355142 2.30783 0
M  V30 3002 C 279.794 -1.0154 1.36468 0
M  V30 3003 O 280.979 -1.01785 1.65389 0
M  V30 3004 C 278.109 -1.45312 3.15439 0
M  V30 3005 C 277.063 -0.916002 4.18083 0
M  V30 3006 C 276.389 -2.1102 4.91299 0
M  V30 3007 C 277.689 0.0538602 5.22272 0
M  V30 3008 H 279.383 0.308767 2.97804 0
M  V30 3009 H 276.929 0.149937 1.43217 0
M  V30 3010 H 278.882 -2.01914 3.69876 0
M  V30 3011 H 277.606 -2.14541 2.46252 0
M  V30 3012 H 276.265 -0.372145 3.64706 0
M  V30 3013 H 275.913 -2.78882 4.18609 0
M  V30 3014 H 275.613 -1.75717 5.60712 0
M  V30 3015 H 277.137 -2.68164 5.48562 0
M  V30 3016 H 278.551 -0.422069 5.71744 0
M  V30 3017 H 276.948 0.319776 5.99247 0
M  V30 3018 H 278.018 0.98858 4.74716 0
M  V30 3019 N 279.361 -1.56624 0.175154 0
M  V30 3020 C 280.777 -1.58571 -0.180966 0
M  V30 3021 C 280.977 -1.19065 -1.6256 0
M  V30 3022 O 280.033 -0.904044 -2.35761 0
M  V30 3023 C 281.346 -3.00522 0.103326 0
M  V30 3024 C 282.894 -3.12972 0.0418426 0
M  V30 3025 C 283.369 -4.57022 0.299175 0
M  V30 3026 N 284.86 -4.62541 0.247086 0
M  V30 3027 C 285.595 -5.71857 0.420318 0
M  V30 3028 N 285.091 -6.89717 0.652816 0
M  V30 3029 N 286.884 -5.60972 0.355957 0
M  V30 3030 H 279.035 -1.80589 1.11809 0
M  V30 3031 H 281.298 -0.837178 0.444788 0
M  V30 3032 H 281.004 -3.33916 1.10422 0
M  V30 3033 H 280.878 -3.72344 -0.603299 0
M  V30 3034 H 283.265 -2.79403 -0.949636 0
M  V30 3035 H 283.346 -2.43578 0.781238 0
M  V30 3036 H 282.99 -4.913 1.28788 0
M  V30 3037 H 282.92 -5.24579 -0.460876 0
M  V30 3038 H 285.411 -3.77829 0.0731895 0
M  V30 3039 H 285.724 -7.68911 0.774347 0
M  V30 3040 H 284.069 -6.91572 0.689476 0
M  V30 3041 H 287.26 -4.67773 0.174882 0
M  V30 3042 H 287.433 -6.46111 0.494388 0
M  V30 3043 N 280.839 0.0985539 -1.57292 0
M  V30 3044 C 281.749 1.13824 -2.05137 0
M  V30 3045 C 282.765 1.44076 -0.975604 0
M  V30 3046 O 283.941 1.54786 -1.28853 0
M  V30 3047 C 281.006 2.43969 -2.46333 0
M  V30 3048 C 280.067 2.2093 -3.68087 0
M  V30 3049 C 279.3 3.44869 -4.0731 0
M  V30 3050 O 279.523 4.52972 -3.46659 0
M  V30 3051 O 278.457 3.34661 -5.00285 0
M  V30 3052 H 282.283 0.761881 -2.93988 0
M  V30 3053 H 279.868 0.310818 -1.46131 0
M  V30 3054 H 281.75 3.20609 -2.73473 0
M  V30 3055 H 280.425 2.81038 -1.60621 0
M  V30 3056 H 279.332 1.42081 -3.46069 0
M  V30 3057 H 280.665 1.88755 -4.54568 0
M  V30 3058 N 282.317 1.53212 0.369288 0
M  V30 3059 C 283.564 1.69215 1.11232 0
M  V30 3060 C 283.892 0.442048 1.8941 0
M  V30 3061 O 283.147 -0.575944 1.87033 0
M  V30 3062 C 283.446 2.89101 2.10132 0
M  V30 3063 C 283.112 4.25758 1.48463 0
M  V30 3064 C 281.774 4.6292 1.31372 0
M  V30 3065 C 284.126 5.10757 1.03811 0
M  V30 3066 C 281.454 5.82722 0.68207 0
M  V30 3067 C 283.806 6.31201 0.420487 0
M  V30 3068 C 282.47 6.67079 0.237038 0
M  V30 3069 H 281.74 0.619201 0.407027 0
M  V30 3070 H 284.387 1.87391 0.394552 0
M  V30 3071 H 282.692 2.65421 2.88199 0
M  V30 3072 H 284.389 2.98676 2.6757 0
M  V30 3073 H 280.979 3.96494 1.62758 0
M  V30 3074 H 285.163 4.82599 1.1581 0
M  V30 3075 H 280.419 6.09113 0.528316 0
M  V30 3076 H 284.593 6.96368 0.0662874 0
M  V30 3077 H 282.22 7.59774 -0.254477 0
M  V30 3078 N 283.795 -0.628877 1.44509 0
M  V30 3079 C 285.041 -1.39045 1.47629 0
M  V30 3080 C 285.374 -1.93892 0.109343 0
M  V30 3081 O 284.649 -1.7379 -0.87334 0
M  V30 3082 C 284.932 -2.55408 2.53848 0
M  V30 3083 C 284.785 -2.05896 3.99909 0
M  V30 3084 C 286.104 -3.5759 2.56549 0
M  V30 3085 H 283.223 -0.504232 0.537512 0
M  V30 3086 H 285.865 -0.710854 1.76201 0
M  V30 3087 H 284.015 -3.13384 2.29615 0
M  V30 3088 H 285.687 -1.52734 4.35282 0
M  V30 3089 H 283.93 -1.37061 4.11578 0
M  V30 3090 H 284.601 -2.89681 4.69882 0
M  V30 3091 H 287.077 -3.09419 2.78207 0
M  V30 3092 H 285.953 -4.36527 3.32769 0
M  V30 3093 H 286.214 -4.11808 1.60832 0
M  V30 3094 N 285.273 -1.31445 -0.869486 0
M  V30 3095 C 286.52 -1.21158 -1.62256 0
M  V30 3096 C 286.848 0.230155 -1.93133 0
M  V30 3097 O 286.103 1.17906 -1.56194 0
M  V30 3098 C 286.402 -2.00145 -2.96102 0
M  V30 3099 C 286.068 -3.4964 -2.84715 0
M  V30 3100 C 284.73 -3.90403 -2.81317 0
M  V30 3101 C 287.082 -4.44769 -2.71716 0
M  V30 3102 C 284.41 -5.24561 -2.62778 0
M  V30 3103 C 286.762 -5.79054 -2.54714 0
M  V30 3104 C 285.426 -6.19037 -2.49699 0
M  V30 3105 H 284.696 -0.443348 -0.593737 0
M  V30 3106 H 287.343 -1.62715 -1.00976 0
M  V30 3107 H 285.648 -1.5127 -3.6142 0
M  V30 3108 H 287.345 -1.89566 -3.53363 0
M  V30 3109 H 283.935 -3.17256 -2.88178 0
M  V30 3110 H 288.119 -4.14208 -2.73397 0
M  V30 3111 H 283.375 -5.54613 -2.57321 0
M  V30 3112 H 287.549 -6.52393 -2.43632 0
M  V30 3113 H 285.176 -7.22935 -2.35093 0
M  V30 3114 N 286.751 1.08385 -1.14413 0
M  V30 3115 C 287.698 2.15311 -0.831265 0
M  V30 3116 C 288.668 1.64751 0.211292 0
M  V30 3117 O 289.853 1.90627 0.0811674 0
M  V30 3118 C 286.993 3.43658 -0.315143 0
M  V30 3119 C 286.106 4.08064 -1.41802 0
M  V30 3120 C 285.241 5.24207 -0.859126 0
M  V30 3121 C 284.28 5.80554 -1.93967 0
M  V30 3122 N 283.417 6.88042 -1.39793 0
M  V30 3123 H 288.257 2.41415 -1.74708 0
M  V30 3124 H 285.794 1.18474 -0.871909 0
M  V30 3125 H 287.752 4.172 0.00230884 0
M  V30 3126 H 286.382 3.17839 0.56378 0
M  V30 3127 H 285.434 3.3228 -1.85187 0
M  V30 3128 H 286.746 4.45962 -2.23427 0
M  V30 3129 H 285.9 6.04689 -0.49359 0
M  V30 3130 H 284.639 4.87699 -0.011932 0
M  V30 3131 H 283.644 4.98725 -2.31415 0
M  V30 3132 H 284.869 6.19121 -2.79046 0
M  V30 3133 H 282.815 6.53493 -0.572919 0
M  V30 3134 H 282.732 7.24767 -2.15054 0
M  V30 3135 H 284 7.72255 -1.0603 0
M  V30 3136 N 288.23 0.939286 1.26551 0
M  V30 3137 C 289.178 0.43815 2.28436 0
M  V30 3138 C 290.172 -0.483587 1.62351 0
M  V30 3139 O 291.378 -0.362009 1.76322 0
M  V30 3140 H 287.753 0.123149 0.741848 0
M  V30 3141 H 289.724 1.31002 2.68106 0
M  V30 3142 C 288.473 -0.283052 3.46546 0
M  V30 3143 H 287.796 0.417043 3.97619 0
M  V30 3144 H 289.236 -0.597948 4.19763 0
M  V30 3145 C 287.695 -1.50018 3.01656 0
M  V30 3146 O 288.225 -2.59855 3.0633 0
M  V30 3147 N 286.431 -1.35608 2.57019 0
M  V30 3148 H 285.978 -0.46244 2.53415 0
M  V30 3149 H 285.936 -2.17165 2.27347 0
M  V30 3150 N 289.708 -1.40897 0.706093 0
M  V30 3151 C 290.957 -2.00284 0.238574 0
M  V30 3152 C 291.27 -1.56604 -1.17194 0
M  V30 3153 O 292.476 -2.08624 -1.73748 0
M  V30 3154 C 290.932 -3.57934 0.375623 0
M  V30 3155 C 290.54 -4.10591 1.79217 0
M  V30 3156 C 292.284 -4.24488 -0.0315857 0
M  V30 3157 C 290.191 -5.60712 1.88032 0
M  V30 3158 H 289.121 -0.749144 0.0854398 0
M  V30 3159 H 291.772 -1.61251 0.875813 0
M  V30 3160 H 290.154 -3.94622 -0.330042 0
M  V30 3161 H 291.328 -3.85301 2.52745 0
M  V30 3162 H 289.643 -3.56601 2.15 0
M  V30 3163 H 292.24 -5.34698 0.0136842 0
M  V30 3164 H 292.583 -4.02261 -1.072 0
M  V30 3165 H 293.116 -3.92873 0.624181 0
M  V30 3166 H 289.855 -5.87781 2.90161 0
M  V30 3167 H 289.375 -5.87896 1.18903 0
M  V30 3168 H 291.054 -6.25658 1.64805 0
M  V30 3169 N 291.186 -0.45159 -1.50991 0
M  V30 3170 C 292.463 0.170707 -1.94854 0
M  V30 3171 C 292.843 1.58788 -1.39103 0
M  V30 3172 O 292.191 2.20913 -0.583921 0
M  V30 3173 C 292.401 0.133929 -3.48743 0
M  V30 3174 C 293.749 0.33248 -4.23296 0
M  V30 3175 O 294.773 0.211403 -3.55572 0
M  V30 3176 O 293.632 0.57486 -5.43468 0
M  V30 3177 H 290.726 0.122264 -0.817912 0
M  V30 3178 H 293.272 -0.510594 -1.61836 0
M  V30 3179 H 292.044 -0.856283 -3.81816 0
M  V30 3180 H 291.667 0.857529 -3.88242 0
M  V30 3181 N 292.664 1.56529 -0.183458 0
M  V30 3182 C 293.912 1.96855 0.457452 0
M  V30 3183 C 294.233 1.07104 1.62953 0
M  V30 3184 O 293.503 0.139887 1.954 0
M  V30 3185 H 292.083 0.72693 0.171992 0
M  V30 3186 H 294.745 1.93056 -0.267476 0
M  V30 3187 H 293.841 3.01423 0.809368 0
M  V30 3188 N 294.142 -0.090211 1.57342 0
M  V30 3189 C 295.372 -0.805055 1.90269 0
M  V30 3190 C 295.78 -1.72561 0.775842 0
M  V30 3191 O 295.123 -1.81839 -0.260843 0
M  V30 3192 C 295.185 -1.66734 3.18497 0
M  V30 3193 C 294.849 -0.918092 4.47683 0
M  V30 3194 C 295.846 -0.245674 5.19319 0
M  V30 3195 C 293.531 -0.890724 4.94339 0
M  V30 3196 C 295.525 0.444088 6.35851 0
M  V30 3197 C 293.212 -0.197179 6.10782 0
M  V30 3198 C 294.21 0.469044 6.81388 0
M  V30 3199 O 293.898 1.15146 7.95611 0
M  V30 3200 H 293.63 -0.235143 0.633785 0
M  V30 3201 H 296.184 -0.0703805 2.05279 0
M  V30 3202 H 294.414 -2.44437 2.99646 0
M  V30 3203 H 296.103 -2.25919 3.37217 0
M  V30 3204 H 296.869 -0.258246 4.84312 0
M  V30 3205 H 292.748 -1.39873 4.39268 0
M  V30 3206 H 296.292 0.964667 6.90898 0
M  V30 3207 H 292.189 -0.18247 6.45242 0
M  V30 3208 H 292.957 1.05885 8.11622 0
M  V30 3209 N 295.62 -1.53406 -0.361157 0
M  V30 3210 C 296.867 -1.69802 -1.10333 0
M  V30 3211 C 297.195 -0.452087 -1.89173 0
M  V30 3212 O 296.45 0.566017 -1.87336 0
M  V30 3213 C 296.749 -2.90211 -2.08596 0
M  V30 3214 C 296.415 -4.26539 -1.46203 0
M  V30 3215 C 295.077 -4.6361 -1.28915 0
M  V30 3216 C 297.429 -5.113 -1.01101 0
M  V30 3217 C 294.757 -5.83075 -0.651157 0
M  V30 3218 C 297.109 -6.31415 -0.387007 0
M  V30 3219 C 295.773 -6.67195 -0.201657 0
M  V30 3220 H 295.043 -0.621351 -0.403737 0
M  V30 3221 H 297.69 -1.87598 -0.384609 0
M  V30 3222 H 295.995 -2.66946 -2.86788 0
M  V30 3223 H 297.692 -3.00091 -2.65982 0
M  V30 3224 H 294.282 -3.97352 -1.60653 0
M  V30 3225 H 298.466 -4.83206 -1.13249 0
M  V30 3226 H 293.722 -6.09385 -0.496006 0
M  V30 3227 H 297.896 -6.96394 -0.0293563 0
M  V30 3228 H 295.523 -7.59628 0.294766 0
M  V30 3229 N 297.098 0.621204 -1.44841 0
M  V30 3230 C 298.045 1.73267 -1.5247 0
M  V30 3231 C 299.015 1.6189 -0.371611 0
M  V30 3232 O 300.2 1.81668 -0.58321 0
M  V30 3233 C 297.34 3.11545 -1.48438 0
M  V30 3234 C 296.453 3.33827 -2.74196 0
M  V30 3235 C 295.588 4.62133 -2.61929 0
M  V30 3236 C 294.627 4.77627 -3.82804 0
M  V30 3237 N 293.764 5.97219 -3.69153 0
M  V30 3238 H 298.604 1.66082 -2.47428 0
M  V30 3239 H 296.141 0.810026 -1.22788 0
M  V30 3240 H 298.099 3.91528 -1.4409 0
M  V30 3241 H 296.729 3.1772 -0.570402 0
M  V30 3242 H 295.781 2.47715 -2.88689 0
M  V30 3243 H 297.093 3.41153 -3.6389 0
M  V30 3244 H 296.247 5.50291 -2.5547 0
M  V30 3245 H 294.986 4.57182 -1.69811 0
M  V30 3246 H 293.991 3.87896 -3.89637 0
M  V30 3247 H 295.216 4.84385 -4.75971 0
M  V30 3248 H 293.162 5.93339 -2.79794 0
M  V30 3249 H 293.079 6.05644 -4.52472 0
M  V30 3250 H 294.347 6.87912 -3.66603 0
M  V30 3251 N 298.576 1.31904 0.862503 0
M  V30 3252 C 299.825 1.21373 1.61094 0
M  V30 3253 C 300.138 -0.22504 1.94301 0
M  V30 3254 O 301.344 -0.452121 2.67709 0
M  V30 3255 C 299.8 2.12525 2.9045 0
M  V30 3256 C 299.408 3.61441 2.64697 0
M  V30 3257 C 301.152 2.10813 3.68454 0
M  V30 3258 C 299.059 4.44578 3.90006 0
M  V30 3259 H 297.989 0.450705 0.604468 0
M  V30 3260 H 300.64 1.56811 0.953027 0
M  V30 3261 H 299.022 1.69994 3.57656 0
M  V30 3262 H 300.196 4.12264 2.05851 0
M  V30 3263 H 298.511 3.65205 2.00036 0
M  V30 3264 H 301.108 2.70167 4.61426 0
M  V30 3265 H 301.451 1.09713 4.01583 0
M  V30 3266 H 301.984 2.51583 3.08141 0
M  V30 3267 H 298.723 5.46461 3.62023 0
M  V30 3268 H 298.243 3.98508 4.48276 0
M  V30 3269 H 299.922 4.57176 4.5782 0
M  V30 3270 N 300.054 -1.07777 1.14986 0
M  V30 3271 C 301.284 -1.83752 0.944402 0
M  V30 3272 C 301.692 -1.8218 -0.51058 0
M  V30 3273 O 301.035 -1.22852 -1.36576 0
M  V30 3274 C 301.097 -3.32128 1.37592 0
M  V30 3275 C 300.761 -3.57425 2.84775 0
M  V30 3276 C 301.758 -3.5173 3.8286 0
M  V30 3277 C 299.443 -3.8523 3.2234 0
M  V30 3278 C 301.437 -3.73482 5.16517 0
M  V30 3279 C 299.124 -4.06634 4.56171 0
M  V30 3280 C 300.122 -4.00754 5.53069 0
M  V30 3281 O 299.81 -4.2159 6.84483 0
M  V30 3282 H 299.542 -0.58673 0.335744 0
M  V30 3283 H 302.096 -1.36982 1.53052 0
M  V30 3284 H 300.326 -3.79686 0.733165 0
M  V30 3285 H 302.015 -3.89555 1.14024 0
M  V30 3286 H 302.781 -3.30256 3.55184 0
M  V30 3287 H 298.66 -3.88923 2.47508 0
M  V30 3288 H 302.204 -3.68808 5.92137 0
M  V30 3289 H 298.101 -4.27593 4.83564 0
M  V30 3290 H 298.869 -4.38961 6.90837 0
M  V30 3291 N 301.532 -0.945985 -1.26051 0
M  V30 3292 C 302.757 -0.612525 -1.98149 0
M  V30 3293 C 303.182 0.806623 -1.69927 0
M  V30 3294 O 302.54 1.54411 -0.950108 0
M  V30 3295 C 302.588 -0.866981 -3.50023 0
M  V30 3296 O 301.692 0.0585333 -4.12358 0
M  V30 3297 H 301.033 -0.23379 -0.621481 0
M  V30 3298 H 303.563 -1.27023 -1.60395 0
M  V30 3299 H 303.573 -0.789792 -4.00283 0
M  V30 3300 H 302.248 -1.90135 -3.69894 0
M  V30 3301 H 300.825 -0.0701241 -3.72834 0
M  V30 3302 N 303.011 1.40521 -0.713556 0
M  V30 3303 C 303.958 2.30723 -0.059684 0
M  V30 3304 C 304.928 1.48079 0.752448 0
M  V30 3305 O 306.113 1.76823 0.71681 0
M  V30 3306 C 303.253 3.34274 0.857594 0
M  V30 3307 C 302.366 4.31986 0.0351536 0
M  V30 3308 C 301.501 5.22605 0.951724 0
M  V30 3309 C 300.54 6.11976 0.123253 0
M  V30 3310 N 299.677 6.9502 0.99459 0
M  V30 3311 H 304.517 2.86074 -0.834596 0
M  V30 3312 H 302.054 1.40879 -0.42326 0
M  V30 3313 H 304.012 3.92879 1.40364 0
M  V30 3314 H 302.642 2.8043 1.59871 0
M  V30 3315 H 301.694 3.7518 -0.628052 0
M  V30 3316 H 303.006 4.95101 -0.606347 0
M  V30 3317 H 302.16 5.86131 1.56638 0
M  V30 3318 H 300.899 4.59759 1.62705 0
M  V30 3319 H 299.904 5.47482 -0.50435 0
M  V30 3320 H 301.129 6.76881 -0.548539 0
M  V30 3321 H 299.075 6.34764 1.6556 0
M  V30 3322 H 298.992 7.54892 0.40908 0
M  V30 3323 H 300.26 7.62997 1.59549 0
M  V30 3324 N 304.489 0.459591 1.5075 0
M  V30 3325 C 305.439 -0.358926 2.25157 0
M  V30 3326 C 306.423 -0.971285 1.28276 0
M  V30 3327 O 307.615 -0.885739 1.53244 0
M  V30 3328 C 304.744 -1.44695 3.11317 0
M  V30 3329 C 303.83 -0.842894 4.15639 0
M  V30 3330 N 304.221 0.0299373 5.05791 0
M  V30 3331 C 302.519 -1.10809 4.32015 0
M  V30 3332 C 303.22 0.371563 5.80512 0
M  V30 3333 N 302.196 -0.250409 5.43023 0
M  V30 3334 H 305.998 0.313636 2.92222 0
M  V30 3335 H 303.512 0.273021 1.60089 0
M  V30 3336 H 305.509 -2.04641 3.63218 0
M  V30 3337 H 304.169 -2.12162 2.45799 0
M  V30 3338 H 305.18 0.39797 5.16369 0
M  V30 3339 H 301.857 -1.7786 3.77719 0
M  V30 3340 H 303.247 1.08319 6.63111 0
M  V30 3341 N 305.967 -1.56429 0.191757 0
M  V30 3342 C 307.195 -2.01867 -0.453586 0
M  V30 3343 C 307.61 -1.07191 -1.5542 0
M  V30 3344 O 306.967 -0.0762108 -1.82341 0
M  V30 3345 C 307.018 -3.47017 -1.013 0
M  V30 3346 O 306.739 -4.38078 0.0437005 0
M  V30 3347 C 308.24 -4.07956 -1.73456 0
M  V30 3348 H 305.46 -0.661211 -0.114199 0
M  V30 3349 H 308.004 -2.02295 0.299483 0
M  V30 3350 H 306.159 -3.47298 -1.71647 0
M  V30 3351 H 306.573 -5.23178 -0.372212 0
M  V30 3352 H 308.047 -5.1138 -2.07833 0
M  V30 3353 H 308.524 -3.51222 -2.63704 0
M  V30 3354 H 309.13 -4.11437 -1.07702 0
M  V30 3355 N 307.445 0.0818655 -1.57387 0
M  V30 3356 C 308.856 0.634871 -1.75574 0
M  V30 3357 C 309.207 1.78435 -0.815809 0
M  V30 3358 O 308.332 2.164 0.0025366 0
M  V30 3359 C 308.927 1.15845 -3.18379 0
M  V30 3360 C 307.486 1.65741 -3.37945 0
M  V30 3361 C 306.633 0.572549 -2.71325 0
M  V30 3362 H 309.584 -0.144268 -1.58043 0
M  V30 3363 H 309.605 2.02751 -3.21982 0
M  V30 3364 H 309.117 0.321631 -3.86765 0
M  V30 3365 H 307.218 2.51781 -2.74658 0
M  V30 3366 H 307.331 1.74129 -4.46336 0
M  V30 3367 H 305.695 1.01518 -2.33594 0
M  V30 3368 H 306.478 -0.253918 -3.4236 0
M  V30 3369 N 308.923 1.53595 0.353017 0
M  V30 3370 C 310.172 1.69603 1.09168 0
M  V30 3371 C 310.485 0.460925 1.90092 0
M  V30 3372 O 311.691 0.501774 2.66823 0
M  V30 3373 C 310.147 2.99872 1.9901 0
M  V30 3374 C 309.755 4.30687 1.23339 0
M  V30 3375 C 311.499 3.25246 2.72792 0
M  V30 3376 C 309.406 5.52036 2.12156 0
M  V30 3377 H 308.336 0.631966 0.411261 0
M  V30 3378 H 310.987 1.80096 0.351802 0
M  V30 3379 H 309.369 2.83212 2.7678 0
M  V30 3380 H 310.543 4.58019 0.505456 0
M  V30 3381 H 308.858 4.11853 0.613663 0
M  V30 3382 H 311.455 4.13095 3.39495 0
M  V30 3383 H 311.798 2.41846 3.38846 0
M  V30 3384 H 312.331 3.42638 2.021 0
M  V30 3385 H 309.07 6.37951 1.50659 0
M  V30 3386 H 308.59 5.28966 2.82764 0
M  V30 3387 H 310.269 5.87313 2.71427 0
M  V30 3388 N 310.401 -0.613514 1.45168 0
M  V30 3389 C 311.349 -1.74572 1.53712 0
M  V30 3390 C 312.343 -1.64426 0.407505 0
M  V30 3391 O 313.549 -1.70291 0.583176 0
M  V30 3392 H 309.924 -0.576641 0.48269 0
M  V30 3393 H 311.895 -1.64492 2.48968 0
M  V30 3394 C 310.644 -3.12943 1.51532 0
M  V30 3395 H 309.967 -3.21407 2.37776 0
M  V30 3396 H 311.407 -3.9201 1.61569 0
M  V30 3397 C 309.866 -3.36053 0.238798 0
M  V30 3398 O 310.396 -3.95837 -0.6838 0
M  V30 3399 N 308.602 -2.9028 0.136359 0
M  V30 3400 H 308.149 -2.41811 0.887999 0
M  V30 3401 H 308.107 -3.06116 -0.716944 0
M  V30 3402 N 311.879 -1.3236 -0.855495 0
M  V30 3403 C 312.809 -1.23833 -1.97958 0
M  V30 3404 C 313.79 -0.122361 -1.69659 0
M  V30 3405 O 314.975 -0.30939 -1.9172 0
M  V30 3406 C 312.105 -0.959772 -3.33775 0
M  V30 3407 C 311.059 -2.03689 -3.76424 0
M  V30 3408 C 310.385 -1.61075 -5.09862 0
M  V30 3409 C 311.685 -3.4518 -3.9198 0
M  V30 3410 H 313.379 -2.1788 -2.0535 0
M  V30 3411 H 310.925 -1.04891 -0.986605 0
M  V30 3412 H 312.878 -0.886678 -4.11966 0
M  V30 3413 H 311.602 0.0163404 -3.26596 0
M  V30 3414 H 310.261 -2.10012 -3.00484 0
M  V30 3415 H 309.909 -0.622107 -4.99138 0
M  V30 3416 H 309.609 -2.33143 -5.39368 0
M  V30 3417 H 311.133 -1.55201 -5.90546 0
M  V30 3418 H 312.547 -3.4145 -4.60526 0
M  V30 3419 H 310.944 -4.1559 -4.32903 0
M  V30 3420 H 312.014 -3.84903 -2.94919 0
M  V30 3421 N 313.357 1.07166 -1.15556 0
M  V30 3422 C 314.603 1.80065 -0.932984 0
M  V30 3423 C 314.936 1.86586 0.53845 0
M  V30 3424 O 314.211 1.35098 1.39924 0
M  V30 3425 C 314.494 3.25022 -1.55025 0
M  V30 3426 C 314.347 3.26634 -3.09242 0
M  V30 3427 C 315.666 4.22341 -1.2376 0
M  V30 3428 H 312.785 0.653697 -0.340366 0
M  V30 3429 H 315.427 1.25389 -1.4275 0
M  V30 3430 H 313.577 3.71712 -1.12972 0
M  V30 3431 H 315.249 2.88173 -3.60214 0
M  V30 3432 H 313.492 2.65539 -3.43033 0
M  V30 3433 H 314.163 4.28854 -3.47546 0
M  V30 3434 H 316.639 3.8405 -1.60139 0
M  V30 3435 H 315.515 5.22053 -1.69564 0
M  V30 3436 H 315.776 4.41828 -0.154938 0
M  V30 3437 N 314.835 0.952656 1.25548 0
M  V30 3438 C 316.251 0.656769 1.4546 0
M  V30 3439 C 316.451 -0.78633 1.85524 0
M  V30 3440 O 315.507 -1.56183 1.98402 0
M  V30 3441 C 316.82 1.62801 2.52817 0
M  V30 3442 C 318.368 1.63897 2.66659 0
M  V30 3443 C 318.843 2.5978 3.77198 0
M  V30 3444 N 320.334 2.58133 3.84606 0
M  V30 3445 C 321.069 3.29003 4.69621 0
M  V30 3446 N 320.565 4.09339 5.58939 0
M  V30 3447 N 322.358 3.179 4.63569 0
M  V30 3448 H 314.509 1.88526 0.978344 0
M  V30 3449 H 316.772 0.810815 0.491206 0
M  V30 3450 H 316.478 2.65869 2.30232 0
M  V30 3451 H 316.352 1.38898 3.50695 0
M  V30 3452 H 318.739 0.615481 2.8861 0
M  V30 3453 H 318.82 1.91858 1.69187 0
M  V30 3454 H 318.464 3.62254 3.55997 0
M  V30 3455 H 318.394 2.29105 4.7415 0
M  V30 3456 H 320.885 1.99809 3.20757 0
M  V30 3457 H 321.198 4.6034 6.20731 0
M  V30 3458 H 319.543 4.13438 5.58654 0
M  V30 3459 H 322.734 2.54612 3.92798 0
M  V30 3460 H 322.907 3.73398 5.29602 0
M  V30 3461 N 316.313 -1.40141 0.720998 0
M  V30 3462 C 317.59 -1.94677 0.189757 0
M  V30 3463 C 317.97 -1.65879 -1.30566 0
M  V30 3464 O 317.318 -0.979391 -2.06447 0
M  V30 3465 C 317.528 -3.45279 0.508304 0
M  V30 3466 C 318.876 -4.22209 0.449934 0
M  V30 3467 O 319.9 -3.53413 0.444677 0
M  V30 3468 O 318.759 -5.44788 0.432189 0
M  V30 3469 H 315.853 -0.826459 0.0299026 0
M  V30 3470 H 318.399 -1.49719 0.7989 0
M  V30 3471 H 317.171 -3.59619 1.54239 0
M  V30 3472 H 316.794 -3.97386 -0.130525 0
M  V30 3473 N 317.792 -0.46758 -1.50504 0
M  V30 3474 C 318.722 0.318381 -2.31319 0
M  V30 3475 C 319.703 0.993564 -1.38066 0
M  V30 3476 O 320.888 0.991411 -1.66987 0
M  V30 3477 C 318.018 1.40275 -3.17711 0
M  V30 3478 C 316.972 0.849373 -4.19487 0
M  V30 3479 C 316.298 2.03177 -4.94594 0
M  V30 3480 C 317.598 -0.136942 -5.2212 0
M  V30 3481 H 319.292 -0.356106 -2.97275 0
M  V30 3482 H 316.838 -0.172703 -1.42961 0
M  V30 3483 H 318.791 1.96004 -3.73042 0
M  V30 3484 H 317.515 2.10596 -2.49634 0
M  V30 3485 H 316.174 0.314076 -3.65252 0
M  V30 3486 H 315.822 2.72187 -4.22993 0
M  V30 3487 H 315.522 1.66774 -5.63436 0
M  V30 3488 H 317.046 2.59403 -5.52759 0
M  V30 3489 H 318.46 0.331056 -5.72343 0
M  V30 3490 H 316.857 -0.41507 -5.98663 0
M  V30 3491 H 317.927 -1.06398 -4.73083 0
M  V30 3492 N 319.27 1.56325 -0.20005 0
M  V30 3493 C 320.681 1.8408 0.31167 0
M  V30 3494 C 321.032 1.12087 1.61031 0
M  V30 3495 O 320.157 0.38332 2.12978 0
M  V30 3496 C 320.752 3.33932 0.57226 0
M  V30 3497 C 319.311 3.6208 1.02834 0
M  V30 3498 C 318.458 2.77186 0.079634 0
M  V30 3499 H 321.409 1.52939 -0.423729 0
M  V30 3500 H 321.43 3.52971 1.42096 0
M  V30 3501 H 320.942 3.86303 -0.37308 0
M  V30 3502 H 319.043 3.15147 1.98778 0
M  V30 3503 H 319.156 4.7023 0.917624 0
M  V30 3504 H 317.52 2.47951 0.582448 0
M  V30 3505 H 318.303 3.32347 -0.860238 0
M  V30 3506 N 320.748 -0.0735177 1.57428 0
M  V30 3507 C 321.68 -1.11423 2.00294 0
M  V30 3508 C 322.693 -1.35084 0.908637 0
M  V30 3509 O 323.882 -1.33355 1.18654 0
M  V30 3510 C 320.982 -2.46548 2.32523 0
M  V30 3511 C 320.155 -2.42867 3.63778 0
M  V30 3512 C 319.214 -3.60087 3.83697 0
M  V30 3513 O 318.24 -3.41595 4.55304 0
M  V30 3514 N 319.442 -4.80372 3.25919 0
M  V30 3515 H 322.207 -0.749206 2.90184 0
M  V30 3516 H 319.768 -0.262195 1.59763 0
M  V30 3517 H 321.76 -3.23607 2.43024 0
M  V30 3518 H 320.33 -2.75059 1.48531 0
M  V30 3519 H 319.55 -1.51206 3.64047 0
M  V30 3520 H 320.838 -2.37506 4.49965 0
M  V30 3521 H 320.236 -4.983 2.67795 0
M  V30 3522 H 318.793 -5.54948 3.41871 0
M  V30 3523 N 322.226 -1.5378 -0.344866 0
M  V30 3524 C 323.474 -1.70625 -1.08311 0
M  V30 3525 C 323.795 -0.471447 -1.89215 0
M  V30 3526 O 323.065 0.514616 -1.8902 0
M  V30 3527 H 321.645 -0.629058 -0.402859 0
M  V30 3528 H 324.307 -1.9103 -0.386459 0
M  V30 3529 H 323.403 -2.57656 -1.76124 0
M  V30 3530 N 323.704 0.605807 -1.45491 0
M  V30 3531 C 324.951 1.36476 -1.49601 0
M  V30 3532 C 325.279 1.94007 -0.138452 0
M  V30 3533 O 324.534 1.75638 0.863114 0
M  V30 3534 C 324.833 2.53012 -2.52428 0
M  V30 3535 C 324.499 2.13617 -3.97087 0
M  V30 3536 C 323.161 2.02587 -4.36477 0
M  V30 3537 C 325.513 1.82899 -4.88055 0
M  V30 3538 C 322.841 1.59064 -5.64726 0
M  V30 3539 C 325.193 1.40861 -6.16718 0
M  V30 3540 C 323.857 1.28391 -6.55036 0
M  V30 3541 H 323.127 0.499402 -0.547429 0
M  V30 3542 H 325.774 0.684546 -1.78847 0
M  V30 3543 H 324.079 3.26379 -2.16758 0
M  V30 3544 H 325.776 3.1124 -2.52845 0
M  V30 3545 H 322.366 2.23129 -3.65939 0
M  V30 3546 H 326.55 1.90317 -4.58359 0
M  V30 3547 H 321.806 1.48034 -5.93208 0
M  V30 3548 H 325.98 1.16138 -6.86648 0
M  V30 3549 H 323.607 0.944403 -7.54311 0
M  V30 3550 N 325.182 1.32811 0.848464 0
M  V30 3551 C 326.407 1.26882 1.6406 0
M  V30 3552 C 326.832 -0.15913 1.87426 0
M  V30 3553 O 326.19 -1.11258 1.43148 0
M  V30 3554 C 326.238 2.03997 2.97351 0
M  V30 3555 O 325.342 1.39201 3.88197 0
M  V30 3556 H 324.683 0.436982 0.499943 0
M  V30 3557 H 327.213 1.75224 1.0563 0
M  V30 3558 H 327.223 2.14403 3.47124 0
M  V30 3559 H 325.898 3.0783 2.79666 0
M  V30 3560 H 324.475 1.37381 3.46671 0
M  V30 3561 N 326.66 -1.06551 1.16123 0
M  V30 3562 C 327.623 -2.12132 0.867906 0
M  V30 3563 C 328.623 -1.60224 -0.135944 0
M  V30 3564 O 329.813 -1.73943 0.0946422 0
M  V30 3565 C 326.945 -3.396 0.297419 0
M  V30 3566 H 328.138 -2.39586 1.80385 0
M  V30 3567 H 325.691 -1.22574 0.969812 0
M  V30 3568 H 326.426 -3.17794 -0.64633 0
M  V30 3569 H 326.211 -3.78581 1.02073 0
M  V30 3570 H 327.701 -4.17455 0.110052 0
M  V30 3571 N 328.138 -0.959301 -1.25041 0
M  V30 3572 C 329.068 -0.501388 -2.28053 0
M  V30 3573 C 330.049 0.454673 -1.63911 0
M  V30 3574 O 331.234 0.352618 -1.90972 0
M  V30 3575 C 328.364 0.217224 -3.4662 0
M  V30 3576 C 327.318 -0.654034 -4.22973 0
M  V30 3577 C 326.644 0.195589 -5.34342 0
M  V30 3578 C 327.944 -1.93447 -4.85155 0
M  V30 3579 H 329.638 -1.36238 -2.66608 0
M  V30 3580 H 327.184 -0.656534 -1.28163 0
M  V30 3581 H 329.137 0.548732 -4.17812 0
M  V30 3582 H 327.861 1.1125 -3.07068 0
M  V30 3583 H 326.52 -0.968693 -3.5357 0
M  V30 3584 H 326.168 1.09076 -4.91031 0
M  V30 3585 H 325.868 -0.384091 -5.86343 0
M  V30 3586 H 327.392 0.521958 -6.08365 0
M  V30 3587 H 328.806 -1.66908 -5.48466 0
M  V30 3588 H 327.203 -2.46018 -5.47353 0
M  V30 3589 H 328.273 -2.63466 -4.07079 0
M  V30 3590 N 329.616 1.39756 -0.72842 0
M  V30 3591 C 330.526 2.34444 -0.0855374 0
M  V30 3592 C 331.542 1.57976 0.729356 0
M  V30 3593 O 332.718 1.90301 0.659346 0
M  V30 3594 C 329.783 3.36965 0.815798 0
M  V30 3595 C 328.844 4.29299 -0.0105996 0
M  V30 3596 C 328.077 5.26923 0.84781 0
M  V30 3597 O 328.3 5.30859 2.08673 0
M  V30 3598 O 327.234 6.01249 0.279969 0
M  V30 3599 H 331.06 2.91065 -0.866892 0
M  V30 3600 H 328.645 1.4117 -0.48902 0
M  V30 3601 H 330.527 3.99804 1.33171 0
M  V30 3602 H 329.202 2.82739 1.57608 0
M  V30 3603 H 328.109 3.69703 -0.571877 0
M  V30 3604 H 329.442 4.86712 -0.73295 0
M  V30 3605 N 331.094 0.475555 1.50254 0
M  V30 3606 C 332.505 0.0215174 1.86688 0
M  V30 3607 C 332.856 -1.38467 1.39001 0
M  V30 3608 O 331.981 -2.02732 0.756894 0
M  V30 3609 C 332.576 0.0322715 3.38785 0
M  V30 3610 C 331.135 -0.366314 3.74613 0
M  V30 3611 C 330.282 0.415832 2.74164 0
M  V30 3612 H 333.233 0.689612 1.42934 0
M  V30 3613 H 333.254 -0.76889 3.7265 0
M  V30 3614 H 332.766 1.05584 3.73462 0
M  V30 3615 H 330.867 -1.39406 3.45538 0
M  V30 3616 H 330.98 -0.064555 4.79057 0
M  V30 3617 H 329.344 -0.131048 2.54363 0
M  V30 3618 H 330.127 1.43899 3.11686 0
M  V30 3619 N 332.573 -1.56217 0.208337 0
M  V30 3620 C 333.503 -2.22694 -0.702116 0
M  V30 3621 C 334.484 -1.19432 -1.2112 0
M  V30 3622 O 335.669 -1.47978 -1.25762 0
M  V30 3623 C 332.799 -2.8966 -1.9161 0
M  V30 3624 C 331.753 -3.9928 -1.5414 0
M  V30 3625 C 331.079 -4.53476 -2.83308 0
M  V30 3626 C 332.379 -5.17012 -0.741339 0
M  V30 3627 H 334.073 -2.99034 -0.147898 0
M  V30 3628 H 331.619 -1.43831 -0.0696951 0
M  V30 3629 H 333.572 -3.34852 -2.55836 0
M  V30 3630 H 332.296 -2.10746 -2.49507 0
M  V30 3631 H 330.955 -3.54799 -0.922668 0
M  V30 3632 H 330.603 -3.71308 -3.39322 0
M  V30 3633 H 330.303 -5.27451 -2.58976 0
M  V30 3634 H 331.827 -5.01378 -3.485 0
M  V30 3635 H 333.241 -5.58667 -1.28699 0
M  V30 3636 H 331.638 -5.97137 -0.595627 0
M  V30 3637 H 332.708 -4.8423 0.254851 0
M  V30 3638 N 334.051 0.0651679 -1.57465 0
M  V30 3639 C 335.297 0.764193 -1.87851 0
M  V30 3640 C 335.63 1.76889 -0.801495 0
M  V30 3641 O 334.905 1.93594 0.187528 0
M  V30 3642 C 335.188 1.46625 -3.28897 0
M  V30 3643 C 335.041 0.477515 -4.47258 0
M  V30 3644 C 336.36 2.4095 -3.68281 0
M  V30 3645 H 333.479 0.276351 -0.683227 0
M  V30 3646 H 336.121 0.0272868 -1.8998 0
M  V30 3647 H 334.271 2.09438 -3.27212 0
M  V30 3648 H 335.943 -0.145922 -4.61069 0
M  V30 3649 H 334.186 -0.206576 -4.33308 0
M  V30 3650 H 334.857 1.0065 -5.42746 0
M  V30 3651 H 337.333 1.88209 -3.71102 0
M  V30 3652 H 336.209 2.87072 -4.67847 0
M  V30 3653 H 336.47 3.26049 -2.98571 0
M  V30 3654 N 335.529 1.53961 0.336706 0
M  V30 3655 C 336.806 1.62171 1.09361 0
M  V30 3656 C 337.186 0.447263 2.06307 0
M  V30 3657 O 336.534 -0.559802 2.21537 0
M  V30 3658 C 336.744 2.98565 1.80721 0
M  V30 3659 C 338.092 3.54157 2.34218 0
M  V30 3660 O 339.116 3.00784 1.90807 0
M  V30 3661 O 337.975 4.47528 3.13657 0
M  V30 3662 H 335.069 0.6562 0.503319 0
M  V30 3663 H 337.615 1.66307 0.33765 0
M  V30 3664 H 336.387 3.75482 1.10132 0
M  V30 3665 H 336.01 2.9805 2.63158 0
M  V30 3666 N 337.007 -0.598083 1.45811 0
M  V30 3667 C 337.937 -1.71873 1.58057 0
M  V30 3668 C 338.918 -1.64533 0.431615 0
M  V30 3669 O 340.103 -1.82787 0.65595 0
M  V30 3670 C 337.233 -3.10495 1.55597 0
M  V30 3671 C 336.187 -3.32654 2.69305 0
M  V30 3672 C 335.513 -4.71646 2.51902 0
M  V30 3673 C 336.813 -3.21981 4.11248 0
M  V30 3674 H 338.507 -1.61881 2.51863 0
M  V30 3675 H 336.053 -0.777372 1.21214 0
M  V30 3676 H 338.006 -3.88699 1.6276 0
M  V30 3677 H 336.73 -3.2135 0.583255 0
M  V30 3678 H 335.389 -2.56843 2.61586 0
M  V30 3679 H 335.037 -4.79246 1.52748 0
M  V30 3680 H 334.737 -4.87426 3.2816 0
M  V30 3681 H 336.261 -5.52038 2.60933 0
M  V30 3682 H 337.675 -3.90049 4.20161 0
M  V30 3683 H 336.072 -3.49289 4.87972 0
M  V30 3684 H 337.142 -2.1928 4.32486 0
M  V30 3685 N 338.485 -1.33259 -0.841409 0
M  V30 3686 C 339.896 -1.22066 -1.41269 0
M  V30 3687 C 340.247 0.161479 -1.95534 0
M  V30 3688 O 339.372 1.06094 -1.88608 0
M  V30 3689 C 339.967 -2.20996 -2.568 0
M  V30 3690 C 338.526 -2.13649 -3.09888 0
M  V30 3691 C 337.673 -2.08623 -1.82679 0
M  V30 3692 H 340.624 -1.44895 -0.647395 0
M  V30 3693 H 340.645 -1.81621 -3.34356 0
M  V30 3694 H 340.157 -3.2158 -2.17274 0
M  V30 3695 H 338.258 -1.16359 -3.53965 0
M  V30 3696 H 338.371 -3.04079 -3.70234 0
M  V30 3697 H 336.735 -1.54061 -2.02824 0
M  V30 3698 H 337.518 -3.1101 -1.45353 0
M  V30 3699 N 339.963 1.05934 -1.16686 0
M  V30 3700 C 341.212 1.78188 -0.945085 0
M  V30 3701 C 341.525 1.88338 0.528021 0
M  V30 3702 O 342.731 2.57258 0.867799 0
M  V30 3703 C 341.187 3.20277 -1.64167 0
M  V30 3704 C 340.795 3.18281 -3.15279 0
M  V30 3705 C 342.539 3.97039 -1.502 0
M  V30 3706 C 340.446 4.55112 -3.7766 0
M  V30 3707 H 339.376 0.667866 -0.349959 0
M  V30 3708 H 342.027 1.18794 -1.39858 0
M  V30 3709 H 340.409 3.79952 -1.11589 0
M  V30 3710 H 341.583 2.68167 -3.74731 0
M  V30 3711 H 339.898 2.55018 -3.29173 0
M  V30 3712 H 342.495 4.98194 -1.94183 0
M  V30 3713 H 342.838 4.13845 -0.451461 0
M  V30 3714 H 343.371 3.43894 -1.99954 0
M  V30 3715 H 340.11 4.43512 -4.82677 0
M  V30 3716 H 339.63 5.05406 -3.22994 0
M  V30 3717 H 341.309 5.24064 -3.79428 0
M  V30 3718 N 341.441 0.965919 1.2453 0
M  V30 3719 C 342.689 0.625593 1.92174 0
M  V30 3720 C 343.01 -0.841652 1.75901 0
M  V30 3721 O 342.28 -1.60061 1.12948 0
M  V30 3722 H 340.86 0.228388 0.71123 0
M  V30 3723 H 343.522 1.2266 1.51461 0
M  V30 3724 H 342.618 0.864653 2.99884 0
M  V30 3725 N 342.919 -1.39368 0.735821 0
M  V30 3726 C 344.168 -1.99733 0.281004 0
M  V30 3727 C 344.481 -1.59055 -1.13846 0
M  V30 3728 O 345.687 -2.12262 -1.69284 0
M  V30 3729 C 344.143 -3.57057 0.451462 0
M  V30 3730 C 343.751 -4.06697 1.87886 0
M  V30 3731 C 345.495 -4.2446 0.0584616 0
M  V30 3732 C 343.402 -5.56598 1.99883 0
M  V30 3733 H 342.332 -0.747163 0.101311 0
M  V30 3734 H 344.983 -1.59357 0.909819 0
M  V30 3735 H 343.365 -3.95234 -0.246263 0
M  V30 3736 H 344.539 -3.79853 2.60861 0
M  V30 3737 H 342.854 -3.5196 2.22515 0
M  V30 3738 H 345.451 -5.34549 0.127099 0
M  V30 3739 H 345.794 -4.04444 -0.986433 0
M  V30 3740 H 346.327 -3.9146 0.707374 0
M  V30 3741 H 343.066 -5.81494 3.02564 0
M  V30 3742 H 342.586 -5.85242 1.31346 0
M  V30 3743 H 344.265 -6.22022 1.78039 0
M  V30 3744 N 344.397 -0.483516 -1.5 0
M  V30 3745 C 345.345 0.318061 -2.30415 0
M  V30 3746 C 346.339 0.978988 -1.38247 0
M  V30 3747 O 347.545 0.908673 -1.55381 0
M  V30 3748 H 343.92 0.121419 -0.742133 0
M  V30 3749 H 345.891 -0.380403 -2.95965 0
M  V30 3750 C 344.64 1.38013 -3.19136 0
M  V30 3751 H 343.963 0.880952 -3.89973 0
M  V30 3752 H 345.403 1.91332 -3.78375 0
M  V30 3753 C 343.862 2.38884 -2.37563 0
M  V30 3754 O 344.392 3.44412 -2.06744 0
M  V30 3755 N 342.598 2.10912 -1.99911 0
M  V30 3756 H 342.145 1.25118 -2.25174 0
M  V30 3757 H 342.103 2.78635 -1.45636 0
M  V30 3758 N 345.875 1.56104 -0.216619 0
M  V30 3759 C 347.124 1.97348 0.416744 0
M  V30 3760 C 347.437 1.10715 1.6125 0
M  V30 3761 O 348.643 1.41836 2.31506 0
M  V30 3762 C 347.099 3.51059 0.792835 0
M  V30 3763 C 346.707 4.46387 -0.379828 0
M  V30 3764 C 348.451 4.01026 1.39208 0
M  V30 3765 C 346.358 5.91397 0.0184223 0
M  V30 3766 H 345.288 0.736942 0.159475 0
M  V30 3767 H 347.939 1.80827 -0.31205 0
M  V30 3768 H 346.321 3.63162 1.57891 0
M  V30 3769 H 347.495 4.46029 -1.15737 0
M  V30 3770 H 345.81 4.06734 -0.891979 0
M  V30 3771 H 348.407 5.0686 1.70286 0
M  V30 3772 H 348.75 3.46587 2.30614 0
M  V30 3773 H 349.283 3.92125 0.669537 0
M  V30 3774 H 346.022 6.49807 -0.862002 0
M  V30 3775 H 345.542 5.94961 0.760384 0
M  V30 3776 H 347.221 6.45455 0.446818 0
M  V30 3777 N 347.353 -0.0568162 1.57498 0
M  V30 3778 C 348.581 -0.765626 1.92213 0
M  V30 3779 C 348.996 -1.70353 0.813961 0
M  V30 3780 O 348.353 -1.81268 -0.211701 0
M  V30 3781 C 348.404 -1.5465 3.2675 0
M  V30 3782 O 348.125 -0.646278 4.33307 0
M  V30 3783 C 349.626 -2.35497 3.75574 0
M  V30 3784 H 346.846 -0.216835 0.634999 0
M  V30 3785 H 349.39 -0.0226146 2.04487 0
M  V30 3786 H 347.545 -2.24165 3.15957 0
M  V30 3787 H 347.959 -1.19093 5.108 0
M  V30 3788 H 349.433 -2.85722 4.72299 0
M  V30 3789 H 349.91 -3.15692 3.05344 0
M  V30 3790 H 350.516 -1.7111 3.8936 0
M  V30 3791 N 348.832 -1.54138 -0.328536 0
M  V30 3792 C 350.248 -1.44736 -0.672574 0
M  V30 3793 C 350.448 -0.616217 -1.91846 0
M  V30 3794 O 349.504 -0.113067 -2.52247 0
M  V30 3795 C 350.817 -2.884 -0.851217 0
M  V30 3796 C 352.365 -2.98271 -0.948877 0
M  V30 3797 C 352.84 -4.43074 -1.15973 0
M  V30 3798 N 354.331 -4.46665 -1.22658 0
M  V30 3799 C 355.066 -5.55857 -1.40751 0
M  V30 3800 N 354.562 -6.75026 -1.5592 0
M  V30 3801 N 356.355 -5.43495 -1.4342 0
M  V30 3802 H 348.506 -2.06661 0.490421 0
M  V30 3803 H 350.769 -0.934812 0.157579 0
M  V30 3804 H 350.475 -3.51699 -0.00704236 0
M  V30 3805 H 350.349 -3.34225 -1.74853 0
M  V30 3806 H 352.736 -2.35102 -1.78356 0
M  V30 3807 H 352.817 -2.55785 -0.0281435 0
M  V30 3808 H 352.461 -5.06827 -0.329915 0
M  V30 3809 H 352.391 -4.83165 -2.09426 0
M  V30 3810 H 354.882 -3.60797 -1.124 0
M  V30 3811 H 355.195 -7.54004 -1.69404 0
M  V30 3812 H 353.54 -6.77944 -1.53027 0
M  V30 3813 H 356.731 -4.49349 -1.31162 0
M  V30 3814 H 356.904 -6.28649 -1.57178 0
M  V30 3815 N 350.31 0.590341 -1.46126 0
M  V30 3816 C 351.557 1.34882 -1.5104 0
M  V30 3817 C 351.885 1.93849 -0.159021 0
M  V30 3818 O 351.14 1.76544 0.844436 0
M  V30 3819 C 351.439 2.5032 -2.55097 0
M  V30 3820 C 351.105 2.09394 -3.99331 0
M  V30 3821 C 349.767 1.97947 -4.38601 0
M  V30 3822 C 352.119 1.77712 -4.89967 0
M  V30 3823 C 349.447 1.53065 -5.66381 0
M  V30 3824 C 351.799 1.34312 -6.18177 0
M  V30 3825 C 350.463 1.21436 -6.56361 0
M  V30 3826 H 349.733 0.493568 -0.552695 0
M  V30 3827 H 352.38 0.665539 -1.79563 0
M  V30 3828 H 350.685 3.24062 -2.20207 0
M  V30 3829 H 352.382 3.08541 -2.56132 0
M  V30 3830 H 348.972 2.19235 -3.68285 0
M  V30 3831 H 353.156 1.85445 -4.60352 0
M  V30 3832 H 348.412 1.41733 -5.94745 0
M  V30 3833 H 352.586 1.08849 -6.87841 0
M  V30 3834 H 350.213 0.864345 -7.5527 0
M  V30 3835 N 351.788 1.33704 0.83433 0
M  V30 3836 C 352.72 1.20172 1.9517 0
M  V30 3837 C 353.733 0.131572 1.62267 0
M  V30 3838 O 354.922 0.382406 1.74356 0
M  V30 3839 C 352.022 0.821716 3.28787 0
M  V30 3840 C 351.195 1.98446 3.89792 0
M  V30 3841 C 350.254 1.58469 5.01771 0
M  V30 3842 O 349.28 2.29968 5.20676 0
M  V30 3843 N 350.482 0.492291 5.78409 0
M  V30 3844 H 353.247 2.16429 2.07313 0
M  V30 3845 H 350.808 1.26509 1.0103 0
M  V30 3846 H 352.8 0.536291 4.01131 0
M  V30 3847 H 351.37 -0.0503058 3.1256 0
M  V30 3848 H 350.59 2.43526 3.09982 0
M  V30 3849 H 351.878 2.76236 4.27283 0
M  V30 3850 H 351.276 -0.102349 5.65607 0
M  V30 3851 H 349.833 0.266555 6.51255 0
M  V30 3852 N 353.266 -1.05314 1.17247 0
M  V30 3853 C 354.494 -1.81971 0.984593 0
M  V30 3854 C 354.909 -1.82929 -0.467166 0
M  V30 3855 O 354.266 -1.25564 -1.32438 0
M  V30 3856 C 354.317 -3.28143 1.51672 0
M  V30 3857 O 354.038 -3.27347 2.91163 0
M  V30 3858 C 355.539 -4.21493 1.37326 0
M  V30 3859 H 352.759 -0.573455 0.348411 0
M  V30 3860 H 355.303 -1.32808 1.55506 0
M  V30 3861 H 353.458 -3.74582 0.988302 0
M  V30 3862 H 353.872 -4.18824 3.15732 0
M  V30 3863 H 355.346 -5.22043 1.79375 0
M  V30 3864 H 355.823 -4.38031 0.320169 0
M  V30 3865 H 356.429 -3.80909 1.89178 0
M  V30 3866 N 354.744 -0.972509 -1.24016 0
M  V30 3867 C 355.674 -0.525548 -2.27509 0
M  V30 3868 C 356.655 0.437262 -1.64384 0
M  V30 3869 O 357.84 0.332343 -1.91335 0
M  V30 3870 C 354.97 0.180448 -3.46831 0
M  V30 3871 C 353.924 -0.698859 -4.22256 0
M  V30 3872 C 353.25 0.138903 -5.3452 0
M  V30 3873 C 354.55 -1.98582 -4.83076 0
M  V30 3874 H 356.244 -1.39058 -2.65148 0
M  V30 3875 H 353.79 -0.67009 -1.27459 0
M  V30 3876 H 355.743 0.504387 -4.18371 0
M  V30 3877 H 354.467 1.07987 -3.08231 0
M  V30 3878 H 353.126 -1.00614 -3.52523 0
M  V30 3879 H 352.774 1.03862 -4.9216 0
M  V30 3880 H 352.474 -0.446259 -5.85903 0
M  V30 3881 H 353.998 0.457404 -6.08884 0
M  V30 3882 H 355.412 -1.72715 -5.46665 0
M  V30 3883 H 353.809 -2.5181 -5.44713 0
M  V30 3884 H 354.879 -2.67769 -4.04262 0
M  V30 3885 N 356.222 1.38976 -0.743202 0
M  V30 3886 C 357.152 2.33171 -0.123873 0
M  V30 3887 C 358.133 1.54336 0.71516 0
M  V30 3888 O 359.318 1.82696 0.658467 0
M  V30 3889 C 356.448 3.38474 0.777978 0
M  V30 3890 C 355.402 4.27979 0.0424758 0
M  V30 3891 C 354.728 5.2405 1.06189 0
M  V30 3892 C 356.028 5.10155 -1.1198 0
M  V30 3893 H 357.722 2.85213 -0.910709 0
M  V30 3894 H 355.268 1.37133 -0.439388 0
M  V30 3895 H 357.221 4.03328 1.22084 0
M  V30 3896 H 355.945 2.84891 1.59702 0
M  V30 3897 H 354.604 3.64616 -0.380853 0
M  V30 3898 H 354.252 4.66758 1.87472 0
M  V30 3899 H 353.952 5.84785 0.574485 0
M  V30 3900 H 355.476 5.9178 1.50428 0
M  V30 3901 H 356.89 5.68307 -0.75499 0
M  V30 3902 H 355.287 5.80073 -1.53738 0
M  V30 3903 H 356.357 4.44504 -1.93764 0
M  V30 3904 N 357.7 0.491464 1.49741 0
M  V30 3905 C 358.663 -0.280906 2.27472 0
M  V30 3906 C 359.663 -0.902454 1.33088 0
M  V30 3907 O 360.853 -0.768465 1.56334 0
M  V30 3908 C 357.985 -1.40209 3.10732 0
M  V30 3909 H 359.178 0.401056 2.97206 0
M  V30 3910 H 356.731 0.246131 1.5435 0
M  V30 3911 H 357.466 -2.11849 2.45541 0
M  V30 3912 H 357.251 -0.961969 3.80117 0
M  V30 3913 H 358.741 -1.9464 3.69466 0
M  V30 3914 N 359.178 -1.55987 0.224894 0
M  V30 3915 C 360.108 -2.23426 -0.678457 0
M  V30 3916 C 361.089 -1.20709 -1.19847 0
M  V30 3917 O 362.274 -1.49304 -1.24186 0
M  V30 3918 C 359.404 -2.91676 -1.88527 0
M  V30 3919 C 358.358 -4.00893 -1.49896 0
M  V30 3920 C 357.684 -4.56455 -2.78483 0
M  V30 3921 C 358.984 -5.17769 -0.686461 0
M  V30 3922 H 360.678 -2.99175 -0.116173 0
M  V30 3923 H 358.224 -1.43897 -0.054436 0
M  V30 3924 H 360.177 -3.37547 -2.5227 0
M  V30 3925 H 358.901 -2.1338 -2.47258 0
M  V30 3926 H 357.56 -3.55758 -0.884985 0
M  V30 3927 H 357.208 -3.74886 -3.35365 0
M  V30 3928 H 356.908 -5.30169 -2.53368 0
M  V30 3929 H 358.432 -5.05047 -3.43162 0
M  V30 3930 H 359.846 -5.60001 -1.22767 0
M  V30 3931 H 358.243 -5.97735 -0.532259 0
M  V30 3932 H 359.313 -4.83932 0.306196 0
M  V30 3933 N 360.656 0.0484629 -1.57525 0
M  V30 3934 C 361.606 1.06246 -2.01732 0
M  V30 3935 C 362.59 1.33155 -0.903245 0
M  V30 3936 O 363.782 1.33065 -1.16717 0
M  V30 3937 C 360.911 2.36943 -2.48421 0
M  V30 3938 C 359.997 2.13208 -3.6661 0
M  V30 3939 N 360.388 1.5947 -4.80003 0
M  V30 3940 C 358.686 2.43581 -3.7361 0
M  V30 3941 C 359.387 1.51092 -5.61735 0
M  V30 3942 N 358.363 1.9797 -5.0627 0
M  V30 3943 H 362.165 0.640675 -2.86832 0
M  V30 3944 H 359.679 0.255134 -1.60383 0
M  V30 3945 H 361.676 3.10374 -2.78341 0
M  V30 3946 H 360.336 2.79818 -1.64718 0
M  V30 3947 H 361.347 1.28008 -5.01831 0
M  V30 3948 H 358.024 2.89662 -3.00669 0
M  V30 3949 H 359.414 1.10199 -6.62801 0
M  V30 3950 N 362.134 1.5431 0.320358 0
M  V30 3951 C 363.55 1.45091 0.664889 0
M  V30 3952 C 363.75 0.626382 1.91517 0
M  V30 3953 O 362.806 0.126443 2.52183 0
M  V30 3954 C 364.119 2.88848 0.83591 0
M  V30 3955 C 365.667 2.9877 0.933046 0
M  V30 3956 C 366.142 4.43683 1.13621 0
M  V30 3957 N 367.633 4.47309 1.20287 0
M  V30 3958 C 368.368 5.56595 1.37801 0
M  V30 3959 N 367.864 6.75844 1.52338 0
M  V30 3960 N 369.657 5.44248 1.40535 0
M  V30 3961 H 361.808 2.06398 -0.501374 0
M  V30 3962 H 364.071 0.933963 -0.162534 0
M  V30 3963 H 363.777 3.51698 -0.0116092 0
M  V30 3964 H 363.651 3.35148 1.73078 0
M  V30 3965 H 366.038 2.36045 1.77107 0
M  V30 3966 H 366.119 2.55796 0.0145782 0
M  V30 3967 H 365.763 5.06995 0.303032 0
M  V30 3968 H 365.693 4.84269 2.0686 0
M  V30 3969 H 368.184 3.61388 1.10485 0
M  V30 3970 H 368.497 7.54892 1.65403 0
M  V30 3971 H 366.842 6.78746 1.4943 0
M  V30 3972 H 370.033 4.50038 1.28777 0
M  V30 3973 H 370.206 6.29473 1.53842 0
M  V30 3974 N 363.613 -0.582584 1.46437 0
M  V30 3975 C 364.838 -1.37168 1.55563 0
M  V30 3976 C 365.263 -1.87061 0.19743 0
M  V30 3977 O 364.621 -1.61572 -0.822451 0
M  V30 3978 C 364.669 -2.53511 2.56446 0
M  V30 3979 O 363.773 -3.54953 2.09958 0
M  V30 3980 H 363.114 -0.408494 0.523477 0
M  V30 3981 H 365.644 -0.706646 1.9201 0
M  V30 3982 H 365.654 -3.00426 2.76058 0
M  V30 3983 H 364.329 -2.16549 3.55076 0
M  V30 3984 H 362.906 -3.14516 2.00334 0
M  V30 3985 N 365.091 -1.34144 -0.827227 0
M  V30 3986 C 366.321 -1.29138 -1.61267 0
M  V30 3987 C 366.729 0.137597 -1.88699 0
M  V30 3988 O 366.072 1.09379 -1.47587 0
M  V30 3989 C 366.134 -2.0097 -2.9808 0
M  V30 3990 C 365.798 -3.50242 -2.93563 0
M  V30 3991 C 366.795 -4.4523 -2.68452 0
M  V30 3992 C 364.48 -3.92592 -3.13331 0
M  V30 3993 C 366.474 -5.80542 -2.63154 0
M  V30 3994 C 364.161 -5.28005 -3.07658 0
M  V30 3995 C 365.159 -6.21792 -2.82602 0
M  V30 3996 O 364.847 -7.54723 -2.76853 0
M  V30 3997 H 364.579 -0.445851 -0.508127 0
M  V30 3998 H 367.133 -1.77263 -1.03763 0
M  V30 3999 H 365.363 -1.47451 -3.57484 0
M  V30 4000 H 367.052 -1.89309 -3.5905 0
M  V30 4001 H 367.818 -4.13832 -2.52919 0
M  V30 4002 H 363.697 -3.19994 -3.31851 0
M  V30 4003 H 367.241 -6.53717 -2.43516 0
M  V30 4004 H 363.138 -5.59023 -3.22743 0
M  V30 4005 H 363.906 -7.64409 -2.92611 0
M  V30 4006 N 366.569 1.04691 -1.17803 0
M  V30 4007 C 367.499 2.14494 -0.92275 0
M  V30 4008 C 368.48 1.69546 0.137179 0
M  V30 4009 O 369.665 1.94195 -0.0141108 0
M  V30 4010 C 366.795 3.44491 -0.440803 0
M  V30 4011 C 365.749 4.03031 -1.4405 0
M  V30 4012 C 365.075 5.28432 -0.81631 0
M  V30 4013 C 366.375 4.39932 -2.81527 0
M  V30 4014 H 368.069 2.36107 -1.84103 0
M  V30 4015 H 365.615 1.1347 -0.886599 0
M  V30 4016 H 367.568 4.2066 -0.249602 0
M  V30 4017 H 366.292 3.22546 0.513025 0
M  V30 4018 H 364.951 3.28937 -1.61853 0
M  V30 4019 H 364.599 5.02792 0.144511 0
M  V30 4020 H 364.299 5.68559 -1.48371 0
M  V30 4021 H 365.823 6.07284 -0.635496 0
M  V30 4022 H 367.237 5.07113 -2.67412 0
M  V30 4023 H 365.634 4.9109 -3.44892 0
M  V30 4024 H 366.704 3.50045 -3.35554 0
M  V30 4025 N 368.047 0.979072 1.23499 0
M  V30 4026 C 369.275 0.665202 1.95915 0
M  V30 4027 C 369.69 -0.767571 1.72493 0
M  V30 4028 O 369.047 -1.51635 1.01554 0
M  V30 4029 C 369.098 0.944438 3.48945 0
M  V30 4030 O 368.819 2.3209 3.71572 0
M  V30 4031 C 370.32 0.646336 4.38563 0
M  V30 4032 H 367.54 0.247218 0.623798 0
M  V30 4033 H 370.084 1.31009 1.57025 0
M  V30 4034 H 368.239 0.345575 3.85856 0
M  V30 4035 H 368.653 2.40957 4.65876 0
M  V30 4036 H 370.127 0.892091 5.44744 0
M  V30 4037 H 370.604 -0.419575 4.37191 0
M  V30 4038 H 371.21 1.22562 4.07258 0
M  V30 4039 N 369.525 -1.3858 0.750561 0
M  V30 4040 C 370.936 -1.82927 0.373438 0
M  V30 4041 C 371.287 -1.62634 -1.09748 0
M  V30 4042 O 370.412 -1.12588 -1.84805 0
M  V30 4043 C 371.007 -3.32088 0.671029 0
M  V30 4044 C 369.566 -3.74795 0.34722 0
M  V30 4045 C 368.713 -2.61391 0.92575 0
M  V30 4046 H 371.664 -1.27351 0.946958 0
M  V30 4047 H 371.685 -3.80465 -0.0518269 0
M  V30 4048 H 371.197 -3.46826 1.74164 0
M  V30 4049 H 369.298 -3.65638 -0.716933 0
M  V30 4050 H 369.411 -4.71667 0.840656 0
M  V30 4051 H 367.775 -2.52265 0.351327 0
M  V30 4052 H 368.558 -2.78929 2.00133 0
M  V30 4053 N 371.003 -0.499398 -1.49478 0
M  V30 4054 C 372.251 0.0455996 -2.02049 0
M  V30 4055 C 372.572 1.37633 -1.38138 0
M  V30 4056 O 371.842 1.8842 -0.536166 0
M  V30 4057 H 370.422 0.0198416 -0.746736 0
M  V30 4058 H 373.084 -0.656274 -1.83519 0
M  V30 4059 H 372.18 0.176445 -3.11601 0
M  V30 4060 N 372.481 1.55866 -0.233164 0
M  V30 4061 C 373.758 1.90471 0.444988 0
M  V30 4062 C 374.138 1.15209 1.7689 0
M  V30 4063 O 373.486 0.265119 2.26957 0
M  V30 4064 C 373.696 3.4333 0.626559 0
M  V30 4065 C 375.044 4.14319 0.92871 0
M  V30 4066 O 376.068 3.48993 0.712926 0
M  V30 4067 O 374.927 5.29846 1.33887 0
M  V30 4068 H 372.021 0.792347 0.236885 0
M  V30 4069 H 374.567 1.67437 -0.276211 0
M  V30 4070 H 373.339 3.90095 -0.306822 0
M  V30 4071 H 372.962 3.72181 1.39881 0
M  V30 4072 N 373.959 -0.0401083 1.57549 0
M  V30 4073 C 375.184 -0.748931 1.93406 0
M  V30 4074 C 375.609 -1.68686 0.832274 0
M  V30 4075 O 374.967 -1.80047 -0.212818 0
M  V30 4076 C 375.015 -1.4916 3.28304 0
M  V30 4077 O 374.119 -2.6042 3.19774 0
M  V30 4078 H 373.46 -0.202212 0.63246 0
M  V30 4079 H 375.99 0.00112086 2.046 0
M  V30 4080 H 376 -1.86395 3.62934 0
M  V30 4081 H 374.675 -0.80364 4.08062 0
M  V30 4082 H 373.252 -2.25808 2.96758 0
M  V30 4083 N 375.437 -1.54477 -0.31217 0
M  V30 4084 C 376.662 -1.77526 -1.07235 0
M  V30 4085 C 377.087 -0.527775 -1.80544 0
M  V30 4086 O 376.445 0.52121 -1.73646 0
M  V30 4087 C 376.493 -2.97535 -2.03728 0
M  V30 4088 O 375.597 -2.69878 -3.11833 0
M  V30 4089 H 374.938 -0.58792 -0.30862 0
M  V30 4090 H 377.468 -2.01532 -0.352993 0
M  V30 4091 H 377.478 -3.25198 -2.46395 0
M  V30 4092 H 376.153 -3.87996 -1.49774 0
M  V30 4093 H 374.73 -2.53199 -2.7376 0
M  V30 4094 N 376.915 0.57481 -1.46744 0
M  V30 4095 C 378.14 1.36341 -1.56288 0
M  V30 4096 C 378.565 1.86954 -0.207347 0
M  V30 4097 O 377.923 1.62006 0.813871 0
M  V30 4098 C 377.971 2.52147 -2.57787 0
M  V30 4099 O 377.075 3.53834 -2.11838 0
M  V30 4100 H 376.416 0.405713 -0.525636 0
M  V30 4101 H 378.946 0.696453 -1.92382 0
M  V30 4102 H 378.956 2.98958 -2.77648 0
M  V30 4103 H 377.631 2.14663 -3.5622 0
M  V30 4104 H 376.208 3.1345 -2.01999 0
M  V30 4105 N 378.394 1.34581 0.820102 0
M  V30 4106 C 379.642 1.26845 1.57336 0
M  V30 4107 C 379.963 -0.160667 1.94337 0
M  V30 4108 O 379.233 -1.09396 1.6251 0
M  V30 4109 H 377.813 0.466514 0.583415 0
M  V30 4110 H 380.475 1.68526 0.979027 0
M  V30 4111 H 379.571 1.87513 2.4949 0
M  V30 4112 N 379.872 -1.04064 1.18357 0
M  V30 4113 C 381.118 -1.77658 0.990412 0
M  V30 4114 C 381.473 -1.86446 -0.474944 0
M  V30 4115 O 380.766 -1.36153 -1.34807 0
M  V30 4116 C 380.96 -3.20634 1.57888 0
M  V30 4117 C 380.789 -3.25782 3.09994 0
M  V30 4118 C 379.559 -3.34411 3.7881 0
M  V30 4119 C 381.757 -3.13791 4.0748 0
M  V30 4120 N 379.739 -3.28809 5.18418 0
M  V30 4121 C 381.11 -3.15689 5.33611 0
M  V30 4122 C 383.165 -2.97833 3.98998 0
M  V30 4123 C 381.868 -3.03268 6.52243 0
M  V30 4124 C 383.894 -2.86759 5.17227 0
M  V30 4125 C 383.256 -2.893 6.4225 0
M  V30 4126 H 379.355 -0.661901 0.416427 0
M  V30 4127 H 381.939 -1.23968 1.50133 0
M  V30 4128 H 380.11 -3.7267 1.09414 0
M  V30 4129 H 381.842 -3.82525 1.32124 0
M  V30 4130 H 378.597 -3.40144 3.29543 0
M  V30 4131 H 379.021 -3.29448 5.91433 0
M  V30 4132 H 383.663 -2.94698 3.03171 0
M  V30 4133 H 381.381 -3.05156 7.48268 0
M  V30 4134 H 384.967 -2.75465 5.12455 0
M  V30 4135 H 383.847 -2.80818 7.32196 0
M  V30 4136 N 381.35 -0.985608 -1.22978 0
M  V30 4137 C 382.578 -0.675582 -1.95559 0
M  V30 4138 C 382.993 0.758413 -1.72897 0
M  V30 4139 O 382.35 1.51094 -1.02357 0
M  V30 4140 C 382.401 -0.96293 -3.48439 0
M  V30 4141 O 382.122 -2.34057 -3.70336 0
M  V30 4142 C 383.623 -0.669585 -4.38214 0
M  V30 4143 H 380.843 -0.250523 -0.622478 0
M  V30 4144 H 383.387 -1.3184 -1.56328 0
M  V30 4145 H 381.542 -0.366033 -3.85667 0
M  V30 4146 H 381.956 -2.43424 -4.64591 0
M  V30 4147 H 383.43 -0.920967 -5.44263 0
M  V30 4148 H 383.907 0.396383 -4.37408 0
M  V30 4149 H 384.513 -1.2472 -4.06602 0
M  V30 4150 N 382.828 1.3818 -0.7579 0
M  V30 4151 C 383.791 2.28764 -0.141286 0
M  V30 4152 C 384.791 1.47388 0.642907 0
M  V30 4153 O 385.981 1.67781 0.468536 0
M  V30 4154 C 383.113 3.31184 0.808069 0
M  V30 4155 H 384.306 2.848 -0.939633 0
M  V30 4156 H 381.859 1.47212 -0.525191 0
M  V30 4157 H 382.594 2.80247 1.63193 0
M  V30 4158 H 382.379 3.91314 0.248104 0
M  V30 4159 H 383.869 3.98909 1.23536 0
M  V30 4160 N 384.306 0.507319 1.49211 0
M  V30 4161 C 385.554 -0.0348839 2.0207 0
M  V30 4162 C 385.875 -1.36898 1.38866 0
M  V30 4163 O 385.145 -1.88133 0.546151 0
M  V30 4164 H 383.725 -0.0158812 0.746831 0
M  V30 4165 H 386.387 0.665998 1.83168 0
M  V30 4166 H 385.483 -0.159917 3.1169 0
M  V30 4167 N 385.784 -1.5574 0.241426 0
M  V30 4168 C 386.747 -2.19877 -0.647063 0
M  V30 4169 C 387.747 -1.16642 -1.10686 0
M  V30 4170 O 388.937 -1.41757 -1.01245 0
M  V30 4171 C 386.069 -2.83797 -1.88871 0
M  V30 4172 H 387.262 -2.99772 -0.087574 0
M  V30 4173 H 384.815 -1.56298 -0.00813574 0
M  V30 4174 H 385.55 -2.07824 -2.48957 0
M  V30 4175 H 385.335 -3.59414 -1.56728 0
M  V30 4176 H 386.825 -3.32898 -2.52129 0
M  V30 4177 N 387.262 0.0317525 -1.57568 0
M  V30 4178 C 388.225 1.01783 -2.0536 0
M  V30 4179 C 389.225 1.29203 -0.957253 0
M  V30 4180 O 390.415 1.24251 -1.22095 0
M  V30 4181 C 387.547 2.35137 -2.46827 0
M  V30 4182 H 388.74 0.605062 -2.93733 0
M  V30 4183 H 386.293 0.278514 -1.53799 0
M  V30 4184 H 387.028 2.81168 -1.61602 0
M  V30 4185 H 386.813 2.16566 -3.26866 0
M  V30 4186 H 388.303 3.05938 -2.84239 0
M  V30 4187 N 388.74 1.54641 0.303973 0
M  V30 4188 C 389.703 1.84646 1.35789 0
M  V30 4189 C 390.703 0.7192 1.4382 0
M  V30 4190 O 391.893 0.987491 1.43507 0
M  V30 4191 C 389.025 2.02407 2.74307 0
M  V30 4192 H 390.218 2.78829 1.10429 0
M  V30 4193 H 387.771 1.46658 0.540487 0
M  V30 4194 H 388.506 1.10502 3.04893 0
M  V30 4195 H 388.291 2.84453 2.69868 0
M  V30 4196 H 389.781 2.27002 3.50514 0
M  V30 4197 N 390.218 -0.567019 1.47046 0
M  V30 4198 C 391.448 -1.34831 1.56538 0
M  V30 4199 C 391.856 -1.8802 0.21101 0
M  V30 4200 O 391.199 -1.65152 -0.804387 0
M  V30 4201 C 391.261 -2.56139 2.52256 0
M  V30 4202 C 390.925 -2.24307 3.98165 0
M  V30 4203 C 391.922 -1.82192 4.86931 0
M  V30 4204 C 389.607 -2.35968 4.43423 0
M  V30 4205 C 391.601 -1.52153 6.18973 0
M  V30 4206 C 389.288 -2.05542 5.75496 0
M  V30 4207 C 390.286 -1.63701 6.63092 0
M  V30 4208 O 389.974 -1.33657 7.92711 0
M  V30 4209 H 389.706 -0.417683 0.531523 0
M  V30 4210 H 392.26 -0.694726 1.93294 0
M  V30 4211 H 390.49 -3.24356 2.10548 0
M  V30 4212 H 392.179 -3.18214 2.51982 0
M  V30 4213 H 392.945 -1.72684 4.53217 0
M  V30 4214 H 388.824 -2.67495 3.75456 0
M  V30 4215 H 392.368 -1.19421 6.87302 0
M  V30 4216 H 388.265 -2.14679 6.08755 0
M  V30 4217 H 389.033 -1.4737 8.05124 0
M  V30 4218 N 391.696 -1.35014 -0.812953 0
M  V30 4219 C 392.926 -1.30841 -1.59888 0
M  V30 4220 C 393.334 0.117576 -1.88834 0
M  V30 4221 O 392.677 1.07807 -1.48739 0
M  V30 4222 C 392.739 -2.0412 -2.95931 0
M  V30 4223 C 392.403 -3.53336 -2.89832 0
M  V30 4224 C 393.4 -4.48052 -2.63714 0
M  V30 4225 C 391.085 -3.95894 -3.0915 0
M  V30 4226 C 393.079 -5.833 -2.56982 0
M  V30 4227 C 390.766 -5.31239 -3.0204 0
M  V30 4228 C 391.764 -6.24754 -2.75991 0
M  V30 4229 O 391.452 -7.57617 -2.68833 0
M  V30 4230 H 391.184 -0.451215 -0.50337 0
M  V30 4231 H 393.738 -1.78354 -1.01877 0
M  V30 4232 H 391.968 -1.51235 -3.559 0
M  V30 4233 H 393.657 -1.93107 -3.57022 0
M  V30 4234 H 394.423 -4.16492 -2.48515 0
M  V30 4235 H 390.302 -3.23495 -3.28438 0
M  V30 4236 H 393.846 -6.56263 -2.36569 0
M  V30 4237 H 389.743 -5.62415 -3.16796 0
M  V30 4238 H 390.511 -7.67469 -2.84487 0
M  V30 4239 N 393.175 1.03435 -1.18907 0
M  V30 4240 C 394.421 1.77005 -0.989798 0
M  V30 4241 C 394.754 1.88205 0.478816 0
M  V30 4242 O 394.029 1.39481 1.35556 0
M  V30 4243 C 394.312 3.19925 -1.65287 0
M  V30 4244 C 394.165 3.1663 -3.19477 0
M  V30 4245 C 395.484 4.18189 -1.37134 0
M  V30 4246 H 392.603 0.642538 -0.360991 0
M  V30 4247 H 395.245 1.20784 -1.46667 0
M  V30 4248 H 393.395 3.67929 -1.24741 0
M  V30 4249 H 395.067 2.76567 -3.692 0
M  V30 4250 H 393.31 2.54491 -3.51307 0
M  V30 4251 H 393.981 4.1758 -3.61013 0
M  V30 4252 H 396.457 3.78761 -1.72276 0
M  V30 4253 H 395.333 5.16394 -1.86087 0
M  V30 4254 H 395.594 4.41112 -0.295424 0
M  V30 4255 N 394.653 0.992116 1.22453 0
M  V30 4256 C 395.901 0.666215 1.90804 0
M  V30 4257 C 396.222 -0.804152 1.77647 0
M  V30 4258 O 395.492 -1.57629 1.16318 0
M  V30 4259 H 394.072 0.243423 0.706225 0
M  V30 4260 H 396.734 1.25845 1.48825 0
M  V30 4261 H 395.83 0.928069 2.97982 0
M  V30 4262 N 396.131 -1.37776 0.765217 0
M  V30 4263 C 397.361 -2.03828 0.337277 0
M  V30 4264 C 397.769 -1.57841 -1.04321 0
M  V30 4265 O 397.112 -0.752043 -1.67601 0
M  V30 4266 C 397.174 -3.58292 0.294407 0
M  V30 4267 C 396.838 -4.27384 1.61838 0
M  V30 4268 C 397.835 -4.51956 2.56967 0
M  V30 4269 C 395.52 -4.65345 1.89102 0
M  V30 4270 C 397.514 -5.13536 3.77571 0
M  V30 4271 C 395.201 -5.26647 3.09978 0
M  V30 4272 C 396.199 -5.50679 4.04032 0
M  V30 4273 O 395.887 -6.10702 5.2278 0
M  V30 4274 H 395.619 -0.661292 0.140248 0
M  V30 4275 H 398.173 -1.77222 1.03834 0
M  V30 4276 H 396.403 -3.83918 -0.462983 0
M  V30 4277 H 398.092 -4.05763 -0.105581 0
M  V30 4278 H 398.858 -4.23048 2.37183 0
M  V30 4279 H 394.737 -4.45978 1.16725 0
M  V30 4280 H 398.281 -5.3221 4.50997 0
M  V30 4281 H 394.178 -5.54979 3.29649 0
M  V30 4282 H 394.946 -6.29183 5.23517 0
M  V30 4283 N 397.609 -0.515225 -1.4894 0
M  V30 4284 C 398.539 0.244628 -2.32215 0
M  V30 4285 C 399.52 0.949136 -1.41157 0
M  V30 4286 O 400.705 0.937783 -1.70057 0
M  V30 4287 C 397.835 1.30096 -3.22013 0
M  V30 4288 C 396.789 0.715486 -4.21977 0
M  V30 4289 C 396.115 1.87339 -5.00808 0
M  V30 4290 C 397.415 -0.302982 -5.2142 0
M  V30 4291 H 399.109 -0.450501 -2.95991 0
M  V30 4292 H 396.655 -0.218098 -1.42339 0
M  V30 4293 H 398.608 1.84037 -3.79089 0
M  V30 4294 H 397.332 2.02547 -2.56207 0
M  V30 4295 H 395.991 0.197715 -3.66066 0
M  V30 4296 H 395.639 2.58592 -4.31438 0
M  V30 4297 H 395.339 1.48764 -5.68457 0
M  V30 4298 H 396.863 2.41686 -5.60732 0
M  V30 4299 H 398.277 0.148802 -5.73107 0
M  V30 4300 H 396.674 -0.60532 -5.97039 0
M  V30 4301 H 397.744 -1.21395 -4.69459 0
M  V30 4302 N 399.087 1.5561 -0.249682 0
M  V30 4303 C 400.019 2.18834 0.681496 0
M  V30 4304 C 401.032 1.16546 1.1367 0
M  V30 4305 O 402.221 1.43397 1.06299 0
M  V30 4306 C 399.321 2.77992 1.9384 0
M  V30 4307 C 398.494 4.05725 1.63419 0
M  V30 4308 C 397.553 4.49174 2.74096 0
M  V30 4309 O 396.579 5.15492 2.41364 0
M  V30 4310 N 397.781 4.17191 4.03649 0
M  V30 4311 H 400.546 2.9937 0.140514 0
M  V30 4312 H 398.107 1.6175 -0.0697541 0
M  V30 4313 H 400.099 3.04015 2.67127 0
M  V30 4314 H 398.669 2.01596 2.38909 0
M  V30 4315 H 397.889 3.87261 0.736358 0
M  V30 4316 H 399.177 4.88999 1.40562 0
M  V30 4317 H 398.575 3.63955 4.33074 0
M  V30 4318 H 397.132 4.48043 4.73393 0
M  V30 4319 N 400.565 -0.0233959 1.57583 0
M  V30 4320 C 401.976 -0.56927 1.77809 0
M  V30 4321 C 402.327 -1.75284 0.881472 0
M  V30 4322 O 401.452 -2.1626 0.0777805 0
M  V30 4323 C 402.047 -1.03949 3.22459 0
M  V30 4324 C 400.606 -1.53084 3.43864 0
M  V30 4325 C 399.753 -0.471454 2.73263 0
M  V30 4326 H 402.704 0.202825 1.57399 0
M  V30 4327 H 402.725 -1.90661 3.29285 0
M  V30 4328 H 402.237 -0.177865 3.87692 0
M  V30 4329 H 400.338 -2.41414 2.83814 0
M  V30 4330 H 400.451 -1.57443 4.52491 0
M  V30 4331 H 398.815 -0.927788 2.37201 0
M  V30 4332 H 399.598 0.380808 3.41181 0
M  V30 4333 N 402.043 -1.548 -0.295768 0
M  V30 4334 C 403.459 -1.4613 -0.641722 0
M  V30 4335 C 403.659 -0.656771 -1.90496 0
M  V30 4336 O 402.715 -0.166547 -2.5195 0
M  V30 4337 C 404.028 -2.90141 -0.789852 0
M  V30 4338 C 405.576 -3.00216 -0.885396 0
M  V30 4339 C 406.051 -4.45434 -1.06548 0
M  V30 4340 N 407.542 -4.49166 -1.13156 0
M  V30 4341 C 408.277 -5.58717 -1.28929 0
M  V30 4342 N 407.773 -6.78182 -1.41567 0
M  V30 4343 N 409.566 -5.46415 -1.31859 0
M  V30 4344 H 401.717 -2.05574 0.534147 0
M  V30 4345 H 403.98 -0.931259 0.177372 0
M  V30 4346 H 403.686 -3.51635 0.0675598 0
M  V30 4347 H 403.56 -3.37859 -1.67724 0
M  V30 4348 H 405.947 -2.38833 -1.73329 0
M  V30 4349 H 406.028 -2.55787 0.0261185 0
M  V30 4350 H 405.672 -5.07413 -0.222335 0
M  V30 4351 H 405.602 -4.87499 -1.9913 0
M  V30 4352 H 408.093 -3.631 -1.04721 0
M  V30 4353 H 408.406 -7.57428 -1.53372 0
M  V30 4354 H 406.751 -6.81037 -1.38613 0
M  V30 4355 H 409.942 -4.5203 -1.21601 0
M  V30 4356 H 410.115 -6.31841 -1.43808 0
M  V30 4357 N 403.521 0.559213 -1.47345 0
M  V30 4358 C 404.749 1.34194 -1.57479 0
M  V30 4359 C 405.164 1.87463 -0.224261 0
M  V30 4360 O 404.521 1.64888 0.782185 0
M  V30 4361 C 404.572 2.51324 -2.59843 0
M  V30 4362 O 404.293 2.00256 -3.89653 0
M  V30 4363 C 405.794 3.43563 -2.80142 0
M  V30 4364 H 403.014 0.409136 -0.531835 0
M  V30 4365 H 405.558 0.677609 -1.92947 0
M  V30 4366 H 403.713 3.13699 -2.27314 0
M  V30 4367 H 404.127 2.76708 -4.4557 0
M  V30 4368 H 405.601 4.2217 -3.55635 0
M  V30 4369 H 406.078 3.9698 -1.87892 0
M  V30 4370 H 406.684 2.87005 -3.1386 0
M  V30 4371 N 404.999 1.35443 0.805782 0
M  V30 4372 C 406.246 1.28761 1.56291 0
M  V30 4373 C 406.574 -0.137747 1.94012 0
M  V30 4374 O 405.829 -1.1032 1.61642 0
M  V30 4375 C 406.128 2.14045 2.86216 0
M  V30 4376 C 405.794 3.62826 2.67709 0
M  V30 4377 C 404.456 4.0338 2.6237 0
M  V30 4378 C 406.808 4.57227 2.50186 0
M  V30 4379 C 404.136 5.36501 2.37451 0
M  V30 4380 C 406.488 5.90547 2.26797 0
M  V30 4381 C 405.152 6.30245 2.1988 0
M  V30 4382 H 404.422 0.471171 0.571908 0
M  V30 4383 H 407.069 1.67347 0.930974 0
M  V30 4384 H 405.374 1.68342 3.53791 0
M  V30 4385 H 407.071 2.0621 3.43917 0
M  V30 4386 H 403.661 3.30644 2.72713 0
M  V30 4387 H 407.845 4.2678 2.53323 0
M  V30 4388 H 403.101 5.66259 2.30567 0
M  V30 4389 H 407.275 6.63274 2.12228 0
M  V30 4390 H 404.902 7.33328 2.00333 0
M  V30 4391 N 406.477 -1.02803 1.19454 0
M  V30 4392 C 407.407 -2.12999 0.956758 0
M  V30 4393 C 408.388 -1.69743 -0.110188 0
M  V30 4394 O 409.573 -1.94148 0.0450038 0
M  V30 4395 C 406.703 -3.43746 0.495553 0
M  V30 4396 C 405.657 -4.00688 1.50443 0
M  V30 4397 C 404.983 -5.27067 0.900275 0
M  V30 4398 C 406.283 -4.35397 2.8849 0
M  V30 4399 H 407.977 -2.33148 1.87836 0
M  V30 4400 H 405.523 -1.12045 0.904539 0
M  V30 4401 H 407.476 -4.2021 0.316493 0
M  V30 4402 H 406.2 -3.23321 -0.461646 0
M  V30 4403 H 404.859 -3.2632 1.67065 0
M  V30 4404 H 404.507 -5.02959 -0.064503 0
M  V30 4405 H 404.207 -5.66127 1.57397 0
M  V30 4406 H 405.731 -6.06196 0.73203 0
M  V30 4407 H 407.145 -5.02795 2.75446 0
M  V30 4408 H 405.542 -4.85541 3.52661 0
M  V30 4409 H 406.612 -3.44662 3.41081 0
M  V30 4410 N 407.956 -0.998596 -1.21925 0
M  V30 4411 C 408.886 -0.573688 -2.26343 0
M  V30 4412 C 409.867 0.402296 -1.65274 0
M  V30 4413 O 411.052 0.291683 -1.91997 0
M  V30 4414 C 408.182 0.106839 -3.47136 0
M  V30 4415 C 407.136 -0.788269 -4.20678 0
M  V30 4416 C 406.462 0.0254927 -5.34694 0
M  V30 4417 C 407.762 -2.08784 -4.78755 0
M  V30 4418 H 409.456 -1.44651 -2.62138 0
M  V30 4419 H 407.002 -0.696975 -1.26009 0
M  V30 4420 H 408.955 0.415531 -4.19346 0
M  V30 4421 H 407.679 1.01424 -3.10452 0
M  V30 4422 H 406.338 -1.08069 -3.50309 0
M  V30 4423 H 405.986 0.933989 -4.94253 0
M  V30 4424 H 405.686 -0.570437 -5.84825 0
M  V30 4425 H 407.21 0.328147 -6.09718 0
M  V30 4426 H 408.624 -1.84272 -5.42878 0
M  V30 4427 H 407.021 -2.63307 -5.39249 0
M  V30 4428 H 408.091 -2.76284 -3.98491 0
M  V30 4429 N 409.434 1.37368 -0.772513 0
M  V30 4430 C 410.381 2.30262 -0.157488 0
M  V30 4431 C 411.351 1.51137 0.688965 0
M  V30 4432 O 412.536 1.79704 0.641168 0
M  V30 4433 C 409.676 3.37611 0.715045 0
M  V30 4434 C 408.789 4.31746 -0.148098 0
M  V30 4435 C 407.924 5.26171 0.729213 0
M  V30 4436 C 406.963 6.11948 -0.136418 0
M  V30 4437 N 406.1 6.98613 0.698914 0
M  V30 4438 H 410.94 2.82277 -0.955179 0
M  V30 4439 H 408.477 1.38957 -0.482631 0
M  V30 4440 H 410.435 3.98479 1.23575 0
M  V30 4441 H 409.065 2.86959 1.47833 0
M  V30 4442 H 408.117 3.72178 -0.786613 0
M  V30 4443 H 409.429 4.92084 -0.81579 0
M  V30 4444 H 408.583 5.92247 1.31637 0
M  V30 4445 H 407.322 4.66246 1.43059 0
M  V30 4446 H 406.327 5.4485 -0.736102 0
M  V30 4447 H 407.552 6.73945 -0.835134 0
M  V30 4448 H 405.498 6.41215 1.38489 0
M  V30 4449 H 405.415 7.55948 0.0885358 0
M  V30 4450 H 406.683 7.69077 1.27044 0
M  V30 4451 N 410.912 0.523116 1.48665 0
M  V30 4452 C 412.142 -0.00961724 2.06598 0
M  V30 4453 C 412.55 -1.29333 1.38093 0
M  V30 4454 O 411.893 -1.77846 0.46007 0
M  V30 4455 C 411.955 -0.311135 3.58151 0
M  V30 4456 C 411.619 0.878092 4.48485 0
M  V30 4457 C 412.616 1.77464 4.88674 0
M  V30 4458 C 410.301 1.08315 4.90483 0
M  V30 4459 C 412.295 2.86021 5.69623 0
M  V30 4460 C 409.982 2.17187 5.71203 0
M  V30 4461 C 410.98 3.05873 6.10681 0
M  V30 4462 O 410.668 4.12862 6.89783 0
M  V30 4463 H 410.4 0.0272658 0.67545 0
M  V30 4464 H 412.954 0.726156 1.92136 0
M  V30 4465 H 411.184 -1.10079 3.70701 0
M  V30 4466 H 412.873 -0.785125 3.98234 0
M  V30 4467 H 413.639 1.62813 4.56855 0
M  V30 4468 H 409.518 0.402149 4.59243 0
M  V30 4469 H 413.062 3.55272 6.00356 0
M  V30 4470 H 408.959 2.31824 6.02435 0
M  V30 4471 H 409.727 4.10487 7.08126 0
M  V30 4472 N 412.39 -1.55475 0.257931 0
M  V30 4473 C 413.338 -2.23244 -0.653076 0
M  V30 4474 C 414.332 -1.22366 -1.17144 0
M  V30 4475 O 415.538 -1.40347 -1.12706 0
M  V30 4476 H 411.913 -0.716247 -0.229117 0
M  V30 4477 H 413.884 -2.98343 -0.0584788 0
M  V30 4478 C 412.633 -2.95401 -1.83395 0
M  V30 4479 H 411.956 -3.72802 -1.44424 0
M  V30 4480 H 413.396 -3.46165 -2.44838 0
M  V30 4481 C 411.855 -1.99895 -2.71189 0
M  V30 4482 O 412.385 -1.53909 -3.71046 0
M  V30 4483 N 410.591 -1.6676 -2.3799 0
M  V30 4484 H 410.138 -2.04352 -1.56837 0
M  V30 4485 H 410.096 -1.03127 -2.97005 0
M  V30 4486 N 413.868 0.0150385 -1.57593 0
M  V30 4487 C 414.778 1.02791 -2.10882 0
M  V30 4488 C 415.794 1.38702 -1.0506 0
M  V30 4489 O 416.97 1.47739 -1.36877 0
M  V30 4490 C 414.035 2.30568 -2.58919 0
M  V30 4491 C 413.096 2.01108 -3.79281 0
M  V30 4492 C 412.329 3.22794 -4.25018 0
M  V30 4493 O 412.552 4.33959 -3.70183 0
M  V30 4494 O 411.486 3.07672 -5.17322 0
M  V30 4495 H 415.312 0.604973 -2.97613 0
M  V30 4496 H 412.897 0.23292 -1.47573 0
M  V30 4497 H 414.779 3.05662 -2.90084 0
M  V30 4498 H 413.454 2.72129 -1.75293 0
M  V30 4499 H 412.361 1.23537 -3.53114 0
M  V30 4500 H 413.694 1.64394 -4.63935 0
M  V30 4501 N 415.346 1.54954 0.287554 0
M  V30 4502 C 416.294 1.87606 1.37502 0
M  V30 4503 C 417.288 0.751001 1.51843 0
M  V30 4504 O 418.494 0.935169 1.53801 0
M  V30 4505 H 414.869 0.595231 0.459569 0
M  V30 4506 H 416.84 2.78477 1.07206 0
M  V30 4507 C 415.589 2.15183 2.73115 0
M  V30 4508 H 414.912 3.01234 2.62866 0
M  V30 4509 H 416.352 2.4196 3.48183 0
M  V30 4510 C 414.811 0.954686 3.2309 0
M  V30 4511 O 415.341 0.181949 4.01288 0
M  V30 4512 N 413.547 0.756368 2.80584 0
M  V30 4513 H 413.094 1.38643 2.17108 0
M  V30 4514 H 413.052 -0.0430391 3.14371 0
M  V30 4515 N 416.824 -0.551391 1.4764 0
M  V30 4516 C 418.072 -1.30572 1.54258 0
M  V30 4517 C 418.393 -1.93877 0.208963 0
M  V30 4518 O 417.663 -1.80234 -0.767619 0
M  V30 4519 H 416.243 -0.484894 0.568231 0
M  V30 4520 H 418.905 -0.643402 1.83974 0
M  V30 4521 H 418.001 -2.09621 2.31226 0
M  V30 4522 N 418.302 -1.35869 -0.798587 0
M  V30 4523 C 419.53 -1.32722 -1.58722 0
M  V30 4524 C 419.945 0.0935631 -1.88568 0
M  V30 4525 O 419.302 1.04784 -1.49421 0
M  V30 4526 C 419.353 -2.13974 -2.91371 0
M  V30 4527 O 419.074 -3.50514 -2.62815 0
M  V30 4528 C 420.575 -2.18504 -3.85708 0
M  V30 4529 H 417.795 -0.45562 -0.492596 0
M  V30 4530 H 420.339 -1.78837 -0.991843 0
M  V30 4531 H 418.494 -1.71438 -3.47402 0
M  V30 4532 H 418.908 -3.92806 -3.47568 0
M  V30 4533 H 420.382 -2.79732 -4.75872 0
M  V30 4534 H 420.859 -1.18597 -4.22885 0
M  V30 4535 H 421.465 -2.61236 -3.35612 0
M  V30 4536 N 419.78 1.02168 -1.19998 0
M  V30 4537 C 421.029 1.75091 -1.0013 0
M  V30 4538 C 421.342 1.89923 0.467835 0
M  V30 4539 O 422.548 2.59888 0.785515 0
M  V30 4540 C 421.004 3.14892 -1.74273 0
M  V30 4541 C 420.612 3.0809 -3.25245 0
M  V30 4542 C 422.356 3.9206 -1.62755 0
M  V30 4543 C 420.263 4.42867 -3.91948 0
M  V30 4544 H 419.193 0.656394 -0.37103 0
M  V30 4545 H 421.844 1.14284 -1.43567 0
M  V30 4546 H 420.226 3.7621 -1.2362 0
M  V30 4547 H 421.4 2.5611 -3.83072 0
M  V30 4548 H 419.715 2.44416 -3.3712 0
M  V30 4549 H 422.312 4.91764 -2.09934 0
M  V30 4550 H 422.655 4.12199 -0.582894 0
M  V30 4551 H 423.188 3.37359 -2.10793 0
M  V30 4552 H 419.927 4.27931 -4.96543 0
M  V30 4553 H 419.447 4.94874 -3.3891 0
M  V30 4554 H 421.126 5.11728 -3.95909 0
M  V30 4555 N 421.258 1.00505 1.21394 0
M  V30 4556 C 422.486 0.706609 1.9446 0
M  V30 4557 C 422.901 -0.73081 1.74082 0
M  V30 4558 O 422.258 -1.49446 1.04747 0
M  V30 4559 C 422.309 1.01824 3.46863 0
M  V30 4560 O 422.03 2.39919 3.66566 0
M  V30 4561 C 423.531 0.739216 4.37093 0
M  V30 4562 H 420.751 0.260394 0.618414 0
M  V30 4563 H 423.295 1.34311 1.54211 0
M  V30 4564 H 421.45 0.427343 3.85036 0
M  V30 4565 H 421.864 2.50784 4.6066 0
M  V30 4566 H 423.338 1.00744 5.42729 0
M  V30 4567 H 423.815 -0.326746 4.37983 0
M  V30 4568 H 424.421 1.31173 4.04566 0
M  V30 4569 N 422.737 -1.36956 0.779787 0
M  V30 4570 C 424.014 -1.93697 0.272156 0
M  V30 4571 C 424.394 -1.71267 -1.23413 0
M  V30 4572 O 423.742 -1.06607 -2.02107 0
M  V30 4573 C 423.952 -3.42812 0.654291 0
M  V30 4574 C 425.3 -4.19921 0.628602 0
M  V30 4575 O 426.324 -3.51209 0.594172 0
M  V30 4576 O 425.183 -5.42465 0.662864 0
M  V30 4577 H 422.277 -0.824447 0.0649286 0
M  V30 4578 H 424.823 -1.46196 0.861682 0
M  V30 4579 H 423.595 -3.52754 1.69353 0
M  V30 4580 H 423.218 -3.97582 0.0381369 0
M  V30 4581 N 424.215 -0.530993 -1.48385 0
M  V30 4582 C 425.178 0.220497 -2.28137 0
M  V30 4583 C 426.178 0.866851 -1.35434 0
M  V30 4584 O 427.368 0.726746 -1.58316 0
M  V30 4585 C 424.5 1.31921 -3.1434 0
M  V30 4586 H 425.693 -0.479714 -2.96038 0
M  V30 4587 H 423.246 -0.286968 -1.53643 0
M  V30 4588 H 423.981 2.05264 -2.51072 0
M  V30 4589 H 423.766 0.86085 -3.82533 0
M  V30 4590 H 425.256 1.84776 -3.74497 0
M  V30 4591 N 425.693 1.55336 -0.266172 0
M  V30 4592 C 426.939 1.99692 0.353681 0
M  V30 4593 C 427.272 1.1543 1.56172 0
M  V30 4594 O 426.547 0.222218 1.93226 0
M  V30 4595 C 426.83 3.52316 0.74466 0
M  V30 4596 C 426.683 4.47337 -0.470101 0
M  V30 4597 C 428.002 4.10588 1.58447 0
M  V30 4598 H 425.121 0.725961 0.12708 0
M  V30 4599 H 427.763 1.86336 -0.371333 0
M  V30 4600 H 425.913 3.63829 1.36239 0
M  V30 4601 H 427.585 4.4778 -1.10864 0
M  V30 4602 H 425.828 4.19364 -1.10978 0
M  V30 4603 H 426.499 5.51788 -0.15291 0
M  V30 4604 H 428.975 4.02297 1.06286 0
M  V30 4605 H 427.851 5.17607 1.82686 0
M  V30 4606 H 428.112 3.60253 2.56262 0
M  V30 4607 N 427.171 -0.0066808 1.57599 0
M  V30 4608 C 428.448 -0.729586 1.81484 0
M  V30 4609 C 428.828 -1.92359 0.869558 0
M  V30 4610 O 428.176 -2.28348 -0.0832533 0
M  V30 4611 C 428.386 -1.1416 3.29801 0
M  V30 4612 C 429.734 -1.54823 3.95367 0
M  V30 4613 O 430.758 -1.23558 3.34084 0
M  V30 4614 O 429.617 -2.12937 5.03309 0
M  V30 4615 H 426.711 -0.354674 0.747085 0
M  V30 4616 H 429.257 0.0182609 1.6969 0
M  V30 4617 H 428.029 -0.290231 3.90222 0
M  V30 4618 H 427.652 -1.94876 3.46568 0
M  V30 4619 N 428.649 -1.55105 -0.279332 0
M  V30 4620 C 429.889 -1.7716 -1.01949 0
M  V30 4621 C 430.253 -0.557511 -1.83728 0
M  V30 4622 O 431.454 -0.656198 -2.60667 0
M  V30 4623 C 429.725 -3.0372 -1.88385 0
M  V30 4624 S 431.284 -3.46868 -2.68752 0
M  V30 4625 H 428.102 -0.62253 -0.343478 0
M  V30 4626 H 430.704 -1.93329 -0.290572 0
M  V30 4627 H 429.408 -3.90184 -1.2722 0
M  V30 4628 H 428.939 -2.902 -2.65608 0
M  V30 4629 H 430.954 -3.05643 -3.90892 0
M  V30 4630 N 430.127 0.543554 -1.4793 0
M  V30 4631 C 431.09 1.63156 -1.60975 0
M  V30 4632 C 432.09 1.53346 -0.483899 0
M  V30 4633 O 433.28 1.5726 -0.749339 0
M  V30 4634 C 430.412 3.02743 -1.56716 0
M  V30 4635 H 431.605 1.52934 -2.57975 0
M  V30 4636 H 429.158 0.764557 -1.36324 0
M  V30 4637 H 429.893 3.18484 -0.611418 0
M  V30 4638 H 429.678 3.11272 -2.38438 0
M  V30 4639 H 431.168 3.81871 -1.6901 0
M  V30 4640 N 431.605 1.3629 0.791371 0
M  V30 4641 C 432.535 1.33137 1.91825 0
M  V30 4642 C 433.516 0.203168 1.68882 0
M  V30 4643 O 434.701 0.400509 1.90025 0
M  V30 4644 C 431.831 1.11793 3.28816 0
M  V30 4645 C 430.785 2.21417 3.66277 0
M  V30 4646 C 430.111 1.85218 5.01596 0
M  V30 4647 C 431.411 3.63489 3.75064 0
M  V30 4648 H 433.105 2.2743 1.9472 0
M  V30 4649 H 430.651 1.09479 0.935437 0
M  V30 4650 H 432.604 1.08222 4.07266 0
M  V30 4651 H 431.328 0.139501 3.26302 0
M  V30 4652 H 429.987 2.2411 2.90121 0
M  V30 4653 H 429.635 0.859544 4.95602 0
M  V30 4654 H 429.335 2.58611 5.27631 0
M  V30 4655 H 430.859 1.832 5.82469 0
M  V30 4656 H 432.273 3.63034 4.43711 0
M  V30 4657 H 430.67 4.35771 4.12582 0
M  V30 4658 H 431.74 3.98536 2.76219 0
M  V30 4659 N 433.083 -1.0153 1.20538 0
M  V30 4660 C 434.36 -1.72327 0.925343 0
M  V30 4661 C 434.74 -2.03383 -0.565547 0
M  V30 4662 O 434.088 -1.69934 -1.52757 0
M  V30 4663 C 434.298 -2.9902 1.79967 0
M  V30 4664 C 435.646 -3.72258 2.04228 0
M  V30 4665 O 436.67 -3.08979 1.77231 0
M  V30 4666 O 435.529 -4.86053 2.4983 0
M  V30 4667 H 432.623 -0.751099 0.346092 0
M  V30 4668 H 435.169 -1.07366 1.31417 0
M  V30 4669 H 433.941 -2.72402 2.80915 0
M  V30 4670 H 433.564 -3.71721 1.41099 0
M  V30 4671 N 434.561 -1.01147 -1.20859 0
M  V30 4672 C 435.972 -0.730205 -1.71828 0
M  V30 4673 C 436.323 0.751662 -1.8123 0
M  V30 4674 O 435.448 1.58686 -1.47132 0
M  V30 4675 C 436.043 -1.31885 -3.12077 0
M  V30 4676 C 434.602 -1.08656 -3.60376 0
M  V30 4677 C 433.749 -1.42769 -2.37723 0
M  V30 4678 H 436.7 -1.18158 -1.05945 0
M  V30 4679 H 436.721 -0.706793 -3.73878 0
M  V30 4680 H 436.233 -2.39737 -3.05201 0
M  V30 4681 H 434.334 -0.0254814 -3.72591 0
M  V30 4682 H 434.447 -1.76301 -4.45483 0
M  V30 4683 H 432.811 -0.846603 -2.40218 0
M  V30 4684 H 433.594 -2.51666 -2.33493 0
M  V30 4685 N 436.039 1.36541 -0.78704 0
M  V30 4686 C 436.969 2.32659 -0.197992 0
M  V30 4687 C 437.95 1.56533 0.665697 0
M  V30 4688 O 439.135 1.84698 0.60001 0
M  V30 4689 C 436.265 3.40778 0.669901 0
M  V30 4690 C 435.219 4.27897 -0.0937039 0
M  V30 4691 C 434.545 5.27163 0.894629 0
M  V30 4692 C 435.845 5.06334 -1.28154 0
M  V30 4693 H 437.539 2.82171 -1.00099 0
M  V30 4694 H 435.085 1.35665 -0.482793 0
M  V30 4695 H 437.038 4.07008 1.09191 0
M  V30 4696 H 435.762 2.89827 1.50558 0
M  V30 4697 H 434.421 3.6322 -0.49666 0
M  V30 4698 H 434.069 4.72486 1.72527 0
M  V30 4699 H 433.769 5.86317 0.388149 0
M  V30 4700 H 435.293 5.96266 1.31525 0
M  V30 4701 H 436.707 5.65617 -0.93541 0
M  V30 4702 H 435.104 5.74888 -1.72115 0
M  V30 4703 H 436.174 4.38114 -2.07807 0
M  V30 4704 N 437.518 0.538854 1.48102 0
M  V30 4705 C 438.743 0.0102694 2.07397 0
M  V30 4706 C 439.168 -1.26562 1.39153 0
M  V30 4707 O 438.526 -1.75357 0.460387 0
M  V30 4708 C 438.574 -0.187602 3.60112 0
M  V30 4709 O 437.678 -1.25432 3.92862 0
M  V30 4710 H 437.019 0.0430975 0.6626 0
M  V30 4711 H 439.549 0.749301 1.90385 0
M  V30 4712 H 439.559 -0.407517 4.0596 0
M  V30 4713 H 438.234 0.744386 4.09184 0
M  V30 4714 H 436.811 -1.01636 3.58782 0
M  V30 4715 N 438.996 -1.55193 0.274407 0
M  V30 4716 C 439.906 -2.26164 -0.623473 0
M  V30 4717 C 440.922 -1.28729 -1.17068 0
M  V30 4718 O 442.098 -1.61663 -1.20112 0
M  V30 4719 C 439.163 -2.96833 -1.7914 0
M  V30 4720 C 438.224 -4.09745 -1.28093 0
M  V30 4721 C 437.457 -4.77034 -2.3932 0
M  V30 4722 O 437.68 -4.4353 -3.5866 0
M  V30 4723 O 436.614 -5.64996 -2.07516 0
M  V30 4724 H 440.44 -3.03661 -0.0485661 0
M  V30 4725 H 438.025 -1.49341 0.0418382 0
M  V30 4726 H 439.907 -3.41248 -2.4724 0
M  V30 4727 H 438.582 -2.22253 -2.35341 0
M  V30 4728 H 437.489 -3.69787 -0.566416 0
M  V30 4729 H 438.822 -4.86224 -0.764683 0
M  V30 4730 N 440.474 -0.00167713 -1.576 0
M  V30 4731 C 441.702 0.693759 -1.94922 0
M  V30 4732 C 442.117 1.67215 -0.876626 0
M  V30 4733 O 441.474 1.81929 0.144279 0
M  V30 4734 C 441.525 1.42416 -3.32265 0
M  V30 4735 O 441.246 0.485014 -4.35407 0
M  V30 4736 C 442.747 2.21395 -3.84056 0
M  V30 4737 H 439.967 0.193118 -0.642609 0
M  V30 4738 H 442.511 -0.0532952 -2.04431 0
M  V30 4739 H 440.666 2.12284 -3.24059 0
M  V30 4740 H 441.08 1.00053 -5.14868 0
M  V30 4741 H 442.554 2.67996 -4.82578 0
M  V30 4742 H 443.031 3.04142 -3.16851 0
M  V30 4743 H 443.637 1.56542 -3.95443 0
M  V30 4744 N 441.952 1.55251 0.271103 0
M  V30 4745 C 442.899 1.88261 1.33516 0
M  V30 4746 C 443.869 0.734296 1.48988 0
M  V30 4747 O 445.054 0.985741 1.63364 0
M  V30 4748 C 442.194 2.16168 2.69008 0
M  V30 4749 C 441.307 3.43678 2.61743 0
M  V30 4750 C 440.442 3.61276 3.89427 0
M  V30 4751 C 439.481 4.82472 3.7668 0
M  V30 4752 N 438.618 4.96717 4.96202 0
M  V30 4753 H 443.458 2.79015 1.04665 0
M  V30 4754 H 440.995 1.38137 0.505618 0
M  V30 4755 H 442.953 2.30349 3.47844 0
M  V30 4756 H 441.583 1.28646 2.96057 0
M  V30 4757 H 440.635 3.37959 1.74607 0
M  V30 4758 H 441.947 4.3265 2.48224 0
M  V30 4759 H 441.101 3.75284 4.76704 0
M  V30 4760 H 439.84 2.70492 4.05814 0
M  V30 4761 H 438.845 4.68465 2.87786 0
M  V30 4762 H 440.07 5.74692 3.61809 0
M  V30 4763 H 438.016 4.08865 5.12997 0
M  V30 4764 H 437.933 5.79738 4.85222 0
M  V30 4765 H 439.201 5.15113 5.85046 0
M  V30 4766 N 443.43 -0.535701 1.48216 0
M  V30 4767 C 444.67 -1.30238 1.57536 0
M  V30 4768 C 445.034 -1.90479 0.241229 0
M  V30 4769 O 446.235 -2.67983 0.20938 0
M  V30 4770 C 444.506 -2.3669 2.67792 0
M  V30 4771 S 446.065 -3.23159 2.9684 0
M  V30 4772 H 442.883 -0.443093 0.556048 0
M  V30 4773 H 445.485 -0.610937 1.85709 0
M  V30 4774 H 444.189 -1.90905 3.63296 0
M  V30 4775 H 443.72 -3.10548 2.41502 0
M  V30 4776 H 445.735 -4.36647 2.35699 0
M  V30 4777 N 444.908 -1.36708 -0.784132 0
M  V30 4778 C 446.136 -1.34398 -1.57305 0
M  V30 4779 C 446.551 0.0735577 -1.88657 0
M  V30 4780 O 445.908 1.03193 -1.50524 0
M  V30 4781 C 445.959 -2.17053 -2.89085 0
M  V30 4782 O 445.68 -3.53281 -2.59083 0
M  V30 4783 C 447.181 -2.22583 -3.83369 0
M  V30 4784 H 444.401 -0.460819 -0.487736 0
M  V30 4785 H 446.945 -1.79879 -0.972819 0
M  V30 4786 H 445.1 -1.75113 -3.45564 0
M  V30 4787 H 445.514 -3.9647 -3.43383 0
M  V30 4788 H 446.988 -2.84763 -4.72878 0
M  V30 4789 H 447.465 -1.23075 -4.21603 0
M  V30 4790 H 448.071 -2.64781 -3.32823 0
M  V30 4791 N 446.386 1.0089 -1.21074 0
M  V30 4792 C 447.316 2.1145 -0.990523 0
M  V30 4793 C 448.297 1.69897 0.0831699 0
M  V30 4794 O 449.482 1.94052 -0.0758853 0
M  V30 4795 C 446.612 3.42914 -0.550177 0
M  V30 4796 C 445.566 3.98244 -1.56799 0
M  V30 4797 C 444.892 5.25568 -0.984013 0
M  V30 4798 C 446.192 4.30752 -2.95381 0
M  V30 4799 H 447.886 2.3013 -1.91521 0
M  V30 4800 H 445.432 1.10592 -0.92225 0
M  V30 4801 H 447.385 4.19653 -0.383305 0
M  V30 4802 H 446.109 3.24014 0.41015 0
M  V30 4803 H 444.768 3.23621 -1.72236 0
M  V30 4804 H 444.416 5.02998 -0.0155216 0
M  V30 4805 H 444.116 5.63551 -1.66384 0
M  V30 4806 H 445.64 6.04955 -0.828378 0
M  V30 4807 H 447.054 4.98349 -2.8341 0
M  V30 4808 H 445.451 4.79869 -3.60341 0
M  V30 4809 H 446.521 3.39192 -3.46521 0
M  V30 4810 N 447.864 1.01787 1.20321 0
M  V30 4811 C 448.811 0.589197 2.23153 0
M  V30 4812 C 449.781 -0.391367 1.61423 0
M  V30 4813 O 450.966 -0.290518 1.88575 0
M  V30 4814 C 448.106 -0.0650747 3.45039 0
M  V30 4815 C 447.219 0.960207 4.21194 0
M  V30 4816 C 446.354 0.276854 5.30478 0
M  V30 4817 C 445.393 1.2888 5.98378 0
M  V30 4818 N 444.53 0.632031 6.99249 0
M  V30 4819 H 449.37 1.47071 2.59179 0
M  V30 4820 H 446.907 0.736192 1.27352 0
M  V30 4821 H 448.865 -0.461552 4.14639 0
M  V30 4822 H 447.495 -0.910233 3.09701 0
M  V30 4823 H 446.547 1.47484 3.50646 0
M  V30 4824 H 447.859 1.72977 4.67847 0
M  V30 4825 H 447.013 -0.175056 6.06447 0
M  V30 4826 H 445.752 -0.525004 4.84866 0
M  V30 4827 H 444.757 1.75109 5.21169 0
M  V30 4828 H 445.982 2.09196 6.46076 0
M  V30 4829 H 443.928 -0.149935 6.55829 0
M  V30 4830 H 443.845 1.33964 7.44036 0
M  V30 4831 H 445.113 0.203755 7.79234 0
M  V30 4832 N 449.342 -1.36122 0.79427 0
M  V30 4833 C 450.567 -2.03891 0.379871 0
M  V30 4834 C 450.992 -1.59488 -0.997251 0
M  V30 4835 O 450.35 -0.765652 -1.64339 0
M  V30 4836 C 450.398 -3.57687 0.457442 0
M  V30 4837 O 449.502 -4.08931 -0.5338 0
M  V30 4838 H 448.843 -0.6443 0.160541 0
M  V30 4839 H 451.373 -1.73976 1.07673 0
M  V30 4840 H 451.383 -4.06721 0.322792 0
M  V30 4841 H 450.058 -3.89357 1.46199 0
M  V30 4842 H 448.635 -3.71154 -0.360409 0
M  V30 4843 N 450.82 -0.546701 -1.47814 0
M  V30 4844 C 452.067 -0.0187407 -2.02491 0
M  V30 4845 C 452.395 1.32685 -1.42215 0
M  V30 4846 O 451.65 1.87413 -0.563454 0
M  V30 4847 C 451.949 0.134869 -3.57145 0
M  V30 4848 C 451.615 -1.13849 -4.3629 0
M  V30 4849 C 450.277 -1.48743 -4.57634 0
M  V30 4850 C 452.629 -1.98277 -4.82012 0
M  V30 4851 C 449.957 -2.67932 -5.21948 0
M  V30 4852 C 452.309 -3.16659 -5.4764 0
M  V30 4853 C 450.973 -3.51879 -5.67219 0
M  V30 4854 H 450.243 -0.0068577 -0.740968 0
M  V30 4855 H 452.89 -0.716097 -1.77607 0
M  V30 4856 H 451.195 0.915118 -3.80963 0
M  V30 4857 H 452.892 0.558556 -3.97091 0
M  V30 4858 H 449.482 -0.856767 -4.19949 0
M  V30 4859 H 453.666 -1.72628 -4.6531 0
M  V30 4860 H 448.922 -2.95401 -5.35302 0
M  V30 4861 H 453.096 -3.82374 -5.82033 0
M  V30 4862 H 450.723 -4.44331 -6.16825 0
M  V30 4863 N 452.299 1.55045 -0.282633 0
M  V30 4864 C 453.527 2.04168 0.33512 0
M  V30 4865 C 453.942 1.16071 1.48906 0
M  V30 4866 O 453.299 0.182391 1.81586 0
M  V30 4867 C 453.35 3.52332 0.808957 0
M  V30 4868 O 453.071 4.37078 -0.299038 0
M  V30 4869 C 454.572 4.17375 1.49375 0
M  V30 4870 H 451.792 0.666744 0.0754543 0
M  V30 4871 H 454.336 2.00205 -0.416918 0
M  V30 4872 H 452.491 3.56715 1.51106 0
M  V30 4873 H 452.905 5.24458 0.0665514 0
M  V30 4874 H 454.379 5.22627 1.77664 0
M  V30 4875 H 454.856 3.65999 2.42778 0
M  V30 4876 H 455.462 4.17016 0.835305 0
M  V30 4877 N 453.777 0.010035 1.57597 0
M  V30 4878 C 455.023 -0.673697 1.91283 0
M  V30 4879 C 455.356 -1.72863 0.884979 0
M  V30 4880 O 454.631 -1.94268 -0.0949487 0
M  V30 4881 C 454.914 -1.30766 3.35518 0
M  V30 4882 C 454.767 -0.263578 4.49027 0
M  V30 4883 C 456.086 -2.23105 3.79358 0
M  V30 4884 H 453.205 -0.243439 0.695634 0
M  V30 4885 H 455.847 0.0633864 1.89894 0
M  V30 4886 H 453.997 -1.93588 3.36832 0
M  V30 4887 H 455.669 0.365738 4.59848 0
M  V30 4888 H 453.912 0.413077 4.31829 0
M  V30 4889 H 454.583 -0.746398 5.4693 0
M  V30 4890 H 457.059 -1.70289 3.79659 0
M  V30 4891 H 455.935 -2.64424 4.81011 0
M  V30 4892 H 456.196 -3.11433 3.13787 0
M  V30 4893 N 455.255 -1.55392 -0.262866 0
M  V30 4894 C 456.165 -1.92077 -1.34698 0
M  V30 4895 C 457.181 -0.819227 -1.53508 0
M  V30 4896 O 458.357 -1.11921 -1.67439 0
M  V30 4897 C 455.422 -2.19407 -2.68443 0
M  V30 4898 C 454.483 -3.42905 -2.58292 0
M  V30 4899 C 453.716 -3.68921 -3.85659 0
M  V30 4900 O 453.939 -2.97275 -4.8681 0
M  V30 4901 O 452.873 -4.62455 -3.85252 0
M  V30 4902 H 456.699 -2.84384 -1.06581 0
M  V30 4903 H 454.284 -1.42069 -0.462264 0
M  V30 4904 H 456.166 -2.38365 -3.47506 0
M  V30 4905 H 454.841 -1.30282 -2.96325 0
M  V30 4906 H 453.748 -3.29272 -1.7757 0
M  V30 4907 H 455.081 -4.32282 -2.35358 0
M  V30 4908 N 456.733 0.527833 -1.48498 0
M  V30 4909 C 457.68 1.6322 -1.6318 0
M  V30 4910 C 458.65 1.59199 -0.473815 0
M  V30 4911 O 459.835 1.77591 -0.697563 0
M  V30 4912 C 456.975 3.01474 -1.67951 0
M  V30 4913 C 456.088 3.15713 -2.94871 0
M  V30 4914 C 455.223 4.44539 -2.90789 0
M  V30 4915 C 454.262 4.52315 -4.12404 0
M  V30 4916 N 453.399 5.72533 -4.06387 0
M  V30 4917 H 458.239 1.50011 -2.57489 0
M  V30 4918 H 455.776 0.730298 -1.27691 0
M  V30 4919 H 457.734 3.81572 -1.68698 0
M  V30 4920 H 456.364 3.1345 -0.771306 0
M  V30 4921 H 455.416 2.28854 -3.03859 0
M  V30 4922 H 456.728 3.1732 -3.8485 0
M  V30 4923 H 455.882 5.3293 -2.89949 0
M  V30 4924 H 454.621 4.45457 -1.98542 0
M  V30 4925 H 453.626 3.62331 -4.13517 0
M  V30 4926 H 454.851 4.53134 -5.05812 0
M  V30 4927 H 452.797 5.74344 -3.16962 0
M  V30 4928 H 452.714 5.75643 -4.90073 0
M  V30 4929 H 453.982 6.63204 -4.0961 0
M  V30 4930 N 458.211 1.37122 0.776871 0
M  V30 4931 C 459.459 1.31787 1.53221 0
M  V30 4932 C 459.78 -0.0987589 1.9475 0
M  V30 4933 O 459.05 -1.0417 1.65908 0
M  V30 4934 H 457.63 0.484839 0.568278 0
M  V30 4935 H 460.292 1.71556 0.924917 0
M  V30 4936 H 459.388 1.95355 2.43398 0
M  V30 4937 N 459.689 -1.00246 1.21608 0
M  V30 4938 C 460.938 -1.73476 1.02902 0
M  V30 4939 C 461.251 -1.90643 -0.437561 0
M  V30 4940 O 462.457 -2.61105 -0.74407 0
M  V30 4941 C 460.913 -3.12079 1.79261 0
M  V30 4942 C 460.521 -3.02877 3.30106 0
M  V30 4943 C 462.265 -3.89421 1.68972 0
M  V30 4944 C 460.172 -4.36575 3.98944 0
M  V30 4945 H 459.102 -0.650408 0.381425 0
M  V30 4946 H 461.753 -1.11985 1.45367 0
M  V30 4947 H 460.135 -3.74196 1.2959 0
M  V30 4948 H 461.309 -2.49983 3.87098 0
M  V30 4949 H 459.624 -2.39022 3.40965 0
M  V30 4950 H 462.221 -4.88362 2.17731 0
M  V30 4951 H 462.564 -4.1122 0.648397 0
M  V30 4952 H 463.097 -3.33963 2.16133 0
M  V30 4953 H 459.836 -4.19978 5.03288 0
M  V30 4954 H 459.356 -4.8942 3.4674 0
M  V30 4955 H 461.035 -5.05364 4.04 0
M  V30 4956 N 461.167 -1.02423 -1.1978 0
M  V30 4957 C 462.397 -0.736387 -1.93031 0
M  V30 4958 C 462.805 0.708023 -1.75453 0
M  V30 4959 O 462.148 1.4927 -1.07071 0
M  V30 4960 C 462.21 -1.00194 -3.45255 0
M  V30 4961 C 461.874 -2.43698 -3.86601 0
M  V30 4962 C 462.871 -3.41814 -3.91738 0
M  V30 4963 C 460.556 -2.77975 -4.18372 0
M  V30 4964 C 462.55 -4.72265 -4.28071 0
M  V30 4965 C 460.237 -4.08636 -4.54378 0
M  V30 4966 C 461.235 -5.05592 -4.59201 0
M  V30 4967 O 460.923 -6.33914 -4.94376 0
M  V30 4968 H 460.655 -0.269116 -0.620123 0
M  V30 4969 H 463.209 -1.37043 -1.52998 0
M  V30 4970 H 461.439 -0.310747 -3.85449 0
M  V30 4971 H 463.128 -0.704488 -3.9974 0
M  V30 4972 H 463.894 -3.16671 -3.67348 0
M  V30 4973 H 459.773 -2.0319 -4.13805 0
M  V30 4974 H 463.317 -5.4794 -4.3175 0
M  V30 4975 H 459.214 -4.33556 -4.78226 0
M  V30 4976 H 459.982 -6.38317 -5.12341 0
M  V30 4977 N 462.645 1.35699 -0.801477 0
M  V30 4978 C 463.577 2.28598 -0.166028 0
M  V30 4979 C 464.59 1.50044 0.631721 0
M  V30 4980 O 465.779 1.72339 0.464921 0
M  V30 4981 C 462.879 3.29625 0.787451 0
M  V30 4982 C 462.052 4.37384 0.037171 0
M  V30 4983 C 461.111 5.183 0.908375 0
M  V30 4984 O 460.137 5.68053 0.361189 0
M  V30 4985 N 461.339 5.35912 2.23112 0
M  V30 4986 H 464.104 2.83771 -0.964071 0
M  V30 4987 H 461.665 1.47994 -0.656469 0
M  V30 4988 H 463.657 3.80648 1.37439 0
M  V30 4989 H 462.227 2.75004 1.48632 0
M  V30 4990 H 461.447 3.87364 -0.730935 0
M  V30 4991 H 462.735 5.0653 -0.480109 0
M  V30 4992 H 462.133 4.97125 2.69968 0
M  V30 4993 H 460.69 5.90133 2.76741 0
M  V30 4994 N 464.123 0.554532 1.47522 0
M  V30 4995 C 465.351 0.034257 2.06872 0
M  V30 4996 C 465.766 -1.25826 1.40759 0
M  V30 4997 O 465.123 -1.75425 0.503217 0
M  V30 4998 C 465.174 -0.167827 3.6111 0
M  V30 4999 O 464.895 1.07351 4.24744 0
M  V30 5000 C 466.396 -0.72569 4.3732 0
M  V30 5001 H 463.616 0.0446275 0.669514 0
M  V30 5002 H 466.16 0.767181 1.89564 0
M  V30 5003 H 464.315 -0.850872 3.7794 0
M  V30 5004 H 464.729 0.869563 5.17242 0
M  V30 5005 H 466.203 -0.816394 5.45929 0
M  V30 5006 H 466.68 -1.73635 4.0342 0
M  V30 5007 H 467.286 -0.0784292 4.25228 0
M  V30 5008 N 465.601 -1.54893 0.290851 0
M  V30 5009 C 466.826 -2.04804 -0.32712 0
M  V30 5010 C 467.251 -1.16721 -1.47506 0
M  V30 5011 O 466.609 -0.169107 -1.8051 0
M  V30 5012 C 466.657 -3.52268 -0.770689 0
M  V30 5013 O 465.761 -3.67236 -1.87647 0
M  V30 5014 H 465.102 -0.660789 -0.0652227 0
M  V30 5015 H 467.632 -2.00036 0.429739 0
M  V30 5016 H 467.642 -3.9393 -1.06223 0
M  V30 5017 H 466.317 -4.15843 0.069096 0
M  V30 5018 H 464.894 -3.37479 -1.58626 0
M  V30 5019 N 467.08 -0.0183926 -1.57589 0
M  V30 5020 C 468.028 0.985111 -2.10709 0
M  V30 5021 C 469.022 1.34397 -1.0312 0
M  V30 5022 O 470.228 1.32746 -1.21567 0
M  V30 5023 H 466.603 0.335418 -0.673052 0
M  V30 5024 H 468.574 0.511689 -2.9398 0
M  V30 5025 C 467.323 2.26202 -2.64061 0
M  V30 5026 H 466.646 1.9946 -3.4649 0
M  V30 5027 H 468.086 2.94652 -3.04887 0
M  V30 5028 C 466.545 2.98444 -1.5631 0
M  V30 5029 O 467.075 3.90142 -0.956674 0
M  V30 5030 N 465.281 2.6059 -1.28612 0
M  V30 5031 H 464.828 1.86101 -1.78112 0
M  V30 5032 H 464.786 3.09238 -0.567406 0
M  V30 5033 N 468.558 1.5553 0.254621 0
M  V30 5034 C 469.805 1.77 0.983736 0
M  V30 5035 C 470.133 0.58133 1.85609 0
M  V30 5036 O 469.388 -0.435621 1.9079 0
M  V30 5037 C 469.687 3.03891 1.88109 0
M  V30 5038 C 469.353 4.35597 1.16472 0
M  V30 5039 C 468.015 4.7139 0.966714 0
M  V30 5040 C 470.367 5.1705 0.656387 0
M  V30 5041 C 467.695 5.86176 0.247942 0
M  V30 5042 C 470.047 6.32581 -0.0488807 0
M  V30 5043 C 468.711 6.67 -0.258438 0
M  V30 5044 H 467.981 0.647688 0.359974 0
M  V30 5045 H 470.628 1.89802 0.254463 0
M  V30 5046 H 468.933 2.86068 2.67717 0
M  V30 5047 H 470.63 3.17701 2.44677 0
M  V30 5048 H 467.22 4.07475 1.32899 0
M  V30 5049 H 471.404 4.8986 0.796933 0
M  V30 5050 H 466.66 6.11354 0.075035 0
M  V30 5051 H 470.834 6.94942 -0.450444 0
M  V30 5052 H 468.461 7.55793 -0.817358 0
M  V30 5053 N 470.036 -0.519951 1.48776 0
M  V30 5054 C 471.452 -0.849418 1.35119 0
M  V30 5055 C 471.652 -1.98077 0.36982 0
M  V30 5056 O 470.708 -2.51664 -0.205359 0
M  V30 5057 C 472.021 -1.20748 2.75391 0
M  V30 5058 C 473.569 -1.31679 2.83954 0
M  V30 5059 C 474.044 -1.70824 4.24951 0
M  V30 5060 N 475.535 -1.77908 4.27672 0
M  V30 5061 C 476.27 -2.09603 5.33717 0
M  V30 5062 N 475.766 -2.39652 6.5003 0
M  V30 5063 N 477.559 -2.10694 5.21119 0
M  V30 5064 H 469.71 0.226377 2.1119 0
M  V30 5065 H 471.973 0.0386519 0.947212 0
M  V30 5066 H 471.679 -0.449703 3.48813 0
M  V30 5067 H 471.553 -2.15534 3.09556 0
M  V30 5068 H 473.94 -2.06532 2.10781 0
M  V30 5069 H 474.021 -0.3499 2.53396 0
M  V30 5070 H 473.665 -0.965282 4.98643 0
M  V30 5071 H 473.595 -2.6858 4.52959 0
M  V30 5072 H 476.086 -1.56923 3.43779 0
M  V30 5073 H 476.399 -2.6297 7.26682 0
M  V30 5074 H 474.744 -2.37149 6.53288 0
M  V30 5075 H 477.935 -1.86682 4.29264 0
M  V30 5076 H 478.108 -2.35062 6.03863 0
M  V30 5077 N 471.514 -1.37532 -0.769588 0
M  V30 5078 C 472.76 -1.33057 -1.53048 0
M  V30 5079 C 473.093 0.0841865 -1.94017 0
M  V30 5080 O 472.368 1.04198 -1.64235 0
M  V30 5081 C 472.651 -2.27166 -2.79406 0
M  V30 5082 C 472.504 -3.77429 -2.44677 0
M  V30 5083 C 473.823 -2.19683 -3.81349 0
M  V30 5084 H 470.942 -0.484655 -0.555228 0
M  V30 5085 H 473.584 -1.68251 -0.882702 0
M  V30 5086 H 471.734 -1.97283 -3.34682 0
M  V30 5087 H 473.406 -4.17918 -1.953 0
M  V30 5088 H 471.649 -3.95892 -1.77346 0
M  V30 5089 H 472.32 -4.38716 -3.35011 0
M  V30 5090 H 474.796 -2.46029 -3.35573 0
M  V30 5091 H 473.672 -2.87668 -4.67481 0
M  V30 5092 H 473.933 -1.19045 -4.25771 0
M  V30 5093 N 472.992 0.995999 -1.22138 0
M  V30 5094 C 473.924 2.08745 -0.946485 0
M  V30 5095 C 474.937 1.62633 0.0737356 0
M  V30 5096 O 476.126 1.77782 -0.159886 0
M  V30 5097 C 473.226 3.36516 -0.401305 0
M  V30 5098 C 472.399 4.11672 -1.47801 0
M  V30 5099 C 471.458 5.17728 -0.940461 0
M  V30 5100 O 470.484 5.45482 -1.62596 0
M  V30 5101 N 471.686 5.80005 0.239723 0
M  V30 5102 H 474.451 2.32908 -1.88611 0
M  V30 5103 H 472.012 1.16152 -1.12785 0
M  V30 5104 H 474.004 4.04691 -0.0270837 0
M  V30 5105 H 472.574 3.0944 0.443354 0
M  V30 5106 H 471.794 3.38171 -2.02568 0
M  V30 5107 H 473.082 4.58657 -2.20253 0
M  V30 5108 H 472.48 5.5982 0.813518 0
M  V30 5109 H 471.037 6.4943 0.555361 0
M  V30 5110 N 474.47 1.03057 1.19235 0
M  V30 5111 C 475.881 0.757449 1.70645 0
M  V30 5112 C 476.232 -0.722735 1.82403 0
M  V30 5113 O 475.357 -1.56325 1.49638 0
M  V30 5114 C 475.952 1.36833 3.09939 0
M  V30 5115 C 474.511 1.14375 3.58602 0
M  V30 5116 C 473.658 1.46533 2.35422 0
M  V30 5117 H 476.609 1.19828 1.04052 0
M  V30 5118 H 476.63 0.766184 3.72706 0
M  V30 5119 H 476.142 2.44562 3.01349 0
M  V30 5120 H 474.243 0.0847542 3.72504 0
M  V30 5121 H 474.356 1.83366 4.42622 0
M  V30 5122 H 472.72 0.884712 2.38841 0
M  V30 5123 H 473.503 2.55349 2.2946 0
M  V30 5124 N 475.948 -1.35272 0.808662 0
M  V30 5125 C 477.176 -2.02946 0.402537 0
M  V30 5126 C 477.591 -1.60937 -0.987147 0
M  V30 5127 O 476.948 -0.807917 -1.63643 0
M  V30 5128 C 476.999 -3.58317 0.47868 0
M  V30 5129 O 476.72 -3.98799 1.81358 0
M  V30 5130 C 478.221 -4.43251 0.0656281 0
M  V30 5131 H 475.441 -0.650831 0.163279 0
M  V30 5132 H 477.985 -1.72849 1.09286 0
M  V30 5133 H 476.14 -3.87055 -0.163415 0
M  V30 5134 H 476.554 -4.93451 1.77781 0
M  V30 5135 H 478.028 -5.51738 0.170017 0
M  V30 5136 H 478.505 -4.27913 -0.989278 0
M  V30 5137 H 479.111 -4.19813 0.68096 0
M  V30 5138 N 477.426 -0.562348 -1.47226 0
M  V30 5139 C 478.336 0.185466 -2.33866 0
M  V30 5140 C 479.352 0.906713 -1.48508 0
M  V30 5141 O 480.528 0.874458 -1.81425 0
M  V30 5142 C 477.593 1.19904 -3.25306 0
M  V30 5143 C 476.654 0.484669 -4.26555 0
M  V30 5144 C 475.887 1.44996 -5.13626 0
M  V30 5145 O 476.11 2.68515 -5.03245 0
M  V30 5146 O 475.044 0.971642 -5.94006 0
M  V30 5147 H 478.87 -0.525361 -2.99121 0
M  V30 5148 H 476.455 -0.322916 -1.45868 0
M  V30 5149 H 478.337 1.78399 -3.81774 0
M  V30 5150 H 477.012 1.8917 -2.62672 0
M  V30 5151 H 475.919 -0.141605 -3.73832 0
M  V30 5152 H 477.252 -0.166634 -4.91918 0
M  V30 5153 N 478.904 1.54736 -0.299062 0
M  V30 5154 C 480.129 2.04975 0.316254 0
M  V30 5155 C 480.554 1.17501 1.46885 0
M  V30 5156 O 479.912 0.178678 1.80417 0
M  V30 5157 C 479.96 3.52672 0.751997 0
M  V30 5158 O 479.064 3.68226 1.85697 0
M  V30 5159 H 478.405 0.661126 0.0617175 0
M  V30 5160 H 480.935 1.99805 -0.440341 0
M  V30 5161 H 480.945 3.94488 1.04133 0
M  V30 5162 H 479.62 4.158 -0.0911482 0
M  V30 5163 H 478.197 3.38316 1.56834 0
M  V30 5164 N 480.382 0.0267497 1.57577 0
M  V30 5165 C 481.631 -0.651736 1.9088 0
M  V30 5166 C 481.944 -1.73427 0.904576 0
M  V30 5167 O 483.15 -2.46923 1.12877 0
M  V30 5168 C 481.606 -1.21048 3.38933 0
M  V30 5169 C 481.214 -0.161362 4.47709 0
M  V30 5170 C 482.958 -1.86562 3.81307 0
M  V30 5171 C 480.865 -0.731611 5.86857 0
M  V30 5172 H 479.795 -0.247198 0.712326 0
M  V30 5173 H 482.446 0.0916641 1.83271 0
M  V30 5174 H 480.828 -2.00542 3.41466 0
M  V30 5175 H 482.002 0.61094 4.56732 0
M  V30 5176 H 480.317 0.394877 4.14523 0
M  V30 5177 H 482.914 -2.30178 4.8262 0
M  V30 5178 H 483.257 -2.70735 3.16241 0
M  V30 5179 H 483.79 -1.13762 3.81186 0
M  V30 5180 H 480.529 0.0719329 6.55461 0
M  V30 5181 H 480.049 -1.47245 5.81445 0
M  V30 5182 H 481.728 -1.22208 6.35354 0
M  V30 5183 N 481.861 -1.55662 -0.24637 0
M  V30 5184 C 483.107 -1.77782 -0.975779 0
M  V30 5185 C 483.44 -0.592103 -1.84953 0
M  V30 5186 O 482.715 0.409588 -1.90138 0
M  V30 5187 C 482.998 -3.09788 -1.83584 0
M  V30 5188 C 482.851 -4.38764 -0.990241 0
M  V30 5189 C 484.17 -3.38029 -2.81823 0
M  V30 5190 H 481.289 -0.646789 -0.353317 0
M  V30 5191 H 483.931 -1.88398 -0.246248 0
M  V30 5192 H 482.081 -3.00869 -2.45784 0
M  V30 5193 H 483.753 -4.59675 -0.386897 0
M  V30 5194 H 481.996 -4.32798 -0.294626 0
M  V30 5195 H 482.667 -5.27514 -1.62584 0
M  V30 5196 H 485.143 -3.46915 -2.2976 0
M  V30 5197 H 484.019 -4.3161 -3.39122 0
M  V30 5198 H 484.28 -2.58968 -3.58313 0
M  V30 5199 N 483.339 0.512053 -1.4905 0
M  V30 5200 C 484.755 0.84224 -1.35567 0
M  V30 5201 C 484.955 1.97878 -0.380319 0
M  V30 5202 O 484.011 2.51769 0.19201 0
M  V30 5203 C 485.324 1.19286 -2.76028 0
M  V30 5204 C 486.872 1.30171 -2.84648 0
M  V30 5205 C 487.347 1.68568 -4.25851 0
M  V30 5206 N 488.838 1.75638 -4.28609 0
M  V30 5207 C 489.573 2.06769 -5.34821 0
M  V30 5208 N 489.069 2.36201 -6.51292 0
M  V30 5209 N 490.862 2.07927 -5.22229 0
M  V30 5210 H 483.013 -0.237574 -2.11067 0
M  V30 5211 H 485.276 -0.0436747 -0.946993 0
M  V30 5212 H 484.982 0.431199 -3.49047 0
M  V30 5213 H 484.856 2.13889 -3.10695 0
M  V30 5214 H 487.243 2.05411 -2.11873 0
M  V30 5215 H 487.324 0.336457 -2.53578 0
M  V30 5216 H 486.968 0.938824 -4.99148 0
M  V30 5217 H 486.898 2.66174 -4.54377 0
M  V30 5218 H 489.389 1.55097 -3.44606 0
M  V30 5219 H 489.702 2.59112 -7.28066 0
M  V30 5220 H 488.047 2.33681 -6.54536 0
M  V30 5221 H 491.238 1.84403 -4.30248 0
M  V30 5222 H 491.411 2.31856 -6.05101 0
M  V30 5223 N 484.817 1.37938 0.762283 0
M  V30 5224 C 486.064 1.33668 1.52115 0
M  V30 5225 C 486.392 -0.0759538 1.94352 0
M  V30 5226 O 485.647 -1.05121 1.6507 0
M  V30 5227 C 485.946 2.23042 2.79261 0
M  V30 5228 C 485.612 3.71159 2.56031 0
M  V30 5229 C 484.274 4.11523 2.49404 0
M  V30 5230 C 486.626 4.64955 2.35513 0
M  V30 5231 C 483.954 5.43784 2.20263 0
M  V30 5232 C 486.306 5.97464 2.07894 0
M  V30 5233 C 484.97 6.36922 1.99718 0
M  V30 5234 H 484.24 0.489127 0.556629 0
M  V30 5235 H 486.887 1.70224 0.877262 0
M  V30 5236 H 485.192 1.79512 3.48256 0
M  V30 5237 H 486.889 2.17047 3.37182 0
M  V30 5238 H 483.479 3.39153 2.62056 0
M  V30 5239 H 487.663 4.34623 2.39617 0
M  V30 5240 H 482.919 5.73307 2.12435 0
M  V30 5241 H 487.093 6.6969 1.91019 0
M  V30 5242 H 484.72 7.39331 1.76902 0
M  V30 5243 N 486.295 -0.989507 1.22664 0
M  V30 5244 C 487.706 -1.54406 1.04955 0
M  V30 5245 C 488.057 -1.92366 -0.385951 0
M  V30 5246 O 487.182 -1.75111 -1.27142 0
M  V30 5247 C 487.777 -2.80578 1.89899 0
M  V30 5248 C 486.336 -3.32464 1.76478 0
M  V30 5249 C 485.483 -2.05524 1.86159 0
M  V30 5250 H 488.434 -0.810211 1.3646 0
M  V30 5251 H 488.455 -3.53075 1.4184 0
M  V30 5252 H 487.967 -2.52918 2.94371 0
M  V30 5253 H 486.068 -3.65024 0.747528 0
M  V30 5254 H 486.181 -4.02838 2.59342 0
M  V30 5255 H 484.545 -2.19241 1.29636 0
M  V30 5256 H 485.328 -1.80258 2.92168 0
M  V30 5257 N 487.773 -1.03688 -1.18687 0
M  V30 5258 C 488.721 -0.618292 -2.24232 0
M  V30 5259 C 489.715 0.353045 -1.6568 0
M  V30 5260 O 490.921 0.220749 -1.78641 0
M  V30 5261 H 487.296 -0.181711 -0.729716 0
M  V30 5262 H 489.267 -1.51893 -2.56848 0
M  V30 5263 C 488.016 0.00677342 -3.47699 0
M  V30 5264 H 487.339 -0.731692 -3.93047 0
M  V30 5265 H 488.779 0.262492 -4.23187 0
M  V30 5266 C 487.238 1.25572 -3.12623 0
M  V30 5267 O 487.768 2.34691 -3.26011 0
M  V30 5268 N 485.974 1.14755 -2.66982 0
M  V30 5269 H 485.521 0.259601 -2.56289 0
M  V30 5270 H 485.479 1.98412 -2.43885 0
M  V30 5271 N 489.251 1.34841 -0.815825 0
M  V30 5272 C 490.5 1.97755 -0.396976 0
M  V30 5273 C 490.813 1.65422 1.04379 0
M  V30 5274 O 492.019 2.21771 1.5662 0
M  V30 5275 C 490.475 3.53818 -0.658869 0
M  V30 5276 C 490.083 3.95051 -2.11278 0
M  V30 5277 C 491.827 4.23397 -0.305834 0
M  V30 5278 C 489.734 5.43997 -2.31994 0
M  V30 5279 H 488.664 0.739985 -0.1447 0
M  V30 5280 H 491.315 1.53781 -1.00118 0
M  V30 5281 H 489.697 3.95997 0.0154112 0
M  V30 5282 H 490.871 3.63998 -2.82564 0
M  V30 5283 H 489.186 3.38388 -2.42657 0
M  V30 5284 H 491.783 5.32899 -0.43854 0
M  V30 5285 H 492.126 4.09508 0.748952 0
M  V30 5286 H 492.659 3.8667 -0.934403 0
M  V30 5287 H 489.398 5.62865 -3.35952 0
M  V30 5288 H 488.918 5.76589 -1.65244 0
M  V30 5289 H 490.597 6.10584 -2.14001 0
M  V30 5290 N 490.729 0.570148 1.46925 0
M  V30 5291 C 491.957 0.0561966 2.06824 0
M  V30 5292 C 492.372 -1.24326 1.42086 0
M  V30 5293 O 491.729 -1.74882 0.521794 0
M  V30 5294 C 491.78 -0.129517 3.61268 0
M  V30 5295 O 491.501 1.1185 4.23581 0
M  V30 5296 C 493.002 -0.679266 4.38065 0
M  V30 5297 H 490.222 0.0517261 0.669003 0
M  V30 5298 H 492.766 0.787243 1.8874 0
M  V30 5299 H 490.921 -0.810739 3.78822 0
M  V30 5300 H 491.335 0.924375 5.1629 0
M  V30 5301 H 492.809 -0.758445 5.46765 0
M  V30 5302 H 493.286 -1.69346 4.05239 0
M  V30 5303 H 493.892 -0.0333237 4.25287 0
M  V30 5304 N 492.207 -1.54576 0.307264 0
M  V30 5305 C 493.155 -2.25208 -0.581723 0
M  V30 5306 C 494.149 -1.26031 -1.13192 0
M  V30 5307 O 495.355 -1.43862 -1.08184 0
M  V30 5308 H 491.73 -0.723173 -0.206214 0
M  V30 5309 H 493.701 -2.98378 0.0364663 0
M  V30 5310 C 492.45 -3.01086 -1.73904 0
M  V30 5311 H 491.773 -3.77208 -1.32491 0
M  V30 5312 H 493.213 -3.5378 -2.33701 0
M  V30 5313 C 491.672 -2.08422 -2.64692 0
M  V30 5314 O 492.202 -1.65636 -3.65961 0
M  V30 5315 N 490.408 -1.74247 -2.32564 0
M  V30 5316 H 489.955 -2.09238 -1.50257 0
M  V30 5317 H 489.913 -1.12524 -2.93574 0
M  V30 5318 N 493.685 -0.035106 -1.57561 0
M  V30 5319 C 494.615 0.942993 -2.13612 0
M  V30 5320 C 495.596 1.33531 -1.05373 0
M  V30 5321 O 496.781 1.41287 -1.33235 0
M  V30 5322 C 493.911 2.22332 -2.66807 0
M  V30 5323 C 492.865 1.97156 -3.79886 0
M  V30 5324 C 492.191 3.31506 -4.19533 0
M  V30 5325 C 493.491 1.30596 -5.05709 0
M  V30 5326 H 495.185 0.476179 -2.95589 0
M  V30 5327 H 492.731 0.227602 -1.4219 0
M  V30 5328 H 494.684 2.91142 -3.04654 0
M  V30 5329 H 493.408 2.7119 -1.81999 0
M  V30 5330 H 492.067 1.30763 -3.42486 0
M  V30 5331 H 491.715 3.78134 -3.31698 0
M  V30 5332 H 491.415 3.15465 -4.95738 0
M  V30 5333 H 492.939 4.01574 -4.59968 0
M  V30 5334 H 494.353 1.89416 -5.41105 0
M  V30 5335 H 492.75 1.24934 -5.86951 0
M  V30 5336 H 493.82 0.279742 -4.84092 0
M  V30 5337 N 495.163 1.55791 0.238111 0
M  V30 5338 C 496.403 1.79801 0.972163 0
M  V30 5339 C 496.767 0.606027 1.82185 0
M  V30 5340 O 497.968 0.725079 2.58836 0
M  V30 5341 C 496.239 3.08608 1.80266 0
M  V30 5342 S 497.798 3.53872 2.59461 0
M  V30 5343 H 494.616 0.631418 0.326852 0
M  V30 5344 H 497.218 1.94031 0.239212 0
M  V30 5345 H 495.922 3.93419 1.1683 0
M  V30 5346 H 495.453 2.9714 2.57821 0
M  V30 5347 H 497.468 3.15899 3.82651 0
M  V30 5348 N 496.642 -0.504142 1.49319 0
M  V30 5349 C 498.053 -1.08572 1.51885 0
M  V30 5350 C 498.404 -1.93842 0.303255 0
M  V30 5351 O 497.529 -2.0828 -0.58724 0
M  V30 5352 C 498.124 -1.97574 2.75227 0
M  V30 5353 C 496.683 -2.509 2.80581 0
M  V30 5354 C 495.83 -1.28447 2.45757 0
M  V30 5355 H 498.781 -0.288194 1.56061 0
M  V30 5356 H 498.802 -2.82219 2.55211 0
M  V30 5357 H 498.314 -1.35486 3.63683 0
M  V30 5358 H 496.415 -3.16636 1.96398 0
M  V30 5359 H 496.528 -2.88268 3.82673 0
M  V30 5360 H 494.892 -1.60868 1.97468 0
M  V30 5361 H 495.675 -0.68072 3.36483 0
M  V30 5362 N 498.12 -1.38341 -0.754957 0
M  V30 5363 C 499.367 -1.34473 -1.51404 0
M  V30 5364 C 499.695 0.0656458 -1.94389 0
M  V30 5365 O 498.95 1.04244 -1.65625 0
M  V30 5366 C 499.249 -2.2452 -2.78075 0
M  V30 5367 C 498.915 -3.72512 -2.54059 0
M  V30 5368 C 497.577 -4.1284 -2.47218 0
M  V30 5369 C 499.929 -4.66197 -2.33044 0
M  V30 5370 C 497.257 -5.44945 -2.17376 0
M  V30 5371 C 499.609 -5.98558 -2.04723 0
M  V30 5372 C 498.273 -6.37972 -1.96337 0
M  V30 5373 H 497.543 -0.492072 -0.554027 0
M  V30 5374 H 500.19 -1.70687 -0.868223 0
M  V30 5375 H 498.495 -1.81357 -3.473 0
M  V30 5376 H 500.192 -2.18832 -3.36026 0
M  V30 5377 H 496.782 -3.40538 -2.60253 0
M  V30 5378 H 500.966 -4.35888 -2.37309 0
M  V30 5379 H 496.222 -5.74426 -2.09391 0
M  V30 5380 H 500.396 -6.70693 -1.87465 0
M  V30 5381 H 498.023 -7.40258 -1.72978 0
M  V30 5382 N 499.598 0.982988 -1.23187 0
M  V30 5383 C 500.846 1.72052 -1.06031 0
M  V30 5384 C 501.167 1.90769 0.404019 0
M  V30 5385 O 500.437 1.47446 1.28982 0
M  V30 5386 H 499.017 0.637499 -0.389363 0
M  V30 5387 H 501.679 1.18338 -1.54862 0
M  V30 5388 H 500.775 2.7111 -1.54615 0
M  V30 5389 N 501.076 1.04316 1.18135 0
M  V30 5390 C 501.986 0.646876 2.25505 0
M  V30 5391 C 503.002 -0.328008 1.7088 0
M  V30 5392 O 504.178 -0.182309 2.00573 0
M  V30 5393 C 501.243 0.0185664 3.46695 0
M  V30 5394 C 500.304 1.04277 4.16443 0
M  V30 5395 C 499.537 0.444352 5.31847 0
M  V30 5396 O 499.76 -0.748735 5.65465 0
M  V30 5397 O 498.694 1.17428 5.90334 0
M  V30 5398 H 502.52 1.54147 2.61672 0
M  V30 5399 H 500.105 0.814188 1.25265 0
M  V30 5400 H 501.987 -0.331068 4.20097 0
M  V30 5401 H 500.662 -0.849814 3.12346 0
M  V30 5402 H 499.569 1.44425 3.45098 0
M  V30 5403 H 500.902 1.882 4.54798 0
M  V30 5404 N 502.554 -1.34406 0.822964 0
M  V30 5405 C 503.8 -1.98578 0.411666 0
M  V30 5406 C 504.133 -1.65093 -1.02264 0
M  V30 5407 O 503.408 -0.92258 -1.71227 0
M  V30 5408 C 503.691 -3.54823 0.614235 0
M  V30 5409 C 503.544 -3.9805 2.09466 0
M  V30 5410 C 504.863 -4.40071 0.050221 0
M  V30 5411 H 501.982 -0.721355 0.151047 0
M  V30 5412 H 504.624 -1.59301 1.03554 0
M  V30 5413 H 502.774 -3.88411 0.0831774 0
M  V30 5414 H 504.446 -3.74795 2.68936 0
M  V30 5415 H 502.689 -3.4836 2.5851 0
M  V30 5416 H 503.36 -5.06819 2.18721 0
M  V30 5417 H 505.836 -4.13037 0.503953 0
M  V30 5418 H 504.712 -5.48452 0.221759 0
M  V30 5419 H 504.973 -4.29576 -1.04482 0
M  V30 5420 N 504.032 -0.577932 -1.46621 0
M  V30 5421 C 505.279 -0.0616879 -2.02406 0
M  V30 5422 C 505.607 1.29638 -1.44997 0
M  V30 5423 O 504.862 1.86176 -0.60308 0
M  V30 5424 C 505.161 0.0590832 -3.57351 0
M  V30 5425 C 504.827 -1.23077 -4.33777 0
M  V30 5426 C 503.489 -1.58416 -4.54376 0
M  V30 5427 C 505.841 -2.08457 -4.77698 0
M  V30 5428 C 503.169 -2.78943 -5.16147 0
M  V30 5429 C 505.521 -3.28204 -5.408 0
M  V30 5430 C 504.185 -3.63832 -5.59627 0
M  V30 5431 H 503.455 -0.0225732 -0.740656 0
M  V30 5432 H 506.102 -0.753609 -1.76048 0
M  V30 5433 H 504.407 0.834104 -3.82818 0
M  V30 5434 H 506.104 0.474202 -3.98186 0
M  V30 5435 H 502.694 -0.945652 -4.18038 0
M  V30 5436 H 506.878 -1.82459 -4.61544 0
M  V30 5437 H 502.134 -3.06689 -5.28916 0
M  V30 5438 H 506.308 -3.94634 -5.73792 0
M  V30 5439 H 503.935 -4.57315 -6.07262 0
M  V30 5440 N 505.51 1.54411 -0.315457 0
M  V30 5441 C 506.458 2.25514 0.569771 0
M  V30 5442 C 507.452 1.2663 1.12522 0
M  V30 5443 O 508.658 1.44434 1.07419 0
M  V30 5444 H 505.033 0.724257 0.202376 0
M  V30 5445 H 507.004 2.98354 -0.0522895 0
M  V30 5446 C 505.753 3.02004 1.72305 0
M  V30 5447 H 505.076 3.77906 1.30488 0
M  V30 5448 H 506.516 3.55014 2.31821 0
M  V30 5449 C 504.975 2.09822 2.63583 0
M  V30 5450 O 505.505 1.67574 3.65078 0
M  V30 5451 N 503.711 1.75478 2.31637 0
M  V30 5452 H 503.258 2.10032 1.49145 0
M  V30 5453 H 503.216 1.14079 2.92973 0
M  V30 5454 N 506.988 0.0434614 1.5754 0
M  V30 5455 C 507.951 -0.918696 2.09982 0
M  V30 5456 C 508.951 -1.24488 1.01781 0
M  V30 5457 O 510.141 -1.18284 1.27885 0
M  V30 5458 C 507.273 -2.23093 2.57764 0
M  V30 5459 H 508.466 -0.464229 2.96285 0
M  V30 5460 H 506.019 -0.204818 1.54952 0
M  V30 5461 H 506.754 -2.73137 1.74832 0
M  V30 5462 H 506.539 -2.00724 3.36827 0
M  V30 5463 H 508.029 -2.92028 2.98512 0
M  V30 5464 N 508.466 -1.55915 -0.229846 0
M  V30 5465 C 509.694 -1.82617 -0.972562 0
M  V30 5466 C 510.109 -0.621488 -1.78278 0
M  V30 5467 O 509.466 0.409956 -1.77836 0
M  V30 5468 C 509.517 -3.0774 -1.89679 0
M  V30 5469 O 509.238 -4.23559 -1.11934 0
M  V30 5470 C 510.739 -3.47368 -2.75409 0
M  V30 5471 H 507.959 -0.60727 -0.285419 0
M  V30 5472 H 510.503 -2.02996 -0.247579 0
M  V30 5473 H 508.658 -2.89361 -2.57583 0
M  V30 5474 H 509.072 -4.94586 -1.74599 0
M  V30 5475 H 510.546 -4.37977 -3.35977 0
M  V30 5476 H 511.023 -2.68737 -3.47386 0
M  V30 5477 H 511.629 -3.68158 -2.12931 0
M  V30 5478 N 509.944 0.496216 -1.49584 0
M  V30 5479 C 511.36 0.827814 -1.36453 0
M  V30 5480 C 511.56 1.97464 -0.401285 0
M  V30 5481 O 510.616 2.51958 0.165296 0
M  V30 5482 C 511.929 1.16352 -2.77277 0
M  V30 5483 C 513.477 1.27145 -2.86013 0
M  V30 5484 C 513.952 1.64042 -4.27615 0
M  V30 5485 N 515.443 1.71082 -4.30448 0
M  V30 5486 C 516.178 2.01085 -5.36984 0
M  V30 5487 N 515.674 2.2928 -6.5376 0
M  V30 5488 N 517.467 2.02376 -5.24405 0
M  V30 5489 H 509.618 -0.259947 -2.10803 0
M  V30 5490 H 511.881 -0.0537163 -0.946477 0
M  V30 5491 H 511.587 0.394153 -3.49484 0
M  V30 5492 H 511.461 2.10582 -3.12946 0
M  V30 5493 H 513.848 2.03152 -2.1404 0
M  V30 5494 H 513.929 0.309542 -2.5392 0
M  V30 5495 H 513.573 0.88583 -5.00115 0
M  V30 5496 H 513.503 2.6134 -4.57175 0
M  V30 5497 H 515.994 1.51434 -3.46232 0
M  V30 5498 H 516.307 2.51376 -7.30774 0
M  V30 5499 H 514.652 2.26726 -6.56978 0
M  V30 5500 H 517.843 1.79829 -4.32179 0
M  V30 5501 H 518.016 2.25425 -6.07526 0
M  V30 5502 N 511.423 1.38739 0.74761 0
M  V30 5503 C 512.67 1.35274 1.50689 0
M  V30 5504 C 512.998 -0.0553359 1.94421 0
M  V30 5505 O 512.253 -1.03365 1.66175 0
M  V30 5506 C 512.552 2.25992 2.7688 0
M  V30 5507 C 512.218 3.73854 2.5208 0
M  V30 5508 C 510.88 4.14145 2.45025 0
M  V30 5509 C 513.232 4.67427 2.30568 0
M  V30 5510 C 510.56 5.4609 2.14483 0
M  V30 5511 C 512.912 5.99635 2.01545 0
M  V30 5512 C 511.576 6.39004 1.92951 0
M  V30 5513 H 510.846 0.495003 0.55141 0
M  V30 5514 H 513.493 1.71145 0.859158 0
M  V30 5515 H 511.798 1.83196 3.46333 0
M  V30 5516 H 513.495 2.20611 3.34861 0
M  V30 5517 H 510.085 3.41913 2.58444 0
M  V30 5518 H 514.269 4.3714 2.34994 0
M  V30 5519 H 509.525 5.75528 2.06342 0
M  V30 5520 H 513.699 6.71678 1.83906 0
M  V30 5521 H 511.326 7.41165 1.6905 0
M  V30 5522 N 512.901 -0.976442 1.23707 0
M  V30 5523 C 513.864 -2.0511 1.02287 0
M  V30 5524 C 514.864 -1.60791 -0.0167195 0
M  V30 5525 O 516.054 -1.72761 0.223408 0
M  V30 5526 C 513.186 -3.36458 0.548507 0
M  V30 5527 H 514.379 -2.25545 1.9766 0
M  V30 5528 H 511.932 -1.15042 1.05806 0
M  V30 5529 H 512.667 -3.21713 -0.408818 0
M  V30 5530 H 512.452 -3.69967 1.29874 0
M  V30 5531 H 513.942 -4.15489 0.419406 0
M  V30 5532 N 514.379 -1.04941 -1.1758 0
M  V30 5533 C 515.604 -0.778253 -1.92245 0
M  V30 5534 C 516.029 0.659707 -1.76152 0
M  V30 5535 O 515.387 1.45803 -1.07755 0
M  V30 5536 C 515.435 -1.16051 -3.41416 0
M  V30 5537 O 514.539 -0.291153 -4.11371 0
M  V30 5538 H 513.88 -0.285619 -0.599431 0
M  V30 5539 H 516.41 -1.40159 -1.49052 0
M  V30 5540 H 516.42 -1.12619 -3.92149 0
M  V30 5541 H 515.095 -2.208 -3.52449 0
M  V30 5542 H 513.672 -0.385851 -3.70898 0
M  V30 5543 N 515.857 1.33968 -0.830081 0
M  V30 5544 C 517.103 1.98357 -0.422191 0
M  V30 5545 C 517.436 1.65633 1.01387 0
M  V30 5546 O 516.711 0.931648 1.70735 0
M  V30 5547 C 516.994 3.54492 -0.633043 0
M  V30 5548 C 516.847 3.96934 -2.11574 0
M  V30 5549 C 518.166 4.40039 -0.0735584 0
M  V30 5550 H 515.285 0.720544 -0.154871 0
M  V30 5551 H 517.927 1.58749 -1.04397 0
M  V30 5552 H 516.077 3.88361 -0.103775 0
M  V30 5553 H 517.749 3.73363 -2.7092 0
M  V30 5554 H 515.992 3.46984 -2.60354 0
M  V30 5555 H 516.663 5.05651 -2.21406 0
M  V30 5556 H 519.139 4.12764 -0.52585 0
M  V30 5557 H 518.015 5.48327 -0.250841 0
M  V30 5558 H 518.276 4.30124 1.02202 0
M  V30 5559 N 517.335 0.585699 1.46312 0
M  V30 5560 C 518.565 0.0780166 2.06453 0
M  V30 5561 C 518.973 -1.2336 1.43454 0
M  V30 5562 O 518.316 -1.75734 0.535086 0
M  V30 5563 C 518.378 -0.158951 3.59148 0
M  V30 5564 C 518.042 1.06752 4.44357 0
M  V30 5565 C 519.039 1.98031 4.80708 0
M  V30 5566 C 516.724 1.2902 4.85447 0
M  V30 5567 C 518.718 3.09924 5.5698 0
M  V30 5568 C 516.405 2.41218 5.61478 0
M  V30 5569 C 517.403 3.31499 5.97158 0
M  V30 5570 O 517.091 4.41747 6.71651 0
M  V30 5571 H 516.823 0.0558894 0.673686 0
M  V30 5572 H 519.377 0.806994 1.88883 0
M  V30 5573 H 517.607 -0.942575 3.75037 0
M  V30 5574 H 519.296 -0.615513 4.01206 0
M  V30 5575 H 520.062 1.82043 4.49539 0
M  V30 5576 H 515.941 0.596567 4.57124 0
M  V30 5577 H 519.485 3.80415 5.84748 0
M  V30 5578 H 515.382 2.57167 5.9206 0
M  V30 5579 H 516.15 4.40152 6.90079 0
M  V30 5580 N 518.813 -1.54241 0.323641 0
M  V30 5581 C 519.776 -2.22997 -0.529602 0
M  V30 5582 C 520.776 -1.22345 -1.04347 0
M  V30 5583 O 521.966 -1.46924 -0.935889 0
M  V30 5584 C 519.098 -2.93409 -1.73562 0
M  V30 5585 H 520.291 -2.99815 0.0714518 0
M  V30 5586 H 517.844 -1.56121 0.0747258 0
M  V30 5587 H 518.579 -2.20729 -2.37591 0
M  V30 5588 H 518.364 -3.67217 -1.37456 0
M  V30 5589 H 519.854 -3.45794 -2.34128 0
M  V30 5590 N 520.291 -0.0518155 -1.57515 0
M  V30 5591 C 521.537 0.616839 -1.93821 0
M  V30 5592 C 521.892 1.68413 -0.930307 0
M  V30 5593 O 521.185 1.91534 0.0504231 0
M  V30 5594 C 521.379 1.25607 -3.34601 0
M  V30 5595 C 521.208 0.252222 -4.48992 0
M  V30 5596 C 519.978 -0.156031 -5.05059 0
M  V30 5597 C 522.176 -0.502613 -5.11838 0
M  V30 5598 N 520.158 -1.15267 -6.02981 0
M  V30 5599 C 521.529 -1.35232 -6.05072 0
M  V30 5600 C 523.584 -0.560855 -4.94731 0
M  V30 5601 C 522.287 -2.25505 -6.83037 0
M  V30 5602 C 524.313 -1.45102 -5.73323 0
M  V30 5603 C 523.675 -2.28845 -6.6619 0
M  V30 5604 H 519.774 0.197344 -0.75669 0
M  V30 5605 H 522.358 -0.124297 -1.94303 0
M  V30 5606 H 520.529 1.96723 -3.34895 0
M  V30 5607 H 522.261 1.88358 -3.58195 0
M  V30 5608 H 519.016 0.22306 -4.73074 0
M  V30 5609 H 519.44 -1.64791 -6.56638 0
M  V30 5610 H 524.082 0.0723639 -4.22738 0
M  V30 5611 H 521.8 -2.89872 -7.54321 0
M  V30 5612 H 525.386 -1.50066 -5.62113 0
M  V30 5613 H 524.266 -2.96608 -7.25943 0
M  V30 5614 N 521.769 1.56035 0.221574 0
M  V30 5615 C 522.717 1.93269 1.29421 0
M  V30 5616 C 523.711 0.814727 1.48521 0
M  V30 5617 O 524.917 0.999559 1.49696 0
M  V30 5618 H 521.292 0.614188 0.43391 0
M  V30 5619 H 523.263 2.82773 0.952987 0
M  V30 5620 C 522.012 2.26573 2.63742 0
M  V30 5621 H 521.335 3.12112 2.49853 0
M  V30 5622 H 522.775 2.5651 3.37607 0
M  V30 5623 C 521.234 1.09086 3.1875 0
M  V30 5624 O 521.764 0.351985 4.00155 0
M  V30 5625 N 519.97 0.874693 2.77124 0
M  V30 5626 H 519.517 1.47726 2.11033 0
M  V30 5627 H 519.475 0.0903349 3.1427 0
M  V30 5628 N 523.247 -0.488276 1.49845 0
M  V30 5629 C 524.663 -0.820566 1.3689 0
M  V30 5630 C 524.863 -1.97248 0.411752 0
M  V30 5631 O 523.919 -2.52042 -0.151931 0
M  V30 5632 C 525.232 -1.1488 2.77891 0
M  V30 5633 C 526.78 -1.25626 2.86683 0
M  V30 5634 C 527.255 -1.61772 4.28479 0
M  V30 5635 N 528.746 -1.68797 4.31349 0
M  V30 5636 C 529.481 -1.98235 5.38043 0
M  V30 5637 N 528.977 -2.2581 6.54967 0
M  V30 5638 N 530.77 -1.99593 5.2547 0
M  V30 5639 H 522.921 0.271123 2.10662 0
M  V30 5640 H 525.184 0.058735 0.946179 0
M  V30 5641 H 524.89 -0.375614 3.49688 0
M  V30 5642 H 524.764 -2.08919 3.14058 0
M  V30 5643 H 527.151 -2.02014 2.15114 0
M  V30 5644 H 527.232 -0.296072 2.54081 0
M  V30 5645 H 526.876 -0.859295 5.00578 0
M  V30 5646 H 526.806 -2.58912 4.58554 0
M  V30 5647 H 529.297 -1.49595 3.4703 0
M  V30 5648 H 529.61 -2.47497 7.32096 0
M  V30 5649 H 527.955 -2.23239 6.58171 0
M  V30 5650 H 531.146 -1.77535 4.33127 0
M  V30 5651 H 531.319 -2.222 6.08713 0
M  V30 5652 N 524.725 -1.39134 -0.740242 0
M  V30 5653 C 525.672 -1.37434 -1.8542 0
M  V30 5654 C 526.642 -0.234822 -1.64432 0
M  V30 5655 O 527.827 -0.429125 -1.85912 0
M  V30 5656 C 524.967 -1.21844 -3.22875 0
M  V30 5657 C 524.08 -2.45296 -3.55603 0
M  V30 5658 C 523.215 -2.22334 -4.82432 0
M  V30 5659 C 522.254 -3.41488 -5.07988 0
M  V30 5660 N 521.391 -3.17877 -6.26018 0
M  V30 5661 H 526.231 -2.3266 -1.86207 0
M  V30 5662 H 523.768 -1.15578 -0.909946 0
M  V30 5663 H 525.726 -1.10818 -4.02213 0
M  V30 5664 H 524.356 -0.3025 -3.21379 0
M  V30 5665 H 523.408 -2.66945 -2.71006 0
M  V30 5666 H 524.72 -3.34063 -3.7041 0
M  V30 5667 H 523.874 -2.0852 -5.69741 0
M  V30 5668 H 522.613 -1.30954 -4.6979 0
M  V30 5669 H 521.618 -3.55807 -4.19144 0
M  V30 5670 H 522.843 -4.33763 -5.22519 0
M  V30 5671 H 520.789 -2.29156 -6.14673 0
M  V30 5672 H 520.706 -4.00198 -6.41387 0
M  V30 5673 H 521.974 -3.07746 -7.16179 0
M  V30 5674 N 526.204 0.969867 -1.24223 0
M  V30 5675 C 527.62 1.23809 -1.00716 0
M  V30 5676 C 527.82 1.99469 0.285358 0
M  V30 5677 O 526.876 2.31764 1.00207 0
M  V30 5678 C 528.189 2.02734 -2.2208 0
M  V30 5679 C 529.737 2.15834 -2.26681 0
M  V30 5680 C 530.212 2.98154 -3.47661 0
M  V30 5681 N 531.703 3.05737 -3.47964 0
M  V30 5682 C 532.438 3.69785 -4.38231 0
M  V30 5683 N 531.934 4.35569 -5.3875 0
M  V30 5684 N 533.727 3.66775 -4.25949 0
M  V30 5685 H 525.878 0.463294 -2.07286 0
M  V30 5686 H 528.141 0.267348 -0.909521 0
M  V30 5687 H 527.847 1.54524 -3.15935 0
M  V30 5688 H 527.721 3.0347 -2.24021 0
M  V30 5689 H 530.108 2.63248 -1.33359 0
M  V30 5690 H 530.189 1.14453 -2.28767 0
M  V30 5691 H 529.833 2.51435 -4.41297 0
M  V30 5692 H 529.763 3.99729 -3.42818 0
M  V30 5693 H 532.254 2.58941 -2.75242 0
M  V30 5694 H 532.567 4.82251 -6.03866 0
M  V30 5695 H 530.912 4.34244 -5.42639 0
M  V30 5696 H 534.103 3.14558 -3.46657 0
M  V30 5697 H 534.276 4.16407 -4.96497 0
M  V30 5698 N 527.682 1.05563 1.17022 0
M  V30 5699 C 528.931 0.763036 1.8671 0
M  V30 5700 C 529.244 -0.712857 1.82147 0
M  V30 5701 O 530.45 -1.11955 2.47343 0
M  V30 5702 C 528.906 1.31474 3.35026 0
M  V30 5703 C 528.514 2.82034 3.48081 0
M  V30 5704 C 530.258 1.09935 4.10018 0
M  V30 5705 C 528.165 3.30486 4.90442 0
M  V30 5706 H 527.095 0.281747 0.699382 0
M  V30 5707 H 529.746 1.2734 1.32124 0
M  V30 5708 H 528.128 0.732171 3.89173 0
M  V30 5709 H 529.302 3.46178 3.04133 0
M  V30 5710 H 527.617 3.02156 2.86515 0
M  V30 5711 H 530.214 1.43632 5.15048 0
M  V30 5712 H 530.557 0.0373072 4.16283 0
M  V30 5713 H 531.09 1.64732 3.62089 0
M  V30 5714 H 527.829 4.36137 4.89352 0
M  V30 5715 H 527.349 2.71086 5.35044 0
M  V30 5716 H 529.028 3.25382 5.59227 0
M  V30 5717 N 529.16 -1.33526 0.837174 0
M  V30 5718 C 530.385 -2.0258 0.444545 0
M  V30 5719 C 530.81 -1.6258 -0.946006 0
M  V30 5720 O 530.168 -0.817548 -1.6182 0
M  V30 5721 C 530.216 -3.5605 0.571006 0
M  V30 5722 O 529.32 -4.10422 -0.403431 0
M  V30 5723 H 528.661 -0.638866 0.180958 0
M  V30 5724 H 531.191 -1.70462 1.13154 0
M  V30 5725 H 531.201 -4.05488 0.452024 0
M  V30 5726 H 529.876 -3.84509 1.58512 0
M  V30 5727 H 528.453 -3.72113 -0.242147 0
M  V30 5728 N 530.638 -0.59345 -1.46 0
M  V30 5729 C 531.586 0.146268 -2.3214 0
M  V30 5730 C 532.58 0.873743 -1.45128 0
M  V30 5731 O 533.786 0.790912 -1.61693 0
M  V30 5732 H 530.161 0.0660349 -0.749095 0
M  V30 5733 H 532.132 -0.598895 -2.92328 0
M  V30 5734 C 530.881 1.1396 -3.28494 0
M  V30 5735 H 530.204 0.589252 -3.95434 0
M  V30 5736 H 531.644 1.62738 -3.91526 0
M  V30 5737 C 530.103 2.20604 -2.54628 0
M  V30 5738 O 530.633 3.28128 -2.31722 0
M  V30 5739 N 528.839 1.95502 -2.15005 0
M  V30 5740 H 528.386 1.0807 -2.33834 0
M  V30 5741 H 528.344 2.67064 -1.65904 0
M  V30 5742 N 532.116 1.54067 -0.331816 0
M  V30 5743 C 533.356 2.02625 0.26876 0
M  V30 5744 C 533.72 1.21462 1.48697 0
M  V30 5745 O 534.921 1.59863 2.16096 0
M  V30 5746 C 533.192 3.52554 0.586577 0
M  V30 5747 S 534.751 4.23035 1.16563 0
M  V30 5748 H 531.569 0.706395 0.0807862 0
M  V30 5749 H 534.171 1.89844 -0.466856 0
M  V30 5750 H 532.875 4.09242 -0.308046 0
M  V30 5751 H 532.406 3.69432 1.35217 0
M  V30 5752 H 534.421 4.31382 2.45203 0
M  V30 5753 N 533.594 0.0601682 1.57485 0
M  V30 5754 C 534.84 -0.612501 1.93329 0
M  V30 5755 C 535.173 -1.6996 0.939526 0
M  V30 5756 O 534.448 -1.94472 -0.0330957 0
M  V30 5757 C 534.731 -1.20025 3.39508 0
M  V30 5758 C 534.584 -0.12059 4.49638 0
M  V30 5759 C 535.903 -2.10923 3.86264 0
M  V30 5760 H 533.022 -0.221185 0.703027 0
M  V30 5761 H 535.664 0.123768 1.89596 0
M  V30 5762 H 533.814 -1.82774 3.42821 0
M  V30 5763 H 535.486 0.51185 4.58452 0
M  V30 5764 H 533.729 0.550251 4.30296 0
M  V30 5765 H 534.4 -0.572019 5.49028 0
M  V30 5766 H 536.876 -1.58124 3.84884 0
M  V30 5767 H 535.752 -2.48987 4.8918 0
M  V30 5768 H 536.013 -3.01292 3.23536 0
M  V30 5769 N 535.072 -1.5615 -0.213296 0
M  V30 5770 C 536.035 -1.92249 -1.24792 0
M  V30 5771 C 537.035 -0.801828 -1.39382 0
M  V30 5772 O 538.225 -1.06948 -1.37506 0
M  V30 5773 C 535.357 -2.18056 -2.62039 0
M  V30 5774 H 536.55 -2.84793 -0.939845 0
M  V30 5775 H 534.103 -1.49559 -0.454062 0
M  V30 5776 H 534.838 -1.2809 -2.97932 0
M  V30 5777 H 534.623 -2.99703 -2.52825 0
M  V30 5778 H 536.113 -2.47051 -3.36683 0
M  V30 5779 N 536.55 0.480323 -1.50102 0
M  V30 5780 C 537.827 1.24159 -1.51142 0
M  V30 5781 C 538.207 2.09605 -0.250818 0
M  V30 5782 O 537.555 2.15274 0.766118 0
M  V30 5783 C 537.765 2.08057 -2.80202 0
M  V30 5784 C 539.113 2.66556 -3.30504 0
M  V30 5785 O 540.137 2.18308 -2.81461 0
M  V30 5786 O 538.996 3.54442 -4.15973 0
M  V30 5787 H 536.09 0.562928 -0.605839 0
M  V30 5788 H 538.636 0.492899 -1.62384 0
M  V30 5789 H 537.408 1.45032 -3.6343 0
M  V30 5790 H 537.031 2.90079 -2.71919 0
M  V30 5791 N 538.028 1.39524 0.732853 0
M  V30 5792 C 539.258 1.3994 1.51988 0
M  V30 5793 C 539.666 -0.00727973 1.89199 0
M  V30 5794 O 539.009 -0.989521 1.54771 0
M  V30 5795 C 539.071 2.21026 2.83527 0
M  V30 5796 C 538.735 3.69633 2.68738 0
M  V30 5797 C 539.732 4.62665 2.37143 0
M  V30 5798 C 537.417 4.13244 2.85542 0
M  V30 5799 C 539.411 5.97291 2.22536 0
M  V30 5800 C 537.098 5.47945 2.70554 0
M  V30 5801 C 538.096 6.39783 2.39097 0
M  V30 5802 O 537.784 7.72002 2.24204 0
M  V30 5803 H 537.516 0.479795 0.476206 0
M  V30 5804 H 540.07 1.8399 0.913054 0
M  V30 5805 H 538.3 1.71728 3.46477 0
M  V30 5806 H 539.989 2.13594 3.45156 0
M  V30 5807 H 540.755 4.30272 2.2381 0
M  V30 5808 H 536.634 3.42094 3.09019 0
M  V30 5809 H 540.178 6.68939 1.97905 0
M  V30 5810 H 536.075 5.79928 2.83466 0
M  V30 5811 H 536.843 7.8275 2.39258 0
M  V30 5812 N 539.506 -0.963266 1.24736 0
M  V30 5813 C 540.731 -1.74699 1.11781 0
M  V30 5814 C 541.156 -1.85267 -0.325258 0
M  V30 5815 O 540.514 -1.32681 -1.23553 0
M  V30 5816 C 540.562 -3.14322 1.76731 0
M  V30 5817 O 539.666 -3.99043 1.04109 0
M  V30 5818 H 539.007 -0.53684 0.390767 0
M  V30 5819 H 541.537 -1.20801 1.65131 0
M  V30 5820 H 541.547 -3.64824 1.82668 0
M  V30 5821 H 540.222 -3.05946 2.81726 0
M  V30 5822 H 538.799 -3.5752 1.05991 0
M  V30 5823 N 540.985 -1.06182 -1.16461 0
M  V30 5824 C 542.231 -0.779015 -1.87241 0
M  V30 5825 C 542.564 0.692715 -1.81425 0
M  V30 5826 O 541.839 1.5074 -1.22913 0
M  V30 5827 C 542.122 -1.2728 -3.36856 0
M  V30 5828 C 541.975 -2.80821 -3.51368 0
M  V30 5829 C 543.294 -0.879799 -4.31216 0
M  V30 5830 H 540.413 -0.284464 -0.679889 0
M  V30 5831 H 543.055 -1.31755 -1.36896 0
M  V30 5832 H 541.205 -0.814673 -3.79862 0
M  V30 5833 H 542.877 -3.34833 -3.17308 0
M  V30 5834 H 541.12 -3.19606 -2.93316 0
M  V30 5835 H 541.791 -3.10435 -4.56436 0
M  V30 5836 H 544.267 -1.27436 -3.96105 0
M  V30 5837 H 543.143 -1.25278 -5.34412 0
M  V30 5838 H 543.404 0.215372 -4.41575 0
M  V30 5839 N 542.463 1.3308 -0.844243 0
M  V30 5840 C 543.393 2.3161 -0.296493 0
M  V30 5841 C 544.374 1.59215 0.598707 0
M  V30 5842 O 545.559 1.87077 0.521134 0
M  V30 5843 C 542.689 3.43313 0.524762 0
M  V30 5844 C 541.643 4.27115 -0.275106 0
M  V30 5845 C 540.969 5.30483 0.670236 0
M  V30 5846 C 542.269 5.00443 -1.49514 0
M  V30 5847 H 543.963 2.77672 -1.11976 0
M  V30 5848 H 541.509 1.33496 -0.539899 0
M  V30 5849 H 543.462 4.11273 0.918298 0
M  V30 5850 H 542.186 2.95952 1.3813 0
M  V30 5851 H 540.845 3.60787 -0.650267 0
M  V30 5852 H 540.493 4.79379 1.52332 0
M  V30 5853 H 540.193 5.87435 0.139123 0
M  V30 5854 H 541.717 6.01308 1.06117 0
M  V30 5855 H 543.131 5.61141 -1.17447 0
M  V30 5856 H 541.528 5.67071 -1.96343 0
M  V30 5857 H 542.598 4.28906 -2.26202 0
M  V30 5858 N 543.941 0.601185 1.45683 0
M  V30 5859 C 545.171 0.0999093 2.06358 0
M  V30 5860 C 545.579 -1.21831 1.44754 0
M  V30 5861 O 544.922 -1.75157 0.553695 0
M  V30 5862 C 544.984 -0.12085 3.59297 0
M  V30 5863 C 544.648 1.11459 4.432 0
M  V30 5864 C 545.645 2.03118 4.7858 0
M  V30 5865 C 543.33 1.34162 4.84051 0
M  V30 5866 C 545.324 3.15814 5.53661 0
M  V30 5867 C 543.011 2.4716 5.58888 0
M  V30 5868 C 544.009 3.37814 5.93608 0
M  V30 5869 O 543.697 4.48846 6.66928 0
M  V30 5870 H 543.429 0.0630316 0.673055 0
M  V30 5871 H 545.983 0.826982 1.88016 0
M  V30 5872 H 544.213 -0.902744 3.76015 0
M  V30 5873 H 545.902 -0.572925 4.01836 0
M  V30 5874 H 546.668 1.86801 4.47583 0
M  V30 5875 H 542.547 0.645018 4.56465 0
M  V30 5876 H 546.091 3.86596 5.8068 0
M  V30 5877 H 541.988 2.63432 5.89299 0
M  V30 5878 H 542.756 4.47446 6.85371 0
M  V30 5879 N 545.419 -1.53889 0.339982 0
M  V30 5880 C 546.367 -2.26391 -0.533822 0
M  V30 5881 C 547.361 -1.28404 -1.10493 0
M  V30 5882 O 548.567 -1.46124 -1.05108 0
M  V30 5883 H 544.942 -0.727385 -0.190828 0
M  V30 5884 H 546.913 -2.98233 0.0997484 0
M  V30 5885 C 545.662 -3.04707 -1.67479 0
M  V30 5886 H 544.985 -3.79934 -1.2446 0
M  V30 5887 H 546.425 -3.58657 -2.26144 0
M  V30 5888 C 544.884 -2.13989 -2.60212 0
M  V30 5889 O 545.414 -1.73361 -3.62366 0
M  V30 5890 N 543.62 -1.79141 -2.28816 0
M  V30 5891 H 543.167 -2.12378 -1.45785 0
M  V30 5892 H 543.125 -1.18725 -2.91121 0
M  V30 5893 N 546.897 -0.0685191 -1.57451 0
M  V30 5894 C 548.122 0.613919 -1.98106 0
M  V30 5895 C 548.547 1.62551 -0.946501 0
M  V30 5896 O 547.905 1.81085 0.0882824 0
M  V30 5897 C 547.953 1.26189 -3.378 0
M  V30 5898 O 547.057 2.37773 -3.36954 0
M  V30 5899 H 546.398 0.158163 -0.644888 0
M  V30 5900 H 548.928 -0.142063 -2.04106 0
M  V30 5901 H 548.938 1.60951 -3.74912 0
M  V30 5902 H 547.613 0.520625 -4.12629 0
M  V30 5903 H 546.19 2.04829 -3.11608 0
M  V30 5904 N 548.375 1.56261 0.205012 0
M  V30 5905 C 549.338 1.92908 1.23771 0
M  V30 5906 C 550.338 0.809208 1.38955 0
M  V30 5907 O 551.528 1.07676 1.36936 0
M  V30 5908 C 548.66 2.19442 2.60879 0
M  V30 5909 H 549.853 2.85287 0.924728 0
M  V30 5910 H 547.406 1.49798 0.446125 0
M  V30 5911 H 548.141 1.29668 2.97248 0
M  V30 5912 H 547.926 3.0104 2.51232 0
M  V30 5913 H 549.416 2.48833 3.35368 0
M  V30 5914 N 549.853 -0.472356 1.50355 0
M  V30 5915 C 551.078 -1.25251 1.65309 0
M  V30 5916 C 551.503 -1.85081 0.335643 0
M  V30 5917 O 550.861 -1.67227 -0.700335 0
M  V30 5918 C 550.909 -2.3379 2.74544 0
M  V30 5919 O 550.013 -3.38401 2.35709 0
M  V30 5920 H 549.354 -0.368539 0.552336 0
M  V30 5921 H 551.884 -0.562271 1.96722 0
M  V30 5922 H 551.894 -2.79121 2.97583 0
M  V30 5923 H 550.569 -1.89614 3.70161 0
M  V30 5924 H 549.146 -2.9879 2.23112 0
M  V30 5925 N 551.331 -1.39911 -0.725443 0
M  V30 5926 C 552.578 -1.37654 -1.48518 0
M  V30 5927 C 552.906 0.0243982 -1.94485 0
M  V30 5928 O 552.161 1.00708 -1.67799 0
M  V30 5929 C 552.46 -2.30368 -2.7325 0
M  V30 5930 C 552.126 -3.77817 -2.461 0
M  V30 5931 C 550.788 -4.17991 -2.38405 0
M  V30 5932 C 553.14 -4.71036 -2.23103 0
M  V30 5933 C 550.468 -5.49433 -2.05768 0
M  V30 5934 C 552.82 -6.02766 -1.9198 0
M  V30 5935 C 551.484 -6.41993 -1.82761 0
M  V30 5936 H 550.754 -0.503713 -0.543465 0
M  V30 5937 H 553.401 -1.7249 -0.831822 0
M  V30 5938 H 551.706 -1.88683 -3.43375 0
M  V30 5939 H 553.403 -2.2591 -3.31309 0
M  V30 5940 H 549.993 -3.45982 -2.52972 0
M  V30 5941 H 554.177 -4.40823 -2.2801 0
M  V30 5942 H 549.433 -5.78738 -1.9716 0
M  V30 5943 H 553.607 -6.74519 -1.73197 0
M  V30 5944 H 551.234 -7.43761 -1.57237 0
M  V30 5945 N 552.809 0.956637 -1.25245 0
M  V30 5946 C 554.034 1.74104 -1.12706 0
M  V30 5947 C 554.459 1.85436 0.315429 0
M  V30 5948 O 553.817 1.33334 1.22848 0
M  V30 5949 C 553.865 3.1338 -1.78396 0
M  V30 5950 O 552.969 3.98485 -1.06224 0
M  V30 5951 H 552.31 0.53476 -0.393609 0
M  V30 5952 H 554.84 1.19924 -1.65769 0
M  V30 5953 H 554.85 3.6385 -1.846 0
M  V30 5954 H 553.525 3.04448 -2.83345 0
M  V30 5955 H 552.102 3.56952 -1.07886 0
M  V30 5956 N 554.287 1.06798 1.15896 0
M  V30 5957 C 555.515 0.808694 1.90441 0
M  V30 5958 C 555.93 -0.637506 1.77711 0
M  V30 5959 O 555.287 -1.43684 1.12522 0
M  V30 5960 C 555.338 1.20068 3.40978 0
M  V30 5961 O 555.059 2.59013 3.53333 0
M  V30 5962 C 556.56 0.96987 4.3256 0
M  V30 5963 H 553.78 0.292809 0.603742 0
M  V30 5964 H 556.324 1.42296 1.46874 0
M  V30 5965 H 554.479 0.630842 3.82229 0
M  V30 5966 H 554.893 2.7485 4.46719 0
M  V30 5967 H 556.367 1.29371 5.36626 0
M  V30 5968 H 556.844 -0.0941209 4.39099 0
M  V30 5969 H 557.45 1.52433 3.97044 0
M  V30 5970 N 555.766 -1.3263 0.851289 0
M  V30 5971 C 557.013 -1.97368 0.453023 0
M  V30 5972 C 557.341 -1.67384 -0.990596 0
M  V30 5973 O 556.596 -0.952665 -1.70947 0
M  V30 5974 C 556.895 -3.51713 0.635015 0
M  V30 5975 C 556.561 -4.01676 2.04859 0
M  V30 5976 C 555.223 -4.15031 2.43522 0
M  V30 5977 C 557.575 -4.28206 2.97135 0
M  V30 5978 C 554.903 -4.52257 3.73739 0
M  V30 5979 C 557.255 -4.66889 4.26846 0
M  V30 5980 C 555.919 -4.7845 4.65448 0
M  V30 5981 H 555.189 -0.722219 0.165773 0
M  V30 5982 H 557.836 -1.58092 1.0807 0
M  V30 5983 H 556.141 -3.91726 -0.0759081 0
M  V30 5984 H 557.838 -3.99823 0.306964 0
M  V30 5985 H 554.428 -3.91764 1.73836 0
M  V30 5986 H 558.612 -4.174 2.68498 0
M  V30 5987 H 553.868 -4.59402 4.03435 0
M  V30 5988 H 558.042 -4.86372 4.98413 0
M  V30 5989 H 555.669 -5.07052 5.66395 0
M  V30 5990 N 557.244 -0.608902 -1.45362 0
M  V30 5991 C 558.191 0.109172 -2.30542 0
M  V30 5992 C 559.161 0.858704 -1.42181 0
M  V30 5993 O 560.346 0.844178 -1.71109 0
M  V30 5994 C 557.486 1.09971 -3.27109 0
M  V30 5995 C 556.599 0.350911 -4.30572 0
M  V30 5996 C 555.734 1.33129 -5.14247 0
M  V30 5997 C 554.773 0.570377 -6.09437 0
M  V30 5998 N 553.91 1.5001 -6.85887 0
M  V30 5999 H 558.75 -0.623195 -2.91411 0
M  V30 6000 H 556.287 -0.319122 -1.43597 0
M  V30 6001 H 558.245 1.68714 -3.81564 0
M  V30 6002 H 556.875 1.79947 -2.67991 0
M  V30 6003 H 555.927 -0.352054 -3.78767 0
M  V30 6004 H 557.239 -0.242725 -4.98209 0
M  V30 6005 H 556.393 1.99074 -5.73109 0
M  V30 6006 H 555.132 1.95885 -4.46632 0
M  V30 6007 H 554.137 -0.102702 -5.49704 0
M  V30 6008 H 555.362 -0.0521607 -6.7908 0
M  V30 6009 H 553.308 2.11529 -6.2096 0
M  V30 6010 H 553.225 0.959934 -7.49881 0
M  V30 6011 H 554.493 2.14909 -7.49289 0
M  V30 6012 N 558.722 1.53707 -0.348139 0
M  V30 6013 C 559.962 2.02899 0.247254 0
M  V30 6014 C 560.326 1.23033 1.47401 0
M  V30 6015 O 561.527 1.62146 2.14388 0
M  V30 6016 C 559.798 3.53156 0.549151 0
M  V30 6017 S 561.357 4.24247 1.1207 0
M  V30 6018 H 558.175 0.707213 0.0732894 0
M  V30 6019 H 560.777 1.89338 -0.486965 0
M  V30 6020 H 559.481 4.08893 -0.351435 0
M  V30 6021 H 559.012 3.70845 1.31291 0
M  V30 6022 H 561.027 4.33958 2.40613 0
M  V30 6023 N 560.2 0.0768682 1.57412 0
M  V30 6024 C 561.43 -0.5991 1.97723 0
M  V30 6025 C 561.838 -1.63378 0.954166 0
M  V30 6026 O 561.181 -1.83578 -0.0668706 0
M  V30 6027 C 561.243 -1.32078 3.34358 0
M  V30 6028 C 560.907 -0.438985 4.54887 0
M  V30 6029 C 561.904 0.305492 5.19002 0
M  V30 6030 C 559.589 -0.362378 5.00991 0
M  V30 6031 C 561.583 1.11475 6.27576 0
M  V30 6032 C 559.27 0.450543 6.09437 0
M  V30 6033 C 560.268 1.18777 6.72593 0
M  V30 6034 O 559.956 1.98727 7.7895 0
M  V30 6035 H 559.688 -0.166725 0.655117 0
M  V30 6036 H 562.242 0.147337 2.04871 0
M  V30 6037 H 560.472 -2.1134 3.2384 0
M  V30 6038 H 562.161 -1.88949 3.5924 0
M  V30 6039 H 562.927 0.25593 4.84324 0
M  V30 6040 H 558.806 -0.925832 4.51608 0
M  V30 6041 H 562.35 1.69068 6.76803 0
M  V30 6042 H 558.247 0.501651 6.43548 0
M  V30 6043 H 559.015 1.91214 7.95851 0
M  V30 6044 N 561.678 -1.56367 -0.196722 0
M  V30 6045 C 562.926 -1.80172 -0.915554 0
M  V30 6046 C 563.247 -0.649649 -1.8386 0
M  V30 6047 O 562.517 0.332111 -1.93064 0
M  V30 6048 H 561.097 -0.664592 -0.341067 0
M  V30 6049 H 563.759 -1.93844 -0.202622 0
M  V30 6050 H 562.855 -2.7327 -1.50764 0
M  V30 6051 N 563.156 0.464375 -1.50603 0
M  V30 6052 C 564.402 1.21776 -1.62168 0
M  V30 6053 C 564.735 1.91476 -0.324154 0
M  V30 6054 O 564.01 1.8242 0.674782 0
M  V30 6055 C 564.293 2.25614 -2.80661 0
M  V30 6056 C 564.146 1.60175 -4.20314 0
M  V30 6057 C 565.465 3.26862 -2.94702 0
M  V30 6058 H 562.584 0.44137 -0.590222 0
M  V30 6059 H 565.226 0.510623 -1.8301 0
M  V30 6060 H 563.376 2.85923 -2.63021 0
M  V30 6061 H 565.048 1.03411 -4.4956 0
M  V30 6062 H 563.291 0.904697 -4.24261 0
M  V30 6063 H 563.962 2.35665 -4.99165 0
M  V30 6064 H 566.438 2.76582 -3.10872 0
M  V30 6065 H 565.314 3.96839 -3.79223 0
M  V30 6066 H 565.575 3.91382 -2.05603 0
M  V30 6067 N 564.634 1.40294 0.718013 0
M  V30 6068 C 565.859 1.41941 1.5122 0
M  V30 6069 C 566.284 0.0202371 1.88089 0
M  V30 6070 O 565.642 -0.971078 1.53101 0
M  V30 6071 C 565.69 2.3141 2.76554 0
M  V30 6072 O 564.794 1.75567 3.73162 0
M  V30 6073 H 564.135 0.482644 0.456016 0
M  V30 6074 H 566.665 1.84494 0.884478 0
M  V30 6075 H 566.675 2.46513 3.25108 0
M  V30 6076 H 565.35 3.33085 2.49053 0
M  V30 6077 H 563.927 1.69798 3.31999 0
M  V30 6078 N 566.112 -0.949982 1.2575 0
M  V30 6079 C 567.523 -1.50989 1.09815 0
M  V30 6080 C 567.874 -1.93497 -0.324556 0
M  V30 6081 O 566.999 -1.79068 -1.21506 0
M  V30 6082 C 567.594 -2.74394 1.98729 0
M  V30 6083 C 566.153 -3.26682 1.86965 0
M  V30 6084 C 565.3 -1.99498 1.92603 0
M  V30 6085 H 568.251 -0.766387 1.38968 0
M  V30 6086 H 568.272 -3.48383 1.53001 0
M  V30 6087 H 567.784 -2.43425 3.02268 0
M  V30 6088 H 565.885 -3.62461 0.863279 0
M  V30 6089 H 565.998 -3.94383 2.72027 0
M  V30 6090 H 564.362 -2.15005 1.36546 0
M  V30 6091 H 565.145 -1.70871 2.97755 0
M  V30 6092 N 567.59 -1.07411 -1.15328 0
M  V30 6093 C 568.818 -0.818782 -1.90009 0
M  V30 6094 C 569.233 0.628072 -1.78047 0
M  V30 6095 O 568.59 1.43085 -1.13282 0
M  V30 6096 C 568.641 -1.21874 -3.40337 0
M  V30 6097 O 568.362 -2.60883 -3.51954 0
M  V30 6098 C 569.863 -0.992796 -4.3204 0
M  V30 6099 H 567.083 -0.296007 -0.60218 0
M  V30 6100 H 569.627 -1.43073 -1.46117 0
M  V30 6101 H 567.782 -0.651103 -3.81889 0
M  V30 6102 H 568.196 -2.77216 -4.45255 0
M  V30 6103 H 569.67 -1.32215 -5.35932 0
M  V30 6104 H 570.147 0.0708331 -4.39143 0
M  V30 6105 H 570.753 -1.54537 -3.9623 0
M  V30 6106 N 569.068 1.32177 -0.85831 0
M  V30 6107 C 570.015 2.28794 -0.303607 0
M  V30 6108 C 570.985 1.55213 0.591453 0
M  V30 6109 O 572.17 1.83418 0.525585 0
M  V30 6110 C 569.31 3.41475 0.49889 0
M  V30 6111 C 568.423 4.2993 -0.422373 0
M  V30 6112 C 567.558 5.29743 0.393111 0
M  V30 6113 C 566.597 6.09842 -0.525317 0
M  V30 6114 N 565.734 7.01643 0.253208 0
M  V30 6115 H 570.574 2.75631 -1.13276 0
M  V30 6116 H 568.111 1.35606 -0.570026 0
M  V30 6117 H 570.069 4.05531 0.979826 0
M  V30 6118 H 568.699 2.95779 1.29284 0
M  V30 6119 H 567.751 3.66422 -1.02171 0
M  V30 6120 H 569.063 4.85899 -1.12709 0
M  V30 6121 H 568.217 5.9942 0.937056 0
M  V30 6122 H 566.956 4.744 1.13117 0
M  V30 6123 H 565.961 5.39066 -1.08112 0
M  V30 6124 H 567.186 6.6727 -1.26205 0
M  V30 6125 H 565.132 6.48725 0.974295 0
M  V30 6126 H 565.049 7.54981 -0.392398 0
M  V30 6127 H 566.317 7.756 0.778761 0
M  V30 6128 N 570.547 0.616602 1.45037 0
M  V30 6129 C 571.477 -0.0840787 2.33349 0
M  V30 6130 C 572.458 -0.849641 1.4736 0
M  V30 6131 O 573.643 -0.818407 1.76113 0
M  V30 6132 C 570.773 -1.07604 3.3021 0
M  V30 6133 C 569.727 -0.423096 4.25904 0
M  V30 6134 C 569.053 -1.52394 5.12523 0
M  V30 6135 C 570.353 0.661457 5.18095 0
M  V30 6136 H 572.047 0.653333 2.92185 0
M  V30 6137 H 569.593 0.315634 1.40498 0
M  V30 6138 H 571.546 -1.57485 3.90866 0
M  V30 6139 H 570.27 -1.84416 2.69552 0
M  V30 6140 H 568.929 0.05493 3.66559 0
M  V30 6141 H 568.577 -2.28257 4.48227 0
M  V30 6142 H 568.277 -1.09251 5.77354 0
M  V30 6143 H 569.801 -2.02485 5.76049 0
M  V30 6144 H 571.215 0.246353 5.7277 0
M  V30 6145 H 569.612 1.01517 5.91451 0
M  V30 6146 H 570.682 1.53446 4.59981 0
M  V30 6147 N 572.025 -1.5352 0.356285 0
M  V30 6148 C 572.973 -2.26945 -0.50978 0
M  V30 6149 C 573.967 -1.29569 -1.09125 0
M  V30 6150 O 575.173 -1.47231 -1.03552 0
M  V30 6151 H 571.548 -0.729368 -0.183102 0
M  V30 6152 H 573.519 -2.98111 0.131374 0
M  V30 6153 C 572.268 -3.06466 -1.64237 0
M  V30 6154 H 571.591 -3.81233 -1.20423 0
M  V30 6155 H 573.031 -3.61035 -2.22327 0
M  V30 6156 C 571.49 -2.16737 -2.57928 0
M  V30 6157 O 572.02 -1.77195 -3.60507 0
M  V30 6158 N 570.226 -1.81558 -2.26903 0
M  V30 6159 H 569.773 -2.13913 -1.43524 0
M  V30 6160 H 569.731 -1.21806 -2.89846 0
M  V30 6161 N 573.503 -0.0852151 -1.57369 0
M  V30 6162 C 574.78 0.622534 -1.85429 0
M  V30 6163 C 575.16 1.86962 -0.980229 0
M  V30 6164 O 574.508 2.28445 -0.0500219 0
M  V30 6165 C 574.718 0.947374 -3.35896 0
M  V30 6166 C 576.066 1.31509 -4.03721 0
M  V30 6167 O 577.09 1.03869 -3.40719 0
M  V30 6168 O 575.949 1.83231 -5.14868 0
M  V30 6169 H 573.043 0.310513 -0.766492 0
M  V30 6170 H 575.589 -0.117164 -1.69295 0
M  V30 6171 H 574.361 0.0622264 -3.91251 0
M  V30 6172 H 573.984 1.74338 -3.5734 0
M  V30 6173 N 574.981 1.5647 0.188427 0
M  V30 6174 C 575.911 1.98101 1.23606 0
M  V30 6175 C 576.892 0.853961 1.47111 0
M  V30 6176 O 578.077 1.11879 1.58735 0
M  V30 6177 C 575.207 2.32624 2.57882 0
M  V30 6178 C 574.161 3.48129 2.48978 0
M  V30 6179 C 573.487 3.68347 3.87588 0
M  V30 6180 C 574.787 4.82112 2.00911 0
M  V30 6181 H 576.481 2.85864 0.890068 0
M  V30 6182 H 574.027 1.37532 0.426714 0
M  V30 6183 H 575.98 2.60343 3.3136 0
M  V30 6184 H 574.704 1.41751 2.94235 0
M  V30 6185 H 573.363 3.20511 1.77956 0
M  V30 6186 H 573.011 2.74793 4.21305 0
M  V30 6187 H 572.711 4.46055 3.82503 0
M  V30 6188 H 574.235 3.98449 4.62678 0
M  V30 6189 H 575.649 5.08819 2.64151 0
M  V30 6190 H 574.046 5.63337 2.06814 0
M  V30 6191 H 575.116 4.75249 0.96262 0
M  V30 6192 N 576.459 -0.456382 1.50847 0
M  V30 6193 C 577.699 -1.21704 1.64218 0
M  V30 6194 C 578.063 -1.88932 0.341859 0
M  V30 6195 O 579.264 -2.66497 0.351137 0
M  V30 6196 C 577.535 -2.22162 2.79962 0
M  V30 6197 S 579.094 -3.0697 3.13552 0
M  V30 6198 H 575.912 -0.412995 0.578754 0
M  V30 6199 H 578.514 -0.511637 1.88686 0
M  V30 6200 H 577.218 -1.71379 3.72904 0
M  V30 6201 H 576.749 -2.9731 2.57624 0
M  V30 6202 H 578.764 -4.23539 2.58513 0
M  V30 6203 N 577.937 -1.40673 -0.710563 0
M  V30 6204 C 579.184 -1.39222 -1.47049 0
M  V30 6205 C 579.512 0.0037691 -1.945 0
M  V30 6206 O 578.767 0.989224 -1.68857 0
M  V30 6207 C 579.066 -2.33253 -2.70791 0
M  V30 6208 C 578.732 -3.80406 -2.42079 0
M  V30 6209 C 577.394 -4.20496 -2.33959 0
M  V30 6210 C 579.746 -4.73375 -2.18094 0
M  V30 6211 C 577.074 -5.51584 -1.99929 0
M  V30 6212 C 579.426 -6.04768 -1.85576 0
M  V30 6213 C 578.09 -6.43895 -1.75941 0
M  V30 6214 H 577.36 -0.509449 -0.538092 0
M  V30 6215 H 580.007 -1.73363 -0.81348 0
M  V30 6216 H 578.312 -1.92314 -3.41354 0
M  V30 6217 H 580.009 -2.29412 -3.28894 0
M  V30 6218 H 576.599 -3.48645 -2.49288 0
M  V30 6219 H 580.783 -4.43217 -2.23321 0
M  V30 6220 H 576.039 -5.80797 -1.91011 0
M  V30 6221 H 580.213 -6.76318 -1.66033 0
M  V30 6222 H 577.84 -7.45387 -1.4934 0
M  V30 6223 N 579.415 0.9433 -1.26252 0
M  V30 6224 C 580.643 1.72367 -1.14443 0
M  V30 6225 C 581.058 1.86392 0.300572 0
M  V30 6226 O 580.415 1.36978 1.20596 0
M  V30 6227 C 580.466 3.13155 -1.806 0
M  V30 6228 O 580.187 2.99803 -3.19452 0
M  V30 6229 C 581.688 4.07417 -1.74717 0
M  V30 6230 H 578.908 0.539758 -0.398626 0
M  V30 6231 H 581.452 1.18268 -1.66832 0
M  V30 6232 H 579.607 3.64162 -1.32154 0
M  V30 6233 H 580.021 3.88697 -3.52158 0
M  V30 6234 H 581.495 5.03773 -2.25647 0
M  V30 6235 H 581.972 4.3337 -0.713244 0
M  V30 6236 H 582.578 3.6233 -2.22704 0
M  V30 6237 N 580.893 1.08022 1.14757 0
M  V30 6238 C 581.841 0.701088 2.21783 0
M  V30 6239 C 582.835 -0.291311 1.66876 0
M  V30 6240 O 584.041 -0.154296 1.79337 0
M  V30 6241 H 580.416 0.208668 0.722469 0
M  V30 6242 H 582.387 1.61321 2.51034 0
M  V30 6243 C 581.136 0.122278 3.47485 0
M  V30 6244 H 580.459 0.877065 3.90061 0
M  V30 6245 H 581.899 -0.105248 4.23869 0
M  V30 6246 C 580.358 -1.13883 3.17068 0
M  V30 6247 O 580.888 -2.22429 3.34497 0
M  V30 6248 N 579.094 -1.04767 2.71058 0
M  V30 6249 H 578.641 -0.164302 2.57075 0
M  V30 6250 H 578.599 -1.89224 2.51081 0
M  V30 6251 N 582.371 -1.3172 0.865308 0
M  V30 6252 C 583.617 -1.97168 0.474633 0
M  V30 6253 C 583.95 -1.68263 -0.969604 0
M  V30 6254 O 583.225 -0.976588 -1.68205 0
M  V30 6255 C 583.508 -3.52689 0.726808 0
M  V30 6256 C 583.361 -3.91185 2.22024 0
M  V30 6257 C 584.68 -4.39689 0.190201 0
M  V30 6258 H 581.799 -0.716185 0.17392 0
M  V30 6259 H 584.441 -1.55925 1.08569 0
M  V30 6260 H 582.591 -3.8795 0.206705 0
M  V30 6261 H 584.263 -3.66049 2.80724 0
M  V30 6262 H 582.506 -3.3996 2.69462 0
M  V30 6263 H 583.177 -4.99604 2.34735 0
M  V30 6264 H 585.653 -4.11225 0.635103 0
M  V30 6265 H 584.529 -5.47469 0.396132 0
M  V30 6266 H 584.79 -4.32683 -0.907625 0
M  V30 6267 N 583.85 -0.624285 -1.44708 0
M  V30 6268 C 585.08 -0.132726 -2.06173 0
M  V30 6269 C 585.488 1.19513 -1.46674 0
M  V30 6270 O 584.831 1.74254 -0.581491 0
M  V30 6271 C 584.893 0.0636732 -3.59444 0
M  V30 6272 C 584.557 -1.18496 -4.4137 0
M  V30 6273 C 585.553 -2.10706 -4.75288 0
M  V30 6274 C 583.239 -1.41846 -4.81856 0
M  V30 6275 C 585.233 -3.24582 -5.48567 0
M  V30 6276 C 582.92 -2.5602 -5.54885 0
M  V30 6277 C 583.918 -3.47215 -5.88159 0
M  V30 6278 O 583.606 -4.59399 -6.59703 0
M  V30 6279 H 583.338 -0.0737313 -0.671967 0
M  V30 6280 H 585.892 -0.856789 -1.86677 0
M  V30 6281 H 584.122 0.842809 -3.77404 0
M  V30 6282 H 585.811 0.508924 -4.02697 0
M  V30 6283 H 586.577 -1.93898 -4.44554 0
M  V30 6284 H 582.456 -0.717556 -4.55381 0
M  V30 6285 H 586 -3.95785 -5.74456 0
M  V30 6286 H 581.897 -2.72774 -5.85034 0
M  V30 6287 H 582.665 -4.58293 -6.78166 0
M  V30 6288 N 585.328 1.53329 -0.364422 0
M  V30 6289 C 586.291 2.24323 0.470292 0
M  V30 6290 C 587.291 1.25068 1.01067 0
M  V30 6291 O 588.481 1.49354 0.896605 0
M  V30 6292 C 585.613 2.97908 1.65722 0
M  V30 6293 H 586.806 2.9952 -0.150917 0
M  V30 6294 H 584.359 1.55868 -0.116092 0
M  V30 6295 H 585.094 2.2695 2.31655 0
M  V30 6296 H 584.879 3.70732 1.27671 0
M  V30 6297 H 586.369 3.5188 2.24878 0
M  V30 6298 N 586.806 0.0935595 1.57322 0
M  V30 6299 C 588.083 -0.612692 1.85756 0
M  V30 6300 C 588.463 -1.86439 0.99013 0
M  V30 6301 O 587.811 -2.28416 0.0621362 0
M  V30 6302 C 588.021 -0.929547 3.36393 0
M  V30 6303 C 589.369 -1.29366 4.04413 0
M  V30 6304 O 590.393 -1.02061 3.41265 0
M  V30 6305 O 589.252 -1.80498 5.15832 0
M  V30 6306 H 586.346 -0.306444 0.768128 0
M  V30 6307 H 588.892 0.126141 1.69231 0
M  V30 6308 H 587.664 -0.0414766 3.91278 0
M  V30 6309 H 587.287 -1.72441 3.5826 0
M  V30 6310 N 588.284 -1.56567 -0.180126 0
M  V30 6311 C 589.509 -1.85975 -0.918041 0
M  V30 6312 C 589.934 -0.678888 -1.75422 0
M  V30 6313 O 589.292 0.372168 -1.77439 0
M  V30 6314 C 589.34 -3.13731 -1.77779 0
M  V30 6315 O 588.444 -2.95335 -2.87838 0
M  V30 6316 H 587.785 -0.61196 -0.257683 0
M  V30 6317 H 590.315 -2.03798 -0.180923 0
M  V30 6318 H 590.325 -3.4491 -2.17948 0
M  V30 6319 H 589 -3.99293 -1.16352 0
M  V30 6320 H 587.577 -2.7549 -2.51316 0
M  V30 6321 N 589.762 0.448376 -1.51087 0
M  V30 6322 C 591.009 1.19872 -1.63209 0
M  V30 6323 C 591.337 1.91451 -0.343062 0
M  V30 6324 O 590.592 1.83789 0.672321 0
M  V30 6325 C 590.891 2.24866 -2.77795 0
M  V30 6326 C 590.557 1.70378 -4.17471 0
M  V30 6327 C 589.219 1.55241 -4.55471 0
M  V30 6328 C 591.571 1.30203 -5.04675 0
M  V30 6329 C 588.899 0.983844 -5.78392 0
M  V30 6330 C 591.251 0.747798 -6.28165 0
M  V30 6331 C 589.915 0.583233 -6.64947 0
M  V30 6332 H 589.185 0.438642 -0.597222 0
M  V30 6333 H 591.832 0.49136 -1.85089 0
M  V30 6334 H 590.137 3.01598 -2.50092 0
M  V30 6335 H 591.834 2.82723 -2.84374 0
M  V30 6336 H 588.424 1.83134 -3.87505 0
M  V30 6337 H 592.608 1.40723 -4.75932 0
M  V30 6338 H 587.864 0.844007 -6.05546 0
M  V30 6339 H 592.038 0.427927 -6.95084 0
M  V30 6340 H 589.665 0.140532 -7.6007 0
M  V30 6341 N 591.24 1.41047 0.703093 0
M  V30 6342 C 592.486 1.40207 1.46526 0
M  V30 6343 C 592.819 0.00847763 1.94198 0
M  V30 6344 O 592.094 -0.962437 1.69019 0
M  V30 6345 C 592.377 2.40238 2.6825 0
M  V30 6346 C 592.23 3.88674 2.26391 0
M  V30 6347 C 593.549 2.37627 3.70434 0
M  V30 6348 H 590.668 0.510594 0.531472 0
M  V30 6349 H 593.31 1.72271 0.801422 0
M  V30 6350 H 591.46 2.13026 3.24888 0
M  V30 6351 H 593.132 4.2676 1.75138 0
M  V30 6352 H 591.375 4.03903 1.58255 0
M  V30 6353 H 592.046 4.542 3.13698 0
M  V30 6354 H 594.522 2.61759 3.23452 0
M  V30 6355 H 593.398 3.09645 4.53223 0
M  V30 6356 H 593.659 1.39223 4.19606 0
M  V30 6357 N 592.718 -0.936591 1.26751 0
M  V30 6358 C 593.967 -1.67778 1.11953 0
M  V30 6359 C 594.28 -1.92694 -0.33589 0
M  V30 6360 O 595.486 -2.64682 -0.604618 0
M  V30 6361 C 593.942 -3.02138 1.95551 0
M  V30 6362 C 593.55 -2.84953 3.45696 0
M  V30 6363 C 595.294 -3.79917 1.89377 0
M  V30 6364 C 593.201 -4.14814 4.21525 0
M  V30 6365 H 592.131 -0.629275 0.415366 0
M  V30 6366 H 594.782 -1.04122 1.51099 0
M  V30 6367 H 593.164 -3.668 1.49243 0
M  V30 6368 H 594.338 -2.29112 3.99805 0
M  V30 6369 H 592.653 -2.20612 3.53156 0
M  V30 6370 H 595.25 -4.76134 2.43312 0
M  V30 6371 H 595.593 -4.07204 0.865464 0
M  V30 6372 H 596.126 -3.22037 2.33532 0
M  V30 6373 H 592.865 -3.92709 5.24843 0
M  V30 6374 H 592.385 -4.70352 3.72195 0
M  V30 6375 H 594.064 -4.83239 4.3022 0
M  V30 6376 N 594.196 -1.08629 -1.14182 0
M  V30 6377 C 595.612 -0.814363 -1.3726 0
M  V30 6378 C 595.812 0.575271 -1.93114 0
M  V30 6379 O 594.868 1.33165 -2.1453 0
M  V30 6380 C 596.181 -1.8989 -2.33157 0
M  V30 6381 C 597.729 -1.92518 -2.46791 0
M  V30 6382 C 598.204 -3.00092 -3.45989 0
M  V30 6383 N 599.695 -2.99279 -3.53534 0
M  V30 6384 C 600.43 -3.79158 -4.30147 0
M  V30 6385 N 599.926 -4.68923 -5.09983 0
M  V30 6386 N 601.719 -3.67451 -4.25366 0
M  V30 6387 H 593.87 -1.98232 -0.762758 0
M  V30 6388 H 596.133 -0.860383 -0.398051 0
M  V30 6389 H 595.839 -2.89809 -1.99257 0
M  V30 6390 H 595.713 -1.77013 -3.33086 0
M  V30 6391 H 598.1 -0.932425 -2.79982 0
M  V30 6392 H 598.181 -2.09473 -1.46816 0
M  V30 6393 H 597.825 -3.99575 -3.13532 0
M  V30 6394 H 597.755 -2.80382 -4.45751 0
M  V30 6395 H 600.246 -2.3422 -2.96563 0
M  V30 6396 H 600.559 -5.26475 -5.65724 0
M  V30 6397 H 598.904 -4.72964 -5.09244 0
M  V30 6398 H 602.095 -2.9669 -3.62067 0
M  V30 6399 H 602.268 -4.29944 -4.84822 0
M  V30 6400 N 595.674 1.31259 -0.872281 0
M  V30 6401 C 596.922 1.96233 -0.483409 0
M  V30 6402 C 597.243 1.69276 0.968012 0
M  V30 6403 O 596.513 1.00943 1.67891 0
M  V30 6404 H 595.093 0.726025 -0.175774 0
M  V30 6405 H 597.755 1.60024 -1.11258 0
M  V30 6406 H 596.851 3.05403 -0.643075 0
M  V30 6407 N 597.152 0.631951 1.44375 0
M  V30 6408 C 598.429 0.067646 1.95483 0
M  V30 6409 C 598.809 -1.40683 1.57389 0
M  V30 6410 O 598.157 -2.12167 0.848375 0
M  V30 6411 C 598.367 0.291392 3.47781 0
M  V30 6412 C 599.715 0.185028 4.24197 0
M  V30 6413 O 600.739 0.222803 3.55503 0
M  V30 6414 O 599.598 0.0906642 5.46425 0
M  V30 6415 H 596.692 -0.0218379 0.826712 0
M  V30 6416 H 599.238 0.703711 1.54421 0
M  V30 6417 H 598.01 1.31449 3.68561 0
M  V30 6418 H 597.633 -0.378772 3.95792 0
M  V30 6419 N 598.631 -1.53133 0.372548 0
M  V30 6420 C 599.541 -2.29671 -0.478379 0
M  V30 6421 C 600.557 -1.35913 -1.08644 0
M  V30 6422 O 601.733 -1.68975 -1.09588 0
M  V30 6423 C 598.798 -3.07625 -1.599 0
M  V30 6424 C 597.859 -4.17061 -1.01776 0
M  V30 6425 C 597.092 -4.91289 -2.08497 0
M  V30 6426 O 597.315 -4.65442 -3.29727 0
M  V30 6427 O 596.249 -5.7705 -1.71164 0
M  V30 6428 H 600.075 -3.03355 0.144649 0
M  V30 6429 H 597.66 -1.48773 0.136729 0
M  V30 6430 H 599.542 -3.56281 -2.25038 0
M  V30 6431 H 598.217 -2.3677 -2.2073 0
M  V30 6432 H 597.124 -3.72641 -0.330098 0
M  V30 6433 H 598.457 -4.90102 -0.453915 0
M  V30 6434 N 600.109 -0.101901 -1.5727 0
M  V30 6435 C 601.355 0.561027 -1.94885 0
M  V30 6436 C 601.688 1.6741 -0.984258 0
M  V30 6437 O 600.963 1.94491 -0.0184767 0
M  V30 6438 C 601.246 1.10982 -3.42571 0
M  V30 6439 C 601.099 0.00133418 -4.498 0
M  V30 6440 C 602.418 2.00608 -3.9172 0
M  V30 6441 H 599.537 0.202467 -0.708644 0
M  V30 6442 H 602.179 -0.173992 -1.89202 0
M  V30 6443 H 600.329 1.73621 -3.47546 0
M  V30 6444 H 602.001 -0.63322 -4.56933 0
M  V30 6445 H 600.244 -0.664143 -4.28686 0
M  V30 6446 H 600.915 0.426253 -5.50352 0
M  V30 6447 H 603.391 1.47864 -3.88941 0
M  V30 6448 H 602.267 2.3593 -4.95609 0
M  V30 6449 H 602.528 2.92608 -3.3141 0
M  V30 6450 N 601.587 1.56661 0.17182 0
M  V30 6451 C 603.003 1.50768 0.52357 0
M  V30 6452 C 603.203 0.806072 1.84675 0
M  V30 6453 O 602.259 0.366233 2.4983 0
M  V30 6454 C 603.572 2.955 0.556793 0
M  V30 6455 C 605.12 3.06303 0.644029 0
M  V30 6456 C 605.595 4.52492 0.708148 0
M  V30 6457 N 607.086 4.56737 0.771051 0
M  V30 6458 C 607.821 5.67196 0.841229 0
M  V30 6459 N 607.317 6.87287 0.872272 0
M  V30 6460 N 609.11 5.55165 0.88021 0
M  V30 6461 H 601.261 2.00679 -0.695817 0
M  V30 6462 H 603.524 0.914219 -0.250814 0
M  V30 6463 H 603.23 3.49986 -0.346774 0
M  V30 6464 H 603.104 3.50119 1.40346 0
M  V30 6465 H 605.491 2.51851 1.53802 0
M  V30 6466 H 605.572 2.5477 -0.229297 0
M  V30 6467 H 605.216 5.07575 -0.181585 0
M  V30 6468 H 605.146 5.01781 1.59761 0
M  V30 6469 H 607.637 3.70274 0.755364 0
M  V30 6470 H 607.95 7.6722 0.92698 0
M  V30 6471 H 606.295 6.89898 0.840557 0
M  V30 6472 H 609.486 4.60263 0.852956 0
M  V30 6473 H 609.659 6.41271 0.931439 0
M  V30 6474 N 603.065 -0.440357 1.51323 0
M  V30 6475 C 603.997 -1.55254 1.68609 0
M  V30 6476 C 605.01 -1.52614 0.566812 0
M  V30 6477 O 606.199 -1.57445 0.841032 0
M  V30 6478 C 603.299 -2.94169 1.68279 0
M  V30 6479 C 602.472 -3.21346 2.96742 0
M  V30 6480 C 601.531 -4.3997 2.8864 0
M  V30 6481 O 600.557 -4.38771 3.62586 0
M  V30 6482 N 601.759 -5.43367 2.04285 0
M  V30 6483 H 604.524 -1.40831 2.6455 0
M  V30 6484 H 602.085 -0.629251 1.49171 0
M  V30 6485 H 604.077 -3.71543 1.60431 0
M  V30 6486 H 602.647 -3.02205 0.799441 0
M  V30 6487 H 601.867 -2.32299 3.18482 0
M  V30 6488 H 603.155 -3.3633 3.81785 0
M  V30 6489 H 602.553 -5.47176 1.43578 0
M  V30 6490 H 601.11 -6.19605 2.02318 0
M  V30 6491 N 604.543 -1.41418 -0.695603 0
M  V30 6492 C 605.792 -1.40073 -1.4513 0
M  V30 6493 C 606.105 -0.0130439 -1.95596 0
M  V30 6494 O 607.311 0.123032 -2.71221 0
M  V30 6495 C 605.767 -2.46286 -2.62433 0
M  V30 6496 C 605.375 -3.90962 -2.18753 0
M  V30 6497 C 607.119 -2.54077 -3.40066 0
M  V30 6498 C 605.026 -4.88728 -3.33015 0
M  V30 6499 H 603.956 -0.520903 -0.545138 0
M  V30 6500 H 606.607 -1.67242 -0.75515 0
M  V30 6501 H 604.989 -2.12248 -3.34315 0
M  V30 6502 H 606.163 -4.34248 -1.54161 0
M  V30 6503 H 604.478 -3.86831 -1.54114 0
M  V30 6504 H 607.075 -3.24303 -4.25125 0
M  V30 6505 H 607.418 -1.5776 -3.8525 0
M  V30 6506 H 607.951 -2.87206 -2.75241 0
M  V30 6507 H 604.69 -5.86449 -2.92844 0
M  V30 6508 H 604.21 -4.50091 -3.96457 0
M  V30 6509 H 605.889 -5.09483 -3.98793 0
M  V30 6510 N 606.021 0.929856 -1.27246 0
M  V30 6511 C 606.984 2.01172 -1.09829 0
M  V30 6512 C 607.984 1.60743 -0.0429687 0
M  V30 6513 O 609.174 1.71813 -0.287373 0
M  V30 6514 C 606.306 3.34191 -0.673003 0
M  V30 6515 H 607.499 2.18054 -2.05895 0
M  V30 6516 H 605.052 1.11036 -1.10003 0
M  V30 6517 H 605.787 3.23009 0.289134 0
M  V30 6518 H 605.572 3.64892 -1.43515 0
M  V30 6519 H 607.062 4.13646 -0.573323 0
M  V30 6520 N 607.499 1.09233 1.13605 0
M  V30 6521 C 608.91 0.846839 1.6639 0
M  V30 6522 C 609.261 -0.625031 1.85978 0
M  V30 6523 O 608.386 -1.48173 1.57714 0
M  V30 6524 C 608.981 1.5307 3.0225 0
M  V30 6525 C 607.54 1.33223 3.52035 0
M  V30 6526 C 606.687 1.58806 2.27323 0
M  V30 6527 H 609.638 1.25175 0.975541 0
M  V30 6528 H 609.659 0.96267 3.68121 0
M  V30 6529 H 609.171 2.60192 2.87961 0
M  V30 6530 H 607.272 0.282091 3.71531 0
M  V30 6531 H 607.385 2.0657 4.32279 0
M  V30 6532 H 605.749 1.01007 2.33815 0
M  V30 6533 H 606.532 2.67153 2.15602 0
M  V30 6534 N 608.977 -1.30795 0.87923 0
M  V30 6535 C 610.225 -1.95974 0.493809 0
M  V30 6536 C 610.546 -1.69787 -0.959021 0
M  V30 6537 O 609.816 -1.01832 -1.67353 0
M  V30 6538 H 608.396 -0.725083 0.179622 0
M  V30 6539 H 611.058 -1.59432 1.12105 0
M  V30 6540 H 610.154 -3.05058 0.659263 0
M  V30 6541 N 610.455 -0.639598 -1.44038 0
M  V30 6542 C 611.387 0.0987684 -2.28987 0
M  V30 6543 C 612.4 0.80058 -1.41755 0
M  V30 6544 O 613.589 0.660611 -1.65826 0
M  V30 6545 C 610.689 1.16242 -3.18341 0
M  V30 6546 C 609.862 0.541447 -4.34036 0
M  V30 6547 C 608.921 1.50017 -5.04362 0
M  V30 6548 O 607.947 1.01403 -5.60095 0
M  V30 6549 N 609.149 2.83441 -5.06598 0
M  V30 6550 H 611.914 -0.630305 -2.92997 0
M  V30 6551 H 609.475 -0.481376 -1.54578 0
M  V30 6552 H 611.467 1.80429 -3.62253 0
M  V30 6553 H 610.037 1.79362 -2.56024 0
M  V30 6554 H 609.257 -0.27923 -3.9321 0
M  V30 6555 H 610.545 0.107379 -5.08687 0
M  V30 6556 H 609.943 3.2551 -4.62666 0
M  V30 6557 H 608.5 3.42966 -5.54272 0
M  V30 6558 N 611.933 1.52934 -0.380664 0
M  V30 6559 C 613.161 2.05886 0.204599 0
M  V30 6560 C 613.576 1.25305 1.41223 0
M  V30 6561 O 612.933 0.297504 1.80059 0
M  V30 6562 C 612.984 3.56764 0.583249 0
M  V30 6563 O 612.705 4.34292 -0.576398 0
M  V30 6564 C 614.206 4.2603 1.2253 0
M  V30 6565 H 611.426 0.670193 0.0328991 0
M  V30 6566 H 613.97 1.97148 -0.543397 0
M  V30 6567 H 612.125 3.65603 1.28115 0
M  V30 6568 H 612.539 5.23819 -0.267119 0
M  V30 6569 H 614.013 5.32868 1.44068 0
M  V30 6570 H 614.49 3.80698 2.19011 0
M  V30 6571 H 615.096 4.21485 0.568407 0
M  V30 6572 N 613.412 0.11024 1.57214 0
M  V30 6573 C 614.66 -0.548783 1.94506 0
M  V30 6574 C 614.981 -1.67772 0.99386 0
M  V30 6575 O 614.251 -1.9584 0.0485841 0
M  V30 6576 H 612.831 -0.205715 0.718116 0
M  V30 6577 H 615.493 0.177127 1.94093 0
M  V30 6578 H 614.589 -0.949096 2.97319 0
M  V30 6579 N 614.89 -1.56749 -0.16351 0
M  V30 6580 C 615.837 -1.97011 -1.2023 0
M  V30 6581 C 616.807 -0.835186 -1.43575 0
M  V30 6582 O 617.992 -1.09594 -1.56185 0
M  V30 6583 C 615.132 -2.34186 -2.53478 0
M  V30 6584 C 614.245 -3.60893 -2.37446 0
M  V30 6585 C 613.38 -3.87245 -3.63614 0
M  V30 6586 C 612.419 -5.07274 -3.42548 0
M  V30 6587 N 611.556 -5.29719 -4.60806 0
M  V30 6588 H 616.396 -2.85562 -0.851958 0
M  V30 6589 H 613.933 -1.41292 -0.409257 0
M  V30 6590 H 615.891 -2.53764 -3.31149 0
M  V30 6591 H 614.521 -1.48736 -2.86492 0
M  V30 6592 H 613.573 -3.49185 -1.50911 0
M  V30 6593 H 614.885 -4.48722 -2.1783 0
M  V30 6594 H 614.039 -4.07232 -4.49719 0
M  V30 6595 H 612.778 -2.97806 -3.86216 0
M  V30 6596 H 611.783 -4.87177 -2.5483 0
M  V30 6597 H 613.008 -5.98251 -3.2136 0
M  V30 6598 H 610.954 -4.43233 -4.83612 0
M  V30 6599 H 610.871 -6.11786 -4.44132 0
M  V30 6600 H 612.139 -5.54192 -5.48171 0
M  V30 6601 N 616.368 0.432326 -1.51554 0
M  V30 6602 C 617.617 1.17831 -1.63703 0
M  V30 6603 C 617.93 1.92229 -0.36156 0
M  V30 6604 O 619.136 2.69069 -0.362495 0
M  V30 6605 C 617.592 2.14318 -2.89129 0
M  V30 6606 C 617.2 1.45544 -4.23699 0
M  V30 6607 C 618.944 2.89319 -3.10636 0
M  V30 6608 C 616.851 2.40545 -5.4027 0
M  V30 6609 H 615.781 0.443533 -0.60975 0
M  V30 6610 H 618.432 0.444878 -1.78026 0
M  V30 6611 H 616.814 2.91117 -2.68452 0
M  V30 6612 H 617.988 0.742693 -4.54775 0
M  V30 6613 H 616.303 0.826772 -4.0811 0
M  V30 6614 H 618.9 3.60495 -3.94902 0
M  V30 6615 H 619.243 3.50951 -2.23918 0
M  V30 6616 H 619.776 2.19625 -3.31677 0
M  V30 6617 H 616.515 1.83594 -6.29264 0
M  V30 6618 H 616.035 3.09859 -5.13563 0
M  V30 6619 H 617.714 3.01569 -5.72421 0
M  V30 6620 N 617.846 1.41785 0.688094 0
M  V30 6621 C 618.809 1.43936 1.78368 0
M  V30 6622 C 619.809 0.328866 1.57401 0
M  V30 6623 O 620.999 0.589093 1.63937 0
M  V30 6624 C 618.131 1.25804 3.16838 0
M  V30 6625 H 619.324 2.41472 1.77852 0
M  V30 6626 H 616.877 1.28037 0.896448 0
M  V30 6627 H 617.612 0.291386 3.22988 0
M  V30 6628 H 617.397 2.06272 3.33458 0
M  V30 6629 H 618.887 1.30162 3.96797 0
M  V30 6630 N 619.324 -0.923095 1.27737 0
M  V30 6631 C 620.601 -1.64989 1.05062 0
M  V30 6632 C 620.981 -2.07018 -0.413124 0
M  V30 6633 O 620.329 -1.80797 -1.39731 0
M  V30 6634 C 620.539 -2.84847 2.01652 0
M  V30 6635 C 621.887 -3.56083 2.31279 0
M  V30 6636 O 622.911 -2.94981 1.99662 0
M  V30 6637 O 621.77 -4.66182 2.85196 0
M  V30 6638 H 618.864 -0.723357 0.400853 0
M  V30 6639 H 621.41 -0.973224 1.3902 0
M  V30 6640 H 620.182 -2.50814 3.00347 0
M  V30 6641 H 619.805 -3.60231 1.68284 0
M  V30 6642 N 620.802 -1.09834 -1.13024 0
M  V30 6643 C 622.032 -0.857657 -1.87957 0
M  V30 6644 C 622.44 0.595008 -1.796 0
M  V30 6645 O 621.783 1.42158 -1.16347 0
M  V30 6646 C 621.845 -1.21949 -3.38185 0
M  V30 6647 C 621.509 -2.67791 -3.7032 0
M  V30 6648 C 622.506 -3.66036 -3.69207 0
M  V30 6649 C 620.191 -3.04019 -3.99847 0
M  V30 6650 C 622.185 -4.98533 -3.9717 0
M  V30 6651 C 619.872 -4.36706 -4.27471 0
M  V30 6652 C 620.87 -5.33772 -4.26118 0
M  V30 6653 O 620.558 -6.64072 -4.53061 0
M  V30 6654 H 620.29 -0.308009 -0.601753 0
M  V30 6655 H 622.844 -1.46496 -1.43973 0
M  V30 6656 H 621.074 -0.555249 -3.82693 0
M  V30 6657 H 622.763 -0.957281 -3.9445 0
M  V30 6658 H 623.529 -3.39392 -3.46465 0
M  V30 6659 H 619.408 -2.29096 -4.00045 0
M  V30 6660 H 622.952 -5.74288 -3.96029 0
M  V30 6661 H 618.849 -4.63091 -4.49685 0
M  V30 6662 H 619.617 -6.69608 -4.7071 0
M  V30 6663 N 622.28 1.30327 -0.886154 0
M  V30 6664 C 623.228 2.30052 -0.343317 0
M  V30 6665 C 624.222 1.60212 0.550305 0
M  V30 6666 O 625.428 1.74674 0.434609 0
M  V30 6667 H 621.803 0.746306 -0.0923681 0
M  V30 6668 H 623.774 2.73294 -1.19804 0
M  V30 6669 C 622.523 3.45079 0.426107 0
M  V30 6670 H 621.846 3.99003 -0.25227 0
M  V30 6671 H 623.286 4.16931 0.771009 0
M  V30 6672 C 621.745 2.95195 1.62363 0
M  V30 6673 O 622.275 2.95323 2.723 0
M  V30 6674 N 620.481 2.51192 1.4612 0
M  V30 6675 H 620.028 2.51286 0.566832 0
M  V30 6676 H 619.986 2.18173 2.2638 0
M  V30 6677 N 623.758 0.647228 1.43697 0
M  V30 6678 C 624.988 0.16551 2.05936 0
M  V30 6679 C 625.396 -1.17164 1.48557 0
M  V30 6680 O 624.739 -1.73307 0.60914 0
M  V30 6681 C 624.801 -0.00648082 3.59499 0
M  V30 6682 C 624.465 1.25503 4.39429 0
M  V30 6683 C 625.462 2.18241 4.71876 0
M  V30 6684 C 623.147 1.49494 4.79538 0
M  V30 6685 C 625.141 3.33268 5.43333 0
M  V30 6686 C 622.828 2.64815 5.50742 0
M  V30 6687 C 623.826 3.56528 5.82561 0
M  V30 6688 O 623.514 4.69836 6.52311 0
M  V30 6689 H 623.246 0.0844124 0.670709 0
M  V30 6690 H 625.8 0.88638 1.8529 0
M  V30 6691 H 624.03 -0.782661 3.78697 0
M  V30 6692 H 625.719 -0.444794 4.03456 0
M  V30 6693 H 626.485 2.00946 4.41413 0
M  V30 6694 H 622.364 0.789912 4.54182 0
M  V30 6695 H 625.908 4.04874 5.68087 0
M  V30 6696 H 621.805 2.82047 5.8062 0
M  V30 6697 H 622.573 4.69024 6.70789 0
M  V30 6698 N 625.236 -1.5273 0.388769 0
M  V30 6699 C 626.183 -2.26437 -0.446639 0
M  V30 6700 C 627.153 -1.28025 -1.05824 0
M  V30 6701 O 628.338 -1.56852 -1.08637 0
M  V30 6702 C 625.478 -3.07407 -1.56828 0
M  V30 6703 C 624.591 -4.20747 -0.979589 0
M  V30 6704 C 623.726 -4.89113 -2.07224 0
M  V30 6705 C 622.765 -5.94447 -1.45942 0
M  V30 6706 N 621.902 -6.56411 -2.49135 0
M  V30 6707 H 626.742 -2.97404 0.18837 0
M  V30 6708 H 624.279 -1.46727 0.104725 0
M  V30 6709 H 626.237 -3.52642 -2.22934 0
M  V30 6710 H 624.867 -2.3865 -2.17361 0
M  V30 6711 H 623.919 -3.7983 -0.208151 0
M  V30 6712 H 625.231 -4.9637 -0.491747 0
M  V30 6713 H 624.385 -5.3765 -2.81101 0
M  V30 6714 H 623.124 -4.13013 -2.59368 0
M  V30 6715 H 622.129 -5.4525 -0.705894 0
M  V30 6716 H 623.354 -6.7248 -0.945932 0
M  V30 6717 H 621.3 -5.83152 -3.00449 0
M  V30 6718 H 621.217 -7.27645 -2.05105 0
M  V30 6719 H 622.485 -7.09592 -3.22644 0
M  V30 6720 N 626.714 -0.118576 -1.57153 0
M  V30 6721 C 627.644 0.828436 -2.1831 0
M  V30 6722 C 628.625 1.27758 -1.12303 0
M  V30 6723 O 629.81 1.34026 -1.40537 0
M  V30 6724 C 626.94 2.07876 -2.78217 0
M  V30 6725 C 625.894 1.76742 -3.89803 0
M  V30 6726 C 625.22 3.08801 -4.36516 0
M  V30 6727 C 626.52 1.03606 -5.11921 0
M  V30 6728 H 628.214 0.318824 -2.97698 0
M  V30 6729 H 625.76 0.151911 -1.43196 0
M  V30 6730 H 627.713 2.74584 -3.19659 0
M  V30 6731 H 626.437 2.61161 -1.96118 0
M  V30 6732 H 625.096 1.12424 -3.48936 0
M  V30 6733 H 624.744 3.6002 -3.51276 0
M  V30 6734 H 624.444 2.88743 -5.11763 0
M  V30 6735 H 625.968 3.76627 -4.80608 0
M  V30 6736 H 627.382 1.60467 -5.50385 0
M  V30 6737 H 625.779 0.936454 -5.92748 0
M  V30 6738 H 626.849 0.0227421 -4.84895 0
M  V30 6739 N 628.193 1.56834 0.155195 0
M  V30 6740 C 629.604 1.72421 0.716082 0
M  V30 6741 C 629.955 0.731685 1.82046 0
M  V30 6742 O 629.08 -0.103481 2.16152 0
M  V30 6743 C 629.675 3.12629 1.30571 0
M  V30 6744 C 628.234 3.29846 1.81325 0
M  V30 6745 C 627.381 2.68359 0.698494 0
M  V30 6746 H 630.332 1.58544 -0.0703861 0
M  V30 6747 H 630.353 3.12174 2.1755 0
M  V30 6748 H 629.865 3.84844 0.501701 0
M  V30 6749 H 627.966 2.62614 2.64319 0
M  V30 6750 H 628.079 4.37727 1.9476 0
M  V30 6751 H 626.443 2.28604 1.12305 0
M  V30 6752 H 627.226 3.43171 -0.0939366 0
M  V30 6753 N 629.671 -0.424282 1.51781 0
M  V30 6754 C 630.948 -1.18464 1.55646 0
M  V30 6755 C 631.328 -2.08529 0.328438 0
M  V30 6756 O 630.676 -2.17969 -0.685693 0
M  V30 6757 C 630.886 -1.97514 2.87731 0
M  V30 6758 C 632.234 -2.54106 3.40169 0
M  V30 6759 O 633.258 -2.07711 2.89369 0
M  V30 6760 O 632.117 -3.38759 4.28841 0
M  V30 6761 H 629.211 -0.540055 0.626314 0
M  V30 6762 H 631.757 -0.432291 1.64102 0
M  V30 6763 H 630.529 -1.31444 3.68562 0
M  V30 6764 H 630.152 -2.79787 2.82498 0
M  V30 6765 N 631.149 -1.42148 -0.680565 0
M  V30 6766 C 632.426 -1.32795 -1.43614 0
M  V30 6767 C 632.806 0.037415 -2.11067 0
M  V30 6768 O 632.154 1.05258 -2.02813 0
M  V30 6769 C 632.364 -2.49206 -2.44331 0
M  V30 6770 C 633.712 -2.91059 -3.09144 0
M  V30 6771 O 634.736 -2.49054 -2.54657 0
M  V30 6772 O 633.595 -3.63741 -4.07866 0
M  V30 6773 H 630.689 -0.523397 -0.640301 0
M  V30 6774 H 633.235 -1.54144 -0.709775 0
M  V30 6775 H 632.007 -3.40252 -1.93247 0
M  V30 6776 H 631.63 -2.29813 -3.24456 0
M  V30 6777 N 632.627 0.916307 -1.28225 0
M  V30 6778 C 633.874 1.66518 -1.1523 0
M  V30 6779 C 634.202 1.92178 0.299632 0
M  V30 6780 O 633.457 1.51842 1.2346 0
M  V30 6781 C 633.756 3.03125 -1.8934 0
M  V30 6782 C 633.422 2.97135 -3.39148 0
M  V30 6783 C 632.084 2.95208 -3.80007 0
M  V30 6784 C 634.436 2.87574 -4.34685 0
M  V30 6785 C 631.764 2.81518 -5.14747 0
M  V30 6786 C 634.116 2.75424 -5.69495 0
M  V30 6787 C 632.78 2.71854 -6.09632 0
M  V30 6788 H 632.05 0.609334 -0.421655 0
M  V30 6789 H 634.697 1.06776 -1.58969 0
M  V30 6790 H 633.002 3.66639 -1.38143 0
M  V30 6791 H 634.699 3.59968 -1.76704 0
M  V30 6792 H 631.289 2.99428 -3.06661 0
M  V30 6793 H 635.473 2.88152 -4.04082 0
M  V30 6794 H 630.729 2.77148 -5.44976 0
M  V30 6795 H 634.903 2.66993 -6.43185 0
M  V30 6796 H 632.53 2.61003 -7.1399 0
M  V30 6797 N 634.105 1.10431 1.1244 0
M  V30 6798 C 635.333 0.868872 1.87772 0
M  V30 6799 C 635.748 -0.580645 1.7965 0
M  V30 6800 O 635.105 -1.40031 1.17036 0
M  V30 6801 C 635.156 1.30855 3.36986 0
M  V30 6802 O 634.877 2.70123 3.44914 0
M  V30 6803 C 636.378 1.107 4.29256 0
M  V30 6804 H 633.598 0.311868 0.59412 0
M  V30 6805 H 636.142 1.46897 1.42273 0
M  V30 6806 H 634.297 0.752126 3.80029 0
M  V30 6807 H 634.711 2.88923 4.37748 0
M  V30 6808 H 636.185 1.46378 5.32238 0
M  V30 6809 H 636.662 0.0456228 4.39176 0
M  V30 6810 H 637.268 1.64988 3.91994 0
M  V30 6811 N 635.583 -1.29855 0.893053 0
M  V30 6812 C 636.831 -1.9544 0.514566 0
M  V30 6813 C 637.152 -1.70795 -0.940959 0
M  V30 6814 O 636.422 -1.03601 -1.66264 0
M  V30 6815 H 635.002 -0.723137 0.187302 0
M  V30 6816 H 637.664 -1.58234 1.13789 0
M  V30 6817 H 636.76 -3.04341 0.691581 0
M  V30 6818 N 637.061 -0.65484 -1.43351 0
M  V30 6819 C 638.301 -0.172514 -2.03671 0
M  V30 6820 C 638.665 1.19154 -1.50553 0
M  V30 6821 O 639.866 1.76737 -2.02528 0
M  V30 6822 C 638.137 -0.183982 -3.56926 0
M  V30 6823 S 639.696 0.230262 -4.38195 0
M  V30 6824 H 636.514 -0.0727503 -0.707268 0
M  V30 6825 H 639.116 -0.863537 -1.75395 0
M  V30 6826 H 637.82 -1.17945 -3.93087 0
M  V30 6827 H 637.351 0.527527 -3.89847 0
M  V30 6828 H 639.366 1.46874 -4.73965 0
M  V30 6829 N 638.539 1.52521 -0.396863 0
M  V30 6830 C 639.785 2.01971 0.183169 0
M  V30 6831 C 640.118 1.2825 1.45827 0
M  V30 6832 O 639.393 0.385179 1.90648 0
M  V30 6833 C 639.676 3.5736 0.443391 0
M  V30 6834 C 639.529 4.41743 -0.84753 0
M  V30 6835 C 640.848 4.22539 1.2308 0
M  V30 6836 H 637.967 0.734119 0.0650976 0
M  V30 6837 H 640.609 1.82519 -0.527918 0
M  V30 6838 H 638.759 3.74066 1.04914 0
M  V30 6839 H 640.431 4.36773 -1.48414 0
M  V30 6840 H 638.674 4.0845 -1.4612 0
M  V30 6841 H 639.345 5.48507 -0.620003 0
M  V30 6842 H 641.821 4.09857 0.718084 0
M  V30 6843 H 640.697 5.31227 1.38162 0
M  V30 6844 H 640.958 3.80675 2.24808 0
M  V30 6845 N 640.017 0.126909 1.57088 0
M  V30 6846 C 641.266 -0.529024 1.94639 0
M  V30 6847 C 641.579 -1.67323 1.01304 0
M  V30 6848 O 642.785 -2.39245 1.28352 0
M  V30 6849 C 641.241 -0.992483 3.45945 0
M  V30 6850 C 640.849 0.123691 4.47829 0
M  V30 6851 C 642.593 -1.61934 3.924 0
M  V30 6852 C 640.5 -0.356911 5.90322 0
M  V30 6853 H 639.43 -0.201397 0.726605 0
M  V30 6854 H 642.081 0.208032 1.82317 0
M  V30 6855 H 640.463 -1.7842 3.53528 0
M  V30 6856 H 641.637 0.900168 4.51922 0
M  V30 6857 H 639.952 0.657699 4.11173 0
M  V30 6858 H 642.549 -1.9902 4.96281 0
M  V30 6859 H 642.892 -2.50075 3.32819 0
M  V30 6860 H 643.425 -0.892894 3.8765 0
M  V30 6861 H 640.164 0.488636 6.53676 0
M  V30 6862 H 639.684 -1.0997 5.89633 0
M  V30 6863 H 641.363 -0.815547 6.41839 0
M  V30 6864 N 641.495 -1.56914 -0.146875 0
M  V30 6865 C 642.458 -1.97368 -1.16526 0
M  V30 6866 C 643.458 -0.860223 -1.35856 0
M  V30 6867 O 644.648 -1.12684 -1.32846 0
M  V30 6868 C 641.78 -2.28974 -2.52555 0
M  V30 6869 H 642.973 -2.88523 -0.818209 0
M  V30 6870 H 640.526 -1.5135 -0.390221 0
M  V30 6871 H 641.261 -1.40611 -2.92231 0
M  V30 6872 H 641.046 -3.10157 -2.39886 0
M  V30 6873 H 642.536 -2.61109 -3.25902 0
M  V30 6874 N 642.974 0.416227 -1.52004 0
M  V30 6875 C 644.22 1.16233 -1.66917 0
M  V30 6876 C 644.575 1.8839 -0.390763 0
M  V30 6877 O 643.868 1.81479 0.614478 0
M  V30 6878 C 644.062 2.18923 -2.82502 0
M  V30 6879 C 643.891 1.56849 -4.2146 0
M  V30 6880 C 642.661 1.34426 -4.87091 0
M  V30 6881 C 644.859 1.03322 -5.03815 0
M  V30 6882 N 642.841 0.681703 -6.10103 0
M  V30 6883 C 644.212 0.497165 -6.18003 0
M  V30 6884 C 646.267 0.926997 -4.89194 0
M  V30 6885 C 644.97 -0.134687 -7.19174 0
M  V30 6886 C 646.996 0.309009 -5.90592 0
M  V30 6887 C 646.358 -0.216399 -7.04068 0
M  V30 6888 H 642.457 0.412252 -0.664509 0
M  V30 6889 H 645.041 0.455758 -1.89291 0
M  V30 6890 H 643.212 2.86946 -2.61756 0
M  V30 6891 H 644.944 2.85844 -2.86488 0
M  V30 6892 H 641.699 1.61183 -4.45328 0
M  V30 6893 H 642.123 0.367256 -6.76003 0
M  V30 6894 H 646.765 1.31904 -4.01698 0
M  V30 6895 H 644.483 -0.538811 -8.06302 0
M  V30 6896 H 648.069 0.228438 -5.81351 0
M  V30 6897 H 646.949 -0.687064 -7.81184 0
M  V30 6898 N 644.452 1.42507 0.673017 0
M  V30 6899 C 645.4 1.46362 1.80779 0
M  V30 6900 C 646.394 0.339166 1.6597 0
M  V30 6901 O 647.6 0.512262 1.72557 0
M  V30 6902 H 643.975 0.458433 0.596107 0
M  V30 6903 H 645.946 2.41953 1.74646 0
M  V30 6904 C 644.695 1.38462 3.18941 0
M  V30 6905 H 644.018 2.24283 3.30964 0
M  V30 6906 H 645.458 1.45221 3.98355 0
M  V30 6907 C 643.917 0.0996354 3.36753 0
M  V30 6908 O 644.447 -0.846894 3.92671 0
M  V30 6909 N 642.653 0.016211 2.90595 0
M  V30 6910 H 642.2 0.78725 2.45276 0
M  V30 6911 H 642.158 -0.84291 3.0289 0
M  V30 6912 N 645.93 -0.909495 1.28709 0
M  V30 6913 C 647.155 -1.69801 1.1909 0
M  V30 6914 C 647.58 -1.86479 -0.246388 0
M  V30 6915 O 646.938 -1.37802 -1.17815 0
M  V30 6916 C 646.986 -3.06543 1.89904 0
M  V30 6917 O 646.09 -3.94268 1.2094 0
M  V30 6918 H 645.431 -0.519783 0.413185 0
M  V30 6919 H 647.961 -1.13689 1.70106 0
M  V30 6920 H 647.971 -3.56748 1.97977 0
M  V30 6921 H 646.646 -2.93722 2.94449 0
M  V30 6922 H 645.223 -3.52702 1.2106 0
M  V30 6923 N 647.408 -1.11026 -1.11852 0
M  V30 6924 C 648.356 -0.759643 -2.19846 0
M  V30 6925 C 649.35 0.246964 -1.6759 0
M  V30 6926 O 650.556 0.106693 -1.79684 0
M  V30 6927 H 646.931 -0.22775 -0.716683 0
M  V30 6928 H 648.902 -1.6792 -2.46669 0
M  V30 6929 C 647.651 -0.214364 -3.47039 0
M  V30 6930 H 646.974 -0.980175 -3.87599 0
M  V30 6931 H 648.414 -0.00717047 -4.23999 0
M  V30 6932 C 646.873 1.05436 -3.19976 0
M  V30 6933 O 647.403 2.13483 -3.40276 0
M  V30 6934 N 645.609 0.975436 -2.7374 0
M  V30 6935 H 645.156 0.0960853 -2.57421 0
M  V30 6936 H 645.114 1.82501 -2.5601 0
M  V30 6937 N 648.886 1.2938 -0.899927 0
M  V30 6938 C 649.834 2.29675 -0.367698 0
M  V30 6939 C 650.828 1.60787 0.533282 0
M  V30 6940 O 652.034 1.75126 0.416058 0
M  V30 6941 H 648.409 0.745284 -0.100279 0
M  V30 6942 H 650.38 2.72008 -1.22696 0
M  V30 6943 C 649.129 3.45512 0.389483 0
M  V30 6944 H 648.452 3.98713 -0.294575 0
M  V30 6945 H 649.892 4.17725 0.726744 0
M  V30 6946 C 648.351 2.969 1.59223 0
M  V30 6947 O 648.881 2.98195 2.69152 0
M  V30 6948 N 647.087 2.52728 1.43447 0
M  V30 6949 H 646.634 2.51873 0.540148 0
M  V30 6950 H 646.592 2.20561 2.24054 0
M  V30 6951 N 650.364 0.662433 1.43002 0
M  V30 6952 C 651.294 -0.00979809 2.33498 0
M  V30 6953 C 652.275 -0.802329 1.49989 0
M  V30 6954 O 653.46 -0.761964 1.78627 0
M  V30 6955 C 650.59 -0.970446 3.33466 0
M  V30 6956 C 649.544 -0.287383 4.27034 0
M  V30 6957 C 648.87 -1.36012 5.17112 0
M  V30 6958 C 650.17 0.82595 5.15728 0
M  V30 6959 H 651.864 0.745959 2.89958 0
M  V30 6960 H 649.41 0.360172 1.39423 0
M  V30 6961 H 651.363 -1.44971 3.95679 0
M  V30 6962 H 650.087 -1.75748 2.75282 0
M  V30 6963 H 648.746 0.17152 3.66199 0
M  V30 6964 H 648.394 -2.13882 4.55262 0
M  V30 6965 H 648.094 -0.908276 5.80538 0
M  V30 6966 H 649.618 -1.84056 5.82199 0
M  V30 6967 H 651.032 0.42845 5.71697 0
M  V30 6968 H 649.429 1.20282 5.87922 0
M  V30 6969 H 650.499 1.68003 4.54866 0
M  V30 6970 N 651.842 -1.52309 0.404946 0
M  V30 6971 C 653.119 -1.94237 -0.230544 0
M  V30 6972 C 653.499 -1.34154 -1.6299 0
M  V30 6973 O 652.847 -0.515713 -2.22604 0
M  V30 6974 C 653.057 -3.48166 -0.241106 0
M  V30 6975 C 654.405 -4.22074 -0.462488 0
M  V30 6976 O 655.429 -3.54754 -0.320644 0
M  V30 6977 O 654.288 -5.41443 -0.741708 0
M  V30 6978 H 651.382 -0.813766 -0.147358 0
M  V30 6979 H 653.928 -1.6333 0.460587 0
M  V30 6980 H 652.7 -3.84269 0.738467 0
M  V30 6981 H 652.323 -3.85422 -0.97651 0
M  V30 6982 N 653.32 -0.135238 -1.57019 0
M  V30 6983 C 654.545 0.529343 -2.00531 0
M  V30 6984 C 654.97 1.58391 -1.01459 0
M  V30 6985 O 654.328 1.81296 0.0113986 0
M  V30 6986 C 654.376 1.11748 -3.42848 0
M  V30 6987 O 653.48 2.23267 -3.46736 0
M  V30 6988 H 652.821 0.130669 -0.651016 0
M  V30 6989 H 655.351 -0.228503 -2.0332 0
M  V30 6990 H 655.361 1.44905 -3.81401 0
M  V30 6991 H 654.036 0.345147 -4.14465 0
M  V30 6992 H 652.613 1.91428 -3.20015 0
M  V30 6993 N 654.798 1.5699 0.138552 0
M  V30 6994 C 655.745 1.98899 1.17081 0
M  V30 6995 C 656.715 0.857922 1.42228 0
M  V30 6996 O 657.9 1.12065 1.54422 0
M  V30 6997 C 655.04 2.38189 2.4972 0
M  V30 6998 C 654.153 3.64624 2.31674 0
M  V30 6999 C 653.288 3.9298 3.57407 0
M  V30 7000 C 652.327 5.1266 3.34435 0
M  V30 7001 N 651.464 5.36983 4.5232 0
M  V30 7002 H 656.304 2.86881 0.80642 0
M  V30 7003 H 653.841 1.41925 0.386727 0
M  V30 7004 H 655.799 2.59 3.2707 0
M  V30 7005 H 654.429 1.53275 2.84089 0
M  V30 7006 H 653.481 3.51542 1.45337 0
M  V30 7007 H 654.793 4.52131 2.10664 0
M  V30 7008 H 653.947 4.14335 4.43183 0
M  V30 7009 H 652.686 3.03912 3.8143 0
M  V30 7010 H 651.691 4.9117 2.47048 0
M  V30 7011 H 652.916 6.03288 3.11802 0
M  V30 7012 H 650.862 4.50871 4.76499 0
M  V30 7013 H 650.779 6.18775 4.34343 0
M  V30 7014 H 652.047 5.62842 5.39285 0
M  V30 7015 N 656.276 -0.40816 1.52223 0
M  V30 7016 C 657.522 -1.15673 1.66576 0
M  V30 7017 C 657.855 -1.90141 0.394996 0
M  V30 7018 O 657.13 -1.84798 -0.606613 0
M  V30 7019 C 657.413 -2.15042 2.88841 0
M  V30 7020 C 657.266 -1.44465 4.25969 0
M  V30 7021 C 658.585 -3.15699 3.0663 0
M  V30 7022 H 655.704 -0.41916 0.606196 0
M  V30 7023 H 658.346 -0.442348 1.84779 0
M  V30 7024 H 656.496 -2.75964 2.73452 0
M  V30 7025 H 658.168 -0.866544 4.53088 0
M  V30 7026 H 656.411 -0.746612 4.27327 0
M  V30 7027 H 657.082 -2.16976 5.07568 0
M  V30 7028 H 659.558 -2.64854 3.20923 0
M  V30 7029 H 658.434 -3.82491 3.9369 0
M  V30 7030 H 658.695 -3.83481 2.19987 0
M  V30 7031 N 657.755 -1.42862 -0.66545 0
M  V30 7032 C 659.003 -1.43546 -1.42264 0
M  V30 7033 C 659.324 -0.0563116 -1.94919 0
M  V30 7034 O 658.594 0.906568 -1.73661 0
M  V30 7035 H 657.174 -0.528464 -0.527953 0
M  V30 7036 H 659.836 -1.78363 -0.785665 0
M  V30 7037 H 658.932 -2.14079 -2.27105 0
M  V30 7038 N 659.233 0.902656 -1.29189 0
M  V30 7039 C 660.481 1.6496 -1.16758 0
M  V30 7040 C 660.802 1.92952 0.28188 0
M  V30 7041 O 660.072 1.55351 1.19344 0
M  V30 7042 H 658.652 0.611447 -0.429118 0
M  V30 7043 H 661.314 1.0825 -1.62074 0
M  V30 7044 H 660.41 2.60728 -1.71544 0
M  V30 7045 N 660.711 1.11618 1.11262 0
M  V30 7046 C 661.659 0.771291 2.1944 0
M  V30 7047 C 662.653 -0.238073 1.67719 0
M  V30 7048 O 663.859 -0.0971628 1.79738 0
M  V30 7049 H 660.234 0.231548 0.715465 0
M  V30 7050 H 662.205 1.69226 2.45775 0
M  V30 7051 C 660.954 0.232765 3.4692 0
M  V30 7052 H 660.277 1.00072 3.87073 0
M  V30 7053 H 661.717 0.0296561 4.2399 0
M  V30 7054 C 660.176 -1.03738 3.20531 0
M  V30 7055 O 660.706 -2.11675 3.41404 0
M  V30 7056 N 658.912 -0.960906 2.74253 0
M  V30 7057 H 658.459 -0.0824323 2.57468 0
M  V30 7058 H 658.417 -1.8114 2.56974 0
M  V30 7059 N 662.189 -1.289 0.906776 0
M  V30 7060 C 663.419 -1.99112 0.551168 0
M  V30 7061 C 663.827 -1.67998 -0.870243 0
M  V30 7062 O 663.17 -0.92525 -1.58697 0
M  V30 7063 C 663.232 -3.53162 0.672065 0
M  V30 7064 C 662.896 -4.07849 2.06174 0
M  V30 7065 C 663.893 -4.22212 3.0337 0
M  V30 7066 C 661.578 -4.4271 2.37304 0
M  V30 7067 C 663.572 -4.70678 4.29815 0
M  V30 7068 C 661.259 -4.90871 3.6399 0
M  V30 7069 C 662.257 -5.04811 4.6006 0
M  V30 7070 O 661.945 -5.51925 5.84495 0
M  V30 7071 H 661.677 -0.642728 0.209469 0
M  V30 7072 H 664.231 -1.65234 1.22012 0
M  V30 7073 H 662.461 -3.86662 -0.05394 0
M  V30 7074 H 664.15 -4.046 0.324579 0
M  V30 7075 H 664.916 -3.9556 2.80637 0
M  V30 7076 H 660.795 -4.31114 1.63283 0
M  V30 7077 H 664.339 -4.81474 5.04806 0
M  V30 7078 H 660.236 -5.16961 3.86551 0
M  V30 7079 H 661.004 -5.70225 5.87185 0
M  V30 7080 N 663.667 -0.670007 -1.42649 0
M  V30 7081 C 664.615 0.0230106 -2.32589 0
M  V30 7082 C 665.609 0.795585 -1.49555 0
M  V30 7083 O 666.815 0.70409 -1.65658 0
M  V30 7084 H 663.19 0.0262342 -0.751542 0
M  V30 7085 H 665.161 -0.753009 -2.88743 0
M  V30 7086 C 663.91 0.963872 -3.34073 0
M  V30 7087 H 663.233 0.378813 -3.98001 0
M  V30 7088 H 664.673 1.41755 -3.99602 0
M  V30 7089 C 663.132 2.06797 -2.65964 0
M  V30 7090 O 663.662 3.15383 -2.48789 0
M  V30 7091 N 661.868 1.83831 -2.25066 0
M  V30 7092 H 661.415 0.955235 -2.39234 0
M  V30 7093 H 661.373 2.57895 -1.79827 0
M  V30 7094 N 665.145 1.52092 -0.413018 0
M  V30 7095 C 666.375 2.05974 0.160648 0
M  V30 7096 C 666.783 1.28267 1.39084 0
M  V30 7097 O 666.126 0.328805 1.80733 0
M  V30 7098 C 666.188 3.54918 0.572169 0
M  V30 7099 C 665.852 4.53705 -0.547826 0
M  V30 7100 C 666.849 5.00342 -1.41259 0
M  V30 7101 C 664.534 4.97089 -0.721627 0
M  V30 7102 C 666.528 5.89011 -2.43607 0
M  V30 7103 C 664.215 5.85554 -1.74841 0
M  V30 7104 C 665.213 6.3141 -2.60403 0
M  V30 7105 O 664.901 7.18123 -3.61323 0
M  V30 7106 H 664.633 0.675636 0.0221936 0
M  V30 7107 H 667.187 1.96931 -0.58373 0
M  V30 7108 H 665.417 3.61661 1.36889 0
M  V30 7109 H 667.106 3.91428 1.0742 0
M  V30 7110 H 667.872 4.67537 -1.28974 0
M  V30 7111 H 663.751 4.60954 -0.0652911 0
M  V30 7112 H 667.295 6.24725 -3.10425 0
M  V30 7113 H 663.192 6.17773 -1.87156 0
M  V30 7114 H 663.96 7.36244 -3.57613 0
M  V30 7115 N 666.623 0.143563 1.56945 0
M  V30 7116 C 667.553 -0.7936 2.196 0
M  V30 7117 C 668.534 -1.25955 1.14321 0
M  V30 7118 O 669.719 -1.31773 1.42651 0
M  V30 7119 C 666.849 -2.03424 2.81489 0
M  V30 7120 C 665.803 -1.70519 3.92565 0
M  V30 7121 C 665.129 -3.01817 4.41373 0
M  V30 7122 C 666.429 -0.95449 5.13504 0
M  V30 7123 H 668.123 -0.271423 2.98167 0
M  V30 7124 H 665.669 -0.12911 1.4342 0
M  V30 7125 H 667.622 -2.69463 3.23987 0
M  V30 7126 H 666.346 -2.58008 2.00248 0
M  V30 7127 H 665.005 -1.06859 3.5068 0
M  V30 7128 H 664.653 -3.54386 3.56959 0
M  V30 7129 H 664.353 -2.80565 5.16292 0
M  V30 7130 H 665.877 -3.68934 4.86539 0
M  V30 7131 H 667.291 -1.5169 5.52868 0
M  V30 7132 H 665.688 -0.842035 5.94163 0
M  V30 7133 H 666.758 0.0544033 4.84869 0
M  V30 7134 N 668.101 -1.57061 -0.130224 0
M  V30 7135 C 669.331 -1.88159 -0.853217 0
M  V30 7136 C 669.739 -0.731675 -1.7448 0
M  V30 7137 O 669.082 0.307035 -1.81116 0
M  V30 7138 C 669.144 -3.1415 -1.74785 0
M  V30 7139 C 668.808 -4.45202 -1.03173 0
M  V30 7140 C 669.805 -5.18526 -0.377759 0
M  V30 7141 C 667.49 -4.91912 -1.01624 0
M  V30 7142 C 669.484 -6.36775 0.282123 0
M  V30 7143 C 667.171 -6.10082 -0.352555 0
M  V30 7144 C 668.169 -6.82361 0.295483 0
M  V30 7145 O 667.857 -7.98284 0.948606 0
M  V30 7146 H 667.589 -0.627596 -0.251197 0
M  V30 7147 H 670.143 -2.05034 -0.1226 0
M  V30 7148 H 668.373 -2.93328 -2.51983 0
M  V30 7149 H 670.062 -3.31359 -2.34427 0
M  V30 7150 H 670.828 -4.83498 -0.381417 0
M  V30 7151 H 666.707 -4.35566 -1.51007 0
M  V30 7152 H 670.251 -6.93129 0.788525 0
M  V30 7153 H 666.148 -6.44569 -0.346621 0
M  V30 7154 H 666.916 -8.14054 0.851954 0
M  V30 7155 N 669.579 0.400081 -1.52437 0
M  V30 7156 C 670.995 0.739359 -1.41441 0
M  V30 7157 C 671.195 1.94512 -0.526053 0
M  V30 7158 O 670.251 2.525 0.00472502 0
M  V30 7159 C 671.564 0.984824 -2.84116 0
M  V30 7160 C 673.112 1.08698 -2.93519 0
M  V30 7161 C 673.587 1.36515 -4.37181 0
M  V30 7162 N 675.078 1.43361 -4.40457 0
M  V30 7163 C 675.813 1.66528 -5.48686 0
M  V30 7164 N 675.309 1.87239 -6.67018 0
M  V30 7165 N 677.102 1.68617 -5.36213 0
M  V30 7166 H 669.253 -0.393484 -2.08723 0
M  V30 7167 H 671.516 -0.1138 -0.941145 0
M  V30 7168 H 671.222 0.171096 -3.51284 0
M  V30 7169 H 671.096 1.90253 -3.25705 0
M  V30 7170 H 673.483 1.89129 -2.26526 0
M  V30 7171 H 673.564 0.147432 -2.55375 0
M  V30 7172 H 673.208 0.565982 -5.04737 0
M  V30 7173 H 673.138 2.31737 -4.7287 0
M  V30 7174 H 675.629 1.29108 -3.55161 0
M  V30 7175 H 675.942 2.04392 -7.45281 0
M  V30 7176 H 674.287 1.84486 -6.70067 0
M  V30 7177 H 677.478 1.5198 -4.42741 0
M  V30 7178 H 677.651 1.86332 -6.20632 0
M  V30 7179 N 671.057 1.43213 0.657864 0
M  V30 7180 C 671.987 1.50815 1.78262 0
M  V30 7181 C 672.968 0.363211 1.66177 0
M  V30 7182 O 674.153 0.579806 1.85343 0
M  V30 7183 C 671.283 1.42625 3.16663 0
M  V30 7184 C 670.237 2.5532 3.43505 0
M  V30 7185 C 669.563 2.32184 4.81658 0
M  V30 7186 C 670.863 3.97583 3.38711 0
M  V30 7187 H 672.557 2.44954 1.72157 0
M  V30 7188 H 670.103 1.17896 0.82683 0
M  V30 7189 H 672.056 1.46548 3.95097 0
M  V30 7190 H 670.78 0.449877 3.23487 0
M  V30 7191 H 669.439 2.50742 2.6744 0
M  V30 7192 H 669.087 1.32801 4.85153 0
M  V30 7193 H 668.787 3.07724 5.00579 0
M  V30 7194 H 670.311 2.37883 5.62356 0
M  V30 7195 H 671.725 4.03673 4.07089 0
M  V30 7196 H 670.122 4.73112 3.69168 0
M  V30 7197 H 671.192 4.23049 2.36976 0
M  V30 7198 N 672.536 -0.895792 1.29666 0
M  V30 7199 C 673.783 -1.64664 1.17864 0
M  V30 7200 C 674.111 -1.92631 -0.26902 0
M  V30 7201 O 673.366 -1.53787 -1.21029 0
M  V30 7202 C 673.665 -3.00075 1.94139 0
M  V30 7203 C 673.331 -2.91702 3.43833 0
M  V30 7204 C 671.993 -2.89126 3.84656 0
M  V30 7205 C 674.345 -2.80622 4.39205 0
M  V30 7206 C 671.673 -2.73293 5.1916 0
M  V30 7207 C 674.025 -2.66329 5.73805 0
M  V30 7208 C 672.689 -2.62121 6.1388 0
M  V30 7209 H 671.959 -0.602549 0.431295 0
M  V30 7210 H 674.606 -1.04234 1.60648 0
M  V30 7211 H 672.911 -3.64394 1.43958 0
M  V30 7212 H 674.608 -3.57111 1.82408 0
M  V30 7213 H 671.198 -2.94511 3.11386 0
M  V30 7214 H 675.382 -2.81686 4.08615 0
M  V30 7215 H 670.638 -2.68443 5.49316 0
M  V30 7216 H 674.812 -2.56727 6.47352 0
M  V30 7217 H 672.439 -2.49611 7.18052 0
M  V30 7218 N 674.014 -1.12206 -1.10668 0
M  V30 7219 C 675.43 -0.857619 -1.346 0
M  V30 7220 C 675.63 0.513542 -1.94846 0
M  V30 7221 O 674.686 1.26273 -2.18658 0
M  V30 7222 C 675.999 -1.97212 -2.26998 0
M  V30 7223 C 677.547 -2.00272 -2.40542 0
M  V30 7224 C 678.022 -3.10948 -3.36267 0
M  V30 7225 N 679.513 -3.10375 -3.43834 0
M  V30 7226 C 680.248 -3.92651 -4.17867 0
M  V30 7227 N 679.744 -4.84911 -4.94807 0
M  V30 7228 N 681.537 -3.80798 -4.1346 0
M  V30 7229 H 673.688 -2.00558 -0.699306 0
M  V30 7230 H 675.951 -0.872612 -0.370477 0
M  V30 7231 H 675.657 -2.96002 -1.89936 0
M  V30 7232 H 675.531 -1.87521 -3.27286 0
M  V30 7233 H 677.918 -1.02103 -2.76874 0
M  V30 7234 H 677.999 -2.14037 -1.40077 0
M  V30 7235 H 677.643 -4.09348 -3.00661 0
M  V30 7236 H 677.573 -2.94421 -4.36605 0
M  V30 7237 H 680.064 -2.43536 -2.88961 0
M  V30 7238 H 680.377 -5.44207 -5.48688 0
M  V30 7239 H 678.722 -4.88926 -4.93939 0
M  V30 7240 H 681.913 -3.08058 -3.52445 0
M  V30 7241 H 682.086 -4.4515 -4.70898 0
M  V30 7242 N 675.492 1.28418 -0.913599 0
M  V30 7243 C 676.439 2.27301 -0.400373 0
M  V30 7244 C 677.409 1.57582 0.52509 0
M  V30 7245 O 678.594 1.85482 0.447318 0
M  V30 7246 C 675.734 3.43284 0.35361 0
M  V30 7247 C 674.847 4.27752 -0.604341 0
M  V30 7248 C 673.982 5.30934 0.168075 0
M  V30 7249 C 673.021 6.07065 -0.783499 0
M  V30 7250 N 672.158 7.02086 -0.0446112 0
M  V30 7251 H 676.998 2.70579 -1.24865 0
M  V30 7252 H 674.535 1.33067 -0.627028 0
M  V30 7253 H 676.493 4.09322 0.806945 0
M  V30 7254 H 675.123 3.00997 1.16623 0
M  V30 7255 H 674.175 3.61759 -1.17621 0
M  V30 7256 H 675.487 4.80682 -1.33216 0
M  V30 7257 H 674.641 6.02855 0.681979 0
M  V30 7258 H 673.38 4.78771 0.928947 0
M  V30 7259 H 672.385 5.33995 -1.30878 0
M  V30 7260 H 673.61 6.61317 -1.54392 0
M  V30 7261 H 671.556 6.52273 0.698272 0
M  V30 7262 H 671.473 7.52637 -0.712258 0
M  V30 7263 H 672.741 7.78205 0.449102 0
M  V30 7264 N 676.97 0.677563 1.42291 0
M  V30 7265 C 678.195 0.207901 2.06355 0
M  V30 7266 C 678.62 -1.12723 1.50583 0
M  V30 7267 O 677.978 -1.70171 0.62543 0
M  V30 7268 C 678.026 0.156489 3.6026 0
M  V30 7269 O 677.13 -0.874162 4.03029 0
M  V30 7270 H 676.471 0.106056 0.655475 0
M  V30 7271 H 679.001 0.927354 1.82377 0
M  V30 7272 H 679.011 -0.0187258 4.07996 0
M  V30 7273 H 677.686 1.13101 4.00226 0
M  V30 7274 H 676.263 -0.669764 3.66836 0
M  V30 7275 N 678.448 -1.51871 0.421078 0
M  V30 7276 C 679.396 -2.28903 -0.413066 0
M  V30 7277 C 680.39 -1.3408 -1.03532 0
M  V30 7278 O 681.596 -1.5149 -0.972146 0
M  V30 7279 H 677.971 -0.736478 -0.152003 0
M  V30 7280 H 679.942 -2.97285 0.257695 0
M  V30 7281 C 678.691 -3.13156 -1.51091 0
M  V30 7282 H 678.014 -3.85997 -1.04145 0
M  V30 7283 H 679.454 -3.7014 -2.06814 0
M  V30 7284 C 677.913 -2.27482 -2.48503 0
M  V30 7285 O 678.443 -1.92325 -3.52667 0
M  V30 7286 N 676.649 -1.91019 -2.18998 0
M  V30 7287 H 676.196 -2.19808 -1.34322 0
M  V30 7288 H 676.154 -1.3399 -2.84419 0
M  V30 7289 N 679.926 -0.151884 -1.56866 0
M  V30 7290 C 680.856 0.781943 -2.20018 0
M  V30 7291 C 681.837 1.25347 -1.14987 0
M  V30 7292 O 683.022 1.31015 -1.43348 0
M  V30 7293 C 680.152 2.01928 -2.82564 0
M  V30 7294 C 679.106 1.68434 -3.93464 0
M  V30 7295 C 678.432 2.99472 -4.42968 0
M  V30 7296 C 679.732 0.927244 -5.14003 0
M  V30 7297 H 681.426 0.255607 -2.98307 0
M  V30 7298 H 678.972 0.121502 -1.43486 0
M  V30 7299 H 680.925 2.67741 -3.25411 0
M  V30 7300 H 679.649 2.56943 -2.01614 0
M  V30 7301 H 678.308 1.04998 -3.51242 0
M  V30 7302 H 677.956 3.52488 -3.58834 0
M  V30 7303 H 677.656 2.77823 -5.17772 0
M  V30 7304 H 679.18 3.66348 -4.88489 0
M  V30 7305 H 680.594 1.48756 -5.53665 0
M  V30 7306 H 678.991 0.810513 -5.94601 0
M  V30 7307 H 680.061 -0.0801163 -4.84834 0
M  V30 7308 N 681.404 1.57128 0.121893 0
M  V30 7309 C 682.351 2.0013 1.14964 0
M  V30 7310 C 683.321 0.872959 1.4131 0
M  V30 7311 O 684.506 1.13696 1.53225 0
M  V30 7312 C 681.646 2.40824 2.4718 0
M  V30 7313 C 680.759 3.67061 2.27794 0
M  V30 7314 C 679.894 3.96749 3.53219 0
M  V30 7315 C 678.933 5.16178 3.28978 0
M  V30 7316 N 678.07 5.41751 4.46599 0
M  V30 7317 H 682.91 2.8772 0.775947 0
M  V30 7318 H 680.447 1.42328 0.371652 0
M  V30 7319 H 682.405 2.62454 3.24305 0
M  V30 7320 H 681.035 1.56279 2.82448 0
M  V30 7321 H 680.087 3.53063 1.416 0
M  V30 7322 H 681.399 4.5434 2.05857 0
M  V30 7323 H 680.553 4.19012 4.38764 0
M  V30 7324 H 679.292 3.07941 3.78185 0
M  V30 7325 H 678.297 4.93762 2.41824 0
M  V30 7326 H 679.522 6.06561 3.05386 0
M  V30 7327 H 677.468 4.55899 4.71691 0
M  V30 7328 H 677.385 6.23347 4.27756 0
M  V30 7329 H 678.653 5.68531 5.33285 0
M  V30 7330 N 682.882 -0.391992 1.52647 0
M  V30 7331 C 684.293 -0.970064 1.5952 0
M  V30 7332 C 684.644 -1.91059 0.446207 0
M  V30 7333 O 683.769 -2.12062 -0.431125 0
M  V30 7334 C 684.364 -1.76614 2.89125 0
M  V30 7335 C 682.923 -2.29396 2.9842 0
M  V30 7336 C 682.07 -1.09864 2.54608 0
M  V30 7337 H 685.021 -0.171638 1.57769 0
M  V30 7338 H 685.042 -2.62511 2.75442 0
M  V30 7339 H 684.554 -1.08135 3.72731 0
M  V30 7340 H 682.655 -3.01196 2.19344 0
M  V30 7341 H 682.768 -2.59088 4.03002 0
M  V30 7342 H 681.132 -1.45777 2.08857 0
M  V30 7343 H 681.915 -0.429249 3.40606 0
M  V30 7344 N 684.36 -1.4356 -0.65026 0
M  V30 7345 C 685.607 -1.45333 -1.41012 0
M  V30 7346 C 685.935 -0.0787282 -1.94341 0
M  V30 7347 O 685.19 0.916715 -1.72901 0
M  V30 7348 C 685.489 -2.44528 -2.60654 0
M  V30 7349 C 685.155 -3.90331 -2.25727 0
M  V30 7350 C 683.817 -4.3004 -2.15914 0
M  V30 7351 C 686.169 -4.822 -1.97821 0
M  V30 7352 C 683.497 -5.59568 -1.76354 0
M  V30 7353 C 685.849 -6.12095 -1.59759 0
M  V30 7354 C 684.513 -6.50778 -1.48473 0
M  V30 7355 H 683.783 -0.531813 -0.516 0
M  V30 7356 H 686.43 -1.76657 -0.739219 0
M  V30 7357 H 684.735 -2.06619 -3.3289 0
M  V30 7358 H 686.432 -2.43155 -3.18868 0
M  V30 7359 H 683.022 -3.58905 -2.34276 0
M  V30 7360 H 687.206 -4.5229 -2.04322 0
M  V30 7361 H 682.462 -5.88376 -1.66205 0
M  V30 7362 H 686.636 -6.82751 -1.37198 0
M  V30 7363 H 684.263 -7.5105 -1.17591 0
M  V30 7364 N 685.838 0.888903 -1.30139 0
M  V30 7365 C 686.748 2.02705 -1.18101 0
M  V30 7366 C 687.764 1.73702 -0.101809 0
M  V30 7367 O 688.94 1.98906 -0.315984 0
M  V30 7368 C 686.005 3.35616 -0.869651 0
M  V30 7369 C 685.066 3.78067 -2.03381 0
M  V30 7370 C 684.299 5.04635 -1.73721 0
M  V30 7371 O 684.522 5.66531 -0.663267 0
M  V30 7372 O 683.456 5.43399 -2.58845 0
M  V30 7373 H 687.282 2.15788 -2.13704 0
M  V30 7374 H 684.867 1.01426 -1.09695 0
M  V30 7375 H 686.749 4.15358 -0.711043 0
M  V30 7376 H 685.424 3.23651 0.0565002 0
M  V30 7377 H 684.331 2.99046 -2.24772 0
M  V30 7378 H 685.664 3.94631 -2.94155 0
M  V30 7379 N 687.317 1.12792 1.10072 0
M  V30 7380 C 688.733 0.864745 1.34143 0
M  V30 7381 C 688.933 -0.503201 1.95116 0
M  V30 7382 O 687.989 -1.25111 2.19325 0
M  V30 7383 C 689.302 1.98413 2.25949 0
M  V30 7384 C 690.85 2.01545 2.39476 0
M  V30 7385 C 691.325 3.12727 3.34613 0
M  V30 7386 N 692.816 3.12194 3.42183 0
M  V30 7387 C 693.551 3.94862 4.15779 0
M  V30 7388 N 693.047 4.87528 4.92228 0
M  V30 7389 N 694.84 3.82985 4.11435 0
M  V30 7390 H 686.991 2.00926 0.68866 0
M  V30 7391 H 689.254 0.874564 0.365844 0
M  V30 7392 H 688.96 2.97005 1.88364 0
M  V30 7393 H 688.834 1.89254 3.26287 0
M  V30 7394 H 691.221 1.0357 2.76328 0
M  V30 7395 H 691.302 2.14777 1.3894 0
M  V30 7396 H 690.946 4.10936 2.98486 0
M  V30 7397 H 690.876 2.96732 4.35037 0
M  V30 7398 H 693.367 2.45065 2.87666 0
M  V30 7399 H 693.68 5.47109 5.45794 0
M  V30 7400 H 692.025 4.91539 4.9134 0
M  V30 7401 H 695.216 3.09923 3.50807 0
M  V30 7402 H 695.389 4.47641 4.68531 0
M  V30 7403 N 688.795 -1.27931 0.920396 0
M  V30 7404 C 690.072 -1.89728 0.475687 0
M  V30 7405 C 690.452 -1.8337 -1.04588 0
M  V30 7406 O 689.8 -1.27404 -1.89685 0
M  V30 7407 C 690.01 -3.33959 1.01354 0
M  V30 7408 C 691.358 -4.10907 1.06963 0
M  V30 7409 O 692.382 -3.42945 0.962646 0
M  V30 7410 O 691.241 -5.32399 1.23343 0
M  V30 7411 H 688.335 -0.81294 0.151845 0
M  V30 7412 H 690.881 -1.36252 1.01161 0
M  V30 7413 H 689.653 -3.32843 2.05746 0
M  V30 7414 H 689.276 -3.94944 0.458829 0
M  V30 7415 N 690.273 -0.685099 -1.4193 0
M  V30 7416 C 691.522 -0.208816 -2.00616 0
M  V30 7417 C 691.835 1.19506 -1.54847 0
M  V30 7418 O 693.041 1.76826 -2.06021 0
M  V30 7419 C 691.497 -0.322446 -3.58453 0
M  V30 7420 C 691.105 -1.73102 -4.13206 0
M  V30 7421 C 692.849 0.0945979 -4.24395 0
M  V30 7422 C 690.756 -1.79687 -5.63442 0
M  V30 7423 H 689.686 -0.0743092 -0.750329 0
M  V30 7424 H 692.337 -0.851778 -1.62533 0
M  V30 7425 H 690.719 0.388588 -3.94089 0
M  V30 7426 H 691.893 -2.46997 -3.8901 0
M  V30 7427 H 690.208 -2.09682 -3.59753 0
M  V30 7428 H 692.805 0.0656937 -5.3466 0
M  V30 7429 H 693.148 1.1316 -4.00625 0
M  V30 7430 H 693.681 -0.56579 -3.93756 0
M  V30 7431 H 690.42 -2.81404 -5.92024 0
M  V30 7432 H 689.94 -1.10162 -5.89597 0
M  V30 7433 H 691.619 -1.55498 -6.28036 0
M  V30 7434 N 691.751 1.51645 -0.429126 0
M  V30 7435 C 692.976 2.06917 0.141399 0
M  V30 7436 C 693.401 1.29527 1.36398 0
M  V30 7437 O 692.759 0.33094 1.78254 0
M  V30 7438 C 692.807 3.57776 0.4504 0
M  V30 7439 O 691.911 3.82639 1.53821 0
M  V30 7440 H 691.252 0.663978 0.0054647 0
M  V30 7441 H 693.782 1.95355 -0.608093 0
M  V30 7442 H 693.792 4.01894 0.703249 0
M  V30 7443 H 692.467 4.13532 -0.443213 0
M  V30 7444 H 691.044 3.5039 1.27597 0
M  V30 7445 N 693.229 0.160201 1.56784 0
M  V30 7446 C 694.457 -0.494165 2.00912 0
M  V30 7447 C 694.872 -1.57548 1.04038 0
M  V30 7448 O 694.229 -1.82457 0.0394581 0
M  V30 7449 C 694.28 -1.08271 3.44905 0
M  V30 7450 O 694.001 -0.0445704 4.38077 0
M  V30 7451 C 695.502 -1.8164 4.04378 0
M  V30 7452 H 692.722 -0.127498 0.658776 0
M  V30 7453 H 695.266 0.258665 2.02858 0
M  V30 7454 H 693.421 -1.78609 3.4377 0
M  V30 7455 H 693.835 -0.477544 5.22322 0
M  V30 7456 H 695.309 -2.18094 5.07089 0
M  V30 7457 H 695.786 -2.70727 3.45838 0
M  V30 7458 H 696.392 -1.15969 4.09184 0
M  V30 7459 N 694.707 -1.5719 -0.113559 0
M  V30 7460 C 695.617 -2.04041 -1.15777 0
M  V30 7461 C 696.633 -0.961812 -1.45001 0
M  V30 7462 O 697.809 -1.2737 -1.56009 0
M  V30 7463 C 694.874 -2.43994 -2.46308 0
M  V30 7464 C 693.935 -3.65962 -2.24433 0
M  V30 7465 C 693.168 -4.04 -3.4874 0
M  V30 7466 O 693.391 -3.42321 -4.56259 0
M  V30 7467 O 692.325 -4.97069 -3.3942 0
M  V30 7468 H 696.151 -2.93248 -0.789899 0
M  V30 7469 H 693.736 -1.45828 -0.324748 0
M  V30 7470 H 695.618 -2.70401 -3.23204 0
M  V30 7471 H 694.293 -1.57932 -2.82558 0
M  V30 7472 H 693.2 -3.44697 -1.45377 0
M  V30 7473 H 694.533 -4.52746 -1.93084 0
M  V30 7474 N 696.185 0.383891 -1.52853 0
M  V30 7475 C 697.434 1.12563 -1.67369 0
M  V30 7476 C 697.747 1.90982 -0.422533 0
M  V30 7477 O 698.953 2.6778 -0.447914 0
M  V30 7478 C 697.409 2.05011 -2.95801 0
M  V30 7479 C 697.017 1.31991 -4.28115 0
M  V30 7480 C 698.761 2.79289 -3.19684 0
M  V30 7481 C 696.668 2.23235 -5.4765 0
M  V30 7482 H 695.598 0.42391 -0.623552 0
M  V30 7483 H 698.249 0.388016 -1.79351 0
M  V30 7484 H 696.631 2.82429 -2.77578 0
M  V30 7485 H 697.805 0.597633 -4.56908 0
M  V30 7486 H 696.12 0.696517 -4.10533 0
M  V30 7487 H 698.717 3.47749 -4.06171 0
M  V30 7488 H 699.06 3.43649 -2.3497 0
M  V30 7489 H 699.593 2.08962 -3.38496 0
M  V30 7490 H 696.332 1.63482 -6.34786 0
M  V30 7491 H 695.852 2.93364 -5.23161 0
M  V30 7492 H 697.531 2.83205 -5.81725 0
M  V30 7493 N 697.663 1.43903 0.642637 0
M  V30 7494 C 698.893 1.49323 1.4278 0
M  V30 7495 C 699.301 0.113058 1.88862 0
M  V30 7496 O 698.644 -0.889089 1.60751 0
M  V30 7497 C 698.706 2.3861 2.68897 0
M  V30 7498 C 698.37 3.85976 2.44687 0
M  V30 7499 C 699.367 4.7681 2.07239 0
M  V30 7500 C 697.052 4.30567 2.58683 0
M  V30 7501 C 699.046 6.10234 1.841 0
M  V30 7502 C 696.733 5.64042 2.35159 0
M  V30 7503 C 697.731 6.53693 1.97925 0
M  V30 7504 O 697.419 7.84698 1.74654 0
M  V30 7505 H 697.151 0.509109 0.444729 0
M  V30 7506 H 699.705 1.89425 0.794195 0
M  V30 7507 H 697.935 1.93415 3.34855 0
M  V30 7508 H 699.624 2.35112 3.30873 0
M  V30 7509 H 700.39 4.43635 1.95993 0
M  V30 7510 H 696.269 3.61054 2.86637 0
M  V30 7511 H 699.813 6.80171 1.54962 0
M  V30 7512 H 695.71 5.96782 2.46011 0
M  V30 7513 H 696.478 7.96382 1.88993 0
M  V30 7514 N 699.141 -0.881989 1.30609 0
M  V30 7515 C 700.073 -1.99375 1.13058 0
M  V30 7516 C 701.086 -1.62636 0.0729879 0
M  V30 7517 O 702.275 -1.75621 0.319301 0
M  V30 7518 C 699.375 -3.31536 0.702651 0
M  V30 7519 C 698.548 -3.96693 1.84265 0
M  V30 7520 C 697.607 -5.07158 1.40277 0
M  V30 7521 O 696.633 -5.28628 2.11048 0
M  V30 7522 N 697.835 -5.79808 0.283449 0
M  V30 7523 H 700.6 -2.14981 2.08814 0
M  V30 7524 H 698.161 -1.05526 1.22784 0
M  V30 7525 H 700.153 -4.02804 0.391331 0
M  V30 7526 H 698.723 -3.12175 -0.162954 0
M  V30 7527 H 697.943 -3.1856 2.32192 0
M  V30 7528 H 699.231 -4.36964 2.60653 0
M  V30 7529 H 698.629 -5.64871 -0.306189 0
M  V30 7530 H 697.186 -6.51792 0.0315985 0
M  V30 7531 N 700.619 -1.13374 -1.09472 0
M  V30 7532 C 701.582 -0.813639 -2.14272 0
M  V30 7533 C 702.582 0.176677 -1.59826 0
M  V30 7534 O 703.772 -0.0503441 -1.74127 0
M  V30 7535 C 700.904 -0.210897 -3.40247 0
M  V30 7536 H 702.097 -1.74229 -2.44099 0
M  V30 7537 H 699.65 -0.938304 -1.25002 0
M  V30 7538 H 700.385 0.726998 -3.16046 0
M  V30 7539 H 700.17 -0.924048 -3.81056 0
M  V30 7540 H 701.66 -0.00377603 -4.176 0
M  V30 7541 N 702.098 1.27442 -0.927168 0
M  V30 7542 C 703.346 1.94007 -0.566203 0
M  V30 7543 C 703.667 1.7323 0.895345 0
M  V30 7544 O 702.937 1.07973 1.63459 0
M  V30 7545 H 701.517 0.717917 -0.206409 0
M  V30 7546 H 704.179 1.55161 -1.17945 0
M  V30 7547 H 703.275 3.02401 -0.772028 0
M  V30 7548 N 703.576 0.692616 1.41565 0
M  V30 7549 C 704.801 0.229776 2.06123 0
M  V30 7550 C 705.226 -1.11119 1.5177 0
M  V30 7551 O 704.584 -1.69498 0.643444 0
M  V30 7552 C 704.632 0.19469 3.60074 0
M  V30 7553 O 703.736 -0.831366 4.03933 0
M  V30 7554 H 703.077 0.113002 0.654314 0
M  V30 7555 H 705.607 0.946645 1.81383 0
M  V30 7556 H 705.617 0.0245487 4.07993 0
M  V30 7557 H 704.292 1.17339 3.99004 0
M  V30 7558 H 702.869 -0.630819 3.67526 0
M  V30 7559 N 705.054 -1.51416 0.437162 0
M  V30 7560 C 706.282 -2.06503 -0.128045 0
M  V30 7561 C 706.697 -1.30461 -1.36475 0
M  V30 7562 O 706.054 -0.364127 -1.78831 0
M  V30 7563 C 706.105 -3.58683 -0.450437 0
M  V30 7564 O 705.826 -4.31853 0.737186 0
M  V30 7565 C 707.327 -4.30284 -1.06633 0
M  V30 7566 H 704.547 -0.670952 -0.00800269 0
M  V30 7567 H 707.091 -1.94996 0.616193 0
M  V30 7568 H 705.246 -3.70106 -1.14457 0
M  V30 7569 H 705.66 -5.22467 0.461347 0
M  V30 7570 H 707.134 -5.37848 -1.24191 0
M  V30 7571 H 707.611 -3.88564 -2.0473 0
M  V30 7572 H 708.217 -4.23304 -0.411585 0
M  V30 7573 N 706.532 -0.168513 -1.56696 0
M  V30 7574 C 707.943 0.348694 -1.83415 0
M  V30 7575 C 708.294 1.63257 -1.0882 0
M  V30 7576 O 707.419 2.13707 -0.340333 0
M  V30 7577 C 708.014 0.639423 -3.32711 0
M  V30 7578 C 706.573 1.10108 -3.59935 0
M  V30 7579 C 705.72 0.135464 -2.76969 0
M  V30 7580 H 708.671 -0.392829 -1.53761 0
M  V30 7581 H 708.692 1.49179 -3.50037 0
M  V30 7582 H 708.204 -0.295173 -3.86976 0
M  V30 7583 H 706.305 2.05088 -3.11079 0
M  V30 7584 H 706.418 1.01218 -4.68286 0
M  V30 7585 H 704.782 0.632286 -2.46727 0
M  V30 7586 H 705.565 -0.793104 -3.34013 0
M  V30 7587 N 708.01 1.57248 0.105221 0
M  V30 7588 C 709.25 1.87393 0.816283 0
M  V30 7589 C 709.614 0.758249 1.76393 0
M  V30 7590 O 710.815 0.941835 2.5176 0
M  V30 7591 C 709.086 3.22775 1.53463 0
M  V30 7592 S 710.645 3.74588 2.28537 0
M  V30 7593 H 707.463 0.656847 0.272164 0
M  V30 7594 H 710.065 1.9536 0.073909 0
M  V30 7595 H 708.769 4.01905 0.830674 0
M  V30 7596 H 708.3 3.17921 2.3171 0
M  V30 7597 H 710.315 3.47193 3.54502 0
M  V30 7598 N 709.488 -0.375779 1.53054 0
M  V30 7599 C 710.436 -1.48015 1.79428 0
M  V30 7600 C 711.43 -1.55893 0.662854 0
M  V30 7601 O 712.636 -1.58901 0.845599 0
M  V30 7602 H 709.011 -0.492887 0.56795 0
M  V30 7603 H 710.982 -1.22971 2.71884 0
M  V30 7604 C 709.731 -2.84984 1.99197 0
M  V30 7605 H 709.054 -2.79677 2.85693 0
M  V30 7606 H 710.494 -3.61462 2.21633 0
M  V30 7607 C 708.953 -3.28025 0.768183 0
M  V30 7608 O 709.483 -4.01671 -0.0480482 0
M  V30 7609 N 707.689 -2.84454 0.594521 0
M  V30 7610 H 707.236 -2.24688 1.25988 0
M  V30 7611 H 707.194 -3.13609 -0.222916 0
M  V30 7612 N 710.966 -1.44241 -0.634997 0
M  V30 7613 C 712.214 -1.46531 -1.39187 0
M  V30 7614 C 712.535 -0.0976441 -1.94755 0
M  V30 7615 O 711.805 0.869528 -1.75545 0
M  V30 7616 H 710.385 -0.539544 -0.516625 0
M  V30 7617 H 713.047 -1.79989 -0.747655 0
M  V30 7618 H 712.143 -2.18848 -2.22513 0
M  V30 7619 N 712.444 0.87505 -1.31075 0
M  V30 7620 C 713.69 1.63009 -1.20647 0
M  V30 7621 C 714.023 1.9276 0.236045 0
M  V30 7622 O 713.298 1.55559 1.16754 0
M  V30 7623 C 713.581 2.96357 -2.0456 0
M  V30 7624 C 713.434 2.73516 -3.57084 0
M  V30 7625 C 714.753 3.974 -1.89107 0
M  V30 7626 H 711.872 0.591518 -0.439631 0
M  V30 7627 H 714.514 1.0119 -1.60812 0
M  V30 7628 H 712.664 3.49119 -1.70435 0
M  V30 7629 H 714.336 2.27465 -4.01319 0
M  V30 7630 H 712.579 2.0784 -3.80769 0
M  V30 7631 H 713.25 3.68377 -4.11099 0
M  V30 7632 H 715.726 3.5383 -2.18961 0
M  V30 7633 H 714.602 4.88596 -2.5013 0
M  V30 7634 H 714.863 4.33794 -0.85296 0
M  V30 7635 N 713.922 1.13953 1.08869 0
M  V30 7636 C 714.832 0.835666 2.19212 0
M  V30 7637 C 715.848 -0.182005 1.73045 0
M  V30 7638 O 717.024 -0.0116661 2.01397 0
M  V30 7639 C 714.089 0.312325 3.4529 0
M  V30 7640 C 713.15 1.39196 4.06107 0
M  V30 7641 C 712.383 0.893496 5.26168 0
M  V30 7642 O 712.606 -0.266807 5.69776 0
M  V30 7643 O 711.54 1.67037 5.78258 0
M  V30 7644 H 715.366 1.75769 2.47667 0
M  V30 7645 H 712.951 0.917421 1.17914 0
M  V30 7646 H 714.833 0.0261582 4.21392 0
M  V30 7647 H 713.508 -0.582042 3.18424 0
M  V30 7648 H 712.415 1.73152 3.31616 0
M  V30 7649 H 713.748 2.26068 4.37212 0
M  V30 7650 N 715.4 -1.26948 0.933913 0
M  V30 7651 C 716.648 -1.93704 0.576484 0
M  V30 7652 C 716.969 -1.73702 -0.886145 0
M  V30 7653 O 716.239 -1.08838 -1.62884 0
M  V30 7654 H 714.819 -0.716812 0.210214 0
M  V30 7655 H 717.481 -1.54534 1.18766 0
M  V30 7656 H 716.577 -3.01987 0.788055 0
M  V30 7657 N 716.879 -0.700114 -1.41195 0
M  V30 7658 C 718.126 -0.233006 -2.01155 0
M  V30 7659 C 718.454 1.16883 -1.55462 0
M  V30 7660 O 717.709 1.80395 -0.758695 0
M  V30 7661 C 718.008 -0.243986 -3.56566 0
M  V30 7662 C 717.674 -1.59397 -4.21786 0
M  V30 7663 C 716.336 -1.96355 -4.39316 0
M  V30 7664 C 718.688 -2.48192 -4.58312 0
M  V30 7665 C 716.016 -3.21683 -4.9065 0
M  V30 7666 C 718.368 -3.72857 -5.11039 0
M  V30 7667 C 717.032 -4.09951 -5.26779 0
M  V30 7668 H 716.302 -0.085263 -0.736078 0
M  V30 7669 H 718.949 -0.9001 -1.69028 0
M  V30 7670 H 717.254 0.506663 -3.8851 0
M  V30 7671 H 718.951 0.135031 -4.00773 0
M  V30 7672 H 715.541 -1.29654 -4.08519 0
M  V30 7673 H 719.725 -2.20918 -4.4442 0
M  V30 7674 H 714.981 -3.50412 -5.01021 0
M  V30 7675 H 719.155 -4.41844 -5.38282 0
M  V30 7676 H 716.782 -5.07136 -5.66319 0
M  V30 7677 N 718.357 1.51182 -0.445186 0
M  V30 7678 C 719.305 2.29531 0.376597 0
M  V30 7679 C 720.299 1.35711 1.01385 0
M  V30 7680 O 721.505 1.53018 0.947922 0
M  V30 7681 H 717.88 0.738803 0.140267 0
M  V30 7682 H 719.851 2.96838 -0.304958 0
M  V30 7683 C 718.6 3.1552 1.4609 0
M  V30 7684 H 717.923 3.87605 0.979912 0
M  V30 7685 H 719.363 3.73384 2.009 0
M  V30 7686 C 717.822 2.31406 2.44852 0
M  V30 7687 O 718.352 1.97912 3.49562 0
M  V30 7688 N 716.558 1.94478 2.15932 0
M  V30 7689 H 716.105 2.21917 1.30808 0
M  V30 7690 H 716.063 1.38498 2.82251 0
M  V30 7691 N 719.835 0.176821 1.56605 0
M  V30 7692 C 721.075 -0.469104 1.98944 0
M  V30 7693 C 721.439 -1.60048 1.06059 0
M  V30 7694 O 722.64 -2.30934 1.3756 0
M  V30 7695 C 720.911 -0.934571 3.44965 0
M  V30 7696 S 722.47 -1.58091 4.09332 0
M  V30 7697 H 719.288 -0.150695 0.694847 0
M  V30 7698 H 721.89 0.27558 1.93548 0
M  V30 7699 H 720.594 -0.100814 4.10276 0
M  V30 7700 H 720.125 -1.71316 3.54139 0
M  V30 7701 H 722.14 -2.86922 4.04834 0
M  V30 7702 N 721.313 -1.57302 -0.09688 0
M  V30 7703 C 722.543 -1.89926 -0.813114 0
M  V30 7704 C 722.951 -0.76852 -1.72888 0
M  V30 7705 O 722.294 0.268549 -1.81726 0
M  V30 7706 C 722.356 -3.17787 -1.68082 0
M  V30 7707 C 722.02 -4.4729 -0.937061 0
M  V30 7708 C 723.017 -5.1921 -0.267687 0
M  V30 7709 C 720.702 -4.93957 -0.911671 0
M  V30 7710 C 722.696 -6.36034 0.417129 0
M  V30 7711 C 720.383 -6.10693 -0.223068 0
M  V30 7712 C 721.381 -6.8158 0.440155 0
M  V30 7713 O 721.069 -7.96092 1.11772 0
M  V30 7714 H 720.801 -0.632783 -0.237828 0
M  V30 7715 H 723.355 -2.05248 -0.0790818 0
M  V30 7716 H 721.585 -2.98607 -2.45705 0
M  V30 7717 H 723.274 -3.36257 -2.27346 0
M  V30 7718 H 724.04 -4.84198 -0.278774 0
M  V30 7719 H 719.919 -4.38671 -1.41734 0
M  V30 7720 H 723.463 -6.91301 0.93537 0
M  V30 7721 H 719.36 -6.45159 -0.209821 0
M  V30 7722 H 720.128 -8.12064 1.02443 0
M  V30 7723 N 722.791 0.367657 -1.53252 0
M  V30 7724 C 724.038 1.11052 -1.69333 0
M  V30 7725 C 724.366 1.89363 -0.444064 0
M  V30 7726 O 723.621 1.87094 0.573953 0
M  V30 7727 C 723.92 2.09825 -2.89324 0
M  V30 7728 C 723.586 1.4801 -4.25915 0
M  V30 7729 C 722.248 1.30879 -4.6306 0
M  V30 7730 C 724.6 1.03268 -5.10867 0
M  V30 7731 C 721.928 0.675868 -5.82794 0
M  V30 7732 C 724.28 0.41377 -6.31245 0
M  V30 7733 C 722.944 0.229939 -6.67104 0
M  V30 7734 H 722.214 0.406367 -0.619634 0
M  V30 7735 H 724.861 0.392558 -1.87433 0
M  V30 7736 H 723.166 2.87917 -2.65728 0
M  V30 7737 H 724.863 2.67252 -2.98961 0
M  V30 7738 H 721.453 1.62336 -3.96667 0
M  V30 7739 H 725.637 1.15297 -4.82722 0
M  V30 7740 H 720.893 0.521833 -6.09169 0
M  V30 7741 H 725.067 0.0588768 -6.96375 0
M  V30 7742 H 722.694 -0.262562 -7.59746 0
M  V30 7743 N 724.269 1.44576 0.627338 0
M  V30 7744 C 725.68 1.42266 1.20902 0
M  V30 7745 C 726.031 0.139964 1.957 0
M  V30 7746 O 725.156 -0.759489 2.02634 0
M  V30 7747 C 725.751 2.57727 2.19914 0
M  V30 7748 C 724.31 2.58599 2.73502 0
M  V30 7749 C 723.457 2.34145 1.48564 0
M  V30 7750 H 726.408 1.53102 0.417791 0
M  V30 7751 H 726.429 2.30697 3.02588 0
M  V30 7752 H 725.941 3.51068 1.65447 0
M  V30 7753 H 724.042 1.6921 3.31962 0
M  V30 7754 H 724.155 3.57205 3.19282 0
M  V30 7755 H 722.519 1.83313 1.76829 0
M  V30 7756 H 723.302 3.29606 0.959935 0
M  V30 7757 N 725.747 -0.868086 1.31537 0
M  V30 7758 C 726.677 -1.99131 1.21939 0
M  V30 7759 C 727.658 -1.69768 0.106166 0
M  V30 7760 O 728.843 -1.92006 0.291081 0
M  V30 7761 C 725.973 -3.34676 0.927879 0
M  V30 7762 C 724.927 -3.7835 2.00088 0
M  V30 7763 C 724.253 -5.11375 1.56203 0
M  V30 7764 C 725.553 -3.95256 3.41424 0
M  V30 7765 H 727.247 -2.07419 2.15911 0
M  V30 7766 H 724.793 -0.996569 1.03945 0
M  V30 7767 H 726.746 -4.12793 0.847327 0
M  V30 7768 H 725.47 -3.26565 -0.0475042 0
M  V30 7769 H 724.129 -3.02474 2.07135 0
M  V30 7770 H 723.777 -4.99709 0.57445 0
M  V30 7771 H 723.477 -5.41568 2.27985 0
M  V30 7772 H 725.001 -5.92001 1.49558 0
M  V30 7773 H 726.415 -4.63764 3.3704 0
M  V30 7774 H 724.812 -4.36849 4.1144 0
M  V30 7775 H 725.882 -2.98579 3.82072 0
M  V30 7776 N 727.225 -1.14528 -1.08264 0
M  V30 7777 C 728.157 -0.791325 -2.15106 0
M  V30 7778 C 729.17 0.192449 -1.61659 0
M  V30 7779 O 730.359 -0.0294704 -1.78476 0
M  V30 7780 C 727.459 -0.154183 -3.38549 0
M  V30 7781 C 726.632 -1.17305 -4.21377 0
M  V30 7782 C 725.691 -0.559401 -5.23218 0
M  V30 7783 O 724.717 -1.22277 -5.55911 0
M  V30 7784 N 725.919 0.663159 -5.767 0
M  V30 7785 H 728.684 -1.71076 -2.46075 0
M  V30 7786 H 726.245 -1.0399 -1.24087 0
M  V30 7787 H 728.237 0.268884 -4.03806 0
M  V30 7788 H 726.807 0.668418 -3.0537 0
M  V30 7789 H 726.027 -1.773 -3.52077 0
M  V30 7790 H 727.315 -1.86128 -4.73533 0
M  V30 7791 H 726.713 1.22066 -5.52373 0
M  V30 7792 H 725.27 1.02871 -6.43631 0
M  V30 7793 N 728.703 1.26451 -0.940633 0
M  V30 7794 C 729.928 1.98407 -0.60412 0
M  V30 7795 C 730.353 1.69584 0.81382 0
M  V30 7796 O 729.711 0.943553 1.54812 0
M  V30 7797 C 729.759 3.50387 -0.852136 0
M  V30 7798 O 728.863 4.1233 0.076013 0
M  V30 7799 H 728.204 0.622466 -0.231153 0
M  V30 7800 H 730.734 1.60932 -1.26342 0
M  V30 7801 H 730.744 4.00614 -0.772816 0
M  V30 7802 H 729.419 3.70696 -1.88566 0
M  V30 7803 H 727.996 3.7286 -0.0543187 0
M  V30 7804 N 730.181 0.707592 1.40822 0
M  V30 7805 C 731.411 0.252706 2.05049 0
M  V30 7806 C 731.819 -1.10758 1.53393 0
M  V30 7807 O 731.162 -1.70567 0.682097 0
M  V30 7808 C 731.224 0.146001 3.59203 0
M  V30 7809 C 730.888 1.44027 4.33711 0
M  V30 7810 C 731.885 2.38058 4.62195 0
M  V30 7811 C 729.57 1.69698 4.72766 0
M  V30 7812 C 731.564 3.56013 5.28709 0
M  V30 7813 C 729.251 2.87936 5.39014 0
M  V30 7814 C 730.249 3.80915 5.66915 0
M  V30 7815 O 729.937 4.9708 6.31796 0
M  V30 7816 H 729.669 0.112784 0.666525 0
M  V30 7817 H 732.223 0.96417 1.81364 0
M  V30 7818 H 730.453 -0.621338 3.81676 0
M  V30 7819 H 732.142 -0.273275 4.04979 0
M  V30 7820 H 732.908 2.19487 4.32493 0
M  V30 7821 H 728.787 0.981835 4.50423 0
M  V30 7822 H 732.331 4.28604 5.50404 0
M  V30 7823 H 728.228 3.06419 5.68135 0
M  V30 7824 H 728.996 4.97053 6.50293 0
M  V30 7825 N 731.66 -1.50943 0.453197 0
M  V30 7826 C 732.908 -2.01813 -0.107709 0
M  V30 7827 C 733.229 -1.33841 -1.41816 0
M  V30 7828 O 732.499 -0.477973 -1.8998 0
M  V30 7829 H 731.079 -0.745773 -0.0427948 0
M  V30 7830 H 733.741 -1.8545 0.599531 0
M  V30 7831 H 732.837 -3.10911 -0.27218 0
M  V30 7832 N 733.138 -0.185124 -1.56509 0
M  V30 7833 C 734.385 0.456258 -1.97293 0
M  V30 7834 C 734.713 1.62314 -1.07165 0
M  V30 7835 O 733.968 1.95398 -0.108621 0
M  V30 7836 C 734.267 0.967977 -3.44042 0
M  V30 7837 C 733.933 -0.084476 -4.50821 0
M  V30 7838 C 732.595 -0.373689 -4.79747 0
M  V30 7839 C 734.947 -0.79812 -5.15053 0
M  V30 7840 C 732.275 -1.3817 -5.70198 0
M  V30 7841 C 734.627 -1.79521 -6.06593 0
M  V30 7842 C 733.291 -2.09172 -6.3388 0
M  V30 7843 H 732.561 0.166957 -0.721946 0
M  V30 7844 H 735.208 -0.279992 -1.89442 0
M  V30 7845 H 733.513 1.78231 -3.48914 0
M  V30 7846 H 735.21 1.47347 -3.72948 0
M  V30 7847 H 731.8 0.15111 -4.28334 0
M  V30 7848 H 735.984 -0.587903 -4.92806 0
M  V30 7849 H 731.24 -1.61745 -5.89617 0
M  V30 7850 H 735.414 -2.35347 -6.55427 0
M  V30 7851 H 733.041 -2.87427 -7.03768 0
M  V30 7852 N 734.616 1.57351 0.0885366 0
M  V30 7853 C 735.548 1.99221 1.13329 0
M  V30 7854 C 736.561 0.895705 1.35945 0
M  V30 7855 O 737.75 1.17376 1.34481 0
M  V30 7856 C 734.85 2.3016 2.48756 0
M  V30 7857 C 734.023 3.61444 2.46327 0
M  V30 7858 C 733.082 3.80244 3.63732 0
M  V30 7859 O 732.108 4.52024 3.45924 0
M  V30 7860 N 733.31 3.2132 4.8346 0
M  V30 7861 H 736.075 2.89456 0.776862 0
M  V30 7862 H 733.636 1.59505 0.277428 0
M  V30 7863 H 735.628 2.39925 3.25911 0
M  V30 7864 H 734.198 1.459 2.76464 0
M  V30 7865 H 733.418 3.62588 1.54673 0
M  V30 7866 H 734.706 4.47678 2.41789 0
M  V30 7867 H 734.104 2.63028 5.00832 0
M  V30 7868 H 732.661 3.3656 5.58185 0
M  V30 7869 N 736.094 -0.359525 1.53444 0
M  V30 7870 C 737.505 -0.936009 1.61542 0
M  V30 7871 C 737.856 -1.90069 0.486633 0
M  V30 7872 O 736.981 -2.12929 -0.386047 0
M  V30 7873 C 737.576 -1.70441 2.92806 0
M  V30 7874 C 736.135 -2.23015 3.03218 0
M  V30 7875 C 735.282 -1.04438 2.56881 0
M  V30 7876 H 738.233 -0.138134 1.58098 0
M  V30 7877 H 738.254 -2.56609 2.80948 0
M  V30 7878 H 737.766 -1.00205 3.74941 0
M  V30 7879 H 735.867 -2.96475 2.25684 0
M  V30 7880 H 735.98 -2.50481 4.08407 0
M  V30 7881 H 734.344 -1.41314 2.11902 0
M  V30 7882 H 735.127 -0.356905 3.4144 0
M  V30 7883 N 737.572 -1.44907 -0.619662 0
M  V30 7884 C 738.8 -1.51795 -1.40591 0
M  V30 7885 C 739.215 -0.146553 -1.8823 0
M  V30 7886 O 738.572 0.849698 -1.61513 0
M  V30 7887 C 738.623 -2.49229 -2.61853 0
M  V30 7888 O 738.344 -3.81039 -2.16197 0
M  V30 7889 C 739.845 -2.65696 -3.54853 0
M  V30 7890 H 737.065 -0.514463 -0.430777 0
M  V30 7891 H 739.609 -1.8998 -0.756813 0
M  V30 7892 H 737.764 -2.14149 -3.2283 0
M  V30 7893 H 738.178 -4.33747 -2.94896 0
M  V30 7894 H 739.652 -3.37874 -4.36515 0
M  V30 7895 H 740.129 -1.71316 -4.0441 0
M  V30 7896 H 740.735 -3.01724 -2.99737 0
M  V30 7897 N 739.05 0.861098 -1.31996 0
M  V30 7898 C 739.998 1.99052 -1.20337 0
M  V30 7899 C 740.992 1.69045 -0.109623 0
M  V30 7900 O 742.198 1.77931 -0.272117 0
M  V30 7901 H 738.573 0.653064 -0.372843 0
M  V30 7902 H 740.544 2.06015 -2.15872 0
M  V30 7903 C 739.293 3.34846 -0.936663 0
M  V30 7904 H 738.616 3.58462 -1.77045 0
M  V30 7905 H 740.056 4.1444 -0.895302 0
M  V30 7906 C 738.515 3.34965 0.360607 0
M  V30 7907 O 739.045 3.7745 1.37456 0
M  V30 7908 N 737.251 2.88101 0.380296 0
M  V30 7909 H 736.798 2.53721 -0.445351 0
M  V30 7910 H 736.756 2.88563 1.24816 0
M  V30 7911 N 740.528 1.15101 1.07655 0
M  V30 7912 C 741.776 0.922149 1.79836 0
M  V30 7913 C 742.097 -0.552346 1.87014 0
M  V30 7914 O 741.367 -1.40145 1.3688 0
M  V30 7915 H 739.947 0.338182 0.666064 0
M  V30 7916 H 742.609 1.45107 1.30115 0
M  V30 7917 H 741.705 1.32883 2.82398 0
M  V30 7918 N 742.006 -1.2595 0.947325 0
M  V30 7919 C 743.252 -1.9375 0.599064 0
M  V30 7920 C 743.585 -1.74088 -0.860632 0
M  V30 7921 O 742.86 -1.08158 -1.61654 0
M  V30 7922 C 743.143 -3.47353 0.949634 0
M  V30 7923 C 742.996 -3.76273 2.46452 0
M  V30 7924 C 744.315 -4.37589 0.469442 0
M  V30 7925 H 741.434 -0.703674 0.219115 0
M  V30 7926 H 744.076 -1.48705 1.18266 0
M  V30 7927 H 742.226 -3.8585 0.453008 0
M  V30 7928 H 743.898 -3.47455 3.03435 0
M  V30 7929 H 742.141 -3.22135 2.90537 0
M  V30 7930 H 742.812 -4.83664 2.66032 0
M  V30 7931 H 745.288 -4.06353 0.89534 0
M  V30 7932 H 744.164 -5.43841 0.7435 0
M  V30 7933 H 744.425 -4.37579 -0.630618 0
M  V30 7934 N 743.484 -0.715051 -1.40445 0
M  V30 7935 C 744.732 -0.253826 -2.005 0
M  V30 7936 C 745.053 1.15681 -1.5698 0
M  V30 7937 O 744.323 1.78414 -0.809027 0
M  V30 7938 H 742.903 -0.0908537 -0.741454 0
M  V30 7939 H 745.565 -0.920561 -1.7179 0
M  V30 7940 H 744.661 -0.286499 -3.10782 0
M  V30 7941 N 744.962 1.50701 -0.461195 0
M  V30 7942 C 746.192 2.06381 0.0950376 0
M  V30 7943 C 746.6 1.32627 1.34933 0
M  V30 7944 O 745.943 0.386137 1.79596 0
M  V30 7945 C 746.005 3.56558 0.458965 0
M  V30 7946 C 745.669 4.51732 -0.691891 0
M  V30 7947 C 746.666 4.95594 -1.57105 0
M  V30 7948 C 744.351 4.94542 -0.879407 0
M  V30 7949 C 746.345 5.80963 -2.62223 0
M  V30 7950 C 744.032 5.79695 -1.93382 0
M  V30 7951 C 745.03 6.22806 -2.80359 0
M  V30 7952 O 744.718 7.06265 -3.83986 0
M  V30 7953 H 744.45 0.676 0.000687488 0
M  V30 7954 H 747.004 1.94974 -0.646087 0
M  V30 7955 H 745.234 3.65832 1.25314 0
M  V30 7956 H 746.923 3.94647 0.949124 0
M  V30 7957 H 747.689 4.63197 -1.43783 0
M  V30 7958 H 743.568 4.60513 -0.211907 0
M  V30 7959 H 747.112 6.14533 -3.30143 0
M  V30 7960 H 743.009 6.11506 -2.06715 0
M  V30 7961 H 743.777 7.24494 -3.80855 0
M  V30 7962 N 746.441 0.193421 1.56409 0
M  V30 7963 C 747.373 -0.759944 2.16235 0
M  V30 7964 C 748.386 -1.17797 1.12373 0
M  V30 7965 O 749.575 -1.11399 1.39472 0
M  V30 7966 C 746.675 -2.03735 2.70823 0
M  V30 7967 C 745.848 -1.77939 3.9957 0
M  V30 7968 C 744.907 -2.90111 4.39001 0
M  V30 7969 O 743.933 -2.59791 5.06456 0
M  V30 7970 N 745.135 -4.18426 4.02368 0
M  V30 7971 H 747.9 -0.248348 2.98669 0
M  V30 7972 H 745.461 0.0113966 1.61896 0
M  V30 7973 H 747.453 -2.77914 2.94187 0
M  V30 7974 H 746.023 -2.46022 1.92852 0
M  V30 7975 H 745.243 -0.875491 3.84355 0
M  V30 7976 H 746.531 -1.58099 4.83614 0
M  V30 7977 H 745.929 -4.45913 3.48106 0
M  V30 7978 H 744.486 -4.89237 4.30686 0
M  V30 7979 N 747.919 -1.57396 -0.0801906 0
M  V30 7980 C 749.33 -1.75642 -0.633002 0
M  V30 7981 C 749.681 -0.817708 -1.78348 0
M  V30 7982 O 748.806 0.000233743 -2.164 0
M  V30 7983 C 749.401 -3.18502 -1.15507 0
M  V30 7984 C 747.96 -3.38121 -1.65381 0
M  V30 7985 C 747.107 -2.71386 -0.569661 0
M  V30 7986 H 750.058 -1.58027 0.145949 0
M  V30 7987 H 750.079 -3.22198 -2.02408 0
M  V30 7988 H 749.591 -3.86799 -0.317515 0
M  V30 7989 H 747.692 -2.74926 -2.51488 0
M  V30 7990 H 747.805 -4.46521 -1.73654 0
M  V30 7991 H 746.169 -2.33702 -1.0127 0
M  V30 7992 H 746.952 -3.42332 0.257561 0
M  V30 7993 N 749.397 0.351382 -1.53633 0
M  V30 7994 C 750.627 1.11113 -1.74176 0
M  V30 7995 C 751.035 1.83084 -0.477154 0
M  V30 7996 O 750.378 1.74941 0.560483 0
M  V30 7997 C 750.44 2.17521 -2.86225 0
M  V30 7998 C 750.104 1.65193 -4.26099 0
M  V30 7999 C 751.101 1.10842 -5.07947 0
M  V30 8000 C 748.786 1.70277 -4.72558 0
M  V30 8001 C 750.78 0.622689 -6.34351 0
M  V30 8002 C 748.467 1.21316 -5.98937 0
M  V30 8003 C 749.465 0.674033 -6.79666 0
M  V30 8004 O 749.153 0.191696 -8.03671 0
M  V30 8005 H 748.885 0.33756 -0.585687 0
M  V30 8006 H 751.439 0.411786 -2.0123 0
M  V30 8007 H 749.669 2.90991 -2.54678 0
M  V30 8008 H 751.358 2.78999 -2.94812 0
M  V30 8009 H 752.124 1.06243 -4.7322 0
M  V30 8010 H 748.003 2.11181 -4.09785 0
M  V30 8011 H 751.547 0.201216 -6.9731 0
M  V30 8012 H 747.444 1.25613 -6.3316 0
M  V30 8013 H 748.212 0.309712 -8.17914 0
M  V30 8014 N 750.875 1.45233 0.611969 0
M  V30 8015 C 752.291 1.29542 0.932251 0
M  V30 8016 C 752.491 0.24523 2.00002 0
M  V30 8017 O 751.547 -0.362333 2.49887 0
M  V30 8018 C 752.86 2.67301 1.37733 0
M  V30 8019 C 754.408 2.75163 1.49178 0
M  V30 8020 C 754.883 4.13437 1.97064 0
M  V30 8021 N 756.374 4.15709 2.04304 0
M  V30 8022 C 757.109 5.19566 2.42568 0
M  V30 8023 N 756.605 6.33771 2.79832 0
M  V30 8024 N 758.398 5.06923 2.42869 0
M  V30 8025 H 750.549 2.12192 -0.0938679 0
M  V30 8026 H 752.812 0.947775 0.0206569 0
M  V30 8027 H 752.518 3.45318 0.666951 0
M  V30 8028 H 752.392 2.95472 2.3447 0
M  V30 8029 H 754.779 1.97453 2.19309 0
M  V30 8030 H 754.86 2.50712 0.507674 0
M  V30 8031 H 754.504 4.91631 1.27521 0
M  V30 8032 H 754.434 4.35277 2.9638 0
M  V30 8033 H 756.925 3.33293 1.78113 0
M  V30 8034 H 757.238 7.08815 3.07898 0
M  V30 8035 H 755.583 6.37179 2.77538 0
M  V30 8036 H 758.774 4.1675 2.1316 0
M  V30 8037 H 758.947 5.87981 2.72364 0
M  V30 8038 N 752.353 -0.854086 1.3245 0
M  V30 8039 C 753.599 -1.61069 1.23225 0
M  V30 8040 C 753.932 -1.93111 -0.205349 0
M  V30 8041 O 753.207 -1.57397 -1.14265 0
M  V30 8042 C 753.49 -2.93065 2.09249 0
M  V30 8043 C 753.343 -2.67801 3.6139 0
M  V30 8044 C 754.662 -3.94341 1.95406 0
M  V30 8045 H 751.781 -0.584449 0.448986 0
M  V30 8046 H 754.423 -0.986189 1.62402 0
M  V30 8047 H 752.573 -3.46364 1.75967 0
M  V30 8048 H 754.245 -2.21052 4.04887 0
M  V30 8049 H 752.488 -2.01756 3.84027 0
M  V30 8050 H 753.159 -3.6179 4.16907 0
M  V30 8051 H 755.635 -3.50301 2.24562 0
M  V30 8052 H 754.511 -4.84555 2.57872 0
M  V30 8053 H 754.772 -4.32382 0.921865 0
M  V30 8054 N 753.831 -1.1567 -1.07043 0
M  V30 8055 C 755.077 -0.9349 -1.79965 0
M  V30 8056 C 755.41 0.536464 -1.86643 0
M  V30 8057 O 754.685 1.39781 -1.35247 0
M  V30 8058 C 754.968 -1.55371 -3.24857 0
M  V30 8059 C 754.821 -3.09589 -3.26305 0
M  V30 8060 C 756.14 -1.24209 -4.22209 0
M  V30 8061 H 753.259 -0.341061 -0.653335 0
M  V30 8062 H 755.901 -1.42883 -1.25237 0
M  V30 8063 H 754.051 -1.13368 -3.71591 0
M  V30 8064 H 755.723 -3.60521 -2.87789 0
M  V30 8065 H 753.966 -3.43315 -2.65174 0
M  V30 8066 H 754.637 -3.48002 -4.28484 0
M  V30 8067 H 757.113 -1.60548 -3.8388 0
M  V30 8068 H 755.989 -1.70119 -5.21872 0
M  V30 8069 H 756.25 -0.15964 -4.41812 0
M  V30 8070 N 755.309 1.25446 -0.953992 0
M  V30 8071 C 756.555 1.9343 -0.60933 0
M  V30 8072 C 756.888 1.74542 0.851388 0
M  V30 8073 O 756.163 1.09014 1.61078 0
M  V30 8074 C 756.446 3.46844 -0.968041 0
M  V30 8075 C 756.299 3.74961 -2.48444 0
M  V30 8076 C 757.618 4.37334 -0.492641 0
M  V30 8077 H 754.737 0.702502 -0.222844 0
M  V30 8078 H 757.379 1.48076 -1.19053 0
M  V30 8079 H 755.529 3.85604 -0.473465 0
M  V30 8080 H 757.201 3.45841 -3.05273 0
M  V30 8081 H 755.444 3.20589 -2.92241 0
M  V30 8082 H 756.115 4.82246 -2.68594 0
M  V30 8083 H 758.591 4.05873 -0.916878 0
M  V30 8084 H 757.467 5.43439 -0.772331 0
M  V30 8085 H 757.728 4.37908 0.607403 0
M  V30 8086 N 756.787 0.722489 1.40064 0
M  V30 8087 C 757.717 0.0892452 2.33329 0
M  V30 8088 C 758.698 -0.737992 1.53257 0
M  V30 8089 O 759.883 -0.685516 1.81698 0
M  V30 8090 C 757.013 -0.828139 3.37282 0
M  V30 8091 C 755.967 -0.106005 4.27869 0
M  V30 8092 C 755.293 -1.13957 5.22415 0
M  V30 8093 C 756.593 1.04395 5.11761 0
M  V30 8094 H 758.287 0.868269 2.86534 0
M  V30 8095 H 755.833 0.418982 1.3777 0
M  V30 8096 H 757.786 -1.28058 4.01471 0
M  V30 8097 H 756.51 -1.63914 2.82489 0
M  V30 8098 H 755.169 0.326683 3.65142 0
M  V30 8099 H 754.817 -1.9438 4.63924 0
M  V30 8100 H 754.517 -0.661233 5.83868 0
M  V30 8101 H 756.041 -1.59197 5.89482 0
M  V30 8102 H 757.455 0.670541 5.69365 0
M  V30 8103 H 755.852 1.4511 5.82291 0
M  V30 8104 H 756.922 1.87144 4.47331 0
M  V30 8105 N 758.265 -1.50454 0.469181 0
M  V30 8106 C 759.49 -2.0722 -0.0864892 0
M  V30 8107 C 759.915 -1.33098 -1.32916 0
M  V30 8108 O 759.273 -0.378084 -1.77314 0
M  V30 8109 C 759.321 -3.58845 -0.355384 0
M  V30 8110 O 758.425 -3.86583 -1.43622 0
M  V30 8111 H 757.766 -0.663889 0.0121414 0
M  V30 8112 H 760.296 -1.93674 0.659674 0
M  V30 8113 H 760.306 -4.03617 -0.596447 0
M  V30 8114 H 758.981 -4.12211 0.552698 0
M  V30 8115 H 757.558 -3.5365 -1.18262 0
M  V30 8116 N 759.743 -0.201713 -1.56304 0
M  V30 8117 C 760.99 0.435307 -1.97766 0
M  V30 8118 C 761.318 1.61169 -1.0888 0
M  V30 8119 O 760.573 1.95272 -0.12934 0
M  V30 8120 C 760.872 0.931432 -3.45049 0
M  V30 8121 C 760.538 -0.132287 -4.50706 0
M  V30 8122 C 759.2 -0.424552 -4.79323 0
M  V30 8123 C 761.552 -0.852703 -5.14177 0
M  V30 8124 C 758.88 -1.4421 -5.68701 0
M  V30 8125 C 761.232 -1.85944 -6.04655 0
M  V30 8126 C 759.896 -2.15884 -6.31625 0
M  V30 8127 H 759.166 0.15929 -0.723676 0
M  V30 8128 H 761.813 -0.300069 -1.89134 0
M  V30 8129 H 760.118 1.7452 -3.50785 0
M  V30 8130 H 761.815 1.43383 -3.74489 0
M  V30 8131 H 758.405 0.105671 -4.2847 0
M  V30 8132 H 762.589 -0.640139 -4.92154 0
M  V30 8133 H 757.845 -1.6799 -5.87869 0
M  V30 8134 H 762.019 -2.42286 -6.52894 0
M  V30 8135 H 759.646 -2.94875 -7.0068 0
M  V30 8136 N 761.222 1.57436 0.0718424 0
M  V30 8137 C 762.132 2.07039 1.10326 0
M  V30 8138 C 763.148 0.999918 1.424 0
M  V30 8139 O 764.324 1.31462 1.52577 0
M  V30 8140 C 761.389 2.50439 2.39752 0
M  V30 8141 C 760.45 3.71784 2.14651 0
M  V30 8142 C 759.683 4.13104 3.37906 0
M  V30 8143 O 759.906 3.54298 4.47023 0
M  V30 8144 O 758.84 5.05894 3.26121 0
M  V30 8145 H 762.666 2.95239 0.711872 0
M  V30 8146 H 760.251 1.46638 0.28597 0
M  V30 8147 H 762.133 2.78876 3.15921 0
M  V30 8148 H 760.808 1.65368 2.78271 0
M  V30 8149 H 759.715 3.48431 1.36187 0
M  V30 8150 H 761.048 4.57707 1.81012 0
M  V30 8151 N 762.7 -0.34323 1.53817 0
M  V30 8152 C 763.63 -1.42709 1.84814 0
M  V30 8153 C 764.611 -1.5488 0.703297 0
M  V30 8154 O 765.796 -1.69082 0.955237 0
M  V30 8155 C 762.926 -2.79756 2.05801 0
M  V30 8156 C 761.88 -2.82392 3.21619 0
M  V30 8157 C 761.206 -4.22326 3.2794 0
M  V30 8158 C 762.506 -2.479 4.59721 0
M  V30 8159 H 764.2 -1.17018 2.75585 0
M  V30 8160 H 761.746 -0.561485 1.32602 0
M  V30 8161 H 763.699 -3.55627 2.26069 0
M  V30 8162 H 762.423 -3.06883 1.11761 0
M  V30 8163 H 761.082 -2.08974 3.01207 0
M  V30 8164 H 760.73 -4.46564 2.31494 0
M  V30 8165 H 760.43 -4.25001 4.05768 0
M  V30 8166 H 761.954 -5.00039 3.50419 0
M  V30 8167 H 763.368 -3.13484 4.80001 0
M  V30 8168 H 761.765 -2.61857 5.39954 0
M  V30 8169 H 762.835 -1.43087 4.63308 0
M  V30 8170 N 764.178 -1.45556 -0.604258 0
M  V30 8171 C 765.108 -1.57327 -1.72541 0
M  V30 8172 C 766.089 -0.424637 -1.64714 0
M  V30 8173 O 767.274 -0.648196 -1.83063 0
M  V30 8174 C 764.404 -1.54279 -3.11152 0
M  V30 8175 C 763.358 -2.67893 -3.33792 0
M  V30 8176 C 762.684 -2.499 -4.72709 0
M  V30 8177 C 763.984 -4.0988 -3.23722 0
M  V30 8178 H 765.678 -2.51175 -1.62947 0
M  V30 8179 H 763.224 -1.20884 -0.782504 0
M  V30 8180 H 765.177 -1.6111 -3.89386 0
M  V30 8181 H 763.901 -0.569627 -3.21594 0
M  V30 8182 H 762.56 -2.60495 -2.57949 0
M  V30 8183 H 762.208 -1.50715 -4.79889 0
M  V30 8184 H 761.908 -3.26091 -4.88813 0
M  V30 8185 H 763.432 -2.5859 -5.5314 0
M  V30 8186 H 764.846 -4.18503 -3.91826 0
M  V30 8187 H 763.243 -4.86487 -3.51355 0
M  V30 8188 H 764.313 -4.31553 -2.21111 0
M  V30 8189 N 765.656 0.84705 -1.32902 0
M  V30 8190 C 766.606 1.94451 -1.19049 0
M  V30 8191 C 767.59 1.60617 -0.095461 0
M  V30 8192 O 768.782 1.74033 -0.322739 0
M  V30 8193 C 765.911 3.30645 -0.923509 0
M  V30 8194 C 764.997 3.70675 -2.0606 0
M  V30 8195 N 765.388 3.82468 -3.30986 0
M  V30 8196 C 763.686 4.00357 -1.96547 0
M  V30 8197 C 764.387 4.17056 -4.05511 0
M  V30 8198 N 763.363 4.28985 -3.33876 0
M  V30 8199 H 767.165 2.01713 -2.1375 0
M  V30 8200 H 764.679 1.03928 -1.24791 0
M  V30 8201 H 766.676 4.0905 -0.805212 0
M  V30 8202 H 765.336 3.24697 0.0150523 0
M  V30 8203 H 766.347 3.66589 -3.65832 0
M  V30 8204 H 763.024 4.02666 -1.10299 0
M  V30 8205 H 764.414 4.33585 -5.13277 0
M  V30 8206 N 767.134 1.16236 1.06428 0
M  V30 8207 C 768.097 0.870163 2.1204 0
M  V30 8208 C 769.097 -0.134239 1.60239 0
M  V30 8209 O 770.287 0.0964932 1.73933 0
M  V30 8210 C 767.419 0.301033 3.39568 0
M  V30 8211 H 768.612 1.8064 2.39394 0
M  V30 8212 H 766.165 0.971116 1.2247 0
M  V30 8213 H 766.9 -0.642948 3.17863 0
M  V30 8214 H 766.685 1.02475 3.78472 0
M  V30 8215 H 768.175 0.114494 4.17443 0
M  V30 8216 N 768.612 -1.24939 0.960631 0
M  V30 8217 C 770.023 -1.74701 0.658529 0
M  V30 8218 C 770.374 -1.77967 -0.825959 0
M  V30 8219 O 769.499 -1.40444 -1.64634 0
M  V30 8220 C 770.094 -3.17263 1.18867 0
M  V30 8221 C 768.653 -3.64561 0.936614 0
M  V30 8222 C 767.8 -2.43423 1.32817 0
M  V30 8223 H 770.751 -1.10741 1.13676 0
M  V30 8224 H 770.772 -3.76481 0.551589 0
M  V30 8225 H 770.284 -3.14854 2.26912 0
M  V30 8226 H 768.385 -3.72378 -0.128608 0
M  V30 8227 H 768.498 -4.52392 1.57729 0
M  V30 8228 H 766.862 -2.43513 0.746548 0
M  V30 8229 H 767.645 -2.437 2.41796 0
M  V30 8230 N 770.09 -0.729906 -1.39679 0
M  V30 8231 C 771.053 -0.0951668 -2.29002 0
M  V30 8232 C 772.053 0.672471 -1.46063 0
M  V30 8233 O 773.243 0.502245 -1.66803 0
M  V30 8234 C 770.375 0.874631 -3.29489 0
M  V30 8235 H 771.568 -0.882062 -2.86635 0
M  V30 8236 H 769.121 -0.495424 -1.4824 0
M  V30 8237 H 769.856 1.68807 -2.76902 0
M  V30 8238 H 769.641 0.326893 -3.90735 0
M  V30 8239 H 771.131 1.31548 -3.96339 0
M  V30 8240 N 771.568 1.50203 -0.477153 0
M  V30 8241 C 772.796 2.0677 0.0732489 0
M  V30 8242 C 773.211 1.34033 1.32968 0
M  V30 8243 O 772.568 0.411412 1.77802 0
M  V30 8244 C 772.619 3.59751 0.35518 0
M  V30 8245 O 772.34 4.29747 -0.851425 0
M  V30 8246 C 773.841 4.3296 0.951877 0
M  V30 8247 H 771.061 0.670929 -0.00978923 0
M  V30 8248 H 773.605 1.93293 -0.667676 0
M  V30 8249 H 771.76 3.7301 1.04605 0
M  V30 8250 H 772.174 5.2106 -0.599708 0
M  V30 8251 H 773.648 5.40952 1.09888 0
M  V30 8252 H 774.125 3.93856 1.94356 0
M  V30 8253 H 774.731 4.24246 0.299208 0
M  V30 8254 N 773.046 0.209999 1.56195 0
M  V30 8255 C 774.292 -0.425442 1.98287 0
M  V30 8256 C 774.625 -1.60232 1.09724 0
M  V30 8257 O 773.9 -1.93902 0.152414 0
M  V30 8258 C 774.183 -0.871189 3.49403 0
M  V30 8259 C 774.036 0.308527 4.48741 0
M  V30 8260 C 775.355 -1.73146 4.04609 0
M  V30 8261 H 772.474 -0.153169 0.720908 0
M  V30 8262 H 775.116 0.303916 1.87554 0
M  V30 8263 H 773.266 -1.49266 3.58681 0
M  V30 8264 H 774.938 0.946487 4.51486 0
M  V30 8265 H 773.181 0.957878 4.23092 0
M  V30 8266 H 773.852 -0.0461143 5.51981 0
M  V30 8267 H 776.328 -1.2072 3.98203 0
M  V30 8268 H 775.204 -2.01228 5.10684 0
M  V30 8269 H 775.465 -2.69083 3.5078 0
M  V30 8270 N 774.524 -1.57472 -0.0634922 0
M  V30 8271 C 775.764 -1.89491 -0.766312 0
M  V30 8272 C 776.128 -0.80475 -1.74321 0
M  V30 8273 O 777.329 -1.00825 -2.49174 0
M  V30 8274 C 775.6 -3.26731 -1.44851 0
M  V30 8275 S 777.159 -3.80516 -2.18525 0
M  V30 8276 H 773.977 -0.663832 -0.254653 0
M  V30 8277 H 776.579 -1.95488 -0.0220867 0
M  V30 8278 H 775.283 -4.03967 -0.723824 0
M  V30 8279 H 774.814 -3.23953 -2.232 0
M  V30 8280 H 776.829 -3.5647 -3.45172 0
M  V30 8281 N 776.003 0.335068 -1.53997 0
M  V30 8282 C 777.251 1.07223 -1.71312 0
M  V30 8283 C 777.572 1.88911 -0.483486 0
M  V30 8284 O 776.842 1.89344 0.50257 0
M  V30 8285 H 775.422 0.398846 -0.63161 0
M  V30 8286 H 778.084 0.374288 -1.91272 0
M  V30 8287 H 777.18 1.7448 -2.58772 0
M  V30 8288 N 777.481 1.45874 0.596531 0
M  V30 8289 C 778.892 1.44798 1.17857 0
M  V30 8290 C 779.243 0.181443 1.95359 0
M  V30 8291 O 778.368 -0.716336 2.042 0
M  V30 8292 C 778.963 2.62333 2.14398 0
M  V30 8293 C 777.522 2.64342 2.67955 0
M  V30 8294 C 776.669 2.37244 1.43564 0
M  V30 8295 H 779.62 1.53954 0.385222 0
M  V30 8296 H 779.641 2.37063 2.97626 0
M  V30 8297 H 779.153 3.54499 1.57963 0
M  V30 8298 H 777.254 1.76213 3.28298 0
M  V30 8299 H 777.367 3.63897 3.11634 0
M  V30 8300 H 775.731 1.87022 1.72901 0
M  V30 8301 H 776.514 3.31568 0.889805 0
M  V30 8302 N 778.959 -0.83999 1.33349 0
M  V30 8303 C 779.906 -1.94972 1.23509 0
M  V30 8304 C 780.876 -1.65709 0.113967 0
M  V30 8305 O 782.061 -1.88552 0.292045 0
M  V30 8306 C 779.201 -3.30919 0.979105 0
M  V30 8307 C 778.314 -3.72587 2.18639 0
M  V30 8308 C 777.449 -4.97397 1.86465 0
M  V30 8309 C 776.488 -5.31597 3.03432 0
M  V30 8310 N 775.625 -6.47584 2.71254 0
M  V30 8311 H 780.465 -2.0272 2.18423 0
M  V30 8312 H 778.002 -0.992017 1.08616 0
M  V30 8313 H 779.96 -4.09239 0.811126 0
M  V30 8314 H 778.59 -3.22731 0.0667099 0
M  V30 8315 H 777.642 -2.89799 2.46416 0
M  V30 8316 H 778.954 -3.93844 3.06086 0
M  V30 8317 H 778.108 -5.83462 1.66305 0
M  V30 8318 H 776.847 -4.78107 0.96254 0
M  V30 8319 H 775.852 -4.44037 3.24208 0
M  V30 8320 H 777.077 -5.52836 3.94397 0
M  V30 8321 H 775.023 -6.29783 1.836 0
M  V30 8322 H 774.94 -6.68931 3.52231 0
M  V30 8323 H 776.208 -7.36764 2.54558 0
M  V30 8324 N 780.437 -1.16799 -1.0581 0
M  V30 8325 C 781.384 -0.87902 -2.13405 0
M  V30 8326 C 782.354 0.174541 -1.6518 0
M  V30 8327 O 783.539 0.0386843 -1.90761 0
M  V30 8328 C 780.679 -0.391616 -3.42871 0
M  V30 8329 C 779.792 -1.50857 -4.04804 0
M  V30 8330 C 778.927 -0.975682 -5.22163 0
M  V30 8331 C 777.966 -2.06851 -5.76089 0
M  V30 8332 N 777.103 -1.55085 -6.84758 0
M  V30 8333 H 781.943 -1.80043 -2.37463 0
M  V30 8334 H 779.48 -0.898083 -1.16503 0
M  V30 8335 H 781.438 -0.0906247 -4.17102 0
M  V30 8336 H 780.068 0.49284 -3.19016 0
M  V30 8337 H 779.12 -1.92542 -3.28073 0
M  V30 8338 H 780.432 -2.33305 -4.40874 0
M  V30 8339 H 779.586 -0.628165 -6.03439 0
M  V30 8340 H 778.325 -0.120566 -4.87551 0
M  V30 8341 H 777.33 -2.42467 -4.93447 0
M  V30 8342 H 778.555 -2.92768 -6.12751 0
M  V30 8343 H 776.501 -0.718345 -6.52055 0
M  V30 8344 H 776.418 -2.31145 -7.19797 0
M  V30 8345 H 777.686 -1.23206 -7.69702 0
M  V30 8346 N 781.915 1.24427 -0.967243 0
M  V30 8347 C 783.14 1.9708 -0.646069 0
M  V30 8348 C 783.565 1.71272 0.777665 0
M  V30 8349 O 782.923 0.976179 1.52776 0
M  V30 8350 C 782.971 3.48501 -0.926266 0
M  V30 8351 O 782.075 4.12398 -0.0114653 0
M  V30 8352 H 781.416 0.617423 -0.244304 0
M  V30 8353 H 783.946 1.58215 -1.29727 0
M  V30 8354 H 783.956 3.98885 -0.857619 0
M  V30 8355 H 782.631 3.66613 -1.96386 0
M  V30 8356 H 781.208 3.72661 -0.133396 0
M  V30 8357 N 783.393 0.737304 1.3929 0
M  V30 8358 C 784.621 0.296573 2.04763 0
M  V30 8359 C 785.036 -1.06941 1.55592 0
M  V30 8360 O 784.393 -1.67619 0.721822 0
M  V30 8361 C 784.444 0.291906 3.6032 0
M  V30 8362 O 784.165 1.60397 4.07682 0
M  V30 8363 C 785.666 -0.164708 4.42994 0
M  V30 8364 H 782.886 0.129251 0.658434 0
M  V30 8365 H 785.43 1.0016 1.78293 0
M  V30 8366 H 783.585 -0.364251 3.85684 0
M  V30 8367 H 783.999 1.51909 5.0202 0
M  V30 8368 H 785.473 -0.116814 5.51876 0
M  V30 8369 H 785.95 -1.21022 4.22197 0
M  V30 8370 H 786.556 0.461968 4.22784 0
M  V30 8371 N 784.871 -1.49948 0.485112 0
M  V30 8372 C 785.819 -2.30449 -0.315609 0
M  V30 8373 C 786.813 -1.38351 -0.977516 0
M  V30 8374 O 788.019 -1.55477 -0.907019 0
M  V30 8375 H 784.394 -0.742262 -0.120629 0
M  V30 8376 H 786.365 -2.95925 0.383552 0
M  V30 8377 C 785.114 -3.19283 -1.37673 0
M  V30 8378 H 784.437 -3.90067 -0.876801 0
M  V30 8379 H 785.877 -3.78579 -1.90929 0
M  V30 8380 C 784.336 -2.37817 -2.38631 0
M  V30 8381 O 784.866 -2.0711 -3.44192 0
M  V30 8382 N 783.072 -2.00135 -2.107 0
M  V30 8383 H 782.619 -2.25307 -1.24878 0
M  V30 8384 H 782.577 -1.45933 -2.7848 0
M  V30 8385 N 786.349 -0.21828 -1.56081 0
M  V30 8386 C 787.279 0.687922 -2.23136 0
M  V30 8387 C 788.26 1.20357 -1.202 0
M  V30 8388 O 789.445 1.24817 -1.48776 0
M  V30 8389 C 786.575 1.89762 -2.90874 0
M  V30 8390 C 785.529 1.51595 -4.00254 0
M  V30 8391 C 784.855 2.80415 -4.55271 0
M  V30 8392 C 786.155 0.708404 -5.17474 0
M  V30 8393 H 787.849 0.128854 -2.99123 0
M  V30 8394 H 785.395 0.0605354 -1.43873 0
M  V30 8395 H 787.348 2.53699 -3.36474 0
M  V30 8396 H 786.072 2.4816 -2.1233 0
M  V30 8397 H 784.731 0.900058 -3.55379 0
M  V30 8398 H 784.379 3.36951 -3.73461 0
M  V30 8399 H 784.079 2.55613 -5.2909 0
M  V30 8400 H 785.603 3.453 -5.03587 0
M  V30 8401 H 787.017 1.2514 -5.59476 0
M  V30 8402 H 785.414 0.557593 -5.97504 0
M  V30 8403 H 786.484 -0.285679 -4.84058 0
M  V30 8404 N 787.827 1.57504 0.0551401 0
M  V30 8405 C 789.073 1.88334 0.752216 0
M  V30 8406 C 789.406 0.812742 1.76375 0
M  V30 8407 O 788.681 -0.175198 1.93709 0
M  V30 8408 C 788.964 3.29824 1.44528 0
M  V30 8409 C 788.817 4.47553 0.449026 0
M  V30 8410 C 790.136 3.69808 2.38601 0
M  V30 8411 H 787.255 0.684973 0.271995 0
M  V30 8412 H 789.897 1.89994 0.0151895 0
M  V30 8413 H 788.047 3.28539 2.07351 0
M  V30 8414 H 789.719 4.60967 -0.175277 0
M  V30 8415 H 787.962 4.33168 -0.234162 0
M  V30 8416 H 788.633 5.43376 0.971917 0
M  V30 8417 H 791.109 3.72293 1.85842 0
M  V30 8418 H 789.985 4.69665 2.84088 0
M  V30 8419 H 790.246 3.00641 3.24141 0
M  V30 8420 N 789.305 -0.326896 1.54172 0
M  V30 8421 C 790.252 -1.40216 1.83325 0
M  V30 8422 C 791.222 -1.51538 0.680107 0
M  V30 8423 O 792.407 -1.66811 0.926206 0
M  V30 8424 C 789.547 -2.76626 2.0633 0
M  V30 8425 C 788.66 -2.73963 3.34019 0
M  V30 8426 C 787.795 -4.02198 3.47002 0
M  V30 8427 C 786.834 -3.93828 4.68578 0
M  V30 8428 N 785.971 -5.13787 4.78506 0
M  V30 8429 H 790.811 -1.14656 2.7506 0
M  V30 8430 H 788.348 -0.555089 1.36225 0
M  V30 8431 H 790.306 -3.55922 2.17659 0
M  V30 8432 H 788.936 -3.00503 1.1789 0
M  V30 8433 H 787.988 -1.86677 3.31445 0
M  V30 8434 H 789.3 -2.6366 4.2342 0
M  V30 8435 H 788.454 -4.89923 3.57855 0
M  V30 8436 H 787.193 -4.15302 2.55687 0
M  V30 8437 H 786.198 -3.04487 4.57786 0
M  V30 8438 H 787.423 -3.82292 5.61275 0
M  V30 8439 H 785.369 -5.27403 3.90105 0
M  V30 8440 H 785.286 -5.05807 5.61868 0
M  V30 8441 H 786.554 -6.03236 4.93686 0
M  V30 8442 N 790.784 -1.46188 -0.588786 0
M  V30 8443 C 791.732 -1.56653 -1.71938 0
M  V30 8444 C 792.726 -0.435354 -1.6371 0
M  V30 8445 O 793.932 -0.611996 -1.69277 0
M  V30 8446 H 790.307 -0.492408 -0.568365 0
M  V30 8447 H 792.278 -2.51724 -1.60242 0
M  V30 8448 C 791.027 -1.56822 -3.10326 0
M  V30 8449 H 790.35 -2.43198 -3.17325 0
M  V30 8450 H 791.79 -1.68199 -3.89211 0
M  V30 8451 C 790.249 -0.295802 -3.35599 0
M  V30 8452 O 790.779 0.616515 -3.96941 0
M  V30 8453 N 788.985 -0.185609 -2.90007 0
M  V30 8454 H 788.532 -0.928914 -2.40269 0
M  V30 8455 H 788.49 0.664883 -3.07289 0
M  V30 8456 N 792.262 0.832906 -1.33792 0
M  V30 8457 C 793.209 1.94314 -1.24541 0
M  V30 8458 C 794.179 1.65646 -0.122753 0
M  V30 8459 O 795.364 1.88394 -0.30204 0
M  V30 8460 C 792.504 3.30395 -0.996641 0
M  V30 8461 C 791.617 3.71422 -2.20612 0
M  V30 8462 C 790.752 4.96401 -1.89101 0
M  V30 8463 C 789.791 5.2998 -3.06247 0
M  V30 8464 N 788.928 6.46137 -2.74685 0
M  V30 8465 H 793.768 2.01559 -2.19495 0
M  V30 8466 H 791.305 0.986243 -1.09141 0
M  V30 8467 H 793.263 4.08803 -0.832817 0
M  V30 8468 H 791.893 3.22691 -0.0838242 0
M  V30 8469 H 790.945 2.88488 -2.47949 0
M  V30 8470 H 792.257 3.92215 -3.0817 0
M  V30 8471 H 791.411 5.82572 -1.69396 0
M  V30 8472 H 790.15 4.7759 -0.987882 0
M  V30 8473 H 789.155 4.42312 -3.26559 0
M  V30 8474 H 790.38 5.50737 -3.97323 0
M  V30 8475 H 788.326 6.28801 -1.86938 0
M  V30 8476 H 788.243 6.67054 -3.55774 0
M  V30 8477 H 789.511 7.35403 -2.58461 0
M  V30 8478 N 793.74 1.17359 1.05189 0
M  V30 8479 C 794.98 0.972812 1.79766 0
M  V30 8480 C 795.344 -0.489832 1.85647 0
M  V30 8481 O 796.545 -0.809682 2.56315 0
M  V30 8482 C 794.816 1.59636 3.19767 0
M  V30 8483 S 796.375 1.54178 4.10822 0
M  V30 8484 H 793.193 0.34959 0.619119 0
M  V30 8485 H 795.795 1.49304 1.26209 0
M  V30 8486 H 794.499 2.65336 3.13089 0
M  V30 8487 H 794.03 1.07594 3.78401 0
M  V30 8488 H 796.045 0.549785 4.93145 0
M  V30 8489 N 795.218 -1.23913 0.973828 0
M  V30 8490 C 796.464 -1.92436 0.640026 0
M  V30 8491 C 796.797 -1.75875 -0.823512 0
M  V30 8492 O 796.072 -1.11563 -1.59323 0
M  V30 8493 C 796.355 -3.4526 1.0231 0
M  V30 8494 C 796.208 -3.70961 2.54378 0
M  V30 8495 C 797.527 -4.36495 0.562155 0
M  V30 8496 H 794.646 -0.698868 0.233992 0
M  V30 8497 H 797.288 -1.46163 1.21393 0
M  V30 8498 H 795.438 -3.84802 0.534751 0
M  V30 8499 H 797.11 -3.40941 3.10737 0
M  V30 8500 H 795.353 -3.15899 2.97305 0
M  V30 8501 H 796.024 -4.77912 2.76232 0
M  V30 8502 H 798.5 -4.04363 0.981333 0
M  V30 8503 H 797.376 -5.42142 0.858689 0
M  V30 8504 H 797.637 -4.38818 -0.537659 0
M  V30 8505 N 796.696 -0.74468 -1.38897 0
M  V30 8506 C 797.644 -0.100312 -2.32384 0
M  V30 8507 C 798.638 0.715191 -1.53562 0
M  V30 8508 O 799.844 0.615288 -1.69157 0
M  V30 8509 H 796.219 -0.0136403 -0.751876 0
M  V30 8510 H 798.19 -0.905007 -2.84345 0
M  V30 8511 C 796.939 0.785432 -3.38713 0
M  V30 8512 H 796.262 0.167308 -3.9945 0
M  V30 8513 H 797.702 1.20374 -4.06554 0
M  V30 8514 C 796.161 1.92408 -2.76552 0
M  V30 8515 O 796.691 3.01752 -2.65157 0
M  V30 8516 N 794.897 1.71642 -2.34494 0
M  V30 8517 H 794.444 0.827079 -2.43961 0
M  V30 8518 H 794.402 2.48 -1.93244 0
M  V30 8519 N 798.174 1.49689 -0.493057 0
M  V30 8520 C 799.421 2.02427 0.0542714 0
M  V30 8521 C 799.749 1.37339 1.37725 0
M  V30 8522 O 799.004 0.495523 1.89323 0
M  V30 8523 C 799.303 3.56427 0.263536 0
M  V30 8524 C 798.969 4.40111 -0.98046 0
M  V30 8525 C 797.631 4.62699 -1.32148 0
M  V30 8526 C 799.983 4.88847 -1.80771 0
M  V30 8527 C 797.311 5.31268 -2.48941 0
M  V30 8528 C 799.663 5.587 -2.96711 0
M  V30 8529 C 798.327 5.79536 -3.31202 0
M  V30 8530 H 797.597 0.740734 0.0198593 0
M  V30 8531 H 800.244 1.80073 -0.651603 0
M  V30 8532 H 798.549 3.77416 1.05186 0
M  V30 8533 H 800.246 3.94819 0.701348 0
M  V30 8534 H 796.836 4.22765 -0.704814 0
M  V30 8535 H 801.02 4.71231 -1.55741 0
M  V30 8536 H 796.276 5.45603 -2.75911 0
M  V30 8537 H 800.45 5.9544 -3.61143 0
M  V30 8538 H 798.077 6.32443 -4.21805 0
M  V30 8539 N 799.652 0.226554 1.55963 0
M  V30 8540 C 800.6 -0.697922 2.21882 0
M  V30 8541 C 801.594 -1.19586 1.19981 0
M  V30 8542 O 802.8 -1.15511 1.38048 0
M  V30 8543 H 799.175 -0.243501 0.711485 0
M  V30 8544 H 801.146 -0.118576 2.98164 0
M  V30 8545 C 799.895 -1.89309 2.91646 0
M  V30 8546 H 799.218 -1.51906 3.69817 0
M  V30 8547 H 800.658 -2.51762 3.41162 0
M  V30 8548 C 799.117 -2.75162 1.94391 0
M  V30 8549 O 799.647 -3.74071 1.46402 0
M  V30 8550 N 797.853 -2.41302 1.61932 0
M  V30 8551 H 797.4 -1.60923 2.01151 0
M  V30 8552 H 797.358 -2.99023 0.971219 0
M  V30 8553 N 801.13 -1.57531 -0.0467866 0
M  V30 8554 C 802.377 -1.88451 -0.74112 0
M  V30 8555 C 802.705 -0.821592 -1.76296 0
M  V30 8556 O 801.96 0.179585 -1.94874 0
M  V30 8557 C 802.259 -3.26091 -1.46285 0
M  V30 8558 C 801.925 -4.47171 -0.578669 0
M  V30 8559 C 800.587 -4.80032 -0.335083 0
M  V30 8560 C 802.939 -5.2119 0.0328809 0
M  V30 8561 C 800.267 -5.84309 0.529121 0
M  V30 8562 C 802.619 -6.26383 0.884684 0
M  V30 8563 C 801.283 -6.57729 1.1379 0
M  V30 8564 H 800.553 -0.68959 -0.271195 0
M  V30 8565 H 803.2 -1.915 -0.00132378 0
M  V30 8566 H 801.505 -3.18948 -2.27551 0
M  V30 8567 H 803.202 -3.47258 -2.00532 0
M  V30 8568 H 799.792 -4.21467 -0.778666 0
M  V30 8569 H 803.976 -4.96096 -0.142375 0
M  V30 8570 H 799.232 -6.06981 0.733794 0
M  V30 8571 H 803.406 -6.82888 1.36516 0
M  V30 8572 H 801.033 -7.38355 1.80929 0
M  V30 8573 N 802.608 0.318715 -1.54344 0
M  V30 8574 C 803.556 1.41254 -1.84798 0
M  V30 8575 C 804.55 1.53325 -0.720256 0
M  V30 8576 O 805.756 1.55653 -0.903992 0
M  V30 8577 H 802.131 0.471468 -0.585851 0
M  V30 8578 H 804.102 1.12795 -2.7626 0
M  V30 8579 C 802.851 2.77395 -2.09637 0
M  V30 8580 H 802.174 2.68881 -2.95876 0
M  V30 8581 H 803.614 3.52987 -2.34896 0
M  V30 8582 C 802.073 3.24948 -0.889398 0
M  V30 8583 O 802.603 4.01573 -0.101063 0
M  V30 8584 N 800.809 2.82051 -0.699684 0
M  V30 8585 H 800.356 2.19858 -1.3424 0
M  V30 8586 H 800.314 3.1422 0.106368 0
M  V30 8587 N 804.086 1.46499 0.581025 0
M  V30 8588 C 805.334 1.51596 1.33653 0
M  V30 8589 C 805.655 0.169859 1.94259 0
M  V30 8590 O 804.925 -0.803776 1.78651 0
M  V30 8591 H 803.505 0.558346 0.496244 0
M  V30 8592 H 806.167 1.8264 0.680338 0
M  V30 8593 H 805.263 2.26956 2.14237 0
M  V30 8594 N 805.565 -0.825799 1.34232 0
M  V30 8595 C 806.495 -1.95151 1.28212 0
M  V30 8596 C 807.476 -1.69345 0.160123 0
M  V30 8597 O 808.661 -1.90983 0.352019 0
M  V30 8598 C 805.791 -3.31554 1.03388 0
M  V30 8599 C 804.745 -3.71793 2.12023 0
M  V30 8600 C 804.071 -5.06147 1.72392 0
M  V30 8601 C 805.371 -3.84193 3.53826 0
M  V30 8602 H 807.065 -2.00445 2.22401 0
M  V30 8603 H 804.611 -0.962996 1.07063 0
M  V30 8604 H 806.564 -4.09889 0.978225 0
M  V30 8605 H 805.288 -3.26551 0.0564142 0
M  V30 8606 H 803.947 -2.95731 2.16654 0
M  V30 8607 H 803.595 -4.97628 0.733137 0
M  V30 8608 H 803.295 -5.34041 2.451 0
M  V30 8609 H 804.819 -5.86943 1.68317 0
M  V30 8610 H 806.233 -4.52806 3.51624 0
M  V30 8611 H 804.63 -4.23538 4.2513 0
M  V30 8612 H 805.7 -2.86272 3.91377 0
M  V30 8613 N 807.043 -1.17915 -1.04565 0
M  V30 8614 C 808.271 -0.99616 -1.8134 0
M  V30 8615 C 808.686 0.455509 -1.83223 0
M  V30 8616 O 808.043 1.31636 -1.26405 0
M  V30 8617 C 808.094 -1.53758 -3.27171 0
M  V30 8618 O 807.815 -2.93241 -3.25486 0
M  V30 8619 C 809.316 -1.40007 -4.2061 0
M  V30 8620 H 806.536 -0.352055 -0.571225 0
M  V30 8621 H 809.08 -1.56349 -1.31815 0
M  V30 8622 H 807.235 -1.01213 -3.73945 0
M  V30 8623 H 807.649 -3.18392 -4.16805 0
M  V30 8624 H 809.123 -1.82695 -5.2089 0
M  V30 8625 H 809.6 -0.348054 -4.37819 0
M  V30 8626 H 810.206 -1.916 -3.79697 0
M  V30 8627 N 808.521 1.23394 -0.980386 0
M  V30 8628 C 809.769 1.91431 -0.647978 0
M  V30 8629 C 810.09 1.76871 0.821066 0
M  V30 8630 O 809.36 1.14808 1.58732 0
M  V30 8631 H 807.94 0.708516 -0.236673 0
M  V30 8632 H 810.602 1.50019 -1.2442 0
M  V30 8633 H 809.698 2.98854 -0.899592 0
M  V30 8634 N 809.999 0.752036 1.385 0
M  V30 8635 C 811.227 0.318274 2.04437 0
M  V30 8636 C 811.642 -1.05285 1.56718 0
M  V30 8637 O 810.999 -1.66844 0.73956 0
M  V30 8638 C 811.05 0.330106 3.5999 0
M  V30 8639 O 810.771 1.64712 4.05957 0
M  V30 8640 C 812.272 -0.117713 4.43144 0
M  V30 8641 H 809.492 0.136228 0.657026 0
M  V30 8642 H 812.036 1.02045 1.7722 0
M  V30 8643 H 810.191 -0.323323 3.86048 0
M  V30 8644 H 810.605 1.57225 5.0038 0
M  V30 8645 H 812.079 -0.0582735 5.51969 0
M  V30 8646 H 812.556 -1.16538 4.23457 0
M  V30 8647 H 813.162 0.506784 4.2227 0
M  V30 8648 N 811.477 -1.49425 0.500989 0
M  V30 8649 C 812.725 -2.02053 -0.0434495 0
M  V30 8650 C 813.046 -1.38285 -1.37486 0
M  V30 8651 O 812.316 -0.538171 -1.88363 0
M  V30 8652 H 810.896 -0.746757 -0.0190469 0
M  V30 8653 H 813.558 -1.83449 0.658227 0
M  V30 8654 H 812.654 -3.11619 -0.173129 0
M  V30 8655 N 812.955 -0.234822 -1.55841 0
M  V30 8656 C 814.201 0.393843 -1.98939 0
M  V30 8657 C 814.534 1.58466 -1.1226 0
M  V30 8658 O 813.809 1.93635 -0.183242 0
M  V30 8659 C 814.092 0.815492 -3.50745 0
M  V30 8660 C 813.945 -0.379878 -4.48193 0
M  V30 8661 C 815.264 1.66687 -4.07312 0
M  V30 8662 H 812.383 0.141681 -0.723253 0
M  V30 8663 H 815.025 -0.333716 -1.87046 0
M  V30 8664 H 813.175 1.43541 -3.6101 0
M  V30 8665 H 814.847 -1.0182 -4.49923 0
M  V30 8666 H 813.09 -1.02507 -4.21515 0
M  V30 8667 H 813.761 -0.0417069 -5.51984 0
M  V30 8668 H 816.237 1.14369 -4.00074 0
M  V30 8669 H 815.113 1.93078 -5.13821 0
M  V30 8670 H 815.374 2.63468 -3.55017 0
M  V30 8671 N 814.433 1.57553 0.0384317 0
M  V30 8672 C 815.363 2.0898 1.04161 0
M  V30 8673 C 816.344 0.99029 1.38301 0
M  V30 8674 O 817.529 1.26499 1.47349 0
M  V30 8675 C 814.659 2.56145 2.34536 0
M  V30 8676 C 813.613 3.70275 2.14663 0
M  V30 8677 C 812.939 4.03612 3.50715 0
M  V30 8678 C 814.239 4.99067 1.54045 0
M  V30 8679 H 815.933 2.93046 0.613548 0
M  V30 8680 H 813.479 1.40973 0.293684 0
M  V30 8681 H 815.432 2.90741 3.05037 0
M  V30 8682 H 814.156 1.6915 2.79385 0
M  V30 8683 H 812.815 3.36013 1.46597 0
M  V30 8684 H 812.463 3.13698 3.93195 0
M  V30 8685 H 812.163 4.80482 3.38247 0
M  V30 8686 H 813.687 4.40735 4.22593 0
M  V30 8687 H 815.101 5.3168 2.14451 0
M  V30 8688 H 813.498 5.80484 1.52178 0
M  V30 8689 H 814.568 4.8226 0.505259 0
M  V30 8690 N 815.911 -0.310526 1.54511 0
M  V30 8691 C 817.139 -1.06611 1.77318 0
M  V30 8692 C 817.554 -1.81265 0.528043 0
M  V30 8693 O 816.911 -1.75466 -0.50178 0
M  V30 8694 C 816.962 -2.05409 2.97472 0
M  V30 8695 O 816.683 -1.33785 4.17173 0
M  V30 8696 C 818.184 -2.93082 3.32593 0
M  V30 8697 H 815.404 -0.316578 0.591624 0
M  V30 8698 H 817.948 -0.352691 2.01436 0
M  V30 8699 H 816.103 -2.72266 2.7559 0
M  V30 8700 H 816.517 -2.00055 4.84849 0
M  V30 8701 H 817.991 -3.58274 4.19933 0
M  V30 8702 H 818.468 -3.60877 2.50329 0
M  V30 8703 H 819.074 -2.31768 3.566 0
M  V30 8704 N 817.389 -1.46805 -0.573248 0
M  V30 8705 C 818.299 -1.60687 -1.70929 0
M  V30 8706 C 819.315 -0.490084 -1.66956 0
M  V30 8707 O 820.491 -0.755482 -1.86693 0
M  V30 8708 C 817.556 -1.60259 -3.07438 0
M  V30 8709 C 816.617 -2.83242 -3.22603 0
M  V30 8710 C 815.85 -2.82825 -4.52599 0
M  V30 8711 O 816.073 -1.92113 -5.37074 0
M  V30 8712 O 815.007 -3.74489 -4.71213 0
M  V30 8713 H 818.833 -2.56782 -1.62163 0
M  V30 8714 H 816.418 -1.29706 -0.741399 0
M  V30 8715 H 818.3 -1.6275 -3.88704 0
M  V30 8716 H 816.975 -0.673268 -3.16621 0
M  V30 8717 H 815.882 -2.86302 -2.40794 0
M  V30 8718 H 817.215 -3.75415 -3.18315 0
M  V30 8719 N 818.867 0.818669 -1.34668 0
M  V30 8720 C 820.092 1.61193 -1.30505 0
M  V30 8721 C 820.517 1.87734 0.117341 0
M  V30 8722 O 819.875 1.45591 1.08042 0
M  V30 8723 C 819.923 2.92733 -2.1057 0
M  V30 8724 O 819.027 3.85 -1.47813 0
M  V30 8725 H 818.368 0.490085 -0.44801 0
M  V30 8726 H 820.898 1.01701 -1.77534 0
M  V30 8727 H 820.908 3.42262 -2.22082 0
M  V30 8728 H 819.583 2.7274 -3.13984 0
M  V30 8729 H 818.16 3.43525 -1.45069 0
M  V30 8730 N 820.346 1.18468 1.03938 0
M  V30 8731 C 821.294 0.909286 2.14091 0
M  V30 8732 C 822.288 -0.130928 1.68893 0
M  V30 8733 O 823.494 0.0173403 1.79992 0
M  V30 8734 H 819.869 0.27658 0.699291 0
M  V30 8735 H 821.84 1.84514 2.34515 0
M  V30 8736 C 820.589 0.452922 3.44737 0
M  V30 8737 H 819.912 1.24485 3.79926 0
M  V30 8738 H 821.352 0.299238 4.22943 0
M  V30 8739 C 819.811 -0.831435 3.26479 0
M  V30 8740 O 820.341 -1.89535 3.54174 0
M  V30 8741 N 818.547 -0.784545 2.79809 0
M  V30 8742 H 818.094 0.0814746 2.57471 0
M  V30 8743 H 818.052 -1.64431 2.67973 0
M  V30 8744 N 821.824 -1.22873 0.986916 0
M  V30 8745 C 822.771 -2.2458 0.532215 0
M  V30 8746 C 823.741 -1.60375 -0.432322 0
M  V30 8747 O 824.926 -1.87775 -0.338416 0
M  V30 8748 C 822.066 -3.44761 -0.152864 0
M  V30 8749 C 821.179 -4.23501 0.852704 0
M  V30 8750 C 820.314 -5.31011 0.14176 0
M  V30 8751 C 819.353 -6.01464 1.1361 0
M  V30 8752 N 818.49 -7.00631 0.453871 0
M  V30 8753 H 823.33 -2.62838 1.40428 0
M  V30 8754 H 820.867 -1.29185 0.703543 0
M  V30 8755 H 822.825 -4.1333 -0.566926 0
M  V30 8756 H 821.455 -3.07284 -0.988756 0
M  V30 8757 H 820.507 -3.54286 1.38512 0
M  V30 8758 H 821.819 -4.72097 1.61014 0
M  V30 8759 H 820.973 -6.05805 -0.329337 0
M  V30 8760 H 819.712 -4.83373 -0.648229 0
M  V30 8761 H 818.717 -5.25456 1.61789 0
M  V30 8762 H 819.942 -6.5119 1.92686 0
M  V30 8763 H 817.888 -6.55235 -0.316791 0
M  V30 8764 H 817.805 -7.47204 1.14986 0
M  V30 8765 H 819.073 -7.795 0.00537823 0
M  V30 8766 N 823.302 -0.75937 -1.38099 0
M  V30 8767 C 824.249 -0.135508 -2.30402 0
M  V30 8768 C 825.219 0.703356 -1.50473 0
M  V30 8769 O 826.404 0.658287 -1.79084 0
M  V30 8770 C 823.544 0.747228 -3.36913 0
M  V30 8771 C 822.657 -0.106893 -4.31868 0
M  V30 8772 C 821.792 0.779388 -5.25451 0
M  V30 8773 C 820.831 -0.0780179 -6.1205 0
M  V30 8774 N 819.968 0.765545 -6.97914 0
M  V30 8775 H 824.808 -0.9282 -2.83176 0
M  V30 8776 H 822.345 -0.46935 -1.39411 0
M  V30 8777 H 824.303 1.27371 -3.97281 0
M  V30 8778 H 822.933 1.50565 -2.85535 0
M  V30 8779 H 821.985 -0.751063 -3.72912 0
M  V30 8780 H 823.297 -0.768798 -4.9284 0
M  V30 8781 H 822.451 1.37282 -5.90964 0
M  V30 8782 H 821.19 1.47501 -4.6486 0
M  V30 8783 H 820.195 -0.684078 -5.45528 0
M  V30 8784 H 821.42 -0.770786 -6.74712 0
M  V30 8785 H 819.366 1.44601 -6.39864 0
M  V30 8786 H 819.283 0.160666 -7.55829 0
M  V30 8787 H 820.551 1.34377 -7.6783 0
M  V30 8788 N 824.78 1.49157 -0.508906 0
M  V30 8789 C 826.027 2.02473 0.0327983 0
M  V30 8790 C 826.355 1.38792 1.36261 0
M  V30 8791 O 825.61 0.515576 1.88786 0
M  V30 8792 C 825.909 3.56687 0.225717 0
M  V30 8793 C 825.575 4.39046 -1.02708 0
M  V30 8794 C 824.237 4.61271 -1.37048 0
M  V30 8795 C 826.589 4.86902 -1.85946 0
M  V30 8796 C 823.917 5.28598 -2.54562 0
M  V30 8797 C 826.269 5.55521 -3.0262 0
M  V30 8798 C 824.933 5.7599 -3.3733 0
M  V30 8799 H 824.203 0.740903 0.0120017 0
M  V30 8800 H 826.85 1.79372 -0.670665 0
M  V30 8801 H 825.155 3.78511 1.01177 0
M  V30 8802 H 826.852 3.95541 0.659433 0
M  V30 8803 H 823.442 4.21994 -0.749615 0
M  V30 8804 H 827.626 4.69553 -1.6073 0
M  V30 8805 H 822.882 5.42646 -2.81682 0
M  V30 8806 H 827.056 5.91576 -3.67438 0
M  V30 8807 H 824.683 6.27934 -4.2849 0
M  V30 8808 N 826.258 0.243083 1.55714 0
M  V30 8809 C 827.188 -0.652336 2.24203 0
M  V30 8810 C 828.169 -1.1843 1.221 0
M  V30 8811 O 829.354 -1.22435 1.50743 0
M  V30 8812 C 826.484 -1.85111 2.93856 0
M  V30 8813 C 825.438 -1.45208 4.02615 0
M  V30 8814 C 824.764 -2.73137 4.59674 0
M  V30 8815 C 826.064 -0.625988 5.18535 0
M  V30 8816 H 827.758 -0.0812504 2.9929 0
M  V30 8817 H 825.304 -0.0376388 1.43951 0
M  V30 8818 H 827.257 -2.48314 3.40468 0
M  V30 8819 H 825.981 -2.44751 2.16251 0
M  V30 8820 H 824.64 -0.843406 3.56766 0
M  V30 8821 H 824.288 -3.30967 3.78774 0
M  V30 8822 H 823.988 -2.47163 5.33089 0
M  V30 8823 H 825.512 -3.37245 5.09017 0
M  V30 8824 H 826.926 -1.16223 5.61396 0
M  V30 8825 H 825.323 -0.462465 5.98315 0
M  V30 8826 H 826.393 0.362652 4.83542 0
M  V30 8827 N 827.736 -1.57571 -0.0300757 0
M  V30 8828 C 829.147 -1.77567 -0.576802 0
M  V30 8829 C 829.498 -0.874034 -1.75656 0
M  V30 8830 O 828.623 -0.0686124 -2.16291 0
M  V30 8831 C 829.218 -3.22016 -1.05315 0
M  V30 8832 C 827.777 -3.43212 -1.5454 0
M  V30 8833 C 826.924 -2.73061 -0.483033 0
M  V30 8834 H 829.875 -1.57483 0.196151 0
M  V30 8835 H 829.896 -3.28474 -1.92055 0
M  V30 8836 H 829.408 -3.87613 -0.194298 0
M  V30 8837 H 827.509 -2.82788 -2.42615 0
M  V30 8838 H 827.622 -4.5182 -1.5936 0
M  V30 8839 H 825.986 -2.36805 -0.937835 0
M  V30 8840 H 826.769 -3.4134 0.366341 0
M  V30 8841 N 829.214 0.302327 -1.54673 0
M  V30 8842 C 830.461 1.0377 -1.73891 0
M  V30 8843 C 830.789 1.87309 -0.523979 0
M  V30 8844 O 830.044 1.8936 0.494084 0
M  V30 8845 C 830.343 1.97365 -2.97963 0
M  V30 8846 C 830.009 1.29812 -4.3181 0
M  V30 8847 C 828.671 1.11121 -4.68194 0
M  V30 8848 C 831.023 0.815073 -5.14787 0
M  V30 8849 C 828.351 0.428077 -5.85136 0
M  V30 8850 C 830.703 0.145665 -6.32432 0
M  V30 8851 C 829.367 -0.0532098 -6.67479 0
M  V30 8852 H 828.637 0.379721 -0.636312 0
M  V30 8853 H 831.284 0.312708 -1.8893 0
M  V30 8854 H 829.589 2.76387 -2.777 0
M  V30 8855 H 831.286 2.54331 -3.10027 0
M  V30 8856 H 827.876 1.45366 -4.03196 0
M  V30 8857 H 832.06 0.947191 -4.87178 0
M  V30 8858 H 827.316 0.262995 -6.10834 0
M  V30 8859 H 831.49 -0.236533 -6.95998 0
M  V30 8860 H 829.117 -0.58456 -7.57949 0
M  V30 8861 N 830.692 1.47107 0.565454 0
M  V30 8862 C 831.624 1.55024 1.6882 0
M  V30 8863 C 832.637 0.4371 1.56822 0
M  V30 8864 O 833.826 0.706315 1.63931 0
M  V30 8865 C 830.926 1.43069 3.0722 0
M  V30 8866 C 830.099 2.68807 3.45053 0
M  V30 8867 C 829.158 2.50806 4.62583 0
M  V30 8868 O 828.184 3.24593 4.67577 0
M  V30 8869 N 829.386 1.58093 5.58558 0
M  V30 8870 H 832.151 2.51836 1.62477 0
M  V30 8871 H 829.712 1.43382 0.751885 0
M  V30 8872 H 831.704 1.28773 3.83666 0
M  V30 8873 H 830.274 0.543721 3.07835 0
M  V30 8874 H 829.494 2.97923 2.58138 0
M  V30 8875 H 830.782 3.52298 3.67101 0
M  V30 8876 H 830.18 0.972807 5.57273 0
M  V30 8877 H 828.737 1.49753 6.34364 0
M  V30 8878 N 832.17 -0.811516 1.35101 0
M  V30 8879 C 833.102 -1.93102 1.23468 0
M  V30 8880 C 834.115 -1.62021 0.159095 0
M  V30 8881 O 835.304 -1.73682 0.411945 0
M  V30 8882 C 832.404 -3.27345 0.877404 0
M  V30 8883 C 831.577 -3.86368 2.05033 0
M  V30 8884 C 830.636 -4.99009 1.66963 0
M  V30 8885 O 829.662 -5.16698 2.38772 0
M  V30 8886 N 830.864 -5.7749 0.590394 0
M  V30 8887 H 833.629 -2.0361 2.19916 0
M  V30 8888 H 831.19 -0.988687 1.28205 0
M  V30 8889 H 833.182 -4.00163 0.604298 0
M  V30 8890 H 831.752 -3.126 0.00275267 0
M  V30 8891 H 830.972 -3.05804 2.48752 0
M  V30 8892 H 832.26 -4.22533 2.83449 0
M  V30 8893 H 831.658 -5.657 -0.00633259 0
M  V30 8894 H 830.215 -6.50708 0.377055 0
M  V30 8895 N 833.648 -1.19017 -1.03309 0
M  V30 8896 C 834.895 -0.990214 -1.76638 0
M  V30 8897 C 835.223 0.479435 -1.88498 0
M  V30 8898 O 834.478 1.37223 -1.39529 0
M  V30 8899 C 834.777 -1.59927 -3.19622 0
M  V30 8900 C 834.443 -3.09632 -3.27779 0
M  V30 8901 C 833.105 -3.50491 -3.29712 0
M  V30 8902 C 835.457 -4.05644 -3.27264 0
M  V30 8903 C 832.785 -4.85921 -3.28782 0
M  V30 8904 C 835.137 -5.41 -3.27875 0
M  V30 8905 C 833.801 -5.81295 -3.28104 0
M  V30 8906 H 833.071 -0.362345 -0.646364 0
M  V30 8907 H 835.718 -1.48197 -1.21284 0
M  V30 8908 H 834.023 -1.0297 -3.78027 0
M  V30 8909 H 835.72 -1.41989 -3.7502 0
M  V30 8910 H 832.31 -2.77073 -3.26999 0
M  V30 8911 H 836.494 -3.75124 -3.24955 0
M  V30 8912 H 831.75 -5.16427 -3.27281 0
M  V30 8913 H 835.924 -6.15157 -3.26428 0
M  V30 8914 H 833.551 -6.86211 -3.27138 0
M  V30 8915 N 835.127 1.22348 -0.993418 0
M  V30 8916 C 836.375 1.90733 -0.668246 0
M  V30 8917 C 836.696 1.77732 0.802261 0
M  V30 8918 O 835.966 1.16486 1.57505 0
M  V30 8919 H 834.546 0.705966 -0.244174 0
M  V30 8920 H 837.208 1.48691 -1.26004 0
M  V30 8921 H 836.304 2.97883 -0.931239 0
M  V30 8922 N 836.605 0.766683 1.37694 0
M  V30 8923 C 838.021 0.445739 1.53249 0
M  V30 8924 C 838.221 -1.03935 1.72626 0
M  V30 8925 O 837.277 -1.82525 1.74473 0
M  V30 8926 C 838.59 1.2564 2.73194 0
M  V30 8927 C 840.138 1.24779 2.87053 0
M  V30 8928 C 840.613 2.04169 4.09974 0
M  V30 8929 N 842.104 2.01497 4.17077 0
M  V30 8930 C 842.839 2.5971 5.11212 0
M  V30 8931 N 842.335 3.26691 6.10938 0
M  V30 8932 N 844.128 2.49568 5.03659 0
M  V30 8933 H 836.279 1.72899 1.23368 0
M  V30 8934 H 838.542 0.733701 0.600322 0
M  V30 8935 H 838.248 2.30859 2.65324 0
M  V30 8936 H 838.122 0.882133 3.6674 0
M  V30 8937 H 840.509 0.203603 2.94397 0
M  V30 8938 H 840.59 1.66166 1.9448 0
M  V30 8939 H 840.234 3.08606 4.03392 0
M  V30 8940 H 840.164 1.60167 5.01651 0
M  V30 8941 H 842.655 1.52728 3.45662 0
M  V30 8942 H 842.968 3.68497 6.79286 0
M  V30 8943 H 841.313 3.30789 6.11231 0
M  V30 8944 H 844.504 1.96859 4.24693 0
M  V30 8945 H 844.677 2.95231 5.76839 0
M  V30 8946 N 838.083 -1.48885 0.516809 0
M  V30 8947 C 839.36 -1.95412 -0.0858293 0
M  V30 8948 C 839.74 -1.45875 -1.5259 0
M  V30 8949 O 839.088 -0.679415 -2.18166 0
M  V30 8950 C 839.298 -3.48995 0.0178194 0
M  V30 8951 C 840.646 -4.24342 -0.14813 0
M  V30 8952 O 841.67 -3.56155 -0.0566125 0
M  V30 8953 O 840.529 -5.45454 -0.338035 0
M  V30 8954 H 837.623 -0.822455 -0.0865884 0
M  V30 8955 H 840.169 -1.59464 0.580472 0
M  V30 8956 H 838.941 -3.77732 1.02147 0
M  V30 8957 H 838.564 -3.91604 -0.687924 0
M  V30 8958 N 839.561 -0.251338 -1.55583 0
M  V30 8959 C 840.81 0.372681 -1.98227 0
M  V30 8960 C 841.123 1.58743 -1.1428 0
M  V30 8961 O 842.329 2.28289 -1.46957 0
M  V30 8962 C 840.785 0.714439 -3.52738 0
M  V30 8963 C 840.393 -0.479168 -4.4543 0
M  V30 8964 C 842.137 1.3024 -4.04027 0
M  V30 8965 C 840.044 -0.113318 -5.91291 0
M  V30 8966 H 838.974 0.14302 -0.740312 0
M  V30 8967 H 841.625 -0.352253 -1.80087 0
M  V30 8968 H 840.007 1.49762 -3.66589 0
M  V30 8969 H 841.181 -1.25644 -4.4334 0
M  V30 8970 H 839.496 -0.982359 -4.04646 0
M  V30 8971 H 842.093 1.58953 -5.10527 0
M  V30 8972 H 842.436 2.22837 -3.51638 0
M  V30 8973 H 842.969 0.582024 -3.93519 0
M  V30 8974 H 839.708 -1.00654 -6.47726 0
M  V30 8975 H 839.228 0.627666 -5.96507 0
M  V30 8976 H 840.907 0.30293 -6.4629 0
M  V30 8977 N 841.039 1.57585 0.0217189 0
M  V30 8978 C 842.002 2.06004 1.00474 0
M  V30 8979 C 843.002 0.965461 1.2859 0
M  V30 8980 O 844.192 1.22884 1.23471 0
M  V30 8981 C 841.324 2.48319 2.33561 0
M  V30 8982 H 842.517 2.94112 0.586346 0
M  V30 8983 H 840.07 1.53973 0.268716 0
M  V30 8984 H 840.805 1.63389 2.80133 0
M  V30 8985 H 840.59 3.28239 2.1448 0
M  V30 8986 H 842.08 2.86181 3.04122 0
M  V30 8987 N 842.517 -0.29412 1.54831 0
M  V30 8988 C 843.794 -1.04847 1.65126 0
M  V30 8989 C 844.174 -2.04996 0.503986 0
M  V30 8990 O 843.522 -2.22996 -0.498496 0
M  V30 8991 C 843.732 -1.72418 3.03435 0
M  V30 8992 C 845.08 -2.24362 3.60481 0
M  V30 8993 O 846.104 -1.8244 3.05932 0
M  V30 8994 O 844.963 -3.01196 4.56008 0
M  V30 8995 H 842.057 -0.485032 0.669831 0
M  V30 8996 H 844.603 -0.291659 1.67175 0
M  V30 8997 H 843.375 -0.997351 3.78376 0
M  V30 8998 H 842.998 -2.54839 3.05193 0
M  V30 8999 N 843.995 -1.47404 -0.557645 0
M  V30 9000 C 845.223 -1.57622 -1.34026 0
M  V30 9001 C 845.638 -0.226256 -1.87439 0
M  V30 9002 O 844.995 0.78043 -1.64971 0
M  V30 9003 C 845.046 -2.60111 -2.51047 0
M  V30 9004 O 844.767 -3.89866 -1.99841 0
M  V30 9005 C 846.268 -2.80508 -3.43264 0
M  V30 9006 H 843.488 -0.532271 -0.40857 0
M  V30 9007 H 846.032 -1.93019 -0.675555 0
M  V30 9008 H 844.187 -2.27648 -3.13457 0
M  V30 9009 H 844.601 -4.45864 -2.76234 0
M  V30 9010 H 846.075 -3.56084 -4.21792 0
M  V30 9011 H 846.552 -1.88314 -3.9678 0
M  V30 9012 H 847.158 -3.14166 -2.86671 0
M  V30 9013 N 845.473 0.80434 -1.35529 0
M  V30 9014 C 846.701 1.59283 -1.32048 0
M  V30 9015 C 847.116 1.88527 0.101556 0
M  V30 9016 O 846.473 1.48975 1.05417 0
M  V30 9017 C 846.524 2.92276 -2.12737 0
M  V30 9018 O 846.245 2.64299 -3.49396 0
M  V30 9019 C 847.746 3.86631 -2.16867 0
M  V30 9020 H 844.966 0.494523 -0.453528 0
M  V30 9021 H 847.51 0.999415 -1.78415 0
M  V30 9022 H 845.665 3.48125 -1.69964 0
M  V30 9023 H 846.079 3.4923 -3.91329 0
M  V30 9024 H 847.553 4.77053 -2.77712 0
M  V30 9025 H 848.03 4.23384 -1.16803 0
M  V30 9026 H 848.636 3.36717 -2.59811 0
M  V30 9027 N 846.951 1.19563 1.02676 0
M  V30 9028 C 848.228 0.908857 1.73203 0
M  V30 9029 C 848.608 -0.584928 2.02834 0
M  V30 9030 O 847.956 -1.54372 1.68469 0
M  V30 9031 C 848.166 1.77105 3.00724 0
M  V30 9032 C 849.514 2.00667 3.7419 0
M  V30 9033 O 850.538 1.74274 3.10656 0
M  V30 9034 O 849.397 2.4518 4.88415 0
M  V30 9035 H 846.491 0.338909 0.754367 0
M  V30 9036 H 849.037 1.30387 1.08616 0
M  V30 9037 H 847.809 2.78303 2.7507 0
M  V30 9038 H 847.432 1.37546 3.73051 0
M  V30 9039 N 848.429 -1.21819 0.999893 0
M  V30 9040 C 849.392 -2.22227 0.561044 0
M  V30 9041 C 850.392 -1.56722 -0.359858 0
M  V30 9042 O 851.582 -1.73546 -0.150848 0
M  V30 9043 C 848.714 -3.40409 -0.182987 0
M  V30 9044 H 849.907 -2.62567 1.44909 0
M  V30 9045 H 847.46 -1.34991 0.78785 0
M  V30 9046 H 848.195 -3.05551 -1.08671 0
M  V30 9047 H 847.98 -3.89171 0.47833 0
M  V30 9048 H 849.47 -4.14856 -0.477952 0
M  V30 9049 N 849.908 -0.773975 -1.37286 0
M  V30 9050 C 851.154 -0.339809 -1.99933 0
M  V30 9051 C 851.487 1.0815 -1.61299 0
M  V30 9052 O 850.762 1.74442 -0.860252 0
M  V30 9053 C 851.045 -0.485919 -3.56806 0
M  V30 9054 C 850.898 -1.9498 -4.05343 0
M  V30 9055 C 852.217 0.108461 -4.39966 0
M  V30 9056 H 849.336 -0.124944 -0.726332 0
M  V30 9057 H 851.978 -0.977433 -1.6293 0
M  V30 9058 H 850.128 0.0569023 -3.88458 0
M  V30 9059 H 851.8 -2.5525 -3.84246 0
M  V30 9060 H 850.043 -2.45784 -3.57453 0
M  V30 9061 H 850.714 -2.00308 -5.14374 0
M  V30 9062 H 853.19 -0.354722 -4.14585 0
M  V30 9063 H 852.066 -0.0238926 -5.48895 0
M  V30 9064 H 852.327 1.19901 -4.25531 0
M  V30 9065 N 851.386 1.48609 -0.524698 0
M  V30 9066 C 852.802 1.58557 -0.182199 0
M  V30 9067 C 853.002 1.52732 1.31435 0
M  V30 9068 O 852.058 1.41362 2.0922 0
M  V30 9069 C 853.371 2.90406 -0.78004 0
M  V30 9070 C 854.919 3.03924 -0.748293 0
M  V30 9071 C 855.394 4.38427 -1.32462 0
M  V30 9072 N 856.885 4.4498 -1.28635 0
M  V30 9073 C 857.62 5.47551 -1.70223 0
M  V30 9074 N 857.116 6.57103 -2.19515 0
M  V30 9075 N 858.909 5.38402 -1.61493 0
M  V30 9076 H 851.06 1.50638 -1.4974 0
M  V30 9077 H 853.323 0.714952 -0.622533 0
M  V30 9078 H 853.029 3.00308 -1.83052 0
M  V30 9079 H 852.903 3.76343 -0.254075 0
M  V30 9080 H 855.29 2.93638 0.293407 0
M  V30 9081 H 855.371 2.19611 -1.31167 0
M  V30 9082 H 855.015 4.49466 -2.36522 0
M  V30 9083 H 854.945 5.21418 -0.736967 0
M  V30 9084 H 857.436 3.66393 -0.92545 0
M  V30 9085 H 857.749 7.31499 -2.49257 0
M  V30 9086 H 856.094 6.58081 -2.23506 0
M  V30 9087 H 859.285 4.5171 -1.22785 0
M  V30 9088 H 859.458 6.18208 -1.94225 0
M  V30 9089 N 852.864 0.259585 1.55447 0
M  V30 9090 C 854.141 -0.412595 1.91199 0
M  V30 9091 C 854.521 -1.74909 1.18194 0
M  V30 9092 O 853.869 -2.26474 0.303603 0
M  V30 9093 C 854.079 -0.568195 3.44344 0
M  V30 9094 C 855.427 -0.858253 4.15836 0
M  V30 9095 O 856.451 -0.653588 3.50152 0
M  V30 9096 O 855.31 -1.24874 5.32042 0
M  V30 9097 H 852.404 -0.223403 0.796254 0
M  V30 9098 H 854.95 0.30459 1.66944 0
M  V30 9099 H 853.722 0.372989 3.89518 0
M  V30 9100 H 853.345 -1.33544 3.74502 0
M  V30 9101 N 854.342 -1.57594 -0.0133615 0
M  V30 9102 C 855.753 -1.78168 -0.557937 0
M  V30 9103 C 856.104 -0.892616 -1.74719 0
M  V30 9104 O 855.229 -0.0915491 -2.16206 0
M  V30 9105 C 855.824 -3.23115 -1.01894 0
M  V30 9106 C 854.383 -3.44831 -1.50892 0
M  V30 9107 C 853.53 -2.73558 -0.454044 0
M  V30 9108 H 856.481 -1.57266 0.212843 0
M  V30 9109 H 856.502 -3.30493 -1.8856 0
M  V30 9110 H 856.014 -3.87798 -0.153175 0
M  V30 9111 H 854.115 -2.85345 -2.39602 0
M  V30 9112 H 854.228 -4.53485 -1.54559 0
M  V30 9113 H 852.592 -2.37787 -0.912666 0
M  V30 9114 H 853.375 -3.40932 0.402524 0
M  V30 9115 N 855.82 0.285905 -1.54985 0
M  V30 9116 C 856.752 1.37505 -1.83371 0
M  V30 9117 C 857.765 1.46138 -0.717454 0
M  V30 9118 O 858.954 1.48186 -0.995142 0
M  V30 9119 C 856.054 2.7575 -1.97016 0
M  V30 9120 C 855.227 2.89866 -3.27561 0
M  V30 9121 C 854.286 4.08704 -3.31433 0
M  V30 9122 O 853.312 4.00073 -4.04883 0
M  V30 9123 N 854.514 5.20062 -2.57907 0
M  V30 9124 H 857.279 1.13505 -2.77375 0
M  V30 9125 H 854.84 0.476006 -1.54744 0
M  V30 9126 H 856.832 3.5352 -1.96991 0
M  V30 9127 H 855.402 2.9263 -1.09938 0
M  V30 9128 H 854.622 1.99085 -3.40234 0
M  V30 9129 H 855.91 2.96219 -4.13681 0
M  V30 9130 H 855.308 5.29958 -1.97891 0
M  V30 9131 H 853.865 5.96111 -2.63619 0
M  V30 9132 N 857.298 1.47698 0.54982 0
M  V30 9133 C 858.526 1.5833 1.33188 0
M  V30 9134 C 858.941 0.236193 1.87317 0
M  V30 9135 O 858.298 -0.77167 1.65383 0
M  V30 9136 C 858.349 2.61438 2.49664 0
M  V30 9137 O 858.07 3.9092 1.97771 0
M  V30 9138 C 859.571 2.82324 3.41772 0
M  V30 9139 H 856.791 0.53443 0.405741 0
M  V30 9140 H 859.335 1.93375 0.665309 0
M  V30 9141 H 857.49 2.29307 3.12245 0
M  V30 9142 H 857.904 4.47323 2.73866 0
M  V30 9143 H 859.378 3.58316 4.19897 0
M  V30 9144 H 859.855 1.90416 3.95776 0
M  V30 9145 H 860.461 3.15682 2.85 0
M  V30 9146 N 858.776 -0.797141 1.35954 0
M  V30 9147 C 859.706 -1.92387 1.32323 0
M  V30 9148 C 860.687 -1.68967 0.196007 0
M  V30 9149 O 861.872 -1.90193 0.39245 0
M  V30 9150 C 859.002 -3.29286 1.10398 0
M  V30 9151 C 857.956 -3.67212 2.19862 0
M  V30 9152 C 857.282 -5.02377 1.8309 0
M  V30 9153 C 858.582 -3.76602 3.61896 0
M  V30 9154 H 860.276 -1.95683 2.26602 0
M  V30 9155 H 857.822 -0.94007 1.09081 0
M  V30 9156 H 859.775 -4.07721 1.06495 0
M  V30 9157 H 858.499 -3.26358 0.125668 0
M  V30 9158 H 857.158 -2.91069 2.22878 0
M  V30 9159 H 856.806 -4.95961 0.838527 0
M  V30 9160 H 856.506 -5.28722 2.56372 0
M  V30 9161 H 858.03 -5.8324 1.80729 0
M  V30 9162 H 859.444 -4.45246 3.6115 0
M  V30 9163 H 857.841 -4.14425 4.34018 0
M  V30 9164 H 858.911 -2.77906 3.97361 0
M  V30 9165 N 860.254 -1.20106 -1.0204 0
M  V30 9166 C 861.164 -0.962051 -2.13967 0
M  V30 9167 C 862.18 0.0808053 -1.73812 0
M  V30 9168 O 863.356 -0.105774 -2.01122 0
M  V30 9169 C 860.421 -0.513108 -3.42882 0
M  V30 9170 C 859.482 -1.62636 -3.97301 0
M  V30 9171 C 858.715 -1.19875 -5.20063 0
M  V30 9172 O 858.938 -0.0658423 -5.70362 0
M  V30 9173 O 857.872 -2.00467 -5.67536 0
M  V30 9174 H 861.698 -1.8991 -2.36998 0
M  V30 9175 H 859.283 -0.984608 -1.12365 0
M  V30 9176 H 861.165 -0.271797 -4.20523 0
M  V30 9177 H 859.84 0.395402 -3.21276 0
M  V30 9178 H 858.747 -1.92192 -3.20957 0
M  V30 9179 H 860.08 -2.51174 -4.23288 0
M  V30 9180 N 861.732 1.21287 -1.00634 0
M  V30 9181 C 862.981 1.89706 -0.685178 0
M  V30 9182 C 863.294 1.79044 0.787566 0
M  V30 9183 O 864.5 2.42502 1.22086 0
M  V30 9184 C 862.956 3.40176 -1.17508 0
M  V30 9185 C 862.564 3.59446 -2.674 0
M  V30 9186 C 864.308 4.14213 -0.928869 0
M  V30 9187 C 862.215 5.03688 -3.09923 0
M  V30 9188 H 861.145 0.710434 -0.252586 0
M  V30 9189 H 863.796 1.37277 -1.21768 0
M  V30 9190 H 862.178 3.91867 -0.570622 0
M  V30 9191 H 863.352 3.18188 -3.33306 0
M  V30 9192 H 861.667 2.98764 -2.9005 0
M  V30 9193 H 864.264 5.20546 -1.22212 0
M  V30 9194 H 864.607 4.16082 0.134859 0
M  V30 9195 H 865.14 3.68591 -1.49619 0
M  V30 9196 H 861.879 5.06968 -4.15529 0
M  V30 9197 H 861.399 5.45796 -2.4873 0
M  V30 9198 H 863.078 5.72204 -3.0198 0
M  V30 9199 N 863.21 0.781244 1.36873 0
M  V30 9200 C 864.14 0.188128 2.32741 0
M  V30 9201 C 865.121 -0.672326 1.56249 0
M  V30 9202 O 866.306 -0.607835 1.84442 0
M  V30 9203 C 863.436 -0.684341 3.40491 0
M  V30 9204 C 862.39 0.0755641 4.27933 0
M  V30 9205 C 861.716 -0.916968 5.26779 0
M  V30 9206 C 863.016 1.26006 5.06873 0
M  V30 9207 H 864.71 0.989016 2.82593 0
M  V30 9208 H 862.256 0.477038 1.35869 0
M  V30 9209 H 864.209 -1.10915 4.06541 0
M  V30 9210 H 862.933 -1.51785 2.89187 0
M  V30 9211 H 861.592 0.481258 3.63427 0
M  V30 9212 H 861.24 -1.74528 4.71751 0
M  V30 9213 H 860.94 -0.413 5.86147 0
M  V30 9214 H 862.464 -1.34052 5.95703 0
M  V30 9215 H 863.878 0.911425 5.66009 0
M  V30 9216 H 862.275 1.69676 5.75613 0
M  V30 9217 H 863.345 2.05948 4.38991 0
M  V30 9218 N 864.689 -1.48329 0.532571 0
M  V30 9219 C 865.966 -1.95492 -0.0650985 0
M  V30 9220 C 866.346 -1.47485 -1.51034 0
M  V30 9221 O 865.694 -0.702516 -2.17433 0
M  V30 9222 C 865.904 -3.48957 0.0548341 0
M  V30 9223 C 867.252 -4.24475 -0.103115 0
M  V30 9224 O 868.276 -3.56195 -0.0188343 0
M  V30 9225 O 867.135 -5.45781 -0.280164 0
M  V30 9226 H 864.229 -0.823327 -0.0778603 0
M  V30 9227 H 866.775 -1.58839 0.597353 0
M  V30 9228 H 865.547 -3.76628 1.06148 0
M  V30 9229 H 865.17 -3.92311 -0.64635 0
M  V30 9230 N 866.167 -0.267825 -1.55308 0
M  V30 9231 C 867.416 0.351635 -1.98611 0
M  V30 9232 C 867.729 1.57522 -1.15957 0
M  V30 9233 O 868.935 2.26717 -1.49371 0
M  V30 9234 C 867.391 0.676986 -3.53475 0
M  V30 9235 C 866.999 -0.526385 -4.44897 0
M  V30 9236 C 868.743 1.25948 -4.05386 0
M  V30 9237 C 866.65 -0.176026 -5.91138 0
M  V30 9238 H 865.58 0.13516 -0.741787 0
M  V30 9239 H 868.231 -0.371333 -1.79704 0
M  V30 9240 H 866.613 1.45866 -3.68156 0
M  V30 9241 H 867.787 -1.30339 -4.41982 0
M  V30 9242 H 866.102 -1.02522 -4.03582 0
M  V30 9243 H 868.699 1.53529 -5.12184 0
M  V30 9244 H 869.042 2.19094 -3.53982 0
M  V30 9245 H 869.575 0.540253 -3.94114 0
M  V30 9246 H 866.314 -1.07518 -6.46622 0
M  V30 9247 H 865.834 0.564363 -5.97139 0
M  V30 9248 H 867.513 0.234365 -6.46575 0
M  V30 9249 N 867.645 1.57599 0.00500368 0
M  V30 9250 C 868.873 1.94626 0.702016 0
M  V30 9251 C 869.288 0.86953 1.67585 0
M  V30 9252 O 868.645 -0.15199 1.81866 0
M  V30 9253 C 868.696 3.31658 1.43824 0
M  V30 9254 O 868.417 4.35197 0.503467 0
M  V30 9255 C 869.918 3.83114 2.23021 0
M  V30 9256 H 867.138 0.641785 0.195841 0
M  V30 9257 H 869.682 2.04451 -0.0446287 0
M  V30 9258 H 867.837 3.23156 2.13655 0
M  V30 9259 H 868.251 5.1444 1.02235 0
M  V30 9260 H 869.725 4.81438 2.7004 0
M  V30 9261 H 870.202 3.15559 3.05482 0
M  V30 9262 H 870.808 3.94775 1.58216 0
M  V30 9263 N 869.123 -0.277682 1.55134 0
M  V30 9264 C 870.534 -0.849063 1.66276 0
M  V30 9265 C 870.885 -1.87223 0.5867 0
M  V30 9266 O 870.01 -2.14676 -0.272635 0
M  V30 9267 C 870.605 -1.54681 3.01429 0
M  V30 9268 C 869.164 -2.06628 3.14614 0
M  V30 9269 C 868.311 -0.906748 2.62056 0
M  V30 9270 H 871.262 -0.0541357 1.58608 0
M  V30 9271 H 871.283 -2.41356 2.94156 0
M  V30 9272 H 870.795 -0.80189 3.79725 0
M  V30 9273 H 868.896 -2.84095 2.41082 0
M  V30 9274 H 869.009 -2.2848 4.2111 0
M  V30 9275 H 867.373 -1.29882 2.19095 0
M  V30 9276 H 868.156 -0.175414 3.42852 0
M  V30 9277 N 870.601 -1.47988 -0.541979 0
M  V30 9278 C 871.841 -1.56982 -1.30905 0
M  V30 9279 C 872.205 -0.233153 -1.90579 0
M  V30 9280 O 873.406 -0.198018 -2.6807 0
M  V30 9281 C 871.677 -2.66787 -2.37823 0
M  V30 9282 S 873.236 -2.95467 -3.24414 0
M  V30 9283 H 870.054 -0.554165 -0.445446 0
M  V30 9284 H 872.656 -1.85448 -0.618803 0
M  V30 9285 H 871.36 -3.62483 -1.92443 0
M  V30 9286 H 870.891 -2.40184 -3.11569 0
M  V30 9287 H 872.906 -2.33846 -4.37642 0
M  V30 9288 N 872.079 0.78992 -1.36375 0
M  V30 9289 C 873.304 1.58389 -1.33895 0
M  V30 9290 C 873.729 1.8794 0.0774934 0
M  V30 9291 O 873.087 1.4785 1.0493 0
M  V30 9292 C 873.135 2.88201 -2.16732 0
M  V30 9293 O 872.239 3.81778 -1.55946 0
M  V30 9294 H 871.58 0.480471 -0.458305 0
M  V30 9295 H 874.11 0.979119 -1.79651 0
M  V30 9296 H 874.12 3.37475 -2.29292 0
M  V30 9297 H 872.795 2.66019 -3.19698 0
M  V30 9298 H 871.372 3.40371 -1.52323 0
M  V30 9299 N 873.557 1.20646 1.01402 0
M  V30 9300 C 874.804 1.01819 1.7504 0
M  V30 9301 C 875.132 -0.449386 1.89237 0
M  V30 9302 O 874.387 -1.34985 1.41695 0
M  V30 9303 C 874.686 1.64991 3.17037 0
M  V30 9304 C 874.352 3.14808 3.22811 0
M  V30 9305 C 873.014 3.55692 3.24094 0
M  V30 9306 C 875.366 4.108 3.2077 0
M  V30 9307 C 872.694 4.9109 3.2101 0
M  V30 9308 C 875.046 5.46147 3.19227 0
M  V30 9309 C 873.71 5.86441 3.18815 0
M  V30 9310 H 872.98 0.372582 0.640518 0
M  V30 9311 H 875.627 1.50108 1.18911 0
M  V30 9312 H 873.932 1.08971 3.76341 0
M  V30 9313 H 875.629 1.47937 3.72714 0
M  V30 9314 H 872.219 2.8224 3.2255 0
M  V30 9315 H 876.403 3.80246 3.18946 0
M  V30 9316 H 871.659 5.21569 3.19023 0
M  V30 9317 H 875.833 6.20272 3.166 0
M  V30 9318 H 873.46 6.91328 3.16179 0
M  V30 9319 N 875.035 -1.20752 1.01276 0
M  V30 9320 C 876.283 -1.89645 0.698505 0
M  V30 9321 C 876.604 -1.78986 -0.773883 0
M  V30 9322 O 875.874 -1.18977 -1.55632 0
M  V30 9323 H 874.454 -0.701992 0.255375 0
M  V30 9324 H 877.116 -1.46668 1.28353 0
M  V30 9325 H 876.212 -2.96364 0.978512 0
M  V30 9326 N 876.513 -0.788492 -1.36457 0
M  V30 9327 C 877.761 -0.359749 -1.98872 0
M  V30 9328 C 878.082 1.07197 -1.62892 0
M  V30 9329 O 877.352 1.73875 -0.902463 0
M  V30 9330 H 875.932 -0.130029 -0.735596 0
M  V30 9331 H 878.594 -1.01033 -1.66668 0
M  V30 9332 H 877.69 -0.450835 -3.08827 0
M  V30 9333 N 877.991 1.48044 -0.54043 0
M  V30 9334 C 879.237 2.02797 -0.0101718 0
M  V30 9335 C 879.57 1.41565 1.32939 0
M  V30 9336 O 878.845 0.565139 1.86109 0
M  V30 9337 C 879.128 3.59959 0.100758 0
M  V30 9338 C 878.981 4.31654 -1.26471 0
M  V30 9339 C 880.3 4.32347 0.822455 0
M  V30 9340 H 877.419 0.736982 -0.00517052 0
M  V30 9341 H 880.061 1.76656 -0.69948 0
M  V30 9342 H 878.211 3.82363 0.687824 0
M  V30 9343 H 879.883 4.20639 -1.89369 0
M  V30 9344 H 878.126 3.92663 -1.84386 0
M  V30 9345 H 878.797 5.401 -1.13998 0
M  V30 9346 H 881.273 4.14835 0.324164 0
M  V30 9347 H 880.149 5.41978 0.868993 0
M  V30 9348 H 880.41 4.00369 1.87501 0
M  V30 9349 N 879.47 0.276058 1.55163 0
M  V30 9350 C 880.695 -0.346648 2.04483 0
M  V30 9351 C 881.12 -1.48613 1.15308 0
M  V30 9352 O 880.478 -1.80663 0.151875 0
M  V30 9353 C 880.526 -0.804268 3.51517 0
M  V30 9354 O 879.63 -1.91143 3.65429 0
M  V30 9355 H 878.971 -0.0715251 0.660136 0
M  V30 9356 H 881.501 0.410631 2.00437 0
M  V30 9357 H 881.511 -1.09977 3.92898 0
M  V30 9358 H 880.186 0.0294123 4.1589 0
M  V30 9359 H 878.763 -1.61839 3.3595 0
M  V30 9360 N 880.948 -1.576 0.00335426 0
M  V30 9361 C 882.194 -1.90996 -0.681799 0
M  V30 9362 C 882.527 -0.877643 -1.73237 0
M  V30 9363 O 881.802 0.103183 -1.94226 0
M  V30 9364 C 882.085 -3.34961 -1.32187 0
M  V30 9365 C 881.938 -4.48911 -0.28261 0
M  V30 9366 C 883.257 -3.78408 -2.24711 0
M  V30 9367 H 880.376 -0.694596 -0.246386 0
M  V30 9368 H 883.018 -1.89919 0.055336 0
M  V30 9369 H 881.168 -3.36008 -1.95014 0
M  V30 9370 H 882.84 -4.59999 0.346241 0
M  V30 9371 H 881.083 -4.32 0.394768 0
M  V30 9372 H 881.754 -5.46609 -0.769576 0
M  V30 9373 H 884.23 -3.78934 -1.71897 0
M  V30 9374 H 883.106 -4.79885 -2.66461 0
M  V30 9375 H 883.367 -3.12464 -3.1276 0
M  V30 9376 N 882.426 0.269451 -1.5528 0
M  V30 9377 C 883.675 0.998381 -1.75258 0
M  V30 9378 C 883.988 1.87321 -0.563034 0
M  V30 9379 O 885.194 2.63719 -0.645313 0
M  V30 9380 C 883.65 1.82505 -3.10193 0
M  V30 9381 C 883.258 0.99871 -4.36726 0
M  V30 9382 C 885.002 2.54807 -3.3952 0
M  V30 9383 C 882.909 1.81997 -5.627 0
M  V30 9384 H 881.839 0.376488 -0.653278 0
M  V30 9385 H 884.49 0.253909 -1.81735 0
M  V30 9386 H 882.872 2.61061 -2.97763 0
M  V30 9387 H 884.046 0.257064 -4.60082 0
M  V30 9388 H 882.361 0.390074 -4.14569 0
M  V30 9389 H 884.958 3.16662 -4.30847 0
M  V30 9390 H 885.301 3.25273 -2.59813 0
M  V30 9391 H 885.834 1.83278 -3.53064 0
M  V30 9392 H 882.573 1.15945 -6.45164 0
M  V30 9393 H 882.093 2.53749 -5.43481 0
M  V30 9394 H 883.772 2.39274 -6.0113 0
M  V30 9395 N 883.904 1.48273 0.534124 0
M  V30 9396 C 885.132 1.59734 1.31501 0
M  V30 9397 C 885.547 0.256047 1.87056 0
M  V30 9398 O 884.904 -0.754086 1.66192 0
M  V30 9399 C 884.955 2.64072 2.46877 0
M  V30 9400 O 884.676 3.92995 1.93613 0
M  V30 9401 C 886.177 2.85933 3.38758 0
M  V30 9402 H 883.397 0.538703 0.40005 0
M  V30 9403 H 885.941 1.9407 0.644762 0
M  V30 9404 H 884.096 2.32606 3.09795 0
M  V30 9405 H 884.51 4.50203 2.69106 0
M  V30 9406 H 885.984 3.62749 4.16073 0
M  V30 9407 H 886.461 1.94603 3.93734 0
M  V30 9408 H 887.067 3.18687 2.81636 0
M  V30 9409 N 885.382 -0.782676 1.36792 0
M  V30 9410 C 886.793 -1.35828 1.28092 0
M  V30 9411 C 887.144 -1.96052 -0.076315 0
M  V30 9412 O 886.269 -1.93042 -0.977935 0
M  V30 9413 C 886.864 -2.46949 2.31952 0
M  V30 9414 C 885.423 -3.00307 2.2692 0
M  V30 9415 C 884.57 -1.73436 2.16368 0
M  V30 9416 H 887.521 -0.583788 1.47572 0
M  V30 9417 H 887.542 -3.26144 1.95986 0
M  V30 9418 H 887.054 -2.03087 3.30722 0
M  V30 9419 H 885.155 -3.48571 1.31639 0
M  V30 9420 H 885.268 -3.56663 3.19887 0
M  V30 9421 H 883.632 -1.95934 1.62733 0
M  V30 9422 H 884.415 -1.31693 3.17036 0
M  V30 9423 N 886.86 -1.21182 -1.00761 0
M  V30 9424 C 888.108 -1.02543 -1.74153 0
M  V30 9425 C 888.429 0.442372 -1.89916 0
M  V30 9426 O 887.699 1.31927 -1.44818 0
M  V30 9427 H 886.279 -0.37644 -0.645214 0
M  V30 9428 H 888.941 -1.52446 -1.21434 0
M  V30 9429 H 888.037 -1.49122 -2.7417 0
M  V30 9430 N 888.338 1.20213 -1.01915 0
M  V30 9431 C 889.566 1.93622 -0.729255 0
M  V30 9432 C 889.981 1.74923 0.710444 0
M  V30 9433 O 889.338 1.06484 1.48214 0
M  V30 9434 C 889.389 3.45651 -1.05865 0
M  V30 9435 O 889.11 3.63741 -2.44181 0
M  V30 9436 C 890.611 4.36201 -0.790176 0
M  V30 9437 H 887.831 0.615333 -0.267594 0
M  V30 9438 H 890.375 1.52633 -1.36101 0
M  V30 9439 H 888.53 3.84511 -0.47225 0
M  V30 9440 H 888.944 4.57702 -2.56143 0
M  V30 9441 H 890.418 5.41516 -1.07071 0
M  V30 9442 H 890.895 4.38334 0.275609 0
M  V30 9443 H 891.501 4.03008 -1.35885 0
M  V30 9444 N 889.816 0.795718 1.36037 0
M  V30 9445 C 890.764 0.18649 2.31851 0
M  V30 9446 C 891.758 -0.657704 1.56111 0
M  V30 9447 O 892.964 -0.552083 1.71324 0
M  V30 9448 H 889.339 0.0415363 0.750852 0
M  V30 9449 H 891.31 1.00992 2.8079 0
M  V30 9450 C 890.059 -0.65918 3.41394 0
M  V30 9451 H 889.382 -0.01894 3.99796 0
M  V30 9452 H 890.822 -1.05202 4.10741 0
M  V30 9453 C 889.281 -1.82011 2.83502 0
M  V30 9454 O 889.811 -2.91703 2.76174 0
M  V30 9455 N 888.017 -1.62821 2.40703 0
M  V30 9456 H 887.564 -0.735965 2.46863 0
M  V30 9457 H 887.522 -2.40657 2.02316 0
M  V30 9458 N 891.294 -1.47756 0.548274 0
M  V30 9459 C 892.522 -2.06884 0.0254873 0
M  V30 9460 C 892.937 -1.40225 -1.26422 0
M  V30 9461 O 892.294 -0.495776 -1.75637 0
M  V30 9462 C 892.345 -3.61036 -0.183134 0
M  V30 9463 O 892.066 -4.25195 1.05549 0
M  V30 9464 C 893.567 -4.37008 -0.744222 0
M  V30 9465 H 890.787 -0.669697 0.041789 0
M  V30 9466 H 893.331 -1.89888 0.759138 0
M  V30 9467 H 891.486 -3.77576 -0.866886 0
M  V30 9468 H 891.9 -5.17606 0.847629 0
M  V30 9469 H 893.374 -5.45579 -0.839529 0
M  V30 9470 H 893.851 -4.0268 -1.75344 0
M  V30 9471 H 894.457 -4.25191 -0.0964542 0
M  V30 9472 N 892.772 -0.284283 -1.55015 0
M  V30 9473 C 893.997 0.335799 -2.04664 0
M  V30 9474 C 894.422 1.47999 -1.16094 0
M  V30 9475 O 893.78 1.8058 -0.161454 0
M  V30 9476 C 893.828 0.785615 -3.51938 0
M  V30 9477 O 892.932 1.89202 -3.66437 0
M  V30 9478 H 892.273 0.0680233 -0.660506 0
M  V30 9479 H 894.803 -0.421255 -2.00216 0
M  V30 9480 H 894.813 1.07892 -3.93476 0
M  V30 9481 H 893.488 -0.0514675 -4.15868 0
M  V30 9482 H 892.065 1.60055 -3.36804 0
M  V30 9483 N 894.251 1.57596 -0.0117121 0
M  V30 9484 C 895.199 2.1029 0.994035 0
M  V30 9485 C 896.193 1.02549 1.34833 0
M  V30 9486 O 897.399 1.21003 1.3326 0
M  V30 9487 H 893.774 0.671624 0.338268 0
M  V30 9488 H 895.745 2.93761 0.524147 0
M  V30 9489 C 894.494 2.63099 2.27319 0
M  V30 9490 H 893.817 3.45642 2.00927 0
M  V30 9491 H 895.257 3.03635 2.95942 0
M  V30 9492 C 893.716 1.55044 2.99104 0
M  V30 9493 O 894.246 0.940127 3.90544 0
M  V30 9494 N 892.452 1.27506 2.61133 0
M  V30 9495 H 891.999 1.77322 1.86855 0
M  V30 9496 H 891.957 0.554292 3.09475 0
M  V30 9497 N 895.729 -0.261212 1.5542 0
M  V30 9498 C 896.661 -1.34571 1.85535 0
M  V30 9499 C 897.674 -1.44979 0.740612 0
M  V30 9500 O 898.863 -1.46584 1.01859 0
M  V30 9501 C 895.963 -2.7258 2.01378 0
M  V30 9502 C 895.136 -2.84618 3.32131 0
M  V30 9503 C 894.195 -4.03379 3.37893 0
M  V30 9504 O 893.221 -3.93581 4.11197 0
M  V30 9505 N 894.423 -5.15893 2.66148 0
M  V30 9506 H 897.188 -1.09078 2.79145 0
M  V30 9507 H 894.749 -0.451327 1.55482 0
M  V30 9508 H 896.741 -3.50342 2.0259 0
M  V30 9509 H 895.311 -2.90844 1.14579 0
M  V30 9510 H 894.531 -1.93647 3.43358 0
M  V30 9511 H 895.819 -2.896 4.18341 0
M  V30 9512 H 895.217 -5.26743 2.06297 0
M  V30 9513 H 893.774 -5.91842 2.73069 0
M  V30 9514 N 897.207 -1.48554 -0.526253 0
M  V30 9515 C 898.453 -1.56994 -1.28378 0
M  V30 9516 C 898.786 -0.244701 -1.92652 0
M  V30 9517 O 898.061 0.749636 -1.79473 0
M  V30 9518 C 898.344 -2.71092 -2.37026 0
M  V30 9519 C 898.197 -4.13331 -1.77418 0
M  V30 9520 C 899.516 -2.80934 -3.38769 0
M  V30 9521 H 896.635 -0.571466 -0.465398 0
M  V30 9522 H 899.277 -1.80742 -0.585861 0
M  V30 9523 H 897.427 -2.50973 -2.96555 0
M  V30 9524 H 899.099 -4.44899 -1.21912 0
M  V30 9525 H 897.342 -4.20158 -1.07936 0
M  V30 9526 H 898.013 -4.88994 -2.56104 0
M  V30 9527 H 900.489 -2.9917 -2.892 0
M  V30 9528 H 899.365 -3.62489 -4.12181 0
M  V30 9529 H 899.626 -1.89244 -3.99549 0
M  V30 9530 N 898.685 0.775411 -1.37205 0
M  V30 9531 C 899.648 1.8702 -1.325 0
M  V30 9532 C 900.648 1.5915 -0.229793 0
M  V30 9533 O 901.838 1.673 -0.485423 0
M  V30 9534 C 898.97 3.24085 -1.05745 0
M  V30 9535 H 900.163 1.92604 -2.29878 0
M  V30 9536 H 897.716 0.97476 -1.22181 0
M  V30 9537 H 898.451 3.24178 -0.0888371 0
M  V30 9538 H 898.236 3.45705 -1.85016 0
M  V30 9539 H 899.726 4.0416 -1.05094 0
M  V30 9540 N 900.163 1.21714 1.00117 0
M  V30 9541 C 901.409 1.03823 1.74208 0
M  V30 9542 C 901.742 -0.426733 1.89454 0
M  V30 9543 O 901.017 -1.31658 1.43166 0
M  V30 9544 C 901.3 1.74047 3.15246 0
M  V30 9545 C 901.153 3.28087 3.077 0
M  V30 9546 C 902.472 1.48614 4.14249 0
M  V30 9547 H 899.591 0.378573 0.632338 0
M  V30 9548 H 902.233 1.49942 1.16694 0
M  V30 9549 H 900.383 1.3484 3.64349 0
M  V30 9550 H 902.055 3.76686 2.6628 0
M  V30 9551 H 900.298 3.58191 2.44707 0
M  V30 9552 H 900.969 3.72392 4.07466 0
M  V30 9553 H 903.445 1.82656 3.73866 0
M  V30 9554 H 902.321 2.00257 5.11066 0
M  V30 9555 H 902.582 0.416957 4.40129 0
M  V30 9556 N 901.641 -1.19671 1.02551 0
M  V30 9557 C 902.571 -2.25009 0.623965 0
M  V30 9558 C 903.552 -1.66129 -0.36538 0
M  V30 9559 O 904.737 -1.92599 -0.248842 0
M  V30 9560 C 901.867 -3.47287 -0.0294869 0
M  V30 9561 C 900.821 -4.18818 0.881781 0
M  V30 9562 C 900.147 -5.34618 0.0936189 0
M  V30 9563 C 901.447 -4.73986 2.19396 0
M  V30 9564 H 903.141 -2.58851 1.50454 0
M  V30 9565 H 900.687 -1.24425 0.724872 0
M  V30 9566 H 902.64 -4.20168 -0.322016 0
M  V30 9567 H 901.364 -3.12635 -0.944838 0
M  V30 9568 H 900.023 -3.47815 1.15845 0
M  V30 9569 H 899.671 -4.9621 -0.823661 0
M  V30 9570 H 899.371 -5.83409 0.700568 0
M  V30 9571 H 900.895 -6.10297 -0.192249 0
M  V30 9572 H 902.309 -5.38639 1.96319 0
M  V30 9573 H 900.706 -5.3325 2.75254 0
M  V30 9574 H 901.776 -3.92238 2.85092 0
M  V30 9575 N 903.119 -0.802921 -1.35613 0
M  V30 9576 C 904.349 -0.393359 -2.02821 0
M  V30 9577 C 904.757 0.999282 -1.60658 0
M  V30 9578 O 904.1 1.65463 -0.797977 0
M  V30 9579 C 904.162 -0.393102 -3.57344 0
M  V30 9580 C 903.826 -1.73563 -4.22759 0
M  V30 9581 C 904.823 -2.69333 -4.44698 0
M  V30 9582 C 902.508 -2.01863 -4.59953 0
M  V30 9583 C 904.502 -3.91589 -5.02928 0
M  V30 9584 C 902.189 -3.24383 -5.17898 0
M  V30 9585 C 903.187 -4.19064 -5.39328 0
M  V30 9586 O 902.875 -5.39422 -5.96053 0
M  V30 9587 H 902.607 -0.158431 -0.657172 0
M  V30 9588 H 905.161 -1.08682 -1.74291 0
M  V30 9589 H 903.391 0.356934 -3.85049 0
M  V30 9590 H 905.08 -0.00635596 -4.059 0
M  V30 9591 H 905.846 -2.48759 -4.16346 0
M  V30 9592 H 901.725 -1.28979 -4.42589 0
M  V30 9593 H 905.269 -4.65502 -5.1957 0
M  V30 9594 H 901.166 -3.44829 -5.45677 0
M  V30 9595 H 901.934 -5.40669 -6.14507 0
M  V30 9596 N 904.597 1.47463 -0.556102 0
M  V30 9597 C 905.529 2.28046 0.22968 0
M  V30 9598 C 906.542 1.3694 0.880409 0
M  V30 9599 O 907.731 1.61773 0.754447 0
M  V30 9600 C 904.831 3.11165 1.34273 0
M  V30 9601 C 904.004 4.30225 0.789004 0
M  V30 9602 C 903.063 4.94948 1.78641 0
M  V30 9603 O 902.089 5.53372 1.33297 0
M  V30 9604 N 903.291 4.89543 3.11974 0
M  V30 9605 H 906.056 2.96125 -0.461558 0
M  V30 9606 H 903.617 1.5708 -0.392105 0
M  V30 9607 H 905.609 3.51331 2.00869 0
M  V30 9608 H 904.179 2.45337 1.93722 0
M  V30 9609 H 903.399 3.94163 -0.0536971 0
M  V30 9610 H 904.687 5.07238 0.398378 0
M  V30 9611 H 904.085 4.43275 3.51459 0
M  V30 9612 H 902.642 5.33732 3.74131 0
M  V30 9613 N 906.075 0.2925 1.54862 0
M  V30 9614 C 907.352 -0.371946 1.92031 0
M  V30 9615 C 907.732 -1.72363 1.21878 0
M  V30 9616 O 907.08 -2.25779 0.351573 0
M  V30 9617 C 907.29 -0.495027 3.45471 0
M  V30 9618 C 908.638 -0.769855 4.17562 0
M  V30 9619 O 909.662 -0.579168 3.5146 0
M  V30 9620 O 908.521 -1.13561 5.34571 0
M  V30 9621 H 905.615 -0.206463 0.800813 0
M  V30 9622 H 908.161 0.339933 1.6626 0
M  V30 9623 H 906.933 0.455528 3.88639 0
M  V30 9624 H 906.556 -1.2557 3.7725 0
M  V30 9625 N 907.553 -1.57587 0.0200696 0
M  V30 9626 C 908.799 -1.91708 -0.661503 0
M  V30 9627 C 909.132 -0.895968 -1.72296 0
M  V30 9628 O 908.407 0.082577 -1.94325 0
M  V30 9629 C 908.69 -3.36344 -1.28627 0
M  V30 9630 C 908.543 -4.49186 -0.234982 0
M  V30 9631 C 909.862 -3.80771 -2.20685 0
M  V30 9632 H 906.981 -0.69717 -0.239005 0
M  V30 9633 H 909.623 -1.8985 0.0754764 0
M  V30 9634 H 907.773 -3.38058 -1.91439 0
M  V30 9635 H 909.445 -4.59606 0.395011 0
M  V30 9636 H 907.688 -4.31557 0.440565 0
M  V30 9637 H 908.359 -5.47395 -0.711558 0
M  V30 9638 H 910.835 -3.80735 -1.67868 0
M  V30 9639 H 909.711 -4.82685 -2.61356 0
M  V30 9640 H 909.972 -3.15764 -3.09428 0
M  V30 9641 N 909.032 0.252966 -1.55557 0
M  V30 9642 C 909.98 1.33289 -1.90622 0
M  V30 9643 C 910.974 1.50133 -0.784638 0
M  V30 9644 O 912.18 1.51679 -0.969196 0
M  V30 9645 H 908.555 0.446196 -0.605321 0
M  V30 9646 H 910.526 1.00977 -2.80796 0
M  V30 9647 C 909.275 2.68254 -2.21213 0
M  V30 9648 H 908.598 2.5609 -3.07014 0
M  V30 9649 H 910.038 3.42707 -2.49656 0
M  V30 9650 C 908.497 3.20884 -1.02642 0
M  V30 9651 O 909.027 4.00783 -0.271292 0
M  V30 9652 N 907.233 2.7883 -0.818682 0
M  V30 9653 H 906.78 2.13966 -1.43444 0
M  V30 9654 H 906.738 3.14388 -0.0269989 0
M  V30 9655 N 910.51 1.48831 0.518367 0
M  V30 9656 C 911.75 1.59045 1.28391 0
M  V30 9657 C 912.114 0.263443 1.90184 0
M  V30 9658 O 913.315 0.24064 2.67721 0
M  V30 9659 C 911.586 2.70536 2.33548 0
M  V30 9660 S 913.145 3.00591 3.19673 0
M  V30 9661 H 909.963 0.561182 0.436573 0
M  V30 9662 H 912.565 1.86409 0.589222 0
M  V30 9663 H 911.269 3.65499 1.86652 0
M  V30 9664 H 910.8 2.4511 3.07708 0
M  V30 9665 H 912.815 2.40779 4.33866 0
M  V30 9666 N 911.988 -0.768124 1.37614 0
M  V30 9667 C 913.216 -1.55726 1.36224 0
M  V30 9668 C 913.631 -1.8873 -0.0515357 0
M  V30 9669 O 912.988 -1.51718 -1.0143 0
M  V30 9670 C 913.039 -2.86533 2.20412 0
M  V30 9671 O 912.76 -2.54942 3.56281 0
M  V30 9672 C 914.261 -3.80745 2.27041 0
M  V30 9673 H 911.481 -0.482325 0.46648 0
M  V30 9674 H 914.025 -0.95176 1.81002 0
M  V30 9675 H 912.18 -3.43496 1.79134 0
M  V30 9676 H 912.594 -3.38732 4.00451 0
M  V30 9677 H 914.068 -4.69523 2.90263 0
M  V30 9678 H 914.545 -4.20138 1.27987 0
M  V30 9679 H 915.151 -3.2971 2.68647 0
M  V30 9680 N 913.466 -1.22244 -0.994698 0
M  V30 9681 C 914.376 -1.00722 -2.11878 0
M  V30 9682 C 915.392 0.043919 -1.73945 0
M  V30 9683 O 916.568 -0.148411 -2.00852 0
M  V30 9684 C 913.633 -0.585723 -3.41717 0
M  V30 9685 C 912.694 -1.71027 -3.93762 0
M  V30 9686 C 911.927 -1.30879 -5.17403 0
M  V30 9687 O 912.15 -0.18681 -5.70094 0
M  V30 9688 O 911.084 -2.1246 -5.63156 0
M  V30 9689 H 914.91 -1.94894 -2.32916 0
M  V30 9690 H 912.495 -1.00822 -1.10251 0
M  V30 9691 H 914.377 -0.360935 -4.19851 0
M  V30 9692 H 913.052 0.327166 -3.22042 0
M  V30 9693 H 911.959 -1.98956 -3.16808 0
M  V30 9694 H 913.292 -2.60096 -4.17865 0
M  V30 9695 N 914.944 1.19125 -1.03184 0
M  V30 9696 C 916.19 1.89163 -0.731111 0
M  V30 9697 C 916.523 1.79604 0.738662 0
M  V30 9698 O 915.798 1.19037 1.53819 0
M  V30 9699 C 916.081 3.39986 -1.18666 0
M  V30 9700 C 915.934 3.58401 -2.71788 0
M  V30 9701 C 917.253 4.33316 -0.769772 0
M  V30 9702 H 914.372 0.686908 -0.267069 0
M  V30 9703 H 917.014 1.40205 -1.28229 0
M  V30 9704 H 915.164 3.81813 -0.717736 0
M  V30 9705 H 916.836 3.25727 -3.26649 0
M  V30 9706 H 915.079 3.01355 -3.12038 0
M  V30 9707 H 915.75 4.64189 -2.98719 0
M  V30 9708 H 918.226 3.9922 -1.17314 0
M  V30 9709 H 917.102 5.37427 -1.11637 0
M  V30 9710 H 917.363 4.40884 0.327681 0
M  V30 9711 N 916.422 0.810101 1.35185 0
M  V30 9712 C 917.833 0.452616 1.81131 0
M  V30 9713 C 918.184 -1.02573 1.67252 0
M  V30 9714 O 917.309 -1.79735 1.20516 0
M  V30 9715 C 917.904 0.814775 3.28857 0
M  V30 9716 C 916.463 0.509839 3.72931 0
M  V30 9717 C 915.61 1.03852 2.57119 0
M  V30 9718 H 918.561 1.00143 1.23114 0
M  V30 9719 H 918.582 0.113635 3.8033 0
M  V30 9720 H 918.094 1.89078 3.38926 0
M  V30 9721 H 916.195 -0.557289 3.68409 0
M  V30 9722 H 916.308 1.04493 4.67566 0
M  V30 9723 H 914.672 0.460671 2.50499 0
M  V30 9724 H 915.455 2.12071 2.69964 0
M  V30 9725 N 917.9 -1.47166 0.563914 0
M  V30 9726 C 919.146 -2.02756 0.0424338 0
M  V30 9727 C 919.479 -1.43662 -1.3067 0
M  V30 9728 O 918.754 -0.594676 -1.85186 0
M  V30 9729 C 919.037 -3.60074 -0.0434793 0
M  V30 9730 C 918.89 -4.29587 1.33323 0
M  V30 9731 C 920.209 -4.336 -0.753568 0
M  V30 9732 H 917.328 -0.736806 0.0168946 0
M  V30 9733 H 919.97 -1.75521 0.727496 0
M  V30 9734 H 918.12 -3.83409 -0.626906 0
M  V30 9735 H 919.792 -4.17573 1.96037 0
M  V30 9736 H 918.035 -3.8968 1.9061 0
M  V30 9737 H 918.706 -5.38218 1.22576 0
M  V30 9738 H 921.182 -4.15299 -0.258126 0
M  V30 9739 H 920.058 -5.43291 -0.782659 0
M  V30 9740 H 920.319 -4.03302 -1.81108 0
M  V30 9741 N 919.378 -0.300708 -1.54705 0
M  V30 9742 C 920.341 0.562648 -2.22187 0
M  V30 9743 C 921.341 1.06152 -1.20782 0
M  V30 9744 O 922.531 0.957596 -1.45519 0
M  V30 9745 C 919.663 1.77899 -2.908 0
M  V30 9746 H 920.856 -0.0269361 -2.99888 0
M  V30 9747 H 918.409 -0.0515412 -1.56215 0
M  V30 9748 H 919.144 2.40841 -2.17177 0
M  V30 9749 H 918.929 1.42892 -3.65136 0
M  V30 9750 H 920.419 2.39236 -3.42281 0
M  V30 9751 N 920.856 1.57574 -0.0284266 0
M  V30 9752 C 922.105 1.9095 0.649704 0
M  V30 9753 C 922.418 0.906421 1.7333 0
M  V30 9754 O 923.624 1.1314 2.46803 0
M  V30 9755 C 922.08 3.39061 1.20687 0
M  V30 9756 C 921.688 4.47726 0.156597 0
M  V30 9757 C 923.432 3.81505 1.86156 0
M  V30 9758 C 921.339 5.86935 0.725365 0
M  V30 9759 H 920.269 0.712589 0.24644 0
M  V30 9760 H 922.92 1.83261 -0.0936143 0
M  V30 9761 H 921.302 3.41679 2.00178 0
M  V30 9762 H 922.476 4.56667 -0.6158 0
M  V30 9763 H 920.791 4.14481 -0.399288 0
M  V30 9764 H 923.388 4.82865 2.29665 0
M  V30 9765 H 923.731 3.16529 2.70398 0
M  V30 9766 H 924.264 3.81307 1.13356 0
M  V30 9767 H 921.003 6.55453 -0.0789081 0
M  V30 9768 H 920.523 5.81602 1.46627 0
M  V30 9769 H 922.202 6.35483 1.21532 0
M  V30 9770 N 922.334 -0.244713 1.55689 0
M  V30 9771 C 923.284 -1.30596 1.86892 0
M  V30 9772 C 924.268 -1.43388 0.729972 0
M  V30 9773 O 925.46 -1.46593 0.99194 0
M  V30 9774 C 922.589 -2.66099 2.16902 0
M  V30 9775 C 921.675 -2.57302 3.37129 0
M  V30 9776 N 922.066 -2.18139 4.56343 0
M  V30 9777 C 920.364 -2.88311 3.40283 0
M  V30 9778 C 921.065 -2.20028 5.38482 0
M  V30 9779 N 920.041 -2.59616 4.77599 0
M  V30 9780 H 923.843 -0.993699 2.76591 0
M  V30 9781 H 921.357 -0.453334 1.55944 0
M  V30 9782 H 923.354 -3.4269 2.37422 0
M  V30 9783 H 922.014 -2.9819 1.28502 0
M  V30 9784 H 923.025 -1.89647 4.81928 0
M  V30 9785 H 919.702 -3.24928 2.62161 0
M  V30 9786 H 921.092 -1.9207 6.43862 0
M  V30 9787 N 923.813 -1.49104 -0.510467 0
M  V30 9788 C 924.776 -1.64569 -1.59529 0
M  V30 9789 C 925.776 -0.517937 -1.5223 0
M  V30 9790 O 926.966 -0.784183 -1.55551 0
M  V30 9791 C 924.098 -1.6342 -2.99177 0
M  V30 9792 H 925.291 -2.61318 -1.4715 0
M  V30 9793 H 922.844 -1.37993 -0.734001 0
M  V30 9794 H 923.579 -0.68221 -3.17043 0
M  V30 9795 H 923.364 -2.45312 -3.05883 0
M  V30 9796 H 924.854 -1.77474 -3.78011 0
M  V30 9797 N 925.291 0.760815 -1.38019 0
M  V30 9798 C 926.568 1.5098 -1.24356 0
M  V30 9799 C 926.948 2.10507 0.158169 0
M  V30 9800 O 926.296 1.96455 1.16695 0
M  V30 9801 C 926.506 2.58195 -2.34811 0
M  V30 9802 C 927.854 3.25297 -2.72886 0
M  V30 9803 O 928.878 2.68496 -2.34069 0
M  V30 9804 O 927.737 4.28018 -3.39799 0
M  V30 9805 H 924.831 0.66921 -0.485888 0
M  V30 9806 H 927.377 0.796844 -1.49828 0
M  V30 9807 H 926.149 2.12406 -3.28633 0
M  V30 9808 H 925.772 3.37079 -2.10864 0
M  V30 9809 N 926.769 1.22769 0.988202 0
M  V30 9810 C 927.701 0.959757 2.08138 0
M  V30 9811 C 928.714 -0.0633787 1.62677 0
M  V30 9812 O 929.903 0.171203 1.77677 0
M  V30 9813 C 927.003 0.422724 3.36253 0
M  V30 9814 C 926.176 1.50419 4.10722 0
M  V30 9815 C 925.235 0.973407 5.17118 0
M  V30 9816 O 924.261 1.66066 5.44436 0
M  V30 9817 N 925.463 -0.202787 5.80146 0
M  V30 9818 H 928.228 1.9009 2.31702 0
M  V30 9819 H 925.789 1.13522 1.15431 0
M  V30 9820 H 927.781 0.0528514 4.04665 0
M  V30 9821 H 926.351 -0.423642 3.09716 0
M  V30 9822 H 925.571 2.04718 3.36874 0
M  V30 9823 H 926.859 2.23169 4.57245 0
M  V30 9824 H 926.257 -0.777856 5.60327 0
M  V30 9825 H 924.814 -0.513998 6.4977 0
M  V30 9826 N 928.247 -1.18576 1.03814 0
M  V30 9827 C 929.177 -2.24334 0.647795 0
M  V30 9828 C 930.158 -1.66508 -0.34774 0
M  V30 9829 O 931.343 -1.92852 -0.228401 0
M  V30 9830 C 928.473 -3.47299 0.00734922 0
M  V30 9831 C 927.427 -4.17859 0.926152 0
M  V30 9832 C 926.753 -5.34489 0.150317 0
M  V30 9833 C 928.053 -4.71632 2.24411 0
M  V30 9834 H 929.747 -2.57241 1.53191 0
M  V30 9835 H 927.293 -1.23649 0.738028 0
M  V30 9836 H 929.246 -4.20486 -0.277434 0
M  V30 9837 H 927.97 -3.13619 -0.911626 0
M  V30 9838 H 926.629 -3.46567 1.19528 0
M  V30 9839 H 926.277 -4.97056 -0.770985 0
M  V30 9840 H 925.977 -5.82633 0.762407 0
M  V30 9841 H 927.501 -6.10467 -0.127508 0
M  V30 9842 H 928.915 -5.36526 2.02021 0
M  V30 9843 H 927.312 -5.303 2.80894 0
M  V30 9844 H 928.382 -3.89192 2.89236 0
M  V30 9845 N 929.725 -0.817259 -1.34754 0
M  V30 9846 C 930.953 -0.415451 -2.02686 0
M  V30 9847 C 931.368 0.97688 -1.61563 0
M  V30 9848 O 930.725 1.63125 -0.818321 0
M  V30 9849 C 930.776 -0.501486 -3.58005 0
M  V30 9850 O 930.497 -1.83893 -3.97637 0
M  V30 9851 C 931.998 -0.0938504 -4.43201 0
M  V30 9852 H 929.218 -0.16742 -0.649778 0
M  V30 9853 H 931.762 -1.10384 -1.7215 0
M  V30 9854 H 929.917 0.138766 -3.87151 0
M  V30 9855 H 930.331 -1.8092 -4.92309 0
M  V30 9856 H 931.805 -0.205145 -5.51619 0
M  V30 9857 H 932.282 0.962011 -4.28535 0
M  V30 9858 H 932.888 -0.707677 -4.19371 0
M  V30 9859 N 931.203 1.46865 -0.571711 0
M  V30 9860 C 932.614 1.86158 -0.142181 0
M  V30 9861 C 932.965 1.47663 1.2919 0
M  V30 9862 O 932.09 0.886393 1.97413 0
M  V30 9863 C 932.685 3.37867 -0.251256 0
M  V30 9864 C 931.244 3.76198 0.123329 0
M  V30 9865 C 930.391 2.70902 -0.592232 0
M  V30 9866 H 933.342 1.38176 -0.780587 0
M  V30 9867 H 933.363 3.76842 0.526331 0
M  V30 9868 H 932.875 3.65853 -1.2951 0
M  V30 9869 H 930.976 3.53829 1.16773 0
M  V30 9870 H 931.089 4.78471 -0.24533 0
M  V30 9871 H 929.453 2.54678 -0.0336927 0
M  V30 9872 H 930.236 3.01729 -1.63751 0
M  V30 9873 N 932.681 0.308908 1.54543 0
M  V30 9874 C 933.909 -0.300418 2.04707 0
M  V30 9875 C 934.324 -1.46915 1.18581 0
M  V30 9876 O 933.681 -1.81251 0.213186 0
M  V30 9877 C 933.732 -0.749038 3.53655 0
M  V30 9878 O 933.453 0.373181 4.36508 0
M  V30 9879 C 934.954 -1.4227 4.1985 0
M  V30 9880 H 932.174 -0.0641267 0.667929 0
M  V30 9881 H 934.718 0.450839 1.99469 0
M  V30 9882 H 932.873 -1.4503 3.59228 0
M  V30 9883 H 933.287 0.0224752 5.24495 0
M  V30 9884 H 934.761 -1.68768 5.25568 0
M  V30 9885 H 935.238 -2.36531 3.70067 0
M  V30 9886 H 935.844 -0.764404 4.18374 0
M  V30 9887 N 934.159 -1.57557 0.0367827 0
M  V30 9888 C 935.405 -1.93224 -0.635306 0
M  V30 9889 C 935.76 -0.914194 -1.69293 0
M  V30 9890 O 935.053 0.0686974 -1.91477 0
M  V30 9891 C 935.247 -3.33387 -1.28794 0
M  V30 9892 C 935.076 -4.48731 -0.295055 0
M  V30 9893 C 933.846 -5.05185 0.10783 0
M  V30 9894 C 936.044 -5.12294 0.453749 0
M  V30 9895 N 934.026 -6.04054 1.09508 0
M  V30 9896 C 935.397 -6.06335 1.29452 0
M  V30 9897 C 937.452 -4.95244 0.513622 0
M  V30 9898 C 936.155 -6.85158 2.18977 0
M  V30 9899 C 938.181 -5.74682 1.39624 0
M  V30 9900 C 937.543 -6.68344 2.22477 0
M  V30 9901 H 933.642 -0.754772 -0.204555 0
M  V30 9902 H 936.226 -1.94413 0.105751 0
M  V30 9903 H 934.397 -3.33002 -1.9991 0
M  V30 9904 H 936.129 -3.56381 -1.91767 0
M  V30 9905 H 932.884 -4.7284 -0.268192 0
M  V30 9906 H 933.308 -6.5818 1.58518 0
M  V30 9907 H 937.95 -4.2265 -0.112699 0
M  V30 9908 H 935.668 -7.57052 2.82661 0
M  V30 9909 H 939.254 -5.6352 1.44696 0
M  V30 9910 H 938.134 -7.2874 2.89668 0
M  V30 9911 N 935.637 0.236453 -1.55816 0
M  V30 9912 C 937.053 0.585465 -1.48474 0
M  V30 9913 C 937.253 1.8785 -0.72902 0
M  V30 9914 O 936.309 2.51131 -0.262614 0
M  V30 9915 C 937.622 0.678506 -2.92945 0
M  V30 9916 C 939.17 0.770135 -3.03378 0
M  V30 9917 C 939.645 0.894649 -4.49177 0
M  V30 9918 N 941.136 0.959253 -4.53158 0
M  V30 9919 C 941.871 1.07505 -5.63232 0
M  V30 9920 N 941.367 1.15572 -6.83092 0
M  V30 9921 N 943.16 1.10902 -5.51051 0
M  V30 9922 H 935.311 -0.612241 -2.03385 0
M  V30 9923 H 937.574 -0.212796 -0.923808 0
M  V30 9924 H 937.28 -0.201757 -3.51121 0
M  V30 9925 H 937.154 1.54703 -3.44016 0
M  V30 9926 H 939.541 1.64085 -2.45276 0
M  V30 9927 H 939.622 -0.123753 -2.555 0
M  V30 9928 H 939.266 0.0284537 -5.07892 0
M  V30 9929 H 939.196 1.80373 -4.94745 0
M  V30 9930 H 941.687 0.907827 -3.66834 0
M  V30 9931 H 942 1.24343 -7.62731 0
M  V30 9932 H 940.345 1.12511 -6.85833 0
M  V30 9933 H 943.536 1.04255 -4.56343 0
M  V30 9934 H 943.709 1.19581 -6.36871 0
M  V30 9935 N 937.115 1.49373 0.502552 0
M  V30 9936 C 938.361 1.59016 1.25864 0
M  V30 9937 C 938.694 0.27532 1.92238 0
M  V30 9938 O 937.969 -0.720988 1.80643 0
M  V30 9939 C 938.252 2.74828 2.32683 0
M  V30 9940 C 938.105 4.16102 1.7082 0
M  V30 9941 C 939.424 2.86288 3.34256 0
M  V30 9942 H 936.543 0.578798 0.456248 0
M  V30 9943 H 939.185 1.81651 0.557032 0
M  V30 9944 H 937.335 2.5566 2.92524 0
M  V30 9945 H 939.007 4.46782 1.14818 0
M  V30 9946 H 937.25 4.21822 1.01238 0
M  V30 9947 H 937.921 4.93006 2.48292 0
M  V30 9948 H 940.397 3.03733 2.84404 0
M  V30 9949 H 939.273 3.69001 4.06362 0
M  V30 9950 H 939.534 1.95576 3.96488 0
M  V30 9951 N 938.594 -0.753485 1.38421 0
M  V30 9952 C 939.824 -1.54049 1.37669 0
M  V30 9953 C 940.232 -1.89167 -0.0353656 0
M  V30 9954 O 939.575 -1.53285 -1.01239 0
M  V30 9955 C 939.637 -2.86777 2.16793 0
M  V30 9956 C 939.301 -2.74196 3.65603 0
M  V30 9957 C 940.298 -2.43985 4.59094 0
M  V30 9958 C 937.983 -2.91645 4.0896 0
M  V30 9959 C 939.977 -2.31379 5.93921 0
M  V30 9960 C 937.664 -2.78658 5.43868 0
M  V30 9961 C 938.662 -2.48568 6.36163 0
M  V30 9962 O 938.35 -2.3564 7.68589 0
M  V30 9963 H 938.082 -0.483276 0.472673 0
M  V30 9964 H 940.636 -0.940267 1.82615 0
M  V30 9965 H 938.866 -3.48988 1.66565 0
M  V30 9966 H 940.555 -3.48289 2.08446 0
M  V30 9967 H 941.321 -2.30172 4.26902 0
M  V30 9968 H 937.2 -3.14063 3.37469 0
M  V30 9969 H 940.744 -2.07813 6.65927 0
M  V30 9970 H 936.641 -2.92044 5.75656 0
M  V30 9971 H 937.409 -2.50851 7.79112 0
M  V30 9972 N 940.072 -1.23292 -0.981677 0
M  V30 9973 C 941.297 -1.09176 -1.76339 0
M  V30 9974 C 941.722 0.352726 -1.84763 0
M  V30 9975 O 941.08 1.25509 -1.30832 0
M  V30 9976 C 941.128 -1.72046 -3.16911 0
M  V30 9977 O 940.232 -0.98174 -4.00544 0
M  V30 9978 H 939.573 -0.382755 -0.542581 0
M  V30 9979 H 942.103 -1.63319 -1.23239 0
M  V30 9980 H 942.113 -1.77232 -3.67495 0
M  V30 9981 H 940.788 -2.77154 -3.10095 0
M  V30 9982 H 939.365 -1.00672 -3.59054 0
M  V30 9983 N 941.55 1.18024 -1.04442 0
M  V30 9984 C 942.778 1.92032 -0.770161 0
M  V30 9985 C 943.193 1.76391 0.673181 0
M  V30 9986 O 942.55 1.09604 1.45922 0
M  V30 9987 C 942.601 3.43328 -1.13173 0
M  V30 9988 O 942.322 3.5848 -2.51841 0
M  V30 9989 C 943.823 4.34427 -0.882523 0
M  V30 9990 H 941.043 0.609518 -0.280586 0
M  V30 9991 H 943.587 1.49711 -1.39308 0
M  V30 9992 H 941.742 3.83423 -0.553704 0
M  V30 9993 H 942.156 4.52166 -2.65794 0
M  V30 9994 H 943.63 5.39123 -1.18533 0
M  V30 9995 H 944.107 4.3882 0.18257 0
M  V30 9996 H 944.713 4.00035 -1.44403 0
M  V30 9997 N 943.028 0.824394 1.34319 0
M  V30 9998 C 944.276 0.41235 1.97849 0
M  V30 9999 C 944.597 -1.02841 1.65677 0
M  V30 10000 O 943.867 -1.71421 0.948245 0
M  V30 10001 H 942.447 0.149486 0.73189 0
M  V30 10002 H 945.109 1.05416 1.63931 0
M  V30 10003 H 944.205 0.532557 3.07523 0
M  V30 10004 N 944.506 -1.46559 0.579492 0
M  V30 10005 C 945.731 -2.0729 0.0674595 0
M  V30 10006 C 946.156 -1.4259 -1.22677 0
M  V30 10007 O 945.514 -0.50857 -1.74021 0
M  V30 10008 C 945.562 -3.60492 -0.0882227 0
M  V30 10009 O 944.666 -3.96172 -1.14551 0
M  V30 10010 H 944.007 -0.661159 0.0613536 0
M  V30 10011 H 946.537 -1.88247 0.801519 0
M  V30 10012 H 946.547 -4.06929 -0.295411 0
M  V30 10013 H 945.222 -4.06976 0.856943 0
M  V30 10014 H 943.799 -3.61448 -0.917033 0
M  V30 10015 N 945.984 -0.3171 -1.54377 0
M  V30 10016 C 946.932 0.567371 -2.25574 0
M  V30 10017 C 947.926 1.12387 -1.2675 0
M  V30 10018 O 949.132 1.07266 -1.44548 0
M  V30 10019 H 945.507 0.201605 -0.724472 0
M  V30 10020 H 947.478 -0.0554644 -2.98348 0
M  V30 10021 C 946.227 1.71984 -3.02187 0
M  V30 10022 H 945.55 1.30086 -3.78044 0
M  V30 10023 H 946.99 2.31443 -3.5526 0
M  V30 10024 C 945.449 2.6336 -2.10103 0
M  V30 10025 O 945.979 3.64899 -1.67962 0
M  V30 10026 N 944.185 2.3145 -1.75725 0
M  V30 10027 H 943.732 1.48921 -2.10191 0
M  V30 10028 H 943.69 2.92852 -1.14391 0
M  V30 10029 N 947.462 1.57535 -0.0451378 0
M  V30 10030 C 948.708 1.92736 0.630921 0
M  V30 10031 C 949.041 0.923265 1.70849 0
M  V30 10032 O 948.316 -0.0516512 1.94431 0
M  V30 10033 C 948.599 3.38348 1.23259 0
M  V30 10034 C 948.452 4.49503 0.16349 0
M  V30 10035 C 949.771 3.84233 2.14599 0
M  V30 10036 H 946.89 0.700884 0.227883 0
M  V30 10037 H 949.532 1.89706 -0.10567 0
M  V30 10038 H 947.682 3.41061 1.86037 0
M  V30 10039 H 949.354 4.58919 -0.46808 0
M  V30 10040 H 947.597 4.30802 -0.509166 0
M  V30 10041 H 948.268 5.48457 0.624382 0
M  V30 10042 H 950.744 3.83358 1.6179 0
M  V30 10043 H 949.62 4.86781 2.53644 0
M  V30 10044 H 949.881 3.20646 3.04366 0
M  V30 10045 N 948.94 -0.228186 1.55939 0
M  V30 10046 C 950.187 -0.953552 1.78644 0
M  V30 10047 C 950.515 -1.84596 0.61275 0
M  V30 10048 O 949.77 -1.91502 -0.403175 0
M  V30 10049 C 950.069 -1.82924 3.0704 0
M  V30 10050 C 949.735 -1.09062 4.37511 0
M  V30 10051 C 948.397 -0.886565 4.72962 0
M  V30 10052 C 950.749 -0.568533 5.1809 0
M  V30 10053 C 948.077 -0.148413 5.86512 0
M  V30 10054 C 950.429 0.156243 6.32407 0
M  V30 10055 C 949.093 0.371612 6.66465 0
M  V30 10056 H 948.363 -0.348929 0.653704 0
M  V30 10057 H 951.01 -0.222211 1.90206 0
M  V30 10058 H 949.315 -2.62823 2.90571 0
M  V30 10059 H 951.012 -2.3925 3.21808 0
M  V30 10060 H 947.602 -1.25963 4.09672 0
M  V30 10061 H 951.786 -0.713673 4.91142 0
M  V30 10062 H 947.042 0.0287418 6.11393 0
M  V30 10063 H 951.216 0.568333 6.94077 0
M  V30 10064 H 948.843 0.945522 7.54297 0
M  V30 10065 N 950.418 -1.49637 -0.494624 0
M  V30 10066 C 951.35 -1.62902 -1.61231 0
M  V30 10067 C 952.363 -0.511425 -1.54558 0
M  V30 10068 O 953.552 -0.783724 -1.60375 0
M  V30 10069 C 950.652 -1.57564 -3.00045 0
M  V30 10070 C 949.825 -2.84964 -3.31835 0
M  V30 10071 C 948.884 -2.72591 -4.5009 0
M  V30 10072 O 947.91 -3.46532 -4.51558 0
M  V30 10073 N 949.112 -1.84563 -5.50379 0
M  V30 10074 H 951.877 -2.59301 -1.50276 0
M  V30 10075 H 949.438 -1.46806 -0.68262 0
M  V30 10076 H 951.43 -1.46932 -3.77085 0
M  V30 10077 H 950 -0.689974 -3.0489 0
M  V30 10078 H 949.22 -3.099 -2.4363 0
M  V30 10079 H 950.508 -3.69412 -3.49875 0
M  V30 10080 H 949.906 -1.23758 -5.51997 0
M  V30 10081 H 948.463 -1.79849 -6.26496 0
M  V30 10082 N 951.896 0.746133 -1.38819 0
M  V30 10083 C 953.124 1.53539 -1.38685 0
M  V30 10084 C 953.539 1.88788 0.0215039 0
M  V30 10085 O 952.896 1.53312 0.990031 0
M  V30 10086 C 952.947 2.8299 -2.24942 0
M  V30 10087 O 952.668 2.49242 -3.60292 0
M  V30 10088 C 954.169 3.77085 -2.3307 0
M  V30 10089 H 951.389 0.474842 -0.474095 0
M  V30 10090 H 953.933 0.922844 -1.82493 0
M  V30 10091 H 952.088 3.40603 -1.84576 0
M  V30 10092 H 952.502 3.32319 -4.05789 0
M  V30 10093 H 953.976 4.64845 -2.97696 0
M  V30 10094 H 954.453 4.18049 -1.34655 0
M  V30 10095 H 955.059 3.25394 -2.73859 0
M  V30 10096 N 953.375 1.23811 0.975125 0
M  V30 10097 C 954.791 1.0019 1.24234 0
M  V30 10098 C 954.991 -0.293811 1.99346 0
M  V30 10099 O 954.047 -1.01189 2.31337 0
M  V30 10100 C 955.36 2.21218 2.03674 0
M  V30 10101 C 956.908 2.25764 2.16793 0
M  V30 10102 C 957.383 3.46394 2.99626 0
M  V30 10103 N 958.874 3.46665 3.07209 0
M  V30 10104 C 959.609 4.3666 3.71639 0
M  V30 10105 N 959.105 5.36899 4.37849 0
M  V30 10106 N 960.898 4.2439 3.68578 0
M  V30 10107 H 953.049 2.07087 0.472076 0
M  V30 10108 H 955.312 0.90838 0.271201 0
M  V30 10109 H 955.018 3.15277 1.55862 0
M  V30 10110 H 954.892 2.22733 3.04417 0
M  V30 10111 H 957.279 1.32242 2.63811 0
M  V30 10112 H 957.36 2.28279 1.15422 0
M  V30 10113 H 957.004 4.40227 2.53304 0
M  V30 10114 H 956.934 3.41121 4.01178 0
M  V30 10115 H 959.425 2.74142 2.60105 0
M  V30 10116 H 959.738 6.01816 4.84807 0
M  V30 10117 H 958.083 5.40793 4.36541 0
M  V30 10118 H 961.274 3.4532 3.16025 0
M  V30 10119 H 961.447 4.94727 4.18508 0
M  V30 10120 N 954.853 -1.17469 1.05066 0
M  V30 10121 C 955.816 -2.19648 0.654793 0
M  V30 10122 C 956.816 -1.58107 -0.293063 0
M  V30 10123 O 958.006 -1.74029 -0.077106 0
M  V30 10124 C 955.138 -3.40878 -0.0384437 0
M  V30 10125 H 956.331 -2.56184 1.55915 0
M  V30 10126 H 953.884 -1.31528 0.844396 0
M  V30 10127 H 954.619 -3.09885 -0.956133 0
M  V30 10128 H 954.404 -3.86792 0.642961 0
M  V30 10129 H 955.894 -4.1651 -0.301568 0
M  V30 10130 N 956.331 -0.831506 -1.3388 0
M  V30 10131 C 957.579 -0.422837 -1.97627 0
M  V30 10132 C 957.9 1.01961 -1.6622 0
M  V30 10133 O 957.17 1.70916 -0.957323 0
M  V30 10134 H 955.75 -0.153365 -0.731087 0
M  V30 10135 H 958.412 -1.06284 -1.6337 0
M  V30 10136 H 957.508 -0.548858 -3.07236 0
M  V30 10137 N 957.809 1.4625 -0.587256 0
M  V30 10138 C 959.049 2.04254 -0.0773169 0
M  V30 10139 C 959.413 1.44831 1.26047 0
M  V30 10140 O 960.614 1.94063 1.85992 0
M  V30 10141 C 958.885 3.57396 -0.0172813 0
M  V30 10142 S 960.444 4.36644 0.434422 0
M  V30 10143 H 957.262 0.709892 -0.0396783 0
M  V30 10144 H 959.864 1.79232 -0.780779 0
M  V30 10145 H 958.568 3.98161 -0.994795 0
M  V30 10146 H 958.099 3.86962 0.70881 0
M  V30 10147 H 960.114 4.66597 1.68824 0
M  V30 10148 N 959.287 0.325282 1.54207 0
M  V30 10149 C 960.217 -0.532574 2.27345 0
M  V30 10150 C 961.198 -1.11791 1.28206 0
M  V30 10151 O 962.383 -1.14272 1.57021 0
M  V30 10152 C 959.513 -1.69274 3.03255 0
M  V30 10153 C 958.467 -1.23662 4.09746 0
M  V30 10154 C 957.793 -2.48386 4.73506 0
M  V30 10155 C 959.093 -0.350244 5.21124 0
M  V30 10156 H 960.787 0.0775108 2.993 0
M  V30 10157 H 958.333 0.0387193 1.43948 0
M  V30 10158 H 960.286 -2.29917 3.53152 0
M  V30 10159 H 959.01 -2.32944 2.28921 0
M  V30 10160 H 957.669 -0.653106 3.60735 0
M  V30 10161 H 957.317 -3.10424 3.95786 0
M  V30 10162 H 957.017 -2.18558 5.45441 0
M  V30 10163 H 958.541 -3.09789 5.26178 0
M  V30 10164 H 959.955 -0.863011 5.66767 0
M  V30 10165 H 958.352 -0.14466 5.99926 0
M  V30 10166 H 959.422 0.618457 4.8094 0
M  V30 10167 N 960.765 -1.57509 0.0534917 0
M  V30 10168 C 962.014 -1.91959 -0.619244 0
M  V30 10169 C 962.327 -0.933882 -1.71866 0
M  V30 10170 O 963.533 -1.17052 -2.44972 0
M  V30 10171 C 961.989 -3.40938 -1.15278 0
M  V30 10172 C 961.597 -4.47919 -0.085348 0
M  V30 10173 C 963.341 -3.84419 -1.80063 0
M  V30 10174 C 961.248 -5.88014 -0.631897 0
M  V30 10175 H 960.178 -0.71642 -0.235072 0
M  V30 10176 H 962.829 -1.83089 0.122758 0
M  V30 10177 H 961.211 -3.44821 -1.94717 0
M  V30 10178 H 962.385 -4.55629 0.688374 0
M  V30 10179 H 960.7 -4.13793 0.465178 0
M  V30 10180 H 963.297 -4.86457 -2.21954 0
M  V30 10181 H 963.64 -3.20791 -2.65328 0
M  V30 10182 H 964.173 -3.83062 -1.07275 0
M  V30 10183 H 960.912 -6.55244 0.183175 0
M  V30 10184 H 960.432 -5.83861 -1.37355 0
M  V30 10185 H 962.111 -6.37336 -1.11407 0
M  V30 10186 N 962.243 0.219913 -1.56058 0
M  V30 10187 C 963.491 0.942199 -1.78793 0
M  V30 10188 C 963.812 1.84804 -0.622284 0
M  V30 10189 O 963.082 1.9255 0.360735 0
M  V30 10190 H 961.662 0.350895 -0.659455 0
M  V30 10191 H 964.324 0.231376 -1.93522 0
M  V30 10192 H 963.42 1.54804 -2.71002 0
M  V30 10193 N 963.721 1.49897 0.486681 0
M  V30 10194 C 964.684 1.67086 1.56891 0
M  V30 10195 C 965.684 0.54209 1.51387 0
M  V30 10196 O 966.874 0.80883 1.54284 0
M  V30 10197 C 964.006 1.68159 2.96539 0
M  V30 10198 H 965.199 2.63626 1.42974 0
M  V30 10199 H 962.752 1.39143 0.711954 0
M  V30 10200 H 963.487 0.732562 3.15918 0
M  V30 10201 H 963.272 2.50147 3.01942 0
M  V30 10202 H 964.762 1.83466 3.7514 0
M  V30 10203 N 965.199 -0.738761 1.39212 0
M  V30 10204 C 966.109 -1.88324 1.39897 0
M  V30 10205 C 967.125 -1.71494 0.294229 0
M  V30 10206 O 968.301 -1.94162 0.535087 0
M  V30 10207 C 965.366 -3.23871 1.23726 0
M  V30 10208 C 964.427 -3.53121 2.44139 0
M  V30 10209 C 963.66 -4.82202 2.2873 0
M  V30 10210 O 963.883 -5.55649 1.28879 0
M  V30 10211 O 962.817 -5.11265 3.17634 0
M  V30 10212 H 966.643 -1.90701 2.36362 0
M  V30 10213 H 964.228 -0.886067 1.20288 0
M  V30 10214 H 966.11 -4.04882 1.16826 0
M  V30 10215 H 964.785 -3.22274 0.303551 0
M  V30 10216 H 963.692 -2.72212 2.56615 0
M  V30 10217 H 965.025 -3.59495 3.36191 0
M  V30 10218 N 966.677 -1.24326 -0.968545 0
M  V30 10219 C 967.627 -1.00191 -2.04807 0
M  V30 10220 C 968.611 0.0563524 -1.60801 0
M  V30 10221 O 969.803 -0.157268 -1.763 0
M  V30 10222 C 966.932 -0.607749 -3.37878 0
M  V30 10223 C 966.018 -1.70204 -3.88447 0
M  V30 10224 N 966.409 -2.93463 -4.11962 0
M  V30 10225 C 964.707 -1.57936 -4.171 0
M  V30 10226 C 965.408 -3.64397 -4.5342 0
M  V30 10227 N 964.384 -2.91956 -4.58544 0
M  V30 10228 H 968.186 -1.93786 -2.20962 0
M  V30 10229 H 965.7 -1.1444 -1.15227 0
M  V30 10230 H 967.697 -0.416079 -4.14819 0
M  V30 10231 H 966.357 0.321026 -3.23109 0
M  V30 10232 H 967.368 -3.2965 -3.99438 0
M  V30 10233 H 964.045 -0.718552 -4.1127 0
M  V30 10234 H 965.435 -4.70125 -4.80034 0
M  V30 10235 N 968.156 1.1691 -1.05688 0
M  V30 10236 C 969.402 1.8757 -0.771071 0
M  V30 10237 C 969.735 1.8113 0.700399 0
M  V30 10238 O 969.01 1.22273 1.5126 0
M  V30 10239 C 969.293 3.37392 -1.25851 0
M  V30 10240 C 969.146 3.52556 -2.79329 0
M  V30 10241 C 970.465 4.31585 -0.861512 0
M  V30 10242 H 967.584 0.681089 -0.281579 0
M  V30 10243 H 970.226 1.37453 -1.31174 0
M  V30 10244 H 968.376 3.80204 -0.798563 0
M  V30 10245 H 970.048 3.18725 -3.33485 0
M  V30 10246 H 968.291 2.94668 -3.1836 0
M  V30 10247 H 968.962 4.57748 -3.08498 0
M  V30 10248 H 971.438 3.96642 -1.25756 0
M  V30 10249 H 970.314 5.34939 -1.23012 0
M  V30 10250 H 970.575 4.4148 0.234089 0
M  V30 10251 N 969.634 0.838594 1.33437 0
M  V30 10252 C 970.582 0.260158 2.31141 0
M  V30 10253 C 971.576 -0.607706 1.58124 0
M  V30 10254 O 972.782 -0.497298 1.72994 0
M  V30 10255 H 969.157 0.0654031 0.74915 0
M  V30 10256 H 971.128 1.09874 2.77435 0
M  V30 10257 C 969.877 -0.550234 3.43319 0
M  V30 10258 H 969.2 0.108262 3.99653 0
M  V30 10259 H 970.64 -0.920815 4.1388 0
M  V30 10260 C 969.099 -1.729 2.89149 0
M  V30 10261 O 969.629 -2.82769 2.85315 0
M  V30 10262 N 967.835 -1.5508 2.45761 0
M  V30 10263 H 967.382 -0.657055 2.49079 0
M  V30 10264 H 967.34 -2.34099 2.0987 0
M  V30 10265 N 971.112 -1.45937 0.595003 0
M  V30 10266 C 972.06 -2.32155 -0.143798 0
M  V30 10267 C 973.054 -1.45221 -0.872198 0
M  V30 10268 O 974.26 -1.61777 -0.789191 0
M  V30 10269 H 970.635 -0.749165 -0.0652377 0
M  V30 10270 H 972.606 -2.92264 0.602005 0
M  V30 10271 C 971.355 -3.28615 -1.13611 0
M  V30 10272 H 970.678 -3.95496 -0.585044 0
M  V30 10273 H 972.118 -3.91699 -1.62321 0
M  V30 10274 C 970.577 -2.54863 -2.20333 0
M  V30 10275 O 971.107 -2.32071 -3.27881 0
M  V30 10276 N 969.313 -2.15213 -1.95274 0
M  V30 10277 H 968.86 -2.33949 -1.07822 0
M  V30 10278 H 968.818 -1.66188 -2.66888 0
M  V30 10279 N 972.59 -0.333456 -1.54032 0
M  V30 10280 C 973.815 0.270517 -2.05628 0
M  V30 10281 C 974.24 1.44231 -1.20744 0
M  V30 10282 O 973.598 1.79975 -0.218822 0
M  V30 10283 C 973.646 0.673251 -3.54259 0
M  V30 10284 O 972.75 1.77448 -3.72271 0
M  V30 10285 H 972.091 0.0469753 -0.662336 0
M  V30 10286 H 974.621 -0.484739 -1.98775 0
M  V30 10287 H 974.631 0.953194 -3.96709 0
M  V30 10288 H 973.306 -0.183747 -4.15494 0
M  V30 10289 H 971.883 1.49259 -3.41725 0
M  V30 10290 N 974.068 1.57479 -0.061844 0
M  V30 10291 C 975.298 1.97142 0.61794 0
M  V30 10292 C 975.706 0.938533 1.64281 0
M  V30 10293 O 975.049 -0.084385 1.83506 0
M  V30 10294 C 975.111 3.33083 1.35263 0
M  V30 10295 C 974.775 4.54447 0.482372 0
M  V30 10296 C 975.772 5.1927 -0.255954 0
M  V30 10297 C 973.457 5.00623 0.410167 0
M  V30 10298 C 975.451 6.28612 -1.05481 0
M  V30 10299 C 973.138 6.09839 -0.392369 0
M  V30 10300 C 974.136 6.73696 -1.12354 0
M  V30 10301 O 973.824 7.80811 -1.91285 0
M  V30 10302 H 973.556 0.653497 0.172969 0
M  V30 10303 H 976.11 2.05002 -0.127781 0
M  V30 10304 H 974.34 3.21808 2.14421 0
M  V30 10305 H 976.029 3.5742 1.92368 0
M  V30 10306 H 976.795 4.84546 -0.209703 0
M  V30 10307 H 972.674 4.50704 0.968883 0
M  V30 10308 H 976.218 6.78385 -1.62602 0
M  V30 10309 H 972.115 6.43997 -0.44022 0
M  V30 10310 H 972.883 7.9764 -1.83611 0
M  V30 10311 N 975.546 -0.211634 1.56173 0
M  V30 10312 C 976.456 -1.2831 1.96402 0
M  V30 10313 C 977.472 -1.50731 0.869254 0
M  V30 10314 O 978.648 -1.63669 1.17365 0
M  V30 10315 C 975.713 -2.61084 2.28114 0
M  V30 10316 C 974.774 -2.46879 3.51211 0
M  V30 10317 C 974.007 -3.73321 3.81401 0
M  V30 10318 O 974.23 -4.76773 3.13119 0
M  V30 10319 O 973.164 -3.69839 4.74871 0
M  V30 10320 H 976.99 -0.971733 2.87734 0
M  V30 10321 H 974.575 -0.415305 1.43512 0
M  V30 10322 H 976.457 -3.39481 2.49661 0
M  V30 10323 H 975.132 -2.91881 1.39954 0
M  V30 10324 H 974.039 -1.66648 3.34932 0
M  V30 10325 H 975.372 -2.21018 4.39786 0
M  V30 10326 N 977.024 -1.50153 -0.478725 0
M  V30 10327 C 978.264 -1.62393 -1.24129 0
M  V30 10328 C 978.628 -0.313774 -1.89419 0
M  V30 10329 O 979.829 -0.311537 -2.66989 0
M  V30 10330 C 978.1 -2.76633 -2.26293 0
M  V30 10331 S 979.659 -3.08961 -3.11591 0
M  V30 10332 H 976.477 -0.572559 -0.421541 0
M  V30 10333 H 979.079 -1.87906 -0.539592 0
M  V30 10334 H 977.783 -3.70319 -1.76896 0
M  V30 10335 H 977.314 -2.53182 -3.01102 0
M  V30 10336 H 979.329 -2.52197 -4.2733 0
M  V30 10337 N 978.502 0.731368 -1.39602 0
M  V30 10338 C 979.779 1.48308 -1.27531 0
M  V30 10339 C 980.159 2.10795 0.113482 0
M  V30 10340 O 979.507 1.98886 1.12501 0
M  V30 10341 C 979.717 2.53156 -2.40235 0
M  V30 10342 C 981.065 3.19436 -2.79725 0
M  V30 10343 O 982.089 2.6347 -2.39712 0
M  V30 10344 O 980.948 4.20714 -3.48801 0
M  V30 10345 H 978.042 0.658753 -0.499973 0
M  V30 10346 H 980.588 0.764884 -1.51485 0
M  V30 10347 H 979.36 2.05387 -3.33064 0
M  V30 10348 H 978.983 3.3253 -2.17966 0
M  V30 10349 N 979.98 1.24838 0.961938 0
M  V30 10350 C 981.229 1.0855 1.69999 0
M  V30 10351 C 981.542 -0.374645 1.91979 0
M  V30 10352 O 982.748 -0.657822 2.6341 0
M  V30 10353 C 981.204 1.89424 3.06017 0
M  V30 10354 C 980.812 3.39885 2.9186 0
M  V30 10355 C 982.556 1.81684 3.83655 0
M  V30 10356 C 980.463 4.13082 4.23223 0
M  V30 10357 H 979.393 0.402603 0.637516 0
M  V30 10358 H 982.044 1.4897 1.07146 0
M  V30 10359 H 980.426 1.41823 3.69733 0
M  V30 10360 H 981.6 3.95108 2.37121 0
M  V30 10361 H 979.915 3.4864 2.27683 0
M  V30 10362 H 982.512 2.3367 4.80939 0
M  V30 10363 H 982.855 0.783247 4.08865 0
M  V30 10364 H 983.388 2.26997 3.26676 0
M  V30 10365 H 980.127 5.16824 4.03204 0
M  V30 10366 H 979.647 3.62644 4.77755 0
M  V30 10367 H 981.326 4.20397 4.91808 0
M  V30 10368 N 981.458 -1.16348 1.06306 0
M  V30 10369 C 982.869 -1.68491 0.80422 0
M  V30 10370 C 983.22 -1.84327 -0.672159 0
M  V30 10371 O 982.345 -1.53892 -1.52139 0
M  V30 10372 C 982.94 -3.06048 1.45328 0
M  V30 10373 C 981.499 -3.55311 1.24221 0
M  V30 10374 C 980.646 -2.31291 1.5297 0
M  V30 10375 H 983.597 -1.00708 1.22652 0
M  V30 10376 H 983.618 -3.70451 0.868674 0
M  V30 10377 H 983.13 -2.9449 2.52779 0
M  V30 10378 H 981.231 -3.72128 0.187447 0
M  V30 10379 H 981.344 -4.37397 1.95502 0
M  V30 10380 H 979.708 -2.3631 0.950241 0
M  V30 10381 H 980.491 -2.22331 2.6158 0
M  V30 10382 N 982.937 -0.845659 -1.3299 0
M  V30 10383 C 984.186 -0.440928 -1.96822 0
M  V30 10384 C 984.499 1.00668 -1.67706 0
M  V30 10385 O 985.705 1.51641 -2.25205 0
M  V30 10386 C 984.161 -0.73752 -3.52262 0
M  V30 10387 C 983.769 -2.20026 -3.90247 0
M  V30 10388 C 985.513 -0.400072 -4.22611 0
M  V30 10389 C 983.42 -2.44054 -5.38694 0
M  V30 10390 H 982.35 -0.161148 -0.736578 0
M  V30 10391 H 985.001 -1.03519 -1.51513 0
M  V30 10392 H 983.383 -0.0728025 -3.95933 0
M  V30 10393 H 984.557 -2.90602 -3.57613 0
M  V30 10394 H 982.872 -2.50135 -3.32899 0
M  V30 10395 H 985.469 -0.557136 -5.3179 0
M  V30 10396 H 985.812 0.657547 -4.11074 0
M  V30 10397 H 986.345 -1.0203 -3.84493 0
M  V30 10398 H 983.084 -3.48407 -5.55241 0
M  V30 10399 H 982.604 -1.78047 -5.72765 0
M  V30 10400 H 984.283 -2.27549 -6.05665 0
M  V30 10401 N 984.415 1.45619 -0.602734 0
M  V30 10402 C 985.663 2.01873 -0.095844 0
M  V30 10403 C 985.984 1.47427 1.27633 0
M  V30 10404 O 985.254 0.666652 1.84208 0
M  V30 10405 H 983.834 0.746295 -0.0324408 0
M  V30 10406 H 986.496 1.78478 -0.783037 0
M  V30 10407 H 985.592 3.12072 -0.0419507 0
M  V30 10408 N 985.893 0.34162 1.53853 0
M  V30 10409 C 986.856 -0.503541 2.236 0
M  V30 10410 C 987.856 -1.02912 1.23554 0
M  V30 10411 O 989.046 -0.918678 1.48007 0
M  V30 10412 C 986.178 -1.70126 2.95415 0
M  V30 10413 H 987.371 0.106437 2.99711 0
M  V30 10414 H 984.924 0.0929408 1.56023 0
M  V30 10415 H 985.659 -2.34999 2.23486 0
M  V30 10416 H 985.444 -1.33161 3.68796 0
M  V30 10417 H 986.934 -2.30077 3.48503 0
M  V30 10418 N 987.371 -1.57444 0.0701946 0
M  V30 10419 C 988.619 -1.93047 -0.598106 0
M  V30 10420 C 988.94 -0.950841 -1.70247 0
M  V30 10421 O 988.21 0.00127177 -1.959 0
M  V30 10422 H 986.79 -0.712648 -0.223924 0
M  V30 10423 H 989.452 -1.94481 0.127674 0
M  V30 10424 H 988.548 -2.94807 -1.02445 0
M  V30 10425 N 988.849 0.203349 -1.56283 0
M  V30 10426 C 990.098 0.92315 -1.79334 0
M  V30 10427 C 990.411 1.84765 -0.641977 0
M  V30 10428 O 991.617 2.60745 -0.756584 0
M  V30 10429 C 990.073 1.69184 -3.17655 0
M  V30 10430 C 989.681 0.812581 -4.40569 0
M  V30 10431 C 991.425 2.40177 -3.50022 0
M  V30 10432 C 989.332 1.57967 -5.69913 0
M  V30 10433 H 988.262 0.348442 -0.668659 0
M  V30 10434 H 990.913 0.1766 -1.82648 0
M  V30 10435 H 989.295 2.48197 -3.08568 0
M  V30 10436 H 990.469 0.0616956 -4.60759 0
M  V30 10437 H 988.784 0.21389 -4.1585 0
M  V30 10438 H 991.381 2.98103 -4.4389 0
M  V30 10439 H 991.724 3.13961 -2.73376 0
M  V30 10440 H 992.257 1.68138 -3.6052 0
M  V30 10441 H 988.996 0.884767 -6.49501 0
M  V30 10442 H 988.516 2.3047 -5.53754 0
M  V30 10443 H 990.195 2.13562 -6.10737 0
M  V30 10444 N 990.327 1.50405 0.470755 0
M  V30 10445 C 991.567 1.63049 1.23266 0
M  V30 10446 C 991.931 0.323815 1.8925 0
M  V30 10447 O 993.132 0.325692 2.6682 0
M  V30 10448 C 991.403 2.7783 2.24823 0
M  V30 10449 S 992.962 3.10609 3.09948 0
M  V30 10450 H 989.78 0.574787 0.418499 0
M  V30 10451 H 992.382 1.8819 0.529619 0
M  V30 10452 H 991.086 3.71252 1.74929 0
M  V30 10453 H 990.617 2.54776 2.99755 0
M  V30 10454 H 992.632 2.5446 4.25987 0
M  V30 10455 N 991.805 -0.723954 1.39988 0
M  V30 10456 C 992.768 -1.81973 1.3935 0
M  V30 10457 C 993.768 -1.58187 0.288702 0
M  V30 10458 O 994.958 -1.65383 0.547181 0
M  V30 10459 C 992.09 -3.19937 1.177 0
M  V30 10460 H 993.283 -1.83939 2.36868 0
M  V30 10461 H 990.836 -0.928742 1.25714 0
M  V30 10462 H 991.571 -3.23625 0.209093 0
M  V30 10463 H 991.356 -3.386 1.97719 0
M  V30 10464 H 992.846 -3.99981 1.20022 0
M  V30 10465 N 993.283 -1.25346 -0.955304 0
M  V30 10466 C 994.508 -1.12892 -1.73983 0
M  V30 10467 C 994.933 0.313455 -1.8547 0
M  V30 10468 O 994.291 1.22706 -1.33465 0
M  V30 10469 C 994.339 -1.78729 -3.1319 0
M  V30 10470 O 993.443 -1.06648 -3.98372 0
M  V30 10471 H 992.784 -0.394178 -0.534341 0
M  V30 10472 H 995.314 -1.65897 -1.19747 0
M  V30 10473 H 995.324 -1.84987 -3.63653 0
M  V30 10474 H 993.999 -2.83669 -3.04146 0
M  V30 10475 H 992.576 -1.08266 -3.56837 0
M  V30 10476 N 994.761 1.15782 -1.06922 0
M  V30 10477 C 995.991 1.90079 -0.809545 0
M  V30 10478 C 996.399 1.78028 0.640523 0
M  V30 10479 O 995.742 1.12692 1.45073 0
M  V30 10480 C 995.804 3.41179 -1.13302 0
M  V30 10481 C 995.468 3.77015 -2.5828 0
M  V30 10482 C 996.465 3.78403 -3.56521 0
M  V30 10483 C 994.15 4.07455 -2.93745 0
M  V30 10484 C 996.144 4.09729 -4.88264 0
M  V30 10485 C 993.831 4.38446 -4.25686 0
M  V30 10486 C 994.829 4.39564 -5.22755 0
M  V30 10487 O 994.517 4.69814 -6.52326 0
M  V30 10488 H 994.249 0.609397 -0.292595 0
M  V30 10489 H 996.803 1.47654 -1.42784 0
M  V30 10490 H 995.033 3.83982 -0.457676 0
M  V30 10491 H 996.722 3.96759 -0.856586 0
M  V30 10492 H 997.488 3.54991 -3.30464 0
M  V30 10493 H 993.367 4.05746 -2.1884 0
M  V30 10494 H 996.911 4.10516 -5.64023 0
M  V30 10495 H 992.808 4.61325 -4.51497 0
M  V30 10496 H 993.576 4.87598 -6.57412 0
M  V30 10497 N 996.239 0.8527 1.3254 0
M  V30 10498 C 997.171 0.253181 2.27797 0
M  V30 10499 C 998.184 -0.573977 1.52346 0
M  V30 10500 O 999.373 -0.398786 1.73988 0
M  V30 10501 C 996.473 -0.661034 3.32391 0
M  V30 10502 C 995.646 0.12984 4.37207 0
M  V30 10503 C 994.705 -0.709837 5.2139 0
M  V30 10504 O 993.731 -0.144056 5.69018 0
M  V30 10505 N 994.933 -2.0249 5.44039 0
M  V30 10506 H 997.698 1.07171 2.79883 0
M  V30 10507 H 995.259 0.712491 1.45379 0
M  V30 10508 H 997.251 -1.22806 3.85617 0
M  V30 10509 H 995.821 -1.38025 2.80478 0
M  V30 10510 H 995.041 0.878289 3.84291 0
M  V30 10511 H 996.329 0.673141 5.04328 0
M  V30 10512 H 995.727 -2.50792 5.0707 0
M  V30 10513 H 994.284 -2.5401 6.00269 0
M  V30 10514 N 997.718 -1.45297 0.610449 0
M  V30 10515 C 998.946 -2.0659 0.113211 0
M  V30 10516 C 999.361 -1.4546 -1.20361 0
M  V30 10517 O 998.718 -0.569823 -1.73376 0
M  V30 10518 C 998.769 -3.61488 -0.0298411 0
M  V30 10519 O 998.49 -4.20336 1.23488 0
M  V30 10520 C 999.991 -4.39772 -0.558202 0
M  V30 10521 H 997.211 -0.667322 0.0701555 0
M  V30 10522 H 999.755 -1.86497 0.838993 0
M  V30 10523 H 997.91 -3.80913 -0.705963 0
M  V30 10524 H 998.324 -5.13545 1.0664 0
M  V30 10525 H 999.798 -5.48648 -0.607375 0
M  V30 10526 H 1000.27 -4.09755 -1.58107 0
M  V30 10527 H 1000.88 -4.25217 0.0839704 0
M  V30 10528 N 999.196 -0.349774 -1.5367 0
M  V30 10529 C 1000.13 0.538575 -2.22782 0
M  V30 10530 C 1001.14 1.05896 -1.23652 0
M  V30 10531 O 1002.33 0.968045 -1.4997 0
M  V30 10532 C 999.43 1.7546 -2.89943 0
M  V30 10533 C 998.603 1.36843 -4.15443 0
M  V30 10534 C 997.662 2.4448 -4.65957 0
M  V30 10535 O 996.688 2.07528 -5.3002 0
M  V30 10536 N 997.89 3.75829 -4.42417 0
M  V30 10537 H 1000.65 -0.053348 -2.99653 0
M  V30 10538 H 998.216 -0.174193 -1.6096 0
M  V30 10539 H 1000.21 2.46911 -3.20651 0
M  V30 10540 H 998.778 2.25375 -2.16622 0
M  V30 10541 H 997.998 0.484421 -3.91212 0
M  V30 10542 H 999.286 1.0865 -4.97064 0
M  V30 10543 H 998.684 4.08635 -3.91196 0
M  V30 10544 H 997.241 4.43432 -4.77714 0
M  V30 10545 N 1000.67 1.57404 -0.0785433 0
M  V30 10546 C 1001.9 1.98074 0.597862 0
M  V30 10547 C 1002.32 0.95714 1.6274 0
M  V30 10548 O 1001.67 -0.0553728 1.82416 0
M  V30 10549 C 1001.72 3.38815 1.26041 0
M  V30 10550 O 1001.45 4.37254 0.27207 0
M  V30 10551 C 1002.95 3.94397 2.024 0
M  V30 10552 H 1000.17 0.651263 0.161546 0
M  V30 10553 H 1002.71 2.03927 -0.152941 0
M  V30 10554 H 1000.87 3.34028 1.96225 0
M  V30 10555 H 1001.28 5.19136 0.74822 0
M  V30 10556 H 1002.75 4.95075 2.4414 0
M  V30 10557 H 1003.23 3.31308 2.88326 0
M  V30 10558 H 1003.84 4.02607 1.37068 0
M  V30 10559 N 1002.15 -0.195058 1.56388 0
M  V30 10560 C 1003.1 -1.26122 1.95438 0
M  V30 10561 C 1004.09 -1.47117 0.839818 0
M  V30 10562 O 1005.3 -1.47978 1.02482 0
M  V30 10563 H 1001.67 -0.423422 0.621464 0
M  V30 10564 H 1003.65 -0.904854 2.8435 0
M  V30 10565 C 1002.39 -2.59858 2.31017 0
M  V30 10566 H 1001.72 -2.44519 3.16308 0
M  V30 10567 H 1003.16 -3.33205 2.62203 0
M  V30 10568 C 1001.62 -3.16853 1.14481 0
M  V30 10569 O 1002.15 -3.995 0.419853 0
M  V30 10570 N 1000.35 -2.75599 0.921604 0
M  V30 10571 H 999.9 -2.08495 1.51287 0
M  V30 10572 H 999.858 -3.14072 0.143663 0
M  V30 10573 N 1003.63 -1.50653 -0.462772 0
M  V30 10574 C 1004.85 -1.66103 -1.24196 0
M  V30 10575 C 1005.28 -0.347421 -1.84864 0
M  V30 10576 O 1004.64 0.689673 -1.6767 0
M  V30 10577 C 1004.69 -2.76027 -2.32037 0
M  V30 10578 O 1003.79 -2.37859 -3.36893 0
M  V30 10579 H 1003.13 -0.554672 -0.365014 0
M  V30 10580 H 1005.66 -1.97076 -0.549734 0
M  V30 10581 H 1005.67 -2.99354 -2.77221 0
M  V30 10582 H 1004.35 -3.71361 -1.87253 0
M  V30 10583 H 1002.92 -2.2501 -2.97363 0
M  V30 10584 N 1005.11 0.71652 -1.4037 0
M  V30 10585 C 1006.52 1.29562 -1.34427 0
M  V30 10586 C 1006.87 1.96192 -0.0173106 0
M  V30 10587 O 1006 1.97488 0.884719 0
M  V30 10588 C 1006.59 2.35601 -2.4347 0
M  V30 10589 C 1005.15 2.89138 -2.4099 0
M  V30 10590 C 1004.3 1.62915 -2.24397 0
M  V30 10591 H 1007.25 0.512715 -1.5019 0
M  V30 10592 H 1007.27 3.16422 -2.11323 0
M  V30 10593 H 1006.78 1.87077 -3.40035 0
M  V30 10594 H 1004.88 3.41894 -1.4812 0
M  V30 10595 H 1004.99 3.40995 -3.3654 0
M  V30 10596 H 1003.36 1.87947 -1.71896 0
M  V30 10597 H 1004.14 1.16417 -3.22958 0
M  V30 10598 N 1006.59 1.25851 0.948643 0
M  V30 10599 C 1008 1.02802 1.22081 0
M  V30 10600 C 1008.2 -0.251461 1.99925 0
M  V30 10601 O 1007.26 -0.962592 2.33432 0
M  V30 10602 C 1008.57 2.25489 1.98936 0
M  V30 10603 C 1010.12 2.30312 2.11956 0
M  V30 10604 C 1010.59 3.52671 2.92211 0
M  V30 10605 N 1012.09 3.53103 2.99787 0
M  V30 10606 C 1012.82 4.44445 3.62294 0
M  V30 10607 N 1012.32 5.46065 4.26362 0
M  V30 10608 N 1014.11 4.32113 3.59493 0
M  V30 10609 H 1006.26 2.08042 0.428044 0
M  V30 10610 H 1008.52 0.913928 0.251872 0
M  V30 10611 H 1008.23 3.18513 1.4914 0
M  V30 10612 H 1008.1 2.2914 2.99624 0
M  V30 10613 H 1010.49 1.37808 2.60946 0
M  V30 10614 H 1010.57 2.30676 1.10554 0
M  V30 10615 H 1010.22 4.45501 2.43909 0
M  V30 10616 H 1010.15 3.49554 3.93853 0
M  V30 10617 H 1012.64 2.79597 2.54232 0
M  V30 10618 H 1012.95 6.11964 4.71932 0
M  V30 10619 H 1011.29 5.49931 4.24972 0
M  V30 10620 H 1014.49 3.51946 3.08629 0
M  V30 10621 H 1014.66 5.03493 4.0792 0
M  V30 10622 N 1008.06 -1.15214 1.07534 0
M  V30 10623 C 1009.48 -1.38031 0.801228 0
M  V30 10624 C 1009.68 -1.92556 -0.593672 0
M  V30 10625 O 1008.74 -2.1325 -1.35206 0
M  V30 10626 C 1010.05 -2.34958 1.87657 0
M  V30 10627 C 1011.6 -2.48617 1.90154 0
M  V30 10628 C 1012.07 -3.48837 2.96777 0
M  V30 10629 N 1013.56 -3.56374 2.95892 0
M  V30 10630 C 1014.3 -4.33746 3.75036 0
M  V30 10631 N 1013.79 -5.14435 4.64036 0
M  V30 10632 N 1015.59 -4.28853 3.63375 0
M  V30 10633 H 1007.74 -0.781639 1.97495 0
M  V30 10634 H 1010 -0.406243 0.856546 0
M  V30 10635 H 1009.71 -2.02013 2.87895 0
M  V30 10636 H 1009.58 -3.3476 1.73827 0
M  V30 10637 H 1011.97 -2.80859 0.905666 0
M  V30 10638 H 1012.05 -1.48808 2.08062 0
M  V30 10639 H 1011.69 -3.1733 3.96565 0
M  V30 10640 H 1011.62 -4.48406 2.76116 0
M  V30 10641 H 1014.11 -2.98784 2.31379 0
M  V30 10642 H 1014.43 -5.70722 5.21053 0
M  V30 10643 H 1012.77 -5.13734 4.68084 0
M  V30 10644 H 1015.96 -3.64882 2.93221 0
M  V30 10645 H 1016.14 -4.88903 4.25298 0
M  V30 10646 N 1009.54 -0.859717 -1.32086 0
M  V30 10647 C 1010.51 -0.313005 -2.27053 0
M  V30 10648 C 1011.51 0.530191 -1.51808 0
M  V30 10649 O 1012.7 0.340972 -1.7083 0
M  V30 10650 C 1009.83 0.5566 -3.36325 0
M  V30 10651 H 1011.02 -1.15125 -2.76923 0
M  V30 10652 H 1008.57 -0.634463 -1.42843 0
M  V30 10653 H 1009.31 1.41645 -2.91731 0
M  V30 10654 H 1009.09 -0.0470197 -3.92072 0
M  V30 10655 H 1010.58 0.931725 -4.07073 0
M  V30 10656 N 1011.02 1.44971 -0.618145 0
M  V30 10657 C 1012.44 1.57077 -0.282666 0
M  V30 10658 C 1012.64 1.60782 1.21456 0
M  V30 10659 O 1011.69 1.54382 1.99806 0
M  V30 10660 C 1013.01 2.84858 -0.963148 0
M  V30 10661 C 1014.55 2.9855 -0.940062 0
M  V30 10662 C 1015.03 4.29115 -1.60076 0
M  V30 10663 N 1016.52 4.35899 -1.56674 0
M  V30 10664 C 1017.25 5.35617 -2.04701 0
M  V30 10665 N 1016.75 6.41813 -2.6086 0
M  V30 10666 N 1018.54 5.27042 -1.95406 0
M  V30 10667 H 1010.69 1.4081 -1.59017 0
M  V30 10668 H 1012.96 0.673914 -0.666741 0
M  V30 10669 H 1012.66 2.88059 -2.0178 0
M  V30 10670 H 1012.54 3.73966 -0.492901 0
M  V30 10671 H 1014.92 2.94909 0.10607 0
M  V30 10672 H 1015.01 2.10825 -1.44868 0
M  V30 10673 H 1014.65 4.33514 -2.64627 0
M  V30 10674 H 1014.58 5.15675 -1.06708 0
M  V30 10675 H 1017.07 3.59766 -1.15659 0
M  V30 10676 H 1017.38 7.14166 -2.95273 0
M  V30 10677 H 1015.73 6.42534 -2.64905 0
M  V30 10678 H 1018.92 4.42987 -1.51263 0
M  V30 10679 H 1019.09 6.04604 -2.33147 0
M  V30 10680 N 1012.5 0.357919 1.53482 0
M  V30 10681 C 1013.72 -0.237769 2.06033 0
M  V30 10682 C 1014.15 -1.42292 1.23023 0
M  V30 10683 O 1013.51 -1.79604 0.247427 0
M  V30 10684 C 1013.55 -0.616806 3.55286 0
M  V30 10685 O 1012.66 -1.71503 3.75047 0
M  V30 10686 H 1012 -0.0364322 0.663 0
M  V30 10687 H 1014.53 0.516301 1.97979 0
M  V30 10688 H 1014.54 -0.88996 3.98175 0
M  V30 10689 H 1013.21 0.249825 4.15149 0
M  V30 10690 H 1011.79 -1.43803 3.44057 0
M  V30 10691 N 1013.98 -1.5736 0.0868897 0
M  V30 10692 C 1015.22 -1.94341 -0.579598 0
M  V30 10693 C 1015.56 -0.968238 -1.68341 0
M  V30 10694 O 1014.83 8.29649e-05 -1.945 0
M  V30 10695 C 1015.11 -3.41497 -1.14245 0
M  V30 10696 C 1014.97 -4.49778 -0.044255 0
M  V30 10697 C 1016.29 -3.89788 -2.04336 0
M  V30 10698 H 1013.4 -0.70668 -0.20922 0
M  V30 10699 H 1016.05 -1.89359 0.15593 0
M  V30 10700 H 1014.2 -3.45873 -1.76929 0
M  V30 10701 H 1015.87 -4.57517 0.58959 0
M  V30 10702 H 1014.11 -4.293 0.623207 0
M  V30 10703 H 1014.78 -5.4992 -0.478749 0
M  V30 10704 H 1017.26 -3.87513 -1.51569 0
M  V30 10705 H 1016.13 -4.93335 -2.40648 0
M  V30 10706 H 1016.4 -3.28603 -2.95757 0
M  V30 10707 N 1015.45 0.186762 -1.56489 0
M  V30 10708 C 1016.42 1.21511 -1.94339 0
M  V30 10709 C 1017.42 1.38001 -0.82537 0
M  V30 10710 O 1018.61 1.3567 -1.09266 0
M  V30 10711 C 1015.74 2.583 -2.22472 0
M  V30 10712 H 1016.93 0.891371 -2.86347 0
M  V30 10713 H 1014.49 0.428612 -1.50308 0
M  V30 10714 H 1015.22 2.95715 -1.33129 0
M  V30 10715 H 1015.01 2.47701 -3.03951 0
M  V30 10716 H 1016.5 3.32441 -2.5273 0
M  V30 10717 N 1016.93 1.50896 0.454776 0
M  V30 10718 C 1018.16 1.66759 1.23313 0
M  V30 10719 C 1018.58 0.35722 1.84677 0
M  V30 10720 O 1017.94 -0.680771 1.68033 0
M  V30 10721 C 1017.99 2.77254 2.3057 0
M  V30 10722 O 1017.09 2.39642 3.35627 0
M  V30 10723 H 1016.43 0.556599 0.362068 0
M  V30 10724 H 1018.96 1.97365 0.539274 0
M  V30 10725 H 1018.97 3.0082 2.75629 0
M  V30 10726 H 1017.65 3.72349 1.85281 0
M  V30 10727 H 1016.23 2.26584 2.96165 0
M  V30 10728 N 1018.41 -0.709066 1.40748 0
M  V30 10729 C 1019.34 -1.83412 1.37451 0
M  V30 10730 C 1020.36 -1.60394 0.27884 0
M  V30 10731 O 1021.54 -1.70147 0.539642 0
M  V30 10732 C 1018.64 -3.19935 1.1178 0
M  V30 10733 C 1017.82 -3.70095 2.33128 0
M  V30 10734 C 1016.88 -4.85249 2.03518 0
M  V30 10735 O 1015.9 -4.97563 2.76442 0
M  V30 10736 N 1017.1 -5.7152 1.01714 0
M  V30 10737 H 1019.87 -1.86736 2.34414 0
M  V30 10738 H 1017.43 -0.890863 1.35186 0
M  V30 10739 H 1019.42 -3.94578 0.899464 0
M  V30 10740 H 1017.99 -3.11718 0.234624 0
M  V30 10741 H 1017.21 -2.8651 2.70751 0
M  V30 10742 H 1018.5 -4.00344 3.1401 0
M  V30 10743 H 1017.9 -5.64188 0.413307 0
M  V30 10744 H 1016.46 -6.46119 0.858696 0
M  V30 10745 N 1019.89 -1.26353 -0.941956 0
M  V30 10746 C 1021.11 -1.14731 -1.72776 0
M  V30 10747 C 1021.54 0.293766 -1.85792 0
M  V30 10748 O 1020.9 1.21284 -1.34759 0
M  V30 10749 C 1020.95 -1.82041 -3.11277 0
M  V30 10750 O 1020.05 -1.10867 -3.97218 0
M  V30 10751 H 1019.39 -0.399823 -0.53013 0
M  V30 10752 H 1021.92 -1.67157 -1.17981 0
M  V30 10753 H 1021.93 -1.88834 -3.61671 0
M  V30 10754 H 1020.61 -2.86879 -3.0112 0
M  V30 10755 H 1019.18 -1.12044 -3.55669 0
M  V30 10756 N 1021.37 1.14642 -1.08144 0
M  V30 10757 C 1022.62 1.84964 -0.804437 0
M  V30 10758 C 1022.93 1.8369 0.672106 0
M  V30 10759 O 1024.14 2.49775 1.06417 0
M  V30 10760 C 1022.59 3.32015 -1.38904 0
M  V30 10761 C 1022.2 3.41713 -2.89718 0
M  V30 10762 C 1023.94 4.07467 -1.19041 0
M  V30 10763 C 1021.85 4.82958 -3.41329 0
M  V30 10764 H 1020.78 0.692932 -0.297256 0
M  V30 10765 H 1023.43 1.29255 -1.30251 0
M  V30 10766 H 1021.81 3.87445 -0.818679 0
M  V30 10767 H 1022.99 2.96347 -3.52867 0
M  V30 10768 H 1021.3 2.79713 -3.08463 0
M  V30 10769 H 1023.9 5.1172 -1.55069 0
M  V30 10770 H 1024.24 4.16097 -0.130027 0
M  V30 10771 H 1024.78 3.58329 -1.72757 0
M  V30 10772 H 1021.51 4.79515 -4.46929 0
M  V30 10773 H 1021.03 5.28873 -2.82937 0
M  V30 10774 H 1022.71 5.51841 -3.37759 0
M  V30 10775 N 1022.85 0.866709 1.31628 0
M  V30 10776 C 1024.09 0.472185 1.96095 0
M  V30 10777 C 1024.41 -0.979873 1.69286 0
M  V30 10778 O 1025.61 -1.48039 2.27589 0
M  V30 10779 C 1024.07 0.793468 3.51044 0
M  V30 10780 C 1023.68 2.26206 3.86697 0
M  V30 10781 C 1025.42 0.467255 4.21921 0
M  V30 10782 C 1023.33 2.52593 5.34743 0
M  V30 10783 H 1022.26 0.172846 0.733921 0
M  V30 10784 H 1024.91 1.05916 1.49847 0
M  V30 10785 H 1023.29 0.135783 3.95767 0
M  V30 10786 H 1024.47 2.96254 3.52945 0
M  V30 10787 H 1022.78 2.55399 3.28877 0
M  V30 10788 H 1025.38 0.641669 5.30836 0
M  V30 10789 H 1025.72 -0.592065 4.12068 0
M  V30 10790 H 1026.25 1.08134 3.82821 0
M  V30 10791 H 1022.99 3.57196 5.49628 0
M  V30 10792 H 1022.51 1.87136 5.6986 0
M  V30 10793 H 1024.19 2.37156 6.01968 0
M  V30 10794 N 1024.32 -1.44642 0.625825 0
M  V30 10795 C 1025.29 -2.29085 -0.072526 0
M  V30 10796 C 1026.29 -1.40755 -0.777467 0
M  V30 10797 O 1027.48 -1.62684 -0.622861 0
M  V30 10798 C 1024.61 -3.22212 -1.1132 0
M  V30 10799 H 1025.8 -2.92317 0.670124 0
M  V30 10800 H 1023.35 -1.51466 0.38571 0
M  V30 10801 H 1024.09 -2.63819 -1.88601 0
M  V30 10802 H 1023.87 -3.87299 -0.611709 0
M  V30 10803 H 1025.36 -3.8566 -1.60175 0
M  V30 10804 N 1025.8 -0.366053 -1.5329 0
M  V30 10805 C 1027.03 0.22391 -2.05383 0
M  V30 10806 C 1027.44 1.42962 -1.23929 0
M  V30 10807 O 1026.78 1.81659 -0.273072 0
M  V30 10808 C 1026.84 0.681038 -3.5299 0
M  V30 10809 C 1026.51 -0.40805 -4.55175 0
M  V30 10810 C 1027.51 -1.25806 -5.04449 0
M  V30 10811 C 1025.19 -0.568428 -4.99073 0
M  V30 10812 C 1027.18 -2.25379 -5.96224 0
M  V30 10813 C 1024.87 -1.56752 -5.90654 0
M  V30 10814 C 1025.87 -2.40864 -6.39119 0
M  V30 10815 O 1025.56 -3.39069 -7.28895 0
M  V30 10816 H 1025.29 0.0429593 -0.674634 0
M  V30 10817 H 1027.84 -0.522897 -1.98633 0
M  V30 10818 H 1026.07 1.47945 -3.5728 0
M  V30 10819 H 1027.76 1.19406 -3.8794 0
M  V30 10820 H 1028.53 -1.14536 -4.71282 0
M  V30 10821 H 1024.41 0.0764858 -4.60937 0
M  V30 10822 H 1027.95 -2.91068 -6.33976 0
M  V30 10823 H 1023.85 -1.6807 -6.23236 0
M  V30 10824 H 1024.62 -3.34804 -7.46893 0
M  V30 10825 N 1027.28 1.57312 -0.0952337 0
M  V30 10826 C 1028.51 1.98697 0.57682 0
M  V30 10827 C 1028.92 0.974347 1.61716 0
M  V30 10828 O 1028.28 -0.036022 1.82464 0
M  V30 10829 C 1028.33 3.40133 1.2244 0
M  V30 10830 O 1028.05 4.37518 0.225678 0
M  V30 10831 C 1029.55 3.96522 1.98205 0
M  V30 10832 H 1026.77 0.65294 0.154629 0
M  V30 10833 H 1029.32 2.03754 -0.174562 0
M  V30 10834 H 1027.47 3.3609 1.92671 0
M  V30 10835 H 1027.89 5.199 0.693116 0
M  V30 10836 H 1029.36 4.97637 2.38875 0
M  V30 10837 H 1029.84 3.34347 2.84796 0
M  V30 10838 H 1030.44 4.04038 1.3279 0
M  V30 10839 N 1028.76 -0.17846 1.56586 0
M  V30 10840 C 1029.69 -1.2496 1.90946 0
M  V30 10841 C 1030.67 -1.43136 0.771424 0
M  V30 10842 O 1031.85 -1.58258 1.02405 0
M  V30 10843 C 1028.98 -2.61368 2.15417 0
M  V30 10844 C 1028.03 -2.59969 3.3811 0
M  V30 10845 S 1028.86 -2.09756 4.9271 0
M  V30 10846 C 1030.01 -3.47956 5.20267 0
M  V30 10847 H 1030.25 -0.956287 2.815 0
M  V30 10848 H 1027.78 -0.382709 1.49582 0
M  V30 10849 H 1029.74 -3.39882 2.30197 0
M  V30 10850 H 1028.4 -2.87903 1.25582 0
M  V30 10851 H 1027.59 -3.60309 3.52411 0
M  V30 10852 H 1027.19 -1.89547 3.2241 0
M  V30 10853 H 1029.49 -4.43914 5.11807 0
M  V30 10854 H 1030.43 -3.38536 6.21932 0
M  V30 10855 H 1030.84 -3.43637 4.47855 0
M  V30 10856 N 1030.24 -1.51135 -0.446768 0
M  V30 10857 C 1031.46 -1.67411 -1.22427 0
M  V30 10858 C 1031.89 -0.367009 -1.84485 0
M  V30 10859 O 1031.24 0.67185 -1.68392 0
M  V30 10860 C 1031.29 -2.78473 -2.29096 0
M  V30 10861 O 1030.4 -2.41419 -3.34351 0
M  V30 10862 H 1029.74 -0.558512 -0.359111 0
M  V30 10863 H 1032.27 -1.97648 -0.5288 0
M  V30 10864 H 1032.28 -3.02277 -2.7403 0
M  V30 10865 H 1030.95 -3.73326 -1.83304 0
M  V30 10866 H 1029.53 -2.28152 -2.9496 0
M  V30 10867 N 1031.71 0.701592 -1.41122 0
M  V30 10868 C 1032.64 1.82815 -1.45262 0
M  V30 10869 C 1033.62 1.67215 -0.311939 0
M  V30 10870 O 1034.81 1.87038 -0.522538 0
M  V30 10871 C 1031.94 3.20899 -1.32819 0
M  V30 10872 C 1030.89 3.51194 -2.44636 0
M  V30 10873 C 1030.22 4.8857 -2.17263 0
M  V30 10874 C 1031.52 3.50777 -3.86979 0
M  V30 10875 H 1033.21 1.79608 -2.39544 0
M  V30 10876 H 1030.76 0.862693 -1.15298 0
M  V30 10877 H 1032.71 3.99417 -1.34329 0
M  V30 10878 H 1031.44 3.24717 -0.350191 0
M  V30 10879 H 1030.1 2.75024 -2.42399 0
M  V30 10880 H 1029.74 4.89007 -1.17819 0
M  V30 10881 H 1029.44 5.09805 -2.92186 0
M  V30 10882 H 1030.97 5.69405 -2.20478 0
M  V30 10883 H 1032.38 4.19309 -3.90964 0
M  V30 10884 H 1030.78 3.83542 -4.61536 0
M  V30 10885 H 1031.85 2.49873 -4.15562 0
M  V30 10886 N 1033.19 1.2685 0.935242 0
M  V30 10887 C 1034.44 1.12522 1.67878 0
M  V30 10888 C 1034.76 -0.330894 1.92172 0
M  V30 10889 O 1034.03 -1.23259 1.52263 0
M  V30 10890 H 1032.61 0.413418 0.622169 0
M  V30 10891 H 1035.27 1.59267 1.12339 0
M  V30 10892 H 1034.37 1.64853 2.65009 0
M  V30 10893 N 1034.67 -1.14067 1.0875 0
M  V30 10894 C 1035.63 -2.17453 0.724341 0
M  V30 10895 C 1036.63 -1.58959 -0.242614 0
M  V30 10896 O 1037.82 -1.74186 -0.0217008 0
M  V30 10897 C 1034.96 -3.40828 0.0700236 0
M  V30 10898 H 1036.15 -2.51094 1.63987 0
M  V30 10899 H 1033.7 -1.28775 0.885813 0
M  V30 10900 H 1034.44 -3.1277 -0.857061 0
M  V30 10901 H 1034.22 -3.84551 0.76569 0
M  V30 10902 H 1035.71 -4.17258 -0.168905 0
M  V30 10903 N 1036.15 -0.873678 -1.31166 0
M  V30 10904 C 1037.06 -0.335726 -2.32185 0
M  V30 10905 C 1038.07 0.556259 -1.64869 0
M  V30 10906 O 1039.25 0.452087 -1.9626 0
M  V30 10907 C 1036.32 0.450822 -3.43756 0
M  V30 10908 C 1035.38 -0.469565 -4.26724 0
M  V30 10909 C 1034.61 0.279538 -5.32967 0
M  V30 10910 O 1034.83 1.50715 -5.50128 0
M  V30 10911 O 1033.77 -0.36452 -6.00795 0
M  V30 10912 H 1037.59 -1.17314 -2.80127 0
M  V30 10913 H 1035.18 -0.637163 -1.35132 0
M  V30 10914 H 1037.06 0.896582 -4.11752 0
M  V30 10915 H 1035.73 1.26472 -2.9797 0
M  V30 10916 H 1034.64 -0.963902 -3.61469 0
M  V30 10917 H 1035.97 -1.24916 -4.76085 0
M  V30 10918 N 1037.63 1.44308 -0.633487 0
M  V30 10919 C 1038.57 2.32455 0.0821956 0
M  V30 10920 C 1039.57 1.47482 0.833388 0
M  V30 10921 O 1040.77 1.63812 0.746021 0
M  V30 10922 H 1037.15 0.750631 0.045352 0
M  V30 10923 H 1039.12 2.90566 -0.679282 0
M  V30 10924 C 1037.87 3.31512 1.04858 0
M  V30 10925 H 1037.19 3.96908 0.479979 0
M  V30 10926 H 1038.63 3.95865 1.51879 0
M  V30 10927 C 1037.09 2.60615 2.13498 0
M  V30 10928 O 1037.62 2.40682 3.21613 0
M  V30 10929 N 1035.83 2.20315 1.89499 0
M  V30 10930 H 1035.37 2.36726 1.01581 0
M  V30 10931 H 1035.33 1.73205 2.62388 0
M  V30 10932 N 1039.1 0.374177 1.53094 0
M  V30 10933 C 1040.33 -0.215903 2.06273 0
M  V30 10934 C 1040.75 -1.40979 1.24526 0
M  V30 10935 O 1040.11 -1.79331 0.266462 0
M  V30 10936 C 1040.16 -0.579089 3.5592 0
M  V30 10937 O 1039.26 -1.67516 3.76845 0
M  V30 10938 H 1038.61 -0.0293981 0.663349 0
M  V30 10939 H 1041.14 0.537271 1.9742 0
M  V30 10940 H 1041.15 -0.847678 3.99097 0
M  V30 10941 H 1039.82 0.293843 4.14861 0
M  V30 10942 H 1038.4 -1.40146 3.45563 0
M  V30 10943 N 1040.58 -1.57259 0.103575 0
M  V30 10944 C 1041.83 -1.94945 -0.558953 0
M  V30 10945 C 1042.16 -0.986038 -1.67305 0
M  V30 10946 O 1041.44 -0.0205464 -1.94489 0
M  V30 10947 C 1041.72 -3.42689 -1.10617 0
M  V30 10948 C 1041.57 -4.498 0.00345246 0
M  V30 10949 C 1042.89 -3.91933 -2.00191 0
M  V30 10950 H 1040.01 -0.708859 -0.201713 0
M  V30 10951 H 1042.65 -1.89183 0.176006 0
M  V30 10952 H 1040.8 -3.4773 -1.73251 0
M  V30 10953 H 1042.47 -4.56866 0.638082 0
M  V30 10954 H 1040.72 -4.28615 0.668705 0
M  V30 10955 H 1041.39 -5.50397 -0.420396 0
M  V30 10956 H 1043.86 -3.89098 -1.4745 0
M  V30 10957 H 1042.74 -4.9586 -2.35402 0
M  V30 10958 H 1043 -3.31722 -2.92255 0
M  V30 10959 N 1042.06 0.170153 -1.56679 0
M  V30 10960 C 1043.02 1.19443 -1.95617 0
M  V30 10961 C 1044.02 1.37118 -0.83996 0
M  V30 10962 O 1045.21 1.34504 -1.10699 0
M  V30 10963 C 1042.35 2.55926 -2.25199 0
M  V30 10964 H 1043.54 0.86095 -2.87276 0
M  V30 10965 H 1041.09 0.412646 -1.50755 0
M  V30 10966 H 1041.83 2.94286 -1.36257 0
M  V30 10967 H 1041.61 2.44464 -3.06562 0
M  V30 10968 H 1043.1 3.29742 -2.56242 0
M  V30 10969 N 1043.54 1.5137 0.438746 0
M  V30 10970 C 1044.77 1.6753 1.20901 0
M  V30 10971 C 1045.18 0.371573 1.85515 0
M  V30 10972 O 1044.52 -0.659701 1.71446 0
M  V30 10973 C 1044.58 2.73305 2.33548 0
M  V30 10974 C 1044.25 4.15944 1.89313 0
M  V30 10975 C 1045.24 5.00769 1.39736 0
M  V30 10976 C 1042.93 4.62036 1.97047 0
M  V30 10977 C 1044.92 6.29747 0.984773 0
M  V30 10978 C 1042.61 5.91011 1.554 0
M  V30 10979 C 1043.61 6.74693 1.06197 0
M  V30 10980 O 1043.29 8.01256 0.651407 0
M  V30 10981 H 1043.03 0.565404 0.370532 0
M  V30 10982 H 1045.58 1.98543 0.526296 0
M  V30 10983 H 1043.81 2.37604 3.05092 0
M  V30 10984 H 1045.5 2.78359 2.95417 0
M  V30 10985 H 1046.27 4.66363 1.33156 0
M  V30 10986 H 1042.14 3.97025 2.34291 0
M  V30 10987 H 1045.69 6.95015 0.600029 0
M  V30 10988 H 1041.59 6.24932 1.6165 0
M  V30 10989 H 1042.35 8.148 0.777382 0
M  V30 10990 N 1045.02 -0.694098 1.41492 0
M  V30 10991 C 1046.24 -1.48789 1.44488 0
M  V30 10992 C 1046.67 -1.88028 0.0521588 0
M  V30 10993 O 1046.02 -1.54727 -0.944952 0
M  V30 10994 C 1046.07 -2.72586 2.3607 0
M  V30 10995 O 1045.18 -3.70128 1.81876 0
M  V30 10996 H 1044.52 -0.447758 0.490315 0
M  V30 10997 H 1047.05 -0.853036 1.85969 0
M  V30 10998 H 1047.06 -3.20877 2.51995 0
M  V30 10999 H 1045.73 -2.43363 3.37264 0
M  V30 11000 H 1044.31 -3.29069 1.75408 0
M  V30 11001 N 1046.49 -1.27344 -0.928501 0
M  V30 11002 C 1047.44 -1.09835 -2.05034 0
M  V30 11003 C 1048.44 -0.0216643 -1.69386 0
M  V30 11004 O 1049.64 -0.179323 -1.79105 0
M  V30 11005 H 1046.02 -0.338416 -0.671549 0
M  V30 11006 H 1047.99 -2.04879 -2.1695 0
M  V30 11007 C 1046.74 -0.761462 -3.3926 0
M  V30 11008 H 1046.06 -1.58186 -3.67175 0
M  V30 11009 H 1047.5 -0.678812 -4.18531 0
M  V30 11010 C 1045.96 0.534118 -3.32639 0
M  V30 11011 O 1046.49 1.56877 -3.69801 0
M  V30 11012 N 1044.7 0.529437 -2.85736 0
M  V30 11013 H 1044.24 -0.312954 -2.55692 0
M  V30 11014 H 1044.2 1.39637 -2.81689 0
M  V30 11015 N 1047.97 1.13488 -1.09353 0
M  V30 11016 C 1048.92 2.20949 -0.726923 0
M  V30 11017 C 1049.91 1.67205 0.271816 0
M  V30 11018 O 1051.12 1.79505 0.133356 0
M  V30 11019 H 1047.5 0.719985 -0.217086 0
M  V30 11020 H 1049.47 2.49134 -1.6424 0
M  V30 11021 C 1048.22 3.47319 -0.162822 0
M  V30 11022 H 1047.54 3.89011 -0.922527 0
M  V30 11023 H 1048.98 4.23963 0.0557734 0
M  V30 11024 C 1047.44 3.18376 1.10175 0
M  V30 11025 O 1047.97 3.3707 2.18511 0
M  V30 11026 N 1046.17 2.72262 1.01597 0
M  V30 11027 H 1045.72 2.5725 0.134289 0
M  V30 11028 H 1045.68 2.53272 1.86281 0
M  V30 11029 N 1049.45 0.880621 1.30701 0
M  V30 11030 C 1050.68 0.510909 2.01009 0
M  V30 11031 C 1051.1 -0.892041 1.65603 0
M  V30 11032 O 1050.46 -1.59045 0.870309 0
M  V30 11033 C 1050.51 0.687759 3.53981 0
M  V30 11034 O 1049.61 -0.268275 4.11526 0
M  V30 11035 H 1048.95 0.201864 0.632572 0
M  V30 11036 H 1051.48 1.18697 1.6665 0
M  V30 11037 H 1051.49 0.585095 4.03783 0
M  V30 11038 H 1050.17 1.71068 3.79089 0
M  V30 11039 H 1048.74 -0.119673 3.72708 0
M  V30 11040 N 1050.93 -1.4397 0.641131 0
M  V30 11041 C 1052.18 -2.01163 0.147026 0
M  V30 11042 C 1052.49 -1.51099 -1.24211 0
M  V30 11043 O 1053.7 -2.00487 -1.83078 0
M  V30 11044 C 1052.15 -3.59275 0.212068 0
M  V30 11045 C 1051.76 -4.18334 1.60314 0
M  V30 11046 C 1053.51 -4.23903 -0.225057 0
M  V30 11047 C 1051.41 -5.68701 1.62276 0
M  V30 11048 H 1050.34 -0.75226 0.051201 0
M  V30 11049 H 1052.99 -1.65075 0.801396 0
M  V30 11050 H 1051.38 -3.92708 -0.509589 0
M  V30 11051 H 1052.55 -3.96422 2.34918 0
M  V30 11052 H 1050.86 -3.66031 1.9852 0
M  V30 11053 H 1053.46 -5.34205 -0.230074 0
M  V30 11054 H 1053.8 -3.96956 -1.25426 0
M  V30 11055 H 1054.34 -3.95309 0.44444 0
M  V30 11056 H 1051.08 -6.00397 2.63066 0
M  V30 11057 H 1050.6 -5.92705 0.919797 0
M  V30 11058 H 1052.28 -6.32521 1.36112 0
M  V30 11059 N 1052.41 -0.382291 -1.52893 0
M  V30 11060 C 1053.37 0.44408 -2.24857 0
M  V30 11061 C 1054.37 0.996004 -1.26239 0
M  V30 11062 O 1055.56 0.879114 -1.5039 0
M  V30 11063 C 1052.69 1.62234 -2.99822 0
M  V30 11064 H 1053.89 -0.185862 -2.99324 0
M  V30 11065 H 1051.44 -0.134275 -1.55722 0
M  V30 11066 H 1052.17 2.28991 -2.29638 0
M  V30 11067 H 1051.96 1.23336 -3.72197 0
M  V30 11068 H 1053.45 2.20756 -3.54481 0
M  V30 11069 N 1053.89 1.57202 -0.111913 0
M  V30 11070 C 1055.13 1.94125 0.547573 0
M  V30 11071 C 1055.45 0.997026 1.68282 0
M  V30 11072 O 1056.65 1.26063 2.40459 0
M  V30 11073 C 1055.11 3.44982 1.02545 0
M  V30 11074 C 1054.72 4.47927 -0.0809529 0
M  V30 11075 C 1056.46 3.90837 1.65671 0
M  V30 11076 C 1054.37 5.89955 0.413224 0
M  V30 11077 H 1053.3 0.724651 0.208321 0
M  V30 11078 H 1055.95 1.82507 -0.190625 0
M  V30 11079 H 1054.33 3.5181 1.81785 0
M  V30 11080 H 1055.51 4.52761 -0.857003 0
M  V30 11081 H 1053.82 4.11782 -0.618434 0
M  V30 11082 H 1056.42 4.9436 2.03746 0
M  V30 11083 H 1056.76 3.30417 2.53239 0
M  V30 11084 H 1057.29 3.8678 0.929844 0
M  V30 11085 H 1054.03 6.54113 -0.426238 0
M  V30 11086 H 1053.55 5.88557 1.15591 0
M  V30 11087 H 1055.23 6.41032 0.876756 0
M  V30 11088 N 1055.36 -0.161842 1.56767 0
M  V30 11089 C 1056.77 -0.723385 1.72116 0
M  V30 11090 C 1057.13 -1.82355 0.723961 0
M  V30 11091 O 1056.25 -2.16107 -0.112643 0
M  V30 11092 C 1056.85 -1.31895 3.12072 0
M  V30 11093 C 1055.4 -1.82722 3.29074 0
M  V30 11094 C 1054.55 -0.709863 2.6806 0
M  V30 11095 H 1057.5 0.0636647 1.58572 0
M  V30 11096 H 1057.52 -2.18871 3.11249 0
M  V30 11097 H 1057.04 -0.51801 3.84627 0
M  V30 11098 H 1055.14 -2.6543 2.61491 0
M  V30 11099 H 1055.25 -1.96614 4.36898 0
M  V30 11100 H 1053.61 -1.13273 2.28126 0
M  V30 11101 H 1054.4 0.0793884 3.43208 0
M  V30 11102 N 1056.84 -1.516 -0.430713 0
M  V30 11103 C 1058.07 -1.68414 -1.20185 0
M  V30 11104 C 1058.48 -0.384297 -1.84847 0
M  V30 11105 O 1057.84 0.637808 -1.70992 0
M  V30 11106 C 1057.89 -2.80451 -2.28099 0
M  V30 11107 O 1057.61 -4.05399 -1.66081 0
M  V30 11108 C 1059.11 -3.0859 -3.18256 0
M  V30 11109 H 1056.33 -0.564982 -0.361989 0
M  V30 11110 H 1058.88 -1.9805 -0.50954 0
M  V30 11111 H 1057.03 -2.53395 -2.93036 0
M  V30 11112 H 1057.45 -4.67671 -2.37453 0
M  V30 11113 H 1058.92 -3.9055 -3.90096 0
M  V30 11114 H 1059.4 -2.21264 -3.79393 0
M  V30 11115 H 1060 -3.37331 -2.59014 0
M  V30 11116 N 1058.32 0.686584 -1.41858 0
M  V30 11117 C 1059.27 1.82167 -1.4463 0
M  V30 11118 C 1060.26 1.66286 -0.323313 0
M  V30 11119 O 1061.47 1.73038 -0.495773 0
M  V30 11120 H 1057.84 0.600454 -0.452724 0
M  V30 11121 H 1059.81 1.76947 -2.40276 0
M  V30 11122 C 1058.56 3.20248 -1.35412 0
M  V30 11123 H 1057.89 3.33089 -2.21115 0
M  V30 11124 H 1059.33 3.99723 -1.41413 0
M  V30 11125 C 1057.78 3.36832 -0.0674972 0
M  V30 11126 O 1058.31 3.91845 0.884325 0
M  V30 11127 N 1056.52 2.90598 0.011519 0
M  V30 11128 H 1056.07 2.46016 -0.76381 0
M  V30 11129 H 1056.03 3.02072 0.871774 0
M  V30 11130 N 1059.8 1.27835 0.921735 0
M  V30 11131 C 1061.04 1.14523 1.67005 0
M  V30 11132 C 1061.37 -0.307776 1.92049 0
M  V30 11133 O 1060.63 -1.24103 1.51317 0
M  V30 11134 C 1060.93 1.88054 3.03925 0
M  V30 11135 C 1060.59 3.37886 2.9857 0
M  V30 11136 C 1059.25 3.78752 2.96817 0
M  V30 11137 C 1061.61 4.33462 2.89414 0
M  V30 11138 C 1058.93 5.13549 2.83698 0
M  V30 11139 C 1061.29 5.68322 2.77836 0
M  V30 11140 C 1059.95 6.08475 2.74436 0
M  V30 11141 H 1059.22 0.419068 0.611116 0
M  V30 11142 H 1061.87 1.58515 1.07449 0
M  V30 11143 H 1060.17 1.36587 3.67221 0
M  V30 11144 H 1061.87 1.75176 3.60714 0
M  V30 11145 H 1058.46 3.05389 3.00725 0
M  V30 11146 H 1062.64 4.02857 2.89862 0
M  V30 11147 H 1057.9 5.43796 2.79456 0
M  V30 11148 H 1062.07 6.42048 2.69717 0
M  V30 11149 H 1059.7 7.12877 2.64027 0
M  V30 11150 N 1061.28 -1.12907 1.09954 0
M  V30 11151 C 1062.5 -1.88138 0.860905 0
M  V30 11152 C 1062.92 -1.79402 -0.588256 0
M  V30 11153 O 1062.28 -1.16442 -1.40526 0
M  V30 11154 C 1062.33 -3.37537 1.29425 0
M  V30 11155 O 1062.05 -3.46056 2.68658 0
M  V30 11156 C 1063.55 -4.29721 1.08879 0
M  V30 11157 H 1060.77 -0.595437 0.309347 0
M  V30 11158 H 1063.31 -1.42894 1.46292 0
M  V30 11159 H 1061.47 -3.80344 0.736009 0
M  V30 11160 H 1061.88 -4.38969 2.87065 0
M  V30 11161 H 1063.36 -5.32854 1.4412 0
M  V30 11162 H 1063.83 -4.39192 0.0270053 0
M  V30 11163 H 1064.44 -3.9269 1.63325 0
M  V30 11164 N 1062.75 -0.88754 -1.30232 0
M  V30 11165 C 1064 -0.503322 -1.95319 0
M  V30 11166 C 1064.32 0.952817 -1.70824 0
M  V30 11167 O 1065.52 1.444 -2.29915 0
M  V30 11168 C 1063.98 -0.849216 -3.49738 0
M  V30 11169 C 1063.59 -2.3233 -3.83049 0
M  V30 11170 C 1065.33 -0.53432 -4.21124 0
M  V30 11171 C 1063.24 -2.61069 -5.30657 0
M  V30 11172 H 1062.17 -0.1845 -0.731078 0
M  V30 11173 H 1064.82 -1.08287 -1.48143 0
M  V30 11174 H 1063.2 -0.198729 -3.95501 0
M  V30 11175 H 1064.37 -3.01832 -3.48187 0
M  V30 11176 H 1062.69 -2.60599 -3.24773 0
M  V30 11177 H 1065.29 -0.726039 -5.29748 0
M  V30 11178 H 1065.63 0.526434 -4.12958 0
M  V30 11179 H 1066.16 -1.14211 -3.81052 0
M  V30 11180 H 1062.9 -3.65895 -5.43876 0
M  V30 11181 H 1062.42 -1.96179 -5.6681 0
M  V30 11182 H 1064.1 -2.46703 -5.98119 0
M  V30 11183 N 1064.23 1.43628 -0.648757 0
M  V30 11184 C 1065.46 2.06732 -0.166284 0
M  V30 11185 C 1065.88 1.48281 1.15734 0
M  V30 11186 O 1065.24 0.591018 1.71396 0
M  V30 11187 C 1065.29 3.60502 -0.0838732 0
M  V30 11188 O 1064.39 4.01186 0.955185 0
M  V30 11189 H 1063.73 0.657479 -0.0928285 0
M  V30 11190 H 1066.26 1.84208 -0.890421 0
M  V30 11191 H 1066.27 4.07875 0.100923 0
M  V30 11192 H 1064.95 4.02424 -1.05014 0
M  V30 11193 H 1063.53 3.65412 0.743537 0
M  V30 11194 N 1065.71 0.390394 1.52688 0
M  V30 11195 C 1066.96 -0.191729 2.01892 0
M  V30 11196 C 1067.29 -1.4637 1.27631 0
M  V30 11197 O 1066.56 -1.90809 0.377094 0
M  V30 11198 C 1066.85 -0.458535 3.57169 0
M  V30 11199 C 1066.7 0.828796 4.42098 0
M  V30 11200 C 1068.02 -1.2487 4.22014 0
M  V30 11201 H 1065.14 -0.0682091 0.733837 0
M  V30 11202 H 1067.78 0.520176 1.82741 0
M  V30 11203 H 1065.93 -1.06498 3.73618 0
M  V30 11204 H 1067.6 1.46562 4.37398 0
M  V30 11205 H 1065.85 1.44388 4.09066 0
M  V30 11206 H 1066.52 0.596746 5.48765 0
M  V30 11207 H 1068.99 -0.735452 4.09549 0
M  V30 11208 H 1067.87 -1.40412 5.30637 0
M  V30 11209 H 1068.13 -2.2642 3.79719 0
M  V30 11210 N 1067.19 -1.57141 0.120249 0
M  V30 11211 C 1068.42 -1.99589 -0.545136 0
M  V30 11212 C 1068.83 -0.999951 -1.60145 0
M  V30 11213 O 1068.19 0.00698897 -1.82499 0
M  V30 11214 C 1068.24 -3.42038 -1.17014 0
M  V30 11215 O 1067.96 -4.37822 -0.156044 0
M  V30 11216 C 1069.46 -3.99625 -1.91872 0
M  V30 11217 H 1066.68 -0.655318 -0.144222 0
M  V30 11218 H 1069.23 -2.0345 0.206955 0
M  V30 11219 H 1067.38 -3.39113 -1.873 0
M  V30 11220 H 1067.79 -5.20937 -0.610317 0
M  V30 11221 H 1069.27 -5.01374 -2.30928 0
M  V30 11222 H 1069.75 -3.38836 -2.7944 0
M  V30 11223 H 1070.35 -4.061 -1.26345 0
M  V30 11224 N 1068.67 0.153526 -1.5685 0
M  V30 11225 C 1069.89 0.882335 -1.87143 0
M  V30 11226 C 1070.31 1.75034 -0.707702 0
M  V30 11227 O 1069.67 1.79624 0.32273 0
M  V30 11228 C 1069.72 1.74444 -3.16625 0
M  V30 11229 O 1069.44 0.911419 -4.28515 0
M  V30 11230 C 1070.94 2.58139 -3.60388 0
M  V30 11231 H 1068.16 0.25546 -0.620469 0
M  V30 11232 H 1070.7 0.148275 -2.03962 0
M  V30 11233 H 1068.86 2.43163 -3.0158 0
M  V30 11234 H 1069.27 1.50268 -5.02513 0
M  V30 11235 H 1070.75 3.14215 -4.53842 0
M  V30 11236 H 1071.22 3.33865 -2.85361 0
M  V30 11237 H 1071.83 1.94721 -3.78105 0
M  V30 11238 N 1070.14 1.51827 0.422667 0
M  V30 11239 C 1071.05 1.77066 1.53899 0
M  V30 11240 C 1072.07 0.655541 1.61179 0
M  V30 11241 O 1073.25 0.939448 1.78147 0
M  V30 11242 C 1070.31 1.90372 2.89758 0
M  V30 11243 C 1069.37 3.14256 2.92475 0
M  V30 11244 C 1068.61 3.26918 4.21853 0
M  V30 11245 O 1068.83 2.45164 5.15025 0
M  V30 11246 O 1067.76 4.19989 4.31153 0
M  V30 11247 H 1071.59 2.71791 1.35511 0
M  V30 11248 H 1069.17 1.36506 0.607165 0
M  V30 11249 H 1071.06 2.01024 3.70361 0
M  V30 11250 H 1069.73 0.988347 3.08242 0
M  V30 11251 H 1068.64 3.09072 2.10773 0
M  V30 11252 H 1069.97 4.0553 2.78937 0
M  V30 11253 N 1071.62 -0.679052 1.4222 0
M  V30 11254 C 1072.87 -1.43485 1.41757 0
M  V30 11255 C 1073.18 -1.95567 0.0358698 0
M  V30 11256 O 1074.39 -2.71346 -0.0913713 0
M  V30 11257 C 1072.85 -2.59541 2.49332 0
M  V30 11258 C 1072.45 -2.14176 3.93488 0
M  V30 11259 C 1074.2 -3.37078 2.58029 0
M  V30 11260 C 1072.11 -3.27289 4.92581 0
M  V30 11261 H 1071.04 -0.539022 0.52723 0
M  V30 11262 H 1073.69 -0.735581 1.68111 0
M  V30 11263 H 1072.07 -3.31815 2.16135 0
M  V30 11264 H 1073.24 -1.49082 4.36017 0
M  V30 11265 H 1071.56 -1.49589 3.88603 0
M  V30 11266 H 1074.15 -4.21312 3.29242 0
M  V30 11267 H 1074.5 -3.83383 1.62245 0
M  V30 11268 H 1075.03 -2.7187 2.90399 0
M  V30 11269 H 1071.77 -2.8598 5.89827 0
M  V30 11270 H 1071.29 -3.91178 4.54687 0
M  V30 11271 H 1072.97 -3.9282 5.14103 0
M  V30 11272 N 1073.1 -1.28322 -0.914942 0
M  V30 11273 C 1074.03 -1.14681 -2.03398 0
M  V30 11274 C 1075.01 -0.0448939 -1.70041 0
M  V30 11275 O 1076.2 -0.221672 -1.92931 0
M  V30 11276 C 1073.33 -0.806623 -3.37803 0
M  V30 11277 C 1072.28 -1.86318 -3.85318 0
M  V30 11278 C 1071.61 -1.37665 -5.16674 0
M  V30 11279 C 1072.91 -3.26953 -4.07307 0
M  V30 11280 H 1074.6 -2.08293 -2.15068 0
M  V30 11281 H 1072.15 -1.00284 -1.03339 0
M  V30 11282 H 1074.1 -0.69796 -4.1558 0
M  V30 11283 H 1072.82 0.165203 -3.26182 0
M  V30 11284 H 1071.48 -1.96096 -3.09745 0
M  V30 11285 H 1071.13 -0.393927 -5.01455 0
M  V30 11286 H 1070.83 -2.08313 -5.49435 0
M  V30 11287 H 1072.35 -1.28119 -5.97007 0
M  V30 11288 H 1073.77 -3.20102 -4.75613 0
M  V30 11289 H 1072.17 -3.95424 -4.51398 0
M  V30 11290 H 1073.24 -3.71059 -3.12159 0
M  V30 11291 N 1074.58 1.12322 -1.10551 0
M  V30 11292 C 1075.99 1.6539 -0.8662 0
M  V30 11293 C 1076.34 1.86695 0.603284 0
M  V30 11294 O 1075.47 1.59432 1.46323 0
M  V30 11295 C 1076.06 3.00443 -1.56587 0
M  V30 11296 C 1074.62 3.50456 -1.37323 0
M  V30 11297 C 1073.77 2.25454 -1.61449 0
M  V30 11298 H 1076.72 0.960866 -1.26305 0
M  V30 11299 H 1076.74 3.66972 -1.00557 0
M  V30 11300 H 1076.25 2.84905 -2.63535 0
M  V30 11301 H 1074.35 3.71176 -0.325431 0
M  V30 11302 H 1074.46 4.29839 -2.11601 0
M  V30 11303 H 1072.83 2.32621 -1.03729 0
M  V30 11304 H 1073.61 2.12469 -2.69651 0
M  V30 11305 N 1076.06 0.894434 1.2976 0
M  V30 11306 C 1077.3 0.518435 1.96061 0
M  V30 11307 C 1077.64 -0.931882 1.70381 0
M  V30 11308 O 1076.91 -1.65988 1.01381 0
M  V30 11309 C 1077.19 0.80519 3.50982 0
M  V30 11310 C 1077.05 2.30683 3.86142 0
M  V30 11311 C 1078.37 0.288096 4.39156 0
M  V30 11312 H 1075.48 0.18983 0.712133 0
M  V30 11313 H 1078.13 1.12016 1.53468 0
M  V30 11314 H 1076.28 0.293071 3.87393 0
M  V30 11315 H 1077.95 2.88808 3.59705 0
M  V30 11316 H 1076.19 2.76968 3.33873 0
M  V30 11317 H 1076.86 2.45805 4.94251 0
M  V30 11318 H 1079.34 0.726547 4.09708 0
M  V30 11319 H 1078.21 0.517985 5.4645 0
M  V30 11320 H 1078.48 -0.811018 4.34597 0
M  V30 11321 N 1077.53 -1.43282 0.656365 0
M  V30 11322 C 1078.76 -2.06641 0.177245 0
M  V30 11323 C 1079.18 -1.48893 -1.14946 0
M  V30 11324 O 1078.54 -0.600099 -1.7108 0
M  V30 11325 C 1078.59 -3.60453 0.10299 0
M  V30 11326 O 1077.69 -4.01687 -0.933895 0
M  V30 11327 H 1077.04 -0.656978 0.096314 0
M  V30 11328 H 1079.57 -1.83733 0.900178 0
M  V30 11329 H 1079.58 -4.07923 -0.079291 0
M  V30 11330 H 1078.25 -4.01861 1.07147 0
M  V30 11331 H 1076.83 -3.65801 -0.724148 0
M  V30 11332 N 1079.01 -0.398486 -1.52479 0
M  V30 11333 C 1079.95 0.476551 -2.23169 0
M  V30 11334 C 1080.92 1.05665 -1.23587 0
M  V30 11335 O 1082.11 1.10654 -1.52604 0
M  V30 11336 C 1079.24 1.66048 -2.95204 0
M  V30 11337 C 1078.28 1.20478 -4.0913 0
M  V30 11338 S 1079.11 0.178711 -5.35202 0
M  V30 11339 C 1080.27 1.36821 -6.10762 0
M  V30 11340 H 1080.5 -0.123704 -2.97043 0
M  V30 11341 H 1078.04 -0.182722 -1.53315 0
M  V30 11342 H 1079.99 2.33942 -3.37315 0
M  V30 11343 H 1078.66 2.23206 -2.20993 0
M  V30 11344 H 1077.85 2.08901 -4.58668 0
M  V30 11345 H 1077.45 0.604632 -3.6908 0
M  V30 11346 H 1079.74 2.2937 -6.37492 0
M  V30 11347 H 1080.69 0.913579 -7.02182 0
M  V30 11348 H 1081.09 1.58919 -5.41669 0
M  V30 11349 N 1080.49 1.57075 -0.12858 0
M  V30 11350 C 1081.72 1.99876 0.534544 0
M  V30 11351 C 1082.13 1.00843 1.59612 0
M  V30 11352 O 1081.49 0.00268947 1.825 0
M  V30 11353 C 1081.54 3.42654 1.15198 0
M  V30 11354 O 1081.26 4.37899 0.132823 0
M  V30 11355 C 1082.76 4.00637 1.8975 0
M  V30 11356 H 1079.98 0.656073 0.140744 0
M  V30 11357 H 1082.53 2.03337 -0.217742 0
M  V30 11358 H 1080.68 3.40101 1.85499 0
M  V30 11359 H 1081.1 5.21253 0.582682 0
M  V30 11360 H 1082.57 5.02592 2.28266 0
M  V30 11361 H 1083.05 3.40313 2.7764 0
M  V30 11362 H 1083.65 4.06764 1.2419 0
M  V30 11363 N 1081.97 -0.145205 1.5693 0
M  V30 11364 C 1082.92 -1.17923 1.98401 0
M  V30 11365 C 1083.89 -1.42591 0.851885 0
M  V30 11366 O 1085.07 -1.54896 1.11409 0
M  V30 11367 C 1082.21 -2.50727 2.37128 0
M  V30 11368 C 1081.32 -2.33218 3.63639 0
M  V30 11369 C 1080.46 -3.5907 3.91462 0
M  V30 11370 C 1079.5 -3.36605 5.11237 0
M  V30 11371 N 1078.64 -4.54592 5.35061 0
M  V30 11372 H 1083.48 -0.818573 2.86537 0
M  V30 11373 H 1081.01 -0.392739 1.4176 0
M  V30 11374 H 1082.97 -3.28165 2.57611 0
M  V30 11375 H 1081.6 -2.84736 1.52069 0
M  V30 11376 H 1080.65 -1.46826 3.50922 0
M  V30 11377 H 1081.96 -2.12579 4.51234 0
M  V30 11378 H 1081.12 -4.44936 4.12453 0
M  V30 11379 H 1079.86 -3.82715 3.02293 0
M  V30 11380 H 1078.86 -2.49127 4.90118 0
M  V30 11381 H 1080.09 -3.14357 6.01961 0
M  V30 11382 H 1078.03 -4.78406 4.48847 0
M  V30 11383 H 1077.95 -4.36962 6.16928 0
M  V30 11384 H 1079.22 -5.41666 5.60551 0
M  V30 11385 N 1083.45 -1.52049 -0.414609 0
M  V30 11386 C 1084.68 -1.69679 -1.18392 0
M  V30 11387 C 1085.09 -0.403881 -1.84429 0
M  V30 11388 O 1084.45 0.619636 -1.71659 0
M  V30 11389 C 1084.5 -2.82855 -2.25112 0
M  V30 11390 O 1084.22 -4.07138 -1.61772 0
M  V30 11391 C 1085.72 -3.11948 -3.14965 0
M  V30 11392 H 1082.94 -0.56879 -0.355977 0
M  V30 11393 H 1085.48 -1.9858 -0.488505 0
M  V30 11394 H 1083.64 -2.56488 -2.90332 0
M  V30 11395 H 1084.05 -4.70163 -2.32479 0
M  V30 11396 H 1085.53 -3.94665 -3.85932 0
M  V30 11397 H 1086 -2.25276 -3.77024 0
M  V30 11398 H 1086.61 -3.40059 -2.55421 0
M  V30 11399 N 1084.93 0.6715 -1.42579 0
M  V30 11400 C 1086.15 1.46471 -1.46836 0
M  V30 11401 C 1086.58 1.87921 -0.0820658 0
M  V30 11402 O 1085.93 1.5621 0.920217 0
M  V30 11403 C 1085.98 2.68796 -2.40377 0
M  V30 11404 O 1085.09 3.67188 -1.87741 0
M  V30 11405 H 1084.43 0.439901 -0.497376 0
M  V30 11406 H 1086.96 0.823342 -1.87303 0
M  V30 11407 H 1086.97 3.16828 -2.57068 0
M  V30 11408 H 1085.64 2.37967 -3.41093 0
M  V30 11409 H 1084.22 3.26237 -1.80621 0
M  V30 11410 N 1086.4 1.28806 0.908124 0
M  V30 11411 C 1087.65 1.1646 1.66027 0
M  V30 11412 C 1087.98 -0.285025 1.92097 0
M  V30 11413 O 1087.26 -1.20675 1.52538 0
M  V30 11414 C 1087.54 1.96951 3.01467 0
M  V30 11415 C 1087.39 3.50007 2.82515 0
M  V30 11416 C 1088.71 1.78932 4.02084 0
M  V30 11417 H 1085.83 0.424435 0.602515 0
M  V30 11418 H 1088.47 1.58185 1.0525 0
M  V30 11419 H 1086.62 1.61495 3.53344 0
M  V30 11420 H 1088.3 3.95401 2.37605 0
M  V30 11421 H 1086.54 3.75356 2.17463 0
M  V30 11422 H 1087.21 4.01591 3.7872 0
M  V30 11423 H 1089.69 2.09885 3.59287 0
M  V30 11424 H 1088.56 2.37615 4.94803 0
M  V30 11425 H 1088.82 0.742286 4.35824 0
M  V30 11426 N 1087.88 -1.11734 1.11145 0
M  V30 11427 C 1089.16 -1.79795 0.770261 0
M  V30 11428 C 1089.54 -1.97624 -0.742158 0
M  V30 11429 O 1088.89 -1.55847 -1.67105 0
M  V30 11430 C 1089.1 -3.13684 1.52982 0
M  V30 11431 C 1090.44 -3.88771 1.70711 0
M  V30 11432 O 1091.47 -3.23363 1.49381 0
M  V30 11433 O 1090.33 -5.06134 2.06132 0
M  V30 11434 H 1087.42 -0.778617 0.27872 0
M  V30 11435 H 1089.97 -1.18504 1.2147 0
M  V30 11436 H 1088.74 -2.96043 2.55879 0
M  V30 11437 H 1088.36 -3.82687 1.07873 0
M  V30 11438 N 1089.36 -0.901303 -1.29284 0
M  V30 11439 C 1090.6 -0.534971 -1.97275 0
M  V30 11440 C 1090.96 0.902226 -1.69481 0
M  V30 11441 O 1092.16 1.37551 -2.3094 0
M  V30 11442 C 1090.44 -0.821095 -3.4784 0
M  V30 11443 S 1091.99 -0.559312 -4.35221 0
M  V30 11444 H 1088.81 -0.198409 -0.682755 0
M  V30 11445 H 1091.41 -1.16408 -1.57065 0
M  V30 11446 H 1090.12 -1.86527 -3.65562 0
M  V30 11447 H 1089.65 -0.18016 -3.92987 0
M  V30 11448 H 1091.66 0.59494 -4.9262 0
M  V30 11449 N 1090.84 1.42931 -0.663954 0
M  V30 11450 C 1092.07 2.06028 -0.189808 0
M  V30 11451 C 1092.48 1.49827 1.14879 0
M  V30 11452 O 1091.84 0.633778 1.71142 0
M  V30 11453 C 1091.89 3.61349 -0.104343 0
M  V30 11454 O 1091.61 4.15463 -1.39004 0
M  V30 11455 C 1093.11 4.4154 0.394599 0
M  V30 11456 H 1090.33 0.664259 -0.0948744 0
M  V30 11457 H 1092.87 1.83255 -0.907632 0
M  V30 11458 H 1091.03 3.83271 0.564103 0
M  V30 11459 H 1091.44 5.09233 -1.25626 0
M  V30 11460 H 1092.92 5.50525 0.403329 0
M  V30 11461 H 1093.39 4.1534 1.4279 0
M  V30 11462 H 1094 4.24612 -0.241729 0
M  V30 11463 N 1092.32 0.406567 1.52266 0
M  V30 11464 C 1093.25 -0.464709 2.23418 0
M  V30 11465 C 1094.23 -1.05008 1.24146 0
M  V30 11466 O 1095.41 -1.09843 1.53188 0
M  V30 11467 C 1092.54 -1.64481 2.96081 0
M  V30 11468 C 1091.58 -1.18307 4.09763 0
M  V30 11469 S 1092.42 -0.150326 5.35289 0
M  V30 11470 C 1093.57 -1.3358 6.11479 0
M  V30 11471 H 1093.81 0.139455 2.96973 0
M  V30 11472 H 1091.34 0.19085 1.53216 0
M  V30 11473 H 1093.3 -2.3215 3.38551 0
M  V30 11474 H 1091.96 -2.22031 2.22174 0
M  V30 11475 H 1091.15 -2.06466 4.59769 0
M  V30 11476 H 1090.75 -0.58505 3.69396 0
M  V30 11477 H 1093.04 -2.25986 6.38699 0
M  V30 11478 H 1093.99 -0.876328 7.02656 0
M  V30 11479 H 1094.4 -1.56044 5.42504 0
M  V30 11480 N 1093.79 -1.57004 0.136909 0
M  V30 11481 C 1095.02 -1.99866 -0.523177 0
M  V30 11482 C 1095.43 -1.01584 -1.59616 0
M  V30 11483 O 1094.78 -0.00326426 -1.837 0
M  V30 11484 C 1094.84 -3.39157 -1.19217 0
M  V30 11485 C 1094.5 -4.56231 -0.265 0
M  V30 11486 C 1095.5 -5.17457 0.503412 0
M  V30 11487 C 1093.18 -5.02009 -0.170846 0
M  V30 11488 C 1095.18 -6.22863 1.35353 0
M  V30 11489 C 1092.86 -6.07273 0.682884 0
M  V30 11490 C 1093.86 -6.67568 1.44369 0
M  V30 11491 O 1093.55 -7.70795 2.28321 0
M  V30 11492 H 1093.28 -0.661005 -0.141593 0
M  V30 11493 H 1095.84 -2.04159 0.225445 0
M  V30 11494 H 1094.07 -3.31672 -1.98823 0
M  V30 11495 H 1095.76 -3.66191 -1.75096 0
M  V30 11496 H 1096.52 -4.82994 0.440648 0
M  V30 11497 H 1092.4 -4.54813 -0.752744 0
M  V30 11498 H 1095.94 -6.69855 1.94783 0
M  V30 11499 H 1091.84 -6.41163 0.746978 0
M  V30 11500 H 1092.61 -7.87971 2.21458 0
M  V30 11501 N 1095.27 0.136881 -1.57004 0
M  V30 11502 C 1096.52 0.846257 -1.83088 0
M  V30 11503 C 1096.83 1.81876 -0.719765 0
M  V30 11504 O 1098.04 2.57302 -0.866494 0
M  V30 11505 C 1096.5 1.55559 -3.24545 0
M  V30 11506 C 1096.1 0.624989 -4.43619 0
M  V30 11507 C 1097.85 2.25115 -3.59893 0
M  V30 11508 C 1095.76 1.33653 -5.761 0
M  V30 11509 H 1094.69 0.319768 -0.682836 0
M  V30 11510 H 1097.34 0.0989741 -1.83233 0
M  V30 11511 H 1095.72 2.34887 -3.18817 0
M  V30 11512 H 1096.89 -0.133783 -4.60606 0
M  V30 11513 H 1095.21 0.0373216 -4.16383 0
M  V30 11514 H 1097.8 2.79008 -4.56134 0
M  V30 11515 H 1098.15 3.02084 -2.86446 0
M  V30 11516 H 1098.68 1.52696 -3.67327 0
M  V30 11517 H 1095.42 0.608495 -6.5267 0
M  V30 11518 H 1094.94 2.06776 -5.63031 0
M  V30 11519 H 1096.62 1.87467 -6.19246 0
M  V30 11520 N 1096.75 1.52266 0.40654 0
M  V30 11521 C 1097.99 1.6813 1.16239 0
M  V30 11522 C 1098.35 0.403791 1.87706 0
M  V30 11523 O 1099.56 0.438566 2.65198 0
M  V30 11524 C 1097.83 2.87115 2.12837 0
M  V30 11525 S 1099.39 3.23475 2.96495 0
M  V30 11526 H 1096.2 0.59202 0.393743 0
M  V30 11527 H 1098.81 1.90266 0.449325 0
M  V30 11528 H 1097.51 3.78337 1.59026 0
M  V30 11529 H 1097.04 2.6726 2.88679 0
M  V30 11530 H 1099.06 2.72299 4.14811 0
M  V30 11531 N 1098.23 -0.663929 1.42933 0
M  V30 11532 C 1099.48 -1.42111 1.43697 0
M  V30 11533 C 1099.8 -1.94913 0.0583858 0
M  V30 11534 O 1099.07 -1.73757 -0.904719 0
M  V30 11535 H 1097.65 -0.527391 0.529026 0
M  V30 11536 H 1100.31 -0.783766 1.78446 0
M  V30 11537 H 1099.41 -2.26877 2.1432 0
M  V30 11538 N 1099.71 -1.29285 -0.901281 0
M  V30 11539 C 1100.98 -1.07847 -1.63182 0
M  V30 11540 C 1101.36 0.377927 -2.07689 0
M  V30 11541 O 1100.71 1.36642 -1.83143 0
M  V30 11542 C 1100.92 -2.06457 -2.81383 0
M  V30 11543 C 1102.27 -2.37289 -3.52107 0
M  V30 11544 O 1103.29 -2.0464 -2.91549 0
M  V30 11545 O 1102.15 -2.93067 -4.61274 0
M  V30 11546 H 1099.25 -0.413073 -0.71645 0
M  V30 11547 H 1101.79 -1.40651 -0.949488 0
M  V30 11548 H 1100.56 -3.04561 -2.4568 0
M  V30 11549 H 1100.19 -1.74374 -3.57323 0
M  V30 11550 N 1101.18 1.11143 -1.11736 0
M  V30 11551 C 1102.41 1.87285 -0.891007 0
M  V30 11552 C 1102.83 1.79758 0.553971 0
M  V30 11553 O 1102.19 1.16221 1.39149 0
M  V30 11554 C 1102.24 3.33924 -1.36114 0
M  V30 11555 O 1101.34 4.08917 -0.534851 0
M  V30 11556 H 1100.69 0.581418 -0.320701 0
M  V30 11557 H 1103.22 1.40469 -1.4876 0
M  V30 11558 H 1103.23 3.84772 -1.35701 0
M  V30 11559 H 1101.9 3.38719 -2.41334 0
M  V30 11560 H 1100.48 3.67954 -0.605355 0
M  V30 11561 N 1102.66 0.908147 1.28804 0
M  V30 11562 C 1103.89 0.55409 1.99343 0
M  V30 11563 C 1104.31 -0.863262 1.67908 0
M  V30 11564 O 1103.66 -1.571 0.92875 0
M  V30 11565 C 1103.71 0.746916 3.537 0
M  V30 11566 O 1103.43 2.10849 3.84024 0
M  V30 11567 C 1104.94 0.398939 4.41501 0
M  V30 11568 H 1102.16 0.211784 0.636701 0
M  V30 11569 H 1104.7 1.21981 1.64137 0
M  V30 11570 H 1102.85 0.128264 3.87188 0
M  V30 11571 H 1103.27 2.14404 4.78676 0
M  V30 11572 H 1104.74 0.584656 5.48895 0
M  V30 11573 H 1105.22 -0.664517 4.34144 0
M  V30 11574 H 1105.83 0.994892 4.135 0
M  V30 11575 N 1104.14 -1.42577 0.671525 0
M  V30 11576 C 1105.05 -2.34598 -0.00898225 0
M  V30 11577 C 1106.07 -1.54909 -0.792407 0
M  V30 11578 O 1107.24 -1.87491 -0.735477 0
M  V30 11579 C 1104.31 -3.33405 -0.950888 0
M  V30 11580 C 1103.37 -4.28993 -0.16236 0
M  V30 11581 C 1102.6 -5.2308 -1.0594 0
M  V30 11582 O 1102.82 -5.22022 -2.2989 0
M  V30 11583 O 1101.76 -5.99632 -0.521966 0
M  V30 11584 H 1105.58 -2.94321 0.748927 0
M  V30 11585 H 1103.17 -1.43025 0.43175 0
M  V30 11586 H 1105.05 -3.94115 -1.49169 0
M  V30 11587 H 1103.73 -2.7616 -1.68871 0
M  V30 11588 H 1102.63 -3.71707 0.42247 0
M  V30 11589 H 1103.97 -4.8927 0.536274 0
M  V30 11590 N 1105.62 -0.414636 -1.52048 0
M  V30 11591 C 1106.86 0.158807 -2.03782 0
M  V30 11592 C 1107.22 1.41912 -1.29325 0
M  V30 11593 O 1108.42 2.07136 -1.71313 0
M  V30 11594 C 1106.69 0.395092 -3.55209 0
M  V30 11595 S 1108.25 0.935193 -4.28719 0
M  V30 11596 H 1105.07 0.0424729 -0.70973 0
M  V30 11597 H 1107.67 -0.568822 -1.87042 0
M  V30 11598 H 1106.38 -0.528875 -4.06978 0
M  V30 11599 H 1105.91 1.15044 -3.76203 0
M  V30 11600 H 1107.92 2.21519 -4.44009 0
M  V30 11601 N 1107.1 1.56929 -0.145233 0
M  V30 11602 C 1108.32 2.00864 0.516564 0
M  V30 11603 C 1108.75 1.02466 1.57741 0
M  V30 11604 O 1108.1 0.000145439 1.813 0
M  V30 11605 C 1108.15 3.43552 1.09563 0
M  V30 11606 O 1107.26 3.4815 2.21055 0
M  V30 11607 H 1106.6 0.651835 0.126521 0
M  V30 11608 H 1109.13 2.0317 -0.241445 0
M  V30 11609 H 1109.14 3.82316 1.42473 0
M  V30 11610 H 1107.81 4.14677 0.318749 0
M  V30 11611 H 1106.39 3.21228 1.89387 0
M  V30 11612 N 1108.58 -0.128553 1.57075 0
M  V30 11613 C 1109.52 -1.17719 2.00611 0
M  V30 11614 C 1110.52 -1.43423 0.90146 0
M  V30 11615 O 1111.72 -1.43498 1.08666 0
M  V30 11616 H 1108.1 -0.396683 0.638864 0
M  V30 11617 H 1110.07 -0.783437 2.87932 0
M  V30 11618 C 1108.82 -2.49826 2.41831 0
M  V30 11619 H 1108.14 -2.30883 3.26394 0
M  V30 11620 H 1109.58 -3.21784 2.761 0
M  V30 11621 C 1108.04 -3.11712 1.27816 0
M  V30 11622 O 1108.57 -3.9736 0.588917 0
M  V30 11623 N 1106.78 -2.71442 1.03767 0
M  V30 11624 H 1106.32 -2.01891 1.59994 0
M  V30 11625 H 1106.28 -3.1318 0.276743 0
M  V30 11626 N 1110.05 -1.5248 -0.398459 0
M  V30 11627 C 1110.98 -1.79549 -1.49279 0
M  V30 11628 C 1111.96 -0.647004 -1.57315 0
M  V30 11629 O 1113.15 -0.893661 -1.72416 0
M  V30 11630 C 1110.28 -1.95582 -2.86993 0
M  V30 11631 C 1109.23 -3.1123 -2.93803 0
M  V30 11632 C 1108.56 -3.12501 -4.33874 0
M  V30 11633 C 1109.86 -4.50485 -2.64312 0
M  V30 11634 H 1111.55 -2.71187 -1.26877 0
M  V30 11635 H 1109.1 -1.30492 -0.608924 0
M  V30 11636 H 1111.05 -2.13102 -3.63546 0
M  V30 11637 H 1109.78 -1.00625 -3.10712 0
M  V30 11638 H 1108.44 -2.93477 -2.19697 0
M  V30 11639 H 1108.08 -2.15245 -4.54619 0
M  V30 11640 H 1107.78 -3.90183 -4.39353 0
M  V30 11641 H 1109.31 -3.32164 -5.12347 0
M  V30 11642 H 1110.72 -4.68387 -3.30585 0
M  V30 11643 H 1109.12 -5.30163 -2.81153 0
M  V30 11644 H 1110.19 -4.57848 -1.59696 0
M  V30 11645 N 1111.53 0.65634 -1.43283 0
M  V30 11646 C 1112.46 1.78101 -1.51004 0
M  V30 11647 C 1113.44 1.66138 -0.36498 0
M  V30 11648 O 1114.63 1.85281 -0.581778 0
M  V30 11649 C 1111.76 3.16511 -1.42961 0
M  V30 11650 C 1110.71 3.43233 -2.55685 0
M  V30 11651 C 1110.04 4.81411 -2.32696 0
M  V30 11652 C 1111.34 3.38288 -3.97943 0
M  V30 11653 H 1113.03 1.71896 -2.45137 0
M  V30 11654 H 1110.58 0.825575 -1.17984 0
M  V30 11655 H 1112.53 3.94941 -1.46968 0
M  V30 11656 H 1111.25 3.23439 -0.45332 0
M  V30 11657 H 1109.91 2.67173 -2.51026 0
M  V30 11658 H 1109.56 4.85011 -1.33317 0
M  V30 11659 H 1109.26 5.00251 -3.08257 0
M  V30 11660 H 1110.79 5.62102 -2.38481 0
M  V30 11661 H 1112.2 4.06659 -4.04106 0
M  V30 11662 H 1110.6 3.68664 -4.73505 0
M  V30 11663 H 1111.67 2.36525 -4.23301 0
M  V30 11664 N 1113.01 1.29761 0.894412 0
M  V30 11665 C 1113.94 1.17902 2.01547 0
M  V30 11666 C 1114.92 0.0719402 1.69948 0
M  V30 11667 O 1116.11 0.252338 1.92554 0
M  V30 11668 C 1113.24 0.860262 3.36477 0
M  V30 11669 C 1112.19 1.92424 3.82305 0
M  V30 11670 C 1111.52 1.45868 5.14419 0
M  V30 11671 C 1112.82 3.33391 4.02054 0
M  V30 11672 H 1114.51 2.11688 2.11727 0
M  V30 11673 H 1112.06 1.01916 1.01731 0
M  V30 11674 H 1114.01 0.763987 4.14417 0
M  V30 11675 H 1112.73 -0.113289 3.26403 0
M  V30 11676 H 1111.39 2.00999 3.06586 0
M  V30 11677 H 1111.04 0.473654 5.00765 0
M  V30 11678 H 1110.74 2.17028 5.46052 0
M  V30 11679 H 1112.26 1.37601 5.94894 0
M  V30 11680 H 1113.68 3.27628 4.7046 0
M  V30 11681 H 1112.07 4.02555 4.4505 0
M  V30 11682 H 1113.14 3.75978 3.06216 0
M  V30 11683 N 1114.49 -1.10549 1.12324 0
M  V30 11684 C 1115.42 -2.16657 0.747826 0
M  V30 11685 C 1116.43 -1.61238 -0.224981 0
M  V30 11686 O 1117.62 -1.78499 -0.00649408 0
M  V30 11687 C 1114.72 -3.38791 0.0859421 0
M  V30 11688 C 1113.89 -4.23655 1.08792 0
M  V30 11689 C 1112.95 -5.24239 0.453871 0
M  V30 11690 O 1111.98 -5.58262 1.11052 0
M  V30 11691 N 1113.18 -5.75246 -0.779215 0
M  V30 11692 H 1115.95 -2.49472 1.66084 0
M  V30 11693 H 1113.51 -1.26157 1.01469 0
M  V30 11694 H 1115.5 -4.03182 -0.350186 0
M  V30 11695 H 1114.07 -3.03961 -0.729807 0
M  V30 11696 H 1113.29 -3.55578 1.70171 0
M  V30 11697 H 1114.58 -4.77187 1.76549 0
M  V30 11698 H 1113.98 -5.49802 -1.3317 0
M  V30 11699 H 1112.53 -6.41428 -1.15818 0
M  V30 11700 N 1115.97 -0.914965 -1.28321 0
M  V30 11701 C 1117.2 -0.563835 -1.98757 0
M  V30 11702 C 1117.6 0.859528 -1.68549 0
M  V30 11703 O 1116.95 1.58105 -0.935336 0
M  V30 11704 C 1117.01 -0.694539 -3.52727 0
M  V30 11705 C 1116.67 -2.08767 -4.06528 0
M  V30 11706 C 1117.67 -3.06052 -4.20272 0
M  V30 11707 C 1115.35 -2.40118 -4.4119 0
M  V30 11708 C 1117.35 -4.32803 -4.67932 0
M  V30 11709 C 1115.04 -3.67108 -4.88544 0
M  V30 11710 C 1116.03 -4.63265 -5.01871 0
M  V30 11711 O 1115.72 -5.87997 -5.48192 0
M  V30 11712 H 1115.45 -0.213557 -0.641381 0
M  V30 11713 H 1118.01 -1.23062 -1.64453 0
M  V30 11714 H 1116.24 0.0293186 -3.86689 0
M  V30 11715 H 1117.93 -0.350335 -4.04385 0
M  V30 11716 H 1118.69 -2.8315 -3.93765 0
M  V30 11717 H 1114.57 -1.66025 -4.30066 0
M  V30 11718 H 1118.12 -5.07861 -4.78249 0
M  V30 11719 H 1114.01 -3.89834 -5.14489 0
M  V30 11720 H 1114.78 -5.90804 -5.66474 0
M  V30 11721 N 1117.44 1.42219 -0.679077 0
M  V30 11722 C 1118.69 2.01081 -0.202718 0
M  V30 11723 C 1119.01 1.53986 1.19639 0
M  V30 11724 O 1118.28 0.763359 1.80415 0
M  V30 11725 H 1116.86 0.743526 -0.0719547 0
M  V30 11726 H 1119.52 1.74077 -0.876544 0
M  V30 11727 H 1118.62 3.11411 -0.207314 0
M  V30 11728 N 1118.92 0.422693 1.51826 0
M  V30 11729 C 1120.15 -0.15017 2.06856 0
M  V30 11730 C 1120.57 -1.36946 1.28948 0
M  V30 11731 O 1119.93 -1.78393 0.32338 0
M  V30 11732 C 1119.98 -0.465563 3.57582 0
M  V30 11733 O 1119.08 -1.55442 3.81984 0
M  V30 11734 H 1118.42 -0.00827931 0.663948 0
M  V30 11735 H 1120.95 0.599806 1.95611 0
M  V30 11736 H 1120.96 -0.720279 4.01592 0
M  V30 11737 H 1119.64 0.425679 4.13716 0
M  V30 11738 H 1118.21 -1.29081 3.49846 0
M  V30 11739 N 1120.4 -1.5685 0.153553 0
M  V30 11740 C 1121.65 -1.96334 -0.495915 0
M  V30 11741 C 1121.97 -1.03873 -1.64441 0
M  V30 11742 O 1121.23 -0.069231 -1.95578 0
M  V30 11743 C 1121.53 -3.42022 -1.0371 0
M  V30 11744 C 1121.19 -4.509 -0.00637049 0
M  V30 11745 C 1119.86 -4.80402 0.276956 0
M  V30 11746 C 1122.21 -5.16556 0.694187 0
M  V30 11747 C 1119.54 -5.72866 1.26653 0
M  V30 11748 C 1121.89 -6.10087 1.67263 0
M  V30 11749 C 1120.55 -6.37965 1.96359 0
M  V30 11750 H 1119.82 -0.718436 -0.181468 0
M  V30 11751 H 1122.47 -1.89968 0.241768 0
M  V30 11752 H 1120.77 -3.45252 -1.85225 0
M  V30 11753 H 1122.47 -3.69903 -1.54831 0
M  V30 11754 H 1119.06 -4.27942 -0.237378 0
M  V30 11755 H 1123.25 -4.9389 0.488496 0
M  V30 11756 H 1118.5 -5.92756 1.49833 0
M  V30 11757 H 1122.68 -6.60036 2.22094 0
M  V30 11758 H 1120.3 -7.09416 2.73189 0
M  V30 11759 N 1121.88 0.120221 -1.57141 0
M  V30 11760 C 1123.12 0.834128 -1.86606 0
M  V30 11761 C 1123.48 1.77109 -0.741383 0
M  V30 11762 O 1124.68 2.52647 -0.917769 0
M  V30 11763 C 1122.95 1.56536 -3.21296 0
M  V30 11764 S 1124.51 2.32101 -3.7239 0
M  V30 11765 H 1121.33 0.278419 -0.65422 0
M  V30 11766 H 1123.93 0.0925474 -1.95281 0
M  V30 11767 H 1122.64 0.868987 -4.01094 0
M  V30 11768 H 1122.17 2.34734 -3.15696 0
M  V30 11769 H 1124.18 3.57799 -3.43794 0
M  V30 11770 N 1123.36 1.52689 0.390367 0
M  V30 11771 C 1124.58 1.71541 1.15678 0
M  V30 11772 C 1125 0.433171 1.83764 0
M  V30 11773 O 1124.36 -0.592248 1.72623 0
M  V30 11774 C 1124.41 2.864 2.20584 0
M  V30 11775 O 1124.13 4.0966 1.55274 0
M  V30 11776 C 1125.63 3.1692 3.09962 0
M  V30 11777 H 1122.85 0.574381 0.346883 0
M  V30 11778 H 1125.39 1.99332 0.456851 0
M  V30 11779 H 1123.55 2.61075 2.86214 0
M  V30 11780 H 1123.96 4.73802 2.2497 0
M  V30 11781 H 1125.44 4.00755 3.79604 0
M  V30 11782 H 1125.91 2.31245 3.73393 0
M  V30 11783 H 1126.52 3.4408 2.49979 0
M  V30 11784 N 1124.83 -0.648732 1.43629 0
M  V30 11785 C 1125.77 -1.77417 1.45107 0
M  V30 11786 C 1126.78 -1.59067 0.346618 0
M  V30 11787 O 1127.97 -1.67705 0.611322 0
M  V30 11788 C 1125.07 -3.14906 1.25249 0
M  V30 11789 C 1124.24 -3.59874 2.48616 0
M  V30 11790 C 1123.3 -4.76181 2.23916 0
M  V30 11791 O 1122.33 -4.8539 2.97296 0
M  V30 11792 N 1123.53 -5.66691 1.25862 0
M  V30 11793 H 1126.29 -1.76626 2.42123 0
M  V30 11794 H 1123.85 -0.832725 1.38843 0
M  V30 11795 H 1125.85 -3.90408 1.06601 0
M  V30 11796 H 1124.42 -3.10443 0.366623 0
M  V30 11797 H 1123.64 -2.74768 2.82659 0
M  V30 11798 H 1124.92 -3.86665 3.30708 0
M  V30 11799 H 1124.32 -5.61927 0.652227 0
M  V30 11800 H 1122.88 -6.41895 1.13196 0
M  V30 11801 N 1126.31 -1.30234 -0.887518 0
M  V30 11802 C 1127.24 -1.18969 -2.00919 0
M  V30 11803 C 1128.22 -0.080952 -1.69907 0
M  V30 11804 O 1129.41 -0.262546 -1.92417 0
M  V30 11805 C 1126.54 -0.878094 -3.36016 0
M  V30 11806 C 1125.49 -1.94449 -3.81279 0
M  V30 11807 C 1124.82 -1.48594 -5.13638 0
M  V30 11808 C 1126.12 -3.35519 -4.00281 0
M  V30 11809 H 1127.81 -2.12808 -2.10602 0
M  V30 11810 H 1125.36 -1.02454 -1.01189 0
M  V30 11811 H 1127.31 -0.785954 -4.14006 0
M  V30 11812 H 1126.04 0.0959779 -3.26459 0
M  V30 11813 H 1124.69 -2.02622 -3.05516 0
M  V30 11814 H 1124.34 -0.500204 -5.00507 0
M  V30 11815 H 1124.04 -2.19921 -5.44893 0
M  V30 11816 H 1125.57 -1.40754 -5.94156 0
M  V30 11817 H 1126.98 -3.30119 -4.68716 0
M  V30 11818 H 1125.38 -4.0491 -4.42909 0
M  V30 11819 H 1126.45 -3.77597 -3.04218 0
M  V30 11820 N 1127.79 1.09952 -1.12909 0
M  V30 11821 C 1128.74 2.18525 -0.796849 0
M  V30 11822 C 1129.73 1.67985 0.218483 0
M  V30 11823 O 1130.94 1.79839 0.07618 0
M  V30 11824 H 1127.31 0.712714 -0.239882 0
M  V30 11825 H 1129.28 2.43783 -1.72083 0
M  V30 11826 C 1128.03 3.46625 -0.273237 0
M  V30 11827 H 1127.36 3.85879 -1.04582 0
M  V30 11828 H 1128.8 4.23926 -0.0791355 0
M  V30 11829 C 1127.26 3.2172 0.999903 0
M  V30 11830 O 1127.79 3.43851 2.07676 0
M  V30 11831 N 1125.99 2.75356 0.928833 0
M  V30 11832 H 1125.54 2.57547 0.052379 0
M  V30 11833 H 1125.5 2.5907 1.78129 0
M  V30 11834 N 1129.27 0.921757 1.27833 0
M  V30 11835 C 1130.68 0.621102 1.47019 0
M  V30 11836 C 1130.88 -0.831338 1.83551 0
M  V30 11837 O 1129.94 -1.60974 1.94534 0
M  V30 11838 C 1131.25 1.56588 2.56712 0
M  V30 11839 C 1132.8 1.57346 2.70576 0
M  V30 11840 C 1133.28 2.50505 3.8342 0
M  V30 11841 N 1134.77 2.48678 3.90786 0
M  V30 11842 C 1135.5 3.17454 4.77505 0
M  V30 11843 N 1135 3.95588 5.68755 0
M  V30 11844 N 1136.79 3.06501 4.71183 0
M  V30 11845 H 1128.94 1.86085 1.02403 0
M  V30 11846 H 1131.21 0.798595 0.510833 0
M  V30 11847 H 1130.91 2.60175 2.36647 0
M  V30 11848 H 1130.79 1.30305 3.53978 0
M  V30 11849 H 1133.17 0.544919 2.90025 0
M  V30 11850 H 1133.25 1.87675 1.73815 0
M  V30 11851 H 1132.9 3.53466 3.64725 0
M  V30 11852 H 1132.83 2.17474 4.79596 0
M  V30 11853 H 1135.32 1.91928 3.25534 0
M  V30 11854 H 1135.63 4.45066 6.31772 0
M  V30 11855 H 1133.98 3.99692 5.6857 0
M  V30 11856 H 1137.17 2.44958 3.9889 0
M  V30 11857 H 1137.34 3.60372 5.3855 0
M  V30 11858 N 1130.75 -1.41857 0.686609 0
M  V30 11859 C 1131.71 -2.29187 0.0247022 0
M  V30 11860 C 1132.71 -1.43926 -0.717069 0
M  V30 11861 O 1133.9 -1.65179 -0.5533 0
M  V30 11862 C 1131.03 -3.26644 -0.975537 0
M  V30 11863 H 1132.22 -2.89212 0.793503 0
M  V30 11864 H 1129.78 -1.49694 0.449605 0
M  V30 11865 H 1130.51 -2.7158 -1.77242 0
M  V30 11866 H 1130.3 -3.89545 -0.446892 0
M  V30 11867 H 1131.79 -3.92107 -1.43673 0
M  V30 11868 N 1132.22 -0.430739 -1.51599 0
M  V30 11869 C 1133.15 0.374695 -2.30474 0
M  V30 11870 C 1134.14 1.02694 -1.35602 0
M  V30 11871 O 1135.32 1.03184 -1.6452 0
M  V30 11872 C 1132.45 1.47981 -3.14196 0
M  V30 11873 C 1131.4 0.951415 -4.17291 0
M  V30 11874 C 1130.73 2.15177 -4.89492 0
M  V30 11875 C 1132.03 -0.00957951 -5.22299 0
M  V30 11876 H 1133.72 -0.283508 -2.98055 0
M  V30 11877 H 1131.27 -0.13779 -1.43339 0
M  V30 11878 H 1133.22 2.05043 -3.68151 0
M  V30 11879 H 1131.95 2.16621 -2.44424 0
M  V30 11880 H 1130.61 0.403052 -3.64378 0
M  V30 11881 H 1130.25 2.82421 -4.1623 0
M  V30 11882 H 1129.95 1.80464 -5.59202 0
M  V30 11883 H 1131.48 2.72806 -5.46269 0
M  V30 11884 H 1132.89 0.470527 -5.71366 0
M  V30 11885 H 1131.29 -0.268959 -5.99497 0
M  V30 11886 H 1132.36 -0.948297 -4.75537 0
M  V30 11887 N 1133.7 1.56767 -0.161869 0
M  V30 11888 C 1134.93 2.00964 0.492027 0
M  V30 11889 C 1135.35 1.04206 1.57437 0
M  V30 11890 O 1134.7 0.0413998 1.82453 0
M  V30 11891 C 1134.75 3.4502 1.07904 0
M  V30 11892 O 1134.47 4.38082 0.0399085 0
M  V30 11893 C 1135.98 4.04572 1.81209 0
M  V30 11894 H 1133.2 0.658911 0.126797 0
M  V30 11895 H 1135.74 2.0283 -0.260824 0
M  V30 11896 H 1133.89 3.43959 1.78243 0
M  V30 11897 H 1134.31 5.22372 0.471985 0
M  V30 11898 H 1135.78 5.07321 2.17554 0
M  V30 11899 H 1136.26 3.46126 2.70359 0
M  V30 11900 H 1136.87 4.09307 1.15534 0
M  V30 11901 N 1135.18 -0.111886 1.57202 0
M  V30 11902 C 1136.43 -0.816794 1.84859 0
M  V30 11903 C 1136.75 -1.80079 0.748113 0
M  V30 11904 O 1136.02 -1.94578 -0.227235 0
M  V30 11905 H 1134.6 -0.304633 0.682061 0
M  V30 11906 H 1137.26 -0.097513 1.94656 0
M  V30 11907 H 1136.36 -1.35768 2.81022 0
M  V30 11908 N 1136.66 -1.52894 -0.382264 0
M  V30 11909 C 1137.91 -1.67489 -1.12385 0
M  V30 11910 C 1138.22 -0.424565 -1.90937 0
M  V30 11911 O 1139.43 -0.450763 -2.67732 0
M  V30 11912 C 1137.88 -2.96019 -2.04697 0
M  V30 11913 C 1137.49 -4.28255 -1.31535 0
M  V30 11914 C 1139.23 -3.19981 -2.78949 0
M  V30 11915 C 1137.14 -5.47887 -2.22652 0
M  V30 11916 H 1136.07 -0.624002 -0.423246 0
M  V30 11917 H 1138.72 -1.79392 -0.386107 0
M  V30 11918 H 1137.1 -2.77878 -2.82134 0
M  V30 11919 H 1138.28 -4.56971 -0.592771 0
M  V30 11920 H 1136.59 -4.10607 -0.692148 0
M  V30 11921 H 1139.19 -4.06541 -3.47316 0
M  V30 11922 H 1139.53 -2.35335 -3.43399 0
M  V30 11923 H 1140.07 -3.38718 -2.08602 0
M  V30 11924 H 1136.81 -6.3496 -1.62806 0
M  V30 11925 H 1136.33 -5.23473 -2.92807 0
M  V30 11926 H 1138 -5.82026 -2.82586 0
M  V30 11927 N 1138.14 0.641106 -1.43971 0
M  V30 11928 C 1139.1 1.73539 -1.49723 0
M  V30 11929 C 1140.1 1.56235 -0.380438 0
M  V30 11930 O 1141.29 1.61912 -0.642673 0
M  V30 11931 C 1138.42 3.1253 -1.36153 0
M  V30 11932 H 1139.62 1.69816 -2.47189 0
M  V30 11933 H 1137.17 0.853867 -1.30915 0
M  V30 11934 H 1137.9 3.21856 -0.39742 0
M  V30 11935 H 1137.69 3.26496 -2.17124 0
M  V30 11936 H 1139.18 3.92303 -1.43138 0
M  V30 11937 N 1139.62 1.30703 0.880598 0
M  V30 11938 C 1140.86 1.19955 1.63519 0
M  V30 11939 C 1141.19 -0.244214 1.92658 0
M  V30 11940 O 1140.47 -1.17412 1.55063 0
M  V30 11941 C 1140.75 2.03302 2.97221 0
M  V30 11942 C 1140.61 3.55921 2.75028 0
M  V30 11943 C 1141.92 1.87421 3.98198 0
M  V30 11944 H 1139.04 0.43712 0.593376 0
M  V30 11945 H 1141.69 1.60382 1.01871 0
M  V30 11946 H 1139.84 1.68953 3.49839 0
M  V30 11947 H 1141.51 4.00352 2.29164 0
M  V30 11948 H 1139.75 3.79885 2.09452 0
M  V30 11949 H 1140.42 4.09533 3.70117 0
M  V30 11950 H 1142.9 2.17459 3.54755 0
M  V30 11951 H 1141.77 2.48057 4.89652 0
M  V30 11952 H 1142.03 0.834563 4.34151 0
M  V30 11953 N 1141.09 -1.09351 1.1349 0
M  V30 11954 C 1142 -2.19564 0.826366 0
M  V30 11955 C 1143.02 -1.72967 -0.189339 0
M  V30 11956 O 1144.2 -2.0139 -0.0202033 0
M  V30 11957 C 1141.26 -3.4542 0.297685 0
M  V30 11958 C 1140.32 -4.06694 1.37473 0
M  V30 11959 C 1139.55 -5.26542 0.871183 0
M  V30 11960 O 1139.78 -5.69657 -0.290958 0
M  V30 11961 O 1138.71 -5.78961 1.64584 0
M  V30 11962 H 1142.54 -2.4841 1.74718 0
M  V30 11963 H 1140.12 -1.18302 0.912414 0
M  V30 11964 H 1142 -4.21399 0.00829479 0
M  V30 11965 H 1140.68 -3.18175 -0.595536 0
M  V30 11966 H 1139.59 -3.32347 1.71745 0
M  V30 11967 H 1140.92 -4.38166 2.24212 0
M  V30 11968 N 1142.57 -0.928524 -1.27343 0
M  V30 11969 C 1143.5 -0.385563 -2.25934 0
M  V30 11970 C 1144.52 0.484178 -1.55433 0
M  V30 11971 O 1145.71 0.296668 -1.76017 0
M  V30 11972 C 1142.81 0.466116 -3.35679 0
M  V30 11973 C 1141.98 -0.384523 -4.35707 0
M  V30 11974 C 1141.04 0.404644 -5.24642 0
M  V30 11975 O 1140.06 -0.187943 -5.6889 0
M  V30 11976 N 1141.27 1.70426 -5.54919 0
M  V30 11977 H 1144.03 -1.23306 -2.73159 0
M  V30 11978 H 1141.59 -0.796039 -1.40978 0
M  V30 11979 H 1143.58 1.00115 -3.92121 0
M  V30 11980 H 1142.15 1.21437 -2.88048 0
M  V30 11981 H 1141.37 -1.10085 -3.78517 0
M  V30 11982 H 1142.66 -0.966033 -4.99545 0
M  V30 11983 H 1142.06 2.20802 -5.20829 0
M  V30 11984 H 1140.62 2.1858 -6.14057 0
M  V30 11985 N 1144.05 1.41491 -0.694123 0
M  V30 11986 C 1145.33 1.95004 -0.152571 0
M  V30 11987 C 1145.71 1.63357 1.33707 0
M  V30 11988 O 1145.05 0.939815 2.08278 0
M  V30 11989 C 1145.26 3.46186 -0.44232 0
M  V30 11990 C 1146.61 4.22991 -0.369279 0
M  V30 11991 O 1147.64 3.54198 -0.377152 0
M  V30 11992 O 1146.5 5.45514 -0.328145 0
M  V30 11993 H 1143.59 0.826879 -0.0141253 0
M  V30 11994 H 1146.14 1.51216 -0.770183 0
M  V30 11995 H 1144.91 3.62497 -1.47348 0
M  V30 11996 H 1144.53 3.97064 0.206337 0
M  V30 11997 N 1145.53 0.438773 1.51369 0
M  V30 11998 C 1146.47 -0.37195 2.27783 0
M  V30 11999 C 1147.44 -1.01558 1.31435 0
M  V30 12000 O 1148.63 -1.03421 1.60339 0
M  V30 12001 C 1145.77 -1.46636 3.12397 0
M  V30 12002 C 1144.88 -0.840727 4.2374 0
M  V30 12003 C 1144.02 -1.91031 4.95662 0
M  V30 12004 C 1143.06 -1.26318 5.98924 0
M  V30 12005 N 1142.19 -2.27419 6.64248 0
M  V30 12006 H 1147.03 0.286048 2.96624 0
M  V30 12007 H 1144.57 0.152909 1.46303 0
M  V30 12008 H 1146.53 -2.11219 3.59781 0
M  V30 12009 H 1145.16 -2.09397 2.45668 0
M  V30 12010 H 1144.21 -0.0831588 3.80309 0
M  V30 12011 H 1145.52 -0.328285 4.97719 0
M  V30 12012 H 1144.68 -2.63272 5.46601 0
M  V30 12013 H 1143.42 -2.45649 4.21317 0
M  V30 12014 H 1142.42 -0.526246 5.47276 0
M  V30 12015 H 1143.65 -0.724324 6.75226 0
M  V30 12016 H 1141.59 -2.81114 5.92715 0
M  V30 12017 H 1141.51 -1.81071 7.33996 0
M  V30 12018 H 1142.78 -2.99139 7.19817 0
M  V30 12019 N 1147.01 -1.56678 0.170181 0
M  V30 12020 C 1147.95 -2.19222 -0.777459 0
M  V30 12021 C 1148.95 -1.15592 -1.23834 0
M  V30 12022 O 1150.15 -1.33794 -1.20412 0
M  V30 12023 H 1146.53 -0.702244 -0.268992 0
M  V30 12024 H 1148.5 -2.97543 -0.225989 0
M  V30 12025 C 1147.25 -2.84631 -1.997 0
M  V30 12026 H 1146.57 -3.641 -1.65139 0
M  V30 12027 H 1148.01 -3.31864 -2.63898 0
M  V30 12028 C 1146.47 -1.84345 -2.81991 0
M  V30 12029 O 1147 -1.32821 -3.79106 0
M  V30 12030 N 1145.21 -1.53127 -2.46983 0
M  V30 12031 H 1144.75 -1.95219 -1.6807 0
M  V30 12032 H 1144.71 -0.862787 -3.0233 0
M  V30 12033 N 1148.48 0.103547 -1.57259 0
M  V30 12034 C 1149.71 0.82235 -1.89855 0
M  V30 12035 C 1150.13 1.72694 -0.76303 0
M  V30 12036 O 1149.48 1.8056 0.265421 0
M  V30 12037 C 1149.53 1.64282 -3.22015 0
M  V30 12038 O 1149.26 0.774628 -4.31197 0
M  V30 12039 C 1150.76 2.46543 -3.68418 0
M  V30 12040 H 1147.98 0.235591 -0.628282 0
M  V30 12041 H 1150.52 0.0833106 -2.0433 0
M  V30 12042 H 1148.68 2.33446 -3.09163 0
M  V30 12043 H 1149.09 1.34205 -5.0704 0
M  V30 12044 H 1150.56 2.99618 -4.63609 0
M  V30 12045 H 1151.04 3.24618 -2.95838 0
M  V30 12046 H 1151.65 1.82594 -3.84109 0
M  V30 12047 N 1149.96 1.53094 0.37415 0
M  V30 12048 C 1150.89 1.75199 1.47776 0
M  V30 12049 C 1151.91 0.632627 1.50006 0
M  V30 12050 O 1153.1 0.908688 1.5364 0
M  V30 12051 C 1150.2 1.80909 2.86575 0
M  V30 12052 C 1149.37 3.10432 3.08141 0
M  V30 12053 C 1148.43 3.07495 4.27005 0
M  V30 12054 O 1147.45 3.81319 4.22592 0
M  V30 12055 N 1148.66 2.27715 5.33972 0
M  V30 12056 H 1151.42 2.70423 1.29196 0
M  V30 12057 H 1148.98 1.51766 0.563802 0
M  V30 12058 H 1150.97 1.76432 3.64217 0
M  V30 12059 H 1149.54 0.930074 2.98443 0
M  V30 12060 H 1148.76 3.2828 2.18233 0
M  V30 12061 H 1150.05 3.96047 3.19413 0
M  V30 12062 H 1149.45 1.67231 5.40417 0
M  V30 12063 H 1148.01 2.29065 6.10223 0
M  V30 12064 N 1151.44 -0.633461 1.44309 0
M  V30 12065 C 1152.35 -1.77428 1.53481 0
M  V30 12066 C 1153.37 -1.68839 0.420628 0
M  V30 12067 O 1154.54 -1.89658 0.677638 0
M  V30 12068 C 1151.61 -3.13801 1.47409 0
M  V30 12069 C 1150.67 -3.34039 2.6966 0
M  V30 12070 C 1149.9 -4.63907 2.63868 0
M  V30 12071 O 1150.12 -5.44559 1.69741 0
M  V30 12072 O 1149.06 -4.86295 3.54684 0
M  V30 12073 H 1152.88 -1.72642 2.49857 0
M  V30 12074 H 1150.47 -0.794399 1.26529 0
M  V30 12075 H 1152.35 -3.95101 1.46537 0
M  V30 12076 H 1151.03 -3.19134 0.541769 0
M  V30 12077 H 1149.93 -2.52427 2.761 0
M  V30 12078 H 1151.27 -3.33566 3.61931 0
M  V30 12079 N 1152.92 -1.31168 -0.873655 0
M  V30 12080 C 1154.16 -1.20821 -1.62881 0
M  V30 12081 C 1154.5 0.233994 -1.92785 0
M  V30 12082 O 1153.77 1.16588 -1.55684 0
M  V30 12083 C 1154.06 -2.04875 -2.96139 0
M  V30 12084 C 1153.91 -3.57375 -2.73136 0
M  V30 12085 C 1155.23 -1.8953 -3.97198 0
M  V30 12086 H 1152.35 -0.44026 -0.59105 0
M  V30 12087 H 1154.99 -1.6092 -1.01019 0
M  V30 12088 H 1153.14 -1.70806 -3.48938 0
M  V30 12089 H 1154.81 -4.01561 -2.27038 0
M  V30 12090 H 1153.05 -3.8099 -2.07434 0
M  V30 12091 H 1153.72 -4.1149 -3.6794 0
M  V30 12092 H 1156.2 -2.19337 -3.53596 0
M  V30 12093 H 1155.08 -2.5065 -4.8833 0
M  V30 12094 H 1155.34 -0.857576 -4.33703 0
M  V30 12095 N 1154.4 1.08748 -1.14068 0
M  V30 12096 C 1155.64 1.81065 -0.906738 0
M  V30 12097 C 1155.97 1.86057 0.566844 0
M  V30 12098 O 1155.23 1.32976 1.43582 0
M  V30 12099 C 1155.53 3.26734 -1.44843 0
M  V30 12100 C 1155.19 3.41866 -2.94005 0
M  V30 12101 C 1153.85 3.45703 -3.34729 0
M  V30 12102 C 1156.21 3.45831 -3.89937 0
M  V30 12103 C 1153.53 3.51092 -4.70055 0
M  V30 12104 C 1155.89 3.52755 -5.25116 0
M  V30 12105 C 1154.55 3.54863 -5.65357 0
M  V30 12106 H 1153.82 0.662564 -0.331799 0
M  V30 12107 H 1156.47 1.28065 -1.42378 0
M  V30 12108 H 1154.77 3.82419 -0.852239 0
M  V30 12109 H 1156.47 3.81236 -1.2434 0
M  V30 12110 H 1153.06 3.39568 -2.61518 0
M  V30 12111 H 1157.24 3.421 -3.59557 0
M  V30 12112 H 1152.5 3.51015 -5.00598 0
M  V30 12113 H 1156.67 3.54768 -5.9926 0
M  V30 12114 H 1154.3 3.58792 -6.70203 0
M  V30 12115 N 1155.87 0.935264 1.26849 0
M  V30 12116 C 1156.84 0.44485 2.24842 0
M  V30 12117 C 1157.84 -0.440781 1.54641 0
M  V30 12118 O 1159.03 -0.240793 1.72528 0
M  V30 12119 C 1156.16 -0.359566 3.38998 0
M  V30 12120 H 1157.35 1.31074 2.6974 0
M  V30 12121 H 1154.91 0.716665 1.38901 0
M  V30 12122 H 1155.64 -1.24396 2.99493 0
M  V30 12123 H 1155.43 0.275529 3.91131 0
M  V30 12124 H 1156.92 -0.692804 4.11813 0
M  V30 12125 N 1157.35 -1.41121 0.701616 0
M  V30 12126 C 1158.28 -2.292 0.000880842 0
M  V30 12127 C 1159.3 -1.45102 -0.738192 0
M  V30 12128 O 1160.49 -1.68541 -0.587891 0
M  V30 12129 C 1157.59 -3.23094 -1.02292 0
M  V30 12130 C 1156.76 -4.35979 -0.352231 0
M  V30 12131 C 1155.82 -5.10408 -1.27947 0
M  V30 12132 O 1154.84 -5.63974 -0.769561 0
M  V30 12133 N 1156.05 -5.18442 -2.61147 0
M  V30 12134 H 1158.81 -2.8998 0.757094 0
M  V30 12135 H 1156.37 -1.52339 0.548126 0
M  V30 12136 H 1158.36 -3.69755 -1.64509 0
M  V30 12137 H 1156.93 -2.6358 -1.68061 0
M  V30 12138 H 1156.15 -3.91624 0.44992 0
M  V30 12139 H 1157.44 -5.08673 0.113882 0
M  V30 12140 H 1156.84 -4.76381 -3.05087 0
M  V30 12141 H 1155.4 -5.68659 -3.18544 0
M  V30 12142 N 1158.83 -0.446794 -1.51134 0
M  V30 12143 C 1160.08 0.116666 -2.02464 0
M  V30 12144 C 1160.41 1.41532 -1.32975 0
M  V30 12145 O 1159.68 1.89278 -0.447651 0
M  V30 12146 C 1159.97 0.325659 -3.58624 0
M  V30 12147 C 1159.82 -0.992307 -4.38718 0
M  V30 12148 C 1161.14 1.09121 -4.26357 0
M  V30 12149 H 1158.26 0.0409262 -0.735863 0
M  V30 12150 H 1160.9 -0.587641 -1.80684 0
M  V30 12151 H 1159.05 0.925585 -3.77313 0
M  V30 12152 H 1160.72 -1.62694 -4.31658 0
M  V30 12153 H 1158.97 -1.5947 -4.03425 0
M  V30 12154 H 1159.64 -0.800005 -5.46172 0
M  V30 12155 H 1162.11 0.582944 -4.11996 0
M  V30 12156 H 1160.99 1.20621 -5.35483 0
M  V30 12157 H 1161.25 2.12171 -3.87861 0
M  V30 12158 N 1160.31 1.56586 -0.178487 0
M  V30 12159 C 1161.26 2.18309 0.74899 0
M  V30 12160 C 1162.23 1.12525 1.22178 0
M  V30 12161 O 1163.41 1.40706 1.28866 0
M  V30 12162 C 1160.55 2.83353 1.9699 0
M  V30 12163 C 1159.66 4.03618 1.54002 0
M  V30 12164 C 1158.8 4.56567 2.71514 0
M  V30 12165 C 1157.84 5.69226 2.25051 0
M  V30 12166 N 1156.97 6.16654 3.35682 0
M  V30 12167 H 1161.81 2.97217 0.21587 0
M  V30 12168 H 1159.35 1.46794 0.0948182 0
M  V30 12169 H 1161.31 3.19226 2.68609 0
M  V30 12170 H 1159.94 2.07037 2.4766 0
M  V30 12171 H 1158.99 3.73518 0.720298 0
M  V30 12172 H 1160.3 4.85148 1.15901 0
M  V30 12173 H 1159.46 4.94659 3.5128 0
M  V30 12174 H 1158.2 3.7411 3.12879 0
M  V30 12175 H 1157.2 5.30679 1.43734 0
M  V30 12176 H 1158.43 6.5349 1.84736 0
M  V30 12177 H 1156.37 5.37124 3.76609 0
M  V30 12178 H 1156.29 6.93192 3.01697 0
M  V30 12179 H 1157.56 6.59397 4.15711 0
M  V30 12180 N 1161.79 -0.095206 1.57312 0
M  V30 12181 C 1162.72 -1.14173 1.98739 0
M  V30 12182 C 1163.73 -1.36323 0.889934 0
M  V30 12183 O 1164.92 -1.34977 1.16805 0
M  V30 12184 C 1162.02 -2.49729 2.29104 0
M  V30 12185 C 1161.19 -2.47857 3.60396 0
M  V30 12186 C 1160.25 -3.65341 3.78699 0
M  V30 12187 O 1159.28 -3.47837 4.50553 0
M  V30 12188 N 1160.48 -4.84818 3.19268 0
M  V30 12189 H 1163.25 -0.789126 2.89124 0
M  V30 12190 H 1160.81 -0.284187 1.59386 0
M  V30 12191 H 1162.8 -3.26925 2.38541 0
M  V30 12192 H 1161.37 -2.7708 1.44726 0
M  V30 12193 H 1160.59 -1.56208 3.61929 0
M  V30 12194 H 1161.88 -2.43685 4.46649 0
M  V30 12195 H 1161.27 -5.01943 2.60902 0
M  V30 12196 H 1159.83 -5.59607 3.34191 0
M  V30 12197 N 1163.26 -1.53291 -0.366026 0
M  V30 12198 C 1164.51 -1.68671 -1.10602 0
M  V30 12199 C 1164.83 -0.444793 -1.90476 0
M  V30 12200 O 1166.03 -0.479135 -2.67239 0
M  V30 12201 C 1164.49 -2.98174 -2.01545 0
M  V30 12202 C 1164.1 -4.29626 -1.26986 0
M  V30 12203 C 1165.84 -3.22921 -2.7554 0
M  V30 12204 C 1163.75 -5.50218 -2.16828 0
M  V30 12205 H 1162.68 -0.628456 -0.416604 0
M  V30 12206 H 1165.33 -1.79791 -0.367058 0
M  V30 12207 H 1163.71 -2.80855 -2.79171 0
M  V30 12208 H 1164.88 -4.57574 -0.544269 0
M  V30 12209 H 1163.2 -4.11318 -0.648558 0
M  V30 12210 H 1165.8 -4.10202 -3.42985 0
M  V30 12211 H 1166.14 -2.38964 -3.40884 0
M  V30 12212 H 1166.67 -3.40912 -2.04997 0
M  V30 12213 H 1163.41 -6.36651 -1.56063 0
M  V30 12214 H 1162.93 -5.26549 -2.87238 0
M  V30 12215 H 1164.61 -5.84991 -2.76396 0
M  V30 12216 N 1164.74 0.6258 -1.44643 0
M  V30 12217 C 1165.97 1.41028 -1.50979 0
M  V30 12218 C 1166.38 1.88717 -0.135092 0
M  V30 12219 O 1165.72 1.61778 0.870268 0
M  V30 12220 C 1165.79 2.66094 -2.41732 0
M  V30 12221 C 1165.45 2.40166 -3.88805 0
M  V30 12222 C 1166.45 2.01661 -4.79196 0
M  V30 12223 C 1164.13 2.53641 -4.33557 0
M  V30 12224 C 1166.13 1.76966 -6.12341 0
M  V30 12225 C 1163.81 2.2856 -5.66748 0
M  V30 12226 C 1164.81 1.90282 -6.55959 0
M  V30 12227 O 1164.5 1.65484 -7.86683 0
M  V30 12228 H 1164.23 0.438757 -0.514265 0
M  V30 12229 H 1166.78 0.772034 -1.90339 0
M  V30 12230 H 1165.01 3.32575 -1.97309 0
M  V30 12231 H 1166.7 3.28107 -2.38957 0
M  V30 12232 H 1167.47 1.90802 -4.45892 0
M  V30 12233 H 1163.35 2.82404 -3.64375 0
M  V30 12234 H 1166.89 1.47014 -6.81933 0
M  V30 12235 H 1162.79 2.3903 -5.99612 0
M  V30 12236 H 1163.56 1.79686 -7.98533 0
M  V30 12237 N 1166.22 1.31629 0.866686 0
M  V30 12238 C 1167.17 1.19556 1.97421 0
M  V30 12239 C 1168.14 0.0805578 1.65905 0
M  V30 12240 O 1169.32 0.253997 1.89102 0
M  V30 12241 C 1166.46 0.912234 3.32825 0
M  V30 12242 C 1165.58 2.11088 3.76916 0
M  V30 12243 C 1164.71 1.76406 5.01053 0
M  V30 12244 C 1163.75 2.9266 5.37602 0
M  V30 12245 N 1162.89 2.58152 6.52918 0
M  V30 12246 H 1167.73 2.14294 2.0708 0
M  V30 12247 H 1165.26 1.06595 1.0137 0
M  V30 12248 H 1167.22 0.72851 4.1079 0
M  V30 12249 H 1165.85 0.00167404 3.228 0
M  V30 12250 H 1164.9 2.40527 2.94705 0
M  V30 12251 H 1166.22 2.98089 3.99931 0
M  V30 12252 H 1165.37 1.54515 5.86694 0
M  V30 12253 H 1164.11 0.866018 4.79949 0
M  V30 12254 H 1163.11 3.15196 4.50479 0
M  V30 12255 H 1164.34 3.83179 5.6067 0
M  V30 12256 H 1162.28 1.70874 6.33355 0
M  V30 12257 H 1162.2 3.38682 6.75892 0
M  V30 12258 H 1163.47 2.39662 7.41743 0
M  V30 12259 N 1167.7 -1.08142 1.14644 0
M  V30 12260 C 1168.93 -1.84318 0.939926 0
M  V30 12261 C 1169.34 -1.81735 -0.511636 0
M  V30 12262 O 1168.7 -1.22297 -1.35461 0
M  V30 12263 C 1168.75 -3.31744 1.43625 0
M  V30 12264 O 1168.47 -3.3435 2.83094 0
M  V30 12265 C 1169.97 -4.24717 1.27007 0
M  V30 12266 H 1167.19 -0.581781 0.334323 0
M  V30 12267 H 1169.74 -1.36561 1.52221 0
M  V30 12268 H 1167.89 -3.7688 0.896664 0
M  V30 12269 H 1168.31 -4.26399 3.05425 0
M  V30 12270 H 1169.78 -5.26262 1.66591 0
M  V30 12271 H 1170.26 -4.38682 0.213257 0
M  V30 12272 H 1170.86 -3.85409 1.79833 0
M  V30 12273 N 1169.18 -0.941978 -1.26351 0
M  V30 12274 C 1170.59 -0.632522 -1.75659 0
M  V30 12275 C 1170.94 0.852287 -1.76722 0
M  V30 12276 O 1170.06 1.66701 -1.37985 0
M  V30 12277 C 1170.66 -1.14145 -3.18993 0
M  V30 12278 C 1169.22 -0.882391 -3.65911 0
M  V30 12279 C 1168.37 -1.29189 -2.45368 0
M  V30 12280 H 1171.32 -1.12019 -1.12416 0
M  V30 12281 H 1171.34 -0.495639 -3.77258 0
M  V30 12282 H 1170.85 -2.22213 -3.18187 0
M  V30 12283 H 1168.95 0.183873 -3.72146 0
M  V30 12284 H 1169.06 -1.50996 -4.54683 0
M  V30 12285 H 1167.43 -0.710316 -2.44595 0
M  V30 12286 H 1168.21 -2.38152 -2.47262 0
M  V30 12287 N 1170.66 1.40747 -0.709091 0
M  V30 12288 C 1172.07 1.83955 -0.318968 0
M  V30 12289 C 1172.42 1.59304 1.14527 0
M  V30 12290 O 1171.54 1.07052 1.88066 0
M  V30 12291 C 1172.14 3.33934 -0.572147 0
M  V30 12292 C 1170.7 3.75661 -0.235802 0
M  V30 12293 C 1169.84 2.64024 -0.847743 0
M  V30 12294 H 1172.79 1.30107 -0.908734 0
M  V30 12295 H 1172.82 3.80143 0.164752 0
M  V30 12296 H 1172.33 3.51844 -1.63791 0
M  V30 12297 H 1170.43 3.63348 0.825164 0
M  V30 12298 H 1170.54 4.73955 -0.700263 0
M  V30 12299 H 1168.91 2.53197 -0.276283 0
M  V30 12300 H 1169.69 2.84748 -1.91765 0
M  V30 12301 N 1172.13 0.454803 1.50895 0
M  V30 12302 C 1173.38 -0.107367 2.01414 0
M  V30 12303 C 1173.7 -1.42243 1.34262 0
M  V30 12304 O 1174.9 -2.06858 1.75846 0
M  V30 12305 C 1173.36 -0.241872 3.59086 0
M  V30 12306 C 1172.97 1.06379 4.35187 0
M  V30 12307 C 1174.71 -0.756873 4.17698 0
M  V30 12308 C 1172.62 0.893973 5.84604 0
M  V30 12309 H 1171.55 -0.0439003 0.752721 0
M  V30 12310 H 1174.2 0.587225 1.7385 0
M  V30 12311 H 1172.58 -0.999873 3.83169 0
M  V30 12312 H 1173.75 1.83148 4.2284 0
M  V30 12313 H 1172.07 1.50865 3.88109 0
M  V30 12314 H 1174.67 -0.900697 5.27059 0
M  V30 12315 H 1175.01 -1.74397 3.7801 0
M  V30 12316 H 1175.54 -0.0567088 3.9776 0
M  V30 12317 H 1172.28 1.85395 6.28736 0
M  V30 12318 H 1171.8 0.166387 5.99569 0
M  V30 12319 H 1173.48 0.554084 6.44623 0
M  V30 12320 N 1173.61 -1.56489 0.186789 0
M  V30 12321 C 1174.56 -2.18703 -0.737402 0
M  V30 12322 C 1175.53 -1.13171 -1.21579 0
M  V30 12323 O 1176.71 -1.41388 -1.28118 0
M  V30 12324 C 1173.85 -2.84394 -1.95484 0
M  V30 12325 C 1172.97 -4.04429 -1.51859 0
M  V30 12326 C 1172.1 -4.58001 -2.69089 0
M  V30 12327 C 1171.14 -5.70412 -2.22029 0
M  V30 12328 N 1170.28 -6.18425 -3.32407 0
M  V30 12329 H 1175.12 -2.97327 -0.200105 0
M  V30 12330 H 1172.65 -1.46842 -0.087032 0
M  V30 12331 H 1174.61 -3.20646 -2.66912 0
M  V30 12332 H 1173.24 -2.08347 -2.46559 0
M  V30 12333 H 1172.29 -3.73895 -0.70048 0
M  V30 12334 H 1173.61 -4.85756 -1.13327 0
M  V30 12335 H 1172.76 -4.96515 -3.48652 0
M  V30 12336 H 1171.5 -3.75764 -3.1089 0
M  V30 12337 H 1170.5 -5.31434 -1.40918 0
M  V30 12338 H 1171.73 -6.54461 -1.81268 0
M  V30 12339 H 1169.68 -5.39113 -3.73755 0
M  V30 12340 H 1169.59 -6.94782 -2.98017 0
M  V30 12341 H 1170.86 -6.61592 -4.12209 0
M  V30 12342 N 1175.09 0.086862 -1.5736 0
M  V30 12343 C 1176.37 0.820984 -1.77537 0
M  V30 12344 C 1176.75 1.96534 -0.770554 0
M  V30 12345 O 1176.09 2.27629 0.199334 0
M  V30 12346 C 1176.3 1.30793 -3.23565 0
M  V30 12347 C 1177.65 1.7474 -3.86977 0
M  V30 12348 O 1178.68 1.40396 -3.27364 0
M  V30 12349 O 1177.54 2.38271 -4.91822 0
M  V30 12350 H 1174.63 0.392228 -0.72807 0
M  V30 12351 H 1177.18 0.0681051 -1.69563 0
M  V30 12352 H 1175.95 0.488409 -3.8824 0
M  V30 12353 H 1175.57 2.12258 -3.36203 0
M  V30 12354 N 1176.57 1.53483 0.357892 0
M  V30 12355 C 1177.81 1.70037 1.09971 0
M  V30 12356 C 1178.14 0.456112 1.89076 0
M  V30 12357 O 1177.4 -0.562029 1.87456 0
M  V30 12358 C 1177.7 2.90654 2.07978 0
M  V30 12359 C 1177.36 4.26849 1.45295 0
M  V30 12360 C 1176.02 4.63884 1.27928 0
M  V30 12361 C 1178.38 5.11514 1.00013 0
M  V30 12362 C 1175.7 5.83213 0.638745 0
M  V30 12363 C 1178.06 6.31496 0.373568 0
M  V30 12364 C 1176.72 6.67237 0.187457 0
M  V30 12365 H 1175.99 0.622209 0.402414 0
M  V30 12366 H 1178.64 1.87679 0.380615 0
M  V30 12367 H 1176.94 2.67556 2.86219 0
M  V30 12368 H 1178.64 3.00656 2.65343 0
M  V30 12369 H 1175.23 3.97693 1.59807 0
M  V30 12370 H 1179.41 4.83446 1.12221 0
M  V30 12371 H 1174.67 6.09489 0.483035 0
M  V30 12372 H 1178.84 6.96398 0.0145346 0
M  V30 12373 H 1176.47 7.59564 -0.310933 0
M  V30 12374 N 1178.05 -0.61812 1.44973 0
M  V30 12375 C 1179.29 -1.37468 1.48145 0
M  V30 12376 C 1179.61 -1.94628 0.120366 0
M  V30 12377 O 1178.88 -1.76548 -0.848982 0
M  V30 12378 H 1177.46 -0.510293 0.545536 0
M  V30 12379 H 1180.13 -0.726598 1.8085 0
M  V30 12380 H 1179.22 -2.19944 2.2143 0
M  V30 12381 N 1179.52 -1.32087 -0.859693 0
M  V30 12382 C 1180.77 -1.22119 -1.61033 0
M  V30 12383 C 1181.09 0.218289 -1.93774 0
M  V30 12384 O 1180.36 1.14172 -1.5919 0
M  V30 12385 H 1178.94 -0.448989 -0.597008 0
M  V30 12386 H 1181.6 -1.65545 -1.02863 0
M  V30 12387 H 1180.7 -1.80023 -2.54947 0
M  V30 12388 N 1181 1.07532 -1.15215 0
M  V30 12389 C 1182.25 1.80093 -0.925891 0
M  V30 12390 C 1182.58 1.86648 0.547079 0
M  V30 12391 O 1181.83 1.34492 1.42164 0
M  V30 12392 C 1182.13 3.2518 -1.483 0
M  V30 12393 C 1181.8 3.38728 -2.97614 0
M  V30 12394 C 1180.46 3.42133 -3.38376 0
M  V30 12395 C 1182.81 3.41676 -3.93583 0
M  V30 12396 C 1180.14 3.46086 -4.73752 0
M  V30 12397 C 1182.49 3.47166 -5.28828 0
M  V30 12398 C 1181.15 3.48847 -5.69089 0
M  V30 12399 H 1180.42 0.659007 -0.338808 0
M  V30 12400 H 1183.07 1.26548 -1.43728 0
M  V30 12401 H 1181.38 3.81493 -0.892751 0
M  V30 12402 H 1183.07 3.79895 -1.28376 0
M  V30 12403 H 1179.66 3.36775 -2.65105 0
M  V30 12404 H 1183.85 3.38268 -3.63165 0
M  V30 12405 H 1179.1 3.45686 -5.04293 0
M  V30 12406 H 1183.28 3.48393 -6.02989 0
M  V30 12407 H 1180.9 3.51663 -6.73971 0
M  V30 12408 N 1182.48 0.948665 1.2585 0
M  V30 12409 C 1183.43 0.455115 2.28104 0
M  V30 12410 C 1184.42 -0.471508 1.62706 0
M  V30 12411 O 1185.63 -0.348895 1.76586 0
M  V30 12412 H 1182 0.128659 0.740912 0
M  V30 12413 H 1183.97 1.32991 2.67125 0
M  V30 12414 C 1182.72 -0.25729 3.46747 0
M  V30 12415 H 1182.05 0.44658 3.97298 0
M  V30 12416 H 1183.49 -0.566736 4.20195 0
M  V30 12417 C 1181.95 -1.47772 3.02762 0
M  V30 12418 O 1182.48 -2.57571 3.08253 0
M  V30 12419 N 1180.68 -1.33694 2.5802 0
M  V30 12420 H 1180.23 -0.443595 2.53752 0
M  V30 12421 H 1180.19 -2.1547 2.28954 0
M  V30 12422 N 1183.96 -1.40369 0.716545 0
M  V30 12423 C 1185.21 -2.00869 0.256466 0
M  V30 12424 C 1185.53 -1.56816 -1.15061 0
M  V30 12425 O 1184.79 -0.779696 -1.79497 0
M  V30 12426 C 1185.09 -3.56257 0.285583 0
M  V30 12427 C 1184.75 -4.19897 1.64309 0
M  V30 12428 C 1183.42 -4.36994 2.01469 0
M  V30 12429 C 1185.77 -4.55385 2.53524 0
M  V30 12430 C 1183.1 -4.86862 3.27387 0
M  V30 12431 C 1185.45 -5.06653 3.78795 0
M  V30 12432 C 1184.11 -5.21959 4.16071 0
M  V30 12433 H 1183.38 -0.735033 0.0938475 0
M  V30 12434 H 1186.03 -1.67966 0.919765 0
M  V30 12435 H 1184.33 -3.89075 -0.461287 0
M  V30 12436 H 1186.03 -4.00903 -0.0882496 0
M  V30 12437 H 1182.62 -4.06978 1.34413 0
M  V30 12438 H 1186.8 -4.41811 2.2609 0
M  V30 12439 H 1182.06 -4.96897 3.56235 0
M  V30 12440 H 1186.23 -5.33089 4.48095 0
M  V30 12441 H 1183.86 -5.60362 5.1371 0
M  V30 12442 N 1185.44 -0.462799 -1.50652 0
M  V30 12443 C 1186.66 0.0952726 -2.07181 0
M  V30 12444 C 1187.09 1.33479 -1.32533 0
M  V30 12445 O 1186.44 1.77473 -0.370564 0
M  V30 12446 C 1186.49 0.370592 -3.58691 0
M  V30 12447 O 1185.6 1.4526 -3.85971 0
M  V30 12448 H 1184.94 -0.00932702 -0.663934 0
M  V30 12449 H 1187.47 -0.651458 -1.93951 0
M  V30 12450 H 1187.48 0.613551 -4.0336 0
M  V30 12451 H 1186.15 -0.535219 -4.12442 0
M  V30 12452 H 1184.73 1.1976 -3.53146 0
M  V30 12453 N 1186.91 1.56388 -0.195085 0
M  V30 12454 C 1187.85 2.16316 0.757643 0
M  V30 12455 C 1188.86 1.12498 1.17678 0
M  V30 12456 O 1190.05 1.39591 1.11251 0
M  V30 12457 C 1187.15 2.7104 2.03447 0
M  V30 12458 C 1186.32 3.99759 1.77514 0
M  V30 12459 C 1185.38 4.3931 2.89644 0
M  V30 12460 O 1184.41 5.06732 2.59252 0
M  V30 12461 N 1185.61 4.02813 4.17998 0
M  V30 12462 H 1188.37 2.98696 0.24517 0
M  V30 12463 H 1185.93 1.61895 -0.0131194 0
M  V30 12464 H 1187.93 2.94483 2.776 0
M  V30 12465 H 1186.5 1.93114 2.45817 0
M  V30 12466 H 1185.72 3.84448 0.8714 0
M  V30 12467 H 1187 4.83782 1.57585 0
M  V30 12468 H 1186.4 3.4858 4.45543 0
M  V30 12469 H 1184.96 4.31206 4.88779 0
M  V30 12470 N 1188.39 -0.0785156 1.57404 0
M  V30 12471 C 1189.64 -0.777722 1.86103 0
M  V30 12472 C 1189.95 -1.79079 0.786771 0
M  V30 12473 O 1191.16 -2.53908 0.961393 0
M  V30 12474 C 1189.62 -1.43407 3.30095 0
M  V30 12475 C 1189.22 -0.459912 4.45633 0
M  V30 12476 C 1190.97 -2.11603 3.68 0
M  V30 12477 C 1188.88 -1.12179 5.80663 0
M  V30 12478 H 1187.81 -0.294205 0.694233 0
M  V30 12479 H 1190.46 -0.0309003 1.83474 0
M  V30 12480 H 1188.84 -2.22892 3.27315 0
M  V30 12481 H 1190.01 0.304642 4.59792 0
M  V30 12482 H 1188.33 0.117242 4.16235 0
M  V30 12483 H 1190.92 -2.61887 4.66175 0
M  V30 12484 H 1191.27 -2.91244 2.9746 0
M  V30 12485 H 1191.8 -1.38958 3.72741 0
M  V30 12486 H 1188.54 -0.365842 6.54478 0
M  V30 12487 H 1188.06 -1.85737 5.70317 0
M  V30 12488 H 1189.74 -1.64355 6.25777 0
M  V30 12489 N 1189.87 -1.5367 -0.349747 0
M  V30 12490 C 1190.8 -1.84208 -1.43492 0
M  V30 12491 C 1191.78 -0.696725 -1.55177 0
M  V30 12492 O 1192.97 -0.948061 -1.69486 0
M  V30 12493 C 1190.1 -2.04613 -2.80625 0
M  V30 12494 C 1189.05 -3.20419 -2.83753 0
M  V30 12495 C 1188.38 -3.26147 -4.23713 0
M  V30 12496 C 1189.68 -4.58666 -2.49846 0
M  V30 12497 H 1191.37 -2.75087 -1.18185 0
M  V30 12498 H 1188.92 -1.32363 -0.567101 0
M  V30 12499 H 1190.87 -2.2456 -3.56582 0
M  V30 12500 H 1189.59 -1.10459 -3.07354 0
M  V30 12501 H 1188.25 -3.00318 -2.10249 0
M  V30 12502 H 1187.9 -2.29599 -4.47541 0
M  V30 12503 H 1187.6 -4.03963 -4.26717 0
M  V30 12504 H 1189.12 -3.48296 -5.0152 0
M  V30 12505 H 1190.54 -4.78668 -3.15516 0
M  V30 12506 H 1188.94 -5.3884 -2.64144 0
M  V30 12507 H 1190.01 -4.62697 -1.4505 0
M  V30 12508 N 1191.35 0.610423 -1.45298 0
M  V30 12509 C 1192.76 1.19234 -1.43667 0
M  V30 12510 C 1193.11 1.95523 -0.162794 0
M  V30 12511 O 1192.24 2.03507 0.735789 0
M  V30 12512 C 1192.83 2.16892 -2.60276 0
M  V30 12513 C 1191.39 2.70465 -2.61774 0
M  V30 12514 C 1190.54 1.45821 -2.35863 0
M  V30 12515 H 1193.49 0.399895 -1.53579 0
M  V30 12516 H 1193.51 2.99875 -2.34212 0
M  V30 12517 H 1193.02 1.61339 -3.52975 0
M  V30 12518 H 1191.12 3.29965 -1.73072 0
M  V30 12519 H 1191.23 3.15092 -3.60907 0
M  V30 12520 H 1189.6 1.74678 -1.85364 0
M  V30 12521 H 1190.38 0.921403 -3.30704 0
M  V30 12522 N 1192.83 1.32541 0.852676 0
M  V30 12523 C 1194.1 1.1383 1.59067 0
M  V30 12524 C 1194.48 -0.300584 2.08949 0
M  V30 12525 O 1193.83 -1.29751 1.88088 0
M  V30 12526 C 1194.04 2.16758 2.73527 0
M  V30 12527 C 1195.39 2.50194 3.43057 0
M  V30 12528 O 1196.41 2.15319 2.83754 0
M  V30 12529 O 1195.27 3.09985 4.50079 0
M  V30 12530 H 1192.37 0.439379 0.700625 0
M  V30 12531 H 1194.91 1.44078 0.896632 0
M  V30 12532 H 1193.68 3.13469 2.34207 0
M  V30 12533 H 1193.31 1.87515 3.50605 0
M  V30 12534 N 1194.3 -1.0692 1.15784 0
M  V30 12535 C 1195.72 -1.61069 0.944123 0
M  V30 12536 C 1196.07 -1.8936 -0.513522 0
M  V30 12537 O 1195.19 -1.66232 -1.38549 0
M  V30 12538 C 1195.79 -2.9263 1.70743 0
M  V30 12539 C 1194.35 -3.43505 1.53887 0
M  V30 12540 C 1193.49 -2.17495 1.72021 0
M  V30 12541 H 1196.44 -0.89951 1.30746 0
M  V30 12542 H 1196.46 -3.61757 1.17951 0
M  V30 12543 H 1195.98 -2.72007 2.76828 0
M  V30 12544 H 1194.08 -3.69201 0.502153 0
M  V30 12545 H 1194.19 -4.19254 2.31868 0
M  V30 12546 H 1192.55 -2.27407 1.1471 0
M  V30 12547 H 1193.34 -1.99362 2.79481 0
M  V30 12548 N 1195.78 -0.955326 -1.25345 0
M  V30 12549 C 1197.01 -0.627233 -1.97688 0
M  V30 12550 C 1197.43 0.793973 -1.70522 0
M  V30 12551 O 1196.79 1.537 -0.961556 0
M  V30 12552 C 1196.84 -0.892969 -3.49369 0
M  V30 12553 O 1195.94 0.0278871 -4.12391 0
M  V30 12554 H 1195.28 -0.238402 -0.619726 0
M  V30 12555 H 1197.81 -1.28211 -1.59446 0
M  V30 12556 H 1197.82 -0.819517 -3.99685 0
M  V30 12557 H 1196.5 -1.92879 -3.6847 0
M  V30 12558 H 1195.08 -0.0978295 -3.72772 0
M  V30 12559 N 1197.26 1.39987 -0.723979 0
M  V30 12560 C 1198.21 2.30672 -0.0768286 0
M  V30 12561 C 1199.18 1.48634 0.741422 0
M  V30 12562 O 1200.36 1.77351 0.703649 0
M  V30 12563 C 1197.5 3.34902 0.832729 0
M  V30 12564 C 1196.62 4.32 0.00304942 0
M  V30 12565 C 1195.75 5.23298 0.91286 0
M  V30 12566 C 1194.79 6.12051 0.0777706 0
M  V30 12567 N 1193.93 6.9574 0.942912 0
M  V30 12568 H 1198.77 2.85446 -0.855832 0
M  V30 12569 H 1196.3 1.40561 -0.433718 0
M  V30 12570 H 1198.26 3.93911 1.37441 0
M  V30 12571 H 1196.89 2.81611 1.57782 0
M  V30 12572 H 1195.94 3.74702 -0.655916 0
M  V30 12573 H 1197.26 4.94637 -0.643124 0
M  V30 12574 H 1196.41 5.87279 1.52277 0
M  V30 12575 H 1195.15 4.60956 1.59284 0
M  V30 12576 H 1194.15 5.47092 -0.545022 0
M  V30 12577 H 1195.38 6.76455 -0.598827 0
M  V30 12578 H 1193.33 6.35977 1.60838 0
M  V30 12579 H 1193.24 7.55176 0.352968 0
M  V30 12580 H 1194.51 7.64162 1.53874 0
M  V30 12581 N 1198.74 0.470782 1.50404 0
M  V30 12582 C 1200.15 0.0155901 1.86693 0
M  V30 12583 C 1200.5 -1.38908 1.38561 0
M  V30 12584 O 1199.63 -2.02971 0.750454 0
M  V30 12585 C 1200.22 0.0215152 3.38793 0
M  V30 12586 C 1198.78 -0.378206 3.74495 0
M  V30 12587 C 1197.93 0.407126 2.74295 0
M  V30 12588 H 1200.88 0.68507 1.43152 0
M  V30 12589 H 1200.9 -0.780717 3.72404 0
M  V30 12590 H 1200.41 1.04397 3.73795 0
M  V30 12591 H 1198.51 -1.40503 3.45094 0
M  V30 12592 H 1198.63 -0.0797643 4.79034 0
M  V30 12593 H 1196.99 -0.139123 2.5432 0
M  V30 12594 H 1197.77 1.42909 3.12141 0
M  V30 12595 N 1200.22 -1.56282 0.203376 0
M  V30 12596 C 1201.44 -2.02643 -0.441658 0
M  V30 12597 C 1201.87 -1.0825 -1.5383 0
M  V30 12598 O 1201.23 -0.0674337 -1.81175 0
M  V30 12599 C 1201.27 -3.47382 -0.967369 0
M  V30 12600 O 1200.38 -3.56115 -2.07981 0
M  V30 12601 H 1199.72 -0.656081 -0.102242 0
M  V30 12602 H 1202.25 -2.02134 0.316684 0
M  V30 12603 H 1202.26 -3.8734 -1.28186 0
M  V30 12604 H 1200.93 -4.15574 -0.164625 0
M  V30 12605 H 1199.51 -3.28035 -1.77334 0
M  V30 12606 N 1201.7 0.070167 -1.57444 0
M  V30 12607 C 1202.64 1.08322 -2.03801 0
M  V30 12608 C 1203.61 1.38364 -0.918946 0
M  V30 12609 O 1204.8 1.49404 -1.18672 0
M  V30 12610 C 1201.94 2.39128 -2.48821 0
M  V30 12611 C 1201.05 2.15603 -3.74352 0
M  V30 12612 C 1200.19 3.39984 -4.08148 0
M  V30 12613 C 1199.22 3.1183 -5.26715 0
M  V30 12614 N 1198.36 4.28546 -5.56141 0
M  V30 12615 H 1203.2 0.680931 -2.90116 0
M  V30 12616 H 1200.74 0.324657 -1.43473 0
M  V30 12617 H 1202.7 3.15501 -2.72975 0
M  V30 12618 H 1201.33 2.77157 -1.65481 0
M  V30 12619 H 1200.38 1.29915 -3.57528 0
M  V30 12620 H 1201.69 1.90808 -4.60862 0
M  V30 12621 H 1200.84 4.2475 -4.33211 0
M  V30 12622 H 1199.58 3.67856 -3.20208 0
M  V30 12623 H 1198.59 2.2546 -5.01446 0
M  V30 12624 H 1199.81 2.85278 -6.16273 0
M  V30 12625 H 1197.76 4.56447 -4.71161 0
M  V30 12626 H 1197.68 4.0703 -6.37073 0
M  V30 12627 H 1198.94 5.14305 -5.85757 0
M  V30 12628 N 1203.17 1.53854 0.341593 0
M  V30 12629 C 1204.59 1.44161 0.684821 0
M  V30 12630 C 1204.79 0.599929 1.92362 0
M  V30 12631 O 1203.85 0.0916771 2.52334 0
M  V30 12632 C 1205.16 2.87668 0.875637 0
M  V30 12633 C 1206.71 2.97455 0.974131 0
M  V30 12634 C 1207.18 4.42075 1.19725 0
M  V30 12635 N 1208.67 4.45609 1.2644 0
M  V30 12636 C 1209.41 5.54643 1.45459 0
M  V30 12637 N 1208.9 6.7368 1.61637 0
M  V30 12638 N 1210.7 5.4226 1.48022 0
M  V30 12639 H 1202.85 2.07069 -0.472883 0
M  V30 12640 H 1205.11 0.936114 -0.149648 0
M  V30 12641 H 1204.82 3.51681 0.0368595 0
M  V30 12642 H 1204.69 3.32731 1.7768 0
M  V30 12643 H 1207.08 2.33582 1.80343 0
M  V30 12644 H 1207.16 2.55751 0.0498282 0
M  V30 12645 H 1206.8 5.06529 0.372872 0
M  V30 12646 H 1206.73 4.81372 2.13515 0
M  V30 12647 H 1209.22 3.59831 1.15455 0
M  V30 12648 H 1209.54 7.52541 1.7579 0
M  V30 12649 H 1207.88 6.76622 1.5877 0
M  V30 12650 H 1211.07 4.48221 1.34966 0
M  V30 12651 H 1211.25 6.27293 1.62502 0
M  V30 12652 N 1204.65 -0.602709 1.4562 0
M  V30 12653 C 1205.88 -1.39299 1.53657 0
M  V30 12654 C 1206.3 -1.87315 0.171632 0
M  V30 12655 O 1205.66 -1.60423 -0.844639 0
M  V30 12656 C 1205.71 -2.57021 2.52928 0
M  V30 12657 O 1204.81 -3.57812 2.05047 0
M  V30 12658 H 1204.15 -0.41567 0.517798 0
M  V30 12659 H 1206.68 -0.73304 1.91018 0
M  V30 12660 H 1206.69 -3.04202 2.71892 0
M  V30 12661 H 1205.37 -2.21422 3.52058 0
M  V30 12662 H 1203.94 -3.17247 1.95981 0
M  V30 12663 N 1206.13 -1.32992 -0.845635 0
M  V30 12664 C 1207.38 -1.24065 -1.60044 0
M  V30 12665 C 1207.7 0.195282 -1.93517 0
M  V30 12666 O 1206.96 1.1507 -1.58296 0
M  V30 12667 C 1207.26 -2.05454 -2.92444 0
M  V30 12668 C 1206.92 -3.54718 -2.78362 0
M  V30 12669 C 1205.59 -3.95413 -2.74229 0
M  V30 12670 C 1207.94 -4.49598 -2.63649 0
M  V30 12671 C 1205.27 -5.29216 -2.53274 0
M  V30 12672 C 1207.62 -5.83554 -2.44228 0
M  V30 12673 C 1206.28 -6.2344 -2.38493 0
M  V30 12674 H 1205.55 -0.453985 -0.585644 0
M  V30 12675 H 1208.2 -1.6451 -0.980244 0
M  V30 12676 H 1206.5 -1.57765 -3.58633 0
M  V30 12677 H 1208.2 -1.95909 -3.49887 0
M  V30 12678 H 1204.79 -3.22403 -2.82409 0
M  V30 12679 H 1208.98 -4.19072 -2.65881 0
M  V30 12680 H 1204.23 -5.59164 -2.47275 0
M  V30 12681 H 1208.41 -6.56681 -2.31825 0
M  V30 12682 H 1206.03 -7.27058 -2.22015 0
M  V30 12683 N 1207.61 1.06304 -1.1635 0
M  V30 12684 C 1208.86 1.78487 -0.939423 0
M  V30 12685 C 1209.17 1.8817 0.533998 0
M  V30 12686 O 1210.38 2.56981 0.875962 0
M  V30 12687 C 1208.83 3.20796 -1.63149 0
M  V30 12688 C 1208.44 3.19281 -3.14267 0
M  V30 12689 C 1210.18 3.97514 -1.48938 0
M  V30 12690 C 1208.09 4.56309 -3.76213 0
M  V30 12691 H 1207.02 0.668973 -0.347837 0
M  V30 12692 H 1209.67 1.19237 -1.3948 0
M  V30 12693 H 1208.05 3.80305 -1.10382 0
M  V30 12694 H 1209.23 2.69356 -3.73877 0
M  V30 12695 H 1207.54 2.56062 -3.28362 0
M  V30 12696 H 1210.14 4.98808 -1.926 0
M  V30 12697 H 1210.48 4.13986 -0.438319 0
M  V30 12698 H 1211.02 3.44528 -1.98861 0
M  V30 12699 H 1207.75 4.45042 -4.81267 0
M  V30 12700 H 1207.27 5.06429 -3.21388 0
M  V30 12701 H 1208.95 5.25266 -3.77762 0
M  V30 12702 N 1209.09 0.96196 1.24836 0
M  V30 12703 C 1210 0.494876 2.29321 0
M  V30 12704 C 1211.01 -0.441363 1.68309 0
M  V30 12705 O 1212.19 -0.315814 1.98908 0
M  V30 12706 C 1209.25 -0.212944 3.46045 0
M  V30 12707 C 1208.31 0.762411 4.22476 0
M  V30 12708 C 1207.55 0.0882756 5.33627 0
M  V30 12709 O 1207.77 -1.12459 5.59204 0
M  V30 12710 O 1206.7 0.777529 5.96857 0
M  V30 12711 H 1210.53 1.36333 2.7138 0
M  V30 12712 H 1208.11 0.728738 1.30421 0
M  V30 12713 H 1210 -0.610805 4.1695 0
M  V30 12714 H 1208.67 -1.05645 3.05975 0
M  V30 12715 H 1207.58 1.21062 3.5397 0
M  V30 12716 H 1208.91 1.57416 4.66349 0
M  V30 12717 N 1210.56 -1.39601 0.731392 0
M  V30 12718 C 1211.84 -1.94531 0.20422 0
M  V30 12719 C 1212.22 -1.66845 -1.29329 0
M  V30 12720 O 1211.57 -0.994706 -2.05713 0
M  V30 12721 C 1211.78 -3.44891 0.53395 0
M  V30 12722 C 1213.13 -4.21863 0.481298 0
M  V30 12723 O 1214.15 -3.53073 0.470929 0
M  V30 12724 O 1213.01 -5.44452 0.472663 0
M  V30 12725 H 1210.1 -0.826214 0.0360436 0
M  V30 12726 H 1212.65 -1.49121 0.810005 0
M  V30 12727 H 1211.42 -3.58463 1.56907 0
M  V30 12728 H 1211.04 -3.97472 -0.10099 0
M  V30 12729 N 1212.04 -0.478751 -1.50152 0
M  V30 12730 C 1212.97 0.301182 -2.31549 0
M  V30 12731 C 1213.95 0.983276 -1.38801 0
M  V30 12732 O 1215.14 0.978973 -1.67719 0
M  V30 12733 C 1212.27 1.3791 -3.18745 0
M  V30 12734 C 1211.22 0.818175 -4.20107 0
M  V30 12735 C 1210.55 1.99496 -4.9609 0
M  V30 12736 C 1211.85 -0.17574 -5.22004 0
M  V30 12737 H 1213.54 -0.378188 -2.97002 0
M  V30 12738 H 1211.09 -0.183323 -1.42828 0
M  V30 12739 H 1213.04 1.93227 -3.74488 0
M  V30 12740 H 1211.77 2.08735 -2.51192 0
M  V30 12741 H 1210.42 0.286924 -3.65475 0
M  V30 12742 H 1210.07 2.69036 -4.25004 0
M  V30 12743 H 1209.77 1.62582 -5.6466 0
M  V30 12744 H 1211.3 2.55288 -5.54671 0
M  V30 12745 H 1212.71 0.288513 -5.72574 0
M  V30 12746 H 1211.11 -0.459549 -5.98338 0
M  V30 12747 H 1212.18 -1.09911 -4.72279 0
M  V30 12748 N 1213.52 1.56172 -0.211661 0
M  V30 12749 C 1214.45 2.22843 0.697375 0
M  V30 12750 C 1215.43 1.19689 1.20866 0
M  V30 12751 O 1216.62 1.48245 1.25447 0
M  V30 12752 C 1213.75 2.90067 1.90993 0
M  V30 12753 C 1212.7 3.99608 1.5329 0
M  V30 12754 C 1212.03 4.54078 2.82343 0
M  V30 12755 C 1213.33 5.17169 0.730333 0
M  V30 12756 H 1215.02 2.99065 0.141533 0
M  V30 12757 H 1212.57 1.43846 0.0666337 0
M  V30 12758 H 1214.52 3.35396 2.55123 0
M  V30 12759 H 1213.24 2.11276 2.49058 0
M  V30 12760 H 1211.9 3.54995 0.915115 0
M  V30 12761 H 1211.55 3.72029 3.38531 0
M  V30 12762 H 1211.25 5.28001 2.57853 0
M  V30 12763 H 1212.77 5.02119 3.47432 0
M  V30 12764 H 1214.19 5.5894 1.2751 0
M  V30 12765 H 1212.59 5.97262 0.582916 0
M  V30 12766 H 1213.66 4.84174 -0.265157 0
M  V30 12767 N 1215 -0.0618163 1.57479 0
M  V30 12768 C 1216.25 -0.759069 1.87735 0
M  V30 12769 C 1216.57 -1.77071 0.804732 0
M  V30 12770 O 1215.83 -1.94694 -0.198173 0
M  V30 12771 C 1216.13 -1.4939 3.2468 0
M  V30 12772 C 1215.79 -0.621312 4.46599 0
M  V30 12773 C 1214.46 -0.380873 4.7969 0
M  V30 12774 C 1216.81 -0.0168537 5.21197 0
M  V30 12775 C 1214.14 0.473341 5.84787 0
M  V30 12776 C 1216.49 0.824872 6.27199 0
M  V30 12777 C 1215.15 1.07509 6.58785 0
M  V30 12778 H 1214.42 -0.277763 0.686971 0
M  V30 12779 H 1217.07 -0.0195971 1.9149 0
M  V30 12780 H 1215.37 -2.30584 3.16762 0
M  V30 12781 H 1217.07 -2.03837 3.45328 0
M  V30 12782 H 1213.66 -0.818848 4.20705 0
M  V30 12783 H 1217.84 -0.189707 4.95937 0
M  V30 12784 H 1213.1 0.675842 6.07653 0
M  V30 12785 H 1217.27 1.29993 6.8416 0
M  V30 12786 H 1214.9 1.73876 7.40048 0
M  V30 12787 N 1216.48 -1.54033 -0.333429 0
M  V30 12788 C 1217.42 -1.83441 -1.43011 0
M  V30 12789 C 1218.42 -0.705592 -1.54006 0
M  V30 12790 O 1219.62 -0.889098 -1.56509 0
M  V30 12791 H 1216 -0.581326 -0.477037 0
M  V30 12792 H 1217.97 -2.75172 -1.15426 0
M  V30 12793 C 1216.72 -2.0698 -2.79382 0
M  V30 12794 H 1216.04 -2.93297 -2.71692 0
M  V30 12795 H 1217.48 -2.31517 -3.55212 0
M  V30 12796 C 1215.94 -0.85835 -3.25782 0
M  V30 12797 O 1216.47 -0.062739 -4.01651 0
M  V30 12798 N 1214.68 -0.672738 -2.82706 0
M  V30 12799 H 1214.22 -1.32136 -2.21128 0
M  V30 12800 H 1214.18 0.136347 -3.14104 0
M  V30 12801 N 1217.95 0.594978 -1.45938 0
M  V30 12802 C 1218.9 1.70489 -1.5557 0
M  V30 12803 C 1219.87 1.61193 -0.400751 0
M  V30 12804 O 1221.06 1.80587 -0.615882 0
M  V30 12805 C 1218.2 3.08817 -1.54033 0
M  V30 12806 C 1217.31 3.28827 -2.80173 0
M  V30 12807 C 1216.44 4.57333 -2.70222 0
M  V30 12808 C 1215.48 4.70644 -3.91357 0
M  V30 12809 N 1214.62 5.90463 -3.79865 0
M  V30 12810 H 1219.46 1.61593 -2.50383 0
M  V30 12811 H 1217 0.787747 -1.24229 0
M  V30 12812 H 1218.96 3.88865 -1.51129 0
M  V30 12813 H 1217.59 3.1664 -0.627617 0
M  V30 12814 H 1216.64 2.42467 -2.9311 0
M  V30 12815 H 1217.95 3.34534 -3.69985 0
M  V30 12816 H 1217.1 5.45593 -2.65354 0
M  V30 12817 H 1215.84 4.54045 -1.7803 0
M  V30 12818 H 1214.85 3.80805 -3.9657 0
M  V30 12819 H 1216.07 4.75721 -4.8463 0
M  V30 12820 H 1214.02 5.88196 -2.90451 0
M  V30 12821 H 1213.94 5.97385 -4.63322 0
M  V30 12822 H 1215.2 6.81187 -3.78952 0
M  V30 12823 N 1219.43 1.33438 0.838571 0
M  V30 12824 C 1220.68 1.25097 1.5962 0
M  V30 12825 C 1221.01 -0.182798 1.93338 0
M  V30 12826 O 1220.29 -1.1242 1.5872 0
M  V30 12827 C 1220.57 2.12655 2.90603 0
M  V30 12828 C 1220.42 3.64491 2.63565 0
M  V30 12829 C 1221.74 1.99994 3.92033 0
M  V30 12830 H 1218.86 0.455776 0.579169 0
M  V30 12831 H 1221.5 1.63542 0.967169 0
M  V30 12832 H 1219.65 1.79998 3.44286 0
M  V30 12833 H 1221.32 4.0744 2.16312 0
M  V30 12834 H 1219.57 3.86356 1.9726 0
M  V30 12835 H 1220.24 4.21101 3.569 0
M  V30 12836 H 1222.71 2.28635 3.47657 0
M  V30 12837 H 1221.59 2.63509 4.81512 0
M  V30 12838 H 1221.85 0.972263 4.31277 0
M  V30 12839 N 1220.91 -1.05686 1.16912 0
M  V30 12840 C 1222.14 -1.82282 0.978811 0
M  V30 12841 C 1222.55 -1.8278 -0.472972 0
M  V30 12842 O 1221.91 -1.25143 -1.32836 0
M  V30 12843 C 1221.96 -3.28623 1.50629 0
M  V30 12844 O 1221.68 -3.28269 2.90122 0
M  V30 12845 C 1223.18 -4.21927 1.35987 0
M  V30 12846 H 1220.4 -0.574558 0.346588 0
M  V30 12847 H 1222.95 -1.33301 1.55084 0
M  V30 12848 H 1221.1 -3.74893 0.976404 0
M  V30 12849 H 1221.52 -4.19824 3.14401 0
M  V30 12850 H 1222.99 -5.2261 1.77716 0
M  V30 12851 H 1223.47 -4.38131 0.30626 0
M  V30 12852 H 1224.07 -3.81508 1.87968 0
M  V30 12853 N 1222.39 -0.968567 -1.24324 0
M  V30 12854 C 1223.32 -0.518323 -2.27674 0
M  V30 12855 C 1224.3 0.442479 -1.64244 0
M  V30 12856 O 1225.48 0.338416 -1.91229 0
M  V30 12857 C 1222.61 0.191459 -3.46772 0
M  V30 12858 C 1221.57 -0.685449 -4.22476 0
M  V30 12859 C 1220.89 0.155873 -5.34473 0
M  V30 12860 C 1222.19 -1.97047 -4.83704 0
M  V30 12861 H 1223.89 -1.38215 -2.65588 0
M  V30 12862 H 1221.43 -0.66604 -1.27671 0
M  V30 12863 H 1223.39 0.517667 -4.18208 0
M  V30 12864 H 1222.11 1.08965 -3.07887 0
M  V30 12865 H 1220.77 -0.994942 -3.52841 0
M  V30 12866 H 1220.42 1.05424 -4.91828 0
M  V30 12867 H 1220.12 -0.427655 -5.86042 0
M  V30 12868 H 1221.64 0.476733 -6.08736 0
M  V30 12869 H 1223.06 -1.70979 -5.4721 0
M  V30 12870 H 1221.45 -2.50079 -5.45509 0
M  V30 12871 H 1222.52 -2.66484 -4.0511 0
M  V30 12872 N 1223.87 1.39211 -0.738786 0
M  V30 12873 C 1224.83 2.28937 -0.109746 0
M  V30 12874 C 1225.83 1.46488 0.663157 0
M  V30 12875 O 1227.02 1.67119 0.491614 0
M  V30 12876 C 1224.15 3.30039 0.853633 0
M  V30 12877 H 1225.34 2.86068 -0.900295 0
M  V30 12878 H 1222.9 1.47922 -0.504853 0
M  V30 12879 H 1223.63 2.77971 1.6704 0
M  V30 12880 H 1223.42 3.90935 0.302007 0
M  V30 12881 H 1224.91 3.97169 1.29022 0
M  V30 12882 N 1225.34 0.486708 1.49896 0
M  V30 12883 C 1226.62 -0.125183 1.95199 0
M  V30 12884 C 1227 -1.55498 1.42771 0
M  V30 12885 O 1226.35 -2.1949 0.635322 0
M  V30 12886 C 1226.56 -0.0524982 3.48961 0
M  V30 12887 C 1227.91 -0.233595 4.23957 0
M  V30 12888 O 1228.93 -0.128357 3.55969 0
M  V30 12889 O 1227.79 -0.447862 5.44662 0
M  V30 12890 H 1224.88 -0.103141 0.820543 0
M  V30 12891 H 1227.43 0.548226 1.60601 0
M  V30 12892 H 1226.2 0.945163 3.79714 0
M  V30 12893 H 1225.83 -0.766683 3.90138 0
M  V30 12894 N 1226.82 -1.56058 0.219941 0
M  V30 12895 C 1227.79 -2.18964 -0.677303 0
M  V30 12896 C 1228.79 -1.15105 -1.12283 0
M  V30 12897 O 1229.98 -1.40348 -1.03189 0
M  V30 12898 C 1227.11 -2.81167 -1.92764 0
M  V30 12899 H 1228.3 -2.99623 -0.128877 0
M  V30 12900 H 1225.85 -1.56272 -0.0296744 0
M  V30 12901 H 1226.59 -2.04374 -2.51797 0
M  V30 12902 H 1226.37 -3.5722 -1.61666 0
M  V30 12903 H 1227.86 -3.29391 -2.56693 0
M  V30 12904 N 1228.3 0.053464 -1.57509 0
M  V30 12905 C 1229.55 0.747622 -1.87763 0
M  V30 12906 C 1229.87 1.77178 -0.814433 0
M  V30 12907 O 1229.14 1.95287 0.154862 0
M  V30 12908 H 1227.72 0.279109 -0.692898 0
M  V30 12909 H 1230.38 0.0252006 -1.94884 0
M  V30 12910 H 1229.48 1.25244 -2.85868 0
M  V30 12911 N 1229.78 1.54207 0.325255 0
M  V30 12912 C 1231.03 1.72331 1.0634 0
M  V30 12913 C 1231.35 0.496115 1.88066 0
M  V30 12914 O 1230.61 -0.52214 1.88606 0
M  V30 12915 C 1230.91 2.95 2.01766 0
M  V30 12916 C 1230.57 4.29835 1.36208 0
M  V30 12917 C 1229.24 4.66493 1.18059 0
M  V30 12918 C 1231.59 5.13521 0.891404 0
M  V30 12919 C 1228.92 5.84436 0.514894 0
M  V30 12920 C 1231.27 6.32146 0.239534 0
M  V30 12921 C 1229.93 6.67484 0.0458839 0
M  V30 12922 H 1229.2 0.630605 0.389125 0
M  V30 12923 H 1231.85 1.88445 0.34072 0
M  V30 12924 H 1230.15 2.73567 2.80479 0
M  V30 12925 H 1231.85 3.06217 2.58906 0
M  V30 12926 H 1228.44 4.00993 1.51335 0
M  V30 12927 H 1232.63 4.85718 1.01941 0
M  V30 12928 H 1227.88 6.10376 0.353644 0
M  V30 12929 H 1232.06 6.96273 -0.133185 0
M  V30 12930 H 1229.68 7.58733 -0.471978 0
M  V30 12931 N 1231.26 -0.58723 1.46251 0
M  V30 12932 C 1232.51 -1.34179 1.50595 0
M  V30 12933 C 1232.82 -1.94943 0.160171 0
M  V30 12934 O 1234.03 -2.71378 0.0813797 0
M  V30 12935 C 1232.48 -2.43159 2.65333 0
M  V30 12936 C 1232.09 -1.88718 4.06312 0
M  V30 12937 C 1233.83 -3.19986 2.78943 0
M  V30 12938 C 1231.74 -2.953 5.12398 0
M  V30 12939 H 1230.67 -0.504401 0.560442 0
M  V30 12940 H 1233.32 -0.627179 1.72449 0
M  V30 12941 H 1231.7 -3.17398 2.368 0
M  V30 12942 H 1232.88 -1.21051 4.44616 0
M  V30 12943 H 1231.19 -1.24572 3.97329 0
M  V30 12944 H 1233.79 -3.9952 3.5537 0
M  V30 12945 H 1234.13 -3.72288 1.86298 0
M  V30 12946 H 1234.67 -2.52852 3.07101 0
M  V30 12947 H 1231.4 -2.4789 6.0682 0
M  V30 12948 H 1230.92 -3.61469 4.78644 0
M  V30 12949 H 1232.6 -3.5933 5.38044 0
M  V30 12950 N 1232.74 -1.33881 -0.831482 0
M  V30 12951 C 1233.68 -1.24748 -1.94182 0
M  V30 12952 C 1234.65 -0.124516 -1.65633 0
M  V30 12953 O 1235.84 -0.304045 -1.88362 0
M  V30 12954 C 1232.98 -1.00016 -3.30289 0
M  V30 12955 C 1232.09 -2.21007 -3.71187 0
M  V30 12956 C 1231.23 -1.89629 -4.962 0
M  V30 12957 C 1230.26 -3.06811 -5.29654 0
M  V30 12958 N 1229.4 -2.75372 -6.45844 0
M  V30 12959 H 1234.24 -2.19709 -2.01325 0
M  V30 12960 H 1231.78 -1.09245 -0.985081 0
M  V30 12961 H 1233.74 -0.837167 -4.08714 0
M  V30 12962 H 1232.37 -0.0872582 -3.22682 0
M  V30 12963 H 1231.42 -2.48256 -2.88224 0
M  V30 12964 H 1232.73 -3.08587 -3.91887 0
M  V30 12965 H 1231.88 -1.70016 -5.82391 0
M  V30 12966 H 1230.62 -0.992964 -4.77485 0
M  V30 12967 H 1229.63 -3.27029 -4.41964 0
M  V30 12968 H 1230.85 -3.97909 -5.50314 0
M  V30 12969 H 1228.8 -1.87607 -6.28601 0
M  V30 12970 H 1228.72 -3.56483 -6.66675 0
M  V30 12971 H 1229.98 -2.59244 -7.35128 0
M  V30 12972 N 1234.21 1.05064 -1.1747 0
M  V30 12973 C 1235.15 2.12842 -0.850344 0
M  V30 12974 C 1236.16 1.62128 0.147796 0
M  V30 12975 O 1237.35 1.78327 -0.0786774 0
M  V30 12976 C 1234.45 3.37995 -0.247486 0
M  V30 12977 C 1233.62 4.17981 -1.28881 0
M  V30 12978 C 1232.68 5.21476 -0.703476 0
M  V30 12979 O 1231.71 5.52327 -1.37561 0
M  V30 12980 N 1232.91 5.78309 0.50387 0
M  V30 12981 H 1235.67 2.41264 -1.77797 0
M  V30 12982 H 1233.23 1.21172 -1.07373 0
M  V30 12983 H 1235.23 4.04394 0.157424 0
M  V30 12984 H 1233.8 3.07097 0.583952 0
M  V30 12985 H 1233.02 3.47054 -1.86942 0
M  V30 12986 H 1234.3 4.6822 -1.99116 0
M  V30 12987 H 1233.7 5.5553 1.06787 0
M  V30 12988 H 1232.26 6.46223 0.850828 0
M  V30 12989 N 1235.69 0.975146 1.23809 0
M  V30 12990 C 1236.92 0.658023 1.95841 0
M  V30 12991 C 1237.33 -0.778132 1.72458 0
M  V30 12992 O 1236.67 -1.53462 1.00971 0
M  V30 12993 C 1236.73 0.862038 3.49012 0
M  V30 12994 C 1236.4 2.27925 3.96105 0
M  V30 12995 C 1237.4 3.25755 4.05191 0
M  V30 12996 C 1235.08 2.60894 4.29231 0
M  V30 12997 C 1237.07 4.54636 4.46749 0
M  V30 12998 C 1234.76 3.89999 4.70472 0
M  V30 12999 C 1235.76 4.86682 4.79197 0
M  V30 13000 O 1235.45 6.13483 5.19513 0
M  V30 13001 H 1235.18 0.243915 0.630461 0
M  V30 13002 H 1237.73 1.30768 1.58395 0
M  V30 13003 H 1235.96 0.155209 3.86388 0
M  V30 13004 H 1237.65 0.542873 4.02253 0
M  V30 13005 H 1238.42 3.01614 3.79808 0
M  V30 13006 H 1234.3 1.86355 4.21655 0
M  V30 13007 H 1237.84 5.30101 4.53474 0
M  V30 13008 H 1233.74 4.13937 4.95304 0
M  V30 13009 H 1234.51 6.17158 5.37641 0
M  V30 13010 N 1237.17 -1.38817 0.746158 0
M  V30 13011 C 1238.42 -1.99885 0.298425 0
M  V30 13012 C 1238.74 -1.59518 -1.12156 0
M  V30 13013 O 1238.01 -0.848568 -1.76568 0
M  V30 13014 H 1236.59 -0.739247 0.107347 0
M  V30 13015 H 1239.25 -1.69696 0.9586 0
M  V30 13016 H 1238.35 -3.10067 0.355656 0
M  V30 13017 N 1238.65 -0.49465 -1.49636 0
M  V30 13018 C 1239.92 0.114829 -1.95263 0
M  V30 13019 C 1240.3 1.54739 -1.43593 0
M  V30 13020 O 1239.65 2.1915 -0.646953 0
M  V30 13021 C 1239.86 0.0339912 -3.48983 0
M  V30 13022 C 1241.21 0.211108 -4.24075 0
M  V30 13023 O 1242.23 0.109478 -3.56032 0
M  V30 13024 O 1241.09 0.418971 -5.44892 0
M  V30 13025 H 1238.19 0.0987883 -0.821078 0
M  V30 13026 H 1240.73 -0.556736 -1.60308 0
M  V30 13027 H 1239.51 -0.965287 -3.79207 0
M  V30 13028 H 1239.13 0.745982 -3.90539 0
M  V30 13029 N 1240.13 1.55939 -0.228214 0
M  V30 13030 C 1241.37 2.00379 0.403442 0
M  V30 13031 C 1241.73 1.11264 1.56475 0
M  V30 13032 O 1242.93 1.45079 2.26287 0
M  V30 13033 C 1241.2 3.47851 0.820649 0
M  V30 13034 S 1242.76 4.14309 1.44547 0
M  V30 13035 H 1239.58 0.699426 0.127768 0
M  V30 13036 H 1242.18 1.92537 -0.339066 0
M  V30 13037 H 1240.88 4.10386 -0.0341308 0
M  V30 13038 H 1240.42 3.5958 1.5958 0
M  V30 13039 H 1242.43 4.14048 2.73456 0
M  V30 13040 N 1241.6 -0.0451101 1.57535 0
M  V30 13041 C 1242.53 -1.05046 2.08537 0
M  V30 13042 C 1243.52 -1.3872 0.984418 0
M  V30 13043 O 1244.7 -1.47884 1.25873 0
M  V30 13044 C 1241.83 -2.3562 2.55148 0
M  V30 13045 C 1240.78 -2.16231 3.69362 0
M  V30 13046 C 1240.11 -3.52423 4.02122 0
M  V30 13047 C 1241.41 -1.56159 4.98409 0
M  V30 13048 H 1243.1 -0.625965 2.92783 0
M  V30 13049 H 1240.65 -0.299657 1.40848 0
M  V30 13050 H 1242.6 -3.06266 2.89446 0
M  V30 13051 H 1241.33 -2.80099 1.67964 0
M  V30 13052 H 1239.99 -1.4802 3.35389 0
M  V30 13053 H 1239.63 -3.94522 3.12028 0
M  V30 13054 H 1239.33 -3.4028 4.79044 0
M  V30 13055 H 1240.86 -4.24458 4.38939 0
M  V30 13056 H 1242.27 -2.16703 5.30766 0
M  V30 13057 H 1240.67 -1.54638 5.79834 0
M  V30 13058 H 1241.74 -0.525698 4.82042 0
M  V30 13059 N 1243.08 -1.54377 -0.317073 0
M  V30 13060 C 1244.33 -1.72551 -1.05216 0
M  V30 13061 C 1244.65 -0.5055 -1.88334 0
M  V30 13062 O 1243.92 0.480439 -1.89917 0
M  V30 13063 H 1242.5 -0.636222 -0.391447 0
M  V30 13064 H 1245.16 -1.91696 -0.35194 0
M  V30 13065 H 1244.26 -2.60791 -1.71448 0
M  V30 13066 N 1244.56 0.579466 -1.4656 0
M  V30 13067 C 1245.84 1.33973 -1.42515 0
M  V30 13068 C 1246.22 2.10812 -0.110317 0
M  V30 13069 O 1245.57 2.09679 0.908135 0
M  V30 13070 C 1245.78 2.26301 -2.65686 0
M  V30 13071 C 1247.12 2.88027 -3.1197 0
M  V30 13072 O 1248.15 2.36612 -2.66257 0
M  V30 13073 O 1247.01 3.81423 -3.9138 0
M  V30 13074 H 1244.1 0.602121 -0.566903 0
M  V30 13075 H 1246.65 0.600214 -1.58731 0
M  V30 13076 H 1245.42 1.68973 -3.52936 0
M  V30 13077 H 1245.04 3.07586 -2.51945 0
M  V30 13078 N 1246.04 1.3432 0.824371 0
M  V30 13079 C 1247.29 1.25938 1.57552 0
M  V30 13080 C 1247.6 -0.169298 1.94866 0
M  V30 13081 O 1248.81 -0.375262 2.68894 0
M  V30 13082 C 1247.26 2.20757 2.84244 0
M  V30 13083 C 1246.87 3.68873 2.54237 0
M  V30 13084 C 1248.61 2.21279 3.62265 0
M  V30 13085 C 1246.52 4.55566 3.77113 0
M  V30 13086 H 1245.45 0.467832 0.591311 0
M  V30 13087 H 1248.1 1.59476 0.907724 0
M  V30 13088 H 1246.48 1.80168 3.52641 0
M  V30 13089 H 1247.66 4.17991 1.93959 0
M  V30 13090 H 1245.97 3.70784 1.89494 0
M  V30 13091 H 1248.57 2.83272 4.53499 0
M  V30 13092 H 1248.91 1.2117 3.98276 0
M  V30 13093 H 1249.45 2.60305 3.00809 0
M  V30 13094 H 1246.19 5.56605 3.46223 0
M  V30 13095 H 1245.71 4.11184 4.36678 0
M  V30 13096 H 1247.38 4.701 4.44539 0
M  V30 13097 N 1247.52 -1.0444 1.18026 0
M  V30 13098 C 1248.48 -2.10532 0.906028 0
M  V30 13099 C 1249.48 -1.60443 -0.107022 0
M  V30 13100 O 1250.67 -1.73744 0.126001 0
M  V30 13101 C 1247.8 -3.39008 0.358625 0
M  V30 13102 H 1248.99 -2.36293 1.84677 0
M  V30 13103 H 1246.55 -1.20805 0.991763 0
M  V30 13104 H 1247.28 -3.18908 -0.588904 0
M  V30 13105 H 1247.07 -3.76678 1.08884 0
M  V30 13106 H 1248.56 -4.17189 0.185331 0
M  V30 13107 N 1248.99 -0.981699 -1.2329 0
M  V30 13108 C 1249.96 -0.527992 -2.23036 0
M  V30 13109 C 1250.96 0.383083 -1.5617 0
M  V30 13110 O 1252.15 0.176595 -1.73303 0
M  V30 13111 C 1249.28 0.233501 -3.40099 0
M  V30 13112 H 1250.47 -1.40995 -2.64689 0
M  V30 13113 H 1248.03 -0.767724 -1.36146 0
M  V30 13114 H 1248.76 1.13194 -3.03904 0
M  V30 13115 H 1248.55 -0.420505 -3.89839 0
M  V30 13116 H 1250.04 0.539485 -4.14101 0
M  V30 13117 N 1250.47 1.3842 -0.753509 0
M  V30 13118 C 1251.89 1.53668 -0.431095 0
M  V30 13119 C 1252.09 1.71626 1.05578 0
M  V30 13120 O 1251.14 1.72723 1.84182 0
M  V30 13121 C 1252.46 2.74381 -1.23027 0
M  V30 13122 C 1254.01 2.8823 -1.22034 0
M  V30 13123 C 1254.48 4.11904 -2.00248 0
M  V30 13124 N 1255.97 4.18981 -1.97508 0
M  V30 13125 C 1256.71 5.13667 -2.5482 0
M  V30 13126 N 1256.2 6.14027 -3.20846 0
M  V30 13127 N 1258 5.06017 -2.44751 0
M  V30 13128 H 1250.15 1.25012 -1.71714 0
M  V30 13129 H 1252.41 0.607296 -0.727939 0
M  V30 13130 H 1252.12 2.67515 -2.28317 0
M  V30 13131 H 1251.99 3.67565 -0.847098 0
M  V30 13132 H 1254.38 2.94578 -0.175502 0
M  V30 13133 H 1254.46 1.96057 -1.64303 0
M  V30 13134 H 1254.1 4.06318 -3.04742 0
M  V30 13135 H 1254.03 5.03157 -1.55373 0
M  V30 13136 H 1256.52 3.47104 -1.49423 0
M  V30 13137 H 1256.84 6.82771 -3.61999 0
M  V30 13138 H 1255.18 6.1436 -3.24941 0
M  V30 13139 H 1258.37 4.26552 -1.92797 0
M  V30 13140 H 1258.54 5.7963 -2.89713 0
M  V30 13141 N 1251.95 0.502579 1.49372 0
M  V30 13142 C 1253.23 -0.104472 1.95321 0
M  V30 13143 C 1253.61 -1.53975 1.44412 0
M  V30 13144 O 1252.96 -2.18804 0.658566 0
M  V30 13145 C 1253.17 -0.0154833 3.48997 0
M  V30 13146 C 1254.51 -0.188615 4.24181 0
M  V30 13147 O 1255.54 -0.090595 3.56085 0
M  V30 13148 O 1254.4 -0.390068 5.45106 0
M  V30 13149 H 1251.49 -0.0944325 0.821591 0
M  V30 13150 H 1254.04 0.565229 1.6001 0
M  V30 13151 H 1252.81 0.985383 3.7869 0
M  V30 13152 H 1252.43 -0.72526 3.90929 0
M  V30 13153 N 1253.43 -1.55816 0.23648 0
M  V30 13154 C 1254.36 -2.23924 -0.661834 0
M  V30 13155 C 1255.34 -1.21597 -1.18946 0
M  V30 13156 O 1256.52 -1.50222 -1.23073 0
M  V30 13157 C 1253.65 -2.93069 -1.86355 0
M  V30 13158 C 1252.61 -4.01996 -1.46913 0
M  V30 13159 C 1251.93 -4.58512 -2.75083 0
M  V30 13160 C 1253.23 -5.18265 -0.647964 0
M  V30 13161 H 1254.93 -2.99253 -0.0939368 0
M  V30 13162 H 1252.47 -1.43934 -0.0437407 0
M  V30 13163 H 1254.43 -3.39412 -2.49755 0
M  V30 13164 H 1253.15 -2.15212 -2.45665 0
M  V30 13165 H 1251.81 -3.56406 -0.858522 0
M  V30 13166 H 1251.46 -3.77368 -3.3257 0
M  V30 13167 H 1251.16 -5.32037 -2.49421 0
M  V30 13168 H 1252.68 -5.07583 -3.39399 0
M  V30 13169 H 1254.1 -5.60898 -1.18602 0
M  V30 13170 H 1252.49 -5.98114 -0.487823 0
M  V30 13171 H 1253.56 -4.83691 0.342151 0
M  V30 13172 N 1254.91 0.036755 -1.57557 0
M  V30 13173 C 1256.16 0.728107 -1.881 0
M  V30 13174 C 1256.47 1.7693 -0.833974 0
M  V30 13175 O 1257.67 2.5127 -1.02837 0
M  V30 13176 C 1256.13 1.34604 -3.33781 0
M  V30 13177 C 1255.74 0.341599 -4.46696 0
M  V30 13178 C 1257.48 2.01772 -3.73481 0
M  V30 13179 C 1255.39 0.967444 -5.83433 0
M  V30 13180 H 1254.32 0.275695 -0.701789 0
M  V30 13181 H 1256.97 -0.0177555 -1.83491 0
M  V30 13182 H 1255.35 2.14135 -3.3311 0
M  V30 13183 H 1256.53 -0.426441 -4.58823 0
M  V30 13184 H 1254.84 -0.227558 -4.15778 0
M  V30 13185 H 1257.44 2.49435 -4.72955 0
M  V30 13186 H 1257.78 2.83255 -3.05077 0
M  V30 13187 H 1258.31 1.29026 -3.76294 0
M  V30 13188 H 1255.05 0.19219 -6.55218 0
M  V30 13189 H 1254.57 1.70551 -5.75041 0
M  V30 13190 H 1256.25 1.47705 -6.29914 0
M  V30 13191 N 1256.39 1.54543 0.308881 0
M  V30 13192 C 1257.63 1.75182 1.05312 0
M  V30 13193 C 1257.99 0.522347 1.84758 0
M  V30 13194 O 1259.19 0.606334 2.61872 0
M  V30 13195 C 1257.46 3.0007 1.94147 0
M  V30 13196 S 1259.02 3.41676 2.75323 0
M  V30 13197 H 1255.84 0.615862 0.355296 0
M  V30 13198 H 1258.44 1.92739 0.327413 0
M  V30 13199 H 1257.14 3.87685 1.34643 0
M  V30 13200 H 1256.68 2.85078 2.71098 0
M  V30 13201 H 1258.69 2.98128 3.96654 0
M  V30 13202 N 1257.86 -0.571685 1.46866 0
M  V30 13203 C 1258.83 -1.66198 1.57832 0
M  V30 13204 C 1259.83 -1.54242 0.454547 0
M  V30 13205 O 1261.02 -1.58661 0.719191 0
M  V30 13206 C 1258.15 -3.05678 1.5091 0
M  V30 13207 H 1259.34 -1.57829 2.5501 0
M  V30 13208 H 1256.89 -0.790433 1.3484 0
M  V30 13209 H 1257.63 -3.19593 0.550529 0
M  V30 13210 H 1257.41 -3.15765 2.32454 0
M  V30 13211 H 1258.9 -3.85027 1.61692 0
M  V30 13212 N 1259.34 -1.34755 -0.817236 0
M  V30 13213 C 1260.27 -1.22648 -1.93624 0
M  V30 13214 C 1261.29 -0.152226 -1.62087 0
M  V30 13215 O 1262.48 -0.404578 -1.73855 0
M  V30 13216 C 1259.58 -0.863519 -3.27714 0
M  V30 13217 C 1258.75 -2.03394 -3.87233 0
M  V30 13218 C 1257.81 -1.64846 -4.99712 0
M  V30 13219 O 1256.83 -2.3658 -5.17705 0
M  V30 13220 N 1258.04 -0.565909 -5.77735 0
M  V30 13221 H 1260.8 -2.19051 -2.0454 0
M  V30 13222 H 1258.36 -1.27785 -0.994113 0
M  V30 13223 H 1260.35 -0.58733 -4.00415 0
M  V30 13224 H 1258.92 0.0104987 -3.12598 0
M  V30 13225 H 1258.14 -2.47454 -3.06856 0
M  V30 13226 H 1259.43 -2.81655 -4.23731 0
M  V30 13227 H 1258.83 0.030313 -5.65692 0
M  V30 13228 H 1257.39 -0.349467 -6.50862 0
M  V30 13229 N 1260.82 1.03812 -1.18578 0
M  V30 13230 C 1261.77 2.11883 -0.915115 0
M  V30 13231 C 1262.74 1.65453 0.146479 0
M  V30 13232 O 1263.92 1.90799 0.00630058 0
M  V30 13233 C 1261.06 3.42157 -0.449755 0
M  V30 13234 C 1260.17 4.02185 -1.57706 0
M  V30 13235 C 1259.31 5.20431 -1.06417 0
M  V30 13236 C 1258.35 5.72496 -2.16599 0
M  V30 13237 N 1257.49 6.82027 -1.66685 0
M  V30 13238 H 1262.33 2.34373 -1.84047 0
M  V30 13239 H 1259.86 1.14962 -0.917728 0
M  V30 13240 H 1261.82 4.16888 -0.161407 0
M  V30 13241 H 1260.45 3.19806 0.438622 0
M  V30 13242 H 1259.5 3.24757 -1.98083 0
M  V30 13243 H 1260.81 4.36851 -2.40754 0
M  V30 13244 H 1259.97 6.02286 -0.730497 0
M  V30 13245 H 1258.71 4.87276 -0.203301 0
M  V30 13246 H 1257.71 4.8926 -2.50808 0
M  V30 13247 H 1258.94 6.07694 -3.03126 0
M  V30 13248 H 1256.88 6.50742 -0.828916 0
M  V30 13249 H 1256.8 7.1577 -2.43329 0
M  V30 13250 H 1258.07 7.67499 -1.36253 0
M  V30 13251 N 1262.3 0.988223 1.22768 0
M  V30 13252 C 1263.54 0.661461 1.91392 0
M  V30 13253 C 1263.87 -0.805942 1.77016 0
M  V30 13254 O 1263.13 -1.5978 1.12999 0
M  V30 13255 C 1263.43 1.00744 3.42907 0
M  V30 13256 C 1263.09 2.46634 3.77469 0
M  V30 13257 C 1261.75 2.86503 3.86613 0
M  V30 13258 C 1264.11 3.41217 3.9398 0
M  V30 13259 C 1261.43 4.19954 4.09702 0
M  V30 13260 C 1263.79 4.74321 4.18572 0
M  V30 13261 C 1262.45 5.13938 4.25939 0
M  V30 13262 H 1261.72 0.242046 0.700353 0
M  V30 13263 H 1264.37 1.24354 1.45631 0
M  V30 13264 H 1262.67 0.34338 3.90292 0
M  V30 13265 H 1264.37 0.732714 3.94249 0
M  V30 13266 H 1260.96 2.14729 3.70931 0
M  V30 13267 H 1265.14 3.11589 3.86298 0
M  V30 13268 H 1260.4 4.50243 4.13631 0
M  V30 13269 H 1264.57 5.47561 4.30291 0
M  V30 13270 H 1262.2 6.17364 4.43583 0
M  V30 13271 N 1263.78 -1.38018 0.760839 0
M  V30 13272 C 1264.72 -2.32251 0.127425 0
M  V30 13273 C 1265.72 -1.54387 -0.69722 0
M  V30 13274 O 1266.92 -1.69864 -0.595505 0
M  V30 13275 H 1263.3 -0.751666 0.0224141 0
M  V30 13276 H 1265.27 -2.8327 0.93813 0
M  V30 13277 C 1264.02 -3.39606 -0.745849 0
M  V30 13278 H 1263.34 -3.99618 -0.120679 0
M  V30 13279 H 1264.78 -4.07931 -1.15621 0
M  V30 13280 C 1263.24 -2.78778 -1.89167 0
M  V30 13281 O 1263.77 -2.68661 -2.98637 0
M  V30 13282 N 1261.98 -2.36481 -1.68894 0
M  V30 13283 H 1261.52 -2.4491 -0.798551 0
M  V30 13284 H 1261.48 -1.96126 -2.45728 0
M  V30 13285 N 1265.25 -0.510493 -1.49103 0
M  V30 13286 C 1266.5 0.0305831 -2.02077 0
M  V30 13287 C 1266.82 1.36602 -1.39157 0
M  V30 13288 O 1266.09 1.88016 -0.550154 0
M  V30 13289 H 1264.67 0.0142916 -0.746863 0
M  V30 13290 H 1267.33 -0.669895 -1.83026 0
M  V30 13291 H 1266.43 0.153283 -3.11723 0
M  V30 13292 N 1266.73 1.55688 -0.24474 0
M  V30 13293 C 1267.66 2.24272 0.64995 0
M  V30 13294 C 1268.64 1.22226 1.183 0
M  V30 13295 O 1269.83 1.50873 1.22274 0
M  V30 13296 C 1266.96 2.94053 1.84798 0
M  V30 13297 C 1265.91 4.02769 1.44779 0
M  V30 13298 C 1265.24 4.59965 2.72647 0
M  V30 13299 C 1266.54 5.18601 0.62047 0
M  V30 13300 H 1268.23 2.99298 0.0780654 0
M  V30 13301 H 1265.78 1.43955 0.0361069 0
M  V30 13302 H 1267.73 3.40732 2.47951 0
M  V30 13303 H 1266.45 2.16511 2.44521 0
M  V30 13304 H 1265.11 3.56856 0.839609 0
M  V30 13305 H 1264.76 3.79126 3.30564 0
M  V30 13306 H 1264.46 5.33352 2.46596 0
M  V30 13307 H 1265.99 5.09376 3.36703 0
M  V30 13308 H 1267.4 5.61519 1.15625 0
M  V30 13309 H 1265.8 5.98364 0.456097 0
M  V30 13310 H 1266.87 4.83503 -0.367798 0
M  V30 13311 N 1268.21 -0.0283989 1.57574 0
M  V30 13312 C 1269.44 -0.730831 1.93563 0
M  V30 13313 C 1269.85 -1.68857 0.844556 0
M  V30 13314 O 1269.21 -1.8162 -0.178971 0
M  V30 13315 C 1269.26 -1.48731 3.29486 0
M  V30 13316 O 1268.98 -0.568017 4.34402 0
M  V30 13317 C 1270.48 -2.28684 3.79761 0
M  V30 13318 H 1267.7 -0.205346 0.638807 0
M  V30 13319 H 1270.25 0.0142728 2.04495 0
M  V30 13320 H 1268.4 -2.18429 3.19949 0
M  V30 13321 H 1268.82 -1.09861 5.12865 0
M  V30 13322 H 1270.29 -2.77157 4.77376 0
M  V30 13323 H 1270.77 -3.10133 3.10989 0
M  V30 13324 H 1271.37 -1.64059 3.92383 0
M  V30 13325 N 1269.69 -1.54705 -0.300681 0
M  V30 13326 C 1270.93 -1.74259 -1.03738 0
M  V30 13327 C 1271.27 -0.52703 -1.86912 0
M  V30 13328 O 1270.54 0.475862 -1.88589 0
M  V30 13329 C 1270.82 -3.03175 -1.94311 0
M  V30 13330 C 1270.68 -4.35031 -1.14315 0
M  V30 13331 C 1272 -3.27962 -2.93478 0
M  V30 13332 H 1269.12 -0.634031 -0.37573 0
M  V30 13333 H 1271.76 -1.87421 -0.312012 0
M  V30 13334 H 1269.91 -2.92086 -2.5616 0
M  V30 13335 H 1271.58 -4.5804 -0.547489 0
M  V30 13336 H 1269.82 -4.31503 -0.44587 0
M  V30 13337 H 1270.49 -5.21502 -1.80941 0
M  V30 13338 H 1272.97 -3.38663 -2.41757 0
M  V30 13339 H 1271.85 -4.19481 -3.54016 0
M  V30 13340 H 1272.11 -2.46273 -3.67154 0
M  V30 13341 N 1271.17 0.563888 -1.47167 0
M  V30 13342 C 1272.1 1.68137 -1.62025 0
M  V30 13343 C 1273.08 1.63481 -0.469899 0
M  V30 13344 O 1274.26 1.81206 -0.698432 0
M  V30 13345 C 1271.39 3.06779 -1.62801 0
M  V30 13346 C 1270.35 3.26278 -2.76996 0
M  V30 13347 C 1269.67 4.65638 -2.62841 0
M  V30 13348 C 1270.97 3.12295 -4.18651 0
M  V30 13349 H 1272.67 1.55958 -2.55573 0
M  V30 13350 H 1270.21 0.74887 -1.22996 0
M  V30 13351 H 1272.17 3.84795 -1.71787 0
M  V30 13352 H 1270.89 3.19901 -0.658097 0
M  V30 13353 H 1269.55 2.50668 -2.67509 0
M  V30 13354 H 1269.2 4.75551 -1.63892 0
M  V30 13355 H 1268.9 4.79635 -3.39447 0
M  V30 13356 H 1270.42 5.45798 -2.73746 0
M  V30 13357 H 1271.83 3.80136 -4.2915 0
M  V30 13358 H 1270.23 3.37805 -4.95992 0
M  V30 13359 H 1271.3 2.09126 -4.37486 0
M  V30 13360 N 1272.64 1.35187 0.810078 0
M  V30 13361 C 1274.06 1.25329 1.38381 0
M  V30 13362 C 1274.41 -0.115799 1.95858 0
M  V30 13363 O 1273.53 -1.01663 1.91033 0
M  V30 13364 C 1274.13 2.2693 2.51572 0
M  V30 13365 C 1272.69 2.20824 3.04818 0
M  V30 13366 C 1271.83 2.1283 1.7776 0
M  V30 13367 H 1274.78 1.46366 0.613402 0
M  V30 13368 H 1274.8 1.89375 3.30026 0
M  V30 13369 H 1274.32 3.26563 2.09709 0
M  V30 13370 H 1272.42 1.24589 3.51153 0
M  V30 13371 H 1272.53 3.12637 3.63036 0
M  V30 13372 H 1270.89 1.58752 1.99173 0
M  V30 13373 H 1271.68 3.14318 1.38054 0
M  V30 13374 N 1274.12 -1.03182 1.19127 0
M  V30 13375 C 1275.53 -1.57984 0.994888 0
M  V30 13376 C 1275.88 -1.90898 -0.453019 0
M  V30 13377 O 1275.01 -1.70556 -1.33191 0
M  V30 13378 C 1275.6 -2.8705 1.79966 0
M  V30 13379 C 1274.16 -3.38435 1.64737 0
M  V30 13380 C 1273.31 -2.11912 1.78854 0
M  V30 13381 H 1276.26 -0.857458 1.33542 0
M  V30 13382 H 1276.28 -3.57821 1.294 0
M  V30 13383 H 1275.79 -2.63062 2.85341 0
M  V30 13384 H 1273.9 -3.67416 0.619358 0
M  V30 13385 H 1274.01 -4.11665 2.45089 0
M  V30 13386 H 1272.37 -2.23642 1.21886 0
M  V30 13387 H 1273.16 -1.90369 2.85682 0
M  V30 13388 N 1275.6 -0.99472 -1.22242 0
M  V30 13389 C 1276.53 -0.566499 -2.26524 0
M  V30 13390 C 1277.51 0.407541 -1.65146 0
M  V30 13391 O 1278.7 0.297777 -1.91903 0
M  V30 13392 C 1275.83 0.11786 -3.471 0
M  V30 13393 C 1274.78 -0.774908 -4.20927 0
M  V30 13394 C 1274.11 0.0424687 -5.34683 0
M  V30 13395 C 1275.41 -2.07263 -4.79416 0
M  V30 13396 H 1277.1 -1.43818 -2.62596 0
M  V30 13397 H 1274.65 -0.692971 -1.2623 0
M  V30 13398 H 1276.6 0.428842 -4.19212 0
M  V30 13399 H 1275.32 1.0241 -3.10129 0
M  V30 13400 H 1273.98 -1.06956 -3.50651 0
M  V30 13401 H 1273.63 0.949677 -4.93954 0
M  V30 13402 H 1273.33 -0.551867 -5.85003 0
M  V30 13403 H 1274.85 0.347504 -6.0961 0
M  V30 13404 H 1276.27 -1.82548 -5.4346 0
M  V30 13405 H 1274.67 -2.61594 -5.40082 0
M  V30 13406 H 1275.74 -2.75017 -3.99366 0
M  V30 13407 N 1277.08 1.37613 -0.768148 0
M  V30 13408 C 1278.01 2.3291 -0.165911 0
M  V30 13409 C 1278.99 1.556 0.687205 0
M  V30 13410 O 1280.17 1.83854 0.625407 0
M  V30 13411 C 1277.3 3.39822 0.7168 0
M  V30 13412 C 1276.26 4.27986 -0.0347264 0
M  V30 13413 C 1275.58 5.2588 0.967192 0
M  V30 13414 C 1276.88 5.08052 -1.21164 0
M  V30 13415 H 1278.58 2.83524 -0.962006 0
M  V30 13416 H 1276.12 1.36318 -0.464051 0
M  V30 13417 H 1278.08 4.05464 1.14789 0
M  V30 13418 H 1276.8 2.87725 1.54538 0
M  V30 13419 H 1275.46 3.6387 -0.446557 0
M  V30 13420 H 1275.11 4.70064 1.79022 0
M  V30 13421 H 1274.81 5.85726 0.468913 0
M  V30 13422 H 1276.33 5.94397 1.3973 0
M  V30 13423 H 1277.75 5.66853 -0.857373 0
M  V30 13424 H 1276.14 5.77206 -1.64176 0
M  V30 13425 H 1277.21 4.40936 -2.0175 0
M  V30 13426 N 1278.56 0.518393 1.4883 0
M  V30 13427 C 1279.78 -0.0162 2.06894 0
M  V30 13428 C 1280.2 -1.29222 1.37649 0
M  V30 13429 O 1279.56 -1.766 0.460288 0
M  V30 13430 C 1279.61 -0.255836 3.60594 0
M  V30 13431 O 1279.33 0.969612 4.27235 0
M  V30 13432 C 1280.83 -0.832117 4.3542 0
M  V30 13433 H 1278.05 0.0282877 0.670403 0
M  V30 13434 H 1280.59 0.720726 1.91379 0
M  V30 13435 H 1278.75 -0.942782 3.75753 0
M  V30 13436 H 1279.16 0.743172 5.19208 0
M  V30 13437 H 1280.64 -0.949279 5.43776 0
M  V30 13438 H 1281.11 -1.83421 3.99066 0
M  V30 13439 H 1281.72 -0.1821 4.2491 0
M  V30 13440 N 1280.03 -1.55556 0.252993 0
M  V30 13441 C 1281.31 -1.91022 -0.420696 0
M  V30 13442 C 1281.69 -1.17452 -1.75409 0
M  V30 13443 O 1281.04 -0.294 -2.26601 0
M  V30 13444 C 1281.25 -3.441 -0.582787 0
M  V30 13445 C 1282.6 -4.15468 -0.875873 0
M  V30 13446 O 1283.62 -3.49872 -0.668425 0
M  V30 13447 O 1282.48 -5.31508 -1.27128 0
M  V30 13448 H 1279.57 -0.7953 -0.226776 0
M  V30 13449 H 1282.12 -1.67072 0.297511 0
M  V30 13450 H 1280.89 -3.89673 0.356474 0
M  V30 13451 H 1280.52 -3.73933 -1.3513 0
M  V30 13452 N 1281.51 0.0200419 -1.57587 0
M  V30 13453 C 1282.42 1.0346 -2.10555 0
M  V30 13454 C 1283.44 1.39035 -1.0462 0
M  V30 13455 O 1284.61 1.48172 -1.36407 0
M  V30 13456 C 1281.68 2.31389 -2.58186 0
M  V30 13457 C 1280.74 2.02311 -3.7864 0
M  V30 13458 C 1279.97 3.24141 -4.23991 0
M  V30 13459 O 1280.2 4.35132 -3.68803 0
M  V30 13460 O 1279.13 3.09312 -5.16342 0
M  V30 13461 H 1282.96 0.614419 -2.9742 0
M  V30 13462 H 1280.54 0.237604 -1.47498 0
M  V30 13463 H 1282.42 3.06582 -2.89112 0
M  V30 13464 H 1281.1 2.72684 -1.74428 0
M  V30 13465 H 1280.01 1.24658 -3.5272 0
M  V30 13466 H 1281.34 1.65866 -4.6341 0
M  V30 13467 N 1282.99 1.54862 0.292472 0
M  V30 13468 C 1283.92 1.81298 1.38586 0
M  V30 13469 C 1284.9 0.664704 1.48393 0
M  V30 13470 O 1286.09 0.905595 1.65322 0
M  V30 13471 C 1283.21 1.9573 2.76419 0
M  V30 13472 C 1282.26 3.18197 2.83994 0
M  V30 13473 S 1283.09 4.76054 2.45219 0
M  V30 13474 C 1284.25 4.93433 3.85064 0
M  V30 13475 H 1284.48 2.73755 1.15955 0
M  V30 13476 H 1282.01 1.46383 0.491053 0
M  V30 13477 H 1283.97 2.0473 3.55803 0
M  V30 13478 H 1282.63 1.04196 2.96314 0
M  V30 13479 H 1281.83 3.25123 3.85112 0
M  V30 13480 H 1281.43 3.07688 2.12613 0
M  V30 13481 H 1283.72 4.7798 4.80148 0
M  V30 13482 H 1284.66 5.95515 3.83103 0
M  V30 13483 H 1285.07 4.2153 3.75463 0
M  V30 13484 N 1284.47 -0.556076 1.47464 0
M  V30 13485 C 1285.72 -1.30955 1.53407 0
M  V30 13486 C 1286.03 -1.94559 0.201485 0
M  V30 13487 O 1287.24 -2.71144 0.138925 0
M  V30 13488 C 1285.69 -2.37476 2.70431 0
M  V30 13489 C 1285.3 -1.80057 4.10224 0
M  V30 13490 C 1287.04 -3.13997 2.85668 0
M  V30 13491 C 1284.95 -2.84365 5.18547 0
M  V30 13492 H 1283.88 -0.4924 0.571015 0
M  V30 13493 H 1286.53 -0.590459 1.73741 0
M  V30 13494 H 1284.91 -3.12304 2.43479 0
M  V30 13495 H 1286.09 -1.11593 4.47083 0
M  V30 13496 H 1284.4 -1.16116 3.99882 0
M  V30 13497 H 1287 -3.91892 3.63764 0
M  V30 13498 H 1287.34 -3.68253 1.94153 0
M  V30 13499 H 1287.88 -2.46281 3.12395 0
M  V30 13500 H 1284.62 -2.34963 6.11942 0
M  V30 13501 H 1284.14 -3.51235 4.86203 0
M  V30 13502 H 1285.81 -3.47836 5.45545 0
M  V30 13503 N 1285.95 -1.35615 -0.802897 0
M  V30 13504 C 1286.91 -1.28705 -1.89651 0
M  V30 13505 C 1287.91 -0.197681 -1.5958 0
M  V30 13506 O 1289.1 -0.451618 -1.68244 0
M  V30 13507 C 1286.23 -0.991941 -3.26149 0
M  V30 13508 H 1287.43 -2.25951 -1.97196 0
M  V30 13509 H 1284.98 -1.20192 -0.999179 0
M  V30 13510 H 1285.71 -0.0235051 -3.24291 0
M  V30 13511 H 1285.5 -1.78013 -3.49362 0
M  V30 13512 H 1286.99 -0.969298 -4.06195 0
M  V30 13513 N 1287.43 1.02549 -1.19673 0
M  V30 13514 C 1288.36 2.10991 -0.8953 0
M  V30 13515 C 1289.37 1.62405 0.113373 0
M  V30 13516 O 1290.56 1.7812 -0.116485 0
M  V30 13517 C 1287.66 3.37394 -0.319124 0
M  V30 13518 C 1286.83 4.15154 -1.37718 0
M  V30 13519 C 1285.89 5.19867 -0.81393 0
M  V30 13520 O 1284.92 5.49285 -1.49246 0
M  V30 13521 N 1286.12 5.79248 0.381089 0
M  V30 13522 H 1288.88 2.37438 -1.82875 0
M  V30 13523 H 1286.45 1.18867 -1.09919 0
M  V30 13524 H 1288.44 4.04637 0.0716106 0
M  V30 13525 H 1287.01 3.08267 0.518681 0
M  V30 13526 H 1286.23 3.4301 -1.94262 0
M  V30 13527 H 1287.52 4.63892 -2.09003 0
M  V30 13528 H 1286.91 5.5767 0.949791 0
M  V30 13529 H 1285.47 6.47882 0.713563 0
M  V30 13530 N 1288.9 1.00119 1.21713 0
M  V30 13531 C 1290.13 0.699416 1.94401 0
M  V30 13532 C 1290.54 -0.741376 1.7407 0
M  V30 13533 O 1289.88 -1.51286 1.04203 0
M  V30 13534 C 1289.95 0.935875 3.47105 0
M  V30 13535 C 1289.61 2.36276 3.91181 0
M  V30 13536 C 1290.61 3.34276 3.9819 0
M  V30 13537 C 1288.29 2.6994 4.23601 0
M  V30 13538 C 1290.29 4.6401 4.37005 0
M  V30 13539 C 1287.97 3.99891 4.62094 0
M  V30 13540 C 1288.97 4.96737 4.68766 0
M  V30 13541 O 1288.66 6.24364 5.06384 0
M  V30 13542 H 1288.39 0.257233 0.625146 0
M  V30 13543 H 1290.95 1.34098 1.55585 0
M  V30 13544 H 1289.18 0.237133 3.85972 0
M  V30 13545 H 1290.86 0.628075 4.01011 0
M  V30 13546 H 1291.63 3.09603 3.73324 0
M  V30 13547 H 1287.51 1.95257 4.17607 0
M  V30 13548 H 1291.05 5.39601 4.42128 0
M  V30 13549 H 1286.95 4.2435 4.86412 0
M  V30 13550 H 1287.72 6.28424 5.24429 0
M  V30 13551 N 1290.38 -1.37203 0.775435 0
M  V30 13552 C 1291.61 -2.03868 0.352927 0
M  V30 13553 C 1292.02 -1.58482 -1.0261 0
M  V30 13554 O 1291.38 -0.767772 -1.65564 0
M  V30 13555 C 1291.43 -3.59378 0.39116 0
M  V30 13556 O 1291.15 -4.03103 1.71579 0
M  V30 13557 C 1292.65 -4.4328 -0.0424808 0
M  V30 13558 H 1289.87 -0.654619 0.14736 0
M  V30 13559 H 1292.42 -1.75463 1.05039 0
M  V30 13560 H 1290.57 -3.86542 -0.257752 0
M  V30 13561 H 1290.99 -4.9764 1.65695 0
M  V30 13562 H 1292.46 -5.51989 0.0354215 0
M  V30 13563 H 1292.94 -4.25374 -1.09333 0
M  V30 13564 H 1293.54 -4.21349 0.578384 0
M  V30 13565 N 1291.86 -0.526279 -1.48553 0
M  V30 13566 C 1293.08 0.00731432 -2.07399 0
M  V30 13567 C 1293.51 1.27737 -1.38075 0
M  V30 13568 O 1292.87 1.75741 -0.445503 0
M  V30 13569 C 1292.92 0.218126 -3.5994 0
M  V30 13570 O 1292.02 1.28759 -3.91784 0
M  V30 13571 H 1291.36 -0.0374784 -0.662941 0
M  V30 13572 H 1293.89 -0.733133 -1.91014 0
M  V30 13573 H 1293.9 0.44192 -4.056 0
M  V30 13574 H 1292.58 -0.709668 -4.09801 0
M  V30 13575 H 1291.15 1.04674 -3.57907 0
M  V30 13576 N 1293.34 1.5542 -0.261239 0
M  V30 13577 C 1294.3 2.20683 0.619011 0
M  V30 13578 C 1295.3 1.18042 1.09192 0
M  V30 13579 O 1296.49 1.43035 0.99432 0
M  V30 13580 C 1293.62 2.86179 1.85242 0
M  V30 13581 H 1294.82 2.99859 0.0493924 0
M  V30 13582 H 1292.37 1.56296 -0.0117687 0
M  V30 13583 H 1293.1 2.10978 2.4629 0
M  V30 13584 H 1292.89 3.61381 1.52138 0
M  V30 13585 H 1294.38 3.36081 2.47869 0
M  V30 13586 N 1294.82 -0.0116844 1.57596 0
M  V30 13587 C 1295.75 -1.00599 2.10718 0
M  V30 13588 C 1296.73 -1.36601 1.01362 0
M  V30 13589 O 1297.91 -1.4518 1.28982 0
M  V30 13590 C 1295.04 -2.30155 2.60089 0
M  V30 13591 C 1294 -2.08347 3.73866 0
M  V30 13592 C 1293.32 -3.43814 4.09507 0
M  V30 13593 C 1294.62 -1.45552 5.01609 0
M  V30 13594 H 1296.32 -0.563721 2.94045 0
M  V30 13595 H 1293.86 -0.269714 1.41452 0
M  V30 13596 H 1295.81 -3.00058 2.95877 0
M  V30 13597 H 1294.54 -2.76473 1.73868 0
M  V30 13598 H 1293.2 -1.40872 3.38453 0
M  V30 13599 H 1292.85 -3.87814 3.20326 0
M  V30 13600 H 1292.55 -3.30043 4.86154 0
M  V30 13601 H 1294.07 -4.15052 4.47844 0
M  V30 13602 H 1295.48 -2.05396 5.35243 0
M  V30 13603 H 1293.88 -1.42304 5.82983 0
M  V30 13604 H 1294.95 -0.423331 4.83049 0
M  V30 13605 N 1296.29 -1.55015 -0.284256 0
M  V30 13606 C 1297.22 -1.90128 -1.3555 0
M  V30 13607 C 1298.2 -0.761914 -1.52082 0
M  V30 13608 O 1299.39 -1.01909 -1.65312 0
M  V30 13609 C 1296.52 -2.16332 -2.71695 0
M  V30 13610 C 1295.47 -3.32166 -2.69907 0
M  V30 13611 C 1294.8 -3.43824 -4.09498 0
M  V30 13612 C 1296.1 -4.6885 -2.30168 0
M  V30 13613 H 1297.79 -2.79852 -1.06411 0
M  V30 13614 H 1295.34 -1.34649 -0.510451 0
M  V30 13615 H 1297.29 -2.39482 -3.46737 0
M  V30 13616 H 1296.02 -1.23395 -3.02392 0
M  V30 13617 H 1294.68 -3.08965 -1.97322 0
M  V30 13618 H 1294.32 -2.48375 -4.374 0
M  V30 13619 H 1294.02 -4.21698 -4.092 0
M  V30 13620 H 1295.55 -3.69254 -4.86296 0
M  V30 13621 H 1296.96 -4.91619 -2.9493 0
M  V30 13622 H 1295.36 -5.49558 -2.41052 0
M  V30 13623 H 1296.43 -4.68433 -1.25294 0
M  V30 13624 N 1297.77 0.548248 -1.47757 0
M  V30 13625 C 1298.73 1.63666 -1.60456 0
M  V30 13626 C 1299.73 1.53499 -0.479028 0
M  V30 13627 O 1300.92 1.57497 -0.744342 0
M  V30 13628 C 1298.06 3.03239 -1.55754 0
M  V30 13629 H 1299.25 1.53752 -2.57488 0
M  V30 13630 H 1296.8 0.768881 -1.36081 0
M  V30 13631 H 1297.54 3.18677 -0.601303 0
M  V30 13632 H 1297.32 3.12027 -2.37448 0
M  V30 13633 H 1298.81 3.82406 -1.67797 0
M  V30 13634 N 1299.25 1.36039 0.795694 0
M  V30 13635 C 1300.5 1.29663 1.55023 0
M  V30 13636 C 1300.82 -0.125588 1.94595 0
M  V30 13637 O 1300.09 -1.06447 1.64456 0
M  V30 13638 H 1298.67 0.476962 0.574906 0
M  V30 13639 H 1301.33 1.70265 0.948471 0
M  V30 13640 H 1300.43 1.91982 2.46068 0
M  V30 13641 N 1300.73 -1.01913 1.20215 0
M  V30 13642 C 1301.96 -1.79076 1.03631 0
M  V30 13643 C 1302.37 -1.84192 -0.414583 0
M  V30 13644 O 1301.73 -1.29306 -1.28788 0
M  V30 13645 C 1301.78 -3.23665 1.61008 0
M  V30 13646 O 1301.5 -3.18873 3.00419 0
M  V30 13647 C 1303 -4.17387 1.49342 0
M  V30 13648 H 1300.22 -0.563241 0.364692 0
M  V30 13649 H 1302.77 -1.283 1.59246 0
M  V30 13650 H 1300.92 -3.71597 1.09518 0
M  V30 13651 H 1301.33 -4.09609 3.27598 0
M  V30 13652 H 1302.81 -5.16691 1.94253 0
M  V30 13653 H 1303.29 -4.36935 0.445493 0
M  V30 13654 H 1303.89 -3.75335 2.0001 0
M  V30 13655 N 1302.21 -1.00763 -1.2118 0
M  V30 13656 C 1303.46 -0.687197 -1.89633 0
M  V30 13657 C 1303.77 0.78566 -1.79128 0
M  V30 13658 O 1304.97 1.21828 -2.42632 0
M  V30 13659 C 1303.43 -1.1787 -3.40051 0
M  V30 13660 C 1303.04 -2.67782 -3.59161 0
M  V30 13661 C 1304.78 -0.933277 -4.14114 0
M  V30 13662 C 1302.69 -3.10459 -5.03358 0
M  V30 13663 H 1301.62 -0.253342 -0.710165 0
M  V30 13664 H 1304.27 -1.21914 -1.37147 0
M  V30 13665 H 1302.65 -0.574791 -3.91806 0
M  V30 13666 H 1303.83 -3.33645 -3.17833 0
M  V30 13667 H 1302.14 -2.90368 -2.98455 0
M  V30 13668 H 1304.74 -1.22766 -5.20416 0
M  V30 13669 H 1305.08 0.130431 -4.16096 0
M  V30 13670 H 1305.61 -1.50011 -3.68431 0
M  V30 13671 H 1302.35 -4.16068 -5.06525 0
M  V30 13672 H 1301.87 -2.4931 -5.45531 0
M  V30 13673 H 1303.55 -3.02589 -5.71882 0
M  V30 13674 N 1303.68 1.3679 -0.7827 0
M  V30 13675 C 1304.91 2.03678 -0.363734 0
M  V30 13676 C 1305.33 1.59024 1.01768 0
M  V30 13677 O 1304.68 0.776541 1.65155 0
M  V30 13678 C 1304.74 3.59165 -0.410213 0
M  V30 13679 O 1304.46 4.02188 -1.73714 0
M  V30 13680 C 1305.96 4.43296 0.018972 0
M  V30 13681 H 1303.18 0.653828 -0.150829 0
M  V30 13682 H 1305.72 1.74903 -1.05968 0
M  V30 13683 H 1303.88 3.86673 0.237249 0
M  V30 13684 H 1304.29 4.96754 -1.68332 0
M  V30 13685 H 1305.76 5.51962 -0.0646943 0
M  V30 13686 H 1306.24 4.25948 1.07076 0
M  V30 13687 H 1306.85 4.21036 -0.600721 0
M  V30 13688 N 1305.16 0.53415 1.48272 0
M  V30 13689 C 1306.39 0.00368464 2.074 0
M  V30 13690 C 1306.81 -1.27003 1.38751 0
M  V30 13691 O 1306.17 -1.75502 0.454817 0
M  V30 13692 C 1306.22 -0.199034 3.6005 0
M  V30 13693 O 1305.32 -1.26679 3.92462 0
M  V30 13694 H 1304.66 0.0409936 0.662733 0
M  V30 13695 H 1307.19 0.743253 1.90622 0
M  V30 13696 H 1307.2 -0.420404 4.05828 0
M  V30 13697 H 1305.88 0.731391 4.09418 0
M  V30 13698 H 1304.46 -1.02775 3.58457 0
M  V30 13699 N 1306.64 -1.55279 0.269478 0
M  V30 13700 C 1307.89 -1.99077 -0.348224 0
M  V30 13701 C 1308.21 -1.15925 -1.568 0
M  V30 13702 O 1307.48 -0.247404 -1.94331 0
M  V30 13703 H 1306.06 -0.735307 -0.131653 0
M  V30 13704 H 1308.72 -1.91288 0.373506 0
M  V30 13705 H 1307.82 -3.05427 -0.641953 0
M  V30 13706 N 1308.12 0.00332656 -1.576 0
M  V30 13707 C 1309.36 0.684275 -1.91544 0
M  V30 13708 C 1309.72 1.71565 -0.870814 0
M  V30 13709 O 1309.01 1.9124 0.117405 0
M  V30 13710 C 1309.21 1.37237 -3.30001 0
M  V30 13711 C 1309.04 0.409158 -4.47835 0
M  V30 13712 C 1307.81 0.0207716 -5.05296 0
M  V30 13713 C 1310 -0.323226 -5.13283 0
M  V30 13714 N 1307.99 -0.941002 -6.06645 0
M  V30 13715 C 1309.36 -1.13979 -6.09433 0
M  V30 13716 C 1311.41 -0.387419 -4.9639 0
M  V30 13717 C 1310.11 -2.0147 -6.90509 0
M  V30 13718 C 1312.14 -1.24954 -5.78049 0
M  V30 13719 C 1311.5 -2.05396 -6.73789 0
M  V30 13720 H 1307.6 0.223698 -0.749322 0
M  V30 13721 H 1310.19 -0.0562395 -1.94619 0
M  V30 13722 H 1308.36 2.0832 -3.27807 0
M  V30 13723 H 1310.09 2.00775 -3.51385 0
M  V30 13724 H 1306.84 0.38844 -4.72004 0
M  V30 13725 H 1307.27 -1.41716 -6.62001 0
M  V30 13726 H 1311.91 0.220225 -4.22226 0
M  V30 13727 H 1309.63 -2.63303 -7.64001 0
M  V30 13728 H 1313.21 -1.30308 -5.6702 0
M  V30 13729 H 1312.09 -2.71028 -7.35876 0
M  V30 13730 N 1309.6 1.55164 0.276031 0
M  V30 13731 C 1310.82 1.79649 1.02635 0
M  V30 13732 C 1311.24 0.568289 1.80044 0
M  V30 13733 O 1310.6 -0.462569 1.7654 0
M  V30 13734 C 1310.65 3.01974 1.98731 0
M  V30 13735 O 1310.37 4.2005 1.24459 0
M  V30 13736 C 1311.87 3.39039 2.856 0
M  V30 13737 H 1309.09 0.598529 0.303321 0
M  V30 13738 H 1311.63 2.02171 0.307733 0
M  V30 13739 H 1309.79 2.81586 2.6606 0
M  V30 13740 H 1310.2 4.89185 1.89205 0
M  V30 13741 H 1311.68 4.27809 3.48831 0
M  V30 13742 H 1312.15 2.58306 3.55211 0
M  V30 13743 H 1312.76 3.61674 2.23767 0
M  V30 13744 N 1311.07 -0.540404 1.48045 0
M  V30 13745 C 1312.32 -1.29678 1.55531 0
M  V30 13746 C 1312.65 -1.93197 0.224725 0
M  V30 13747 O 1311.9 -1.79308 -0.784028 0
M  V30 13748 C 1312.2 -2.41517 2.63447 0
M  V30 13749 C 1311.87 -1.95719 4.06208 0
M  V30 13750 C 1310.53 -1.82946 4.45067 0
M  V30 13751 C 1312.88 -1.6098 4.95717 0
M  V30 13752 C 1310.21 -1.33753 5.7125 0
M  V30 13753 C 1312.56 -1.13253 6.2238 0
M  V30 13754 C 1311.23 -0.990886 6.60104 0
M  V30 13755 H 1310.5 -0.474525 0.569129 0
M  V30 13756 H 1313.14 -0.604209 1.81718 0
M  V30 13757 H 1311.45 -3.16401 2.3108 0
M  V30 13758 H 1313.15 -2.9967 2.66457 0
M  V30 13759 H 1309.74 -2.06609 3.75514 0
M  V30 13760 H 1313.92 -1.69713 4.66381 0
M  V30 13761 H 1309.18 -1.21465 5.99213 0
M  V30 13762 H 1313.35 -0.854401 6.91139 0
M  V30 13763 H 1310.98 -0.607497 7.57769 0
M  V30 13764 N 1312.55 -1.36459 -0.788468 0
M  V30 13765 C 1313.8 -1.30483 -1.54333 0
M  V30 13766 C 1314.12 0.115266 -1.94659 0
M  V30 13767 O 1313.39 1.05573 -1.65019 0
M  V30 13768 H 1311.97 -0.480004 -0.572368 0
M  V30 13769 H 1314.63 -1.70765 -0.939428 0
M  V30 13770 H 1313.73 -1.93284 -2.45046 0
M  V30 13771 N 1314.03 1.01274 -1.20754 0
M  V30 13772 C 1314.99 2.08056 -0.961528 0
M  V30 13773 C 1315.99 1.60671 0.0644461 0
M  V30 13774 O 1317.18 1.73349 -0.172022 0
M  V30 13775 C 1314.32 3.37938 -0.448381 0
M  V30 13776 H 1315.51 2.31314 -1.90877 0
M  V30 13777 H 1313.06 1.18133 -1.02344 0
M  V30 13778 H 1313.8 3.20357 0.504144 0
M  V30 13779 H 1313.58 3.73659 -1.18833 0
M  V30 13780 H 1315.07 4.16551 -0.295876 0
M  V30 13781 N 1315.51 1.01404 1.20644 0
M  V30 13782 C 1316.76 0.700523 1.89571 0
M  V30 13783 C 1317.08 -0.771978 1.79068 0
M  V30 13784 O 1316.35 -1.55506 1.19142 0
M  V30 13785 H 1314.93 0.256122 0.70172 0
M  V30 13786 H 1317.59 1.28509 1.46531 0
M  V30 13787 H 1316.69 0.981665 2.9626 0
M  V30 13788 N 1316.99 -1.36373 0.789944 0
M  V30 13789 C 1317.95 -2.28372 0.194639 0
M  V30 13790 C 1318.95 -1.48849 -0.608332 0
M  V30 13791 O 1320.14 -1.68829 -0.42925 0
M  V30 13792 C 1317.27 -3.3298 -0.730553 0
M  V30 13793 H 1318.47 -2.82529 1.00585 0
M  V30 13794 H 1316.02 -1.45946 0.559406 0
M  V30 13795 H 1316.75 -2.8398 -1.56608 0
M  V30 13796 H 1316.54 -3.91787 -0.156706 0
M  V30 13797 H 1318.03 -4.01684 -1.14192 0
M  V30 13798 N 1318.47 -0.542005 -1.47987 0
M  V30 13799 C 1319.43 0.203537 -2.28294 0
M  V30 13800 C 1320.43 0.856762 -1.36074 0
M  V30 13801 O 1321.62 0.71496 -1.58852 0
M  V30 13802 C 1318.75 1.29581 -3.15312 0
M  V30 13803 H 1319.94 -0.501701 -2.95674 0
M  V30 13804 H 1317.5 -0.298378 -1.53426 0
M  V30 13805 H 1318.23 2.03393 -2.5259 0
M  V30 13806 H 1318.02 0.832398 -3.83163 0
M  V30 13807 H 1319.51 1.81988 -3.75859 0
M  V30 13808 N 1319.94 1.55134 -0.277709 0
M  V30 13809 C 1320.87 2.256 0.602232 0
M  V30 13810 C 1321.85 1.24708 1.15681 0
M  V30 13811 O 1323.04 1.53433 1.19046 0
M  V30 13812 C 1320.17 2.97907 1.78519 0
M  V30 13813 C 1319.12 4.0575 1.36203 0
M  V30 13814 C 1318.45 4.65644 2.62829 0
M  V30 13815 C 1319.75 5.19801 0.510327 0
M  V30 13816 H 1321.44 2.99396 0.0145622 0
M  V30 13817 H 1318.99 1.43999 0.00556389 0
M  V30 13818 H 1320.94 3.45915 2.40668 0
M  V30 13819 H 1319.67 2.21649 2.39873 0
M  V30 13820 H 1318.33 3.58557 0.763726 0
M  V30 13821 H 1317.97 3.86053 3.22447 0
M  V30 13822 H 1317.67 5.38463 2.35227 0
M  V30 13823 H 1319.2 5.16403 3.25823 0
M  V30 13824 H 1320.61 5.63845 1.03689 0
M  V30 13825 H 1319.01 5.99197 0.329073 0
M  V30 13826 H 1320.08 4.82614 -0.470273 0
M  V30 13827 N 1321.42 0.00503138 1.57599 0
M  V30 13828 C 1322.35 -1.01302 2.05598 0
M  V30 13829 C 1323.37 -1.30388 0.974829 0
M  V30 13830 O 1324.56 -1.27275 1.25153 0
M  V30 13831 C 1321.66 -2.34654 2.44522 0
M  V30 13832 C 1320.83 -2.24436 3.7543 0
M  V30 13833 C 1319.89 -3.40517 4.01166 0
M  V30 13834 O 1318.91 -3.18479 4.71762 0
M  V30 13835 N 1320.12 -4.63532 3.49454 0
M  V30 13836 H 1322.88 -0.603656 2.93558 0
M  V30 13837 H 1320.44 -0.182248 1.60871 0
M  V30 13838 H 1322.43 -3.11093 2.5885 0
M  V30 13839 H 1321 -2.67315 1.62055 0
M  V30 13840 H 1320.22 -1.32875 3.71131 0
M  V30 13841 H 1321.51 -2.14786 4.61242 0
M  V30 13842 H 1320.91 -4.84334 2.92296 0
M  V30 13843 H 1319.47 -5.37221 3.69103 0
M  V30 13844 N 1322.9 -1.55308 -0.267798 0
M  V30 13845 C 1324.15 -1.75364 -0.996515 0
M  V30 13846 C 1324.46 -0.565028 -1.87261 0
M  V30 13847 O 1325.67 -0.648119 -2.63651 0
M  V30 13848 C 1324.12 -3.10388 -1.82175 0
M  V30 13849 C 1323.73 -4.36832 -0.994062 0
M  V30 13850 C 1325.48 -3.39791 -2.54445 0
M  V30 13851 C 1323.38 -5.62893 -1.81398 0
M  V30 13852 H 1322.31 -0.653679 -0.375793 0
M  V30 13853 H 1324.96 -1.81762 -0.251975 0
M  V30 13854 H 1323.35 -2.98041 -2.60744 0
M  V30 13855 H 1324.52 -4.6011 -0.252167 0
M  V30 13856 H 1322.83 -4.1461 -0.385662 0
M  V30 13857 H 1325.43 -4.31184 -3.16203 0
M  V30 13858 H 1325.77 -2.60159 -3.24997 0
M  V30 13859 H 1326.31 -3.53259 -1.82902 0
M  V30 13860 H 1323.05 -6.45287 -1.15258 0
M  V30 13861 H 1322.57 -5.43751 -2.5317 0
M  V30 13862 H 1324.25 -6.01384 -2.38634 0
M  V30 13863 N 1324.38 0.532545 -1.4833 0
M  V30 13864 C 1325.79 1.11451 -1.49785 0
M  V30 13865 C 1326.14 1.94386 -0.266207 0
M  V30 13866 O 1325.26 2.07121 0.62688 0
M  V30 13867 C 1325.86 2.0279 -2.71407 0
M  V30 13868 C 1324.42 2.56209 -2.75742 0
M  V30 13869 C 1323.57 1.33114 -2.43261 0
M  V30 13870 H 1326.52 0.317924 -1.55483 0
M  V30 13871 H 1326.54 2.87038 -2.49779 0
M  V30 13872 H 1326.05 1.42401 -3.61031 0
M  V30 13873 H 1324.15 3.20327 -1.9032 0
M  V30 13874 H 1324.26 2.95518 -3.77102 0
M  V30 13875 H 1322.63 1.64607 -1.94362 0
M  V30 13876 H 1323.41 0.744809 -3.35123 0
M  V30 13877 N 1325.86 1.36875 0.78122 0
M  V30 13878 C 1327.1 1.31559 1.53943 0
M  V30 13879 C 1327.43 -0.10273 1.94229 0
M  V30 13880 O 1326.69 -1.07386 1.63605 0
M  V30 13881 C 1326.98 2.19173 2.82309 0
M  V30 13882 C 1326.65 3.67595 2.61121 0
M  V30 13883 C 1325.31 4.08047 2.55051 0
M  V30 13884 C 1327.66 4.61665 2.41898 0
M  V30 13885 C 1324.99 5.40697 2.27736 0
M  V30 13886 C 1327.34 5.94542 2.16108 0
M  V30 13887 C 1326.01 6.34109 2.08476 0
M  V30 13888 H 1325.28 0.48141 0.563317 0
M  V30 13889 H 1327.93 1.68999 0.900638 0
M  V30 13890 H 1326.23 1.74696 3.50697 0
M  V30 13891 H 1327.93 2.12379 3.40141 0
M  V30 13892 H 1324.52 3.35509 2.66705 0
M  V30 13893 H 1328.7 4.3128 2.45584 0
M  V30 13894 H 1323.96 5.70325 2.20315 0
M  V30 13895 H 1328.13 6.66994 2.0023 0
M  V30 13896 H 1325.76 7.36823 1.87073 0
M  V30 13897 N 1327.33 -1.00632 1.21289 0
M  V30 13898 C 1328.3 -2.07543 0.972548 0
M  V30 13899 C 1329.3 -1.60703 -0.0559244 0
M  V30 13900 O 1330.49 -1.73255 0.181213 0
M  V30 13901 C 1327.62 -3.37696 0.466297 0
M  V30 13902 H 1328.81 -2.30298 1.92101 0
M  V30 13903 H 1326.36 -1.17588 1.02969 0
M  V30 13904 H 1327.1 -3.2062 -0.487148 0
M  V30 13905 H 1326.88 -3.73024 1.20813 0
M  V30 13906 H 1328.37 -4.16388 0.317962 0
M  V30 13907 N 1328.81 -1.02043 -1.20104 0
M  V30 13908 C 1329.74 -0.538603 -2.21753 0
M  V30 13909 C 1330.72 0.416016 -1.57188 0
M  V30 13910 O 1331.91 0.335114 -1.85497 0
M  V30 13911 C 1329.03 0.215706 -3.38012 0
M  V30 13912 C 1328.08 -0.68905 -4.20897 0
M  V30 13913 S 1328.91 -2.16041 -4.89986 0
M  V30 13914 C 1330.07 -1.41637 -6.09664 0
M  V30 13915 H 1330.3 -1.39988 -2.6228 0
M  V30 13916 H 1327.83 -0.829641 -1.30216 0
M  V30 13917 H 1329.79 0.644798 -4.05404 0
M  V30 13918 H 1328.45 1.0526 -2.95938 0
M  V30 13919 H 1327.65 -0.107195 -5.03886 0
M  V30 13920 H 1327.25 -1.05609 -3.5878 0
M  V30 13921 H 1329.54 -0.698414 -6.73891 0
M  V30 13922 H 1330.48 -2.22254 -6.72316 0
M  V30 13923 H 1330.89 -0.917572 -5.56993 0
M  V30 13924 N 1330.29 1.35952 -0.797165 0
M  V30 13925 C 1331.22 2.28649 -0.15877 0
M  V30 13926 C 1332.24 1.49842 0.636481 0
M  V30 13927 O 1333.42 1.72191 0.47039 0
M  V30 13928 C 1330.52 3.29373 0.797913 0
M  V30 13929 C 1329.7 4.3737 0.0510574 0
M  V30 13930 C 1328.76 5.18009 0.924826 0
M  V30 13931 O 1327.78 5.67935 0.379223 0
M  V30 13932 N 1328.98 5.352 2.24813 0
M  V30 13933 H 1331.75 2.84075 -0.955056 0
M  V30 13934 H 1329.31 1.48201 -0.651767 0
M  V30 13935 H 1331.3 3.80209 1.38646 0
M  V30 13936 H 1329.87 2.74531 1.49504 0
M  V30 13937 H 1329.09 3.87594 -0.718633 0
M  V30 13938 H 1330.38 5.0668 -0.464025 0
M  V30 13939 H 1329.78 4.96266 2.71545 0
M  V30 13940 H 1328.34 5.89252 2.78614 0
M  V30 13941 N 1331.77 0.549846 1.47697 0
M  V30 13942 C 1332.7 -0.249645 2.2683 0
M  V30 13943 C 1333.68 -0.926968 1.33589 0
M  V30 13944 O 1334.86 -0.947423 1.62961 0
M  V30 13945 C 1331.99 -1.35511 3.1041 0
M  V30 13946 C 1331.04 -0.787118 4.19174 0
M  V30 13947 S 1331.87 0.360564 5.34285 0
M  V30 13948 C 1333.03 -0.746898 6.21428 0
M  V30 13949 H 1333.26 0.421876 2.94292 0
M  V30 13950 H 1330.79 0.336017 1.50699 0
M  V30 13951 H 1332.75 -1.98825 3.59137 0
M  V30 13952 H 1331.41 -1.99844 2.42325 0
M  V30 13953 H 1330.6 -1.61704 4.77355 0
M  V30 13954 H 1330.21 -0.230301 3.7329 0
M  V30 13955 H 1332.5 -1.6408 6.57331 0
M  V30 13956 H 1333.44 -0.202608 7.0781 0
M  V30 13957 H 1333.85 -1.03625 5.54907 0
M  V30 13958 N 1333.25 -1.54984 0.285932 0
M  V30 13959 C 1334.21 -2.2164 -0.583824 0
M  V30 13960 C 1335.21 -1.19764 -1.073 0
M  V30 13961 O 1336.4 -1.44598 -0.971439 0
M  V30 13962 C 1333.53 -2.8909 -1.80665 0
M  V30 13963 H 1334.72 -2.999 -0.00168109 0
M  V30 13964 H 1332.28 -1.56257 0.0366325 0
M  V30 13965 H 1333.01 -2.14869 -2.42903 0
M  V30 13966 H 1332.8 -3.63756 -1.4637 0
M  V30 13967 H 1334.29 -3.39982 -2.42491 0
M  V30 13968 N 1334.72 -0.0133892 -1.57594 0
M  V30 13969 C 1335.95 0.67827 -1.95149 0
M  V30 13970 C 1336.36 1.67089 -0.887572 0
M  V30 13971 O 1335.71 1.8316 0.140774 0
M  V30 13972 C 1335.77 1.45441 -3.28766 0
M  V30 13973 C 1335.43 0.621889 -4.52749 0
M  V30 13974 C 1336.43 -0.0961541 -5.19811 0
M  V30 13975 C 1334.11 0.563917 -4.99124 0
M  V30 13976 C 1336.11 -0.86101 -6.31558 0
M  V30 13977 C 1333.79 -0.204654 -6.10757 0
M  V30 13978 C 1334.79 -0.915839 -6.76832 0
M  V30 13979 O 1334.48 -1.67184 -7.86323 0
M  V30 13980 H 1334.21 0.192983 -0.647869 0
M  V30 13981 H 1336.77 -0.0646816 -2.05298 0
M  V30 13982 H 1335 2.24215 -3.15063 0
M  V30 13983 H 1336.69 2.03268 -3.51336 0
M  V30 13984 H 1337.45 -0.0606029 -4.84962 0
M  V30 13985 H 1333.33 1.10702 -4.47511 0
M  V30 13986 H 1336.87 -1.41664 -6.83064 0
M  V30 13987 H 1332.77 -0.241979 -6.45046 0
M  V30 13988 H 1333.54 -1.58996 -8.02909 0
M  V30 13989 N 1336.2 1.55448 0.259558 0
M  V30 13990 C 1337.62 1.47588 0.607442 0
M  V30 13991 C 1337.82 0.701053 1.88911 0
M  V30 13992 O 1336.87 0.225305 2.51493 0
M  V30 13993 C 1338.19 2.91905 0.72192 0
M  V30 13994 C 1339.74 3.02201 0.815087 0
M  V30 13995 C 1340.21 4.47799 0.961231 0
M  V30 13996 N 1341.7 4.51684 1.02642 0
M  V30 13997 C 1342.44 5.61574 1.15854 0
M  V30 13998 N 1341.93 6.81301 1.257 0
M  V30 13999 N 1343.73 5.49344 1.1907 0
M  V30 14000 H 1335.88 2.04271 -0.581981 0
M  V30 14001 H 1338.14 0.926865 -0.199059 0
M  V30 14002 H 1337.85 3.51382 -0.149611 0
M  V30 14003 H 1337.72 3.41681 1.59793 0
M  V30 14004 H 1340.11 2.42813 1.67708 0
M  V30 14005 H 1340.19 2.55656 -0.0858102 0
M  V30 14006 H 1339.83 5.07794 0.103848 0
M  V30 14007 H 1339.76 4.92013 1.87698 0
M  V30 14008 H 1342.25 3.65446 0.962184 0
M  V30 14009 H 1342.57 7.60801 1.35652 0
M  V30 14010 H 1340.91 6.84087 1.2268 0
M  V30 14011 H 1344.1 4.54745 1.11018 0
M  V30 14012 H 1344.27 6.35025 1.29022 0
M  V30 14013 N 1337.68 -0.524672 1.4861 0
M  V30 14014 C 1338.93 -1.28021 1.56898 0
M  V30 14015 C 1339.26 -1.92948 0.245203 0
M  V30 14016 O 1338.51 -1.8013 -0.764966 0
M  V30 14017 C 1338.81 -2.3871 2.65993 0
M  V30 14018 C 1338.48 -1.914 4.08261 0
M  V30 14019 C 1337.14 -1.78215 4.46982 0
M  V30 14020 C 1339.49 -1.55713 4.97396 0
M  V30 14021 C 1336.82 -1.27687 5.72637 0
M  V30 14022 C 1339.17 -1.06645 6.23546 0
M  V30 14023 C 1337.83 -0.920818 6.61118 0
M  V30 14024 H 1337.1 -0.468461 0.57413 0
M  V30 14025 H 1339.75 -0.584901 1.82349 0
M  V30 14026 H 1338.06 -3.13932 2.34422 0
M  V30 14027 H 1339.75 -2.96827 2.6962 0
M  V30 14028 H 1336.34 -2.02614 3.77684 0
M  V30 14029 H 1340.53 -1.64757 4.68155 0
M  V30 14030 H 1335.78 -1.15103 6.00468 0
M  V30 14031 H 1339.96 -0.781048 6.92006 0
M  V30 14032 H 1337.58 -0.527091 7.5837 0
M  V30 14033 N 1339.16 -1.37287 -0.77395 0
M  V30 14034 C 1340.11 -1.32955 -1.90855 0
M  V30 14035 C 1341.1 -0.218695 -1.67982 0
M  V30 14036 O 1342.31 -0.386594 -1.75799 0
M  V30 14037 H 1338.68 -0.414289 -0.62759 0
M  V30 14038 H 1340.65 -2.2874 -1.91626 0
M  V30 14039 C 1339.4 -1.15121 -3.28089 0
M  V30 14040 H 1338.72 -1.99852 -3.46264 0
M  V30 14041 H 1340.16 -1.1614 -4.07784 0
M  V30 14042 C 1338.62 0.14327 -3.36595 0
M  V30 14043 O 1339.15 1.12763 -3.85548 0
M  V30 14044 N 1337.36 0.193219 -2.89957 0
M  V30 14045 H 1336.91 -0.608471 -2.50311 0
M  V30 14046 H 1336.86 1.05897 -2.96029 0
M  V30 14047 N 1340.64 0.999871 -1.21821 0
M  V30 14048 C 1341.88 1.73497 -1.0365 0
M  V30 14049 C 1342.21 1.90194 0.430271 0
M  V30 14050 O 1341.48 1.45655 1.31002 0
M  V30 14051 H 1340.06 0.642804 -0.380541 0
M  V30 14052 H 1342.72 1.20461 -1.53216 0
M  V30 14053 H 1341.81 2.73215 -1.50864 0
M  V30 14054 N 1342.11 1.02678 1.19562 0
M  V30 14055 C 1343.36 0.717279 1.88515 0
M  V30 14056 C 1343.68 -0.757063 1.80355 0
M  V30 14057 O 1344.88 -1.17953 2.44539 0
M  V30 14058 C 1343.34 1.23265 3.38133 0
M  V30 14059 C 1342.95 2.73462 3.54856 0
M  V30 14060 C 1344.69 0.99904 4.12577 0
M  V30 14061 C 1342.6 3.18428 4.98355 0
M  V30 14062 H 1341.53 0.264608 0.706044 0
M  V30 14063 H 1344.18 1.2408 1.3519 0
M  V30 14064 H 1342.56 0.637052 3.90842 0
M  V30 14065 H 1343.73 3.38659 3.12485 0
M  V30 14066 H 1342.05 2.95079 2.93798 0
M  V30 14067 H 1344.65 1.3103 5.18397 0
M  V30 14068 H 1344.99 -0.064217 4.1625 0
M  V30 14069 H 1345.52 1.55853 3.65998 0
M  V30 14070 H 1342.26 4.24074 4.99842 0
M  V30 14071 H 1341.78 2.57958 5.41496 0
M  V30 14072 H 1343.46 3.11649 5.66996 0
M  V30 14073 N 1343.59 -1.35528 0.804364 0
M  V30 14074 C 1344.84 -1.98439 0.382934 0
M  V30 14075 C 1345.16 -1.64132 -1.05289 0
M  V30 14076 O 1344.43 -0.922693 -1.7281 0
M  V30 14077 H 1343.01 -0.734028 0.138605 0
M  V30 14078 H 1345.67 -1.65478 1.02971 0
M  V30 14079 H 1344.77 -3.08279 0.486846 0
M  V30 14080 N 1345.07 -0.557671 -1.47404 0
M  V30 14081 C 1346.32 -0.0338384 -2.02772 0
M  V30 14082 C 1346.65 1.31278 -1.43107 0
M  V30 14083 O 1345.93 1.85436 -0.58682 0
M  V30 14084 C 1346.21 0.0587427 -3.60052 0
M  V30 14085 C 1346.06 -1.315 -4.30148 0
M  V30 14086 C 1347.38 0.771942 -4.33277 0
M  V30 14087 H 1344.5 -0.0137711 -0.736871 0
M  V30 14088 H 1347.14 -0.720049 -1.75827 0
M  V30 14089 H 1345.29 0.643154 -3.83139 0
M  V30 14090 H 1346.96 -1.94265 -4.184 0
M  V30 14091 H 1345.21 -1.88956 -3.90484 0
M  V30 14092 H 1345.88 -1.20294 -5.38733 0
M  V30 14093 H 1348.35 0.275729 -4.15185 0
M  V30 14094 H 1347.23 0.805683 -5.42955 0
M  V30 14095 H 1347.49 1.82816 -4.0253 0
M  V30 14096 N 1346.55 1.54831 -0.294147 0
M  V30 14097 C 1347.78 2.04411 0.319938 0
M  V30 14098 C 1348.19 1.17174 1.4804 0
M  V30 14099 O 1347.55 0.195881 1.81446 0
M  V30 14100 C 1347.6 3.52924 0.782751 0
M  V30 14101 O 1347.32 4.36844 -0.331512 0
M  V30 14102 C 1348.82 4.18474 1.4627 0
M  V30 14103 H 1346.04 0.667286 0.0704973 0
M  V30 14104 H 1348.59 1.9989 -0.431785 0
M  V30 14105 H 1346.74 3.57828 1.48451 0
M  V30 14106 H 1347.16 5.24493 0.0275743 0
M  V30 14107 H 1348.63 5.23933 1.73776 0
M  V30 14108 H 1349.11 3.67793 2.40052 0
M  V30 14109 H 1349.71 4.17626 0.804291 0
M  V30 14110 N 1348.03 0.0217466 1.57585 0
M  V30 14111 C 1348.96 -0.99116 2.06661 0
M  V30 14112 C 1349.97 -1.29346 0.988604 0
M  V30 14113 O 1351.16 -1.25941 1.26496 0
M  V30 14114 C 1348.26 -2.32047 2.46997 0
M  V30 14115 C 1347.43 -2.20441 3.77789 0
M  V30 14116 C 1346.49 -3.36243 4.04755 0
M  V30 14117 O 1345.52 -3.13458 4.75114 0
M  V30 14118 N 1346.72 -4.598 3.54351 0
M  V30 14119 H 1349.49 -0.572486 2.94181 0
M  V30 14120 H 1347.05 -0.165175 1.61055 0
M  V30 14121 H 1349.04 -3.0833 2.62135 0
M  V30 14122 H 1347.61 -2.65581 1.64881 0
M  V30 14123 H 1346.83 -1.28931 3.72519 0
M  V30 14124 H 1348.12 -2.09882 4.63494 0
M  V30 14125 H 1347.52 -4.81207 2.97416 0
M  V30 14126 H 1346.07 -5.33276 3.7478 0
M  V30 14127 N 1349.51 -1.55583 -0.251311 0
M  V30 14128 C 1350.45 -1.90764 -1.33086 0
M  V30 14129 C 1351.45 -0.786236 -1.50049 0
M  V30 14130 O 1352.65 -0.97081 -1.51576 0
M  V30 14131 H 1349.03 -0.605795 -0.445551 0
M  V30 14132 H 1351 -2.80903 -1.00678 0
M  V30 14133 C 1349.75 -2.21499 -2.68018 0
M  V30 14134 H 1349.07 -3.07287 -2.55763 0
M  V30 14135 H 1350.51 -2.50021 -3.42441 0
M  V30 14136 C 1348.97 -1.02983 -3.20774 0
M  V30 14137 O 1349.5 -0.275557 -4.00754 0
M  V30 14138 N 1347.71 -0.821649 -2.78742 0
M  V30 14139 H 1347.25 -1.43672 -2.13813 0
M  V30 14140 H 1347.21 -0.0303445 -3.14385 0
M  V30 14141 N 1350.98 0.516783 -1.48886 0
M  V30 14142 C 1352.23 1.27375 -1.57808 0
M  V30 14143 C 1352.56 1.92492 -0.256963 0
M  V30 14144 O 1351.84 1.79947 0.738193 0
M  V30 14145 C 1352.12 2.35295 -2.72595 0
M  V30 14146 C 1351.97 1.74783 -4.14453 0
M  V30 14147 C 1353.29 3.36973 -2.83085 0
M  V30 14148 H 1350.41 0.46175 -0.574418 0
M  V30 14149 H 1353.05 0.57434 -1.81111 0
M  V30 14150 H 1351.2 2.94951 -2.52857 0
M  V30 14151 H 1352.88 1.19076 -4.45666 0
M  V30 14152 H 1351.12 1.05258 -4.20836 0
M  V30 14153 H 1351.79 2.52985 -4.90615 0
M  V30 14154 H 1354.27 2.87289 -3.01005 0
M  V30 14155 H 1353.14 4.09864 -3.65106 0
M  V30 14156 H 1353.4 3.98336 -1.91784 0
M  V30 14157 N 1352.46 1.37696 0.766659 0
M  V30 14158 C 1353.39 1.36576 1.89392 0
M  V30 14159 C 1354.37 0.233597 1.68488 0
M  V30 14160 O 1355.56 0.434719 1.89272 0
M  V30 14161 C 1352.69 1.17705 3.26746 0
M  V30 14162 C 1351.64 2.27987 3.62224 0
M  V30 14163 C 1350.97 1.94235 4.98174 0
M  V30 14164 C 1352.27 3.70195 3.68447 0
M  V30 14165 H 1353.96 2.30905 1.90587 0
M  V30 14166 H 1351.51 1.11148 0.915538 0
M  V30 14167 H 1353.46 1.15551 4.05248 0
M  V30 14168 H 1352.18 0.198334 3.25997 0
M  V30 14169 H 1350.84 2.29306 2.86032 0
M  V30 14170 H 1350.49 0.948796 4.93971 0
M  V30 14171 H 1350.19 2.68086 5.2288 0
M  V30 14172 H 1351.72 1.93676 5.7907 0
M  V30 14173 H 1353.13 3.70978 4.37091 0
M  V30 14174 H 1351.53 4.43142 4.04654 0
M  V30 14175 H 1352.6 4.03453 2.68986 0
M  V30 14176 N 1353.94 -0.993397 1.22349 0
M  V30 14177 C 1355.17 -1.76581 1.0725 0
M  V30 14178 C 1355.58 -1.85346 -0.379923 0
M  V30 14179 O 1354.92 -1.3224 -1.27508 0
M  V30 14180 C 1354.98 -3.21519 1.60829 0
M  V30 14181 C 1354.65 -3.363 3.09437 0
M  V30 14182 C 1355.64 -3.23655 4.0687 0
M  V30 14183 C 1353.33 -3.61368 3.48882 0
M  V30 14184 C 1355.32 -3.3586 5.41735 0
M  V30 14185 C 1353.01 -3.73214 4.83895 0
M  V30 14186 C 1354.01 -3.60468 5.80131 0
M  V30 14187 O 1353.7 -3.7192 7.12693 0
M  V30 14188 H 1353.43 -0.561407 0.376561 0
M  V30 14189 H 1355.98 -1.25768 1.62393 0
M  V30 14190 H 1354.21 -3.73521 1.00093 0
M  V30 14191 H 1355.9 -3.80475 1.41399 0
M  V30 14192 H 1356.67 -3.04201 3.77739 0
M  V30 14193 H 1352.55 -3.70365 2.74501 0
M  V30 14194 H 1356.09 -3.25829 6.16832 0
M  V30 14195 H 1351.99 -3.92175 5.12707 0
M  V30 14196 H 1352.75 -3.88796 7.20264 0
M  V30 14197 N 1355.42 -1.03311 -1.19015 0
M  V30 14198 C 1356.33 -0.627735 -2.26046 0
M  V30 14199 C 1357.34 0.342483 -1.70596 0
M  V30 14200 O 1358.52 0.199307 -2.00411 0
M  V30 14201 C 1355.58 0.0108274 -3.46698 0
M  V30 14202 C 1354.65 -1.00743 -4.17312 0
M  V30 14203 C 1353.88 -0.399245 -5.32205 0
M  V30 14204 O 1354.1 0.796649 -5.64809 0
M  V30 14205 O 1353.04 -1.12419 -5.91308 0
M  V30 14206 H 1356.86 -1.51923 -2.6297 0
M  V30 14207 H 1354.45 -0.803538 -1.25951 0
M  V30 14208 H 1356.33 0.366672 -4.19802 0
M  V30 14209 H 1355 0.876265 -3.11614 0
M  V30 14210 H 1353.91 -1.41494 -3.4631 0
M  V30 14211 H 1355.24 -1.84338 -4.56377 0
M  V30 14212 N 1356.9 1.35099 -0.81154 0
M  V30 14213 C 1357.84 2.31618 -0.213536 0
M  V30 14214 C 1358.84 1.56868 0.63944 0
M  V30 14215 O 1360.04 1.71957 0.532051 0
M  V30 14216 H 1356.42 0.750316 -0.0502963 0
M  V30 14217 H 1358.39 2.79593 -1.04262 0
M  V30 14218 C 1357.14 3.4214 0.619293 0
M  V30 14219 H 1356.46 3.9979 -0.0277192 0
M  V30 14220 H 1357.9 4.11941 1.00401 0
M  V30 14221 C 1356.36 2.85607 1.7869 0
M  V30 14222 O 1356.89 2.7956 2.8846 0
M  V30 14223 N 1355.1 2.42587 1.6 0
M  V30 14224 H 1354.64 2.47705 0.707105 0
M  V30 14225 H 1354.6 2.0511 2.38279 0
M  V30 14226 N 1358.37 0.56548 1.47106 0
M  V30 14227 C 1359.31 -0.215154 2.28188 0
M  V30 14228 C 1360.32 -0.871671 1.37498 0
M  V30 14229 O 1361.51 -0.744131 1.6225 0
M  V30 14230 C 1358.61 -1.32289 3.12014 0
M  V30 14231 C 1357.78 -0.761594 4.30719 0
M  V30 14232 C 1356.84 -1.75486 4.96076 0
M  V30 14233 O 1355.87 -1.29771 5.5421 0
M  V30 14234 N 1357.07 -3.0885 4.9152 0
M  V30 14235 H 1359.83 0.480405 2.95825 0
M  V30 14236 H 1357.39 0.402099 1.56827 0
M  V30 14237 H 1359.39 -1.98628 3.52603 0
M  V30 14238 H 1357.96 -1.92156 2.46566 0
M  V30 14239 H 1357.18 0.078794 3.94121 0
M  V30 14240 H 1358.46 -0.366072 5.07481 0
M  V30 14241 H 1357.86 -3.4863 4.45504 0
M  V30 14242 H 1356.42 -3.70725 5.36103 0
M  V30 14243 N 1359.85 -1.54672 0.302354 0
M  V30 14244 C 1360.8 -2.2357 -0.573141 0
M  V30 14245 C 1361.77 -1.21878 -1.12849 0
M  V30 14246 O 1362.95 -1.50502 -1.17277 0
M  V30 14247 C 1360.09 -2.98111 -1.7385 0
M  V30 14248 C 1359.21 -4.14579 -1.21441 0
M  V30 14249 C 1358.34 -4.76699 -2.34374 0
M  V30 14250 C 1357.38 -5.8531 -1.79106 0
M  V30 14251 N 1356.52 -6.41379 -2.85618 0
M  V30 14252 H 1361.36 -2.97993 0.0209969 0
M  V30 14253 H 1358.9 -1.47083 0.0221318 0
M  V30 14254 H 1360.85 -3.39561 -2.42392 0
M  V30 14255 H 1359.48 -2.26063 -2.30425 0
M  V30 14256 H 1358.54 -3.78061 -0.421204 0
M  V30 14257 H 1359.85 -4.92824 -0.769821 0
M  V30 14258 H 1359 -5.21009 -3.10861 0
M  V30 14259 H 1357.74 -3.9779 -2.8216 0
M  V30 14260 H 1356.75 -5.40423 -1.01109 0
M  V30 14261 H 1357.97 -6.66104 -1.32222 0
M  V30 14262 H 1355.92 -5.65352 -3.32735 0
M  V30 14263 H 1355.83 -7.14974 -2.45659 0
M  V30 14264 H 1357.1 -6.90346 -3.61998 0
M  V30 14265 N 1361.33 -0.0301034 -1.57571 0
M  V30 14266 C 1362.26 0.94977 -2.13311 0
M  V30 14267 C 1363.24 1.33865 -1.04948 0
M  V30 14268 O 1364.43 1.4171 -1.32786 0
M  V30 14269 C 1361.56 2.23178 -2.66099 0
M  V30 14270 C 1360.51 1.98362 -3.79258 0
M  V30 14271 C 1359.84 3.32836 -4.18479 0
M  V30 14272 C 1361.14 1.32201 -5.05292 0
M  V30 14273 H 1362.83 0.485562 -2.95436 0
M  V30 14274 H 1360.38 0.232116 -1.42117 0
M  V30 14275 H 1362.33 2.92108 -3.03728 0
M  V30 14276 H 1361.05 2.71766 -1.81137 0
M  V30 14277 H 1359.71 1.31849 -3.42069 0
M  V30 14278 H 1359.36 3.79185 -3.30496 0
M  V30 14279 H 1359.06 3.17037 -4.94733 0
M  V30 14280 H 1360.58 4.03032 -4.58691 0
M  V30 14281 H 1362 1.91133 -5.40501 0
M  V30 14282 H 1360.4 1.26797 -5.86551 0
M  V30 14283 H 1361.47 0.29511 -4.84001 0
M  V30 14284 N 1362.81 1.55714 0.243056 0
M  V30 14285 C 1364.06 1.76927 0.96849 0
M  V30 14286 C 1364.37 0.594748 1.86339 0
M  V30 14287 O 1365.58 0.689981 2.62586 0
M  V30 14288 C 1364.03 3.13246 1.77214 0
M  V30 14289 C 1363.64 4.38358 0.92444 0
M  V30 14290 C 1365.38 3.43796 2.49007 0
M  V30 14291 C 1363.29 5.65708 1.7242 0
M  V30 14292 H 1362.22 0.659574 0.365346 0
M  V30 14293 H 1364.87 1.8214 0.223026 0
M  V30 14294 H 1363.25 3.02151 2.5597 0
M  V30 14295 H 1364.43 4.60452 0.178936 0
M  V30 14296 H 1362.74 4.15171 0.319653 0
M  V30 14297 H 1365.34 4.3616 3.09303 0
M  V30 14298 H 1365.68 2.65297 3.20817 0
M  V30 14299 H 1366.22 3.56124 1.77259 0
M  V30 14300 H 1362.96 6.47039 1.04978 0
M  V30 14301 H 1362.48 5.4771 2.44488 0
M  V30 14302 H 1364.15 6.05105 2.29036 0
M  V30 14303 N 1364.29 -0.50888 1.49158 0
M  V30 14304 C 1365.25 -1.59354 1.64739 0
M  V30 14305 C 1366.25 -1.52175 0.519557 0
M  V30 14306 O 1367.44 -1.55468 0.785838 0
M  V30 14307 C 1364.57 -2.99002 1.63739 0
M  V30 14308 H 1365.76 -1.46871 2.61474 0
M  V30 14309 H 1363.32 -0.732532 1.38071 0
M  V30 14310 H 1364.05 -3.1697 0.685583 0
M  V30 14311 H 1363.84 -3.05622 2.45637 0
M  V30 14312 H 1365.33 -3.77822 1.77877 0
M  V30 14313 N 1365.76 -1.381 -0.759346 0
M  V30 14314 C 1366.71 -1.34972 -1.89434 0
M  V30 14315 C 1367.71 -0.236499 -1.67741 0
M  V30 14316 O 1368.91 -0.405218 -1.7538 0
M  V30 14317 H 1365.29 -0.420922 -0.62316 0
M  V30 14318 H 1367.26 -2.3076 -1.89189 0
M  V30 14319 C 1366.01 -1.18594 -3.2685 0
M  V30 14320 H 1365.33 -2.03514 -3.44125 0
M  V30 14321 H 1366.77 -1.20458 -4.06529 0
M  V30 14322 C 1365.23 0.107562 -3.36728 0
M  V30 14323 O 1365.76 1.08668 -3.86722 0
M  V30 14324 N 1363.97 0.162455 -2.90146 0
M  V30 14325 H 1363.51 -0.634985 -2.49651 0
M  V30 14326 H 1363.47 1.02751 -2.97136 0
M  V30 14327 N 1367.24 0.986894 -1.22875 0
M  V30 14328 C 1368.17 2.08035 -0.961971 0
M  V30 14329 C 1369.19 1.62683 0.0616475 0
M  V30 14330 O 1370.38 1.77659 -0.173094 0
M  V30 14331 C 1367.48 3.36208 -0.426302 0
M  V30 14332 C 1366.65 4.10562 -1.50856 0
M  V30 14333 C 1365.71 5.17014 -0.97891 0
M  V30 14334 O 1364.73 5.44259 -1.66645 0
M  V30 14335 N 1365.94 5.80167 0.196613 0
M  V30 14336 H 1368.7 2.315 -1.90336 0
M  V30 14337 H 1366.26 1.1531 -1.13645 0
M  V30 14338 H 1368.25 4.0466 -0.0571577 0
M  V30 14339 H 1366.82 3.09761 0.420345 0
M  V30 14340 H 1366.04 3.36656 -2.05076 0
M  V30 14341 H 1367.33 4.57007 -2.23655 0
M  V30 14342 H 1366.73 5.60409 0.771892 0
M  V30 14343 H 1365.29 6.49825 0.507083 0
M  V30 14344 N 1368.72 1.0394 1.18466 0
M  V30 14345 C 1369.97 0.742042 1.88414 0
M  V30 14346 C 1370.3 -0.730138 1.80275 0
M  V30 14347 O 1369.55 -1.54844 1.19674 0
M  V30 14348 C 1369.85 1.15198 3.38326 0
M  V30 14349 C 1369.52 2.62422 3.66668 0
M  V30 14350 C 1368.18 3.02643 3.74113 0
M  V30 14351 C 1370.53 3.5762 3.79153 0
M  V30 14352 C 1367.86 4.36953 3.91522 0
M  V30 14353 C 1370.21 4.91647 3.98077 0
M  V30 14354 C 1368.87 5.31541 4.03758 0
M  V30 14355 H 1368.14 0.271532 0.689457 0
M  V30 14356 H 1370.79 1.30419 1.40225 0
M  V30 14357 H 1369.1 0.508607 3.88485 0
M  V30 14358 H 1370.79 0.899269 3.90787 0
M  V30 14359 H 1367.38 2.30268 3.61489 0
M  V30 14360 H 1371.57 3.27693 3.72735 0
M  V30 14361 H 1366.82 4.67382 3.94163 0
M  V30 14362 H 1371 5.65318 4.0668 0
M  V30 14363 H 1368.62 6.35622 4.16999 0
M  V30 14364 N 1370.2 -1.34667 0.818693 0
M  V30 14365 C 1371.15 -2.31501 0.225816 0
M  V30 14366 C 1372.14 -1.57205 -0.631112 0
M  V30 14367 O 1373.35 -1.72237 -0.522924 0
M  V30 14368 H 1369.72 -0.750039 0.0542747 0
M  V30 14369 H 1371.69 -2.79036 1.05743 0
M  V30 14370 C 1370.44 -3.42464 -0.60114 0
M  V30 14371 H 1369.76 -3.9977 0.0489207 0
M  V30 14372 H 1371.2 -4.12468 -0.982154 0
M  V30 14373 C 1369.66 -2.86551 -1.77173 0
M  V30 14374 O 1370.19 -2.81085 -2.86974 0
M  V30 14375 N 1368.4 -2.43432 -1.58712 0
M  V30 14376 H 1367.95 -2.48077 -0.693958 0
M  V30 14377 H 1367.9 -2.06371 -2.37188 0
M  V30 14378 N 1371.68 -0.573274 -1.46804 0
M  V30 14379 C 1372.9 -0.0586717 -2.07317 0
M  V30 14380 C 1373.33 1.2328 -1.42069 0
M  V30 14381 O 1372.68 1.74235 -0.501188 0
M  V30 14382 C 1372.73 0.103503 -3.60451 0
M  V30 14383 O 1371.84 1.16229 -3.95682 0
M  V30 14384 H 1371.18 -0.0585504 -0.661414 0
M  V30 14385 H 1373.71 -0.793532 -1.88585 0
M  V30 14386 H 1373.72 0.312658 -4.068 0
M  V30 14387 H 1372.39 -0.839684 -4.07335 0
M  V30 14388 H 1370.97 0.932347 -3.61056 0
M  V30 14389 N 1373.15 1.5451 -0.310553 0
M  V30 14390 C 1374.12 2.2254 0.548489 0
M  V30 14391 C 1375.12 1.21456 1.05381 0
M  V30 14392 O 1376.31 1.46126 0.948311 0
M  V30 14393 C 1373.44 2.91927 1.76043 0
M  V30 14394 H 1374.63 2.99865 -0.0460306 0
M  V30 14395 H 1372.19 1.56179 -0.061487 0
M  V30 14396 H 1372.92 2.18706 2.39454 0
M  V30 14397 H 1372.71 3.66038 1.40564 0
M  V30 14398 H 1374.2 3.43797 2.37051 0
M  V30 14399 N 1374.63 0.0384594 1.57553 0
M  V30 14400 C 1375.88 -0.637533 1.91359 0
M  V30 14401 C 1376.2 -1.7275 0.91744 0
M  V30 14402 O 1377.4 -2.46078 1.14709 0
M  V30 14403 C 1375.86 -1.18526 3.39823 0
M  V30 14404 C 1375.47 -0.128086 4.47817 0
M  V30 14405 C 1377.21 -1.83723 3.82683 0
M  V30 14406 C 1375.12 -0.687978 5.87385 0
M  V30 14407 H 1374.05 -0.241898 0.714144 0
M  V30 14408 H 1376.7 0.105281 1.83198 0
M  V30 14409 H 1375.08 -1.97999 3.42947 0
M  V30 14410 H 1376.25 0.644865 4.56265 0
M  V30 14411 H 1374.57 0.425672 4.14219 0
M  V30 14412 H 1377.17 -2.26585 4.84317 0
M  V30 14413 H 1377.51 -2.68377 3.18244 0
M  V30 14414 H 1378.04 -1.10926 3.82021 0
M  V30 14415 H 1374.78 0.120642 6.55389 0
M  V30 14416 H 1374.3 -1.4292 5.82524 0
M  V30 14417 H 1375.98 -1.17483 6.36244 0
M  V30 14418 N 1376.11 -1.55841 -0.234795 0
M  V30 14419 C 1377.36 -1.77886 -0.959217 0
M  V30 14420 C 1377.68 -0.604621 -1.8539 0
M  V30 14421 O 1376.95 0.379092 -1.92197 0
M  V30 14422 H 1375.53 -0.656077 -0.357172 0
M  V30 14423 H 1378.19 -1.93292 -0.249831 0
M  V30 14424 H 1377.29 -2.69512 -1.57383 0
M  V30 14425 N 1377.59 0.500963 -1.49426 0
M  V30 14426 C 1378.54 1.6025 -1.66098 0
M  V30 14427 C 1379.51 1.58318 -0.502453 0
M  V30 14428 O 1380.69 1.76304 -0.729482 0
M  V30 14429 C 1377.83 2.98396 -1.73361 0
M  V30 14430 C 1376.94 3.10343 -3.00518 0
M  V30 14431 C 1376.08 4.39222 -2.9876 0
M  V30 14432 C 1375.12 4.44803 -4.20496 0
M  V30 14433 N 1374.26 5.6511 -4.16648 0
M  V30 14434 H 1379.1 1.45342 -2.60153 0
M  V30 14435 H 1376.63 0.707147 -1.28988 0
M  V30 14436 H 1378.59 3.78467 -1.75553 0
M  V30 14437 H 1377.22 3.12007 -0.827718 0
M  V30 14438 H 1376.27 2.23336 -3.07937 0
M  V30 14439 H 1377.58 3.10327 -3.90511 0
M  V30 14440 H 1376.74 5.27613 -2.99515 0
M  V30 14441 H 1375.48 4.41804 -2.06545 0
M  V30 14442 H 1374.48 3.54814 -4.19985 0
M  V30 14443 H 1375.71 4.43937 -5.13903 0
M  V30 14444 H 1373.65 5.68533 -3.2727 0
M  V30 14445 H 1373.57 5.6671 -5.00376 0
M  V30 14446 H 1374.84 6.55708 -4.21506 0
M  V30 14447 N 1379.07 1.38501 0.752011 0
M  V30 14448 C 1380.32 1.34112 1.50655 0
M  V30 14449 C 1380.63 -0.0657661 1.95489 0
M  V30 14450 O 1381.84 -0.232199 2.70505 0
M  V30 14451 C 1380.29 2.35514 2.72142 0
M  V30 14452 C 1379.9 3.81831 2.34326 0
M  V30 14453 C 1381.64 2.40171 3.50026 0
M  V30 14454 C 1379.55 4.74915 3.52434 0
M  V30 14455 H 1378.48 0.498519 0.565681 0
M  V30 14456 H 1381.13 1.64064 0.821913 0
M  V30 14457 H 1379.51 1.98607 3.42595 0
M  V30 14458 H 1380.69 4.27685 1.7153 0
M  V30 14459 H 1379 3.80308 1.69573 0
M  V30 14460 H 1381.6 3.06913 4.37845 0
M  V30 14461 H 1381.94 1.42111 3.91293 0
M  V30 14462 H 1382.48 2.75884 2.86588 0
M  V30 14463 H 1379.21 5.74176 3.16232 0
M  V30 14464 H 1378.73 4.33753 4.14268 0
M  V30 14465 H 1380.41 4.93003 4.18995 0
M  V30 14466 N 1380.55 -0.980364 1.23396 0
M  V30 14467 C 1381.48 -2.07522 0.972991 0
M  V30 14468 C 1382.49 -1.62714 -0.0530191 0
M  V30 14469 O 1383.68 -1.77564 0.182513 0
M  V30 14470 C 1380.78 -3.35977 0.444126 0
M  V30 14471 C 1379.95 -4.09756 1.53031 0
M  V30 14472 C 1379.01 -5.16488 1.00631 0
M  V30 14473 O 1378.04 -5.43368 1.69529 0
M  V30 14474 N 1379.24 -5.80263 -0.165842 0
M  V30 14475 H 1382 -2.30487 1.91561 0
M  V30 14476 H 1379.57 -1.14706 1.14255 0
M  V30 14477 H 1381.56 -4.04624 0.078617 0
M  V30 14478 H 1380.13 -3.0998 -0.403912 0
M  V30 14479 H 1379.35 -3.35564 2.06858 0
M  V30 14480 H 1380.64 -4.55815 2.26076 0
M  V30 14481 H 1380.03 -5.60811 -0.742162 0
M  V30 14482 H 1378.59 -6.50084 -0.472614 0
M  V30 14483 N 1382.02 -1.04567 -1.17913 0
M  V30 14484 C 1383.3 -0.666082 -1.8391 0
M  V30 14485 C 1383.68 0.854062 -1.93052 0
M  V30 14486 O 1383.03 1.75752 -1.46026 0
M  V30 14487 C 1383.24 -1.34776 -3.21926 0
M  V30 14488 C 1384.59 -1.48177 -3.97905 0
M  V30 14489 O 1385.61 -1.30627 -3.31384 0
M  V30 14490 O 1384.47 -1.76822 -5.17104 0
M  V30 14491 H 1381.56 -0.233694 -0.793294 0
M  V30 14492 H 1384.11 -1.14487 -1.25263 0
M  V30 14493 H 1382.88 -2.38514 -3.10204 0
M  V30 14494 H 1382.5 -0.857914 -3.88234 0
M  V30 14495 N 1383.5 1.34231 -0.825823 0
M  V30 14496 C 1384.73 2.02949 -0.427354 0
M  V30 14497 C 1385.15 1.61772 0.959755 0
M  V30 14498 O 1384.51 0.803799 1.62508 0
M  V30 14499 C 1384.56 3.56522 -0.540799 0
M  V30 14500 O 1383.66 4.10065 0.438213 0
M  V30 14501 H 1383 0.640378 -0.175535 0
M  V30 14502 H 1385.53 1.71416 -1.11704 0
M  V30 14503 H 1385.54 4.05857 -0.41763 0
M  V30 14504 H 1384.22 3.85839 -1.55246 0
M  V30 14505 H 1382.79 3.71894 0.273687 0
M  V30 14506 N 1384.98 0.581051 1.46498 0
M  V30 14507 C 1385.91 -0.140957 2.33074 0
M  V30 14508 C 1386.89 -0.885323 1.45245 0
M  V30 14509 O 1388.08 -0.86111 1.74065 0
M  V30 14510 C 1385.21 -1.15625 3.27488 0
M  V30 14511 C 1384.16 -0.526829 4.24745 0
M  V30 14512 C 1383.49 -1.64847 5.08655 0
M  V30 14513 C 1384.79 0.53492 5.19554 0
M  V30 14514 H 1386.48 0.581888 2.93691 0
M  V30 14515 H 1384.03 0.281278 1.41226 0
M  V30 14516 H 1385.98 -1.6697 3.8691 0
M  V30 14517 H 1384.7 -1.90935 2.64974 0
M  V30 14518 H 1383.36 -0.0344738 3.66584 0
M  V30 14519 H 1383.01 -2.3912 4.42528 0
M  V30 14520 H 1382.71 -1.23298 5.74518 0
M  V30 14521 H 1384.23 -2.16472 5.7094 0
M  V30 14522 H 1385.65 0.106606 5.73201 0
M  V30 14523 H 1384.04 0.870639 5.93751 0
M  V30 14524 H 1385.11 1.42184 4.63586 0
M  V30 14525 N 1386.46 -1.54343 0.318742 0
M  V30 14526 C 1387.68 -2.05361 -0.290126 0
M  V30 14527 C 1388.11 -1.19362 -1.45376 0
M  V30 14528 O 1387.47 -0.201639 -1.80175 0
M  V30 14529 C 1387.51 -3.53601 -0.707025 0
M  V30 14530 O 1386.62 -3.70561 -1.80992 0
M  V30 14531 H 1385.96 -0.661858 -0.0532933 0
M  V30 14532 H 1388.49 -1.99228 0.46575 0
M  V30 14533 H 1388.5 -3.95782 -0.991005 0
M  V30 14534 H 1387.17 -4.1565 0.144091 0
M  V30 14535 H 1385.75 -3.40286 -1.52513 0
M  V30 14536 N 1387.94 -0.0468143 -1.5753 0
M  V30 14537 C 1389.16 0.641161 -1.97241 0
M  V30 14538 C 1389.59 1.6384 -0.92401 0
M  V30 14539 O 1388.94 1.80946 0.113229 0
M  V30 14540 C 1388.99 1.30832 -3.36029 0
M  V30 14541 O 1388.1 2.42394 -3.33645 0
M  V30 14542 H 1387.44 0.167035 -0.642647 0
M  V30 14543 H 1389.97 -0.113921 -2.04283 0
M  V30 14544 H 1389.98 1.66102 -3.72658 0
M  V30 14545 H 1388.65 0.57744 -4.11872 0
M  V30 14546 H 1387.23 2.09104 -3.08756 0
M  V30 14547 N 1389.41 1.55964 0.226527 0
M  V30 14548 C 1390.64 1.82823 0.968673 0
M  V30 14549 C 1391.06 0.625281 1.78145 0
M  V30 14550 O 1390.41 -0.40617 1.77923 0
M  V30 14551 C 1390.47 3.08143 1.89024 0
M  V30 14552 O 1390.19 4.23797 1.11032 0
M  V30 14553 C 1391.69 3.47954 2.74669 0
M  V30 14554 H 1388.91 0.607876 0.284126 0
M  V30 14555 H 1391.45 2.03048 0.243258 0
M  V30 14556 H 1389.61 2.89908 2.56967 0
M  V30 14557 H 1390.02 4.94957 1.73546 0
M  V30 14558 H 1391.49 4.38691 3.35044 0
M  V30 14559 H 1391.97 2.69476 3.46813 0
M  V30 14560 H 1392.58 3.6861 2.12147 0
M  V30 14561 N 1390.89 -0.493031 1.4969 0
M  V30 14562 C 1391.86 -1.57598 1.6642 0
M  V30 14563 C 1392.86 -1.51615 0.535668 0
M  V30 14564 O 1394.05 -1.54626 0.802283 0
M  V30 14565 C 1391.18 -2.97249 1.66901 0
M  V30 14566 H 1392.37 -1.4409 2.63017 0
M  V30 14567 H 1389.92 -0.717846 1.3884 0
M  V30 14568 H 1390.66 -3.16225 0.719164 0
M  V30 14569 H 1390.44 -3.02999 2.48865 0
M  V30 14570 H 1391.93 -3.75914 1.81874 0
M  V30 14571 N 1392.37 -1.38898 -0.744656 0
M  V30 14572 C 1393.6 -1.3903 -1.53901 0
M  V30 14573 C 1394.02 0.0156607 -1.88093 0
M  V30 14574 O 1393.38 1.00012 -1.51219 0
M  V30 14575 C 1393.43 -2.2609 -2.80919 0
M  V30 14576 O 1392.53 -1.68414 -3.76444 0
M  V30 14577 H 1391.87 -0.473854 -0.465144 0
M  V30 14578 H 1394.4 -1.82773 -0.919525 0
M  V30 14579 H 1394.41 -2.40264 -3.29754 0
M  V30 14580 H 1393.09 -3.28271 -2.55364 0
M  V30 14581 H 1391.66 -1.63431 -3.35179 0
M  V30 14582 N 1393.85 0.973806 -1.23914 0
M  V30 14583 C 1394.81 2.04892 -1.02723 0
M  V30 14584 C 1395.81 1.60795 0.0132972 0
M  V30 14585 O 1397 1.72714 -0.227084 0
M  V30 14586 C 1394.13 3.36341 -0.555667 0
M  V30 14587 H 1395.33 2.25124 -1.98139 0
M  V30 14588 H 1392.88 1.14817 -1.06051 0
M  V30 14589 H 1393.61 3.21799 0.40197 0
M  V30 14590 H 1393.4 3.69689 -1.30661 0
M  V30 14591 H 1394.89 4.15398 -0.428248 0
M  V30 14592 N 1395.33 1.05191 1.17357 0
M  V30 14593 C 1396.26 0.673931 2.23563 0
M  V30 14594 C 1397.24 -0.328284 1.66902 0
M  V30 14595 O 1398.42 -0.205878 1.93106 0
M  V30 14596 C 1395.55 0.0478801 3.47267 0
M  V30 14597 C 1394.51 0.974855 4.1675 0
M  V30 14598 C 1393.83 0.212684 5.34277 0
M  V30 14599 C 1395.13 2.299 4.68981 0
M  V30 14600 H 1396.83 1.56183 2.55436 0
M  V30 14601 H 1394.37 0.752408 1.2278 0
M  V30 14602 H 1396.33 -0.228343 4.20781 0
M  V30 14603 H 1395.05 -0.874963 3.14662 0
M  V30 14604 H 1393.71 1.23564 3.45148 0
M  V30 14605 H 1393.36 -0.712924 4.97922 0
M  V30 14606 H 1393.06 0.830351 5.81703 0
M  V30 14607 H 1394.58 -0.056255 6.10574 0
M  V30 14608 H 1395.99 2.08269 5.34132 0
M  V30 14609 H 1394.39 2.87064 5.26986 0
M  V30 14610 H 1395.46 2.93759 3.8579 0
M  V30 14611 N 1396.8 -1.33791 0.83293 0
M  V30 14612 C 1398.05 -1.97582 0.42494 0
M  V30 14613 C 1398.37 -1.66328 -1.01784 0
M  V30 14614 O 1397.64 -0.959141 -1.70814 0
M  V30 14615 H 1396.22 -0.730923 0.154143 0
M  V30 14616 H 1398.89 -1.63257 1.06458 0
M  V30 14617 H 1397.98 -3.07177 0.552127 0
M  V30 14618 N 1398.28 -0.588812 -1.46187 0
M  V30 14619 C 1399.23 0.140932 -2.30369 0
M  V30 14620 C 1400.2 0.878216 -1.40984 0
M  V30 14621 O 1401.38 0.867678 -1.69929 0
M  V30 14622 C 1398.52 1.14468 -3.25563 0
M  V30 14623 C 1397.64 0.410215 -4.30048 0
M  V30 14624 C 1396.77 1.40203 -5.12364 0
M  V30 14625 C 1395.81 0.65431 -6.08593 0
M  V30 14626 N 1394.95 1.59448 -6.83755 0
M  V30 14627 H 1399.79 -0.582976 -2.92242 0
M  V30 14628 H 1397.33 -0.299302 -1.44023 0
M  V30 14629 H 1399.28 1.73957 -3.79203 0
M  V30 14630 H 1397.91 1.83623 -2.65485 0
M  V30 14631 H 1396.97 -0.299822 -3.79217 0
M  V30 14632 H 1398.28 -0.174043 -4.98496 0
M  V30 14633 H 1397.43 2.06953 -5.70312 0
M  V30 14634 H 1396.17 2.02022 -4.4389 0
M  V30 14635 H 1395.18 -0.0269371 -5.49793 0
M  V30 14636 H 1396.4 0.0414285 -6.79087 0
M  V30 14637 H 1394.35 2.20066 -6.17986 0
M  V30 14638 H 1394.26 1.06318 -7.48487 0
M  V30 14639 H 1395.53 2.25215 -7.46256 0
M  V30 14640 N 1399.76 1.54172 -0.326923 0
M  V30 14641 C 1400.69 2.27402 0.530154 0
M  V30 14642 C 1401.67 1.28325 1.11655 0
M  V30 14643 O 1402.86 1.57142 1.14105 0
M  V30 14644 C 1399.99 3.03435 1.68951 0
M  V30 14645 C 1398.94 4.09877 1.23226 0
M  V30 14646 C 1398.27 4.7377 2.47882 0
M  V30 14647 C 1399.57 5.21161 0.344698 0
M  V30 14648 H 1401.26 2.99291 -0.0806959 0
M  V30 14649 H 1398.81 1.43944 -0.0402511 0
M  V30 14650 H 1400.76 3.53396 2.29541 0
M  V30 14651 H 1399.48 2.29169 2.327 0
M  V30 14652 H 1398.14 3.60805 0.649267 0
M  V30 14653 H 1397.79 3.96116 3.10002 0
M  V30 14654 H 1397.49 5.45674 2.17977 0
M  V30 14655 H 1399.01 5.26507 3.09229 0
M  V30 14656 H 1400.43 5.66859 0.856979 0
M  V30 14657 H 1398.83 5.99941 0.138276 0
M  V30 14658 H 1399.9 4.80874 -0.623575 0
M  V30 14659 N 1401.24 0.0551678 1.57503 0
M  V30 14660 C 1402.17 -0.947102 2.08717 0
M  V30 14661 C 1403.18 -1.2722 1.01582 0
M  V30 14662 O 1404.37 -1.23229 1.29139 0
M  V30 14663 C 1401.47 -2.26756 2.51863 0
M  V30 14664 C 1400.65 -2.12378 3.8238 0
M  V30 14665 C 1399.7 -3.27582 4.11797 0
M  V30 14666 O 1398.73 -3.03309 4.81656 0
M  V30 14667 N 1399.93 -4.5218 3.64024 0
M  V30 14668 H 1402.7 -0.509957 2.9533 0
M  V30 14669 H 1400.26 -0.130976 1.61369 0
M  V30 14670 H 1402.25 -3.02701 2.68616 0
M  V30 14671 H 1400.82 -2.62024 1.70477 0
M  V30 14672 H 1400.04 -1.21 3.7517 0
M  V30 14673 H 1401.33 -2.00003 4.67842 0
M  V30 14674 H 1400.73 -4.7479 3.07556 0
M  V30 14675 H 1399.28 -5.25206 3.86008 0
M  V30 14676 N 1402.72 -1.56081 -0.218252 0
M  V30 14677 C 1403.99 -1.70043 -0.966684 0
M  V30 14678 C 1404.37 -0.603372 -2.02293 0
M  V30 14679 O 1403.72 0.389138 -2.25162 0
M  V30 14680 C 1403.93 -3.11484 -1.57413 0
M  V30 14681 C 1405.28 -3.70995 -2.06513 0
M  V30 14682 O 1406.3 -3.14466 -1.67301 0
M  V30 14683 O 1405.16 -4.70156 -2.78596 0
M  V30 14684 H 1402.26 -0.692691 -0.451784 0
M  V30 14685 H 1404.8 -1.68398 -0.209774 0
M  V30 14686 H 1403.57 -3.8279 -0.811614 0
M  V30 14687 H 1403.2 -3.1726 -2.3965 0
M  V30 14688 N 1404.2 0.485086 -1.49949 0
M  V30 14689 C 1405.44 1.23999 -1.60474 0
M  V30 14690 C 1405.77 1.91904 -0.297736 0
M  V30 14691 O 1405.05 1.81472 0.699857 0
M  V30 14692 C 1405.33 2.2946 -2.77525 0
M  V30 14693 C 1405.19 1.65952 -4.18067 0
M  V30 14694 C 1406.5 3.30893 -2.90169 0
M  V30 14695 H 1403.62 0.449462 -0.584083 0
M  V30 14696 H 1406.27 0.535795 -1.82289 0
M  V30 14697 H 1404.42 2.89521 -2.59056 0
M  V30 14698 H 1406.09 1.09596 -4.48092 0
M  V30 14699 H 1404.33 0.963079 -4.22974 0
M  V30 14700 H 1405 2.42521 -4.9587 0
M  V30 14701 H 1407.48 2.8084 -3.07031 0
M  V30 14702 H 1406.35 4.02027 -3.73718 0
M  V30 14703 H 1406.61 3.94178 -2.0019 0
M  V30 14704 N 1405.67 1.39291 0.737279 0
M  V30 14705 C 1406.92 1.36592 1.49901 0
M  V30 14706 C 1407.25 -0.0388812 1.94161 0
M  V30 14707 O 1406.53 -1.00337 1.66622 0
M  V30 14708 C 1406.81 2.33625 2.74028 0
M  V30 14709 C 1406.66 3.83037 2.35802 0
M  V30 14710 C 1407.98 2.28524 3.76118 0
M  V30 14711 H 1405.1 0.497482 0.543765 0
M  V30 14712 H 1407.74 1.70265 0.843193 0
M  V30 14713 H 1405.89 2.0504 3.29986 0
M  V30 14714 H 1407.57 4.22363 1.85493 0
M  V30 14715 H 1405.81 3.99924 1.68058 0
M  V30 14716 H 1406.48 4.46415 3.24681 0
M  V30 14717 H 1408.96 2.53794 3.29739 0
M  V30 14718 H 1407.83 2.98501 4.60639 0
M  V30 14719 H 1408.09 1.28949 4.22876 0
M  V30 14720 N 1407.15 -0.967221 1.24429 0
M  V30 14721 C 1408.1 -2.08315 1.03478 0
M  V30 14722 C 1409.09 -1.69373 -0.0304332 0
M  V30 14723 O 1410.3 -1.79571 0.124162 0
M  V30 14724 H 1406.67 -0.681638 0.317605 0
M  V30 14725 H 1408.65 -2.23148 1.9811 0
M  V30 14726 C 1407.39 -3.41441 0.656778 0
M  V30 14727 H 1406.72 -3.71865 1.4682 0
M  V30 14728 H 1408.16 -4.2042 0.549791 0
M  V30 14729 C 1406.62 -3.30839 -0.636154 0
M  V30 14730 O 1407.15 -3.64802 -1.68175 0
M  V30 14731 N 1405.35 -2.83973 -0.617052 0
M  V30 14732 H 1404.9 -2.56533 0.234179 0
M  V30 14733 H 1404.86 -2.77262 -1.48233 0
M  V30 14734 N 1408.63 -1.05812 -1.16797 0
M  V30 14735 C 1409.56 -0.622584 -2.20582 0
M  V30 14736 C 1410.57 0.316905 -1.59686 0
M  V30 14737 O 1411.76 0.108657 -1.78169 0
M  V30 14738 C 1408.86 0.108124 -3.38727 0
M  V30 14739 C 1408.04 -0.84363 -4.29187 0
M  V30 14740 C 1407.1 -0.15305 -5.25977 0
M  V30 14741 O 1406.12 -0.78915 -5.63703 0
M  V30 14742 N 1407.32 1.10721 -5.69843 0
M  V30 14743 H 1410.09 -1.51532 -2.5857 0
M  V30 14744 H 1407.65 -0.940815 -1.31758 0
M  V30 14745 H 1409.64 0.580395 -4.00517 0
M  V30 14746 H 1408.21 0.902599 -2.99286 0
M  V30 14747 H 1407.43 -1.49538 -3.64735 0
M  V30 14748 H 1408.72 -1.48946 -4.86511 0
M  V30 14749 H 1408.12 1.64423 -5.41278 0
M  V30 14750 H 1406.67 1.52344 -6.33746 0
M  V30 14751 N 1410.11 1.33347 -0.840014 0
M  V30 14752 C 1411.06 2.31113 -0.262617 0
M  V30 14753 C 1412.05 1.58189 0.606023 0
M  V30 14754 O 1413.26 1.73047 0.495457 0
M  V30 14755 H 1409.63 0.74908 -0.0662003 0
M  V30 14756 H 1411.6 2.77318 -1.10169 0
M  V30 14757 C 1410.35 3.43377 0.54658 0
M  V30 14758 H 1409.67 3.99642 -0.112514 0
M  V30 14759 H 1411.11 4.13978 0.91641 0
M  V30 14760 C 1409.57 2.89333 1.72592 0
M  V30 14761 O 1410.1 2.85615 2.82466 0
M  V30 14762 N 1408.31 2.45926 1.54819 0
M  V30 14763 H 1407.86 2.49149 0.654404 0
M  V30 14764 H 1407.81 2.10119 2.33875 0
M  V30 14765 N 1411.59 0.596556 1.45873 0
M  V30 14766 C 1412.55 -0.118666 2.28893 0
M  V30 14767 C 1413.55 -0.805668 1.3916 0
M  V30 14768 O 1414.74 -0.655511 1.61396 0
M  V30 14769 C 1411.87 -1.17789 3.19904 0
M  V30 14770 H 1413.06 0.611093 2.93608 0
M  V30 14771 H 1410.62 0.355115 1.52212 0
M  V30 14772 H 1411.35 -1.93878 2.59965 0
M  V30 14773 H 1411.14 -0.689616 3.85988 0
M  V30 14774 H 1412.63 -1.67912 3.82355 0
M  V30 14775 N 1413.06 -1.53996 0.335095 0
M  V30 14776 C 1414 -2.22258 -0.559809 0
M  V30 14777 C 1415.01 -1.22636 -1.07071 0
M  V30 14778 O 1416.2 -1.4904 -0.982312 0
M  V30 14779 C 1413.3 -2.88256 -1.78218 0
M  V30 14780 C 1412.47 -4.14118 -1.40801 0
M  V30 14781 C 1411.53 -4.63603 -2.48915 0
M  V30 14782 O 1410.56 -5.28015 -2.12576 0
M  V30 14783 N 1411.76 -4.3881 -3.80034 0
M  V30 14784 H 1414.52 -2.9969 0.0247521 0
M  V30 14785 H 1412.08 -1.61119 0.158826 0
M  V30 14786 H 1414.08 -3.1828 -2.4996 0
M  V30 14787 H 1412.65 -2.14461 -2.27431 0
M  V30 14788 H 1411.87 -3.90732 -0.521729 0
M  V30 14789 H 1413.15 -4.96005 -1.13388 0
M  V30 14790 H 1412.55 -3.87278 -4.12349 0
M  V30 14791 H 1411.11 -4.73461 -4.47971 0
M  V30 14792 N 1414.54 -0.0635198 -1.57472 0
M  V30 14793 C 1415.5 0.891881 -2.11135 0
M  V30 14794 C 1416.5 1.23182 -1.03358 0
M  V30 14795 O 1417.69 1.16646 -1.2938 0
M  V30 14796 C 1414.83 2.19792 -2.60584 0
M  V30 14797 H 1416.02 0.426461 -2.96852 0
M  V30 14798 H 1413.57 0.185069 -1.552 0
M  V30 14799 H 1414.31 2.70889 -1.78297 0
M  V30 14800 H 1414.09 1.96419 -3.39355 0
M  V30 14801 H 1415.58 2.88203 -3.02206 0
M  V30 14802 N 1416.02 1.56195 0.209972 0
M  V30 14803 C 1416.95 1.96378 1.26324 0
M  V30 14804 C 1417.93 0.833606 1.48273 0
M  V30 14805 O 1419.12 1.0968 1.60262 0
M  V30 14806 C 1416.25 2.29048 2.61064 0
M  V30 14807 C 1415.2 3.44665 2.53752 0
M  V30 14808 C 1414.53 3.6297 3.92628 0
M  V30 14809 C 1415.83 4.79297 2.07536 0
M  V30 14810 H 1417.52 2.8461 0.929379 0
M  V30 14811 H 1415.07 1.36931 0.445627 0
M  V30 14812 H 1417.02 2.55752 3.34916 0
M  V30 14813 H 1415.74 1.37682 2.96161 0
M  V30 14814 H 1414.4 3.18028 1.82356 0
M  V30 14815 H 1414.05 2.68961 4.25052 0
M  V30 14816 H 1413.75 4.40741 3.88614 0
M  V30 14817 H 1415.27 3.92035 4.68125 0
M  V30 14818 H 1416.69 5.05131 2.71138 0
M  V30 14819 H 1415.08 5.60433 2.14557 0
M  V30 14820 H 1416.15 4.73877 1.02802 0
M  V30 14821 N 1417.5 -0.477127 1.50204 0
M  V30 14822 C 1418.45 -1.59664 1.69145 0
M  V30 14823 C 1419.44 -1.59971 0.557294 0
M  V30 14824 O 1420.65 -1.64192 0.737623 0
M  V30 14825 H 1417.02 -0.529706 0.533775 0
M  V30 14826 H 1418.99 -1.40848 2.63067 0
M  V30 14827 C 1417.74 -2.97647 1.79726 0
M  V30 14828 H 1417.06 -2.98127 2.66383 0
M  V30 14829 H 1418.5 -3.75453 1.97006 0
M  V30 14830 C 1416.96 -3.32422 0.547464 0
M  V30 14831 O 1417.49 -4.00454 -0.316115 0
M  V30 14832 N 1415.7 -2.87788 0.40328 0
M  V30 14833 H 1415.25 -2.32598 1.10706 0
M  V30 14834 H 1415.2 -3.11421 -0.431797 0
M  V30 14835 N 1418.98 -1.3968 -0.729882 0
M  V30 14836 C 1420.2 -1.40467 -1.5191 0
M  V30 14837 C 1420.62 -0.000529943 -1.888 0
M  V30 14838 O 1419.98 0.972072 -1.54457 0
M  V30 14839 C 1420.03 -2.2823 -2.80345 0
M  V30 14840 O 1419.75 -3.63176 -2.4502 0
M  V30 14841 C 1421.25 -2.37455 -3.74339 0
M  V30 14842 H 1418.47 -0.479604 -0.469277 0
M  V30 14843 H 1421.01 -1.83558 -0.901484 0
M  V30 14844 H 1419.17 -1.88538 -3.38426 0
M  V30 14845 H 1419.58 -4.0964 -3.2756 0
M  V30 14846 H 1421.06 -3.031 -4.6134 0
M  V30 14847 H 1421.53 -1.39525 -4.16449 0
M  V30 14848 H 1422.14 -2.77638 -3.22176 0
M  V30 14849 N 1420.45 0.960609 -1.2494 0
M  V30 14850 C 1421.38 2.074 -1.07274 0
M  V30 14851 C 1422.37 1.70092 0.0164365 0
M  V30 14852 O 1423.55 1.93604 -0.151975 0
M  V30 14853 C 1420.68 3.40491 -0.684317 0
M  V30 14854 C 1419.63 3.91784 -1.72306 0
M  V30 14855 C 1418.96 5.21301 -1.18949 0
M  V30 14856 C 1420.26 4.18829 -3.12056 0
M  V30 14857 H 1421.95 2.22438 -2.00404 0
M  V30 14858 H 1419.5 1.06888 -0.964937 0
M  V30 14859 H 1421.45 4.17826 -0.547686 0
M  V30 14860 H 1420.18 3.25374 0.282687 0
M  V30 14861 H 1418.84 3.16613 -1.84802 0
M  V30 14862 H 1418.48 5.02549 -0.212892 0
M  V30 14863 H 1418.18 5.56588 -1.8837 0
M  V30 14864 H 1419.71 6.01238 -1.06513 0
M  V30 14865 H 1421.12 4.86844 -3.02748 0
M  V30 14866 H 1419.52 4.6536 -3.78894 0
M  V30 14867 H 1420.59 3.25333 -3.59564 0
M  V30 14868 N 1421.93 1.0643 1.16234 0
M  V30 14869 C 1423.18 0.782998 1.87075 0
M  V30 14870 C 1423.51 -0.688852 1.81572 0
M  V30 14871 O 1422.79 -1.50478 1.23234 0
M  V30 14872 C 1423.07 1.27997 3.36584 0
M  V30 14873 C 1422.92 2.81568 3.5077 0
M  V30 14874 C 1424.24 0.888975 4.31028 0
M  V30 14875 H 1421.36 0.28591 0.679282 0
M  V30 14876 H 1424 1.32046 1.36615 0
M  V30 14877 H 1422.15 0.822756 3.79688 0
M  V30 14878 H 1423.82 3.35508 3.16595 0
M  V30 14879 H 1422.07 3.2023 2.92635 0
M  V30 14880 H 1422.74 3.11406 4.55774 0
M  V30 14881 H 1425.21 1.28279 3.95833 0
M  V30 14882 H 1424.09 1.26416 5.34144 0
M  V30 14883 H 1424.35 -0.205973 4.4162 0
M  V30 14884 N 1423.41 -1.329 0.847073 0
M  V30 14885 C 1424.36 -2.29044 0.284199 0
M  V30 14886 C 1425.33 -1.54706 -0.604591 0
M  V30 14887 O 1426.51 -1.82966 -0.541116 0
M  V30 14888 C 1423.65 -3.4104 -0.527822 0
M  V30 14889 C 1422.77 -4.30273 0.385907 0
M  V30 14890 C 1421.9 -5.29391 -0.438009 0
M  V30 14891 C 1420.94 -6.10265 0.473596 0
M  V30 14892 N 1420.08 -7.01403 -0.312684 0
M  V30 14893 H 1424.92 -2.76582 1.10935 0
M  V30 14894 H 1422.45 -1.36085 0.558508 0
M  V30 14895 H 1424.41 -4.04686 -1.01417 0
M  V30 14896 H 1423.04 -2.94673 -1.31787 0
M  V30 14897 H 1422.09 -3.67275 0.99061 0
M  V30 14898 H 1423.41 -4.86837 1.08585 0
M  V30 14899 H 1422.56 -5.98604 -0.987842 0
M  V30 14900 H 1421.3 -4.73424 -1.17135 0
M  V30 14901 H 1420.3 -5.39963 1.03537 0
M  V30 14902 H 1421.53 -6.68316 1.20543 0
M  V30 14903 H 1419.47 -6.47875 -1.02926 0
M  V30 14904 H 1419.39 -7.55286 0.328376 0
M  V30 14905 H 1420.66 -7.74912 -0.844489 0
M  V30 14906 N 1424.89 -0.604284 -1.45555 0
M  V30 14907 C 1425.82 0.154579 -2.28678 0
M  V30 14908 C 1426.83 0.83491 -1.39761 0
M  V30 14909 O 1428.02 0.700852 -1.64166 0
M  V30 14910 C 1425.12 1.2397 -3.15412 0
M  V30 14911 C 1424.3 0.647128 -4.32586 0
M  V30 14912 C 1423.35 1.62272 -5.00554 0
M  V30 14913 O 1422.38 1.15031 -5.57455 0
M  V30 14914 N 1423.58 2.9571 -4.99536 0
M  V30 14915 H 1426.35 -0.558668 -2.94447 0
M  V30 14916 H 1423.91 -0.443538 -1.55706 0
M  V30 14917 H 1425.9 1.89209 -3.57746 0
M  V30 14918 H 1424.47 1.85552 -2.51574 0
M  V30 14919 H 1423.69 -0.183261 -3.93774 0
M  V30 14920 H 1424.98 0.231394 -5.08274 0
M  V30 14921 H 1424.38 3.36695 -4.54591 0
M  V30 14922 H 1422.93 3.56381 -5.45744 0
M  V30 14923 N 1426.37 1.53816 -0.343257 0
M  V30 14924 C 1427.3 2.27951 0.506005 0
M  V30 14925 C 1428.28 1.29502 1.10287 0
M  V30 14926 O 1429.46 1.58344 1.12432 0
M  V30 14927 C 1426.59 3.0521 1.65723 0
M  V30 14928 C 1425.55 4.11161 1.18871 0
M  V30 14929 C 1424.87 4.76373 2.42843 0
M  V30 14930 C 1426.17 5.21498 0.289403 0
M  V30 14931 H 1427.87 2.99189 -0.112435 0
M  V30 14932 H 1425.41 1.43893 -0.055516 0
M  V30 14933 H 1427.37 3.55811 2.2578 0
M  V30 14934 H 1426.09 2.31624 2.30256 0
M  V30 14935 H 1424.75 3.61473 0.610962 0
M  V30 14936 H 1424.4 3.99381 3.05784 0
M  V30 14937 H 1424.1 5.47955 2.12177 0
M  V30 14938 H 1425.62 5.29758 3.03627 0
M  V30 14939 H 1427.03 5.67736 0.796808 0
M  V30 14940 H 1425.43 6.00054 0.0746366 0
M  V30 14941 H 1426.5 4.80185 -0.674543 0
M  V30 14942 N 1427.84 0.0718701 1.57436 0
M  V30 14943 C 1429.07 -0.609701 1.98236 0
M  V30 14944 C 1429.49 -1.6235 0.949959 0
M  V30 14945 O 1428.85 -1.81103 -0.0844281 0
M  V30 14946 C 1428.9 -1.2547 3.38068 0
M  V30 14947 O 1428 -2.37055 3.37459 0
M  V30 14948 H 1427.35 -0.15679 0.645223 0
M  V30 14949 H 1429.88 0.146407 2.04076 0
M  V30 14950 H 1429.89 -1.60152 3.75254 0
M  V30 14951 H 1428.56 -0.511842 4.12738 0
M  V30 14952 H 1427.14 -2.04165 3.12043 0
M  V30 14953 N 1429.32 -1.56304 -0.201686 0
M  V30 14954 C 1430.55 -1.84692 -0.943583 0
M  V30 14955 C 1430.97 -0.654649 -1.7634 0
M  V30 14956 O 1430.33 0.396586 -1.76909 0
M  V30 14957 C 1430.38 -3.11251 -1.82085 0
M  V30 14958 O 1429.48 -2.9134 -2.91881 0
M  V30 14959 H 1428.82 -0.608351 -0.266092 0
M  V30 14960 H 1431.35 -2.0353 -0.208992 0
M  V30 14961 H 1431.36 -3.41874 -2.2268 0
M  V30 14962 H 1430.04 -3.97652 -1.21844 0
M  V30 14963 H 1428.62 -2.72 -2.55089 0
M  V30 14964 N 1430.8 0.469154 -1.50455 0
M  V30 14965 C 1431.75 1.58765 -1.6999 0
M  V30 14966 C 1432.74 1.59673 -0.56577 0
M  V30 14967 O 1433.95 1.63799 -0.74632 0
M  V30 14968 H 1430.32 0.526868 -0.536577 0
M  V30 14969 H 1432.29 1.39451 -2.6381 0
M  V30 14970 C 1431.04 2.9669 -1.81302 0
M  V30 14971 H 1430.37 2.96711 -2.67961 0
M  V30 14972 H 1431.81 3.74403 -1.98994 0
M  V30 14973 C 1430.27 3.32127 -0.565086 0
M  V30 14974 O 1430.8 4.00616 0.294873 0
M  V30 14975 N 1429 2.8757 -0.418537 0
M  V30 14976 H 1428.55 2.32008 -1.11938 0
M  V30 14977 H 1428.51 3.11645 0.415276 0
M  V30 14978 N 1432.28 1.40065 0.722464 0
M  V30 14979 C 1433.53 1.3797 1.48224 0
M  V30 14980 C 1433.85 -0.0202588 1.94489 0
M  V30 14981 O 1433.11 -1.0035 1.68013 0
M  V30 14982 C 1433.41 2.30949 2.72759 0
M  V30 14983 C 1433.07 3.7834 2.45295 0
M  V30 14984 C 1431.74 4.18497 2.37515 0
M  V30 14985 C 1434.09 4.71509 2.221 0
M  V30 14986 C 1431.42 5.4987 2.04598 0
M  V30 14987 C 1433.77 6.03173 1.90697 0
M  V30 14988 C 1432.43 6.4238 1.81394 0
M  V30 14989 H 1431.7 0.504869 0.542392 0
M  V30 14990 H 1434.35 1.72667 0.828149 0
M  V30 14991 H 1432.65 1.89413 3.42972 0
M  V30 14992 H 1434.35 2.26615 3.30827 0
M  V30 14993 H 1430.94 3.46519 2.52235 0
M  V30 14994 H 1435.12 4.41308 2.27071 0
M  V30 14995 H 1430.38 5.79157 1.95928 0
M  V30 14996 H 1434.55 6.74886 1.71761 0
M  V30 14997 H 1432.18 7.44094 1.55654 0
M  V30 14998 N 1433.76 -0.95397 1.25448 0
M  V30 14999 C 1435.01 -1.6953 1.10018 0
M  V30 15000 C 1435.33 -1.9166 -0.359385 0
M  V30 15001 O 1434.6 -1.50417 -1.25506 0
M  V30 15002 H 1433.18 -0.628238 0.404136 0
M  V30 15003 H 1435.84 -1.14691 1.57581 0
M  V30 15004 H 1434.93 -2.67427 1.60901 0
M  V30 15005 N 1435.24 -1.07045 -1.15668 0
M  V30 15006 C 1436.2 -0.69198 -2.18505 0
M  V30 15007 C 1437.2 0.266185 -1.58582 0
M  V30 15008 O 1438.39 0.0475566 -1.74135 0
M  V30 15009 C 1435.52 -0.0194196 -3.40894 0
M  V30 15010 H 1436.71 -1.60241 -2.53501 0
M  V30 15011 H 1434.27 -0.866598 -1.30076 0
M  V30 15012 H 1435 0.903398 -3.11463 0
M  V30 15013 H 1434.79 -0.708519 -3.85645 0
M  V30 15014 H 1436.28 0.230829 -4.16962 0
M  V30 15015 N 1436.71 1.32449 -0.85411 0
M  V30 15016 C 1437.96 1.96537 -0.453451 0
M  V30 15017 C 1438.28 1.68344 0.995982 0
M  V30 15018 O 1439.48 2.26166 1.50204 0
M  V30 15019 C 1437.94 3.51785 -0.759934 0
M  V30 15020 C 1437.55 3.88838 -2.22506 0
M  V30 15021 C 1439.29 4.22347 -0.426973 0
M  V30 15022 C 1437.2 5.37129 -2.47479 0
M  V30 15023 H 1436.13 0.735537 -0.165835 0
M  V30 15024 H 1438.78 1.50851 -1.04481 0
M  V30 15025 H 1437.16 3.95879 -0.0980116 0
M  V30 15026 H 1438.33 3.55756 -2.92873 0
M  V30 15027 H 1436.65 3.31299 -2.52249 0
M  V30 15028 H 1439.25 5.31424 -0.590986 0
M  V30 15029 H 1439.59 4.11485 0.631359 0
M  V30 15030 H 1440.12 3.83835 -1.04477 0
M  V30 15031 H 1436.86 5.53012 -3.51935 0
M  V30 15032 H 1436.38 5.71619 -1.8169 0
M  V30 15033 H 1438.06 6.04204 -2.31401 0
M  V30 15034 N 1438.19 0.611994 1.45232 0
M  V30 15035 C 1439.42 0.113618 2.07089 0
M  V30 15036 C 1439.84 -1.1947 1.45288 0
M  V30 15037 O 1439.2 -1.72845 0.547207 0
M  V30 15038 C 1439.25 -0.00789978 3.60599 0
M  V30 15039 O 1438.35 -1.05697 3.98625 0
M  V30 15040 H 1437.69 0.076066 0.659629 0
M  V30 15041 H 1440.22 0.843253 1.86415 0
M  V30 15042 H 1440.23 -0.204692 4.07486 0
M  V30 15043 H 1438.91 0.947386 4.04966 0
M  V30 15044 H 1437.48 -0.836291 3.63401 0
M  V30 15045 N 1439.67 -1.53632 0.351409 0
M  V30 15046 C 1440.89 -2.0593 -0.246501 0
M  V30 15047 C 1441.32 -1.22419 -1.42812 0
M  V30 15048 O 1440.68 -0.239811 -1.79707 0
M  V30 15049 C 1440.73 -3.55021 -0.631862 0
M  V30 15050 O 1439.83 -3.74317 -1.73092 0
M  V30 15051 H 1439.17 -0.662839 -0.0392424 0
M  V30 15052 H 1441.7 -1.98196 0.507904 0
M  V30 15053 H 1441.71 -3.97795 -0.906831 0
M  V30 15054 H 1440.39 -4.15251 0.232224 0
M  V30 15055 H 1438.96 -3.43444 -1.4526 0
M  V30 15056 N 1441.15 -0.0802183 -1.57396 0
M  V30 15057 C 1442.39 0.587831 -1.94094 0
M  V30 15058 C 1442.73 1.6875 -0.961093 0
M  V30 15059 O 1442 1.94498 0.00832799 0
M  V30 15060 C 1442.28 1.15692 -3.41009 0
M  V30 15061 C 1442.14 0.0633211 -4.49755 0
M  V30 15062 C 1443.46 2.05987 -3.88918 0
M  V30 15063 H 1440.58 0.212214 -0.705786 0
M  V30 15064 H 1443.22 -0.147902 -1.89423 0
M  V30 15065 H 1441.37 1.78394 -3.4512 0
M  V30 15066 H 1443.04 -0.57019 -4.57763 0
M  V30 15067 H 1441.28 -0.605003 -4.2956 0
M  V30 15068 H 1441.95 0.502056 -5.49712 0
M  V30 15069 H 1444.43 1.5321 -3.86867 0
M  V30 15070 H 1443.31 2.42737 -4.92311 0
M  V30 15071 H 1443.57 2.97147 -3.27347 0
M  V30 15072 N 1442.63 1.56409 0.193394 0
M  V30 15073 C 1443.56 1.97707 1.24234 0
M  V30 15074 C 1444.54 0.849286 1.47381 0
M  V30 15075 O 1445.72 1.11374 1.59089 0
M  V30 15076 C 1442.85 2.31804 2.5862 0
M  V30 15077 C 1441.81 3.47337 2.50082 0
M  V30 15078 C 1441.13 3.67114 3.88756 0
M  V30 15079 C 1442.43 4.81472 2.02441 0
M  V30 15080 H 1444.13 2.8558 0.89914 0
M  V30 15081 H 1441.67 1.37396 0.431078 0
M  V30 15082 H 1443.62 2.5929 3.32185 0
M  V30 15083 H 1442.35 1.40816 2.94684 0
M  V30 15084 H 1441.01 3.19944 1.78973 0
M  V30 15085 H 1440.66 2.73454 4.22175 0
M  V30 15086 H 1440.36 4.44838 3.83918 0
M  V30 15087 H 1441.88 3.96978 4.6394 0
M  V30 15088 H 1443.29 5.07978 2.65766 0
M  V30 15089 H 1441.69 5.62677 2.08601 0
M  V30 15090 H 1442.76 4.74941 0.977704 0
M  V30 15091 N 1444.1 -0.461169 1.50702 0
M  V30 15092 C 1445.05 -1.57861 1.70829 0
M  V30 15093 C 1446.05 -1.59371 0.57423 0
M  V30 15094 O 1447.25 -1.63401 0.754996 0
M  V30 15095 H 1443.63 -0.524015 0.539363 0
M  V30 15096 H 1445.6 -1.3805 2.64546 0
M  V30 15097 C 1444.35 -2.95724 1.82873 0
M  V30 15098 H 1443.67 -2.95285 2.6953 0
M  V30 15099 H 1445.11 -3.73342 2.00977 0
M  V30 15100 C 1443.57 -3.31823 0.582691 0
M  V30 15101 O 1444.1 -4.00767 -0.273623 0
M  V30 15102 N 1442.3 -2.87344 0.433781 0
M  V30 15103 H 1441.85 -2.31411 1.13166 0
M  V30 15104 H 1441.81 -3.11861 -0.398743 0
M  V30 15105 N 1445.58 -1.40446 -0.715026 0
M  V30 15106 C 1446.86 -1.29253 -1.4681 0
M  V30 15107 C 1447.24 0.0888738 -2.10913 0
M  V30 15108 O 1446.59 1.10172 -2.00186 0
M  V30 15109 C 1446.8 -2.43173 -2.50335 0
M  V30 15110 C 1448.14 -2.83433 -3.1615 0
M  V30 15111 O 1449.17 -2.4277 -2.60655 0
M  V30 15112 O 1448.03 -3.53687 -4.16615 0
M  V30 15113 H 1445.12 -0.507627 -0.652873 0
M  V30 15114 H 1447.67 -1.52367 -0.747153 0
M  V30 15115 H 1446.44 -3.35438 -2.01486 0
M  V30 15116 H 1446.06 -2.21832 -3.29964 0
M  V30 15117 N 1447.06 0.947303 -1.25952 0
M  V30 15118 C 1448.31 1.68721 -1.10527 0
M  V30 15119 C 1448.62 1.92403 0.352215 0
M  V30 15120 O 1449.83 2.6416 0.627036 0
M  V30 15121 C 1448.28 3.03785 -1.92983 0
M  V30 15122 C 1447.89 2.87873 -3.43268 0
M  V30 15123 C 1449.64 3.81509 -1.86149 0
M  V30 15124 C 1447.54 4.18373 -4.17993 0
M  V30 15125 H 1446.47 0.632774 -0.410016 0
M  V30 15126 H 1449.12 1.054 -1.5021 0
M  V30 15127 H 1447.51 3.68052 -1.46128 0
M  V30 15128 H 1448.68 2.32493 -3.97848 0
M  V30 15129 H 1446.99 2.23598 -3.51273 0
M  V30 15130 H 1449.59 4.78179 -2.39267 0
M  V30 15131 H 1449.93 4.07923 -0.83091 0
M  V30 15132 H 1450.47 3.24005 -2.30794 0
M  V30 15133 H 1447.21 3.97145 -5.21494 0
M  V30 15134 H 1446.73 4.7349 -3.68194 0
M  V30 15135 H 1448.41 4.86869 -4.26108 0
M  V30 15136 N 1448.54 1.07657 1.15099 0
M  V30 15137 C 1449.47 0.721201 2.22083 0
M  V30 15138 C 1450.45 -0.292808 1.67561 0
M  V30 15139 O 1451.63 -0.164872 1.93499 0
M  V30 15140 C 1448.76 0.12153 3.47087 0
M  V30 15141 C 1447.72 1.06303 4.14588 0
M  V30 15142 C 1447.04 0.325964 5.33706 0
M  V30 15143 C 1448.34 2.39796 4.63999 0
M  V30 15144 H 1450.04 1.61566 2.52065 0
M  V30 15145 H 1447.58 0.778282 1.21156 0
M  V30 15146 H 1449.54 -0.139037 4.21171 0
M  V30 15147 H 1448.26 -0.808022 3.16447 0
M  V30 15148 H 1446.92 1.30858 3.4245 0
M  V30 15149 H 1446.57 -0.607147 4.99322 0
M  V30 15150 H 1446.27 0.953552 5.79811 0
M  V30 15151 H 1447.79 0.0732695 6.10556 0
M  V30 15152 H 1449.21 2.19552 5.29594 0
M  V30 15153 H 1447.6 2.98178 5.20778 0
M  V30 15154 H 1448.67 3.01876 3.79472 0
M  V30 15155 N 1450.02 -1.31994 0.861122 0
M  V30 15156 C 1451.24 -2.01745 0.481013 0
M  V30 15157 C 1451.67 -1.6426 -0.916527 0
M  V30 15158 O 1451.02 -0.846603 -1.60319 0
M  V30 15159 C 1451.07 -3.54963 0.635134 0
M  V30 15160 O 1450.18 -4.11083 -0.329337 0
M  V30 15161 H 1449.52 -0.635499 0.192452 0
M  V30 15162 H 1452.05 -1.68394 1.1621 0
M  V30 15163 H 1452.06 -4.04607 0.525089 0
M  V30 15164 H 1450.73 -3.81587 1.65422 0
M  V30 15165 H 1449.31 -3.72489 -0.174989 0
M  V30 15166 N 1451.49 -0.619688 -1.44906 0
M  V30 15167 C 1452.91 -0.284338 -1.57047 0
M  V30 15168 C 1453.11 1.21284 -1.60911 0
M  V30 15169 O 1452.17 1.99642 -1.54594 0
M  V30 15170 C 1453.48 -0.966179 -2.84755 0
M  V30 15171 C 1455.03 -0.943239 -2.98449 0
M  V30 15172 C 1455.5 -1.60532 -4.28945 0
M  V30 15173 N 1456.99 -1.57138 -4.35732 0
M  V30 15174 C 1457.73 -2.05271 -5.35399 0
M  V30 15175 N 1457.22 -2.61543 -6.41535 0
M  V30 15176 N 1459.02 -1.95967 -5.26833 0
M  V30 15177 H 1451.17 -1.59167 -1.40641 0
M  V30 15178 H 1453.43 -0.667458 -0.673204 0
M  V30 15179 H 1453.14 -2.02086 -2.87844 0
M  V30 15180 H 1453.01 -0.49688 -3.73913 0
M  V30 15181 H 1455.4 0.102932 -2.9492 0
M  V30 15182 H 1455.48 -1.45092 -2.1067 0
M  V30 15183 H 1455.12 -2.65088 -4.33233 0
M  V30 15184 H 1455.05 -1.07256 -5.15561 0
M  V30 15185 H 1457.54 -1.16042 -3.59643 0
M  V30 15186 H 1457.86 -2.96033 -7.13852 0
M  V30 15187 H 1456.2 -2.65588 -6.42252 0
M  V30 15188 H 1459.39 -1.51734 -4.42825 0
M  V30 15189 H 1459.57 -2.33791 -6.04356 0
M  V30 15190 N 1452.97 1.53444 -0.359552 0
M  V30 15191 C 1453.9 2.28475 0.4818 0
M  V30 15192 C 1454.88 1.30664 1.08908 0
M  V30 15193 O 1456.07 1.59527 1.10746 0
M  V30 15194 C 1453.2 3.06951 1.62477 0
M  V30 15195 C 1452.15 4.12399 1.14504 0
M  V30 15196 C 1451.48 4.78922 2.37777 0
M  V30 15197 C 1452.78 5.21775 0.234075 0
M  V30 15198 H 1454.47 2.99053 -0.144162 0
M  V30 15199 H 1452.02 1.43826 -0.0707746 0
M  V30 15200 H 1453.97 3.58186 2.21993 0
M  V30 15201 H 1452.7 2.34053 2.27787 0
M  V30 15202 H 1451.35 3.62101 0.572589 0
M  V30 15203 H 1451 4.02602 3.0153 0
M  V30 15204 H 1450.7 5.50175 2.06353 0
M  V30 15205 H 1452.23 5.32948 2.97991 0
M  V30 15206 H 1453.64 5.68549 0.736548 0
M  V30 15207 H 1452.04 6.00099 0.0109887 0
M  V30 15208 H 1453.11 4.79443 -0.725435 0
M  V30 15209 N 1454.45 0.0885642 1.57351 0
M  V30 15210 C 1455.73 -0.618587 1.85561 0
M  V30 15211 C 1456.11 -1.86753 0.984206 0
M  V30 15212 O 1455.46 -2.28434 0.0548839 0
M  V30 15213 C 1455.67 -0.940222 3.36096 0
M  V30 15214 C 1457.01 -1.30649 4.04 0
M  V30 15215 O 1458.04 -1.03144 3.4094 0
M  V30 15216 O 1456.9 -1.82135 5.15256 0
M  V30 15217 H 1453.99 -0.308881 0.767152 0
M  V30 15218 H 1456.54 0.120767 1.6927 0
M  V30 15219 H 1455.31 -0.0538991 3.91263 0
M  V30 15220 H 1454.93 -1.73577 3.5771 0
M  V30 15221 N 1455.93 -1.56509 -0.185096 0
M  V30 15222 C 1456.88 -1.95336 -1.22934 0
M  V30 15223 C 1457.85 -0.81532 -1.44713 0
M  V30 15224 O 1459.03 -1.07431 -1.57681 0
M  V30 15225 C 1456.17 -2.30671 -2.56681 0
M  V30 15226 C 1455.28 -3.57586 -2.42397 0
M  V30 15227 C 1454.42 -3.82197 -3.68916 0
M  V30 15228 C 1453.46 -5.02505 -3.49507 0
M  V30 15229 N 1452.59 -5.23319 -4.68062 0
M  V30 15230 H 1457.43 -2.84361 -0.89123 0
M  V30 15231 H 1454.97 -1.40715 -0.428689 0
M  V30 15232 H 1456.93 -2.49176 -3.34615 0
M  V30 15233 H 1455.56 -1.44773 -2.88514 0
M  V30 15234 H 1454.61 -3.47072 -1.55709 0
M  V30 15235 H 1455.92 -4.45677 -2.23994 0
M  V30 15236 H 1455.08 -4.00996 -4.55288 0
M  V30 15237 H 1453.82 -2.92455 -3.90284 0
M  V30 15238 H 1452.82 -4.83619 -2.6152 0
M  V30 15239 H 1454.05 -5.93765 -3.29574 0
M  V30 15240 H 1451.99 -4.36526 -4.89674 0
M  V30 15241 H 1451.91 -6.05608 -4.52521 0
M  V30 15242 H 1453.18 -5.46585 -5.55757 0
M  V30 15243 N 1457.41 0.45317 -1.50944 0
M  V30 15244 C 1458.65 1.20568 -1.63068 0
M  V30 15245 C 1458.99 1.91229 -0.338375 0
M  V30 15246 O 1458.26 1.82916 0.661207 0
M  V30 15247 C 1458.54 2.23522 -2.8233 0
M  V30 15248 C 1458.4 1.57047 -4.21493 0
M  V30 15249 C 1459.72 3.24663 -2.97123 0
M  V30 15250 H 1456.83 0.436971 -0.593486 0
M  V30 15251 H 1459.48 0.497008 -1.83384 0
M  V30 15252 H 1457.63 2.83961 -2.65139 0
M  V30 15253 H 1459.3 1.00067 -4.50316 0
M  V30 15254 H 1457.54 0.873143 -4.24922 0
M  V30 15255 H 1458.21 2.31949 -5.00903 0
M  V30 15256 H 1460.69 2.74264 -3.12919 0
M  V30 15257 H 1459.56 3.9401 -3.82161 0
M  V30 15258 H 1459.83 3.89843 -2.08506 0
M  V30 15259 N 1458.88 1.40823 0.707568 0
M  V30 15260 C 1459.79 1.44058 1.85161 0
M  V30 15261 C 1460.81 0.332357 1.70796 0
M  V30 15262 O 1461.99 0.578205 1.92922 0
M  V30 15263 C 1459.05 1.3091 3.21035 0
M  V30 15264 C 1458.11 2.51944 3.47595 0
M  V30 15265 C 1457.35 2.39414 4.76987 0
M  V30 15266 O 1457.57 1.41224 5.52641 0
M  V30 15267 O 1456.5 3.28944 5.04063 0
M  V30 15268 H 1460.33 2.40551 1.85388 0
M  V30 15269 H 1457.91 1.22232 0.859052 0
M  V30 15270 H 1459.8 1.25816 4.02179 0
M  V30 15271 H 1458.47 0.375263 3.21517 0
M  V30 15272 H 1457.38 2.62615 2.66428 0
M  V30 15273 H 1458.71 3.44115 3.51917 0
M  V30 15274 N 1460.36 -0.94061 1.26453 0
M  V30 15275 C 1461.33 -2.02096 1.0812 0
M  V30 15276 C 1462.33 -1.60773 0.0293393 0
M  V30 15277 O 1463.52 -1.72051 0.272796 0
M  V30 15278 C 1460.65 -3.34749 0.644646 0
M  V30 15279 H 1461.84 -2.19792 2.04038 0
M  V30 15280 H 1459.39 -1.11965 1.09058 0
M  V30 15281 H 1460.13 -3.22752 -0.316509 0
M  V30 15282 H 1459.91 -3.66095 1.40416 0
M  V30 15283 H 1461.4 -4.14117 0.538233 0
M  V30 15284 N 1461.84 -1.08266 -1.14527 0
M  V30 15285 C 1462.75 -0.723043 -2.2318 0
M  V30 15286 C 1463.77 0.269819 -1.71895 0
M  V30 15287 O 1464.94 0.114126 -2.01076 0
M  V30 15288 C 1462.01 -0.136229 -3.46432 0
M  V30 15289 C 1461.07 -1.18352 -4.12664 0
M  V30 15290 C 1460.3 -0.624612 -5.30032 0
M  V30 15291 O 1460.52 0.556377 -5.6768 0
M  V30 15292 O 1459.46 -1.37397 -5.86008 0
M  V30 15293 H 1463.28 -1.6294 -2.56289 0
M  V30 15294 H 1460.87 -0.856235 -1.22429 0
M  V30 15295 H 1462.75 0.18829 -4.20979 0
M  V30 15296 H 1461.43 0.74331 -3.1505 0
M  V30 15297 H 1460.33 -1.56054 -3.39997 0
M  V30 15298 H 1461.67 -2.03528 -4.48148 0
M  V30 15299 N 1463.32 1.31536 -0.86811 0
M  V30 15300 C 1464.57 1.97066 -0.478829 0
M  V30 15301 C 1464.9 1.68469 0.966021 0
M  V30 15302 O 1464.17 0.980166 1.67997 0
M  V30 15303 C 1464.46 3.52533 -0.734313 0
M  V30 15304 C 1464.31 3.90711 -2.22856 0
M  V30 15305 C 1465.63 4.39647 -0.199559 0
M  V30 15306 H 1462.75 0.715813 -0.175444 0
M  V30 15307 H 1465.39 1.55694 -1.08901 0
M  V30 15308 H 1463.54 3.87905 -0.214962 0
M  V30 15309 H 1465.21 3.65451 -2.81502 0
M  V30 15310 H 1463.45 3.39385 -2.70185 0
M  V30 15311 H 1464.13 4.99103 -2.35797 0
M  V30 15312 H 1466.6 4.11088 -0.643853 0
M  V30 15313 H 1465.48 5.47383 -0.407783 0
M  V30 15314 H 1465.74 4.32875 0.898414 0
M  V30 15315 N 1464.8 0.627364 1.44575 0
M  V30 15316 C 1465.73 -0.118179 2.28895 0
M  V30 15317 C 1466.74 -0.812569 1.41071 0
M  V30 15318 O 1467.93 -0.674646 1.6526 0
M  V30 15319 C 1465.03 -1.18937 3.17344 0
M  V30 15320 C 1464.2 -0.578226 4.33561 0
M  V30 15321 C 1463.26 -1.54288 5.03072 0
M  V30 15322 O 1462.29 -1.06148 5.59215 0
M  V30 15323 N 1463.49 -2.87725 5.04177 0
M  V30 15324 H 1466.26 0.605442 2.93521 0
M  V30 15325 H 1463.82 0.468253 1.54981 0
M  V30 15326 H 1465.81 -1.83494 3.60711 0
M  V30 15327 H 1464.38 -1.81526 2.54494 0
M  V30 15328 H 1463.6 0.245883 3.93432 0
M  V30 15329 H 1464.89 -0.150502 5.08577 0
M  V30 15330 H 1464.29 -3.29421 4.5989 0
M  V30 15331 H 1462.84 -3.47653 5.51344 0
M  V30 15332 N 1466.28 -1.53251 0.367684 0
M  V30 15333 C 1467.52 -2.00469 -0.222481 0
M  V30 15334 C 1467.84 -1.259 -1.49695 0
M  V30 15335 O 1469.04 -1.63717 -2.16585 0
M  V30 15336 C 1467.5 -3.57113 -0.447018 0
M  V30 15337 C 1467.11 -4.40562 0.812946 0
M  V30 15338 C 1468.85 -4.12681 -0.994725 0
M  V30 15339 C 1466.76 -5.88763 0.557877 0
M  V30 15340 H 1465.69 -0.748974 -0.0869144 0
M  V30 15341 H 1468.34 -1.76927 0.48675 0
M  V30 15342 H 1466.72 -3.76818 -1.21756 0
M  V30 15343 H 1467.9 -4.3263 1.58644 0
M  V30 15344 H 1466.21 -3.96108 1.28403 0
M  V30 15345 H 1468.81 -5.2104 -1.20091 0
M  V30 15346 H 1469.15 -3.67408 -1.95748 0
M  V30 15347 H 1469.68 -3.96783 -0.284295 0
M  V30 15348 H 1466.42 -6.38317 1.49102 0
M  V30 15349 H 1465.94 -5.99539 -0.177082 0
M  V30 15350 H 1467.62 -6.46738 0.18419 0
M  V30 15351 N 1467.75 -0.0969077 -1.57302 0
M  V30 15352 C 1469.03 0.608737 -1.85886 0
M  V30 15353 C 1469.41 1.86228 -0.994096 0
M  V30 15354 O 1468.76 2.28402 -0.0669975 0
M  V30 15355 C 1468.97 0.922385 -3.3659 0
M  V30 15356 C 1470.32 1.28505 -4.04687 0
M  V30 15357 O 1471.34 1.01334 -3.41482 0
M  V30 15358 O 1470.2 1.794 -5.16215 0
M  V30 15359 H 1467.29 0.304808 -0.768779 0
M  V30 15360 H 1469.84 -0.129742 -1.69203 0
M  V30 15361 H 1468.61 0.0331488 -3.91286 0
M  V30 15362 H 1468.23 1.71678 -3.58626 0
M  V30 15363 N 1469.23 1.56605 0.176793 0
M  V30 15364 C 1470.65 1.50601 0.528354 0
M  V30 15365 C 1470.85 0.800205 1.8493 0
M  V30 15366 O 1469.9 0.358299 2.49945 0
M  V30 15367 C 1471.22 2.95322 0.566172 0
M  V30 15368 C 1472.76 3.06097 0.653751 0
M  V30 15369 C 1473.24 4.52265 0.722511 0
M  V30 15370 N 1474.73 4.5649 0.785548 0
M  V30 15371 C 1475.47 5.66926 0.859232 0
M  V30 15372 N 1474.96 6.87006 0.894088 0
M  V30 15373 N 1476.75 5.54883 0.897832 0
M  V30 15374 H 1468.91 2.00899 -0.689442 0
M  V30 15375 H 1471.17 0.915011 -0.24791 0
M  V30 15376 H 1470.87 3.50095 -0.33566 0
M  V30 15377 H 1470.75 3.49671 1.41456 0
M  V30 15378 H 1473.14 2.51361 1.54601 0
M  V30 15379 H 1473.22 2.54842 -0.221207 0
M  V30 15380 H 1472.86 5.0763 -0.165469 0
M  V30 15381 H 1472.79 5.01271 1.61353 0
M  V30 15382 H 1475.28 3.70032 0.767117 0
M  V30 15383 H 1475.59 7.66922 0.951333 0
M  V30 15384 H 1473.94 6.89628 0.862457 0
M  V30 15385 H 1477.13 4.5999 0.867564 0
M  V30 15386 H 1477.3 6.40972 0.951795 0
M  V30 15387 N 1470.71 -0.445159 1.51182 0
M  V30 15388 C 1471.64 -1.5473 1.74874 0
M  V30 15389 C 1472.62 -1.5923 0.598323 0
M  V30 15390 O 1473.81 -1.75083 0.840219 0
M  V30 15391 C 1470.94 -2.92872 1.86664 0
M  V30 15392 C 1469.89 -3.03235 3.02048 0
M  V30 15393 C 1469.22 -4.43279 2.99012 0
M  V30 15394 C 1470.52 -2.7804 4.42144 0
M  V30 15395 H 1472.21 -1.35156 2.67158 0
M  V30 15396 H 1469.76 -0.648763 1.28558 0
M  V30 15397 H 1471.71 -3.69927 2.01822 0
M  V30 15398 H 1470.43 -3.1366 0.910225 0
M  V30 15399 H 1469.09 -2.28617 2.86583 0
M  V30 15400 H 1468.74 -4.61023 2.01163 0
M  V30 15401 H 1468.44 -4.51144 3.76488 0
M  V30 15402 H 1469.96 -5.22319 3.16252 0
M  V30 15403 H 1471.38 -3.44831 4.58 0
M  V30 15404 H 1469.77 -2.97323 5.21267 0
M  V30 15405 H 1470.84 -1.737 4.52721 0
M  V30 15406 N 1472.19 -1.41197 -0.700089 0
M  V30 15407 C 1473.44 -1.39611 -1.45574 0
M  V30 15408 C 1473.75 -0.00683378 -1.95599 0
M  V30 15409 O 1474.96 0.131643 -2.71181 0
M  V30 15410 C 1473.41 -2.45452 -2.63214 0
M  V30 15411 C 1473.02 -3.90265 -2.19993 0
M  V30 15412 C 1474.76 -2.52996 -3.40871 0
M  V30 15413 C 1472.67 -4.87668 -3.34565 0
M  V30 15414 H 1471.6 -0.51917 -0.546789 0
M  V30 15415 H 1474.25 -1.67001 -0.760456 0
M  V30 15416 H 1472.63 -2.11186 -3.34987 0
M  V30 15417 H 1473.81 -4.33756 -1.55539 0
M  V30 15418 H 1472.12 -3.86339 -1.55341 0
M  V30 15419 H 1474.72 -3.22952 -4.26153 0
M  V30 15420 H 1475.06 -1.56536 -3.85749 0
M  V30 15421 H 1475.6 -2.86331 -2.76151 0
M  V30 15422 H 1472.33 -5.85517 -2.94704 0
M  V30 15423 H 1471.85 -4.4883 -3.97884 0
M  V30 15424 H 1473.53 -5.08215 -4.00409 0
M  V30 15425 N 1473.67 0.933891 -1.2695 0
M  V30 15426 C 1474.89 1.71512 -1.15721 0
M  V30 15427 C 1475.31 1.8661 0.286712 0
M  V30 15428 O 1474.67 1.3787 1.19574 0
M  V30 15429 C 1474.72 3.11804 -1.82922 0
M  V30 15430 O 1474.44 2.97421 -3.21672 0
M  V30 15431 C 1475.94 4.06108 -1.7774 0
M  V30 15432 H 1473.16 0.53678 -0.402626 0
M  V30 15433 H 1475.7 1.17025 -1.67706 0
M  V30 15434 H 1473.86 3.6317 -1.34856 0
M  V30 15435 H 1474.27 3.86069 -3.55037 0
M  V30 15436 H 1475.75 5.02082 -2.29385 0
M  V30 15437 H 1476.22 4.32828 -0.74543 0
M  V30 15438 H 1476.83 3.60665 -2.25391 0
M  V30 15439 N 1475.14 1.08871 1.13951 0
M  V30 15440 C 1476.39 0.819665 1.84732 0
M  V30 15441 C 1476.71 -0.656535 1.83615 0
M  V30 15442 O 1475.98 -1.47614 1.28791 0
M  V30 15443 H 1474.56 0.30023 0.684011 0
M  V30 15444 H 1477.22 1.37568 1.38062 0
M  V30 15445 H 1476.32 1.16809 2.89417 0
M  V30 15446 N 1476.62 -1.31073 0.875073 0
M  V30 15447 C 1478.04 -1.49162 0.567697 0
M  V30 15448 C 1478.24 -1.80435 -0.896969 0
M  V30 15449 O 1477.29 -1.88604 -1.67883 0
M  V30 15450 C 1478.61 -2.6219 1.47231 0
M  V30 15451 C 1480.15 -2.76072 1.47489 0
M  V30 15452 C 1480.63 -3.92202 2.36519 0
M  V30 15453 N 1482.12 -3.99497 2.34428 0
M  V30 15454 C 1482.86 -4.88639 3.00033 0
M  V30 15455 N 1482.35 -5.82647 3.74826 0
M  V30 15456 N 1484.14 -4.81926 2.89315 0
M  V30 15457 H 1476.3 -1.09045 1.82272 0
M  V30 15458 H 1478.56 -0.539291 0.77966 0
M  V30 15459 H 1478.26 -2.45872 2.51475 0
M  V30 15460 H 1478.14 -3.58446 1.17459 0
M  V30 15461 H 1480.53 -2.91801 0.440008 0
M  V30 15462 H 1480.61 -1.80468 1.81287 0
M  V30 15463 H 1480.25 -3.77231 3.40087 0
M  V30 15464 H 1480.18 -4.87125 2.00043 0
M  V30 15465 H 1482.67 -3.32241 1.80067 0
M  V30 15466 H 1482.98 -6.47406 4.22001 0
M  V30 15467 H 1481.33 -5.82609 3.78934 0
M  V30 15468 H 1484.52 -4.07462 2.30418 0
M  V30 15469 H 1484.69 -5.51192 3.40722 0
M  V30 15470 N 1478.1 -0.635022 -1.4424 0
M  V30 15471 C 1479.03 0.0543561 -2.33437 0
M  V30 15472 C 1480.01 0.830807 -1.48431 0
M  V30 15473 O 1481.2 0.795913 -1.77141 0
M  V30 15474 C 1478.33 1.03391 -3.31553 0
M  V30 15475 C 1477.28 0.368824 -4.26408 0
M  V30 15476 C 1476.61 1.45855 -5.14422 0
M  V30 15477 C 1477.91 -0.727381 -5.1721 0
M  V30 15478 H 1479.6 -0.690489 -2.91329 0
M  V30 15479 H 1477.15 -0.3335 -1.40085 0
M  V30 15480 H 1479.1 1.52495 -3.9284 0
M  V30 15481 H 1477.82 1.80969 -2.71878 0
M  V30 15482 H 1476.48 -0.101605 -3.66459 0
M  V30 15483 H 1476.13 2.22531 -4.51098 0
M  V30 15484 H 1475.83 1.0189 -5.78699 0
M  V30 15485 H 1477.35 1.95132 -5.78581 0
M  V30 15486 H 1478.77 -0.319272 -5.7241 0
M  V30 15487 H 1477.17 -1.09041 -5.9011 0
M  V30 15488 H 1478.24 -1.59292 -4.57989 0
M  V30 15489 N 1479.58 1.53054 -0.375806 0
M  V30 15490 C 1480.51 2.23664 0.500685 0
M  V30 15491 C 1481.52 1.25432 1.03782 0
M  V30 15492 O 1482.71 1.51592 0.942451 0
M  V30 15493 C 1479.81 2.9288 1.70513 0
M  V30 15494 C 1478.99 4.17706 1.29772 0
M  V30 15495 C 1478.04 4.7004 2.36536 0
M  V30 15496 O 1477.07 5.33466 1.98502 0
M  V30 15497 N 1478.27 4.48732 3.68266 0
M  V30 15498 H 1481.04 2.99519 -0.104201 0
M  V30 15499 H 1478.6 1.60641 -0.201488 0
M  V30 15500 H 1480.59 3.24795 2.41433 0
M  V30 15501 H 1479.16 2.20416 2.21665 0
M  V30 15502 H 1478.38 3.91978 0.41795 0
M  V30 15503 H 1479.67 4.98837 1.00197 0
M  V30 15504 H 1479.07 3.98075 4.01936 0
M  V30 15505 H 1477.62 4.85172 4.3526 0
M  V30 15506 N 1481.06 0.105248 1.57248 0
M  V30 15507 C 1482.28 -0.567515 1.99484 0
M  V30 15508 C 1482.71 -1.60298 0.984182 0
M  V30 15509 O 1482.06 -1.81242 -0.0459944 0
M  V30 15510 C 1482.11 -1.18271 3.40653 0
M  V30 15511 O 1481.22 -2.29843 3.42412 0
M  V30 15512 H 1480.56 -0.143069 0.648404 0
M  V30 15513 H 1483.09 0.189661 2.03719 0
M  V30 15514 H 1483.1 -1.52157 3.78566 0
M  V30 15515 H 1481.77 -0.424179 4.13731 0
M  V30 15516 H 1480.35 -1.975 3.16304 0
M  V30 15517 N 1482.53 -1.56697 -0.168486 0
M  V30 15518 C 1483.46 -1.99659 -1.21073 0
M  V30 15519 C 1484.45 -0.872625 -1.46011 0
M  V30 15520 O 1485.63 -1.13891 -1.57297 0
M  V30 15521 C 1482.76 -2.35889 -2.54899 0
M  V30 15522 C 1481.71 -3.51272 -2.44524 0
M  V30 15523 C 1481.04 -3.73253 -3.82866 0
M  V30 15524 C 1482.34 -4.84631 -1.94756 0
M  V30 15525 H 1484.03 -2.86974 -0.853593 0
M  V30 15526 H 1481.58 -1.38065 -0.409165 0
M  V30 15527 H 1483.53 -2.64542 -3.28017 0
M  V30 15528 H 1482.26 -1.45486 -2.92406 0
M  V30 15529 H 1480.92 -3.22751 -1.7386 0
M  V30 15530 H 1480.56 -2.80136 -4.17772 0
M  V30 15531 H 1480.26 -4.5089 -3.76792 0
M  V30 15532 H 1481.79 -4.04309 -4.57566 0
M  V30 15533 H 1483.2 -5.12142 -2.5765 0
M  V30 15534 H 1481.6 -5.65925 -1.99623 0
M  V30 15535 H 1482.67 -4.76436 -0.902021 0
M  V30 15536 N 1484.01 0.437135 -1.51416 0
M  V30 15537 C 1484.94 1.54894 -1.68939 0
M  V30 15538 C 1485.96 1.52493 -0.570059 0
M  V30 15539 O 1487.15 1.57266 -0.844381 0
M  V30 15540 C 1484.25 2.9381 -1.68904 0
M  V30 15541 C 1483.42 3.20714 -2.97425 0
M  V30 15542 C 1482.48 4.39355 -2.89575 0
M  V30 15543 O 1481.5 4.37999 -3.63519 0
M  V30 15544 N 1482.71 5.42931 -2.05441 0
M  V30 15545 H 1485.47 1.40267 -2.64849 0
M  V30 15546 H 1483.03 0.626075 -1.49305 0
M  V30 15547 H 1485.02 3.71201 -1.61221 0
M  V30 15548 H 1483.59 3.02034 -0.805871 0
M  V30 15549 H 1482.81 2.31621 -3.18975 0
M  V30 15550 H 1484.1 3.35516 -3.825 0
M  V30 15551 H 1483.5 5.4687 -1.44742 0
M  V30 15552 H 1482.06 6.19173 -2.03636 0
M  V30 15553 N 1485.49 1.41566 0.692592 0
M  V30 15554 C 1486.72 1.44445 1.48132 0
M  V30 15555 C 1487.13 0.0505867 1.88732 0
M  V30 15556 O 1486.49 -0.930779 1.5698 0
M  V30 15557 C 1486.54 2.35582 2.74196 0
M  V30 15558 O 1486.26 3.69545 2.35305 0
M  V30 15559 C 1487.76 2.47296 3.67912 0
M  V30 15560 H 1484.98 0.491877 0.456396 0
M  V30 15561 H 1487.53 1.85884 0.852499 0
M  V30 15562 H 1485.68 1.97445 3.33308 0
M  V30 15563 H 1486.1 4.1818 3.16584 0
M  V30 15564 H 1487.57 3.15225 4.53141 0
M  V30 15565 H 1488.05 1.50517 4.12603 0
M  V30 15566 H 1488.65 2.86082 3.14702 0
M  V30 15567 N 1486.97 -0.927146 1.27443 0
M  V30 15568 C 1488.2 -1.70648 1.1646 0
M  V30 15569 C 1488.61 -1.871 -0.28114 0
M  V30 15570 O 1487.95 -1.38813 -1.20319 0
M  V30 15571 C 1488.01 -3.12542 1.77646 0
M  V30 15572 C 1487.68 -3.19425 3.26828 0
M  V30 15573 C 1488.67 -3.01633 4.23454 0
M  V30 15574 C 1486.36 -3.42366 3.67547 0
M  V30 15575 C 1488.35 -3.06672 5.58776 0
M  V30 15576 C 1486.04 -3.47039 5.02998 0
M  V30 15577 C 1487.04 -3.2921 5.98423 0
M  V30 15578 O 1486.72 -3.33619 7.31405 0
M  V30 15579 H 1486.46 -0.540657 0.40579 0
M  V30 15580 H 1489.01 -1.16983 1.68832 0
M  V30 15581 H 1487.24 -3.67691 1.19752 0
M  V30 15582 H 1488.93 -3.72445 1.61369 0
M  V30 15583 H 1489.7 -2.8375 3.93333 0
M  V30 15584 H 1485.57 -3.55294 2.93747 0
M  V30 15585 H 1489.12 -2.92674 6.33236 0
M  V30 15586 H 1485.02 -3.64446 5.32775 0
M  V30 15587 H 1485.78 -3.5007 7.3986 0
M  V30 15588 N 1488.45 -1.09474 -1.13372 0
M  V30 15589 C 1489.69 -0.832323 -1.84933 0
M  V30 15590 C 1490.03 0.640469 -1.83335 0
M  V30 15591 O 1489.3 1.47158 -1.2718 0
M  V30 15592 C 1489.58 -1.36876 -3.33072 0
M  V30 15593 C 1489.44 -2.90769 -3.43181 0
M  V30 15594 C 1490.76 -1.00294 -4.2852 0
M  V30 15595 H 1487.87 -0.30382 -0.671463 0
M  V30 15596 H 1490.52 -1.35622 -1.33066 0
M  V30 15597 H 1488.67 -0.923134 -3.77373 0
M  V30 15598 H 1490.34 -3.43784 -3.07588 0
M  V30 15599 H 1488.58 -3.27876 -2.84042 0
M  V30 15600 H 1489.25 -3.23381 -4.47358 0
M  V30 15601 H 1491.73 -1.38729 -3.92293 0
M  V30 15602 H 1490.6 -1.40533 -5.30605 0
M  V30 15603 H 1490.87 0.0888133 -4.42011 0
M  V30 15604 N 1489.92 1.30607 -0.882012 0
M  V30 15605 C 1491.15 2.00418 -0.513815 0
M  V30 15606 C 1491.57 1.66135 0.896916 0
M  V30 15607 O 1490.92 0.89691 1.5894 0
M  V30 15608 C 1490.98 3.55133 -0.675503 0
M  V30 15609 O 1490.7 3.88194 -2.03069 0
M  V30 15610 C 1492.2 4.42215 -0.309906 0
M  V30 15611 H 1489.42 0.640839 -0.198913 0
M  V30 15612 H 1491.96 1.66561 -1.1865 0
M  V30 15613 H 1490.12 3.87367 -0.0502289 0
M  V30 15614 H 1490.53 4.82899 -2.04717 0
M  V30 15615 H 1492 5.49962 -0.473948 0
M  V30 15616 H 1492.48 4.32717 0.751852 0
M  V30 15617 H 1493.09 4.1542 -0.91138 0
M  V30 15618 N 1491.4 0.642663 1.43901 0
M  V30 15619 C 1492.33 -0.0938945 2.29008 0
M  V30 15620 C 1493.35 -0.797561 1.41925 0
M  V30 15621 O 1494.54 -0.65708 1.65966 0
M  V30 15622 C 1491.64 -1.15564 3.18588 0
M  V30 15623 C 1490.81 -0.532208 4.3415 0
M  V30 15624 C 1489.87 -1.48943 5.0468 0
M  V30 15625 O 1488.89 -1.00211 5.60309 0
M  V30 15626 N 1490.1 -2.82362 5.072 0
M  V30 15627 H 1492.86 0.636539 2.92862 0
M  V30 15628 H 1490.42 0.484665 1.54475 0
M  V30 15629 H 1492.41 -1.79658 3.62636 0
M  V30 15630 H 1490.98 -1.78816 2.56405 0
M  V30 15631 H 1490.2 0.287598 3.93149 0
M  V30 15632 H 1491.49 -0.0965526 5.08708 0
M  V30 15633 H 1490.89 -3.24524 4.63358 0
M  V30 15634 H 1489.45 -3.41786 5.55001 0
M  V30 15635 N 1492.88 -1.52852 0.383918 0
M  V30 15636 C 1493.81 -2.23927 -0.488816 0
M  V30 15637 C 1494.83 -1.2598 -1.03115 0
M  V30 15638 O 1496.02 -1.5209 -0.934398 0
M  V30 15639 C 1493.12 -2.9378 -1.68957 0
M  V30 15640 C 1492.29 -4.18388 -1.27555 0
M  V30 15641 C 1491.35 -4.71287 -2.3404 0
M  V30 15642 O 1490.37 -5.34511 -1.9567 0
M  V30 15643 N 1491.58 -4.50679 -3.65881 0
M  V30 15644 H 1494.34 -2.99459 0.120084 0
M  V30 15645 H 1491.9 -1.60532 0.210004 0
M  V30 15646 H 1493.89 -3.26071 -2.39707 0
M  V30 15647 H 1492.46 -2.21588 -2.20493 0
M  V30 15648 H 1491.68 -3.92194 -0.397157 0
M  V30 15649 H 1492.97 -4.99361 -0.975506 0
M  V30 15650 H 1492.37 -4.00201 -3.9982 0
M  V30 15651 H 1490.93 -4.87473 -4.32681 0
M  V30 15652 N 1494.36 -0.113586 -1.5719 0
M  V30 15653 C 1495.29 0.835363 -2.18046 0
M  V30 15654 C 1496.27 1.28114 -1.11897 0
M  V30 15655 O 1497.46 1.34472 -1.40111 0
M  V30 15656 C 1494.59 2.08759 -2.77556 0
M  V30 15657 C 1493.54 1.77979 -3.8924 0
M  V30 15658 C 1492.87 3.10185 -4.35533 0
M  V30 15659 C 1494.17 1.05231 -5.11589 0
M  V30 15660 H 1495.86 0.328275 -2.97595 0
M  V30 15661 H 1493.41 0.156456 -1.43148 0
M  V30 15662 H 1495.36 2.75597 -3.18785 0
M  V30 15663 H 1494.08 2.61783 -1.95288 0
M  V30 15664 H 1492.74 1.13532 -3.48577 0
M  V30 15665 H 1492.39 3.61133 -3.50131 0
M  V30 15666 H 1492.09 2.90367 -5.10843 0
M  V30 15667 H 1493.61 3.78151 -4.7941 0
M  V30 15668 H 1495.03 1.62213 -5.49872 0
M  V30 15669 H 1493.42 0.955269 -5.92448 0
M  V30 15670 H 1494.49 0.038137 -4.84885 0
M  V30 15671 N 1495.84 1.56784 0.160173 0
M  V30 15672 C 1497.09 1.81812 0.873344 0
M  V30 15673 C 1497.4 0.692686 1.82924 0
M  V30 15674 O 1498.61 0.828202 2.5856 0
M  V30 15675 C 1497.06 3.222 1.6036 0
M  V30 15676 C 1496.67 4.42642 0.690776 0
M  V30 15677 C 1498.41 3.56512 2.30433 0
M  V30 15678 C 1496.32 5.74052 1.4219 0
M  V30 15679 H 1495.25 0.678013 0.32987 0
M  V30 15680 H 1497.9 1.83066 0.126164 0
M  V30 15681 H 1496.28 3.15295 2.39593 0
M  V30 15682 H 1497.46 4.60754 -0.0653914 0
M  V30 15683 H 1495.77 4.16282 0.09913 0
M  V30 15684 H 1498.37 4.51942 2.85749 0
M  V30 15685 H 1498.71 2.8193 3.06303 0
M  V30 15686 H 1499.25 3.65019 1.58132 0
M  V30 15687 H 1495.98 6.51694 0.705318 0
M  V30 15688 H 1495.5 5.59899 2.15111 0
M  V30 15689 H 1497.18 6.16395 1.96639 0
M  V30 15690 N 1497.32 -0.429099 1.51646 0
M  V30 15691 C 1498.73 -0.766217 1.40005 0
M  V30 15692 C 1498.93 -1.95481 0.488837 0
M  V30 15693 O 1497.99 -2.52445 -0.0529101 0
M  V30 15694 C 1499.3 -1.03886 2.82185 0
M  V30 15695 C 1500.85 -1.1428 2.91392 0
M  V30 15696 C 1501.32 -1.44833 4.34497 0
M  V30 15697 N 1502.81 -1.5174 4.37641 0
M  V30 15698 C 1503.55 -1.76968 5.45408 0
M  V30 15699 N 1503.05 -1.99934 6.63324 0
M  V30 15700 N 1504.84 -1.78819 5.32898 0
M  V30 15701 H 1496.99 0.35358 2.09436 0
M  V30 15702 H 1499.25 0.0958189 0.943145 0
M  V30 15703 H 1498.96 -0.238103 3.50893 0
M  V30 15704 H 1498.83 -1.96434 3.22015 0
M  V30 15705 H 1501.22 -1.93418 2.22876 0
M  V30 15706 H 1501.3 -0.19614 2.55047 0
M  V30 15707 H 1500.94 -0.662201 5.03565 0
M  V30 15708 H 1500.87 -2.40718 4.68361 0
M  V30 15709 H 1503.37 -1.35862 3.52633 0
M  V30 15710 H 1503.68 -2.18578 7.41245 0
M  V30 15711 H 1502.02 -1.97239 6.66425 0
M  V30 15712 H 1505.21 -1.60402 4.3976 0
M  V30 15713 H 1505.39 -1.98142 6.16963 0
M  V30 15714 N 1498.79 -1.41931 -0.685074 0
M  V30 15715 C 1499.76 -1.44315 -1.78061 0
M  V30 15716 C 1500.76 -0.332215 -1.57331 0
M  V30 15717 O 1501.95 -0.59258 -1.63811 0
M  V30 15718 C 1499.08 -1.26479 -3.16569 0
M  V30 15719 H 1500.27 -2.4185 -1.77337 0
M  V30 15720 H 1497.82 -1.28228 -0.893721 0
M  V30 15721 H 1498.56 -0.298259 -3.22926 0
M  V30 15722 H 1498.34 -2.06981 -3.33018 0
M  V30 15723 H 1499.83 -1.31006 -3.96519 0
M  V30 15724 N 1500.27 0.920374 -1.27933 0
M  V30 15725 C 1501.23 2.0035 -1.11321 0
M  V30 15726 C 1502.23 1.60706 -0.0549132 0
M  V30 15727 O 1503.42 1.71595 -0.300134 0
M  V30 15728 C 1500.56 3.33681 -0.69782 0
M  V30 15729 H 1501.75 2.16518 -2.07509 0
M  V30 15730 H 1499.3 1.10216 -1.10825 0
M  V30 15731 H 1500.04 3.23214 0.265122 0
M  V30 15732 H 1499.82 3.63815 -1.46223 0
M  V30 15733 H 1501.31 4.13208 -0.604048 0
M  V30 15734 N 1501.75 1.10074 1.1279 0
M  V30 15735 C 1502.66 0.758458 2.22001 0
M  V30 15736 C 1503.68 -0.242438 1.72303 0
M  V30 15737 O 1504.85 -0.0821223 2.01233 0
M  V30 15738 C 1501.92 0.191326 3.46172 0
M  V30 15739 C 1500.98 1.24902 4.10729 0
M  V30 15740 C 1500.21 0.708857 5.28972 0
M  V30 15741 O 1500.43 -0.465993 5.68493 0
M  V30 15742 O 1499.37 1.46703 5.83748 0
M  V30 15743 H 1503.19 1.66997 2.53665 0
M  V30 15744 H 1500.78 0.875604 1.21052 0
M  V30 15745 H 1502.66 -0.121292 4.21225 0
M  V30 15746 H 1501.34 -0.693094 3.16193 0
M  V30 15747 H 1500.24 1.61444 3.37471 0
M  V30 15748 H 1501.58 2.10632 4.44854 0
M  V30 15749 N 1503.23 -1.30138 0.888926 0
M  V30 15750 C 1504.48 -1.95265 0.5054 0
M  V30 15751 C 1504.79 -1.70925 -0.950998 0
M  V30 15752 O 1506 -2.30069 -1.44155 0
M  V30 15753 C 1504.45 -3.49647 0.852937 0
M  V30 15754 C 1504.06 -3.82802 2.32737 0
M  V30 15755 C 1505.8 -4.21067 0.538801 0
M  V30 15756 C 1503.71 -5.30379 2.61633 0
M  V30 15757 H 1502.64 -0.730882 0.185278 0
M  V30 15758 H 1505.29 -1.48027 1.08444 0
M  V30 15759 H 1503.67 -3.9548 0.202937 0
M  V30 15760 H 1504.85 -3.47866 3.02202 0
M  V30 15761 H 1503.16 -3.24495 2.60944 0
M  V30 15762 H 1505.76 -5.2967 0.731676 0
M  V30 15763 H 1506.1 -4.13014 -0.522039 0
M  V30 15764 H 1506.64 -3.8093 1.14617 0
M  V30 15765 H 1503.37 -5.43486 3.66473 0
M  V30 15766 H 1502.89 -5.66601 1.96782 0
M  V30 15767 H 1504.57 -5.97856 2.47339 0
M  V30 15768 N 1504.71 -0.650285 -1.43559 0
M  V30 15769 C 1506.12 -0.317586 -1.56408 0
M  V30 15770 C 1506.32 1.17844 -1.63447 0
M  V30 15771 O 1505.38 1.96318 -1.58794 0
M  V30 15772 C 1506.69 -1.02636 -2.82642 0
M  V30 15773 C 1508.24 -1.00633 -2.96381 0
M  V30 15774 C 1508.71 -1.69595 -4.25443 0
M  V30 15775 N 1510.2 -1.66345 -4.323 0
M  V30 15776 C 1510.94 -2.16581 -5.30924 0
M  V30 15777 N 1510.44 -2.75092 -6.35843 0
M  V30 15778 N 1512.23 -2.07098 -5.22558 0
M  V30 15779 H 1504.38 -1.62114 -1.37233 0
M  V30 15780 H 1506.64 -0.681588 -0.658895 0
M  V30 15781 H 1506.35 -2.08146 -2.83493 0
M  V30 15782 H 1506.22 -0.576081 -3.72775 0
M  V30 15783 H 1508.61 0.0403519 -2.95072 0
M  V30 15784 H 1508.69 -1.49528 -2.07545 0
M  V30 15785 H 1508.33 -2.74218 -4.27512 0
M  V30 15786 H 1508.26 -1.18168 -5.1317 0
M  V30 15787 H 1510.76 -1.23644 -3.571 0
M  V30 15788 H 1511.07 -3.11108 -7.07412 0
M  V30 15789 H 1509.41 -2.79152 -6.36474 0
M  V30 15790 H 1512.6 -1.61093 -4.39507 0
M  V30 15791 H 1512.78 -2.46557 -5.99261 0
M  V30 15792 N 1506.18 1.52647 -0.392018 0
M  V30 15793 C 1507.15 2.25135 0.429754 0
M  V30 15794 C 1508.15 1.26871 0.987946 0
M  V30 15795 O 1509.34 1.50947 0.86952 0
M  V30 15796 C 1506.47 3.00849 1.60321 0
M  V30 15797 H 1507.66 2.99199 -0.204918 0
M  V30 15798 H 1505.21 1.55634 -0.144188 0
M  V30 15799 H 1505.95 2.31092 2.27524 0
M  V30 15800 H 1505.73 3.72975 1.20964 0
M  V30 15801 H 1507.22 3.55879 2.18494 0
M  V30 15802 N 1507.66 0.121921 1.57128 0
M  V30 15803 C 1508.89 -0.546325 2.00075 0
M  V30 15804 C 1509.31 -1.59245 1.00113 0
M  V30 15805 O 1508.67 -1.8128 -0.0267687 0
M  V30 15806 C 1508.72 -1.14651 3.41888 0
M  V30 15807 O 1507.82 -2.26199 3.4483 0
M  V30 15808 H 1507.16 -0.136184 0.649885 0
M  V30 15809 H 1509.69 0.211257 2.03506 0
M  V30 15810 H 1509.7 -1.48133 3.80159 0
M  V30 15811 H 1508.38 -0.380273 4.14158 0
M  V30 15812 H 1506.96 -1.94134 3.18381 0
M  V30 15813 N 1509.14 -1.56867 -0.151857 0
M  V30 15814 C 1510.1 -1.96997 -1.17152 0
M  V30 15815 C 1511.1 -0.855905 -1.36128 0
M  V30 15816 O 1512.29 -1.12261 -1.33203 0
M  V30 15817 C 1509.43 -2.28171 -2.5328 0
M  V30 15818 H 1510.62 -2.88261 -0.827365 0
M  V30 15819 H 1508.17 -1.51226 -0.395024 0
M  V30 15820 H 1508.91 -1.39683 -2.92676 0
M  V30 15821 H 1508.69 -3.09394 -2.40869 0
M  V30 15822 H 1510.18 -2.60073 -3.26729 0
M  V30 15823 N 1510.62 0.421051 -1.51871 0
M  V30 15824 C 1511.57 1.53277 -1.74954 0
M  V30 15825 C 1512.56 1.57792 -0.616282 0
M  V30 15826 O 1513.77 1.61342 -0.798054 0
M  V30 15827 H 1510.14 0.50953 -0.553067 0
M  V30 15828 H 1512.11 1.30988 -2.68113 0
M  V30 15829 C 1510.86 2.90772 -1.90649 0
M  V30 15830 H 1510.18 2.88035 -2.77265 0
M  V30 15831 H 1511.62 3.67882 -2.10805 0
M  V30 15832 C 1510.08 3.30161 -0.670463 0
M  V30 15833 O 1510.61 4.01352 0.167271 0
M  V30 15834 N 1508.82 2.86093 -0.509813 0
M  V30 15835 H 1508.37 2.28329 -1.19262 0
M  V30 15836 H 1508.32 3.12809 0.315918 0
M  V30 15837 N 1512.1 1.42293 0.677538 0
M  V30 15838 C 1513.03 1.48344 1.80323 0
M  V30 15839 C 1514.01 0.340276 1.66662 0
M  V30 15840 O 1515.19 0.554209 1.86124 0
M  V30 15841 C 1512.32 1.38247 3.18599 0
M  V30 15842 C 1511.28 2.50562 3.46991 0
M  V30 15843 C 1510.6 2.25524 4.84812 0
M  V30 15844 C 1511.9 3.92877 3.44158 0
M  V30 15845 H 1513.6 2.42558 1.75516 0
M  V30 15846 H 1511.14 1.16746 0.842999 0
M  V30 15847 H 1513.1 1.41089 3.97079 0
M  V30 15848 H 1511.82 0.405255 3.24076 0
M  V30 15849 H 1510.48 2.47032 2.7087 0
M  V30 15850 H 1510.13 1.26102 4.86937 0
M  V30 15851 H 1509.83 3.00797 5.04772 0
M  V30 15852 H 1511.35 2.3011 5.65581 0
M  V30 15853 H 1512.76 3.98024 4.12613 0
M  V30 15854 H 1511.16 4.6798 3.75653 0
M  V30 15855 H 1512.23 4.19743 2.42783 0
M  V30 15856 N 1513.57 -0.913576 1.28419 0
M  V30 15857 C 1514.54 -1.99757 1.12382 0
M  V30 15858 C 1515.54 -1.60675 0.063435 0
M  V30 15859 O 1516.73 -1.71433 0.30923 0
M  V30 15860 C 1513.86 -3.33307 0.715506 0
M  V30 15861 H 1515.05 -2.15414 2.08655 0
M  V30 15862 H 1512.61 -1.09626 1.11408 0
M  V30 15863 H 1513.34 -3.23351 -0.247977 0
M  V30 15864 H 1513.13 -3.63034 1.4815 0
M  V30 15865 H 1514.62 -4.12882 0.625953 0
M  V30 15866 N 1515.05 -1.1067 -1.12204 0
M  V30 15867 C 1516.02 -0.761145 -2.16193 0
M  V30 15868 C 1517.02 0.215599 -1.59348 0
M  V30 15869 O 1518.21 -0.00786723 -1.74198 0
M  V30 15870 C 1515.34 -0.127863 -3.4066 0
M  V30 15871 H 1516.53 -1.68225 -2.48275 0
M  V30 15872 H 1514.08 -0.907542 -1.27253 0
M  V30 15873 H 1514.82 0.803851 -3.14179 0
M  V30 15874 H 1514.6 -0.83085 -3.83196 0
M  V30 15875 H 1516.09 0.0980593 -4.17485 0
M  V30 15876 N 1516.53 1.29665 -0.895815 0
M  V30 15877 C 1517.76 1.99862 -0.535043 0
M  V30 15878 C 1518.17 1.67077 0.879245 0
M  V30 15879 O 1517.53 0.913717 1.57979 0
M  V30 15880 C 1517.58 3.54396 -0.713132 0
M  V30 15881 O 1517.3 3.86018 -2.07175 0
M  V30 15882 C 1518.8 4.41862 -0.356792 0
M  V30 15883 H 1516.02 0.638693 -0.205699 0
M  V30 15884 H 1518.57 1.65293 -1.20409 0
M  V30 15885 H 1516.72 3.87292 -0.0913116 0
M  V30 15886 H 1517.14 4.80701 -2.09827 0
M  V30 15887 H 1518.61 5.49428 -0.532252 0
M  V30 15888 H 1519.09 4.3349 0.705914 0
M  V30 15889 H 1519.69 4.1443 -0.95539 0
M  V30 15890 N 1518.01 0.657889 1.43212 0
M  V30 15891 C 1518.96 -0.0308596 2.30779 0
M  V30 15892 C 1519.93 -0.809951 1.45014 0
M  V30 15893 O 1521.11 -0.785615 1.73876 0
M  V30 15894 C 1518.25 -0.988048 3.30653 0
M  V30 15895 C 1517.36 -0.204567 4.31515 0
M  V30 15896 C 1516.5 -1.15598 5.1847 0
M  V30 15897 C 1515.54 -0.363197 6.11022 0
M  V30 15898 N 1514.67 -1.26644 6.90584 0
M  V30 15899 H 1519.51 0.721745 2.89128 0
M  V30 15900 H 1517.05 0.367677 1.42431 0
M  V30 15901 H 1519.01 -1.55666 3.87071 0
M  V30 15902 H 1517.64 -1.70747 2.73944 0
M  V30 15903 H 1516.69 0.48041 3.77354 0
M  V30 15904 H 1518 0.411684 4.97098 0
M  V30 15905 H 1517.16 -1.79507 5.79536 0
M  V30 15906 H 1515.9 -1.80613 4.53023 0
M  V30 15907 H 1514.9 0.28922 5.49039 0
M  V30 15908 H 1516.13 0.28262 6.78512 0
M  V30 15909 H 1514.07 -1.90331 6.27782 0
M  V30 15910 H 1513.99 -0.70486 7.52707 0
M  V30 15911 H 1515.26 -1.89353 7.56152 0
M  V30 15912 N 1519.49 -1.52437 0.400108 0
M  V30 15913 C 1520.42 -2.23219 -0.474176 0
M  V30 15914 C 1521.4 -1.23699 -1.05533 0
M  V30 15915 O 1522.58 -1.52721 -1.10492 0
M  V30 15916 C 1519.71 -2.95381 -1.65734 0
M  V30 15917 C 1518.75 -4.09258 -1.20042 0
M  V30 15918 S 1519.59 -5.3522 -0.173016 0
M  V30 15919 C 1520.74 -6.10908 -1.36171 0
M  V30 15920 H 1520.98 -2.97029 0.126865 0
M  V30 15921 H 1518.51 -1.53295 0.184353 0
M  V30 15922 H 1520.47 -3.37564 -2.33583 0
M  V30 15923 H 1519.13 -2.21231 -2.2297 0
M  V30 15924 H 1518.32 -4.5889 -2.08413 0
M  V30 15925 H 1517.92 -3.69144 -0.600704 0
M  V30 15926 H 1520.22 -6.37735 -2.28691 0
M  V30 15927 H 1521.16 -7.02279 -0.906106 0
M  V30 15928 H 1521.57 -5.41838 -1.58342 0
M  V30 15929 N 1520.96 -0.130252 -1.57061 0
M  V30 15930 C 1522.19 0.535707 -2.00362 0
M  V30 15931 C 1522.61 1.58712 -1.00956 0
M  V30 15932 O 1521.97 1.81292 0.0171546 0
M  V30 15933 C 1522.02 1.12836 -3.42491 0
M  V30 15934 O 1521.12 2.24367 -3.46025 0
M  V30 15935 H 1520.47 0.132735 -0.650598 0
M  V30 15936 H 1523 -0.222047 -2.03392 0
M  V30 15937 H 1523.01 1.46115 -3.80939 0
M  V30 15938 H 1521.68 0.358304 -4.14354 0
M  V30 15939 H 1520.26 1.92443 -3.19406 0
M  V30 15940 N 1522.44 1.56945 0.143535 0
M  V30 15941 C 1523.35 2.01795 1.1965 0
M  V30 15942 C 1524.37 0.933965 1.4681 0
M  V30 15943 O 1525.55 1.2437 1.58411 0
M  V30 15944 C 1522.61 2.39249 2.5092 0
M  V30 15945 C 1521.67 3.61613 2.31376 0
M  V30 15946 C 1520.9 3.97271 3.56386 0
M  V30 15947 O 1521.13 3.33552 4.62709 0
M  V30 15948 O 1520.06 4.90501 3.48844 0
M  V30 15949 H 1523.89 2.91687 0.845718 0
M  V30 15950 H 1521.47 1.45182 0.352518 0
M  V30 15951 H 1523.35 2.64184 3.28306 0
M  V30 15952 H 1522.03 1.52511 2.85521 0
M  V30 15953 H 1520.94 3.4186 1.51929 0
M  V30 15954 H 1522.27 4.48979 2.01689 0
M  V30 15955 N 1523.92 -0.412991 1.52093 0
M  V30 15956 C 1525.16 -1.16951 1.67636 0
M  V30 15957 C 1525.53 -1.87875 0.39583 0
M  V30 15958 O 1526.73 -2.65382 0.42732 0
M  V30 15959 C 1525 -2.14052 2.8621 0
M  V30 15960 S 1526.56 -2.97863 3.22215 0
M  V30 15961 H 1523.37 -0.396249 0.590345 0
M  V30 15962 H 1525.98 -0.457386 1.90074 0
M  V30 15963 H 1524.68 -1.60628 3.7766 0
M  V30 15964 H 1524.21 -2.89809 2.66034 0
M  V30 15965 H 1526.23 -4.15961 2.70538 0
M  V30 15966 N 1525.4 -1.4265 -0.669982 0
M  V30 15967 C 1526.65 -1.43589 -1.43213 0
M  V30 15968 C 1526.98 -0.0537998 -1.94125 0
M  V30 15969 O 1526.25 0.922727 -1.71219 0
M  V30 15970 C 1526.54 -2.46433 -2.62569 0
M  V30 15971 C 1526.39 -3.93851 -2.17258 0
M  V30 15972 C 1527.71 -2.46208 -3.64787 0
M  V30 15973 H 1524.83 -0.522859 -0.519411 0
M  V30 15974 H 1527.47 -1.74094 -0.760997 0
M  V30 15975 H 1525.62 -2.20551 -3.19828 0
M  V30 15976 H 1527.29 -4.30732 -1.6513 0
M  V30 15977 H 1525.53 -4.07487 -1.48786 0
M  V30 15978 H 1526.21 -4.61398 -3.03012 0
M  V30 15979 H 1528.68 -2.69237 -3.17255 0
M  V30 15980 H 1527.56 -3.20138 -4.45873 0
M  V30 15981 H 1527.82 -1.48979 -4.16242 0
M  V30 15982 N 1526.88 0.906753 -1.28902 0
M  V30 15983 C 1527.81 2.02663 -1.15974 0
M  V30 15984 C 1528.79 1.70009 -0.0557202 0
M  V30 15985 O 1529.97 1.92786 -0.233952 0
M  V30 15986 C 1527.1 3.37283 -0.828115 0
M  V30 15987 C 1526.06 3.84123 -1.88767 0
M  V30 15988 C 1525.38 5.15787 -1.40953 0
M  V30 15989 C 1526.68 4.05217 -3.2954 0
M  V30 15990 H 1528.38 2.13738 -2.09658 0
M  V30 15991 H 1525.92 1.02699 -1.0094 0
M  V30 15992 H 1527.88 4.15127 -0.724408 0
M  V30 15993 H 1526.6 3.2628 0.14443 0
M  V30 15994 H 1525.26 3.0849 -1.98065 0
M  V30 15995 H 1524.91 5.01194 -0.425848 0
M  V30 15996 H 1524.61 5.48098 -2.11807 0
M  V30 15997 H 1526.13 5.9618 -1.31918 0
M  V30 15998 H 1527.55 4.73565 -3.23124 0
M  V30 15999 H 1525.94 4.48871 -3.9829 0
M  V30 16000 H 1527.01 3.0979 -3.73039 0
M  V30 16001 N 1528.36 1.11264 1.11616 0
M  V30 16002 C 1529.6 0.858664 1.82952 0
M  V30 16003 C 1529.92 -0.617439 1.84967 0
M  V30 16004 O 1529.19 -1.44849 1.31893 0
M  V30 16005 H 1527.77 0.314671 0.677489 0
M  V30 16006 H 1530.44 1.40466 1.35113 0
M  V30 16007 H 1529.53 1.22921 2.86874 0
M  V30 16008 N 1529.83 -1.29188 0.902679 0
M  V30 16009 C 1530.77 -2.26665 0.339964 0
M  V30 16010 C 1531.78 -1.54426 -0.515396 0
M  V30 16011 O 1532.97 -1.75384 -0.332071 0
M  V30 16012 C 1530.07 -3.34672 -0.533653 0
M  V30 16013 C 1529.24 -4.36393 0.296661 0
M  V30 16014 C 1528.3 -5.2372 -0.510264 0
M  V30 16015 O 1527.33 -5.69153 0.0732871 0
M  V30 16016 N 1528.53 -5.51373 -1.81572 0
M  V30 16017 H 1531.29 -2.75588 1.17778 0
M  V30 16018 H 1528.85 -1.42553 0.767474 0
M  V30 16019 H 1530.85 -3.90025 -1.07995 0
M  V30 16020 H 1529.42 -2.85543 -1.27216 0
M  V30 16021 H 1528.64 -3.80658 1.02436 0
M  V30 16022 H 1529.92 -5.0139 0.865191 0
M  V30 16023 H 1529.32 -5.16275 -2.31251 0
M  V30 16024 H 1527.88 -6.09528 -2.30908 0
M  V30 16025 N 1531.31 -0.665475 -1.42861 0
M  V30 16026 C 1532.54 -0.190399 -2.06524 0
M  V30 16027 C 1532.96 1.13995 -1.49622 0
M  V30 16028 O 1532.32 1.70695 -0.610981 0
M  V30 16029 C 1532.37 -0.12594 -3.6038 0
M  V30 16030 O 1531.47 0.908299 -4.02273 0
M  V30 16031 H 1530.81 -0.100495 -0.656351 0
M  V30 16032 H 1533.34 -0.911858 -1.83156 0
M  V30 16033 H 1533.35 0.0533153 -4.07965 0
M  V30 16034 H 1532.03 -1.09703 -4.01171 0
M  V30 16035 H 1530.6 0.700841 -3.66255 0
M  V30 16036 N 1532.79 1.52222 -0.408187 0
M  V30 16037 C 1533.74 2.26988 0.417767 0
M  V30 16038 C 1534.71 1.29362 1.04185 0
M  V30 16039 O 1535.89 1.58223 1.06631 0
M  V30 16040 C 1533.03 3.09379 1.52901 0
M  V30 16041 C 1532.14 4.2196 0.92593 0
M  V30 16042 C 1531.28 4.91712 2.00979 0
M  V30 16043 C 1530.32 5.96258 1.3836 0
M  V30 16044 N 1529.46 6.59531 2.40756 0
M  V30 16045 H 1534.3 2.9714 -0.226228 0
M  V30 16046 H 1531.83 1.46581 -0.123402 0
M  V30 16047 H 1533.79 3.55452 2.18425 0
M  V30 16048 H 1532.42 2.41399 2.14304 0
M  V30 16049 H 1531.47 3.80064 0.159765 0
M  V30 16050 H 1532.78 4.96956 0.428497 0
M  V30 16051 H 1531.94 5.41186 2.74231 0
M  V30 16052 H 1530.68 4.16282 2.54087 0
M  V30 16053 H 1529.68 5.46104 0.636402 0
M  V30 16054 H 1530.91 6.7363 0.860218 0
M  V30 16055 H 1528.85 5.86931 2.92999 0
M  V30 16056 H 1528.77 7.30198 1.95822 0
M  V30 16057 H 1530.04 7.13643 3.13581 0
M  V30 16058 N 1534.27 0.138579 1.5699 0
M  V30 16059 C 1535.68 -0.217898 1.58106 0
M  V30 16060 C 1535.88 -1.65293 1.15241 0
M  V30 16061 O 1534.94 -2.37805 0.848815 0
M  V30 16062 C 1536.25 0.033211 3.00682 0
M  V30 16063 C 1537.8 -0.0311593 3.12984 0
M  V30 16064 C 1538.28 0.192508 4.57595 0
M  V30 16065 N 1539.77 0.139147 4.62991 0
M  V30 16066 C 1540.5 0.286837 5.72682 0
M  V30 16067 N 1540 0.491784 6.91052 0
M  V30 16068 N 1541.79 0.225032 5.61649 0
M  V30 16069 H 1533.94 1.07567 1.83148 0
M  V30 16070 H 1536.2 0.425143 0.847324 0
M  V30 16071 H 1535.91 1.02605 3.364 0
M  V30 16072 H 1535.78 -0.689972 3.70836 0
M  V30 16073 H 1538.17 -1.01454 2.77112 0
M  V30 16074 H 1538.25 0.724219 2.45334 0
M  V30 16075 H 1537.9 1.17295 4.9417 0
M  V30 16076 H 1537.83 -0.583092 5.23362 0
M  V30 16077 H 1540.32 -0.0149467 3.77897 0
M  V30 16078 H 1540.63 0.594813 7.70508 0
M  V30 16079 H 1538.98 0.528002 6.92991 0
M  V30 16080 H 1542.17 0.0657415 4.68054 0
M  V30 16081 H 1542.34 0.343569 6.47089 0
M  V30 16082 N 1535.75 -1.57019 -0.13521 0
M  V30 16083 C 1536.99 -1.84262 -0.847071 0
M  V30 16084 C 1537.32 -0.721946 -1.80282 0
M  V30 16085 O 1536.6 0.273535 -1.92567 0
M  V30 16086 C 1536.88 -3.22043 -1.61123 0
M  V30 16087 C 1536.74 -4.44689 -0.67617 0
M  V30 16088 C 1538.05 -3.57188 -2.57108 0
M  V30 16089 H 1535.17 -0.670246 -0.306496 0
M  V30 16090 H 1537.82 -1.89671 -0.111843 0
M  V30 16091 H 1535.97 -3.17563 -2.23799 0
M  V30 16092 H 1537.64 -4.61262 -0.0595009 0
M  V30 16093 H 1535.88 -4.33798 0.0134526 0
M  V30 16094 H 1536.55 -5.37727 -1.24714 0
M  V30 16095 H 1539.03 -3.62354 -2.04545 0
M  V30 16096 H 1537.9 -4.54602 -3.07617 0
M  V30 16097 H 1538.16 -2.83758 -3.39019 0
M  V30 16098 N 1537.22 0.404919 -1.52309 0
M  V30 16099 C 1538.5 1.16473 -1.57142 0
M  V30 16100 C 1538.88 2.08094 -0.354967 0
M  V30 16101 O 1538.23 2.18825 0.65788 0
M  V30 16102 C 1538.44 1.93834 -2.90223 0
M  V30 16103 C 1539.79 2.49754 -3.43378 0
M  V30 16104 O 1540.81 2.04009 -2.91991 0
M  V30 16105 O 1539.67 3.33271 -4.3312 0
M  V30 16106 H 1536.76 0.532036 -0.633141 0
M  V30 16107 H 1539.31 0.411359 -1.64639 0
M  V30 16108 H 1538.08 1.2674 -3.70206 0
M  V30 16109 H 1537.71 2.76167 -2.86038 0
M  V30 16110 N 1538.7 1.43003 0.662408 0
M  V30 16111 C 1539.95 1.44133 1.42239 0
M  V30 16112 C 1540.28 0.062249 1.944 0
M  V30 16113 O 1539.53 -0.931341 1.72118 0
M  V30 16114 C 1539.83 2.4231 2.62718 0
M  V30 16115 C 1539.5 3.88403 2.29028 0
M  V30 16116 C 1538.16 4.28194 2.19552 0
M  V30 16117 C 1540.51 4.80505 2.01902 0
M  V30 16118 C 1537.84 5.58052 1.81092 0
M  V30 16119 C 1540.19 6.10718 1.64943 0
M  V30 16120 C 1538.86 6.49496 1.53985 0
M  V30 16121 H 1538.13 0.527419 0.52049 0
M  V30 16122 H 1540.77 1.76024 0.75417 0
M  V30 16123 H 1539.08 2.03789 3.3463 0
M  V30 16124 H 1540.77 2.40442 3.20918 0
M  V30 16125 H 1537.36 3.56906 2.37311 0
M  V30 16126 H 1541.55 4.50542 2.08149 0
M  V30 16127 H 1536.8 5.86945 1.71187 0
M  V30 16128 H 1540.98 6.81564 1.42982 0
M  V30 16129 H 1538.61 7.50026 1.23954 0
M  V30 16130 N 1540.18 -0.899904 1.29381 0
M  V30 16131 C 1541.42 -1.66468 1.18608 0
M  V30 16132 C 1541.78 -1.90255 -0.258287 0
M  V30 16133 O 1542.99 -2.64315 -0.488987 0
M  V30 16134 C 1541.26 -2.97758 1.97674 0
M  V30 16135 S 1542.82 -3.88794 2.03433 0
M  V30 16136 H 1539.63 -0.571533 0.422931 0
M  V30 16137 H 1542.24 -1.06931 1.63664 0
M  V30 16138 H 1540.94 -2.78158 3.01755 0
M  V30 16139 H 1540.47 -3.62335 1.53221 0
M  V30 16140 H 1542.49 -4.82669 1.15086 0
M  V30 16141 N 1541.66 -1.11854 -1.11024 0
M  V30 16142 C 1542.91 -0.868355 -1.82494 0
M  V30 16143 C 1543.23 0.607622 -1.85292 0
M  V30 16144 O 1542.5 1.44147 -1.32659 0
M  V30 16145 H 1541.08 -0.31826 -0.67581 0
M  V30 16146 H 1543.74 -1.4118 -1.34366 0
M  V30 16147 H 1542.84 -1.24441 -2.86218 0
M  V30 16148 N 1543.14 1.28707 -0.909517 0
M  V30 16149 C 1544.08 2.27427 -0.393155 0
M  V30 16150 C 1545.05 1.57414 0.53009 0
M  V30 16151 O 1546.24 1.85339 0.453205 0
M  V30 16152 C 1543.38 3.4317 0.364507 0
M  V30 16153 C 1542.49 4.27942 -0.590757 0
M  V30 16154 C 1541.63 5.30878 0.184931 0
M  V30 16155 C 1540.67 6.07311 -0.764222 0
M  V30 16156 N 1539.8 7.02096 -0.0223203 0
M  V30 16157 H 1544.64 2.70974 -1.24005 0
M  V30 16158 H 1542.18 1.33265 -0.6228 0
M  V30 16159 H 1544.14 4.09063 0.819937 0
M  V30 16160 H 1542.77 3.00625 1.17578 0
M  V30 16161 H 1541.82 3.62131 -1.16471 0
M  V30 16162 H 1543.13 4.81102 -1.31689 0
M  V30 16163 H 1542.29 6.02635 0.701116 0
M  V30 16164 H 1541.02 4.78474 0.944143 0
M  V30 16165 H 1540.03 5.34408 -1.29182 0
M  V30 16166 H 1541.25 6.61804 -1.52292 0
M  V30 16167 H 1539.2 6.52048 0.718978 0
M  V30 16168 H 1539.12 7.5286 -0.688359 0
M  V30 16169 H 1540.39 7.78059 0.473807 0
M  V30 16170 N 1544.61 0.673042 1.42506 0
M  V30 16171 C 1545.86 0.194192 2.01165 0
M  V30 16172 C 1546.18 -1.2029 1.53477 0
M  V30 16173 O 1545.45 -1.80737 0.755704 0
M  V30 16174 H 1544.03 0.0688022 0.743825 0
M  V30 16175 H 1546.7 0.869157 1.74447 0
M  V30 16176 H 1545.79 0.194111 3.11496 0
M  V30 16177 N 1546.09 -1.52004 0.416254 0
M  V30 16178 C 1547.32 -2.06008 -0.156264 0
M  V30 16179 C 1547.73 -1.28562 -1.3881 0
M  V30 16180 O 1547.07 -0.33265 -1.80663 0
M  V30 16181 C 1547.14 -3.55039 -0.564614 0
M  V30 16182 C 1546.8 -4.53587 0.557481 0
M  V30 16183 C 1547.8 -5.0004 1.42324 0
M  V30 16184 C 1545.48 -4.96935 0.732205 0
M  V30 16185 C 1547.48 -5.88492 2.4486 0
M  V30 16186 C 1545.16 -5.85181 1.76087 0
M  V30 16187 C 1546.16 -6.30855 2.61747 0
M  V30 16188 O 1545.85 -7.17353 3.6285 0
M  V30 16189 H 1545.58 -0.675681 -0.0207555 0
M  V30 16190 H 1548.13 -1.96806 0.58792 0
M  V30 16191 H 1546.36 -3.61951 -1.36119 0
M  V30 16192 H 1548.05 -3.91656 -1.06586 0
M  V30 16193 H 1548.82 -4.67261 1.29968 0
M  V30 16194 H 1544.7 -4.60939 0.0751016 0
M  V30 16195 H 1548.24 -6.24063 3.11754 0
M  V30 16196 H 1544.14 -6.17373 1.8847 0
M  V30 16197 H 1544.91 -7.35481 3.59179 0
M  V30 16198 N 1547.57 -0.146903 -1.56914 0
M  V30 16199 C 1548.52 0.804576 -2.13332 0
M  V30 16200 C 1549.5 1.2095 -1.06112 0
M  V30 16201 O 1550.7 1.17594 -1.3229 0
M  V30 16202 C 1547.83 2.0437 -2.7584 0
M  V30 16203 C 1546.91 1.66188 -3.90183 0
M  V30 16204 N 1547.3 0.988267 -4.96051 0
M  V30 16205 C 1545.6 1.9546 -4.00888 0
M  V30 16206 C 1546.3 0.803957 -5.76118 0
M  V30 16207 N 1545.28 1.33779 -5.26882 0
M  V30 16208 H 1549.08 0.280693 -2.92557 0
M  V30 16209 H 1546.59 0.0546404 -1.62308 0
M  V30 16210 H 1548.59 2.73532 -3.1462 0
M  V30 16211 H 1547.25 2.57276 -1.98089 0
M  V30 16212 H 1548.26 0.64904 -5.13817 0
M  V30 16213 H 1544.94 2.50216 -3.34213 0
M  V30 16214 H 1546.33 0.273065 -6.71345 0
M  V30 16215 N 1549.05 1.57088 0.126881 0
M  V30 16216 C 1549.98 2.02799 1.15737 0
M  V30 16217 C 1550.96 0.911031 1.43646 0
M  V30 16218 O 1552.14 1.18021 1.54223 0
M  V30 16219 C 1549.27 2.42565 2.48555 0
M  V30 16220 C 1548.23 3.57631 2.35125 0
M  V30 16221 C 1547.55 3.83272 3.72836 0
M  V30 16222 C 1548.85 4.89625 1.81838 0
M  V30 16223 H 1550.55 2.89136 0.777207 0
M  V30 16224 H 1548.09 1.39101 0.372416 0
M  V30 16225 H 1550.05 2.73146 3.20888 0
M  V30 16226 H 1548.77 1.53188 2.88446 0
M  V30 16227 H 1547.43 3.27247 1.65242 0
M  V30 16228 H 1547.08 2.91114 4.10197 0
M  V30 16229 H 1546.78 4.60721 3.64705 0
M  V30 16230 H 1548.3 4.16298 4.46686 0
M  V30 16231 H 1549.72 5.18793 2.43981 0
M  V30 16232 H 1548.11 5.71018 1.84548 0
M  V30 16233 H 1549.18 4.7866 0.775385 0
M  V30 16234 N 1550.53 -0.396836 1.52522 0
M  V30 16235 C 1551.46 -1.50564 1.71481 0
M  V30 16236 C 1552.44 -1.5256 0.562524 0
M  V30 16237 O 1553.62 -1.71083 0.791378 0
M  V30 16238 C 1550.75 -2.89058 1.76531 0
M  V30 16239 C 1549.79 -3.04922 2.98202 0
M  V30 16240 S 1550.63 -2.76944 4.58326 0
M  V30 16241 C 1551.78 -4.17645 4.66179 0
M  V30 16242 H 1552.02 -1.34256 2.6526 0
M  V30 16243 H 1549.55 -0.589208 1.42715 0
M  V30 16244 H 1551.51 -3.6887 1.80125 0
M  V30 16245 H 1550.17 -3.02699 0.838582 0
M  V30 16246 H 1549.36 -4.06277 2.98254 0
M  V30 16247 H 1548.96 -2.32992 2.92559 0
M  V30 16248 H 1551.26 -5.11461 4.44312 0
M  V30 16249 H 1552.2 -4.22612 5.68159 0
M  V30 16250 H 1552.61 -4.03189 3.95093 0
M  V30 16251 N 1552.01 -1.43353 -0.654814 0
M  V30 16252 C 1553.23 -1.48536 -1.44748 0
M  V30 16253 C 1553.66 -0.103991 -1.87812 0
M  V30 16254 O 1553.01 0.901924 -1.57274 0
M  V30 16255 C 1553.06 -2.43498 -2.65972 0
M  V30 16256 O 1552.17 -1.92014 -3.64972 0
M  V30 16257 H 1551.51 -0.502476 -0.434067 0
M  V30 16258 H 1554.04 -1.88251 -0.801427 0
M  V30 16259 H 1554.05 -2.60748 -3.13806 0
M  V30 16260 H 1552.72 -3.43847 -2.3397 0
M  V30 16261 H 1551.3 -1.84417 -3.24106 0
M  V30 16262 N 1553.48 0.89303 -1.29857 0
M  V30 16263 C 1554.73 1.64413 -1.18214 0
M  V30 16264 C 1555.06 1.92687 0.26492 0
M  V30 16265 O 1554.31 1.54044 1.20702 0
M  V30 16266 C 1554.61 2.99661 -1.94777 0
M  V30 16267 C 1554.28 2.90969 -3.44453 0
M  V30 16268 C 1552.94 2.88306 -3.8527 0
M  V30 16269 C 1555.29 2.79686 -4.39801 0
M  V30 16270 C 1552.62 2.72188 -5.19741 0
M  V30 16271 C 1554.97 2.65107 -5.7437 0
M  V30 16272 C 1553.64 2.60814 -6.14437 0
M  V30 16273 H 1552.91 0.60163 -0.432577 0
M  V30 16274 H 1555.55 1.03891 -1.60869 0
M  V30 16275 H 1553.86 3.64087 -1.44733 0
M  V30 16276 H 1555.56 3.56722 -1.83168 0
M  V30 16277 H 1552.15 2.93848 -3.12012 0
M  V30 16278 H 1556.33 2.80816 -4.09214 0
M  V30 16279 H 1551.59 2.67273 -5.49886 0
M  V30 16280 H 1555.76 2.55349 -6.47897 0
M  V30 16281 H 1553.39 2.48082 -7.18582 0
M  V30 16282 N 1554.96 1.12442 1.10429 0
M  V30 16283 C 1556.37 0.894147 1.63896 0
M  V30 16284 C 1556.72 -0.571509 1.87692 0
M  V30 16285 O 1555.85 -1.43595 1.61893 0
M  V30 16286 C 1556.44 1.61664 2.97742 0
M  V30 16287 C 1555 1.43251 3.48075 0
M  V30 16288 C 1554.15 1.65252 2.22682 0
M  V30 16289 H 1557.1 1.27918 0.939289 0
M  V30 16290 H 1557.12 1.06771 3.65213 0
M  V30 16291 H 1556.63 2.68333 2.80391 0
M  V30 16292 H 1554.73 0.388385 3.7057 0
M  V30 16293 H 1554.85 2.18866 4.26186 0
M  V30 16294 H 1553.21 1.07663 2.30827 0
M  V30 16295 H 1553.99 2.73219 2.07862 0
M  V30 16296 N 1556.44 -1.28223 0.91633 0
M  V30 16297 C 1557.37 -2.26291 0.363986 0
M  V30 16298 C 1558.38 -1.54964 -0.498988 0
M  V30 16299 O 1559.57 -1.75726 -0.31345 0
M  V30 16300 C 1556.67 -3.35219 -0.498126 0
M  V30 16301 C 1555.85 -4.36054 0.34293 0
M  V30 16302 C 1554.91 -5.24232 -0.454688 0
M  V30 16303 O 1553.93 -5.69043 0.133649 0
M  V30 16304 N 1555.13 -5.53268 -1.75714 0
M  V30 16305 H 1557.9 -2.74323 1.20694 0
M  V30 16306 H 1555.46 -1.41731 0.782551 0
M  V30 16307 H 1557.45 -3.91148 -1.03852 0
M  V30 16308 H 1556.02 -2.86876 -1.2418 0
M  V30 16309 H 1555.24 -3.7955 1.06468 0
M  V30 16310 H 1556.53 -5.00444 0.918322 0
M  V30 16311 H 1555.93 -5.18698 -2.25762 0
M  V30 16312 H 1554.48 -6.11943 -2.2443 0
M  V30 16313 N 1557.92 -0.68059 -1.42147 0
M  V30 16314 C 1559.14 -0.212293 -2.06311 0
M  V30 16315 C 1559.57 1.12402 -1.50822 0
M  V30 16316 O 1558.93 1.70037 -0.629051 0
M  V30 16317 C 1558.97 -0.164156 -3.60226 0
M  V30 16318 O 1558.08 0.865582 -4.03214 0
M  V30 16319 H 1557.42 -0.107451 -0.655248 0
M  V30 16320 H 1559.95 -0.931233 -1.82179 0
M  V30 16321 H 1559.96 0.0100422 -4.07999 0
M  V30 16322 H 1558.63 -1.13952 -3.99985 0
M  V30 16323 H 1557.21 0.661955 -3.66978 0
M  V30 16324 N 1559.4 1.51781 -0.424309 0
M  V30 16325 C 1560.36 2.25996 0.381903 0
M  V30 16326 C 1561.36 1.28938 0.960813 0
M  V30 16327 O 1562.55 1.52757 0.837306 0
M  V30 16328 C 1559.68 3.04181 1.53904 0
M  V30 16329 H 1560.87 2.98697 -0.268336 0
M  V30 16330 H 1558.43 1.55293 -0.177167 0
M  V30 16331 H 1559.16 2.35866 2.22571 0
M  V30 16332 H 1558.95 3.75457 1.13025 0
M  V30 16333 H 1560.44 3.60434 2.10896 0
M  V30 16334 N 1560.87 0.155222 1.56834 0
M  V30 16335 C 1562.28 -0.364232 1.83113 0
M  V30 16336 C 1562.64 -1.64173 1.07432 0
M  V30 16337 O 1561.76 -2.13988 0.322202 0
M  V30 16338 C 1562.36 -0.667608 3.32157 0
M  V30 16339 C 1560.91 -1.13156 3.58989 0
M  V30 16340 C 1560.06 -0.158941 2.76844 0
M  V30 16341 H 1563.01 0.379779 1.54089 0
M  V30 16342 H 1563.03 -1.52141 3.4876 0
M  V30 16343 H 1562.55 0.262355 3.87212 0
M  V30 16344 H 1560.65 -2.07717 3.09329 0
M  V30 16345 H 1560.76 -1.05184 4.67411 0
M  V30 16346 H 1559.12 -0.653181 2.46182 0
M  V30 16347 H 1559.91 0.764757 3.34674 0
M  V30 16348 N 1562.35 -1.57153 -0.118549 0
M  V30 16349 C 1563.3 -1.96802 -1.15122 0
M  V30 16350 C 1564.29 -0.843066 -1.37045 0
M  V30 16351 O 1565.48 -1.10676 -1.38129 0
M  V30 16352 C 1562.61 -2.37625 -2.47768 0
M  V30 16353 C 1561.69 -3.56754 -2.29319 0
M  V30 16354 N 1562.08 -4.72427 -1.80683 0
M  V30 16355 C 1560.38 -3.62395 -2.59973 0
M  V30 16356 C 1561.08 -5.54451 -1.75952 0
M  V30 16357 N 1560.06 -4.96954 -2.20314 0
M  V30 16358 H 1563.86 -2.83695 -0.767744 0
M  V30 16359 H 1561.37 -1.59088 -0.326287 0
M  V30 16360 H 1563.37 -2.64247 -3.22458 0
M  V30 16361 H 1562.03 -1.52097 -2.86874 0
M  V30 16362 H 1563.04 -4.95634 -1.50223 0
M  V30 16363 H 1559.72 -2.87475 -3.02762 0
M  V30 16364 H 1561.11 -6.57238 -1.39599 0
M  V30 16365 N 1563.83 0.388742 -1.5273 0
M  V30 16366 C 1565.08 1.13151 -1.67455 0
M  V30 16367 C 1565.4 1.90487 -0.417095 0
M  V30 16368 O 1564.67 1.87469 0.568509 0
M  V30 16369 H 1563.25 0.4207 -0.617269 0
M  V30 16370 H 1565.91 0.44098 -1.89846 0
M  V30 16371 H 1565.01 1.83427 -2.52509 0
M  V30 16372 N 1565.31 1.43698 0.647203 0
M  V30 16373 C 1566.55 1.45849 1.40911 0
M  V30 16374 C 1566.89 0.0846767 1.94015 0
M  V30 16375 O 1566.16 -0.89537 1.72665 0
M  V30 16376 C 1566.44 2.50579 2.58616 0
M  V30 16377 C 1566.3 3.97258 2.10965 0
M  V30 16378 C 1567.62 2.51981 3.60824 0
M  V30 16379 H 1564.74 0.531056 0.511027 0
M  V30 16380 H 1567.38 1.75283 0.733204 0
M  V30 16381 H 1565.53 2.25611 3.16278 0
M  V30 16382 H 1567.2 4.33304 1.58257 0
M  V30 16383 H 1565.44 4.09802 1.42284 0
M  V30 16384 H 1566.11 4.6616 2.95633 0
M  V30 16385 H 1568.59 2.7425 3.12932 0
M  V30 16386 H 1567.47 3.27191 4.40723 0
M  V30 16387 H 1567.73 1.55582 4.1382 0
M  V30 16388 N 1566.79 -0.886131 1.30328 0
M  V30 16389 C 1568.03 -1.64026 1.19261 0
M  V30 16390 C 1568.37 -1.92553 -0.252379 0
M  V30 16391 O 1567.64 -1.54564 -1.18069 0
M  V30 16392 C 1567.92 -2.9808 2.0204 0
M  V30 16393 C 1567.78 -2.76534 3.54752 0
M  V30 16394 C 1569.1 -3.98989 1.85731 0
M  V30 16395 H 1566.21 -0.595224 0.4346 0
M  V30 16396 H 1568.86 -1.0255 1.59949 0
M  V30 16397 H 1567.01 -3.50552 1.67469 0
M  V30 16398 H 1568.68 -2.3086 3.99376 0
M  V30 16399 H 1566.92 -2.1106 3.78993 0
M  V30 16400 H 1567.59 -3.71849 4.07961 0
M  V30 16401 H 1570.07 -3.55673 2.15953 0
M  V30 16402 H 1568.94 -4.90699 2.45979 0
M  V30 16403 H 1569.21 -4.34501 0.816152 0
M  V30 16404 N 1568.26 -1.13026 -1.09832 0
M  V30 16405 C 1569.51 -0.889419 -1.81922 0
M  V30 16406 C 1569.84 0.584572 -1.85507 0
M  V30 16407 O 1569.09 1.44844 -1.316 0
M  V30 16408 C 1569.39 -1.41718 -3.28102 0
M  V30 16409 C 1569.06 -2.90729 -3.44655 0
M  V30 16410 C 1567.72 -3.31415 -3.48881 0
M  V30 16411 C 1570.07 -3.86619 -3.49536 0
M  V30 16412 C 1567.4 -4.66683 -3.55561 0
M  V30 16413 C 1569.75 -5.21726 -3.5775 0
M  V30 16414 C 1568.42 -5.61945 -3.60242 0
M  V30 16415 H 1567.69 -0.325461 -0.6657 0
M  V30 16416 H 1570.33 -1.4115 -1.29418 0
M  V30 16417 H 1568.64 -0.815709 -3.83215 0
M  V30 16418 H 1570.34 -1.20696 -3.82405 0
M  V30 16419 H 1566.93 -2.58266 -3.42048 0
M  V30 16420 H 1571.11 -3.56276 -3.45516 0
M  V30 16421 H 1566.37 -4.97226 -3.55776 0
M  V30 16422 H 1570.54 -5.95847 -3.60471 0
M  V30 16423 H 1568.17 -6.66749 -3.65171 0
M  V30 16424 N 1569.74 1.27735 -0.923117 0
M  V30 16425 C 1570.67 2.29395 -0.435907 0
M  V30 16426 C 1571.65 1.62542 0.501403 0
M  V30 16427 O 1572.84 1.89884 0.407135 0
M  V30 16428 C 1569.97 3.45856 0.316348 0
M  V30 16429 C 1568.92 4.24672 -0.532697 0
M  V30 16430 C 1568.25 5.33563 0.348454 0
M  V30 16431 C 1569.55 4.90494 -1.79481 0
M  V30 16432 H 1571.24 2.70398 -1.28551 0
M  V30 16433 H 1568.79 1.29989 -0.619581 0
M  V30 16434 H 1570.74 4.1607 0.668098 0
M  V30 16435 H 1569.47 3.03758 1.19994 0
M  V30 16436 H 1568.12 3.56198 -0.867093 0
M  V30 16437 H 1567.77 4.87708 1.23086 0
M  V30 16438 H 1567.47 5.87202 -0.216104 0
M  V30 16439 H 1569 6.06622 0.695878 0
M  V30 16440 H 1570.41 5.53019 -1.5114 0
M  V30 16441 H 1568.81 5.5417 -2.30251 0
M  V30 16442 H 1569.88 4.14454 -2.51707 0
M  V30 16443 N 1571.22 0.688118 1.41784 0
M  V30 16444 C 1572.17 -0.00492036 2.27999 0
M  V30 16445 C 1573.15 -0.760299 1.41804 0
M  V30 16446 O 1574.35 -0.637019 1.6514 0
M  V30 16447 C 1571.48 -0.945951 3.3001 0
M  V30 16448 C 1570.56 -0.187213 4.23687 0
M  V30 16449 N 1570.95 0.815028 4.9919 0
M  V30 16450 C 1569.25 -0.423765 4.43982 0
M  V30 16451 C 1569.95 1.26854 5.677 0
M  V30 16452 N 1568.93 0.595901 5.40324 0
M  V30 16453 H 1572.73 0.763628 2.83806 0
M  V30 16454 H 1570.24 0.518314 1.53907 0
M  V30 16455 H 1572.24 -1.45754 3.90591 0
M  V30 16456 H 1570.9 -1.71418 2.75764 0
M  V30 16457 H 1571.91 1.19502 5.03924 0
M  V30 16458 H 1568.59 -1.17046 4.00757 0
M  V30 16459 H 1569.98 2.0998 6.38246 0
M  V30 16460 N 1572.7 -1.51554 0.432352 0
M  V30 16461 C 1573.94 -2.02344 -0.13598 0
M  V30 16462 C 1574.28 -1.31619 -1.42794 0
M  V30 16463 O 1573.55 -0.42957 -1.89697 0
M  V30 16464 C 1573.84 -3.58297 -0.359865 0
M  V30 16465 C 1573.69 -4.39645 0.950399 0
M  V30 16466 C 1575.01 -4.25297 -1.13184 0
M  V30 16467 H 1572.13 -0.735439 -0.0479461 0
M  V30 16468 H 1574.77 -1.81237 0.570373 0
M  V30 16469 H 1572.92 -3.76413 -0.961547 0
M  V30 16470 H 1574.59 -4.3319 1.58568 0
M  V30 16471 H 1572.83 -4.04928 1.55614 0
M  V30 16472 H 1573.5 -5.46911 0.747852 0
M  V30 16473 H 1575.98 -4.11421 -0.622231 0
M  V30 16474 H 1574.86 -5.34307 -1.25726 0
M  V30 16475 H 1575.12 -3.85818 -2.15862 0
M  V30 16476 N 1574.18 -0.163538 -1.56749 0
M  V30 16477 C 1575.4 0.489888 -2.01017 0
M  V30 16478 C 1575.82 1.57327 -1.04373 0
M  V30 16479 O 1575.18 1.82449 -0.0433414 0
M  V30 16480 C 1575.23 1.07537 -3.45135 0
M  V30 16481 O 1574.95 0.0352465 -4.38086 0
M  V30 16482 C 1576.45 1.80779 -4.04764 0
M  V30 16483 H 1573.67 0.126095 -0.659046 0
M  V30 16484 H 1576.21 -0.262982 -2.02802 0
M  V30 16485 H 1574.37 1.77877 -3.44149 0
M  V30 16486 H 1574.78 0.466426 -5.22422 0
M  V30 16487 H 1576.26 2.17014 -5.07552 0
M  V30 16488 H 1576.73 2.6999 -3.46413 0
M  V30 16489 H 1577.34 1.15098 -4.09429 0
M  V30 16490 N 1575.65 1.57214 0.110213 0
M  V30 16491 C 1576.88 1.8923 0.829187 0
M  V30 16492 C 1577.29 0.753834 1.73534 0
M  V30 16493 O 1576.64 -0.283946 1.81492 0
M  V30 16494 C 1576.7 3.16351 1.7077 0
M  V30 16495 C 1576.36 4.46479 0.974949 0
M  V30 16496 C 1577.36 5.18965 0.311696 0
M  V30 16497 C 1575.04 4.93167 0.953516 0
M  V30 16498 C 1577.04 6.36364 -0.363191 0
M  V30 16499 C 1574.72 6.10482 0.274836 0
M  V30 16500 C 1575.72 6.81929 -0.382355 0
M  V30 16501 O 1575.41 7.97011 -1.05019 0
M  V30 16502 H 1575.14 0.630744 0.243184 0
M  V30 16503 H 1577.7 2.05173 0.09648 0
M  V30 16504 H 1575.93 2.96513 2.48227 0
M  V30 16505 H 1577.62 3.34317 2.30189 0
M  V30 16506 H 1578.38 4.83944 0.319815 0
M  V30 16507 H 1574.26 4.37454 1.45448 0
M  V30 16508 H 1577.8 6.92069 -0.876728 0
M  V30 16509 H 1573.7 6.44958 0.26451 0
M  V30 16510 H 1574.47 8.12903 -0.95555 0
M  V30 16511 N 1577.13 -0.380637 1.52934 0
M  V30 16512 C 1578.38 -1.1265 1.68635 0
M  V30 16513 C 1578.71 -1.89397 0.429227 0
M  V30 16514 O 1577.99 -1.85863 -0.573182 0
M  V30 16515 C 1578.27 -2.09797 2.92673 0
M  V30 16516 C 1578.12 -1.36758 4.28506 0
M  V30 16517 C 1579.44 -3.10117 3.12274 0
M  V30 16518 H 1576.56 -0.408158 0.613658 0
M  V30 16519 H 1579.2 -0.408947 1.85547 0
M  V30 16520 H 1577.35 -2.70987 2.78385 0
M  V30 16521 H 1579.02 -0.784679 4.54577 0
M  V30 16522 H 1577.27 -0.669413 4.28604 0
M  V30 16523 H 1577.94 -2.07786 5.11399 0
M  V30 16524 H 1580.41 -2.59022 3.25648 0
M  V30 16525 H 1579.29 -3.75328 4.00525 0
M  V30 16526 H 1579.55 -3.79451 2.26868 0
M  V30 16527 N 1578.61 -1.44039 -0.639573 0
M  V30 16528 C 1580.02 -1.41236 -1.22104 0
M  V30 16529 C 1580.37 -0.123367 -1.95812 0
M  V30 16530 O 1579.5 0.776641 -2.01983 0
M  V30 16531 C 1580.09 -2.55853 -2.22092 0
M  V30 16532 C 1578.65 -2.56271 -2.75685 0
M  V30 16533 C 1577.8 -2.32877 -1.50544 0
M  V30 16534 H 1580.75 -1.52742 -0.430756 0
M  V30 16535 H 1580.77 -2.28123 -3.04533 0
M  V30 16536 H 1580.28 -3.49653 -1.68417 0
M  V30 16537 H 1578.38 -1.66389 -3.33385 0
M  V30 16538 H 1578.5 -3.54486 -3.22299 0
M  V30 16539 H 1576.86 -1.81807 -1.78377 0
M  V30 16540 H 1577.64 -3.2878 -0.987845 0
M  V30 16541 N 1580.09 0.879207 -1.30796 0
M  V30 16542 C 1581.05 1.96707 -1.17639 0
M  V30 16543 C 1582.05 1.6045 -0.106013 0
M  V30 16544 O 1583.24 1.70553 -0.354573 0
M  V30 16545 C 1580.37 3.31292 -0.803625 0
M  V30 16546 H 1581.57 2.09806 -2.14293 0
M  V30 16547 H 1579.12 1.06634 -1.14276 0
M  V30 16548 H 1579.85 3.23894 0.162159 0
M  V30 16549 H 1579.64 3.58979 -1.57723 0
M  V30 16550 H 1581.13 4.11077 -0.735201 0
M  V30 16551 N 1581.57 1.13606 1.09231 0
M  V30 16552 C 1582.5 0.77306 2.15769 0
M  V30 16553 C 1583.51 -0.206148 1.6149 0
M  V30 16554 O 1584.7 0.014338 1.78494 0
M  V30 16555 C 1581.8 0.125475 3.38668 0
M  V30 16556 C 1580.97 1.13728 4.22356 0
M  V30 16557 C 1580.03 0.515021 5.23674 0
M  V30 16558 O 1579.06 1.1756 5.56928 0
M  V30 16559 N 1580.26 -0.712028 5.76117 0
M  V30 16560 H 1583.03 1.68984 2.47517 0
M  V30 16561 H 1580.59 1.02935 1.24964 0
M  V30 16562 H 1582.58 -0.303109 4.03563 0
M  V30 16563 H 1581.15 -0.694284 3.04792 0
M  V30 16564 H 1580.37 1.74309 3.53568 0
M  V30 16565 H 1581.66 1.82106 4.75094 0
M  V30 16566 H 1581.06 -1.26745 5.51319 0
M  V30 16567 H 1579.61 -1.08324 6.42736 0
M  V30 16568 N 1583.05 -1.27244 0.929878 0
M  V30 16569 C 1583.96 -2.30506 0.436355 0
M  V30 16570 C 1584.97 -1.67131 -0.484054 0
M  V30 16571 O 1586.15 -1.9804 -0.366332 0
M  V30 16572 C 1583.21 -3.45391 -0.300942 0
M  V30 16573 C 1582.27 -4.24279 0.654647 0
M  V30 16574 C 1581.51 -5.33679 -0.047558 0
M  V30 16575 O 1581.73 -5.56161 -1.26654 0
M  V30 16576 O 1580.66 -5.98642 0.62538 0
M  V30 16577 H 1584.49 -2.74762 1.29382 0
M  V30 16578 H 1582.07 -1.32234 0.695311 0
M  V30 16579 H 1583.96 -4.1526 -0.716718 0
M  V30 16580 H 1582.63 -3.03187 -1.13398 0
M  V30 16581 H 1581.54 -3.56936 1.12015 0
M  V30 16582 H 1582.87 -4.70204 1.45497 0
M  V30 16583 N 1584.52 -0.695628 -1.41417 0
M  V30 16584 C 1585.47 -0.0303383 -2.3078 0
M  V30 16585 C 1586.44 0.771218 -1.4711 0
M  V30 16586 O 1587.63 0.739239 -1.75897 0
M  V30 16587 C 1584.77 0.900034 -3.33157 0
M  V30 16588 C 1583.88 0.0900862 -4.31906 0
M  V30 16589 C 1583.01 1.01811 -5.21352 0
M  V30 16590 C 1582.05 0.201068 -6.1177 0
M  V30 16591 N 1581.19 1.0829 -6.93699 0
M  V30 16592 H 1586.03 -0.798148 -2.87113 0
M  V30 16593 H 1583.57 -0.405311 -1.41406 0
M  V30 16594 H 1585.52 1.45349 -3.91062 0
M  V30 16595 H 1584.15 1.63424 -2.78375 0
M  V30 16596 H 1583.21 -0.58029 -3.75948 0
M  V30 16597 H 1584.52 -0.543336 -4.95832 0
M  V30 16598 H 1583.67 1.64079 -5.84092 0
M  V30 16599 H 1582.41 1.68538 -4.57653 0
M  V30 16600 H 1581.42 -0.434686 -5.48079 0
M  V30 16601 H 1582.64 -0.462416 -6.77524 0
M  V30 16602 H 1580.59 1.73619 -6.32608 0
M  V30 16603 H 1580.5 0.505046 -7.54311 0
M  V30 16604 H 1581.77 1.69239 -7.60906 0
M  V30 16605 N 1586 1.51322 -0.440383 0
M  V30 16606 C 1586.95 2.2941 0.383883 0
M  V30 16607 C 1587.94 1.35388 1.01816 0
M  V30 16608 O 1589.15 1.52716 0.952775 0
M  V30 16609 H 1585.52 0.738354 0.142611 0
M  V30 16610 H 1587.5 2.96933 -0.295532 0
M  V30 16611 C 1586.24 3.15055 1.47091 0
M  V30 16612 H 1585.57 3.87292 0.992214 0
M  V30 16613 H 1587.01 3.72744 2.02084 0
M  V30 16614 C 1585.47 2.30628 2.45586 0
M  V30 16615 O 1586 1.96801 3.50189 0
M  V30 16616 N 1584.2 1.93792 2.16548 0
M  V30 16617 H 1583.75 2.215 1.31512 0
M  V30 16618 H 1583.71 1.37601 2.82689 0
M  V30 16619 N 1587.48 0.171848 1.5666 0
M  V30 16620 C 1588.73 -0.472968 1.96899 0
M  V30 16621 C 1589.05 -1.63217 1.05785 0
M  V30 16622 O 1588.31 -1.95483 0.0920511 0
M  V30 16623 C 1588.61 -0.99711 3.43209 0
M  V30 16624 C 1588.27 0.0462519 4.50876 0
M  V30 16625 C 1586.94 0.333002 4.80046 0
M  V30 16626 C 1589.29 0.754424 5.15711 0
M  V30 16627 C 1586.62 1.3333 5.71349 0
M  V30 16628 C 1588.97 1.74371 6.08093 0
M  V30 16629 C 1587.63 2.03791 6.3563 0
M  V30 16630 H 1586.9 -0.173071 0.720505 0
M  V30 16631 H 1589.55 0.263921 1.89673 0
M  V30 16632 H 1587.85 -1.81183 3.4739 0
M  V30 16633 H 1589.55 -1.50503 3.71685 0
M  V30 16634 H 1586.14 -0.187419 4.2819 0
M  V30 16635 H 1590.33 0.546102 4.93286 0
M  V30 16636 H 1585.58 1.56741 5.90967 0
M  V30 16637 H 1589.76 2.29782 6.57399 0
M  V30 16638 H 1587.38 2.8145 7.0618 0
M  V30 16639 N 1588.96 -1.5727 -0.101874 0
M  V30 16640 C 1590.19 -1.89943 -0.820329 0
M  V30 16641 C 1590.6 -0.764867 -1.72613 0
M  V30 16642 O 1589.96 0.263499 -1.80588 0
M  V30 16643 C 1590.01 -3.2219 -1.63939 0
M  V30 16644 O 1589.73 -4.31279 -0.770039 0
M  V30 16645 C 1591.23 -3.6868 -2.46151 0
M  V30 16646 H 1588.45 -0.628532 -0.234922 0
M  V30 16647 H 1590.99 -2.04339 -0.0811362 0
M  V30 16648 H 1589.15 -3.09411 -2.33117 0
M  V30 16649 H 1589.56 -5.07182 -1.33665 0
M  V30 16650 H 1591.04 -4.63928 -2.99124 0
M  V30 16651 H 1591.51 -2.96183 -3.24303 0
M  V30 16652 H 1592.12 -3.84303 -1.82185 0
M  V30 16653 N 1590.44 0.372521 -1.53134 0
M  V30 16654 C 1591.66 1.13668 -1.72879 0
M  V30 16655 C 1592.08 1.83246 -0.454588 0
M  V30 16656 O 1591.44 1.73302 0.572062 0
M  V30 16657 C 1591.49 2.17226 -2.88955 0
M  V30 16658 O 1591.21 1.50483 -4.11445 0
M  V30 16659 C 1592.71 3.06243 -3.20516 0
M  V30 16660 H 1589.93 0.340156 -0.57839 0
M  V30 16661 H 1592.47 0.433557 -1.99851 0
M  V30 16662 H 1590.63 2.83148 -2.64397 0
M  V30 16663 H 1591.04 2.19425 -4.76396 0
M  V30 16664 H 1592.52 3.74901 -4.05158 0
M  V30 16665 H 1592.99 3.70669 -2.35587 0
M  V30 16666 H 1593.6 2.45946 -3.46973 0
M  V30 16667 N 1591.91 1.44376 0.631925 0
M  V30 16668 C 1592.88 1.50825 1.72582 0
M  V30 16669 C 1593.88 0.390379 1.55989 0
M  V30 16670 O 1595.07 0.65297 1.61499 0
M  V30 16671 C 1592.2 1.38141 3.11657 0
M  V30 16672 H 1593.39 2.48265 1.68239 0
M  V30 16673 H 1590.94 1.31456 0.845514 0
M  V30 16674 H 1591.68 0.417905 3.21596 0
M  V30 16675 H 1591.46 2.19198 3.25107 0
M  V30 16676 H 1592.95 1.45633 3.91383 0
M  V30 16677 N 1593.39 -0.872258 1.31261 0
M  V30 16678 C 1594.8 -1.44077 1.18738 0
M  V30 16679 C 1595.15 -1.95105 -0.207037 0
M  V30 16680 O 1594.28 -1.86083 -1.10464 0
M  V30 16681 C 1594.87 -2.61884 2.14947 0
M  V30 16682 C 1593.43 -3.14787 2.06364 0
M  V30 16683 C 1592.58 -1.87495 2.04306 0
M  V30 16684 H 1595.53 -0.681011 1.43345 0
M  V30 16685 H 1595.55 -3.38501 1.73773 0
M  V30 16686 H 1595.06 -2.24715 3.16425 0
M  V30 16687 H 1593.16 -3.56582 1.08073 0
M  V30 16688 H 1593.28 -3.77225 2.95361 0
M  V30 16689 H 1591.64 -2.06361 1.49288 0
M  V30 16690 H 1592.42 -1.52566 3.07536 0
M  V30 16691 N 1594.87 -1.14184 -1.08627 0
M  V30 16692 C 1595.83 -0.82954 -2.13662 0
M  V30 16693 C 1596.83 0.164794 -1.59953 0
M  V30 16694 O 1598.02 -0.0632831 -1.74085 0
M  V30 16695 C 1595.15 -0.236176 -3.40081 0
M  V30 16696 H 1596.35 -1.76038 -2.42797 0
M  V30 16697 H 1593.9 -0.947568 -1.24301 0
M  V30 16698 H 1594.64 0.70349 -3.16578 0
M  V30 16699 H 1594.42 -0.952341 -3.80359 0
M  V30 16700 H 1595.91 -0.03481 -4.17585 0
M  V30 16701 N 1596.35 1.26749 -0.936613 0
M  V30 16702 C 1597.6 1.93255 -0.577524 0
M  V30 16703 C 1597.91 1.74337 0.886905 0
M  V30 16704 O 1599.12 2.3526 1.35517 0
M  V30 16705 C 1597.57 3.4624 -0.982119 0
M  V30 16706 C 1597.18 3.739 -2.46784 0
M  V30 16707 C 1598.92 4.18777 -0.694706 0
M  V30 16708 C 1596.83 5.20303 -2.81138 0
M  V30 16709 H 1595.76 0.723502 -0.212276 0
M  V30 16710 H 1598.41 1.43901 -1.13863 0
M  V30 16711 H 1596.79 3.94454 -0.349577 0
M  V30 16712 H 1597.97 3.3641 -3.14905 0
M  V30 16713 H 1596.28 3.14587 -2.72808 0
M  V30 16714 H 1598.88 5.2659 -0.927756 0
M  V30 16715 H 1599.22 4.14667 0.368392 0
M  V30 16716 H 1599.76 3.76414 -1.28676 0
M  V30 16717 H 1596.5 5.29511 -3.86392 0
M  V30 16718 H 1596.02 5.58907 -2.17675 0
M  V30 16719 H 1597.69 5.88265 -2.69358 0
M  V30 16720 N 1597.83 0.703118 1.41046 0
M  V30 16721 C 1599.07 0.241543 2.02968 0
M  V30 16722 C 1599.43 -1.13975 1.54511 0
M  V30 16723 O 1600.63 -1.69761 2.0841 0
M  V30 16724 C 1598.9 0.305021 3.56096 0
M  V30 16725 S 1600.46 -0.0813994 4.38724 0
M  V30 16726 H 1597.28 0.0967141 0.704391 0
M  V30 16727 H 1599.88 0.922571 1.72363 0
M  V30 16728 H 1598.59 1.31219 3.88857 0
M  V30 16729 H 1598.12 -0.394903 3.91413 0
M  V30 16730 H 1600.13 -1.30702 4.78677 0
M  V30 16731 N 1599.3 -1.51086 0.448402 0
M  V30 16732 C 1600.25 -2.24885 -0.375609 0
M  V30 16733 C 1601.24 -1.27553 -0.980769 0
M  V30 16734 O 1602.43 -1.52583 -0.897076 0
M  V30 16735 C 1599.56 -3.10235 -1.47 0
M  V30 16736 C 1598.65 -4.15003 -0.873686 0
M  V30 16737 N 1599.04 -5.05799 -0.00756268 0
M  V30 16738 C 1597.33 -4.31182 -1.14009 0
M  V30 16739 C 1598.04 -5.80772 0.328514 0
M  V30 16740 N 1597.01 -5.42822 -0.290661 0
M  V30 16741 H 1600.81 -2.92446 0.291962 0
M  V30 16742 H 1598.33 -1.60287 0.261145 0
M  V30 16743 H 1600.32 -3.61691 -2.07328 0
M  V30 16744 H 1598.98 -2.44219 -2.13979 0
M  V30 16745 H 1600 -5.1665 0.359676 0
M  V30 16746 H 1596.67 -3.7639 -1.80656 0
M  V30 16747 H 1598.06 -6.63896 1.03399 0
M  V30 16748 N 1600.78 -0.180154 -1.56567 0
M  V30 16749 C 1602.06 0.509347 -1.88852 0
M  V30 16750 C 1602.44 1.80697 -1.09141 0
M  V30 16751 O 1601.79 2.27726 -0.187974 0
M  V30 16752 C 1602 0.742669 -3.41006 0
M  V30 16753 C 1603.35 1.06873 -4.1093 0
M  V30 16754 O 1604.37 0.830907 -3.46373 0
M  V30 16755 O 1603.23 1.51784 -5.24999 0
M  V30 16756 H 1600.32 0.263629 -0.783855 0
M  V30 16757 H 1602.87 -0.219251 -1.68278 0
M  V30 16758 H 1601.64 -0.17431 -3.90912 0
M  V30 16759 H 1601.26 1.52427 -3.67222 0
M  V30 16760 N 1602.26 1.57322 0.0935319 0
M  V30 16761 C 1603.51 1.858 0.795165 0
M  V30 16762 C 1603.83 0.769078 1.79193 0
M  V30 16763 O 1603.1 -0.204511 1.9483 0
M  V30 16764 H 1601.68 0.68557 0.296653 0
M  V30 16765 H 1604.34 1.94756 0.0747892 0
M  V30 16766 H 1603.44 2.82588 1.32479 0
M  V30 16767 N 1603.74 -0.364395 1.53329 0
M  V30 16768 C 1604.69 -1.44645 1.79851 0
M  V30 16769 C 1605.66 -1.53151 0.642951 0
M  V30 16770 O 1606.84 -1.6902 0.885252 0
M  V30 16771 C 1603.98 -2.81575 1.99523 0
M  V30 16772 C 1603.09 -2.82026 3.27239 0
M  V30 16773 C 1602.23 -4.1054 3.37091 0
M  V30 16774 C 1601.27 -4.05138 4.58835 0
M  V30 16775 N 1600.4 -5.25303 4.65834 0
M  V30 16776 H 1605.24 -1.21329 2.72182 0
M  V30 16777 H 1602.78 -0.588143 1.34831 0
M  V30 16778 H 1604.74 -3.61124 2.08915 0
M  V30 16779 H 1603.37 -3.03288 1.10527 0
M  V30 16780 H 1602.42 -1.94704 3.26794 0
M  V30 16781 H 1603.73 -2.73907 4.16865 0
M  V30 16782 H 1602.89 -4.98504 3.45801 0
M  V30 16783 H 1601.63 -4.21413 2.45483 0
M  V30 16784 H 1600.63 -3.1556 4.50224 0
M  V30 16785 H 1601.86 -3.95866 5.51785 0
M  V30 16786 H 1599.8 -5.36759 3.77128 0
M  V30 16787 H 1599.72 -5.19358 5.49367 0
M  V30 16788 H 1600.99 -6.15096 4.78829 0
M  V30 16789 N 1605.22 -1.44709 -0.62426 0
M  V30 16790 C 1606.18 -1.51738 -1.7178 0
M  V30 16791 C 1607.18 -0.398646 -1.5578 0
M  V30 16792 O 1608.37 -0.661525 -1.61151 0
M  V30 16793 C 1605.5 -1.39792 -3.1092 0
M  V30 16794 H 1606.69 -2.49154 -1.6692 0
M  V30 16795 H 1604.25 -1.31903 -0.838531 0
M  V30 16796 H 1604.98 -0.434955 -3.2137 0
M  V30 16797 H 1604.77 -2.20919 -3.2394 0
M  V30 16798 H 1606.26 -1.47706 -3.90606 0
M  V30 16799 N 1606.69 0.865285 -1.31722 0
M  V30 16800 C 1607.64 1.96073 -1.16358 0
M  V30 16801 C 1608.63 1.60733 -0.0733173 0
M  V30 16802 O 1609.82 1.74461 -0.298725 0
M  V30 16803 C 1606.95 3.31886 -0.877855 0
M  V30 16804 C 1606.04 3.7348 -2.00932 0
M  V30 16805 N 1606.43 3.86993 -3.25684 0
M  V30 16806 C 1604.72 4.03027 -1.91011 0
M  V30 16807 C 1605.43 4.22605 -3.99725 0
M  V30 16808 N 1604.4 4.33545 -3.27932 0
M  V30 16809 H 1608.2 2.04639 -2.1095 0
M  V30 16810 H 1605.72 1.05638 -1.23347 0
M  V30 16811 H 1607.71 4.10121 -0.748764 0
M  V30 16812 H 1606.37 3.24645 0.0597974 0
M  V30 16813 H 1607.39 3.71596 -3.60745 0
M  V30 16814 H 1604.06 4.04148 -1.0474 0
M  V30 16815 H 1605.45 4.40618 -5.07253 0
M  V30 16816 N 1608.17 1.14759 1.0802 0
M  V30 16817 C 1609.42 0.918248 1.80484 0
M  V30 16818 C 1609.75 -0.554986 1.86414 0
M  V30 16819 O 1609 -1.42732 1.33888 0
M  V30 16820 C 1609.3 1.4692 3.25805 0
M  V30 16821 C 1608.97 2.96176 3.39987 0
M  V30 16822 C 1607.63 3.36923 3.43564 0
M  V30 16823 C 1609.98 3.92131 3.43341 0
M  V30 16824 C 1607.31 4.72281 3.48092 0
M  V30 16825 C 1609.66 5.27351 3.49404 0
M  V30 16826 C 1608.33 5.67605 3.51256 0
M  V30 16827 H 1607.6 0.336011 0.660437 0
M  V30 16828 H 1610.24 1.43191 1.27156 0
M  V30 16829 H 1608.55 0.876571 3.81868 0
M  V30 16830 H 1610.24 1.26765 3.80436 0
M  V30 16831 H 1606.83 2.63675 3.37896 0
M  V30 16832 H 1611.02 3.61728 3.39804 0
M  V30 16833 H 1606.27 5.02823 3.4782 0
M  V30 16834 H 1610.45 6.01507 3.50946 0
M  V30 16835 H 1608.08 6.72474 3.54517 0
M  V30 16836 N 1609.65 -1.26251 0.943322 0
M  V30 16837 C 1611.06 -1.75591 0.634391 0
M  V30 16838 C 1611.41 -1.76812 -0.850406 0
M  V30 16839 O 1610.54 -1.38162 -1.66554 0
M  V30 16840 C 1611.13 -3.18871 1.14484 0
M  V30 16841 C 1609.69 -3.65817 0.886285 0
M  V30 16842 C 1608.84 -2.4523 1.2945 0
M  V30 16843 H 1611.79 -1.12297 1.12139 0
M  V30 16844 H 1611.81 -3.77205 0.499654 0
M  V30 16845 H 1611.32 -3.17951 2.22551 0
M  V30 16846 H 1609.42 -3.72165 -0.179913 0
M  V30 16847 H 1609.54 -4.54523 1.5148 0
M  V30 16848 H 1607.9 -2.44519 0.712919 0
M  V30 16849 H 1608.68 -2.47009 2.38415 0
M  V30 16850 N 1611.13 -0.710588 -1.40671 0
M  V30 16851 C 1612.55 -0.383638 -1.54921 0
M  V30 16852 C 1612.75 1.10805 -1.68299 0
M  V30 16853 O 1611.8 1.89406 -1.66978 0
M  V30 16854 C 1613.11 -1.14532 -2.78034 0
M  V30 16855 C 1614.66 -1.13113 -2.91847 0
M  V30 16856 C 1615.14 -1.87487 -4.17867 0
M  V30 16857 N 1616.63 -1.8453 -4.24856 0
M  V30 16858 C 1617.36 -2.38904 -5.2126 0
M  V30 16859 N 1616.86 -3.01813 -6.23603 0
M  V30 16860 N 1618.65 -2.29075 -5.13304 0
M  V30 16861 H 1610.8 -1.67789 -1.30233 0
M  V30 16862 H 1613.07 -0.70892 -0.629393 0
M  V30 16863 H 1612.77 -2.19983 -2.74409 0
M  V30 16864 H 1612.65 -0.733669 -3.69996 0
M  V30 16865 H 1615.03 -0.0848347 -2.94978 0
M  V30 16866 H 1615.11 -1.58196 -2.01017 0
M  V30 16867 H 1614.76 -2.92104 -4.15497 0
M  V30 16868 H 1614.69 -1.39827 -5.07697 0
M  V30 16869 H 1617.18 -1.38679 -3.51535 0
M  V30 16870 H 1617.49 -3.40832 -6.9358 0
M  V30 16871 H 1615.84 -3.05896 -6.24062 0
M  V30 16872 H 1619.03 -1.79589 -4.32279 0
M  V30 16873 H 1619.2 -2.71752 -5.88264 0
M  V30 16874 N 1612.61 1.50847 -0.456408 0
M  V30 16875 C 1613.52 2.31959 0.351027 0
M  V30 16876 C 1614.53 1.41697 1.00986 0
M  V30 16877 O 1615.71 1.7476 1.00105 0
M  V30 16878 C 1612.77 3.15973 1.42696 0
M  V30 16879 C 1611.84 4.22038 0.786272 0
M  V30 16880 C 1611.07 5.02036 1.81094 0
M  V30 16881 O 1611.29 4.82913 3.03564 0
M  V30 16882 O 1610.23 5.85609 1.3909 0
M  V30 16883 H 1614.05 3.02096 -0.311678 0
M  V30 16884 H 1611.64 1.47793 -0.218544 0
M  V30 16885 H 1613.52 3.68146 2.05053 0
M  V30 16886 H 1612.19 2.48579 2.0734 0
M  V30 16887 H 1611.1 3.73894 0.124148 0
M  V30 16888 H 1612.43 4.9186 0.183016 0
M  V30 16889 N 1614.09 0.188454 1.56469 0
M  V30 16890 C 1615.33 -0.451165 1.97 0
M  V30 16891 C 1615.65 -1.6261 1.07624 0
M  V30 16892 O 1614.92 -1.95354 0.146125 0
M  V30 16893 H 1613.5 -0.16967 0.727476 0
M  V30 16894 H 1616.17 0.273638 1.9297 0
M  V30 16895 H 1615.26 -0.799741 3.0168 0
M  V30 16896 N 1615.56 -1.5737 -0.0851874 0
M  V30 16897 C 1616.81 -1.86864 -0.78802 0
M  V30 16898 C 1617.14 -0.778936 -1.77894 0
M  V30 16899 O 1616.42 0.212132 -1.9334 0
M  V30 16900 C 1616.7 -3.27006 -1.50795 0
M  V30 16901 C 1616.55 -4.46615 -0.534354 0
M  V30 16902 C 1617.87 -3.65187 -2.45614 0
M  V30 16903 H 1614.99 -0.679657 -0.285017 0
M  V30 16904 H 1617.63 -1.8993 -0.0514443 0
M  V30 16905 H 1615.78 -3.24522 -2.13583 0
M  V30 16906 H 1617.46 -4.61217 0.0872761 0
M  V30 16907 H 1615.7 -4.33536 0.151455 0
M  V30 16908 H 1616.37 -5.41423 -1.07544 0
M  V30 16909 H 1618.85 -3.68678 -1.92913 0
M  V30 16910 H 1617.72 -4.64158 -2.92999 0
M  V30 16911 H 1617.98 -2.944 -3.2982 0
M  V30 16912 N 1617.04 0.356258 -1.53521 0
M  V30 16913 C 1618.29 1.0979 -1.70154 0
M  V30 16914 C 1618.62 1.89028 -0.458124 0
M  V30 16915 O 1617.87 1.87516 0.560033 0
M  V30 16916 C 1618.17 2.07669 -2.90875 0
M  V30 16917 C 1617.84 1.4484 -4.27004 0
M  V30 16918 C 1616.5 1.27434 -4.64019 0
M  V30 16919 C 1618.85 0.994684 -5.1162 0
M  V30 16920 C 1616.18 0.632539 -5.8328 0
M  V30 16921 C 1618.53 0.366847 -6.31535 0
M  V30 16922 C 1617.19 0.180356 -6.67256 0
M  V30 16923 H 1616.46 0.401751 -0.622637 0
M  V30 16924 H 1619.11 0.378618 -1.8772 0
M  V30 16925 H 1617.42 2.85934 -2.6786 0
M  V30 16926 H 1619.11 2.65023 -3.00939 0
M  V30 16927 H 1615.7 1.59384 -3.97863 0
M  V30 16928 H 1619.89 1.11706 -4.83565 0
M  V30 16929 H 1615.14 0.476548 -6.0954 0
M  V30 16930 H 1619.32 0.00712378 -6.964 0
M  V30 16931 H 1616.94 -0.319016 -7.5953 0
M  V30 16932 N 1618.52 1.45038 0.616577 0
M  V30 16933 C 1619.77 1.48805 1.37786 0
M  V30 16934 C 1620.1 0.125811 1.93792 0
M  V30 16935 O 1619.37 -0.858544 1.74526 0
M  V30 16936 C 1619.66 2.56008 2.53242 0
M  V30 16937 C 1619.51 4.01643 2.02491 0
M  V30 16938 C 1620.83 2.59578 3.55398 0
M  V30 16939 H 1617.95 0.541776 0.499647 0
M  V30 16940 H 1620.59 1.76799 0.695859 0
M  V30 16941 H 1618.74 2.32269 3.11422 0
M  V30 16942 H 1620.41 4.36564 1.4903 0
M  V30 16943 H 1618.65 4.12728 1.33559 0
M  V30 16944 H 1619.33 4.72326 2.85679 0
M  V30 16945 H 1621.8 2.80826 3.07044 0
M  V30 16946 H 1620.68 3.36466 4.33684 0
M  V30 16947 H 1620.94 1.64325 4.10426 0
M  V30 16948 N 1620 -0.858287 1.32179 0
M  V30 16949 C 1621.22 -1.64997 1.25662 0
M  V30 16950 C 1621.65 -1.87303 -0.173021 0
M  V30 16951 O 1621.01 -1.42319 -1.12317 0
M  V30 16952 C 1621.05 -2.98855 2.01787 0
M  V30 16953 O 1620.16 -3.89218 1.36319 0
M  V30 16954 H 1619.5 -0.503169 0.433264 0
M  V30 16955 H 1622.03 -1.06926 1.74436 0
M  V30 16956 H 1622.04 -3.48704 2.11824 0
M  V30 16957 H 1620.71 -2.81941 3.05748 0
M  V30 16958 H 1619.29 -3.4768 1.34807 0
M  V30 16959 N 1621.48 -1.1533 -1.07409 0
M  V30 16960 C 1622.42 -0.845328 -2.16696 0
M  V30 16961 C 1623.42 0.181009 -1.6843 0
M  V30 16962 O 1624.62 0.0361013 -1.79964 0
M  V30 16963 H 1621 -0.255698 -0.707193 0
M  V30 16964 H 1622.97 -1.7747 -2.39889 0
M  V30 16965 C 1621.72 -0.350381 -3.4593 0
M  V30 16966 H 1621.04 -1.13152 -3.83454 0
M  V30 16967 H 1622.48 -0.173547 -4.23645 0
M  V30 16968 C 1620.94 0.927991 -3.23867 0
M  V30 16969 O 1621.47 1.99965 -3.48392 0
M  V30 16970 N 1619.68 0.867266 -2.77357 0
M  V30 16971 H 1619.22 -0.00500352 -2.576 0
M  V30 16972 H 1619.18 1.72314 -2.62974 0
M  V30 16973 N 1622.95 1.25748 -0.950004 0
M  V30 16974 C 1624.2 1.92954 -0.601104 0
M  V30 16975 C 1624.52 1.74817 0.863953 0
M  V30 16976 O 1623.79 1.10904 1.61484 0
M  V30 16977 H 1622.37 0.714077 -0.219325 0
M  V30 16978 H 1625.03 1.53009 -1.20724 0
M  V30 16979 H 1624.13 3.00959 -0.826447 0
M  V30 16980 N 1624.43 0.718038 1.40292 0
M  V30 16981 C 1625.66 0.268326 2.05153 0
M  V30 16982 C 1626.07 -1.09075 1.54104 0
M  V30 16983 O 1625.43 -1.68597 0.698654 0
M  V30 16984 C 1625.48 0.242222 3.60688 0
M  V30 16985 O 1625.2 1.54764 4.09853 0
M  V30 16986 C 1626.7 -0.225741 4.42725 0
M  V30 16987 H 1623.92 0.120165 0.660153 0
M  V30 16988 H 1626.47 0.976933 1.79656 0
M  V30 16989 H 1624.62 -0.417367 3.85145 0
M  V30 16990 H 1625.04 1.44976 5.04066 0
M  V30 16991 H 1626.51 -0.192857 5.51663 0
M  V30 16992 H 1626.99 -1.26829 4.20489 0
M  V30 16993 H 1627.59 0.40366 4.2338 0
M  V30 16994 N 1625.91 -1.50602 0.464402 0
M  V30 16995 C 1626.86 -2.25271 -0.351736 0
M  V30 16996 C 1627.84 -1.28586 -0.967185 0
M  V30 16997 O 1629.04 -1.53526 -0.880843 0
M  V30 16998 C 1626.17 -3.11777 -1.43701 0
M  V30 16999 C 1625.25 -4.15906 -0.82962 0
M  V30 17000 N 1625.64 -5.05779 0.0460845 0
M  V30 17001 C 1623.94 -4.32367 -1.0943 0
M  V30 17002 C 1624.64 -5.80391 0.390094 0
M  V30 17003 N 1623.62 -5.431 -0.233071 0
M  V30 17004 H 1627.42 -2.9212 0.322964 0
M  V30 17005 H 1624.93 -1.60001 0.278131 0
M  V30 17006 H 1626.93 -3.6387 -2.03481 0
M  V30 17007 H 1625.59 -2.46475 -2.11377 0
M  V30 17008 H 1626.6 -5.16239 0.414453 0
M  V30 17009 H 1623.28 -3.78285 -1.76654 0
M  V30 17010 H 1624.67 -6.62762 1.10435 0
M  V30 17011 N 1627.39 -0.19675 -1.56367 0
M  V30 17012 C 1628.63 0.435602 -1.98681 0
M  V30 17013 C 1628.99 1.59124 -1.08155 0
M  V30 17014 O 1628.28 1.91183 -0.126295 0
M  V30 17015 C 1628.48 0.942382 -3.44752 0
M  V30 17016 C 1628.31 -0.162611 -4.49406 0
M  V30 17017 C 1627.08 -0.620794 -5.01472 0
M  V30 17018 C 1629.27 -0.972148 -5.05028 0
M  V30 17019 N 1627.26 -1.70344 -5.89793 0
M  V30 17020 C 1628.63 -1.90416 -5.90035 0
M  V30 17021 C 1630.68 -1.01438 -4.87457 0
M  V30 17022 C 1629.38 -2.8749 -6.5935 0
M  V30 17023 C 1631.41 -1.97318 -5.57512 0
M  V30 17024 C 1630.77 -2.89262 -6.42267 0
M  V30 17025 H 1626.87 0.126773 -0.771656 0
M  V30 17026 H 1629.46 -0.302824 -1.92331 0
M  V30 17027 H 1627.63 1.65024 -3.51598 0
M  V30 17028 H 1629.36 1.54548 -3.74028 0
M  V30 17029 H 1626.11 -0.213841 -4.73117 0
M  V30 17030 H 1626.54 -2.24601 -6.38658 0
M  V30 17031 H 1631.18 -0.31751 -4.21606 0
M  V30 17032 H 1628.9 -3.58152 -7.24398 0
M  V30 17033 H 1632.48 -2.01228 -5.45892 0
M  V30 17034 H 1631.36 -3.62244 -6.95521 0
M  V30 17035 N 1628.87 1.57413 0.0768405 0
M  V30 17036 C 1630.11 1.87002 0.776948 0
M  V30 17037 C 1630.44 0.787799 1.77831 0
M  V30 17038 O 1629.7 -0.216742 1.94496 0
M  V30 17039 C 1630 3.2324 1.52482 0
M  V30 17040 C 1629.66 4.45986 0.663899 0
M  V30 17041 C 1628.32 4.79305 0.426629 0
M  V30 17042 C 1630.68 5.21157 0.0665867 0
M  V30 17043 C 1628 5.85213 -0.417518 0
M  V30 17044 C 1630.36 6.27958 -0.764986 0
M  V30 17045 C 1629.02 6.59781 -1.01218 0
M  V30 17046 H 1628.29 0.684289 0.284306 0
M  V30 17047 H 1630.94 1.91463 0.0378686 0
M  V30 17048 H 1629.24 3.14547 2.33596 0
M  V30 17049 H 1630.94 3.43368 2.07123 0
M  V30 17050 H 1627.53 4.19905 0.858956 0
M  V30 17051 H 1631.71 4.95734 0.237022 0
M  V30 17052 H 1626.97 6.0827 -0.617827 0
M  V30 17053 H 1631.14 6.85369 -1.23459 0
M  V30 17054 H 1628.77 7.41674 -1.66806 0
M  V30 17055 N 1630.34 -0.348112 1.53707 0
M  V30 17056 C 1631.59 -1.09048 1.70987 0
M  V30 17057 C 1631.92 -1.88444 0.469305 0
M  V30 17058 O 1631.2 -1.87037 -0.533629 0
M  V30 17059 C 1631.48 -2.03542 2.97057 0
M  V30 17060 C 1631.33 -1.27638 4.3131 0
M  V30 17061 C 1632.65 -3.03424 3.18782 0
M  V30 17062 H 1629.77 -0.395049 0.622178 0
M  V30 17063 H 1632.41 -0.369498 1.86373 0
M  V30 17064 H 1630.56 -2.65021 2.8407 0
M  V30 17065 H 1632.24 -0.688079 4.56139 0
M  V30 17066 H 1630.48 -0.578349 4.29927 0
M  V30 17067 H 1631.15 -1.96891 5.15692 0
M  V30 17068 H 1633.63 -2.52056 3.31069 0
M  V30 17069 H 1632.5 -3.66748 4.08396 0
M  V30 17070 H 1632.76 -3.74553 2.34866 0
M  V30 17071 N 1631.82 -1.45363 -0.608876 0
M  V30 17072 C 1633.05 -1.52836 -1.39459 0
M  V30 17073 C 1633.47 -0.160537 -1.88116 0
M  V30 17074 O 1632.82 0.837671 -1.6214 0
M  V30 17075 C 1632.87 -2.51168 -2.59994 0
M  V30 17076 O 1632.59 -3.82635 -2.13359 0
M  V30 17077 C 1634.1 -2.68326 -3.52868 0
M  V30 17078 H 1631.32 -0.51765 -0.426942 0
M  V30 17079 H 1633.86 -1.90538 -0.742674 0
M  V30 17080 H 1632.01 -2.16542 -3.2123 0
M  V30 17081 H 1632.43 -4.35927 -2.91665 0
M  V30 17082 H 1633.9 -3.41109 -4.33992 0
M  V30 17083 H 1634.38 -1.74317 -4.03126 0
M  V30 17084 H 1634.99 -3.03943 -2.97487 0
M  V30 17085 N 1633.3 0.851265 -1.32632 0
M  V30 17086 C 1634.23 1.96682 -1.17681 0
M  V30 17087 C 1635.25 1.62422 -0.110926 0
M  V30 17088 O 1636.43 1.74828 -0.360202 0
M  V30 17089 C 1633.53 3.29806 -0.779838 0
M  V30 17090 C 1632.71 3.92284 -1.93473 0
M  V30 17091 C 1631.77 5.03745 -1.52075 0
M  V30 17092 O 1630.79 5.23558 -2.23328 0
M  V30 17093 N 1631.99 5.78988 -0.418695 0
M  V30 17094 H 1634.76 2.10049 -2.13775 0
M  V30 17095 H 1632.32 1.02631 -1.25214 0
M  V30 17096 H 1634.31 4.0178 -0.485236 0
M  V30 17097 H 1632.88 3.1247 0.0900498 0
M  V30 17098 H 1632.1 3.13054 -2.39564 0
M  V30 17099 H 1633.39 4.30762 -2.7078 0
M  V30 17100 H 1632.79 5.65432 0.174269 0
M  V30 17101 H 1631.35 6.51541 -0.183714 0
M  V30 17102 N 1634.78 1.15898 1.06796 0
M  V30 17103 C 1636.19 0.902809 1.31611 0
M  V30 17104 C 1636.39 -0.447112 1.96477 0
M  V30 17105 O 1635.45 -1.18778 2.22818 0
M  V30 17106 C 1636.76 2.04803 2.20173 0
M  V30 17107 C 1638.31 2.08321 2.33605 0
M  V30 17108 C 1638.79 3.22182 3.25519 0
M  V30 17109 N 1640.28 3.21866 3.33101 0
M  V30 17110 C 1641.01 4.06608 4.04299 0
M  V30 17111 N 1640.51 5.01426 4.78063 0
M  V30 17112 N 1642.3 3.94612 4.00297 0
M  V30 17113 H 1634.45 2.02816 0.630831 0
M  V30 17114 H 1636.72 0.884683 0.340646 0
M  V30 17115 H 1636.42 3.02278 1.7978 0
M  V30 17116 H 1636.3 1.98521 3.20732 0
M  V30 17117 H 1638.68 1.11441 2.73249 0
M  V30 17118 H 1638.76 2.18668 1.32732 0
M  V30 17119 H 1638.41 4.19317 2.86594 0
M  V30 17120 H 1638.34 3.0907 4.2636 0
M  V30 17121 H 1640.83 2.53203 2.80529 0
M  V30 17122 H 1641.14 5.62517 5.29901 0
M  V30 17123 H 1639.49 5.0541 4.7706 0
M  V30 17124 H 1642.68 3.19843 3.41786 0
M  V30 17125 H 1642.85 4.60877 4.55518 0
M  V30 17126 N 1636.26 -1.25243 0.956659 0
M  V30 17127 C 1637.2 -2.2781 0.46963 0
M  V30 17128 C 1638.2 -1.63003 -0.461138 0
M  V30 17129 O 1639.4 -1.76805 -0.337644 0
M  V30 17130 H 1635.78 -0.740078 0.133374 0
M  V30 17131 H 1637.75 -2.66273 1.34689 0
M  V30 17132 C 1636.5 -3.46904 -0.235206 0
M  V30 17133 H 1635.82 -3.97006 0.471869 0
M  V30 17134 H 1637.26 -4.20548 -0.539969 0
M  V30 17135 C 1635.72 -3.03697 -1.45841 0
M  V30 17136 O 1636.25 -3.09887 -2.55603 0
M  V30 17137 N 1634.46 -2.58866 -1.32049 0
M  V30 17138 H 1634 -2.54029 -0.427428 0
M  V30 17139 H 1633.96 -2.30322 -2.14008 0
M  V30 17140 N 1637.73 -0.725468 -1.3991 0
M  V30 17141 C 1638.98 -0.269251 -2.00702 0
M  V30 17142 C 1639.31 1.1406 -1.57545 0
M  V30 17143 O 1638.56 1.78997 -0.79111 0
M  V30 17144 C 1638.86 -0.308261 -3.56068 0
M  V30 17145 C 1638.53 -1.66979 -4.18842 0
M  V30 17146 C 1637.19 -2.04247 -4.35702 0
M  V30 17147 C 1639.54 -2.56418 -4.53761 0
M  V30 17148 C 1636.87 -3.3048 -4.84768 0
M  V30 17149 C 1639.22 -3.82014 -5.0423 0
M  V30 17150 C 1637.89 -4.19386 -5.19299 0
M  V30 17151 H 1637.16 -0.0985258 -0.734421 0
M  V30 17152 H 1639.8 -0.930441 -1.67377 0
M  V30 17153 H 1638.11 0.436504 -3.89361 0
M  V30 17154 H 1639.81 0.0627207 -4.00951 0
M  V30 17155 H 1636.4 -1.37001 -4.06114 0
M  V30 17156 H 1640.58 -2.28898 -4.40363 0
M  V30 17157 H 1635.84 -3.59392 -4.94619 0
M  V30 17158 H 1640.01 -4.51481 -5.30225 0
M  V30 17159 H 1637.64 -5.17268 -5.5708 0
M  V30 17160 N 1639.21 1.50354 -0.472382 0
M  V30 17161 C 1640.44 2.06446 0.0796976 0
M  V30 17162 C 1640.85 1.33626 1.33943 0
M  V30 17163 O 1640.19 0.399473 1.79304 0
M  V30 17164 C 1640.26 3.56889 0.432455 0
M  V30 17165 C 1639.92 4.51205 -0.725443 0
M  V30 17166 C 1640.92 4.94413 -1.60784 0
M  V30 17167 C 1638.6 4.93875 -0.916135 0
M  V30 17168 C 1640.6 5.78998 -2.66533 0
M  V30 17169 C 1638.28 5.78242 -1.97684 0
M  V30 17170 C 1639.28 6.20706 -2.8498 0
M  V30 17171 O 1638.97 7.03391 -3.89224 0
M  V30 17172 H 1638.7 0.675986 -0.00433625 0
M  V30 17173 H 1641.25 1.94489 -0.660558 0
M  V30 17174 H 1639.48 3.66754 1.22591 0
M  V30 17175 H 1641.17 3.95342 0.919769 0
M  V30 17176 H 1641.94 4.62116 -1.47221 0
M  V30 17177 H 1637.82 4.60343 -0.246124 0
M  V30 17178 H 1641.36 6.12063 -3.34701 0
M  V30 17179 H 1637.26 6.09953 -2.11254 0
M  V30 17180 H 1638.03 7.21644 -3.86229 0
M  V30 17181 N 1640.69 0.205039 1.56261 0
M  V30 17182 C 1641.6 -0.723548 2.23164 0
M  V30 17183 C 1642.62 -1.22683 1.23389 0
M  V30 17184 O 1643.79 -1.27191 1.56155 0
M  V30 17185 C 1640.86 -1.92178 2.88563 0
M  V30 17186 C 1639.92 -1.46209 4.03635 0
M  V30 17187 C 1639.15 -2.60321 4.65906 0
M  V30 17188 O 1639.38 -3.78051 4.27122 0
M  V30 17189 O 1638.31 -2.32465 5.55197 0
M  V30 17190 H 1642.14 -0.183715 3.03144 0
M  V30 17191 H 1639.72 -0.0246933 1.4938 0
M  V30 17192 H 1641.6 -2.62188 3.29902 0
M  V30 17193 H 1640.28 -2.45003 2.11555 0
M  V30 17194 H 1639.18 -0.730492 3.66899 0
M  V30 17195 H 1640.52 -0.980402 4.82337 0
M  V30 17196 N 1642.17 -1.57451 -0.0684915 0
M  V30 17197 C 1643.58 -1.76107 -0.619932 0
M  V30 17198 C 1643.93 -0.830939 -1.77735 0
M  V30 17199 O 1643.06 -0.0158481 -2.16394 0
M  V30 17200 C 1643.65 -3.19352 -1.13136 0
M  V30 17201 C 1642.21 -3.39341 -1.62864 0
M  V30 17202 C 1641.36 -2.71801 -0.549477 0
M  V30 17203 H 1644.31 -1.57915 0.157689 0
M  V30 17204 H 1644.33 -3.23693 -2.00008 0
M  V30 17205 H 1643.84 -3.87024 -0.288762 0
M  V30 17206 H 1641.94 -2.76787 -2.49438 0
M  V30 17207 H 1642.06 -4.47799 -1.70331 0
M  V30 17208 H 1640.42 -2.34448 -0.995302 0
M  V30 17209 H 1641.2 -3.42132 0.282995 0
M  V30 17210 N 1643.65 0.339955 -1.5389 0
M  V30 17211 C 1644.58 1.43837 -1.78448 0
M  V30 17212 C 1645.59 1.48559 -0.665885 0
M  V30 17213 O 1646.78 1.51577 -0.942686 0
M  V30 17214 C 1643.88 2.82474 -1.87248 0
M  V30 17215 C 1643.05 3.01149 -3.17219 0
M  V30 17216 C 1642.11 4.20049 -3.16931 0
M  V30 17217 O 1641.14 4.13994 -3.90638 0
M  V30 17218 N 1642.34 5.28767 -2.39553 0
M  V30 17219 H 1645.11 1.2314 -2.73234 0
M  V30 17220 H 1642.67 0.529855 -1.52984 0
M  V30 17221 H 1644.66 3.60196 -1.84502 0
M  V30 17222 H 1643.23 2.96297 -0.996322 0
M  V30 17223 H 1642.45 2.10867 -3.3306 0
M  V30 17224 H 1643.74 3.10511 -4.03063 0
M  V30 17225 H 1643.14 5.36557 -1.79228 0
M  V30 17226 H 1641.69 6.04969 -2.42601 0
M  V30 17227 N 1645.13 1.45684 0.601159 0
M  V30 17228 C 1646.37 1.49308 1.3561 0
M  V30 17229 C 1646.69 0.141561 1.95087 0
M  V30 17230 O 1647.89 0.0554805 2.71443 0
M  V30 17231 C 1646.35 2.63001 2.4568 0
M  V30 17232 C 1645.96 4.04493 1.92586 0
M  V30 17233 C 1647.7 2.75877 3.22633 0
M  V30 17234 C 1645.61 5.09557 3.00176 0
M  V30 17235 H 1644.54 0.555604 0.509726 0
M  V30 17236 H 1647.19 1.71843 0.643606 0
M  V30 17237 H 1645.57 2.33761 3.19643 0
M  V30 17238 H 1646.75 4.4344 1.25289 0
M  V30 17239 H 1645.06 3.96123 1.28358 0
M  V30 17240 H 1647.66 3.51541 4.02893 0
M  V30 17241 H 1648 1.82737 3.74049 0
M  V30 17242 H 1648.53 3.04674 2.5577 0
M  V30 17243 H 1645.27 6.04427 2.53669 0
M  V30 17244 H 1644.79 4.75173 3.6602 0
M  V30 17245 H 1646.47 5.34591 3.64447 0
M  V30 17246 N 1646.6 -0.84422 1.33082 0
M  V30 17247 C 1647.85 -1.59404 1.23585 0
M  V30 17248 C 1648.17 -1.94593 -0.198208 0
M  V30 17249 O 1649.37 -2.68307 -0.415138 0
M  V30 17250 C 1647.83 -2.87489 2.16513 0
M  V30 17251 C 1647.44 -2.59685 3.65059 0
M  V30 17252 C 1649.18 -3.6551 2.15877 0
M  V30 17253 C 1647.09 -3.83834 4.49917 0
M  V30 17254 H 1646.02 -0.598191 0.459003 0
M  V30 17255 H 1648.67 -0.931299 1.58111 0
M  V30 17256 H 1647.05 -3.55276 1.74913 0
M  V30 17257 H 1648.22 -2.00143 4.15065 0
M  V30 17258 H 1646.54 -1.94977 3.6793 0
M  V30 17259 H 1649.14 -4.57654 2.76509 0
M  V30 17260 H 1649.48 -4.00031 1.15244 0
M  V30 17261 H 1650.01 -3.0464 2.55811 0
M  V30 17262 H 1646.75 -3.54448 5.51404 0
M  V30 17263 H 1646.27 -4.42734 4.04656 0
M  V30 17264 H 1647.95 -4.51468 4.63449 0
M  V30 17265 N 1648.08 -1.16463 -1.0618 0
M  V30 17266 C 1649.31 -0.971075 -1.82696 0
M  V30 17267 C 1649.72 0.480716 -1.82578 0
M  V30 17268 O 1649.08 1.33366 -1.24579 0
M  V30 17269 C 1649.13 -1.49235 -3.29259 0
M  V30 17270 O 1648.85 -2.88728 -3.29496 0
M  V30 17271 C 1650.35 -1.34197 -4.225 0
M  V30 17272 H 1647.57 -0.34415 -0.576023 0
M  V30 17273 H 1650.12 -1.54517 -1.33958 0
M  V30 17274 H 1648.27 -0.960503 -3.75304 0
M  V30 17275 H 1648.69 -3.12618 -4.21153 0
M  V30 17276 H 1650.16 -1.75499 -5.23358 0
M  V30 17277 H 1650.64 -0.287685 -4.38257 0
M  V30 17278 H 1651.24 -1.86349 -3.82301 0
M  V30 17279 N 1649.56 1.24734 -0.963288 0
M  V30 17280 C 1650.79 1.96745 -0.640234 0
M  V30 17281 C 1651.2 1.71503 0.789445 0
M  V30 17282 O 1650.56 0.996174 1.52914 0
M  V30 17283 C 1650.61 3.50118 -0.899987 0
M  V30 17284 O 1650.33 3.74494 -2.27346 0
M  V30 17285 C 1651.83 4.39349 -0.590511 0
M  V30 17286 H 1649.05 0.626892 -0.239266 0
M  V30 17287 H 1651.6 1.58678 -1.29002 0
M  V30 17288 H 1649.75 3.86264 -0.296478 0
M  V30 17289 H 1650.17 4.68902 -2.35013 0
M  V30 17290 H 1651.64 5.45834 -0.822744 0
M  V30 17291 H 1652.12 4.36622 0.475138 0
M  V30 17292 H 1652.72 4.08783 -1.17373 0
M  V30 17293 N 1651.04 0.732878 1.39523 0
M  V30 17294 C 1652.31 0.20629 1.94509 0
M  V30 17295 C 1652.69 -1.29152 1.66982 0
M  V30 17296 O 1652.04 -2.05607 0.996895 0
M  V30 17297 C 1652.25 0.537619 3.44834 0
M  V30 17298 C 1653.6 0.485787 4.21812 0
M  V30 17299 O 1654.62 0.474686 3.53023 0
M  V30 17300 O 1653.48 0.478457 5.44402 0
M  V30 17301 H 1650.58 0.0369228 0.826175 0
M  V30 17302 H 1653.12 0.811591 1.49035 0
M  V30 17303 H 1651.9 1.57289 3.58296 0
M  V30 17304 H 1651.52 -0.0967601 3.97482 0
M  V30 17305 N 1652.52 -1.50101 0.480349 0
M  V30 17306 C 1653.46 -2.30347 -0.322924 0
M  V30 17307 C 1654.46 -1.3804 -0.981904 0
M  V30 17308 O 1655.66 -1.55188 -0.91195 0
M  V30 17309 H 1652.04 -0.741875 -0.122985 0
M  V30 17310 H 1654.01 -2.96045 0.374155 0
M  V30 17311 C 1652.76 -3.18844 -1.38686 0
M  V30 17312 H 1652.08 -3.89787 -0.889181 0
M  V30 17313 H 1653.52 -3.77971 -1.9213 0
M  V30 17314 C 1651.98 -2.37058 -2.39385 0
M  V30 17315 O 1652.51 -2.06016 -3.44848 0
M  V30 17316 N 1650.72 -1.99465 -2.11334 0
M  V30 17317 H 1650.26 -2.24909 -1.25593 0
M  V30 17318 H 1650.22 -1.45048 -2.78942 0
M  V30 17319 N 1653.99 -0.213323 -1.5615 0
M  V30 17320 C 1655.22 0.425688 -2.02473 0
M  V30 17321 C 1655.64 1.53926 -1.09326 0
M  V30 17322 O 1654.99 1.82218 -0.101364 0
M  V30 17323 C 1655.04 0.965021 -3.48381 0
M  V30 17324 O 1654.77 -0.104145 -4.37976 0
M  V30 17325 C 1656.27 1.6781 -4.10311 0
M  V30 17326 H 1653.49 0.105064 -0.662724 0
M  V30 17327 H 1656.03 -0.327369 -2.01863 0
M  V30 17328 H 1654.19 1.66838 -3.49634 0
M  V30 17329 H 1654.6 0.299985 -5.23641 0
M  V30 17330 H 1656.07 2.00757 -5.14199 0
M  V30 17331 H 1656.55 2.58833 -3.54827 0
M  V30 17332 H 1657.16 1.02014 -4.12884 0
M  V30 17333 N 1655.47 1.57485 0.0601405 0
M  V30 17334 C 1656.72 1.87816 0.75707 0
M  V30 17335 C 1657.05 0.806616 1.76986 0
M  V30 17336 O 1656.3 -0.196101 1.94715 0
M  V30 17337 C 1656.6 3.24839 1.49045 0
M  V30 17338 C 1656.27 4.46665 0.616559 0
M  V30 17339 C 1654.93 4.79731 0.375769 0
M  V30 17340 C 1657.28 5.21199 0.0113073 0
M  V30 17341 C 1654.61 5.84737 -0.479564 0
M  V30 17342 C 1656.96 6.27111 -0.831546 0
M  V30 17343 C 1655.63 6.58671 -1.0821 0
M  V30 17344 H 1654.9 0.687266 0.277032 0
M  V30 17345 H 1657.54 1.91492 0.0175593 0
M  V30 17346 H 1655.85 3.17007 2.30247 0
M  V30 17347 H 1657.54 3.45545 2.03469 0
M  V30 17348 H 1654.13 4.20792 0.814371 0
M  V30 17349 H 1658.32 4.95957 0.18443 0
M  V30 17350 H 1653.57 6.07581 -0.682308 0
M  V30 17351 H 1657.75 6.84021 -1.30721 0
M  V30 17352 H 1655.38 7.39863 -1.74663 0
M  V30 17353 N 1656.95 -0.331789 1.54068 0
M  V30 17354 C 1658.2 -1.07228 1.72134 0
M  V30 17355 C 1658.53 -1.87936 0.489265 0
M  V30 17356 O 1657.8 -1.87592 -0.513761 0
M  V30 17357 C 1658.09 -2.00379 2.99199 0
M  V30 17358 C 1657.94 -1.23056 4.3264 0
M  V30 17359 C 1659.26 -3.00026 3.21982 0
M  V30 17360 H 1656.38 -0.388428 0.626333 0
M  V30 17361 H 1659.02 -0.34971 1.86754 0
M  V30 17362 H 1657.17 -2.61993 2.86865 0
M  V30 17363 H 1658.84 -0.639661 4.56844 0
M  V30 17364 H 1657.09 -0.532717 4.30517 0
M  V30 17365 H 1657.76 -1.91411 5.17751 0
M  V30 17366 H 1660.23 -2.48531 3.33724 0
M  V30 17367 H 1659.11 -3.62395 4.12263 0
M  V30 17368 H 1659.37 -3.72041 2.38826 0
M  V30 17369 N 1658.43 -1.46001 -0.593424 0
M  V30 17370 C 1659.65 -1.54541 -1.38318 0
M  V30 17371 C 1660.08 -0.183555 -1.87202 0
M  V30 17372 O 1659.44 0.834407 -1.60958 0
M  V30 17373 C 1659.48 -2.54559 -2.55405 0
M  V30 17374 O 1658.59 -2.07321 -3.56499 0
M  V30 17375 H 1657.93 -0.520434 -0.412364 0
M  V30 17376 H 1660.46 -1.9148 -0.720862 0
M  V30 17377 H 1660.47 -2.73823 -3.02465 0
M  V30 17378 H 1659.14 -3.53461 -2.19176 0
M  V30 17379 H 1657.72 -1.97997 -3.15993 0
M  V30 17380 N 1659.91 0.83715 -1.33527 0
M  V30 17381 C 1661.15 1.58937 -1.24834 0
M  V30 17382 C 1661.48 1.94117 0.185368 0
M  V30 17383 O 1660.75 1.61105 1.11453 0
M  V30 17384 H 1659.33 0.589301 -0.459057 0
M  V30 17385 H 1661.99 1.00038 -1.67267 0
M  V30 17386 H 1661.08 2.51855 -1.84325 0
M  V30 17387 N 1661.38 1.17024 1.05561 0
M  V30 17388 C 1662.33 0.879696 2.15323 0
M  V30 17389 C 1663.33 -0.154191 1.68697 0
M  V30 17390 O 1664.53 -0.00746608 1.79998 0
M  V30 17391 H 1660.91 0.266916 0.703036 0
M  V30 17392 H 1662.88 1.81264 2.37035 0
M  V30 17393 C 1661.63 0.405371 3.45329 0
M  V30 17394 H 1660.95 1.19238 3.81605 0
M  V30 17395 H 1662.39 0.240923 4.23315 0
M  V30 17396 C 1660.85 -0.876349 3.25303 0
M  V30 17397 O 1661.38 -1.94397 3.51529 0
M  V30 17398 N 1659.59 -0.823031 2.78702 0
M  V30 17399 H 1659.13 0.0459847 2.57559 0
M  V30 17400 H 1659.09 -1.68108 2.65682 0
M  V30 17401 N 1662.86 -1.24221 0.969889 0
M  V30 17402 C 1664.1 -1.94094 0.640856 0
M  V30 17403 C 1664.47 -1.74112 -0.809267 0
M  V30 17404 O 1665.67 -2.38039 -1.24863 0
M  V30 17405 C 1663.94 -3.42892 1.00797 0
M  V30 17406 S 1665.5 -4.3156 0.79382 0
M  V30 17407 H 1662.32 -0.671028 0.235036 0
M  V30 17408 H 1664.92 -1.50541 1.24731 0
M  V30 17409 H 1663.62 -3.54942 2.0602 0
M  V30 17410 H 1663.15 -3.91438 0.392386 0
M  V30 17411 H 1665.17 -4.95117 -0.327707 0
M  V30 17412 N 1664.34 -0.740267 -1.39132 0
M  V30 17413 C 1665.62 -0.216602 -1.94397 0
M  V30 17414 C 1666 1.28264 -1.67665 0
M  V30 17415 O 1665.35 2.05075 -1.00778 0
M  V30 17416 C 1665.56 -0.555899 -3.44544 0
M  V30 17417 C 1666.9 -0.50815 -4.21548 0
M  V30 17418 O 1667.93 -0.493401 -3.52766 0
M  V30 17419 O 1666.79 -0.507321 -5.4414 0
M  V30 17420 H 1663.88 -0.0413037 -0.825968 0
M  V30 17421 H 1666.43 -0.819483 -1.48602 0
M  V30 17422 H 1665.2 -1.59187 -3.57457 0
M  V30 17423 H 1664.82 0.0756793 -3.97528 0
M  V30 17424 N 1665.82 1.49844 -0.488302 0
M  V30 17425 C 1667.06 2.02709 0.060788 0
M  V30 17426 C 1667.4 1.36828 1.37811 0
M  V30 17427 O 1666.67 0.499679 1.87972 0
M  V30 17428 C 1666.96 3.59386 0.226637 0
M  V30 17429 C 1666.81 4.35814 -1.11292 0
M  V30 17430 C 1668.13 4.29204 0.973218 0
M  V30 17431 H 1665.25 0.736712 0.0206177 0
M  V30 17432 H 1667.89 1.78995 -0.637245 0
M  V30 17433 H 1666.04 3.79722 0.821182 0
M  V30 17434 H 1667.71 4.27007 -1.74536 0
M  V30 17435 H 1665.95 3.98874 -1.70535 0
M  V30 17436 H 1666.62 5.43758 -0.950319 0
M  V30 17437 H 1669.1 4.13447 0.469106 0
M  V30 17438 H 1667.98 5.38605 1.05809 0
M  V30 17439 H 1668.24 3.93564 2.01394 0
M  V30 17440 N 1667.3 0.221601 1.56034 0
M  V30 17441 C 1668.54 -0.410695 1.98598 0
M  V30 17442 C 1668.88 -1.59412 1.10912 0
M  V30 17443 O 1668.15 -1.93783 0.166819 0
M  V30 17444 C 1668.43 -0.845199 3.50041 0
M  V30 17445 C 1668.29 0.341866 4.48499 0
M  V30 17446 C 1669.61 -1.70135 4.05884 0
M  V30 17447 H 1666.72 -0.147808 0.722026 0
M  V30 17448 H 1669.37 0.317846 1.87323 0
M  V30 17449 H 1667.52 -1.46597 3.5978 0
M  V30 17450 H 1669.19 0.980014 4.5077 0
M  V30 17451 H 1667.43 0.989294 4.22369 0
M  V30 17452 H 1668.1 -0.00509234 5.52 0
M  V30 17453 H 1670.58 -1.17757 3.9909 0
M  V30 17454 H 1669.45 -1.97427 5.12166 0
M  V30 17455 H 1669.72 -2.66469 3.5277 0
M  V30 17456 N 1668.77 -1.57515 -0.0517878 0
M  V30 17457 C 1670.02 -1.87396 -0.746022 0
M  V30 17458 C 1670.34 -0.817053 -1.77718 0
M  V30 17459 O 1671.54 -1.00435 -2.5224 0
M  V30 17460 C 1670 -3.32481 -1.37783 0
M  V30 17461 C 1669.61 -4.46349 -0.384208 0
M  V30 17462 C 1671.35 -3.71539 -2.05327 0
M  V30 17463 C 1669.26 -5.82484 -1.02307 0
M  V30 17464 H 1668.19 -0.699127 -0.282379 0
M  V30 17465 H 1670.84 -1.835 0.000245524 0
M  V30 17466 H 1669.22 -3.31051 -2.17304 0
M  V30 17467 H 1670.39 -4.59209 0.382639 0
M  V30 17468 H 1668.71 -4.15976 0.187873 0
M  V30 17469 H 1671.31 -4.70553 -2.53936 0
M  V30 17470 H 1671.65 -3.02361 -2.86153 0
M  V30 17471 H 1672.18 -3.75046 -1.32611 0
M  V30 17472 H 1668.92 -6.55005 -0.254704 0
M  V30 17473 H 1668.44 -5.73388 -1.7603 0
M  V30 17474 H 1670.12 -6.28476 -1.5371 0
M  V30 17475 N 1670.25 0.323614 -1.54242 0
M  V30 17476 C 1671.5 1.05947 -1.72104 0
M  V30 17477 C 1671.82 1.88547 -0.497512 0
M  V30 17478 O 1671.09 1.89712 0.488485 0
M  V30 17479 H 1669.67 0.394141 -0.634557 0
M  V30 17480 H 1672.33 0.360063 -1.91545 0
M  V30 17481 H 1671.43 1.72552 -2.60062 0
M  V30 17482 N 1671.73 1.46313 0.585673 0
M  V30 17483 C 1672.98 1.50738 1.34019 0
M  V30 17484 C 1673.29 0.162245 1.94926 0
M  V30 17485 O 1674.5 0.0842676 2.71369 0
M  V30 17486 C 1672.96 2.65592 2.42876 0
M  V30 17487 C 1672.56 4.06513 1.88285 0
M  V30 17488 C 1674.31 2.79284 3.19689 0
M  V30 17489 C 1672.21 5.12712 2.94754 0
M  V30 17490 H 1671.14 0.560979 0.503804 0
M  V30 17491 H 1673.8 1.72516 0.625344 0
M  V30 17492 H 1672.18 2.37138 3.17146 0
M  V30 17493 H 1673.35 4.44744 1.20578 0
M  V30 17494 H 1671.67 3.97462 1.2415 0
M  V30 17495 H 1674.26 3.55795 3.99142 0
M  V30 17496 H 1674.61 1.86694 3.7209 0
M  V30 17497 H 1675.14 3.0737 2.52525 0
M  V30 17498 H 1671.88 6.07084 2.47244 0
M  V30 17499 H 1671.4 4.79028 3.6096 0
M  V30 17500 H 1673.08 5.38426 3.58757 0
M  V30 17501 N 1673.21 -0.830057 1.33969 0
M  V30 17502 C 1674.46 -1.58821 1.26111 0
M  V30 17503 C 1674.79 -1.9345 -0.170484 0
M  V30 17504 O 1674.06 -1.59433 -1.11407 0
M  V30 17505 C 1674.35 -2.89243 2.14501 0
M  V30 17506 C 1674.2 -2.61239 3.66162 0
M  V30 17507 C 1675.52 -3.90752 2.02487 0
M  V30 17508 H 1672.64 -0.576255 0.459455 0
M  V30 17509 H 1675.28 -0.956736 1.64154 0
M  V30 17510 H 1673.43 -3.43133 1.82186 0
M  V30 17511 H 1675.1 -2.13713 4.08809 0
M  V30 17512 H 1673.34 -1.94796 3.87604 0
M  V30 17513 H 1674.02 -3.54212 4.23365 0
M  V30 17514 H 1676.49 -3.46194 2.30844 0
M  V30 17515 H 1675.37 -4.79825 2.6657 0
M  V30 17516 H 1675.63 -4.30649 0.999704 0
M  V30 17517 N 1674.69 -1.17582 -1.04939 0
M  V30 17518 C 1675.64 -0.891102 -2.14854 0
M  V30 17519 C 1676.63 0.145242 -1.68776 0
M  V30 17520 O 1677.84 -0.00207978 -1.8 0
M  V30 17521 H 1674.21 -0.270641 -0.701611 0
M  V30 17522 H 1676.18 -1.82519 -2.36071 0
M  V30 17523 C 1674.93 -0.423679 -3.45109 0
M  V30 17524 H 1674.25 -1.2126 -3.80967 0
M  V30 17525 H 1675.69 -0.263369 -4.23181 0
M  V30 17526 C 1674.15 0.859085 -3.25763 0
M  V30 17527 O 1674.68 1.9253 -3.52555 0
M  V30 17528 N 1672.89 0.80824 -2.79134 0
M  V30 17529 H 1672.44 -0.0596431 -2.57531 0
M  V30 17530 H 1672.39 1.66697 -2.6657 0
M  V30 17531 N 1676.17 1.23705 -0.976463 0
M  V30 17532 C 1677.11 2.27034 -0.505813 0
M  V30 17533 C 1678.11 1.63716 0.435148 0
M  V30 17534 O 1679.31 1.7732 0.309474 0
M  V30 17535 H 1675.69 0.737862 -0.145131 0
M  V30 17536 H 1677.66 2.64097 -1.38908 0
M  V30 17537 C 1676.41 3.47234 0.179987 0
M  V30 17538 H 1675.73 3.96205 -0.534969 0
M  V30 17539 H 1677.17 4.21353 0.472996 0
M  V30 17540 C 1675.63 3.05979 1.40991 0
M  V30 17541 O 1676.16 3.13914 2.50641 0
M  V30 17542 N 1674.37 2.60934 1.27913 0
M  V30 17543 H 1673.91 2.54677 0.38696 0
M  V30 17544 H 1673.87 2.33697 2.10316 0
M  V30 17545 N 1677.64 0.747635 1.38738 0
M  V30 17546 C 1678.87 0.311781 2.04537 0
M  V30 17547 C 1679.29 -1.05782 1.56383 0
M  V30 17548 O 1678.64 -1.67077 0.734259 0
M  V30 17549 C 1678.69 0.318675 3.60093 0
M  V30 17550 O 1678.42 1.63423 4.06478 0
M  V30 17551 C 1679.92 -0.131782 4.43104 0
M  V30 17552 H 1677.14 0.134141 0.657455 0
M  V30 17553 H 1679.68 1.01482 1.77543 0
M  V30 17554 H 1677.84 -0.335578 3.85944 0
M  V30 17555 H 1678.25 1.55636 5.00877 0
M  V30 17556 H 1679.72 -0.0757978 5.51948 0
M  V30 17557 H 1680.2 -1.17881 4.23085 0
M  V30 17558 H 1680.81 0.493375 4.22429 0
M  V30 17559 N 1679.12 -1.49583 0.496242 0
M  V30 17560 C 1680.37 -2.02738 -0.050037 0
M  V30 17561 C 1680.7 -1.37556 -1.37083 0
M  V30 17562 O 1679.98 -0.50964 -1.87704 0
M  V30 17563 C 1680.26 -3.59501 -0.207575 0
M  V30 17564 C 1680.11 -4.35218 1.13601 0
M  V30 17565 C 1681.43 -4.29715 -0.950443 0
M  V30 17566 H 1678.55 -0.736811 -0.0167105 0
M  V30 17567 H 1681.19 -1.78654 0.646728 0
M  V30 17568 H 1679.34 -3.80152 -0.801033 0
M  V30 17569 H 1681.01 -4.26075 1.76798 0
M  V30 17570 H 1679.26 -3.97964 1.72648 0
M  V30 17571 H 1679.93 -5.43247 0.979142 0
M  V30 17572 H 1682.4 -4.1369 -0.447173 0
M  V30 17573 H 1681.28 -5.39159 -1.02951 0
M  V30 17574 H 1681.54 -3.94627 -1.99304 0
M  V30 17575 N 1680.6 -0.229873 -1.55915 0
M  V30 17576 C 1681.83 0.403603 -2.02619 0
M  V30 17577 C 1682.24 1.53304 -1.10881 0
M  V30 17578 O 1681.58 1.83356 -0.112312 0
M  V30 17579 C 1681.64 0.988727 -3.45636 0
M  V30 17580 C 1681.31 -0.00630999 -4.57 0
M  V30 17581 C 1682.3 -0.809714 -5.13556 0
M  V30 17582 C 1679.99 -0.127474 -5.02138 0
M  V30 17583 C 1681.98 -1.7209 -6.13729 0
M  V30 17584 C 1679.67 -1.04219 -6.02148 0
M  V30 17585 C 1680.67 -1.83744 -6.5782 0
M  V30 17586 O 1680.36 -2.73677 -7.55881 0
M  V30 17587 H 1680.09 0.102102 -0.668245 0
M  V30 17588 H 1682.64 -0.346247 -2.02461 0
M  V30 17589 H 1680.87 1.78782 -3.4289 0
M  V30 17590 H 1682.56 1.53048 -3.7594 0
M  V30 17591 H 1683.33 -0.726601 -4.79526 0
M  V30 17592 H 1679.21 0.481415 -4.58479 0
M  V30 17593 H 1682.75 -2.34206 -6.5711 0
M  V30 17594 H 1678.65 -1.12629 -6.35598 0
M  V30 17595 H 1679.41 -2.67846 -7.73435 0
M  V30 17596 N 1682.08 1.5754 0.0434337 0
M  V30 17597 C 1683.35 1.79733 0.771713 0
M  V30 17598 C 1683.73 0.82446 1.94334 0
M  V30 17599 O 1683.08 -0.136485 2.28092 0
M  V30 17600 C 1683.29 3.27049 1.2182 0
M  V30 17601 C 1684.64 3.91648 1.64002 0
M  V30 17602 O 1685.66 3.31111 1.31315 0
M  V30 17603 O 1684.52 4.98206 2.24618 0
M  V30 17604 H 1681.62 0.73861 0.372001 0
M  V30 17605 H 1684.16 1.69687 0.0213187 0
M  V30 17606 H 1682.94 3.89439 0.381158 0
M  V30 17607 H 1682.56 3.41929 2.02905 0
M  V30 17608 N 1683.56 -0.31543 1.54411 0
M  V30 17609 C 1684.97 -0.889358 1.64156 0
M  V30 17610 C 1685.32 -1.88598 0.54087 0
M  V30 17611 O 1684.44 -2.13947 -0.324904 0
M  V30 17612 C 1685.04 -1.61985 2.97567 0
M  V30 17613 C 1683.6 -2.14239 3.09481 0
M  V30 17614 C 1682.74 -0.970382 2.59767 0
M  V30 17615 H 1685.69 -0.092797 1.58428 0
M  V30 17616 H 1685.72 -2.48457 2.88183 0
M  V30 17617 H 1685.23 -0.89425 3.77657 0
M  V30 17618 H 1683.33 -2.8989 2.34082 0
M  V30 17619 H 1683.44 -2.38681 4.15413 0
M  V30 17620 H 1681.81 -1.35187 2.15863 0
M  V30 17621 H 1682.59 -0.258968 3.42322 0
M  V30 17622 N 1685.03 -1.46622 -0.577906 0
M  V30 17623 C 1685.96 -1.60413 -1.69676 0
M  V30 17624 C 1686.95 -0.454277 -1.63922 0
M  V30 17625 O 1688.13 -0.68111 -1.81864 0
M  V30 17626 C 1685.26 -1.59866 -3.08318 0
M  V30 17627 C 1684.21 -2.7387 -3.28906 0
M  V30 17628 C 1683.54 -2.58386 -4.68125 0
M  V30 17629 C 1684.84 -4.15652 -3.16276 0
M  V30 17630 H 1686.53 -2.54073 -1.5839 0
M  V30 17631 H 1684.08 -1.22275 -0.760572 0
M  V30 17632 H 1686.03 -1.68108 -3.86417 0
M  V30 17633 H 1684.76 -0.627541 -3.20514 0
M  V30 17634 H 1683.42 -2.65105 -2.53209 0
M  V30 17635 H 1683.06 -1.59347 -4.77093 0
M  V30 17636 H 1682.76 -3.34855 -4.82852 0
M  V30 17637 H 1684.29 -2.68525 -5.48385 0
M  V30 17638 H 1685.7 -4.25503 -3.84214 0
M  V30 17639 H 1684.1 -4.92746 -3.42523 0
M  V30 17640 H 1685.17 -4.35471 -2.13291 0
M  V30 17641 N 1686.51 0.822941 -1.34408 0
M  V30 17642 C 1687.44 1.94142 -1.21826 0
M  V30 17643 C 1688.46 1.6215 -0.145353 0
M  V30 17644 O 1689.65 1.74025 -0.397205 0
M  V30 17645 C 1686.75 3.28077 -0.849619 0
M  V30 17646 C 1685.92 3.88092 -2.0175 0
M  V30 17647 C 1684.98 5.00406 -1.62726 0
M  V30 17648 O 1684 5.18703 -2.34383 0
M  V30 17649 N 1685.21 5.7797 -0.541413 0
M  V30 17650 H 1687.97 2.05467 -2.18182 0
M  V30 17651 H 1685.53 0.999521 -1.27362 0
M  V30 17652 H 1687.52 4.00661 -0.57035 0
M  V30 17653 H 1686.09 3.12591 0.0237499 0
M  V30 17654 H 1685.31 3.07902 -2.46151 0
M  V30 17655 H 1686.6 4.24921 -2.79856 0
M  V30 17656 H 1686 5.65674 0.0542929 0
M  V30 17657 H 1684.56 6.51005 -0.321874 0
M  V30 17658 N 1687.99 1.18137 1.04314 0
M  V30 17659 C 1689.4 0.979768 1.58926 0
M  V30 17660 C 1689.75 -0.471214 1.90457 0
M  V30 17661 O 1688.88 -1.34812 1.69277 0
M  V30 17662 C 1689.47 1.77219 2.88754 0
M  V30 17663 C 1688.03 1.61501 3.39992 0
M  V30 17664 C 1687.18 1.76824 2.13609 0
M  V30 17665 H 1690.13 1.32717 0.870162 0
M  V30 17666 H 1690.15 1.2598 3.59039 0
M  V30 17667 H 1689.66 2.82818 2.65773 0
M  V30 17668 H 1687.76 0.58427 3.67991 0
M  V30 17669 H 1687.88 2.4115 4.13985 0
M  V30 17670 H 1686.24 1.19747 2.24795 0
M  V30 17671 H 1687.02 2.83853 1.93087 0
M  V30 17672 N 1689.47 -1.23186 0.98301 0
M  V30 17673 C 1690.38 -2.28448 0.533727 0
M  V30 17674 C 1691.39 -1.69034 -0.412732 0
M  V30 17675 O 1692.57 -1.99416 -0.282007 0
M  V30 17676 C 1689.64 -3.46357 -0.154179 0
M  V30 17677 C 1688.7 -4.21121 0.834009 0
M  V30 17678 C 1687.93 -5.334 0.178836 0
M  V30 17679 O 1688.15 -5.61032 -1.02952 0
M  V30 17680 O 1687.09 -5.95451 0.878722 0
M  V30 17681 H 1690.91 -2.69027 1.40919 0
M  V30 17682 H 1688.5 -1.29166 0.75077 0
M  V30 17683 H 1690.38 -4.17926 -0.539947 0
M  V30 17684 H 1689.05 -3.07724 -1.00437 0
M  V30 17685 H 1687.96 -3.51864 1.27053 0
M  V30 17686 H 1689.29 -4.6361 1.65309 0
M  V30 17687 N 1690.95 -0.754982 -1.38339 0
M  V30 17688 C 1691.88 -0.143678 -2.33058 0
M  V30 17689 C 1692.86 0.702022 -1.54938 0
M  V30 17690 O 1694.04 0.642922 -1.83249 0
M  V30 17691 C 1691.17 0.749194 -3.39123 0
M  V30 17692 C 1690.13 0.00611459 -4.28 0
M  V30 17693 C 1689.45 1.01733 -5.24933 0
M  V30 17694 C 1690.75 -1.1631 -5.09185 0
M  V30 17695 H 1692.45 -0.934907 -2.84429 0
M  V30 17696 H 1689.99 -0.451023 -1.36754 0
M  V30 17697 H 1691.95 1.18653 -4.04351 0
M  V30 17698 H 1690.67 1.57276 -2.86237 0
M  V30 17699 H 1689.33 -0.411816 -3.6428 0
M  V30 17700 H 1688.98 1.83499 -4.68334 0
M  V30 17701 H 1688.68 0.524783 -5.85252 0
M  V30 17702 H 1690.2 1.45395 -5.93037 0
M  V30 17703 H 1691.61 -0.803244 -5.67645 0
M  V30 17704 H 1690.01 -1.5866 -5.78746 0
M  V30 17705 H 1691.08 -1.97533 -4.42842 0
M  V30 17706 N 1692.42 1.49318 -0.504168 0
M  V30 17707 C 1693.7 1.95332 0.102393 0
M  V30 17708 C 1694.08 1.44576 1.53821 0
M  V30 17709 O 1693.43 0.660894 2.18734 0
M  V30 17710 C 1693.64 3.48998 0.0117694 0
M  V30 17711 C 1694.99 4.24201 0.184101 0
M  V30 17712 O 1696.01 3.56094 0.0868056 0
M  V30 17713 O 1694.87 5.45147 0.384267 0
M  V30 17714 H 1691.96 0.821691 0.0935582 0
M  V30 17715 H 1694.51 1.5995 -0.566932 0
M  V30 17716 H 1693.28 3.78585 -0.989413 0
M  V30 17717 H 1692.91 3.91006 0.7211 0
M  V30 17718 N 1693.9 0.238138 1.5579 0
M  V30 17719 C 1695.13 -0.396409 2.03576 0
M  V30 17720 C 1695.55 -1.5138 1.11649 0
M  V30 17721 O 1694.91 -1.80979 0.107774 0
M  V30 17722 C 1694.96 -0.889749 3.49451 0
M  V30 17723 O 1694.06 -1.99997 3.60659 0
M  V30 17724 H 1693.4 -0.0876017 0.658196 0
M  V30 17725 H 1695.93 0.361632 2.01379 0
M  V30 17726 H 1695.94 -1.19526 3.901 0
M  V30 17727 H 1694.62 -0.0720136 4.15838 0
M  V30 17728 H 1693.2 -1.69983 3.31904 0
M  V30 17729 N 1695.38 -1.57561 -0.0350783 0
M  V30 17730 C 1696.63 -1.88996 -0.727095 0
M  V30 17731 C 1696.96 -0.834671 -1.7568 0
M  V30 17732 O 1696.21 0.165098 -1.95002 0
M  V30 17733 C 1696.51 -3.27169 -1.43858 0
M  V30 17734 C 1696.18 -4.47589 -0.545421 0
M  V30 17735 C 1694.84 -4.80268 -0.2994 0
M  V30 17736 C 1697.19 -5.21151 0.0716124 0
M  V30 17737 C 1694.52 -5.839 0.57253 0
M  V30 17738 C 1696.87 -6.25709 0.931209 0
M  V30 17739 C 1695.53 -6.56866 1.18675 0
M  V30 17740 H 1694.8 -0.691586 -0.266063 0
M  V30 17741 H 1697.45 -1.91496 0.0129076 0
M  V30 17742 H 1695.76 -3.2063 -2.25175 0
M  V30 17743 H 1697.45 -3.48738 -1.97946 0
M  V30 17744 H 1694.04 -4.22034 -0.747323 0
M  V30 17745 H 1698.23 -4.96188 -0.105504 0
M  V30 17746 H 1693.48 -6.06418 0.778882 0
M  V30 17747 H 1697.66 -6.81855 1.41587 0
M  V30 17748 H 1695.28 -7.3699 1.86412 0
M  V30 17749 N 1696.86 0.307236 -1.54576 0
M  V30 17750 C 1697.81 1.3787 -1.85096 0
M  V30 17751 C 1698.78 1.5066 -0.69935 0
M  V30 17752 O 1699.96 1.65618 -0.947373 0
M  V30 17753 C 1697.1 2.73976 -2.09836 0
M  V30 17754 C 1696.21 2.69687 -3.3748 0
M  V30 17755 C 1695.35 3.97746 -3.52096 0
M  V30 17756 C 1694.39 3.87829 -4.73556 0
M  V30 17757 N 1693.52 5.07651 -4.8501 0
M  V30 17758 H 1698.36 1.11144 -2.76498 0
M  V30 17759 H 1695.9 0.537696 -1.36921 0
M  V30 17760 H 1697.86 3.53121 -2.22174 0
M  V30 17761 H 1696.49 2.98977 -1.21707 0
M  V30 17762 H 1695.54 1.82441 -3.33795 0
M  V30 17763 H 1696.85 2.58247 -4.26743 0
M  V30 17764 H 1696.01 4.85327 -3.64065 0
M  V30 17765 H 1694.75 4.12012 -2.60955 0
M  V30 17766 H 1693.75 2.98633 -4.61626 0
M  V30 17767 H 1694.98 3.75114 -5.66098 0
M  V30 17768 H 1692.92 5.22393 -3.9679 0
M  V30 17769 H 1692.84 4.9861 -5.68264 0
M  V30 17770 H 1694.11 5.969 -5.01328 0
M  V30 17771 N 1698.34 1.46926 0.570122 0
M  V30 17772 C 1699.25 1.6105 1.70587 0
M  V30 17773 C 1700.26 0.493636 1.66851 0
M  V30 17774 O 1701.44 0.759454 1.86532 0
M  V30 17775 C 1698.5 1.60913 3.07096 0
M  V30 17776 C 1697.56 2.83928 3.21999 0
M  V30 17777 C 1696.8 2.83788 4.51996 0
M  V30 17778 O 1697.02 1.93256 5.36664 0
M  V30 17779 O 1695.95 3.75491 4.70415 0
M  V30 17780 H 1699.78 2.57126 1.61616 0
M  V30 17781 H 1697.37 1.29863 0.738637 0
M  V30 17782 H 1699.25 1.63576 3.88356 0
M  V30 17783 H 1697.92 0.680005 3.16477 0
M  V30 17784 H 1696.83 2.86814 2.40185 0
M  V30 17785 H 1698.16 3.76091 3.17516 0
M  V30 17786 N 1699.82 -0.815801 1.34842 0
M  V30 17787 C 1700.73 -1.95886 1.29097 0
M  V30 17788 C 1701.74 -1.72876 0.197422 0
M  V30 17789 O 1702.92 -1.96861 0.425166 0
M  V30 17790 C 1699.98 -3.30311 1.05336 0
M  V30 17791 C 1699.04 -3.66279 2.23916 0
M  V30 17792 C 1698.28 -4.9429 2.01279 0
M  V30 17793 O 1698.5 -5.62012 0.974603 0
M  V30 17794 O 1697.43 -5.28302 2.88411 0
M  V30 17795 H 1701.26 -2.03678 2.25276 0
M  V30 17796 H 1698.84 -0.952243 1.1512 0
M  V30 17797 H 1700.73 -4.10806 0.938961 0
M  V30 17798 H 1699.4 -3.2347 0.122024 0
M  V30 17799 H 1698.31 -2.86198 2.40918 0
M  V30 17800 H 1699.64 -3.77814 3.15464 0
M  V30 17801 N 1701.29 -1.18689 -1.03686 0
M  V30 17802 C 1702.22 -0.94094 -2.13702 0
M  V30 17803 C 1703.2 0.12277 -1.69656 0
M  V30 17804 O 1704.39 -0.0306085 -1.94176 0
M  V30 17805 C 1701.52 -0.470054 -3.44104 0
M  V30 17806 C 1700.47 -1.47468 -4.01792 0
M  V30 17807 C 1699.8 -0.861174 -5.2772 0
M  V30 17808 C 1701.1 -2.85254 -4.37524 0
M  V30 17809 H 1702.79 -1.86102 -2.34534 0
M  V30 17810 H 1700.34 -0.896207 -1.12713 0
M  V30 17811 H 1702.29 -0.28533 -4.20433 0
M  V30 17812 H 1701.02 0.485604 -3.2297 0
M  V30 17813 H 1699.68 -1.64641 -3.2755 0
M  V30 17814 H 1699.32 0.10179 -5.02897 0
M  V30 17815 H 1699.02 -1.53196 -5.67278 0
M  V30 17816 H 1700.55 -0.687066 -6.06722 0
M  V30 17817 H 1701.96 -2.71711 -5.04823 0
M  V30 17818 H 1700.36 -3.49051 -4.88143 0
M  V30 17819 H 1701.43 -3.38516 -3.47181 0
M  V30 17820 N 1702.77 1.22662 -0.989529 0
M  V30 17821 C 1704.05 1.86816 -0.579566 0
M  V30 17822 C 1704.43 1.88858 0.943188 0
M  V30 17823 O 1703.78 1.37668 1.82372 0
M  V30 17824 C 1703.99 3.27863 -1.19612 0
M  V30 17825 C 1705.33 4.04384 -1.29454 0
M  V30 17826 O 1706.36 3.37116 -1.15026 0
M  V30 17827 O 1705.22 5.24789 -1.52508 0
M  V30 17828 H 1702.31 0.803332 -0.196434 0
M  V30 17829 H 1704.86 1.30467 -1.08519 0
M  V30 17830 H 1703.63 3.20993 -2.23784 0
M  V30 17831 H 1703.25 3.91813 -0.675875 0
M  V30 17832 N 1704.25 0.762308 1.37937 0
M  V30 17833 C 1705.2 0.140412 2.30372 0
M  V30 17834 C 1706.17 -0.700152 1.50622 0
M  V30 17835 O 1707.35 -0.654474 1.79224 0
M  V30 17836 C 1704.49 -0.740056 3.37071 0
M  V30 17837 C 1703.6 0.116084 4.31844 0
M  V30 17838 C 1702.74 -0.768203 5.25616 0
M  V30 17839 C 1701.78 0.0910442 6.12032 0
M  V30 17840 N 1700.92 -0.75069 6.98075 0
M  V30 17841 H 1705.76 0.934224 2.82977 0
M  V30 17842 H 1703.29 0.472316 1.39311 0
M  V30 17843 H 1705.25 -1.26525 3.97551 0
M  V30 17844 H 1703.88 -1.49956 2.85855 0
M  V30 17845 H 1702.93 0.758999 3.72751 0
M  V30 17846 H 1704.24 0.779285 4.92675 0
M  V30 17847 H 1703.4 -1.36024 5.91255 0
M  V30 17848 H 1702.14 -1.46511 4.65173 0
M  V30 17849 H 1701.14 0.695687 5.45381 0
M  V30 17850 H 1702.37 0.785145 6.74546 0
M  V30 17851 H 1700.31 -1.43239 6.40171 0
M  V30 17852 H 1700.23 -0.144579 7.55862 0
M  V30 17853 H 1701.5 -1.32742 7.68114 0
M  V30 17854 N 1705.73 -1.49049 0.51208 0
M  V30 17855 C 1706.96 -2.06585 -0.024934 0
M  V30 17856 C 1707.37 -1.3713 -1.30353 0
M  V30 17857 O 1706.71 -0.446872 -1.78182 0
M  V30 17858 C 1706.77 -3.57911 -0.33768 0
M  V30 17859 C 1706.43 -4.49123 0.844817 0
M  V30 17860 C 1707.43 -4.89977 1.73836 0
M  V30 17861 C 1705.12 -4.91272 1.04675 0
M  V30 17862 C 1707.11 -5.71728 2.8179 0
M  V30 17863 C 1704.8 -5.72798 2.12946 0
M  V30 17864 C 1705.8 -6.12932 3.01337 0
M  V30 17865 O 1705.48 -6.92825 4.07737 0
M  V30 17866 H 1705.22 -0.675633 0.0222573 0
M  V30 17867 H 1707.77 -1.92669 0.711891 0
M  V30 17868 H 1706 -3.69875 -1.12825 0
M  V30 17869 H 1707.69 -3.97641 -0.814628 0
M  V30 17870 H 1708.45 -4.5805 1.59421 0
M  V30 17871 H 1704.33 -4.59528 0.368089 0
M  V30 17872 H 1707.88 -6.02974 3.50811 0
M  V30 17873 H 1703.77 -6.04137 2.27351 0
M  V30 17874 H 1704.54 -7.1115 4.05226 0
M  V30 17875 N 1707.21 -0.246397 -1.55662 0
M  V30 17876 C 1708.45 0.378487 -1.98931 0
M  V30 17877 C 1708.78 1.57984 -1.13452 0
M  V30 17878 O 1708.04 1.94822 -0.185214 0
M  V30 17879 C 1708.33 0.832225 -3.47576 0
M  V30 17880 C 1708 -0.261318 -4.50142 0
M  V30 17881 C 1706.66 -0.56166 -4.77911 0
M  V30 17882 C 1709.01 -0.999618 -5.11524 0
M  V30 17883 C 1706.34 -1.60438 -5.64337 0
M  V30 17884 C 1708.69 -2.03186 -5.99081 0
M  V30 17885 C 1707.36 -2.33885 -6.25183 0
M  V30 17886 H 1706.63 0.138498 -0.727942 0
M  V30 17887 H 1709.28 -0.354116 -1.88197 0
M  V30 17888 H 1707.58 1.64402 -3.55639 0
M  V30 17889 H 1709.28 1.32598 -3.78442 0
M  V30 17890 H 1705.87 -0.0170894 -4.28597 0
M  V30 17891 H 1710.05 -0.780833 -4.90119 0
M  V30 17892 H 1705.31 -1.84758 -5.82816 0
M  V30 17893 H 1709.48 -2.60886 -6.45687 0
M  V30 17894 H 1707.11 -3.14822 -6.91947 0
M  V30 17895 N 1708.68 1.57577 0.026722 0
M  V30 17896 C 1709.63 2.06711 1.02661 0
M  V30 17897 C 1710.6 0.956754 1.35777 0
M  V30 17898 O 1711.79 1.22747 1.46074 0
M  V30 17899 C 1708.93 2.55321 2.32175 0
M  V30 17900 C 1708.04 3.80155 2.05197 0
M  V30 17901 C 1707.17 4.17368 3.28599 0
M  V30 17902 C 1706.21 5.35114 2.97186 0
M  V30 17903 N 1705.35 5.67747 4.13046 0
M  V30 17904 H 1710.19 2.91884 0.600666 0
M  V30 17905 H 1707.73 1.44313 0.284968 0
M  V30 17906 H 1709.68 2.81572 3.07853 0
M  V30 17907 H 1708.31 1.73061 2.72488 0
M  V30 17908 H 1707.37 3.60975 1.20006 0
M  V30 17909 H 1708.68 4.65949 1.78026 0
M  V30 17910 H 1707.83 4.4476 4.12642 0
M  V30 17911 H 1706.57 3.30231 3.58886 0
M  V30 17912 H 1705.58 5.07473 2.11545 0
M  V30 17913 H 1706.8 6.23906 2.68175 0
M  V30 17914 H 1704.75 4.83569 4.4328 0
M  V30 17915 H 1704.66 6.48056 3.89307 0
M  V30 17916 H 1705.93 5.99717 4.97956 0
M  V30 17917 N 1710.16 -0.299034 1.54737 0
M  V30 17918 C 1711.11 -1.38889 1.86581 0
M  V30 17919 C 1712.1 -1.52396 0.739723 0
M  V30 17920 O 1713.31 -1.5449 0.92374 0
M  V30 17921 H 1709.68 -0.463969 0.591808 0
M  V30 17922 H 1711.66 -1.09268 2.77674 0
M  V30 17923 C 1710.4 -2.74702 2.13152 0
M  V30 17924 H 1709.73 -2.65092 2.99277 0
M  V30 17925 H 1711.17 -3.49967 2.39372 0
M  V30 17926 C 1709.63 -3.23789 0.930706 0
M  V30 17927 O 1710.16 -4.01412 0.152193 0
M  V30 17928 N 1708.36 -2.81137 0.735545 0
M  V30 17929 H 1707.91 -2.1813 1.37029 0
M  V30 17930 H 1707.87 -3.1433 -0.0663452 0
M  V30 17931 N 1711.64 -1.47227 -0.562322 0
M  V30 17932 C 1712.59 -1.55739 -1.66521 0
M  V30 17933 C 1713.57 -0.416678 -1.55411 0
M  V30 17934 O 1714.77 -0.666302 -1.6398 0
M  V30 17935 C 1711.89 -1.5699 -3.05302 0
M  V30 17936 C 1710.98 -2.76427 -3.21634 0
M  V30 17937 N 1711.37 -4.01172 -3.0805 0
M  V30 17938 C 1709.67 -2.73081 -3.52623 0
M  V30 17939 C 1710.37 -4.81132 -3.26936 0
M  V30 17940 N 1709.35 -4.13362 -3.53034 0
M  V30 17941 H 1713.15 -2.49965 -1.5458 0
M  V30 17942 H 1710.66 -1.4315 -0.766937 0
M  V30 17943 H 1712.66 -1.61178 -3.84483 0
M  V30 17944 H 1711.32 -0.638563 -3.18359 0
M  V30 17945 H 1712.33 -4.3211 -2.85485 0
M  V30 17946 H 1709.01 -1.89062 -3.72239 0
M  V30 17947 H 1710.4 -5.9002 -3.21444 0
M  V30 17948 N 1713.12 0.808639 -1.35273 0
M  V30 17949 C 1714.35 1.59701 -1.31541 0
M  V30 17950 C 1714.76 1.88493 0.107541 0
M  V30 17951 O 1714.12 1.4864 1.05889 0
M  V30 17952 C 1714.17 2.9295 -2.11808 0
M  V30 17953 O 1713.89 2.65407 -3.48555 0
M  V30 17954 C 1715.39 3.87318 -2.15638 0
M  V30 17955 H 1712.61 0.495961 -0.451956 0
M  V30 17956 H 1715.15 1.00507 -1.78097 0
M  V30 17957 H 1713.31 3.48663 -1.68858 0
M  V30 17958 H 1713.72 3.50471 -3.90218 0
M  V30 17959 H 1715.2 4.77933 -2.76196 0
M  V30 17960 H 1715.67 4.23752 -1.15458 0
M  V30 17961 H 1716.28 3.3754 -2.58741 0
M  V30 17962 N 1714.6 1.19237 1.03055 0
M  V30 17963 C 1715.82 1.01983 1.80594 0
M  V30 17964 C 1716.25 -0.426875 1.83192 0
M  V30 17965 O 1715.6 -1.30678 1.2567 0
M  V30 17966 C 1715.65 1.59139 3.23585 0
M  V30 17967 O 1714.76 0.819576 4.04174 0
M  V30 17968 H 1714.1 0.360585 0.557561 0
M  V30 17969 H 1716.63 1.58222 1.29719 0
M  V30 17970 H 1716.64 1.62283 3.74337 0
M  V30 17971 H 1715.31 2.64436 3.21009 0
M  V30 17972 H 1713.89 0.861253 3.62818 0
M  V30 17973 N 1716.07 -1.22136 0.99602 0
M  V30 17974 C 1717.49 -1.72743 0.708295 0
M  V30 17975 C 1717.84 -1.8026 -0.774649 0
M  V30 17976 O 1716.96 -1.45102 -1.60544 0
M  V30 17977 C 1717.56 -3.13729 1.27905 0
M  V30 17978 C 1716.12 -3.61729 1.04064 0
M  V30 17979 C 1715.26 -2.39519 1.39735 0
M  V30 17980 H 1718.21 -1.07439 1.16801 0
M  V30 17981 H 1718.23 -3.74746 0.65919 0
M  V30 17982 H 1717.75 -3.08225 2.35836 0
M  V30 17983 H 1715.85 -3.72594 -0.0219029 0
M  V30 17984 H 1715.96 -4.47689 1.70621 0
M  V30 17985 H 1714.32 -2.41275 0.815986 0
M  V30 17986 H 1715.11 -2.36675 2.48677 0
M  V30 17987 N 1717.55 -0.769612 -1.37531 0
M  V30 17988 C 1718.83 -0.257788 -1.93894 0
M  V30 17989 C 1719.21 1.24679 -1.70348 0
M  V30 17990 O 1718.56 2.02892 -1.05106 0
M  V30 17991 C 1718.77 -0.628857 -3.43288 0
M  V30 17992 C 1720.12 -0.597452 -4.20376 0
M  V30 17993 O 1721.14 -0.568117 -3.5164 0
M  V30 17994 O 1720 -0.622627 -5.42942 0
M  V30 17995 H 1717.09 -0.0588144 -0.824906 0
M  V30 17996 H 1719.64 -0.85082 -1.4683 0
M  V30 17997 H 1718.41 -1.66733 -3.54 0
M  V30 17998 H 1718.03 -0.00865929 -3.97599 0
M  V30 17999 N 1719.03 1.48775 -0.519977 0
M  V30 18000 C 1720.28 2.02792 0.0177768 0
M  V30 18001 C 1720.61 1.3972 1.34878 0
M  V30 18002 O 1719.88 0.539438 1.8687 0
M  V30 18003 C 1720.17 3.59786 0.150355 0
M  V30 18004 C 1720.02 4.33356 -1.20511 0
M  V30 18005 C 1721.34 4.31172 0.881959 0
M  V30 18006 H 1718.46 0.736983 0.00498634 0
M  V30 18007 H 1721.1 1.77603 -0.675069 0
M  V30 18008 H 1719.25 3.81378 0.740452 0
M  V30 18009 H 1720.92 4.23209 -1.83554 0
M  V30 18010 H 1719.17 3.95167 -1.78957 0
M  V30 18011 H 1719.84 5.4162 -1.06544 0
M  V30 18012 H 1722.31 4.14349 0.381302 0
M  V30 18013 H 1721.19 5.40729 0.943601 0
M  V30 18014 H 1721.45 3.97747 1.93001 0
M  V30 18015 N 1720.51 0.254649 1.55529 0
M  V30 18016 C 1721.79 -0.418663 1.91067 0
M  V30 18017 C 1722.17 -1.75284 1.17638 0
M  V30 18018 O 1721.51 -2.26569 0.296411 0
M  V30 18019 C 1721.72 -0.579125 3.44162 0
M  V30 18020 C 1723.07 -0.871451 4.15561 0
M  V30 18021 O 1724.1 -0.664702 3.49943 0
M  V30 18022 O 1722.95 -1.26563 5.31643 0
M  V30 18023 H 1720.05 -0.22593 0.795541 0
M  V30 18024 H 1722.59 0.299288 1.6704 0
M  V30 18025 H 1721.37 0.36062 3.89635 0
M  V30 18026 H 1720.99 -1.34732 3.74076 0
M  V30 18027 N 1721.99 -1.57589 -0.0183649 0
M  V30 18028 C 1722.92 -2.1029 -1.01492 0
M  V30 18029 C 1723.9 -1.00782 -1.37029 0
M  V30 18030 O 1725.08 -1.28365 -1.45726 0
M  V30 18031 C 1722.21 -2.59111 -2.31255 0
M  V30 18032 C 1721.17 -3.72979 -2.0993 0
M  V30 18033 C 1720.49 -4.08046 -3.45547 0
M  V30 18034 C 1721.79 -5.00988 -1.47677 0
M  V30 18035 H 1723.49 -2.93804 -0.57618 0
M  V30 18036 H 1721.03 -1.41336 -0.275708 0
M  V30 18037 H 1722.99 -2.94602 -3.0131 0
M  V30 18038 H 1721.71 -1.72694 -2.77208 0
M  V30 18039 H 1720.37 -3.37853 -1.42306 0
M  V30 18040 H 1720.02 -3.1868 -3.89169 0
M  V30 18041 H 1719.72 -4.8475 -3.32101 0
M  V30 18042 H 1721.24 -4.46081 -4.16947 0
M  V30 18043 H 1722.65 -5.34368 -2.07663 0
M  V30 18044 H 1721.05 -5.82375 -1.44774 0
M  V30 18045 H 1722.12 -4.82865 -0.443804 0
M  V30 18046 N 1723.46 0.290824 -1.54893 0
M  V30 18047 C 1724.71 1.02272 -1.74312 0
M  V30 18048 C 1725.03 1.87449 -0.537393 0
M  V30 18049 O 1724.3 1.90705 0.448135 0
M  V30 18050 H 1722.88 0.380592 -0.642774 0
M  V30 18051 H 1725.55 0.319353 -1.92266 0
M  V30 18052 H 1724.64 1.66997 -2.63663 0
M  V30 18053 N 1724.94 1.47523 0.554506 0
M  V30 18054 C 1726.22 1.44768 1.31535 0
M  V30 18055 C 1726.6 0.146082 2.10594 0
M  V30 18056 O 1725.95 -0.872415 2.1119 0
M  V30 18057 C 1726.16 2.69489 2.21758 0
M  V30 18058 C 1727.51 3.16814 2.82691 0
M  V30 18059 O 1728.53 2.70235 2.32059 0
M  V30 18060 O 1727.39 3.97798 3.74725 0
M  V30 18061 H 1724.48 0.577042 0.592412 0
M  V30 18062 H 1727.03 1.59727 0.573186 0
M  V30 18063 H 1725.8 3.55753 1.62958 0
M  V30 18064 H 1725.42 2.5713 3.03266 0
M  V30 18065 N 1726.42 -0.801453 1.357 0
M  V30 18066 C 1727.67 -1.55392 1.28594 0
M  V30 18067 C 1727.98 -1.95125 -0.136199 0
M  V30 18068 O 1729.19 -2.69492 -0.329568 0
M  V30 18069 C 1727.64 -2.80456 2.2555 0
M  V30 18070 C 1727.25 -2.47939 3.73135 0
M  V30 18071 C 1729 -3.58457 2.27396 0
M  V30 18072 C 1726.9 -3.69326 4.61901 0
M  V30 18073 H 1725.83 -0.583286 0.477801 0
M  V30 18074 H 1728.48 -0.880525 1.60994 0
M  V30 18075 H 1726.87 -3.49532 1.86127 0
M  V30 18076 H 1728.04 -1.86837 4.21223 0
M  V30 18077 H 1726.36 -1.83173 3.73947 0
M  V30 18078 H 1728.95 -4.48625 2.90929 0
M  V30 18079 H 1729.3 -3.96162 1.27912 0
M  V30 18080 H 1729.83 -2.96348 2.65373 0
M  V30 18081 H 1726.57 -3.36726 5.62402 0
M  V30 18082 H 1726.09 -4.29636 4.18536 0
M  V30 18083 H 1727.77 -4.36496 4.77578 0
M  V30 18084 N 1727.9 -1.19782 -1.02421 0
M  V30 18085 C 1729.12 -1.02939 -1.80051 0
M  V30 18086 C 1729.55 0.417153 -1.83416 0
M  V30 18087 O 1728.91 1.3001 -1.26361 0
M  V30 18088 C 1728.95 -1.60853 -3.22736 0
M  V30 18089 O 1728.06 -0.840999 -4.03734 0
M  V30 18090 H 1727.4 -0.363537 -0.555641 0
M  V30 18091 H 1729.93 -1.58908 -1.28878 0
M  V30 18092 H 1729.94 -1.64266 -3.73471 0
M  V30 18093 H 1728.61 -2.66135 -3.19602 0
M  V30 18094 H 1727.19 -0.880482 -3.62356 0
M  V30 18095 N 1729.38 1.21606 -1.00248 0
M  V30 18096 C 1730.63 1.90231 -0.682401 0
M  V30 18097 C 1730.95 1.78324 0.78903 0
M  V30 18098 O 1730.22 1.17653 1.56635 0
M  V30 18099 H 1728.8 0.704132 -0.249414 0
M  V30 18100 H 1731.46 1.47751 -1.27105 0
M  V30 18101 H 1730.55 2.97183 -0.953351 0
M  V30 18102 N 1730.86 0.776895 1.37121 0
M  V30 18103 C 1732.1 0.340209 1.9881 0
M  V30 18104 C 1732.42 -1.09071 1.62367 0
M  V30 18105 O 1733.62 -1.62904 2.17197 0
M  V30 18106 C 1732.08 0.557325 3.55559 0
M  V30 18107 C 1731.69 1.99884 4.00937 0
M  V30 18108 C 1733.43 0.184519 4.24099 0
M  V30 18109 C 1731.34 2.16328 5.50415 0
M  V30 18110 H 1730.27 0.12346 0.743824 0
M  V30 18111 H 1732.92 0.956754 1.56584 0
M  V30 18112 H 1731.3 -0.128752 3.95791 0
M  V30 18113 H 1732.48 2.72029 3.71937 0
M  V30 18114 H 1730.79 2.32872 3.45195 0
M  V30 18115 H 1733.39 0.285827 5.33935 0
M  V30 18116 H 1733.73 -0.865859 4.07196 0
M  V30 18117 H 1734.26 0.823343 3.89186 0
M  V30 18118 H 1731 3.19703 5.7225 0
M  V30 18119 H 1730.52 1.48673 5.81082 0
M  V30 18120 H 1732.2 1.96437 6.16459 0
M  V30 18121 N 1732.33 -1.48497 0.527859 0
M  V30 18122 C 1733.28 -2.31258 -0.249477 0
M  V30 18123 C 1734.28 -1.41094 -0.93749 0
M  V30 18124 O 1735.48 -1.58011 -0.862117 0
M  V30 18125 H 1731.86 -0.745412 -0.0993208 0
M  V30 18126 H 1733.83 -2.94705 0.46815 0
M  V30 18127 C 1732.58 -3.23095 -1.28472 0
M  V30 18128 H 1731.9 -3.92418 -0.764724 0
M  V30 18129 H 1733.34 -3.83892 -1.80008 0
M  V30 18130 C 1731.8 -2.44554 -2.31722 0
M  V30 18131 O 1732.33 -2.16883 -3.38119 0
M  V30 18132 N 1730.53 -2.06088 -2.04881 0
M  V30 18133 H 1730.08 -2.28791 -1.18374 0
M  V30 18134 H 1730.04 -1.53849 -2.74186 0
M  V30 18135 N 1733.81 -0.262893 -1.55392 0
M  V30 18136 C 1734.77 0.616662 -2.20749 0
M  V30 18137 C 1735.77 1.09066 -1.18158 0
M  V30 18138 O 1736.96 0.992797 -1.4314 0
M  V30 18139 C 1734.1 1.84937 -2.86376 0
M  V30 18140 H 1735.29 0.0462013 -2.99864 0
M  V30 18141 H 1732.84 -0.013432 -1.56294 0
M  V30 18142 H 1733.58 2.46066 -2.1124 0
M  V30 18143 H 1733.36 1.51754 -3.61543 0
M  V30 18144 H 1734.85 2.47511 -3.36345 0
M  V30 18145 N 1735.29 1.57597 0.0100073 0
M  V30 18146 C 1736.51 1.94801 0.711852 0
M  V30 18147 C 1736.94 0.864343 1.67065 0
M  V30 18148 O 1736.3 -0.178388 1.8042 0
M  V30 18149 C 1736.35 3.31094 1.42862 0
M  V30 18150 O 1735.45 3.2469 2.54264 0
M  V30 18151 H 1734.79 0.636207 0.190095 0
M  V30 18152 H 1737.32 2.04561 -0.0402016 0
M  V30 18153 H 1737.33 3.66428 1.79429 0
M  V30 18154 H 1736.01 4.09522 0.725549 0
M  V30 18155 H 1734.58 3.01017 2.20099 0
M  V30 18156 N 1736.77 -0.282606 1.55045 0
M  V30 18157 C 1738.01 -1.01698 1.75458 0
M  V30 18158 C 1738.35 -1.86284 0.548808 0
M  V30 18159 O 1737.62 -1.89131 -0.45382 0
M  V30 18160 C 1737.9 -1.90759 3.05423 0
M  V30 18161 C 1737.76 -1.0923 4.36336 0
M  V30 18162 C 1739.08 -2.8963 3.31364 0
M  V30 18163 H 1736.2 -0.368305 0.638373 0
M  V30 18164 H 1738.84 -0.290118 1.87772 0
M  V30 18165 H 1736.99 -2.52734 2.95055 0
M  V30 18166 H 1738.66 -0.493996 4.58647 0
M  V30 18167 H 1736.9 -0.395481 4.31994 0
M  V30 18168 H 1737.57 -1.74842 5.23578 0
M  V30 18169 H 1740.05 -2.37788 3.41462 0
M  V30 18170 H 1738.93 -3.49096 4.23584 0
M  V30 18171 H 1739.19 -3.64255 2.50541 0
M  V30 18172 N 1738.25 -1.47815 -0.546675 0
M  V30 18173 C 1739.49 -1.5521 -1.30529 0
M  V30 18174 C 1739.82 -0.218129 -1.92971 0
M  V30 18175 O 1739.1 0.774298 -1.78423 0
M  V30 18176 C 1739.38 -2.67799 -2.40739 0
M  V30 18177 C 1739.24 -4.10847 -1.83097 0
M  V30 18178 C 1740.55 -2.76238 -3.42608 0
M  V30 18179 H 1737.67 -0.564998 -0.473229 0
M  V30 18180 H 1740.32 -1.79917 -0.610713 0
M  V30 18181 H 1738.47 -2.46863 -2.99985 0
M  V30 18182 H 1740.14 -4.43177 -1.28031 0
M  V30 18183 H 1738.38 -4.1863 -1.13716 0
M  V30 18184 H 1739.05 -4.85418 -2.62818 0
M  V30 18185 H 1741.53 -2.95156 -2.93296 0
M  V30 18186 H 1740.4 -3.56774 -4.17137 0
M  V30 18187 H 1740.66 -1.83719 -4.02119 0
M  V30 18188 N 1739.72 0.794246 -1.36123 0
M  V30 18189 C 1740.67 1.92808 -1.30108 0
M  V30 18190 C 1741.67 1.68289 -0.193734 0
M  V30 18191 O 1742.87 1.76354 -0.360454 0
M  V30 18192 H 1739.25 0.633671 -0.404926 0
M  V30 18193 H 1741.22 1.95 -2.2587 0
M  V30 18194 C 1739.97 3.29762 -1.10238 0
M  V30 18195 H 1739.29 3.49193 -1.9469 0
M  V30 18196 H 1740.73 4.09463 -1.10073 0
M  V30 18197 C 1739.19 3.36345 0.193222 0
M  V30 18198 O 1739.72 3.83832 1.18474 0
M  V30 18199 N 1737.92 2.89638 0.236243 0
M  V30 18200 H 1737.47 2.51186 -0.571245 0
M  V30 18201 H 1737.43 2.94424 1.1028 0
M  V30 18202 N 1741.2 1.20323 1.01785 0
M  V30 18203 C 1742.45 1.00688 1.74771 0
M  V30 18204 C 1742.76 -0.461769 1.90071 0
M  V30 18205 O 1743.97 -0.777214 2.60138 0
M  V30 18206 C 1742.43 1.75278 3.14334 0
M  V30 18207 C 1742.03 3.26227 3.0705 0
M  V30 18208 C 1743.78 1.64006 3.91538 0
M  V30 18209 C 1741.68 3.9336 4.41613 0
M  V30 18210 H 1740.61 0.373123 0.655206 0
M  V30 18211 H 1743.27 1.43931 1.13825 0
M  V30 18212 H 1741.65 1.24821 3.75813 0
M  V30 18213 H 1742.82 3.83888 2.54885 0
M  V30 18214 H 1741.14 3.37898 2.43339 0
M  V30 18215 H 1743.73 2.11503 4.91091 0
M  V30 18216 H 1744.08 0.59605 4.12011 0
M  V30 18217 H 1744.61 2.11869 3.36684 0
M  V30 18218 H 1741.35 4.97907 4.26344 0
M  V30 18219 H 1740.87 3.40488 4.93789 0
M  V30 18220 H 1742.55 3.97541 5.10461 0
M  V30 18221 N 1742.68 -1.21073 1.00892 0
M  V30 18222 C 1743.61 -2.22968 0.530841 0
M  V30 18223 C 1744.62 -1.58239 -0.382664 0
M  V30 18224 O 1745.81 -1.77567 -0.182237 0
M  V30 18225 C 1742.91 -3.37991 -0.248096 0
M  V30 18226 C 1742.09 -4.32309 0.665439 0
M  V30 18227 C 1741.15 -5.2616 -0.0645731 0
M  V30 18228 O 1740.17 -5.66484 0.555383 0
M  V30 18229 N 1741.37 -5.64777 -1.3419 0
M  V30 18230 H 1744.14 -2.64614 1.4071 0
M  V30 18231 H 1741.7 -1.35536 0.885528 0
M  V30 18232 H 1743.69 -3.97774 -0.745513 0
M  V30 18233 H 1742.26 -2.95297 -1.02558 0
M  V30 18234 H 1741.48 -3.70607 1.34329 0
M  V30 18235 H 1742.77 -4.92254 1.28701 0
M  V30 18236 H 1742.17 -5.34016 -1.86664 0
M  V30 18237 H 1740.72 -6.26905 -1.78419 0
M  V30 18238 N 1744.16 -0.784156 -1.36707 0
M  V30 18239 C 1745.11 -0.177044 -2.3012 0
M  V30 18240 C 1746.08 0.6761 -1.51717 0
M  V30 18241 O 1747.26 0.625878 -1.80243 0
M  V30 18242 C 1744.4 0.686337 -3.38206 0
M  V30 18243 C 1743.51 -0.184772 -4.31605 0
M  V30 18244 C 1742.65 0.684485 -5.26772 0
M  V30 18245 C 1741.69 -0.188402 -6.1181 0
M  V30 18246 N 1740.82 0.639537 -6.99181 0
M  V30 18247 H 1745.66 -0.979125 -2.81455 0
M  V30 18248 H 1743.2 -0.494419 -1.38542 0
M  V30 18249 H 1745.16 1.20185 -3.99514 0
M  V30 18250 H 1743.79 1.4539 -2.88204 0
M  V30 18251 H 1742.84 -0.818204 -3.71496 0
M  V30 18252 H 1744.15 -0.857567 -4.91373 0
M  V30 18253 H 1743.31 1.26601 -5.93344 0
M  V30 18254 H 1742.05 1.39092 -4.67445 0
M  V30 18255 H 1741.05 -0.782364 -5.44205 0
M  V30 18256 H 1742.28 -0.89236 -6.73212 0
M  V30 18257 H 1740.22 1.33036 -6.42369 0
M  V30 18258 H 1740.14 0.0243097 -7.55996 0
M  V30 18259 H 1741.41 1.20505 -7.70129 0
M  V30 18260 N 1745.64 1.48215 -0.535727 0
M  V30 18261 C 1746.55 2.33494 0.227577 0
M  V30 18262 C 1747.56 1.4685 0.933327 0
M  V30 18263 O 1748.74 1.7982 0.907008 0
M  V30 18264 C 1745.8 3.23092 1.25747 0
M  V30 18265 C 1744.86 4.25613 0.561454 0
M  V30 18266 C 1744.1 5.1093 1.54228 0
M  V30 18267 O 1744.32 4.98325 2.77539 0
M  V30 18268 O 1743.25 5.92158 1.07852 0
M  V30 18269 H 1747.08 3.0002 -0.471375 0
M  V30 18270 H 1744.67 1.46427 -0.296579 0
M  V30 18271 H 1746.55 3.78498 1.8525 0
M  V30 18272 H 1745.22 2.5922 1.93872 0
M  V30 18273 H 1744.13 3.74026 -0.0742194 0
M  V30 18274 H 1745.46 4.92138 -0.0779649 0
M  V30 18275 N 1747.11 0.27113 1.5525 0
M  V30 18276 C 1748.36 -0.347408 1.98686 0
M  V30 18277 C 1748.68 -1.57275 1.16292 0
M  V30 18278 O 1749.88 -2.26399 1.49853 0
M  V30 18279 C 1748.34 -0.669461 3.53619 0
M  V30 18280 C 1747.95 0.535853 4.44784 0
M  V30 18281 C 1749.69 -1.25084 4.05653 0
M  V30 18282 C 1747.6 0.188607 5.91099 0
M  V30 18283 H 1746.53 -0.133581 0.742073 0
M  V30 18284 H 1749.18 0.375157 1.79624 0
M  V30 18285 H 1747.56 -1.45082 3.68466 0
M  V30 18286 H 1748.73 1.3128 4.41704 0
M  V30 18287 H 1747.05 1.03381 4.03363 0
M  V30 18288 H 1749.65 -1.52439 5.1251 0
M  V30 18289 H 1749.99 -2.18341 3.54448 0
M  V30 18290 H 1750.52 -0.531864 3.94228 0
M  V30 18291 H 1747.26 1.08894 6.46392 0
M  V30 18292 H 1746.78 -0.551653 5.97258 0
M  V30 18293 H 1748.46 -0.220603 6.46624 0
M  V30 18294 N 1748.59 -1.576 -0.00164943 0
M  V30 18295 C 1749.87 -1.81716 -0.723788 0
M  V30 18296 C 1750.25 -0.875694 -1.9208 0
M  V30 18297 O 1749.6 0.0759629 -2.28374 0
M  V30 18298 C 1749.81 -3.30164 -1.13106 0
M  V30 18299 C 1751.16 -3.95859 -1.5356 0
M  V30 18300 O 1752.18 -3.34477 -1.2249 0
M  V30 18301 O 1751.04 -5.03986 -2.1133 0
M  V30 18302 H 1748.13 -0.748213 -0.352287 0
M  V30 18303 H 1750.68 -1.69683 0.0236782 0
M  V30 18304 H 1749.45 -3.90313 -0.277771 0
M  V30 18305 H 1749.07 -3.47188 -1.93768 0
M  V30 18306 N 1750.07 0.274379 -1.55193 0
M  V30 18307 C 1751.49 0.621497 -1.47002 0
M  V30 18308 C 1751.69 1.89572 -0.682995 0
M  V30 18309 O 1750.74 2.51696 -0.201296 0
M  V30 18310 C 1752.06 0.749741 -2.91203 0
M  V30 18311 C 1753.6 0.843886 -3.01409 0
M  V30 18312 C 1754.08 1.00392 -4.46862 0
M  V30 18313 N 1755.57 1.06947 -4.50684 0
M  V30 18314 C 1756.3 1.21207 -5.60443 0
M  V30 18315 N 1755.8 1.32195 -6.80071 0
M  V30 18316 N 1757.59 1.24307 -5.48183 0
M  V30 18317 H 1749.74 -0.562462 -2.04817 0
M  V30 18318 H 1752.01 -0.190205 -0.928723 0
M  V30 18319 H 1751.71 -0.116074 -3.51508 0
M  V30 18320 H 1751.59 1.63046 -3.40141 0
M  V30 18321 H 1753.97 1.70017 -2.41202 0
M  V30 18322 H 1754.06 -0.061411 -2.55726 0
M  V30 18323 H 1753.7 0.152298 -5.07672 0
M  V30 18324 H 1753.63 1.92384 -4.902 0
M  V30 18325 H 1756.12 0.997012 -3.64511 0
M  V30 18326 H 1756.43 1.42906 -7.59472 0
M  V30 18327 H 1754.78 1.29202 -6.82885 0
M  V30 18328 H 1757.97 1.15352 -4.53665 0
M  V30 18329 H 1758.14 1.35076 -6.33765 0
M  V30 18330 N 1751.55 1.48103 0.538828 0
M  V30 18331 C 1752.48 1.64856 1.65363 0
M  V30 18332 C 1753.46 0.497579 1.6266 0
M  V30 18333 O 1754.64 0.729088 1.79994 0
M  V30 18334 C 1751.77 1.67984 3.03971 0
M  V30 18335 C 1750.73 2.82494 3.21529 0
M  V30 18336 C 1750.05 2.70706 4.6111 0
M  V30 18337 C 1751.35 4.23892 3.05145 0
M  V30 18338 H 1753.05 2.58183 1.51598 0
M  V30 18339 H 1750.59 1.24249 0.727886 0
M  V30 18340 H 1752.55 1.78294 3.81824 0
M  V30 18341 H 1751.27 0.712299 3.18738 0
M  V30 18342 H 1749.93 2.71725 2.46091 0
M  V30 18343 H 1749.58 1.7194 4.727 0
M  V30 18344 H 1749.28 3.47539 4.73804 0
M  V30 18345 H 1750.8 2.82971 5.41073 0
M  V30 18346 H 1752.22 4.3554 3.72797 0
M  V30 18347 H 1750.61 5.01654 3.29338 0
M  V30 18348 H 1751.68 4.40973 2.01671 0
M  V30 18349 N 1753.03 -0.787016 1.36542 0
M  V30 18350 C 1753.97 -1.92115 1.31128 0
M  V30 18351 C 1754.97 -1.68183 0.202656 0
M  V30 18352 O 1756.17 -1.7616 0.369802 0
M  V30 18353 H 1752.55 -0.631514 0.408281 0
M  V30 18354 H 1754.52 -1.938 2.26901 0
M  V30 18355 C 1753.27 -3.29173 1.11985 0
M  V30 18356 H 1752.59 -3.48156 1.96539 0
M  V30 18357 H 1754.03 -4.08873 1.12243 0
M  V30 18358 C 1752.49 -3.36443 -0.175383 0
M  V30 18359 O 1753.02 -3.84455 -1.16437 0
M  V30 18360 N 1751.23 -2.89759 -0.220879 0
M  V30 18361 H 1750.77 -2.5088 0.584558 0
M  V30 18362 H 1750.73 -2.95005 -1.08717 0
M  V30 18363 N 1754.5 -1.20861 -1.01145 0
M  V30 18364 C 1755.41 -0.977926 -2.13246 0
M  V30 18365 C 1756.43 0.0678862 -1.73868 0
M  V30 18366 O 1757.61 -0.120717 -2.01038 0
M  V30 18367 C 1754.67 -0.538575 -3.42491 0
M  V30 18368 C 1753.73 -1.65584 -3.96081 0
M  V30 18369 C 1752.97 -1.23736 -5.19158 0
M  V30 18370 O 1753.19 -0.108227 -5.70297 0
M  V30 18371 O 1752.12 -2.04679 -5.6603 0
M  V30 18372 H 1755.95 -1.91666 -2.3558 0
M  V30 18373 H 1753.53 -0.992931 -1.1163 0
M  V30 18374 H 1755.42 -0.303041 -4.20309 0
M  V30 18375 H 1754.09 0.371515 -3.21561 0
M  V30 18376 H 1753 -1.94572 -3.19519 0
M  V30 18377 H 1754.33 -2.54313 -4.21409 0
M  V30 18378 N 1755.98 1.20536 -1.01532 0
M  V30 18379 C 1757.23 1.90152 -0.704973 0
M  V30 18380 C 1757.56 1.78569 0.763343 0
M  V30 18381 O 1756.84 1.16906 1.55445 0
M  V30 18382 C 1757.12 3.41589 -1.1397 0
M  V30 18383 C 1756.97 3.62113 -2.66823 0
M  V30 18384 C 1758.29 4.34335 -0.709984 0
M  V30 18385 H 1755.41 0.690524 -0.257577 0
M  V30 18386 H 1758.05 1.41959 -1.26284 0
M  V30 18387 H 1756.2 3.82765 -0.66505 0
M  V30 18388 H 1757.87 3.30197 -3.2213 0
M  V30 18389 H 1756.12 3.05626 -3.07855 0
M  V30 18390 H 1756.79 4.68261 -2.92294 0
M  V30 18391 H 1759.26 4.00799 -1.11801 0
M  V30 18392 H 1758.14 5.38915 -1.04221 0
M  V30 18393 H 1758.4 4.40391 0.388408 0
M  V30 18394 N 1757.46 0.791395 1.36289 0
M  V30 18395 C 1758.42 0.197069 2.28351 0
M  V30 18396 C 1759.42 -0.606748 1.48913 0
M  V30 18397 O 1760.61 -0.427453 1.68874 0
M  V30 18398 C 1757.75 -0.727009 3.33058 0
M  V30 18399 H 1758.94 1.00885 2.82422 0
M  V30 18400 H 1756.49 0.560959 1.45887 0
M  V30 18401 H 1757.23 -1.56306 2.84146 0
M  V30 18402 H 1757.01 -0.152537 3.91803 0
M  V30 18403 H 1758.5 -1.13765 4.01805 0
M  V30 18404 N 1758.94 -1.47929 0.54358 0
M  V30 18405 C 1759.89 -2.29827 -0.211706 0
M  V30 18406 C 1760.86 -1.38217 -0.921154 0
M  V30 18407 O 1762.04 -1.67181 -0.919522 0
M  V30 18408 C 1759.18 -3.21889 -1.24425 0
M  V30 18409 C 1758.29 -4.28583 -0.542264 0
M  V30 18410 C 1757.43 -5.0781 -1.55892 0
M  V30 18411 C 1756.47 -6.06293 -0.841146 0
M  V30 18412 N 1755.61 -6.78528 -1.80399 0
M  V30 18413 H 1760.45 -2.93896 0.492835 0
M  V30 18414 H 1757.98 -1.44875 0.254873 0
M  V30 18415 H 1759.94 -3.73674 -1.85535 0
M  V30 18416 H 1758.57 -2.59713 -1.917 0
M  V30 18417 H 1757.62 -3.79959 0.183069 0
M  V30 18418 H 1758.93 -4.98796 0.0206703 0
M  V30 18419 H 1758.09 -5.63678 -2.24393 0
M  V30 18420 H 1756.83 -4.37468 -2.15576 0
M  V30 18421 H 1755.83 -5.49616 -0.14214 0
M  V30 18422 H 1757.06 -6.78639 -0.250232 0
M  V30 18423 H 1755 -6.10927 -2.38965 0
M  V30 18424 H 1754.92 -7.44863 -1.29285 0
M  V30 18425 H 1756.19 -7.38978 -2.48056 0
M  V30 18426 N 1760.42 -0.27936 -1.55104 0
M  V30 18427 C 1761.37 0.62221 -2.24123 0
M  V30 18428 C 1762.36 1.15445 -1.23971 0
M  V30 18429 O 1763.57 1.10759 -1.41889 0
M  V30 18430 H 1759.94 0.219212 -0.71934 0
M  V30 18431 H 1761.91 0.0173061 -2.98395 0
M  V30 18432 C 1760.66 1.79301 -2.97903 0
M  V30 18433 H 1759.98 1.39266 -3.7476 0
M  V30 18434 H 1761.42 2.40038 -3.49511 0
M  V30 18435 C 1759.88 2.68405 -2.03618 0
M  V30 18436 O 1760.41 3.68887 -1.59014 0
M  V30 18437 N 1758.62 2.35666 -1.70028 0
M  V30 18438 H 1758.17 1.54003 -2.06497 0
M  V30 18439 H 1758.12 2.95554 -1.07215 0
M  V30 18440 N 1761.9 1.57599 -0.0067085 0
M  V30 18441 C 1762.83 2.11878 0.981331 0
M  V30 18442 C 1763.81 1.02949 1.35408 0
M  V30 18443 O 1764.99 1.30667 1.43665 0
M  V30 18444 C 1762.12 2.62757 2.27104 0
M  V30 18445 C 1761.08 3.76272 2.0397 0
M  V30 18446 C 1760.4 4.13491 3.39012 0
M  V30 18447 C 1761.7 5.03274 1.39688 0
M  V30 18448 H 1763.4 2.94683 0.529366 0
M  V30 18449 H 1760.94 1.41757 0.253187 0
M  V30 18450 H 1762.89 2.99359 2.96585 0
M  V30 18451 H 1761.62 1.77082 2.74426 0
M  V30 18452 H 1760.28 3.40074 1.36913 0
M  V30 18453 H 1759.93 3.24831 3.8405 0
M  V30 18454 H 1759.63 4.89972 3.24347 0
M  V30 18455 H 1761.15 4.52657 4.09797 0
M  V30 18456 H 1762.56 5.37604 1.99136 0
M  V30 18457 H 1760.96 5.84604 1.3549 0
M  V30 18458 H 1762.03 4.8351 0.366928 0
M  V30 18459 N 1763.37 -0.266145 1.55336 0
M  V30 18460 C 1764.32 -1.349 1.89485 0
M  V30 18461 C 1765.32 -1.50792 0.771882 0
M  V30 18462 O 1766.52 -1.52495 0.956302 0
M  V30 18463 H 1762.9 -0.451312 0.601516 0
M  V30 18464 H 1764.87 -1.03354 2.7993 0
M  V30 18465 C 1763.62 -2.70119 2.18931 0
M  V30 18466 H 1762.94 -2.58684 3.04832 0
M  V30 18467 H 1764.38 -3.44811 2.46742 0
M  V30 18468 C 1762.84 -3.21742 0.999177 0
M  V30 18469 O 1763.37 -4.00998 0.237304 0
M  V30 18470 N 1761.57 -2.79514 0.795013 0
M  V30 18471 H 1761.12 -2.15175 1.41625 0
M  V30 18472 H 1761.08 -3.144 0.000343733 0
M  V30 18473 N 1764.85 -1.48386 -0.530967 0
M  V30 18474 C 1765.76 -1.65516 -1.66257 0
M  V30 18475 C 1766.78 -0.5377 -1.65483 0
M  V30 18476 O 1767.95 -0.808642 -1.84453 0
M  V30 18477 C 1765.02 -1.68999 -3.02722 0
M  V30 18478 C 1764.08 -2.92365 -3.14358 0
M  V30 18479 C 1763.31 -2.95672 -4.44313 0
M  V30 18480 O 1763.54 -2.07417 -5.31352 0
M  V30 18481 O 1762.47 -3.87831 -4.60294 0
M  V30 18482 H 1766.3 -2.61321 -1.54742 0
M  V30 18483 H 1763.88 -1.31776 -0.703946 0
M  V30 18484 H 1765.76 -1.73816 -3.83883 0
M  V30 18485 H 1764.44 -0.763675 -3.14563 0
M  V30 18486 H 1763.34 -2.93081 -2.32496 0
M  V30 18487 H 1764.68 -3.84378 -3.07433 0
M  V30 18488 N 1766.33 0.779763 -1.36958 0
M  V30 18489 C 1767.55 1.57389 -1.35068 0
M  V30 18490 C 1767.98 1.87993 0.0635244 0
M  V30 18491 O 1767.34 1.48625 1.03828 0
M  V30 18492 C 1767.39 2.86582 -2.18868 0
M  V30 18493 O 1766.49 3.80609 -1.58779 0
M  V30 18494 H 1765.83 0.477052 -0.461863 0
M  V30 18495 H 1768.36 0.965741 -1.80373 0
M  V30 18496 H 1768.37 3.35761 -2.31794 0
M  V30 18497 H 1767.05 2.63635 -3.21666 0
M  V30 18498 H 1765.62 3.39229 -1.54848 0
M  V30 18499 N 1767.81 1.21396 1.00503 0
M  V30 18500 C 1768.74 0.997268 2.11132 0
M  V30 18501 C 1769.72 -0.0777455 1.69922 0
M  V30 18502 O 1770.9 0.08208 1.94026 0
M  V30 18503 C 1768.03 0.561122 3.42737 0
M  V30 18504 C 1766.99 1.58069 3.97741 0
M  V30 18505 C 1766.31 1.00079 5.25251 0
M  V30 18506 C 1767.61 2.96754 4.29807 0
M  V30 18507 H 1769.31 1.92255 2.29518 0
M  V30 18508 H 1766.85 0.925776 1.10297 0
M  V30 18509 H 1768.81 0.396701 4.19529 0
M  V30 18510 H 1767.53 -0.399804 3.24144 0
M  V30 18511 H 1766.19 1.73268 3.23069 0
M  V30 18512 H 1765.84 0.0315797 5.0299 0
M  V30 18513 H 1765.54 1.68182 5.63017 0
M  V30 18514 H 1767.06 0.847687 6.04687 0
M  V30 18515 H 1768.48 2.85 4.97441 0
M  V30 18516 H 1766.87 3.61871 4.78717 0
M  V30 18517 H 1767.94 3.47602 3.38084 0
M  V30 18518 N 1769.29 -1.19996 1.0217 0
M  V30 18519 C 1770.53 -1.88818 0.709281 0
M  V30 18520 C 1770.85 -1.80032 -0.764702 0
M  V30 18521 O 1772.05 -2.44037 -1.18988 0
M  V30 18522 C 1770.51 -3.38652 1.2183 0
M  V30 18523 C 1770.12 -3.56012 2.71955 0
M  V30 18524 C 1771.86 -4.12996 0.981542 0
M  V30 18525 C 1769.77 -4.997 3.16313 0
M  V30 18526 H 1768.7 -0.70716 0.261613 0
M  V30 18527 H 1771.35 -1.35715 1.23506 0
M  V30 18528 H 1769.73 -3.91109 0.620478 0
M  V30 18529 H 1770.91 -3.13918 3.37331 0
M  V30 18530 H 1769.22 -2.95046 2.93831 0
M  V30 18531 H 1771.82 -5.18948 1.28831 0
M  V30 18532 H 1772.16 -4.1622 -0.0818616 0
M  V30 18533 H 1772.69 -3.66656 1.543 0
M  V30 18534 H 1769.43 -5.01635 4.21951 0
M  V30 18535 H 1768.95 -5.42585 2.5566 0
M  V30 18536 H 1770.63 -5.68312 3.09242 0
M  V30 18537 N 1770.76 -0.798611 -1.35867 0
M  V30 18538 C 1772.04 -0.298858 -1.93303 0
M  V30 18539 C 1772.42 1.21038 -1.72954 0
M  V30 18540 O 1771.77 2.00617 -1.09386 0
M  V30 18541 C 1771.98 -0.701532 -3.41876 0
M  V30 18542 C 1773.33 -0.686486 -4.19014 0
M  V30 18543 O 1774.35 -0.642577 -3.50356 0
M  V30 18544 O 1773.21 -0.737653 -5.41499 0
M  V30 18545 H 1770.3 -0.0762987 -0.823473 0
M  V30 18546 H 1772.85 -0.881773 -1.44993 0
M  V30 18547 H 1771.62 -1.74204 -3.50383 0
M  V30 18548 H 1771.24 -0.092994 -3.97491 0
M  V30 18549 N 1772.24 1.47639 -0.551417 0
M  V30 18550 C 1773.17 2.32743 0.187887 0
M  V30 18551 C 1774.15 1.43432 0.914407 0
M  V30 18552 O 1775.34 1.72295 0.896005 0
M  V30 18553 C 1772.47 3.25092 1.22199 0
M  V30 18554 C 1771.42 4.23598 0.612298 0
M  V30 18555 C 1770.75 5.0523 1.75062 0
M  V30 18556 C 1772.05 5.20526 -0.430135 0
M  V30 18557 H 1773.74 2.94804 -0.522598 0
M  V30 18558 H 1771.29 1.41764 -0.252768 0
M  V30 18559 H 1773.24 3.83467 1.74731 0
M  V30 18560 H 1771.96 2.61074 1.96235 0
M  V30 18561 H 1770.62 3.6644 0.108324 0
M  V30 18562 H 1770.27 4.3762 2.47987 0
M  V30 18563 H 1769.97 5.71918 1.34848 0
M  V30 18564 H 1771.5 5.66463 2.27931 0
M  V30 18565 H 1772.91 5.73299 0.00890168 0
M  V30 18566 H 1771.31 5.95384 -0.750836 0
M  V30 18567 H 1772.38 4.66356 -1.32815 0
M  V30 18568 N 1773.72 0.287581 1.54954 0
M  V30 18569 C 1774.65 -0.62789 2.20432 0
M  V30 18570 C 1775.67 -1.10792 1.19286 0
M  V30 18571 O 1776.85 -1.02768 1.45949 0
M  V30 18572 C 1773.95 -1.86998 2.82639 0
M  V30 18573 C 1773.13 -1.53469 4.09592 0
M  V30 18574 C 1772.19 -2.63053 4.5573 0
M  V30 18575 O 1771.21 -2.28712 5.21229 0
M  V30 18576 N 1772.41 -3.93348 4.26917 0
M  V30 18577 H 1775.18 -0.067416 2.99624 0
M  V30 18578 H 1772.74 0.109205 1.61531 0
M  V30 18579 H 1774.73 -2.59629 3.10443 0
M  V30 18580 H 1773.3 -2.33919 2.07366 0
M  V30 18581 H 1772.52 -0.641635 3.88943 0
M  V30 18582 H 1773.81 -1.28587 4.92283 0
M  V30 18583 H 1773.21 -4.24063 3.74415 0
M  V30 18584 H 1771.77 -4.62318 4.59462 0
M  V30 18585 N 1775.2 -1.57593 0.0150662 0
M  V30 18586 C 1776.11 -2.12807 -0.987437 0
M  V30 18587 C 1777.12 -1.07691 -1.3667 0
M  V30 18588 O 1778.3 -1.39674 -1.45097 0
M  V30 18589 C 1775.37 -2.63276 -2.2558 0
M  V30 18590 C 1774.43 -3.83053 -1.93827 0
M  V30 18591 C 1773.66 -4.31106 -3.14616 0
M  V30 18592 O 1773.88 -3.78405 -4.26809 0
M  V30 18593 O 1772.82 -5.23104 -2.97734 0
M  V30 18594 H 1776.64 -2.98715 -0.548015 0
M  V30 18595 H 1774.23 -1.47991 -0.20469 0
M  V30 18596 H 1776.11 -2.95869 -3.00066 0
M  V30 18597 H 1774.78 -1.80459 -2.68731 0
M  V30 18598 H 1773.69 -3.55409 -1.1677 0
M  V30 18599 H 1775.02 -4.6699 -1.55502 0
M  V30 18600 N 1776.68 0.257904 -1.55475 0
M  V30 18601 C 1777.61 1.32303 -1.92401 0
M  V30 18602 C 1778.59 1.50767 -0.787617 0
M  V30 18603 O 1779.77 1.63559 -1.047 0
M  V30 18604 C 1776.9 2.67984 -2.20912 0
M  V30 18605 C 1775.86 2.64231 -3.36699 0
M  V30 18606 C 1775.18 4.03604 -3.50725 0
M  V30 18607 C 1776.48 2.22177 -4.72689 0
M  V30 18608 H 1778.18 1.01646 -2.81618 0
M  V30 18609 H 1775.72 0.487523 -1.35496 0
M  V30 18610 H 1777.68 3.42622 -2.45332 0
M  V30 18611 H 1776.4 3.00254 -1.2851 0
M  V30 18612 H 1775.06 1.92049 -3.1227 0
M  V30 18613 H 1774.71 4.33122 -2.55763 0
M  V30 18614 H 1774.41 4.01983 -4.28583 0
M  V30 18615 H 1775.93 4.79959 -3.77455 0
M  V30 18616 H 1777.34 2.86543 -4.96554 0
M  V30 18617 H 1775.74 2.3169 -5.5357 0
M  V30 18618 H 1776.81 1.17326 -4.70492 0
M  V30 18619 N 1778.15 1.48666 0.52309 0
M  V30 18620 C 1779.4 1.56724 1.27601 0
M  V30 18621 C 1779.72 0.245958 1.93443 0
M  V30 18622 O 1778.99 -0.733053 1.81668 0
M  V30 18623 H 1777.57 0.57739 0.473952 0
M  V30 18624 H 1780.24 1.85169 0.608144 0
M  V30 18625 H 1779.33 2.35188 2.05166 0
M  V30 18626 N 1779.63 -0.772489 1.37369 0
M  V30 18627 C 1780.58 -1.88575 1.33073 0
M  V30 18628 C 1781.55 -1.64935 0.19641 0
M  V30 18629 O 1782.73 -1.86862 0.385651 0
M  V30 18630 C 1779.87 -3.25628 1.14281 0
M  V30 18631 C 1778.99 -3.61227 2.36936 0
M  V30 18632 C 1778.12 -4.87486 2.11023 0
M  V30 18633 C 1777.16 -5.15814 3.29548 0
M  V30 18634 N 1776.3 -6.33261 3.03191 0
M  V30 18635 H 1781.14 -1.91583 2.28255 0
M  V30 18636 H 1778.68 -0.936654 1.13425 0
M  V30 18637 H 1780.63 -4.04688 1.01407 0
M  V30 18638 H 1779.26 -3.21998 0.227467 0
M  V30 18639 H 1778.32 -2.77158 2.60552 0
M  V30 18640 H 1779.63 -3.781 3.25333 0
M  V30 18641 H 1778.78 -5.74449 1.95176 0
M  V30 18642 H 1777.52 -4.72716 1.19962 0
M  V30 18643 H 1776.53 -4.27328 3.45935 0
M  V30 18644 H 1777.75 -5.32493 4.21459 0
M  V30 18645 H 1775.7 -6.19851 2.14759 0
M  V30 18646 H 1775.61 -6.50546 3.85131 0
M  V30 18647 H 1776.88 -7.23162 2.9096 0
M  V30 18648 N 1781.11 -1.21927 -0.998575 0
M  V30 18649 C 1782.34 -1.06501 -1.77034 0
M  V30 18650 C 1782.75 0.387776 -1.85184 0
M  V30 18651 O 1782.09 1.28067 -1.31699 0
M  V30 18652 C 1782.15 -1.59465 -3.22198 0
M  V30 18653 C 1781.82 -3.08008 -3.37609 0
M  V30 18654 C 1782.81 -4.05495 -3.25377 0
M  V30 18655 C 1780.5 -3.47347 -3.62843 0
M  V30 18656 C 1782.49 -5.40306 -3.38154 0
M  V30 18657 C 1780.18 -4.82309 -3.75262 0
M  V30 18658 C 1781.18 -5.78597 -3.62924 0
M  V30 18659 O 1780.87 -7.1111 -3.74938 0
M  V30 18660 H 1780.6 -0.374178 -0.562998 0
M  V30 18661 H 1783.15 -1.61859 -1.26455 0
M  V30 18662 H 1781.38 -0.98509 -3.73942 0
M  V30 18663 H 1783.07 -1.39785 -3.81071 0
M  V30 18664 H 1783.84 -3.76446 -3.05799 0
M  V30 18665 H 1779.72 -2.72928 -3.71526 0
M  V30 18666 H 1783.26 -6.15445 -3.28441 0
M  V30 18667 H 1779.16 -5.1104 -3.94345 0
M  V30 18668 H 1779.93 -7.18609 -3.91846 0
M  V30 18669 N 1782.59 1.19452 -1.02805 0
M  V30 18670 C 1783.5 2.2631 -0.618147 0
M  V30 18671 C 1784.51 1.70449 0.349712 0
M  V30 18672 O 1785.69 2.00325 0.207801 0
M  V30 18673 C 1782.76 3.46691 0.0255242 0
M  V30 18674 C 1781.82 4.17735 -0.98973 0
M  V30 18675 C 1781.05 5.32369 -0.376681 0
M  V30 18676 O 1781.27 5.64467 0.820584 0
M  V30 18677 O 1780.21 5.9178 -1.09911 0
M  V30 18678 H 1784.03 2.63611 -1.50807 0
M  V30 18679 H 1781.62 1.2629 -0.798192 0
M  V30 18680 H 1783.5 4.19643 0.384464 0
M  V30 18681 H 1782.17 3.1124 0.889467 0
M  V30 18682 H 1781.08 3.46906 -1.40024 0
M  V30 18683 H 1782.41 4.57155 -1.82402 0
M  V30 18684 N 1784.07 0.805805 1.35442 0
M  V30 18685 C 1785 0.173326 2.28544 0
M  V30 18686 C 1786.01 -0.626927 1.50245 0
M  V30 18687 O 1787.2 -0.459416 1.72487 0
M  V30 18688 C 1784.3 -0.776924 3.29874 0
M  V30 18689 C 1783.47 -0.0232073 4.37394 0
M  V30 18690 C 1782.53 -0.891823 5.18587 0
M  V30 18691 O 1781.56 -0.343052 5.68165 0
M  V30 18692 N 1782.76 -2.214 5.36621 0
M  V30 18693 H 1785.53 0.973125 2.83461 0
M  V30 18694 H 1783.09 0.66119 1.47783 0
M  V30 18695 H 1785.08 -1.36223 3.81085 0
M  V30 18696 H 1783.65 -1.47753 2.75477 0
M  V30 18697 H 1782.87 0.743298 3.87129 0
M  V30 18698 H 1784.16 0.496278 5.06374 0
M  V30 18699 H 1783.55 -2.6838 4.97985 0
M  V30 18700 H 1782.11 -2.74856 5.91014 0
M  V30 18701 N 1785.54 -1.47344 0.559239 0
M  V30 18702 C 1786.77 -2.0656 0.040802 0
M  V30 18703 C 1787.18 -1.41208 -1.25925 0
M  V30 18704 O 1786.53 -0.503333 -1.7667 0
M  V30 18705 C 1786.59 -3.58804 -0.223642 0
M  V30 18706 C 1786.25 -4.46208 0.987275 0
M  V30 18707 C 1787.25 -4.84198 1.89336 0
M  V30 18708 C 1784.93 -4.87693 1.20252 0
M  V30 18709 C 1786.93 -5.62474 2.99837 0
M  V30 18710 C 1784.61 -5.65733 2.31061 0
M  V30 18711 C 1785.61 -6.03034 3.20684 0
M  V30 18712 O 1785.3 -6.79502 4.29572 0
M  V30 18713 H 1785.03 -0.674583 0.0437408 0
M  V30 18714 H 1787.59 -1.90306 0.772827 0
M  V30 18715 H 1785.82 -3.73277 -1.01 0
M  V30 18716 H 1787.51 -4.00032 -0.687709 0
M  V30 18717 H 1788.27 -4.52746 1.73913 0
M  V30 18718 H 1784.15 -4.58124 0.514098 0
M  V30 18719 H 1787.69 -5.91508 3.69817 0
M  V30 18720 H 1783.59 -5.96598 2.46456 0
M  V30 18721 H 1784.36 -6.97898 4.27645 0
M  V30 18722 N 1787.02 -0.295795 -1.54799 0
M  V30 18723 C 1788.27 0.315754 -1.99213 0
M  V30 18724 C 1788.58 1.55405 -1.18779 0
M  V30 18725 O 1789.79 2.23986 -1.53436 0
M  V30 18726 C 1788.25 0.613119 -3.54639 0
M  V30 18727 C 1787.85 -0.606546 -4.43875 0
M  V30 18728 C 1789.6 1.18615 -4.07591 0
M  V30 18729 C 1787.51 -0.282622 -5.90724 0
M  V30 18730 H 1786.44 0.121758 -0.744104 0
M  V30 18731 H 1789.09 -0.403686 -1.79005 0
M  V30 18732 H 1787.47 1.39202 -3.70728 0
M  V30 18733 H 1788.64 -1.3829 -4.39559 0
M  V30 18734 H 1786.96 -1.09785 -4.01667 0
M  V30 18735 H 1789.55 1.44266 -5.1487 0
M  V30 18736 H 1789.9 2.12674 -3.57876 0
M  V30 18737 H 1790.43 0.469078 -3.95025 0
M  V30 18738 H 1787.17 -1.19164 -6.44578 0
M  V30 18739 H 1786.69 0.456564 -5.9806 0
M  V30 18740 H 1788.37 0.117703 -6.46893 0
M  V30 18741 N 1788.5 1.57583 -0.0234236 0
M  V30 18742 C 1789.45 2.09872 0.960327 0
M  V30 18743 C 1790.42 0.999466 1.32665 0
M  V30 18744 O 1791.6 1.27332 1.42095 0
M  V30 18745 C 1788.74 2.62578 2.23935 0
M  V30 18746 C 1787.86 3.86491 1.92999 0
M  V30 18747 C 1786.99 4.27611 3.15154 0
M  V30 18748 C 1786.03 5.44298 2.80011 0
M  V30 18749 N 1785.17 5.80601 3.94775 0
M  V30 18750 H 1790.01 2.93647 0.507502 0
M  V30 18751 H 1787.54 1.45147 0.238911 0
M  V30 18752 H 1789.5 2.91223 2.98739 0
M  V30 18753 H 1788.13 1.81643 2.66844 0
M  V30 18754 H 1787.18 3.6461 1.08462 0
M  V30 18755 H 1788.5 4.71377 1.63112 0
M  V30 18756 H 1787.65 4.57663 3.98284 0
M  V30 18757 H 1786.39 3.41481 3.48198 0
M  V30 18758 H 1785.39 5.13946 1.95293 0
M  V30 18759 H 1786.62 6.32122 2.4819 0
M  V30 18760 H 1784.57 4.97427 4.27671 0
M  V30 18761 H 1784.48 6.60113 3.68492 0
M  V30 18762 H 1785.75 6.15255 4.78624 0
M  V30 18763 N 1789.98 -0.249655 1.5561 0
M  V30 18764 C 1791.23 -0.975295 1.78492 0
M  V30 18765 C 1791.58 -1.83069 0.591907 0
M  V30 18766 O 1790.87 -1.87053 -0.414919 0
M  V30 18767 C 1791.07 -1.87138 3.0449 0
M  V30 18768 C 1790.9 -1.10421 4.35933 0
M  V30 18769 C 1789.67 -0.810424 4.98759 0
M  V30 18770 C 1791.86 -0.483142 5.12026 0
M  V30 18771 N 1789.85 -0.0189109 6.13897 0
M  V30 18772 C 1791.22 0.173079 6.19758 0
M  V30 18773 C 1793.27 -0.393331 4.96344 0
M  V30 18774 C 1791.98 0.910483 7.13514 0
M  V30 18775 C 1794 0.330536 5.90476 0
M  V30 18776 C 1793.36 0.975405 6.97614 0
M  V30 18777 H 1789.46 -0.338086 0.70514 0
M  V30 18778 H 1792.05 -0.248691 1.93105 0
M  V30 18779 H 1790.22 -2.57003 2.91211 0
M  V30 18780 H 1791.95 -2.53237 3.15679 0
M  V30 18781 H 1788.7 -1.12153 4.60129 0
M  V30 18782 H 1789.13 0.364858 6.76016 0
M  V30 18783 H 1793.77 -0.877566 4.13592 0
M  V30 18784 H 1791.49 1.40633 7.95769 0
M  V30 18785 H 1795.07 0.400657 5.80419 0
M  V30 18786 H 1793.95 1.52659 7.69198 0
M  V30 18787 N 1791.46 -1.48941 -0.515198 0
M  V30 18788 C 1792.87 -1.51076 -1.09695 0
M  V30 18789 C 1793.22 -0.288875 -1.94062 0
M  V30 18790 O 1792.34 0.602665 -2.07839 0
M  V30 18791 C 1792.94 -2.73755 -1.99609 0
M  V30 18792 C 1791.5 -2.78714 -2.52974 0
M  V30 18793 C 1790.65 -2.44798 -1.30266 0
M  V30 18794 H 1793.6 -1.55843 -0.299757 0
M  V30 18795 H 1793.62 -2.53112 -2.84103 0
M  V30 18796 H 1793.13 -3.62668 -1.38178 0
M  V30 18797 H 1791.23 -1.94045 -3.18084 0
M  V30 18798 H 1791.34 -3.80525 -2.91097 0
M  V30 18799 H 1789.71 -1.9627 -1.62327 0
M  V30 18800 H 1790.49 -3.35969 -0.705648 0
M  V30 18801 N 1792.94 0.765193 -1.37777 0
M  V30 18802 C 1794.18 1.52537 -1.34551 0
M  V30 18803 C 1794.54 1.92281 0.067656 0
M  V30 18804 O 1793.83 1.61703 1.02775 0
M  V30 18805 C 1794.02 2.79732 -2.22452 0
M  V30 18806 C 1793.85 2.52421 -3.72174 0
M  V30 18807 C 1792.62 2.46221 -4.41252 0
M  V30 18808 C 1794.82 2.19976 -4.64882 0
M  V30 18809 N 1792.8 2.11063 -5.76477 0
M  V30 18810 C 1794.17 1.95012 -5.88532 0
M  V30 18811 C 1796.23 2.06187 -4.53201 0
M  V30 18812 C 1794.93 1.57652 -7.01811 0
M  V30 18813 C 1796.96 1.70227 -5.66372 0
M  V30 18814 C 1796.32 1.46128 -6.89076 0
M  V30 18815 H 1792.42 0.558224 -0.547641 0
M  V30 18816 H 1795 0.892113 -1.73059 0
M  V30 18817 H 1793.17 3.40885 -1.8615 0
M  V30 18818 H 1794.91 3.45686 -2.10436 0
M  V30 18819 H 1791.66 2.62298 -3.94331 0
M  V30 18820 H 1792.08 1.96162 -6.47958 0
M  V30 18821 H 1796.73 2.23498 -3.58899 0
M  V30 18822 H 1794.44 1.39079 -7.96042 0
M  V30 18823 H 1798.03 1.60206 -5.59308 0
M  V30 18824 H 1796.91 1.18715 -7.75162 0
M  V30 18825 N 1794.41 1.22455 0.992094 0
M  V30 18826 C 1795.64 1.07438 1.76467 0
M  V30 18827 C 1796.05 -0.37795 1.85387 0
M  V30 18828 O 1795.39 -1.27367 1.32376 0
M  V30 18829 C 1795.46 1.61171 3.21347 0
M  V30 18830 C 1795.12 3.09794 3.35971 0
M  V30 18831 C 1796.12 4.07214 3.23222 0
M  V30 18832 C 1793.8 3.49266 3.60996 0
M  V30 18833 C 1795.8 5.42092 3.35284 0
M  V30 18834 C 1793.48 4.84292 3.72699 0
M  V30 18835 C 1794.48 5.80514 3.59851 0
M  V30 18836 O 1794.17 7.13088 3.71161 0
M  V30 18837 H 1793.9 0.377158 0.561006 0
M  V30 18838 H 1796.46 1.62527 1.25595 0
M  V30 18839 H 1794.69 1.00491 3.73415 0
M  V30 18840 H 1796.37 1.41804 3.80324 0
M  V30 18841 H 1797.14 3.78063 3.03798 0
M  V30 18842 H 1793.02 2.74895 3.70073 0
M  V30 18843 H 1796.56 6.17178 3.25172 0
M  V30 18844 H 1792.46 5.13124 3.91629 0
M  V30 18845 H 1793.23 7.20677 3.88029 0
M  V30 18846 N 1795.89 -1.18905 1.03437 0
M  V30 18847 C 1797.14 -1.88055 0.729268 0
M  V30 18848 C 1797.45 -1.80833 -0.745564 0
M  V30 18849 O 1798.66 -2.45285 -1.16393 0
M  V30 18850 C 1797.12 -3.37341 1.25415 0
M  V30 18851 C 1796.72 -3.53107 2.75716 0
M  V30 18852 C 1798.47 -4.11932 1.02529 0
M  V30 18853 C 1796.37 -4.96317 3.21595 0
M  V30 18854 H 1795.3 -0.704345 0.269098 0
M  V30 18855 H 1797.96 -1.34397 1.24938 0
M  V30 18856 H 1796.34 -3.90429 0.661925 0
M  V30 18857 H 1797.51 -3.10322 3.40642 0
M  V30 18858 H 1795.83 -2.91913 2.96944 0
M  V30 18859 H 1798.42 -5.17552 1.34328 0
M  V30 18860 H 1798.77 -4.16283 -0.0377114 0
M  V30 18861 H 1799.3 -3.64998 1.5818 0
M  V30 18862 H 1796.04 -4.97131 4.27248 0
M  V30 18863 H 1795.56 -5.39842 2.61401 0
M  V30 18864 H 1797.24 -5.65 3.15253 0
M  V30 18865 N 1797.37 -0.812977 -1.35013 0
M  V30 18866 C 1798.62 -0.406082 -1.99305 0
M  V30 18867 C 1798.97 1.01711 -1.63317 0
M  V30 18868 O 1798.26 1.697 -0.889514 0
M  V30 18869 C 1798.46 -0.534083 -3.53387 0
M  V30 18870 C 1798.29 -1.96817 -4.04343 0
M  V30 18871 C 1797.06 -2.59792 -4.33401 0
M  V30 18872 C 1799.25 -2.93359 -4.22428 0
M  V30 18873 N 1797.24 -3.94544 -4.70328 0
M  V30 18874 C 1798.61 -4.12996 -4.62422 0
M  V30 18875 C 1800.66 -2.90106 -4.04651 0
M  V30 18876 C 1799.37 -5.29821 -4.865 0
M  V30 18877 C 1801.39 -4.06139 -4.29889 0
M  V30 18878 C 1800.75 -5.24525 -4.70162 0
M  V30 18879 H 1796.85 -0.196497 -0.75691 0
M  V30 18880 H 1799.44 -1.05557 -1.63602 0
M  V30 18881 H 1797.61 0.0854508 -3.88306 0
M  V30 18882 H 1799.34 -0.101154 -4.04574 0
M  V30 18883 H 1796.09 -2.11101 -4.2395 0
M  V30 18884 H 1796.52 -4.63939 -4.93041 0
M  V30 18885 H 1801.16 -1.99725 -3.72652 0
M  V30 18886 H 1798.88 -6.20768 -5.17371 0
M  V30 18887 H 1802.46 -4.0501 -4.17681 0
M  V30 18888 H 1801.34 -6.12819 -4.89309 0
M  V30 18889 N 1798.85 1.47045 -0.567045 0
M  V30 18890 C 1799.78 2.32929 0.163191 0
M  V30 18891 C 1800.76 1.44393 0.899142 0
M  V30 18892 O 1801.94 1.73235 0.87768 0
M  V30 18893 C 1799.07 3.26369 1.18745 0
M  V30 18894 C 1798.03 4.24223 0.567335 0
M  V30 18895 C 1797.35 5.07058 1.69693 0
M  V30 18896 C 1798.65 5.2004 -0.485319 0
M  V30 18897 H 1800.35 2.94233 -0.553837 0
M  V30 18898 H 1797.89 1.41488 -0.267789 0
M  V30 18899 H 1799.85 3.85299 1.70654 0
M  V30 18900 H 1798.57 2.6314 1.93455 0
M  V30 18901 H 1797.23 3.66534 0.0694525 0
M  V30 18902 H 1796.88 4.40226 2.43331 0
M  V30 18903 H 1796.58 5.73316 1.28774 0
M  V30 18904 H 1798.1 5.68848 2.2191 0
M  V30 18905 H 1799.52 5.73277 -0.0519049 0
M  V30 18906 H 1797.91 5.94554 -0.813942 0
M  V30 18907 H 1798.98 4.64921 -1.37754 0
M  V30 18908 N 1800.33 0.304 1.5464 0
M  V30 18909 C 1801.57 -0.303793 1.99804 0
M  V30 18910 C 1801.89 -1.54179 1.19389 0
M  V30 18911 O 1801.16 -1.93732 0.290631 0
M  V30 18912 H 1799.74 -0.115241 0.738057 0
M  V30 18913 H 1802.41 0.416024 1.90408 0
M  V30 18914 H 1801.5 -0.573759 3.06781 0
M  V30 18915 N 1801.8 -1.57568 0.0317802 0
M  V30 18916 C 1803.05 -1.9191 -0.646281 0
M  V30 18917 C 1803.38 -0.908432 -1.71982 0
M  V30 18918 O 1802.63 0.0822426 -1.95527 0
M  V30 18919 C 1802.93 -3.32976 -1.29852 0
M  V30 18920 C 1802.6 -4.495 -0.355092 0
M  V30 18921 C 1801.26 -4.81105 -0.0954326 0
M  V30 18922 C 1803.61 -5.20378 0.292586 0
M  V30 18923 C 1800.94 -5.80946 0.819667 0
M  V30 18924 C 1803.29 -6.21196 1.19576 0
M  V30 18925 C 1801.96 -6.51241 1.46428 0
M  V30 18926 H 1801.23 -0.702249 -0.236491 0
M  V30 18927 H 1803.87 -1.91269 0.0941159 0
M  V30 18928 H 1802.18 -3.29892 -2.11373 0
M  V30 18929 H 1803.88 -3.5682 -1.82977 0
M  V30 18930 H 1800.47 -4.24824 -0.567652 0
M  V30 18931 H 1804.65 -4.96189 0.105041 0
M  V30 18932 H 1799.91 -6.02569 1.03538 0
M  V30 18933 H 1804.08 -6.75236 1.7038 0
M  V30 18934 H 1801.71 -7.28421 2.17502 0
M  V30 18935 N 1803.28 0.241399 -1.5574 0
M  V30 18936 C 1804.53 0.966607 -1.7703 0
M  V30 18937 C 1804.84 1.86275 -0.59673 0
M  V30 18938 O 1806.05 2.62513 -0.692775 0
M  V30 18939 C 1804.51 1.7688 -3.13435 0
M  V30 18940 C 1804.11 0.919775 -4.38457 0
M  V30 18941 C 1805.86 2.48641 -3.44061 0
M  V30 18942 C 1803.77 1.71817 -5.65891 0
M  V30 18943 H 1802.7 0.364644 -0.659963 0
M  V30 18944 H 1805.35 0.221088 -1.82163 0
M  V30 18945 H 1803.73 2.55648 -3.02424 0
M  V30 18946 H 1804.9 0.174036 -4.60471 0
M  V30 18947 H 1803.22 0.315234 -4.15205 0
M  V30 18948 H 1805.81 3.08839 -4.36489 0
M  V30 18949 H 1806.16 3.20534 -2.65638 0
M  V30 18950 H 1806.69 1.7688 -3.56312 0
M  V30 18951 H 1803.43 1.04289 -6.47151 0
M  V30 18952 H 1802.95 2.43905 -5.47969 0
M  V30 18953 H 1804.63 2.28392 -6.05348 0
M  V30 18954 N 1804.76 1.49212 0.507292 0
M  V30 18955 C 1805.72 1.64908 1.59179 0
M  V30 18956 C 1806.72 0.521176 1.5212 0
M  V30 18957 O 1807.91 0.787492 1.55384 0
M  V30 18958 C 1805.05 1.64057 2.98828 0
M  V30 18959 H 1806.24 2.6163 1.46593 0
M  V30 18960 H 1803.79 1.38149 0.731062 0
M  V30 18961 H 1804.53 0.688956 3.16897 0
M  V30 18962 H 1804.31 2.45963 3.0536 0
M  V30 18963 H 1805.8 1.78279 3.77633 0
M  V30 18964 N 1806.24 -0.757876 1.38181 0
M  V30 18965 C 1807.49 -1.51388 1.33888 0
M  V30 18966 C 1807.81 -1.94867 -0.0718767 0
M  V30 18967 O 1807.08 -1.67329 -1.01871 0
M  V30 18968 H 1805.66 -0.561534 0.492634 0
M  V30 18969 H 1808.32 -0.901156 1.72815 0
M  V30 18970 H 1807.42 -2.4068 1.98695 0
M  V30 18971 N 1807.72 -1.22979 -0.985586 0
M  V30 18972 C 1808.65 -1.03073 -2.09519 0
M  V30 18973 C 1809.63 0.0507025 -1.70024 0
M  V30 18974 O 1810.81 -0.112938 -1.93871 0
M  V30 18975 C 1807.94 -0.615578 -3.41801 0
M  V30 18976 C 1806.9 -1.64377 -3.95176 0
M  V30 18977 C 1806.22 -1.08422 -5.23592 0
M  V30 18978 C 1807.52 -3.03555 -4.25032 0
M  V30 18979 H 1809.22 -1.95882 -2.2643 0
M  V30 18980 H 1806.76 -0.943206 -1.0881 0
M  V30 18981 H 1808.72 -0.463394 -4.18844 0
M  V30 18982 H 1807.44 0.348185 -3.24739 0
M  V30 18983 H 1806.1 -1.78386 -3.20272 0
M  V30 18984 H 1805.75 -0.111597 -5.02876 0
M  V30 18985 H 1805.45 -1.77118 -5.6027 0
M  V30 18986 H 1806.97 -0.94378 -6.03262 0
M  V30 18987 H 1808.38 -2.92878 -4.92844 0
M  V30 18988 H 1806.78 -3.69441 -4.72899 0
M  V30 18989 H 1807.85 -3.52937 -3.32511 0
M  V30 18990 N 1809.19 1.18355 -1.04066 0
M  V30 18991 C 1810.44 1.87665 -0.73923 0
M  V30 18992 C 1810.76 1.81226 0.735963 0
M  V30 18993 O 1811.96 2.45899 1.15091 0
M  V30 18994 C 1810.42 3.36671 -1.27203 0
M  V30 18995 C 1810.03 3.5164 -2.77585 0
M  V30 18996 C 1811.77 4.11383 -1.04712 0
M  V30 18997 C 1809.68 4.94605 -3.24222 0
M  V30 18998 H 1808.61 0.702908 -0.27283 0
M  V30 18999 H 1811.26 1.33733 -1.25649 0
M  V30 19000 H 1809.64 3.90072 -0.682621 0
M  V30 19001 H 1810.81 3.08511 -3.42283 0
M  V30 19002 H 1809.13 2.90334 -2.98488 0
M  V30 19003 H 1811.73 5.16832 -1.37071 0
M  V30 19004 H 1812.07 4.16297 0.0156344 0
M  V30 19005 H 1812.6 3.64154 -1.60114 0
M  V30 19006 H 1809.34 4.94859 -4.29878 0
M  V30 19007 H 1808.86 5.38449 -2.6426 0
M  V30 19008 H 1810.54 5.6332 -3.18245 0
M  V30 19009 N 1810.67 0.820125 1.3458 0
M  V30 19010 C 1811.64 0.245462 2.27882 0
M  V30 19011 C 1812.64 -0.575025 1.50167 0
M  V30 19012 O 1813.83 -0.391536 1.69743 0
M  V30 19013 C 1810.96 -0.656199 3.34525 0
M  V30 19014 H 1812.15 1.06853 2.80218 0
M  V30 19015 H 1809.7 0.591777 1.44664 0
M  V30 19016 H 1810.44 -1.50244 2.87398 0
M  V30 19017 H 1810.22 -0.0693951 3.92039 0
M  V30 19018 H 1811.71 -1.05216 4.04128 0
M  V30 19019 N 1812.15 -1.46743 0.574835 0
M  V30 19020 C 1813.4 -2.01625 0.0551724 0
M  V30 19021 C 1813.71 -1.4528 -1.3097 0
M  V30 19022 O 1814.92 -1.91932 -1.92026 0
M  V30 19023 C 1813.37 -3.59868 0.0480708 0
M  V30 19024 C 1812.98 -4.25207 1.41078 0
M  V30 19025 C 1814.73 -4.22436 -0.41806 0
M  V30 19026 C 1812.63 -5.75507 1.36183 0
M  V30 19027 H 1811.56 -0.753812 0.0168558 0
M  V30 19028 H 1814.21 -1.68557 0.725313 0
M  V30 19029 H 1812.6 -3.89976 -0.688076 0
M  V30 19030 H 1813.77 -4.06718 2.16603 0
M  V30 19031 H 1812.09 -3.747 1.81628 0
M  V30 19032 H 1814.68 -5.32601 -0.473353 0
M  V30 19033 H 1815.03 -3.90826 -1.43391 0
M  V30 19034 H 1815.56 -3.96925 0.263775 0
M  V30 19035 H 1812.3 -6.11765 2.35423 0
M  V30 19036 H 1811.82 -5.96282 0.648655 0
M  V30 19037 H 1813.5 -6.38068 1.07137 0
M  V30 19038 N 1813.63 -0.312197 -1.54477 0
M  V30 19039 C 1814.87 0.294208 -2.00655 0
M  V30 19040 C 1815.21 1.52674 -1.20018 0
M  V30 19041 O 1814.48 1.92481 -0.279517 0
M  V30 19042 C 1814.77 0.639677 -3.54373 0
M  V30 19043 C 1814.62 -0.602773 -4.45743 0
M  V30 19044 C 1815.94 1.46181 -4.15113 0
M  V30 19045 H 1813.06 0.10546 -0.729416 0
M  V30 19046 H 1815.7 -0.426519 -1.85151 0
M  V30 19047 H 1813.85 1.25371 -3.67715 0
M  V30 19048 H 1815.52 -1.24116 -4.44289 0
M  V30 19049 H 1813.76 -1.23386 -4.15882 0
M  V30 19050 H 1814.43 -0.316748 -5.5109 0
M  V30 19051 H 1816.91 0.942887 -4.05276 0
M  V30 19052 H 1815.79 1.67231 -5.22805 0
M  V30 19053 H 1816.05 2.45448 -3.67706 0
M  V30 19054 N 1815.11 1.57549 -0.040136 0
M  V30 19055 C 1816.04 2.06413 0.973089 0
M  V30 19056 C 1817.02 0.962235 1.31072 0
M  V30 19057 O 1818.2 1.23337 1.42549 0
M  V30 19058 C 1815.33 2.49541 2.29013 0
M  V30 19059 C 1814.37 3.70858 2.10634 0
M  V30 19060 S 1815.21 5.17013 1.39493 0
M  V30 19061 C 1816.36 5.63445 2.72544 0
M  V30 19062 H 1816.6 2.92032 0.557186 0
M  V30 19063 H 1814.13 1.53441 0.171846 0
M  V30 19064 H 1816.09 2.75052 3.04723 0
M  V30 19065 H 1814.75 1.64247 2.67734 0
M  V30 19066 H 1813.94 3.98918 3.08027 0
M  V30 19067 H 1813.54 3.45555 1.43065 0
M  V30 19068 H 1815.84 5.68357 3.68749 0
M  V30 19069 H 1816.78 6.62826 2.49134 0
M  V30 19070 H 1817.19 4.91133 2.78296 0
M  V30 19071 N 1816.58 -0.233136 1.55866 0
M  V30 19072 C 1817.83 -0.96064 1.78604 0
M  V30 19073 C 1818.16 -1.84444 0.607795 0
M  V30 19074 O 1817.44 -1.9048 -0.39342 0
M  V30 19075 C 1817.72 -1.80946 3.11337 0
M  V30 19076 C 1817.57 -0.952929 4.3959 0
M  V30 19077 C 1818.89 -2.78941 3.40411 0
M  V30 19078 H 1816.01 -0.347809 0.649767 0
M  V30 19079 H 1818.65 -0.230233 1.886 0
M  V30 19080 H 1816.8 -2.43219 3.02946 0
M  V30 19081 H 1818.48 -0.347831 4.59987 0
M  V30 19082 H 1816.72 -0.257846 4.33033 0
M  V30 19083 H 1817.39 -1.58096 5.28876 0
M  V30 19084 H 1819.87 -2.26804 3.48854 0
M  V30 19085 H 1818.74 -3.35443 4.34475 0
M  V30 19086 H 1819 -3.561 2.62003 0
M  V30 19087 N 1818.06 -1.49479 -0.499372 0
M  V30 19088 C 1819.29 -1.6276 -1.27738 0
M  V30 19089 C 1819.71 -0.299635 -1.86407 0
M  V30 19090 O 1819.06 0.715092 -1.67907 0
M  V30 19091 C 1819.11 -2.69762 -2.40647 0
M  V30 19092 O 1818.84 -3.97407 -1.84388 0
M  V30 19093 C 1820.34 -2.93762 -3.31992 0
M  V30 19094 H 1817.56 -0.547893 -0.387368 0
M  V30 19095 H 1820.1 -1.95522 -0.599292 0
M  V30 19096 H 1818.26 -2.39773 -3.04282 0
M  V30 19097 H 1818.67 -4.56361 -2.58525 0
M  V30 19098 H 1820.14 -3.72361 -4.07494 0
M  V30 19099 H 1820.62 -2.0374 -3.89085 0
M  V30 19100 H 1821.23 -3.25173 -2.74122 0
M  V30 19101 N 1819.54 0.750537 -1.38581 0
M  V30 19102 C 1820.79 1.50512 -1.34272 0
M  V30 19103 C 1821.1 1.95496 0.0636858 0
M  V30 19104 O 1822.31 2.7053 0.22932 0
M  V30 19105 C 1820.77 2.71891 -2.35803 0
M  V30 19106 C 1820.37 2.3392 -3.8208 0
M  V30 19107 C 1822.12 3.4977 -2.40543 0
M  V30 19108 C 1820.02 3.51928 -4.7529 0
M  V30 19109 H 1818.95 0.56515 -0.49912 0
M  V30 19110 H 1821.61 0.820167 -1.64151 0
M  V30 19111 H 1819.99 3.42383 -1.98972 0
M  V30 19112 H 1821.16 1.71075 -4.27867 0
M  V30 19113 H 1819.48 1.69168 -3.80488 0
M  V30 19114 H 1822.07 4.37519 -3.07379 0
M  V30 19115 H 1822.42 3.91141 -1.42527 0
M  V30 19116 H 1822.95 2.86294 -2.76189 0
M  V30 19117 H 1819.69 3.15621 -5.74512 0
M  V30 19118 H 1819.21 4.13807 -4.34194 0
M  V30 19119 H 1820.89 4.1847 -4.93449 0
M  V30 19120 N 1821.02 1.235 0.979051 0
M  V30 19121 C 1821.95 0.960606 2.06997 0
M  V30 19122 C 1822.93 -0.101573 1.62282 0
M  V30 19123 O 1824.11 0.0329696 1.88471 0
M  V30 19124 C 1821.24 0.447437 3.35732 0
M  V30 19125 C 1820.29 1.49643 3.99386 0
M  V30 19126 S 1821.12 3.07425 4.38464 0
M  V30 19127 C 1822.28 2.57782 5.7035 0
M  V30 19128 H 1822.51 1.88437 2.29954 0
M  V30 19129 H 1820.04 1.0676 1.11543 0
M  V30 19130 H 1822 0.157968 4.10196 0
M  V30 19131 H 1820.66 -0.455431 3.10781 0
M  V30 19132 H 1819.85 1.08754 4.92127 0
M  V30 19133 H 1819.46 1.73531 3.31305 0
M  V30 19134 H 1821.75 1.99886 6.47342 0
M  V30 19135 H 1822.69 3.49067 6.16083 0
M  V30 19136 H 1823.1 1.9859 5.28415 0
M  V30 19137 N 1822.5 -1.17802 1.04693 0
M  V30 19138 C 1823.43 -2.23847 0.664448 0
M  V30 19139 C 1824.41 -1.66761 -0.335356 0
M  V30 19140 O 1825.59 -1.93017 -0.214062 0
M  V30 19141 C 1822.72 -3.47284 0.0331587 0
M  V30 19142 C 1821.68 -4.1716 0.95718 0
M  V30 19143 C 1821 -5.34362 0.190034 0
M  V30 19144 C 1822.3 -4.69951 2.2791 0
M  V30 19145 H 1824 -2.56095 1.55099 0
M  V30 19146 H 1821.54 -1.23097 0.747196 0
M  V30 19147 H 1823.5 -4.2068 -0.246178 0
M  V30 19148 H 1822.22 -3.14288 -0.888294 0
M  V30 19149 H 1820.88 -3.45669 1.221 0
M  V30 19150 H 1820.53 -4.97615 -0.734025 0
M  V30 19151 H 1820.23 -5.8205 0.805684 0
M  V30 19152 H 1821.75 -6.10545 -0.0821372 0
M  V30 19153 H 1823.17 -5.3501 2.06003 0
M  V30 19154 H 1821.56 -5.28198 2.84828 0
M  V30 19155 H 1822.63 -3.87032 2.9212 0
M  V30 19156 N 1823.98 -0.827251 -1.34143 0
M  V30 19157 C 1825.22 -0.423301 -1.99969 0
M  V30 19158 C 1825.58 0.996013 -1.64145 0
M  V30 19159 O 1826.78 1.50307 -2.22848 0
M  V30 19160 C 1825.05 -0.624388 -3.51904 0
M  V30 19161 S 1826.61 -0.31393 -4.37676 0
M  V30 19162 H 1823.43 -0.15974 -0.692823 0
M  V30 19163 H 1826.03 -1.07401 -1.63356 0
M  V30 19164 H 1824.73 -1.65696 -3.75464 0
M  V30 19165 H 1824.27 0.040897 -3.93379 0
M  V30 19166 H 1826.28 0.870745 -4.885 0
M  V30 19167 N 1825.45 1.46436 -0.582609 0
M  V30 19168 C 1826.69 2.04277 -0.0708316 0
M  V30 19169 C 1827.06 1.4443 1.26507 0
M  V30 19170 O 1828.26 1.93472 1.86607 0
M  V30 19171 C 1826.53 3.574 -0.00593413 0
M  V30 19172 S 1828.09 4.36504 0.448283 0
M  V30 19173 H 1824.91 0.710014 -0.0374242 0
M  V30 19174 H 1827.51 1.79479 -0.775084 0
M  V30 19175 H 1826.21 3.98475 -0.982149 0
M  V30 19176 H 1825.74 3.86735 0.721092 0
M  V30 19177 H 1827.76 4.66059 1.70304 0
M  V30 19178 N 1826.93 0.320385 1.54309 0
M  V30 19179 C 1827.86 -0.589487 2.20455 0
M  V30 19180 C 1828.84 -1.11816 1.1805 0
M  V30 19181 O 1830.03 -1.18276 1.46776 0
M  V30 19182 C 1827.15 -1.80854 2.86373 0
M  V30 19183 C 1826.2 -1.41139 4.0247 0
M  V30 19184 S 1827.03 -0.450803 5.33599 0
M  V30 19185 C 1828.19 -1.67721 6.03009 0
M  V30 19186 H 1828.42 -0.0275989 2.97287 0
M  V30 19187 H 1825.95 0.104475 1.54046 0
M  V30 19188 H 1827.91 -2.50803 3.24974 0
M  V30 19189 H 1826.57 -2.34161 2.0935 0
M  V30 19190 H 1825.77 -2.31969 4.47444 0
M  V30 19191 H 1825.37 -0.791646 3.65526 0
M  V30 19192 H 1827.66 -2.6151 6.24995 0
M  V30 19193 H 1828.6 -1.26968 6.96624 0
M  V30 19194 H 1829.01 -1.86274 5.32881 0
M  V30 19195 N 1828.41 -1.57525 0.0484906 0
M  V30 19196 C 1829.64 -1.96897 -0.635553 0
M  V30 19197 C 1830.05 -0.925909 -1.64537 0
M  V30 19198 O 1829.41 0.0901742 -1.82277 0
M  V30 19199 C 1829.46 -3.36348 -1.32484 0
M  V30 19200 O 1829.18 -4.36656 -0.355464 0
M  V30 19201 C 1830.68 -3.90463 -2.0989 0
M  V30 19202 H 1827.9 -0.648062 -0.173945 0
M  V30 19203 H 1830.45 -2.04182 0.113997 0
M  V30 19204 H 1828.6 -3.30222 -2.02564 0
M  V30 19205 H 1829.02 -5.17613 -0.847153 0
M  V30 19206 H 1830.49 -4.90326 -2.53543 0
M  V30 19207 H 1830.97 -3.25745 -2.94596 0
M  V30 19208 H 1831.57 -3.99918 -1.44726 0
M  V30 19209 N 1829.89 0.224867 -1.55988 0
M  V30 19210 C 1831.11 0.970897 -1.83271 0
M  V30 19211 C 1831.54 1.77293 -0.628399 0
M  V30 19212 O 1830.9 1.76301 0.422804 0
M  V30 19213 C 1830.94 1.86686 -3.08514 0
M  V30 19214 O 1830.05 2.96174 -2.86975 0
M  V30 19215 H 1829.39 0.275093 -0.604334 0
M  V30 19216 H 1831.92 0.239183 -2.03197 0
M  V30 19217 H 1831.93 2.27731 -3.3853 0
M  V30 19218 H 1830.6 1.27733 -3.95799 0
M  V30 19219 H 1829.18 2.59099 -2.68183 0
M  V30 19220 N 1831.37 1.49742 0.491438 0
M  V30 19221 C 1832.61 1.61335 1.25501 0
M  V30 19222 C 1832.97 0.297703 1.89678 0
M  V30 19223 O 1834.17 0.28889 2.67243 0
M  V30 19224 C 1832.44 2.74705 2.28631 0
M  V30 19225 S 1834 3.06308 3.14199 0
M  V30 19226 H 1830.82 0.568965 0.42638 0
M  V30 19227 H 1833.42 1.87442 0.555503 0
M  V30 19228 H 1832.12 3.68806 1.80029 0
M  V30 19229 H 1831.66 2.50621 3.03237 0
M  V30 19230 H 1833.67 2.48565 4.29453 0
M  V30 19231 N 1832.84 -0.743177 1.38977 0
M  V30 19232 C 1834.08 -1.51529 1.3718 0
M  V30 19233 C 1834.45 -1.91968 -0.0350605 0
M  V30 19234 O 1835.65 -2.6821 -0.177981 0
M  V30 19235 C 1833.92 -2.72723 2.30991 0
M  V30 19236 S 1835.48 -3.6247 2.47308 0
M  V30 19237 H 1832.3 -0.518415 0.486587 0
M  V30 19238 H 1834.9 -0.871522 1.74999 0
M  V30 19239 H 1833.6 -2.41141 3.32083 0
M  V30 19240 H 1833.13 -3.42036 1.94358 0
M  V30 19241 H 1835.15 -4.65991 1.7049 0
M  V30 19242 N 1834.32 -1.24018 -0.972487 0
M  V30 19243 C 1835.55 -1.10483 -1.75523 0
M  V30 19244 C 1835.97 0.338985 -1.8502 0
M  V30 19245 O 1835.33 1.24534 -1.31761 0
M  V30 19246 C 1835.38 -1.74396 -3.15624 0
M  V30 19247 O 1834.48 -1.01148 -3.99804 0
M  V30 19248 H 1833.82 -0.386777 -0.539722 0
M  V30 19249 H 1836.35 -1.64231 -1.22022 0
M  V30 19250 H 1836.36 -1.79958 -3.66168 0
M  V30 19251 H 1835.04 -2.7945 -3.08026 0
M  V30 19252 H 1833.62 -1.03338 -3.58296 0
M  V30 19253 N 1835.8 1.17245 -1.05316 0
M  V30 19254 C 1837.04 1.89218 -0.773041 0
M  V30 19255 C 1837.4 1.79273 0.687403 0
M  V30 19256 O 1838.61 2.46075 1.08168 0
M  V30 19257 C 1836.88 3.35133 -1.24179 0
M  V30 19258 S 1838.44 4.25066 -1.08923 0
M  V30 19259 H 1835.25 0.653243 -0.280703 0
M  V30 19260 H 1837.86 1.41591 -1.34805 0
M  V30 19261 H 1836.56 3.39906 -2.29982 0
M  V30 19262 H 1836.09 3.87805 -0.661108 0
M  V30 19263 H 1838.11 4.96198 -0.0141465 0
M  V30 19264 N 1837.28 0.834353 1.33702 0
M  V30 19265 C 1838.21 0.279313 2.31823 0
M  V30 19266 C 1839.19 -0.610495 1.58767 0
M  V30 19267 O 1840.37 -0.534989 1.86686 0
M  V30 19268 C 1837.5 -0.550201 3.42914 0
M  V30 19269 C 1836.46 0.243432 4.27307 0
M  V30 19270 C 1835.78 -0.709548 5.29971 0
M  V30 19271 C 1837.08 1.45799 5.01537 0
M  V30 19272 H 1838.78 1.09915 2.78494 0
M  V30 19273 H 1836.32 0.529987 1.33892 0
M  V30 19274 H 1838.28 -0.948764 4.10581 0
M  V30 19275 H 1837 -1.4032 2.9492 0
M  V30 19276 H 1835.66 0.6235 3.61259 0
M  V30 19277 H 1835.31 -1.55882 4.78236 0
M  V30 19278 H 1835.01 -0.182671 5.87316 0
M  V30 19279 H 1836.53 -1.10572 6.00505 0
M  V30 19280 H 1837.95 1.13283 5.61996 0
M  V30 19281 H 1836.34 1.92133 5.68511 0
M  V30 19282 H 1837.41 2.23016 4.30571 0
M  V30 19283 N 1838.76 -1.46125 0.590367 0
M  V30 19284 C 1839.7 -2.30384 -0.138481 0
M  V30 19285 C 1840.67 -1.41078 -0.876715 0
M  V30 19286 O 1841.86 -1.70022 -0.86587 0
M  V30 19287 C 1839 -3.25684 -1.14122 0
M  V30 19288 C 1838.11 -4.30091 -0.405639 0
M  V30 19289 C 1837.25 -5.12513 -1.39657 0
M  V30 19290 C 1836.29 -6.08662 -0.647833 0
M  V30 19291 N 1835.42 -6.83924 -1.5872 0
M  V30 19292 H 1840.26 -2.9218 0.586086 0
M  V30 19293 H 1837.8 -1.43991 0.300835 0
M  V30 19294 H 1839.76 -3.79388 -1.73553 0
M  V30 19295 H 1838.39 -2.6568 -1.8334 0
M  V30 19296 H 1837.44 -3.79184 0.303858 0
M  V30 19297 H 1838.75 -4.98477 0.179348 0
M  V30 19298 H 1837.91 -5.70531 -2.06346 0
M  V30 19299 H 1836.64 -4.44105 -2.01549 0
M  V30 19300 H 1835.65 -5.4979 0.0327878 0
M  V30 19301 H 1836.87 -6.79091 -0.0342018 0
M  V30 19302 H 1834.82 -6.1822 -2.19408 0
M  V30 19303 H 1834.74 -7.48599 -1.05522 0
M  V30 19304 H 1836.01 -7.46496 -2.2442 0
M  V30 19305 N 1840.23 -0.328564 -1.54137 0
M  V30 19306 C 1841.48 0.271967 -2.00262 0
M  V30 19307 C 1841.8 1.5226 -1.21827 0
M  V30 19308 O 1841.07 1.93245 -0.321415 0
M  V30 19309 H 1839.65 0.103484 -0.739797 0
M  V30 19310 H 1842.32 -0.446264 -1.89722 0
M  V30 19311 H 1841.41 0.52488 -3.07655 0
M  V30 19312 N 1841.71 1.57497 -0.0568439 0
M  V30 19313 C 1842.95 1.94786 0.619497 0
M  V30 19314 C 1843.32 0.935411 1.67673 0
M  V30 19315 O 1844.52 1.19543 2.40755 0
M  V30 19316 C 1842.79 3.3683 1.19499 0
M  V30 19317 S 1844.35 3.9608 1.88855 0
M  V30 19318 H 1841.17 0.681327 0.20326 0
M  V30 19319 H 1843.77 1.95086 -0.127134 0
M  V30 19320 H 1842.47 4.08312 0.413488 0
M  V30 19321 H 1842 3.40038 1.97832 0
M  V30 19322 H 1844.02 3.81767 3.16967 0
M  V30 19323 N 1843.19 -0.216591 1.56105 0
M  V30 19324 C 1844.43 -0.947261 1.81125 0
M  V30 19325 C 1844.79 -1.81331 0.631108 0
M  V30 19326 O 1846 -2.57811 0.760726 0
M  V30 19327 C 1844.27 -1.75991 3.11066 0
M  V30 19328 S 1845.83 -2.54554 3.57418 0
M  V30 19329 H 1842.64 -0.318109 0.635868 0
M  V30 19330 H 1845.25 -0.212416 1.94343 0
M  V30 19331 H 1843.95 -1.1139 3.94994 0
M  V30 19332 H 1843.48 -2.53696 3.00669 0
M  V30 19333 H 1845.5 -3.78256 3.21149 0
M  V30 19334 N 1844.67 -1.5 -0.48349 0
M  V30 19335 C 1845.89 -1.64376 -1.26473 0
M  V30 19336 C 1846.32 -0.321912 -1.85325 0
M  V30 19337 O 1845.68 0.712714 -1.66704 0
M  V30 19338 C 1845.72 -2.72803 -2.35819 0
M  V30 19339 O 1844.83 -2.33194 -3.40139 0
M  V30 19340 H 1844.17 -0.549589 -0.372624 0
M  V30 19341 H 1846.7 -1.963 -0.57684 0
M  V30 19342 H 1846.71 -2.95505 -2.8132 0
M  V30 19343 H 1845.38 -3.68745 -1.92353 0
M  V30 19344 H 1843.96 -2.20891 -3.00436 0
M  V30 19345 N 1846.15 0.735796 -1.39369 0
M  V30 19346 C 1847.39 1.50799 -1.37982 0
M  V30 19347 C 1847.75 1.91984 0.0248794 0
M  V30 19348 O 1848.95 2.68301 0.163755 0
M  V30 19349 C 1847.22 2.71494 -2.32434 0
M  V30 19350 S 1848.78 3.61153 -2.49227 0
M  V30 19351 H 1845.6 0.515828 -0.489329 0
M  V30 19352 H 1848.2 0.862229 -1.75459 0
M  V30 19353 H 1846.91 2.39376 -3.33358 0
M  V30 19354 H 1846.44 3.41 -1.96169 0
M  V30 19355 H 1848.45 4.6508 -1.72959 0
M  V30 19356 N 1847.63 1.24532 0.965897 0
M  V30 19357 C 1848.87 1.08395 1.70572 0
M  V30 19358 C 1849.19 -0.377657 1.91308 0
M  V30 19359 O 1848.46 -1.26935 1.49212 0
M  V30 19360 H 1847.04 0.398123 0.632066 0
M  V30 19361 H 1849.71 1.5648 1.1619 0
M  V30 19362 H 1848.8 1.58342 2.6895 0
M  V30 19363 N 1849.1 -1.16685 1.05936 0
M  V30 19364 C 1850.33 -1.91576 0.794558 0
M  V30 19365 C 1850.75 -1.76706 -0.644718 0
M  V30 19366 O 1850.11 -1.0899 -1.44882 0
M  V30 19367 C 1850.16 -3.40417 1.18947 0
M  V30 19368 O 1849.26 -4.11109 0.326091 0
M  V30 19369 H 1848.6 -0.596983 0.290702 0
M  V30 19370 H 1851.13 -1.47856 1.4142 0
M  V30 19371 H 1851.14 -3.91178 1.15947 0
M  V30 19372 H 1849.82 -3.5056 2.23786 0
M  V30 19373 H 1848.4 -3.70557 0.417347 0
M  V30 19374 N 1850.58 -0.841432 -1.33258 0
M  V30 19375 C 1851.82 -0.444487 -1.99509 0
M  V30 19376 C 1852.19 0.978547 -1.65192 0
M  V30 19377 O 1853.39 1.47935 -2.24429 0
M  V30 19378 C 1851.66 -0.661677 -3.51222 0
M  V30 19379 S 1853.22 -0.360334 -4.37318 0
M  V30 19380 H 1850.03 -0.167079 -0.69109 0
M  V30 19381 H 1852.64 -1.09127 -1.62208 0
M  V30 19382 H 1851.34 -1.69669 -3.73685 0
M  V30 19383 H 1850.87 -0.000828389 -3.934 0
M  V30 19384 H 1852.89 0.818884 -4.89396 0
M  V30 19385 N 1852.06 1.4581 -0.598108 0
M  V30 19386 C 1853.3 2.04191 -0.0924939 0
M  V30 19387 C 1853.66 1.45764 1.24968 0
M  V30 19388 O 1854.86 1.9544 1.84545 0
M  V30 19389 C 1853.14 3.57373 -0.0438408 0
M  V30 19390 S 1854.69 4.36955 0.401961 0
M  V30 19391 H 1851.51 0.709578 -0.0449528 0
M  V30 19392 H 1854.11 1.78647 -0.794077 0
M  V30 19393 H 1852.82 3.9741 -1.02436 0
M  V30 19394 H 1852.35 3.87478 0.680033 0
M  V30 19395 H 1854.36 4.67839 1.65351 0
M  V30 19396 N 1853.54 0.336733 1.53961 0
M  V30 19397 C 1854.48 -0.523198 2.24792 0
M  V30 19398 C 1855.45 -1.10107 1.24361 0
M  V30 19399 O 1856.64 -1.13895 1.53077 0
M  V30 19400 C 1853.78 -1.67166 3.0191 0
M  V30 19401 C 1852.89 -1.12176 4.17182 0
M  V30 19402 C 1852.03 -2.23697 4.81802 0
M  V30 19403 C 1851.07 -1.66023 5.89154 0
M  V30 19404 N 1850.2 -2.7126 6.47582 0
M  V30 19405 H 1855.04 0.0873707 2.97872 0
M  V30 19406 H 1852.58 0.0548897 1.46998 0
M  V30 19407 H 1854.54 -2.34768 3.44876 0
M  V30 19408 H 1853.17 -2.25332 2.31139 0
M  V30 19409 H 1852.22 -0.336885 3.78905 0
M  V30 19410 H 1853.53 -0.659852 4.94416 0
M  V30 19411 H 1852.69 -2.99178 5.27804 0
M  V30 19412 H 1851.43 -2.7323 4.03976 0
M  V30 19413 H 1850.43 -0.890457 5.42541 0
M  V30 19414 H 1851.66 -1.17352 6.68884 0
M  V30 19415 H 1849.6 -3.20059 5.72624 0
M  V30 19416 H 1849.52 -2.29671 7.20269 0
M  V30 19417 H 1850.79 -3.4653 6.98239 0
M  V30 19418 N 1855.02 -1.57465 0.0651956 0
M  V30 19419 C 1856.26 -1.93238 -0.605428 0
M  V30 19420 C 1856.59 -0.944707 -1.70016 0
M  V30 19421 O 1855.85 0.0407499 -1.95658 0
M  V30 19422 C 1856.14 -3.35656 -1.2276 0
M  V30 19423 C 1855.81 -4.50152 -0.259667 0
M  V30 19424 C 1854.47 -4.812 0.0066384 0
M  V30 19425 C 1856.82 -5.1964 0.4029 0
M  V30 19426 C 1854.15 -5.79077 0.942709 0
M  V30 19427 C 1856.5 -6.1852 1.32725 0
M  V30 19428 C 1855.17 -6.47989 1.60209 0
M  V30 19429 H 1854.44 -0.707107 -0.221542 0
M  V30 19430 H 1857.09 -1.91026 0.134666 0
M  V30 19431 H 1855.39 -3.34301 -2.04328 0
M  V30 19432 H 1857.09 -3.60621 -1.75367 0
M  V30 19433 H 1853.68 -4.25933 -0.477412 0
M  V30 19434 H 1857.86 -4.95854 0.210267 0
M  V30 19435 H 1853.12 -6.00238 1.16296 0
M  V30 19436 H 1857.29 -6.7147 1.84664 0
M  V30 19437 H 1854.92 -7.23643 2.32904 0
M  V30 19438 N 1856.49 0.20831 -1.56217 0
M  V30 19439 C 1857.77 0.955838 -1.70655 0
M  V30 19440 C 1858.15 2.01905 -0.61624 0
M  V30 19441 O 1857.5 2.25405 0.374793 0
M  V30 19442 C 1857.71 1.55427 -3.1248 0
M  V30 19443 C 1859.06 2.04147 -3.72303 0
M  V30 19444 O 1860.08 1.65295 -3.15525 0
M  V30 19445 O 1858.94 2.75597 -4.7192 0
M  V30 19446 H 1856.03 0.447364 -0.695553 0
M  V30 19447 H 1858.58 0.199047 -1.68529 0
M  V30 19448 H 1857.35 0.787224 -3.83299 0
M  V30 19449 H 1856.97 2.37625 -3.18779 0
M  V30 19450 N 1857.97 1.50255 0.475528 0
M  V30 19451 C 1858.88 1.71573 1.6 0
M  V30 19452 C 1859.9 0.598748 1.63374 0
M  V30 19453 O 1861.07 0.876544 1.81325 0
M  V30 19454 C 1858.14 1.80117 2.96241 0
M  V30 19455 C 1857.2 3.03831 3.03291 0
M  V30 19456 C 1856.43 3.11958 4.33033 0
M  V30 19457 O 1856.66 2.26995 5.23287 0
M  V30 19458 O 1855.59 4.04647 4.45583 0
M  V30 19459 H 1859.42 2.66884 1.44937 0
M  V30 19460 H 1857 1.34298 0.654553 0
M  V30 19461 H 1858.88 1.87943 3.77167 0
M  V30 19462 H 1857.56 0.879896 3.11512 0
M  V30 19463 H 1856.46 3.01508 2.21458 0
M  V30 19464 H 1857.8 3.95523 2.92955 0
M  V30 19465 N 1859.45 -0.728395 1.39758 0
M  V30 19466 C 1860.73 -1.48036 1.27846 0
M  V30 19467 C 1861.11 -2.10818 -0.108996 0
M  V30 19468 O 1860.45 -1.99125 -1.12078 0
M  V30 19469 C 1860.66 -2.52644 2.40774 0
M  V30 19470 C 1862.01 -3.1884 2.80404 0
M  V30 19471 O 1863.04 -2.6296 2.40272 0
M  V30 19472 O 1861.9 -4.19971 3.49696 0
M  V30 19473 H 1858.99 -0.657688 0.501374 0
M  V30 19474 H 1861.54 -0.761658 1.51647 0
M  V30 19475 H 1860.31 -2.04678 3.335 0
M  V30 19476 H 1859.93 -3.32066 2.18674 0
M  V30 19477 N 1860.93 -1.25042 -0.959279 0
M  V30 19478 C 1862.2 -1.00297 -1.67928 0
M  V30 19479 C 1862.58 0.47221 -2.05751 0
M  V30 19480 O 1861.93 1.44849 -1.76723 0
M  V30 19481 C 1862.14 -1.93416 -2.90502 0
M  V30 19482 C 1863.49 -2.20992 -3.62557 0
M  V30 19483 O 1864.51 -1.91136 -3.00575 0
M  V30 19484 O 1863.37 -2.71735 -4.74154 0
M  V30 19485 H 1860.47 -0.379984 -0.734535 0
M  V30 19486 H 1863.01 -1.36177 -1.01262 0
M  V30 19487 H 1861.79 -2.93045 -2.59308 0
M  V30 19488 H 1861.41 -1.57904 -3.649 0
M  V30 19489 N 1862.41 1.16121 -1.06553 0
M  V30 19490 C 1863.63 1.91152 -0.804706 0
M  V30 19491 C 1864.06 1.77045 0.635338 0
M  V30 19492 O 1863.41 1.09757 1.44302 0
M  V30 19493 C 1863.46 3.39782 -1.20751 0
M  V30 19494 O 1862.57 4.1093 -0.347889 0
M  V30 19495 H 1861.91 0.595433 -0.293863 0
M  V30 19496 H 1864.44 1.47104 -1.42203 0
M  V30 19497 H 1864.45 3.90558 -1.1802 0
M  V30 19498 H 1863.12 3.49369 -2.25642 0
M  V30 19499 H 1861.7 3.70331 -0.436993 0
M  V30 19500 N 1863.88 0.848487 1.3281 0
M  V30 19501 C 1864.79 0.291355 2.32784 0
M  V30 19502 C 1865.81 -0.587621 1.63777 0
M  V30 19503 O 1866.99 -0.489458 1.95362 0
M  V30 19504 C 1864.05 -0.51634 3.42834 0
M  V30 19505 C 1863.11 0.388046 4.27543 0
M  V30 19506 C 1862.35 -0.381197 5.32337 0
M  V30 19507 O 1862.57 -1.61186 5.47152 0
M  V30 19508 O 1861.5 0.2498 6.01381 0
M  V30 19509 H 1865.33 1.11947 2.82315 0
M  V30 19510 H 1862.91 0.611259 1.36323 0
M  V30 19511 H 1864.8 -0.974995 4.09966 0
M  V30 19512 H 1863.47 -1.32136 2.95503 0
M  V30 19513 H 1862.38 0.894745 3.63243 0
M  V30 19514 H 1863.71 1.15808 4.78382 0
M  V30 19515 N 1865.36 -1.4549 0.605832 0
M  V30 19516 C 1866.77 -1.85775 0.18559 0
M  V30 19517 C 1867.12 -1.50638 -1.25708 0
M  V30 19518 O 1866.25 -0.932227 -1.95291 0
M  V30 19519 C 1866.84 -3.37189 0.330043 0
M  V30 19520 C 1865.4 -3.76383 -0.0354934 0
M  V30 19521 C 1864.55 -2.69446 0.655297 0
M  V30 19522 H 1867.5 -1.36316 0.812624 0
M  V30 19523 H 1867.52 -3.77968 -0.438236 0
M  V30 19524 H 1867.03 -3.62731 1.38014 0
M  V30 19525 H 1865.14 -3.56458 -1.08483 0
M  V30 19526 H 1865.25 -4.77769 0.356935 0
M  V30 19527 H 1863.61 -2.5453 0.0931235 0
M  V30 19528 H 1864.4 -2.97825 1.70749 0
M  V30 19529 N 1866.84 -0.344893 -1.5378 0
M  V30 19530 C 1868.09 0.25158 -2.01233 0
M  V30 19531 C 1868.42 1.50094 -1.23229 0
M  V30 19532 O 1867.69 1.91845 -0.320282 0
M  V30 19533 C 1867.98 0.564366 -3.5565 0
M  V30 19534 C 1867.83 -0.697186 -4.44364 0
M  V30 19535 C 1869.15 1.37343 -4.18121 0
M  V30 19536 H 1866.27 0.0899643 -0.731488 0
M  V30 19537 H 1868.91 -0.465697 -1.84204 0
M  V30 19538 H 1867.06 1.17543 -3.70292 0
M  V30 19539 H 1868.73 -1.33512 -4.41557 0
M  V30 19540 H 1866.98 -1.3218 -4.13172 0
M  V30 19541 H 1867.65 -0.433571 -5.50295 0
M  V30 19542 H 1870.12 0.85671 -4.07185 0
M  V30 19543 H 1869 1.56103 -5.26235 0
M  V30 19544 H 1869.26 2.37593 -3.7283 0
M  V30 19545 N 1868.32 1.57428 -0.0735454 0
M  V30 19546 C 1869.25 2.15849 0.890584 0
M  V30 19547 C 1870.23 1.086 1.3092 0
M  V30 19548 O 1871.41 1.36643 1.37994 0
M  V30 19549 C 1868.54 2.72153 2.15755 0
M  V30 19550 C 1867.5 3.84584 1.87827 0
M  V30 19551 C 1866.82 4.27498 3.21169 0
M  V30 19552 C 1868.12 5.08746 1.18217 0
M  V30 19553 H 1869.82 2.96663 0.403904 0
M  V30 19554 H 1867.36 1.42703 0.192836 0
M  V30 19555 H 1869.32 3.11668 2.83621 0
M  V30 19556 H 1868.04 1.88562 2.66668 0
M  V30 19557 H 1866.7 3.45575 1.22366 0
M  V30 19558 H 1866.35 3.40827 3.69927 0
M  V30 19559 H 1866.05 5.03288 3.03273 0
M  V30 19560 H 1867.57 4.69631 3.9023 0
M  V30 19561 H 1868.99 5.45566 1.76155 0
M  V30 19562 H 1867.38 5.89825 1.10573 0
M  V30 19563 H 1868.45 4.84631 0.161525 0
M  V30 19564 N 1869.8 -0.200022 1.56326 0
M  V30 19565 C 1870.74 -1.24792 1.94154 0
M  V30 19566 C 1871.71 -1.45484 0.801474 0
M  V30 19567 O 1872.9 -1.58699 1.05921 0
M  V30 19568 C 1870.04 -2.5887 2.28211 0
M  V30 19569 C 1869.15 -2.45798 3.55257 0
M  V30 19570 C 1868.29 -3.72546 3.78659 0
M  V30 19571 C 1867.33 -3.54286 4.99147 0
M  V30 19572 N 1866.46 -4.73034 5.18829 0
M  V30 19573 H 1871.3 -0.918324 2.83497 0
M  V30 19574 H 1868.84 -0.442097 1.40299 0
M  V30 19575 H 1870.8 -3.36977 2.45972 0
M  V30 19576 H 1869.43 -2.89883 1.42014 0
M  V30 19577 H 1868.48 -1.59013 3.4557 0
M  V30 19578 H 1869.79 -2.28236 4.4352 0
M  V30 19579 H 1868.95 -4.59094 3.96633 0
M  V30 19580 H 1867.68 -3.93057 2.88717 0
M  V30 19581 H 1866.69 -2.66123 4.81102 0
M  V30 19582 H 1867.91 -3.35225 5.90594 0
M  V30 19583 H 1865.86 -4.93818 4.31834 0
M  V30 19584 H 1865.78 -4.58279 6.01262 0
M  V30 19585 H 1867.05 -5.60947 5.41257 0
M  V30 19586 N 1871.27 -1.50505 -0.467553 0
M  V30 19587 C 1872.52 -1.61352 -1.21697 0
M  V30 19588 C 1872.84 -0.317583 -1.92396 0
M  V30 19589 O 1872.11 0.665123 -1.84263 0
M  V30 19590 H 1870.69 -0.594582 -0.452196 0
M  V30 19591 H 1873.36 -1.87299 -0.539 0
M  V30 19592 H 1872.45 -2.4264 -1.96296 0
M  V30 19593 N 1872.75 0.720973 -1.40142 0
M  V30 19594 C 1874 1.48297 -1.38332 0
M  V30 19595 C 1874.33 1.94193 0.0162191 0
M  V30 19596 O 1873.61 1.67781 0.983853 0
M  V30 19597 C 1873.89 2.71283 -2.36807 0
M  V30 19598 C 1873.74 2.31316 -3.85763 0
M  V30 19599 C 1875.06 3.73426 -2.32897 0
M  V30 19600 H 1872.18 0.537922 -0.503794 0
M  V30 19601 H 1874.82 0.823265 -1.71238 0
M  V30 19602 H 1872.97 3.27571 -2.08877 0
M  V30 19603 H 1874.64 1.80551 -4.24499 0
M  V30 19604 H 1872.89 1.63379 -4.01858 0
M  V30 19605 H 1873.56 3.19449 -4.50174 0
M  V30 19606 H 1876.03 3.26755 -2.57624 0
M  V30 19607 H 1874.91 4.57124 -3.03856 0
M  V30 19608 H 1875.17 4.21343 -1.33876 0
M  V30 19609 N 1874.23 1.25549 0.952634 0
M  V30 19610 C 1875.18 1.06108 2.04963 0
M  V30 19611 C 1876.15 -0.0303872 1.66072 0
M  V30 19612 O 1877.33 0.127178 1.90376 0
M  V30 19613 C 1874.47 0.68799 3.38173 0
M  V30 19614 C 1873.59 1.85452 3.90168 0
M  V30 19615 C 1872.72 1.4256 5.11713 0
M  V30 19616 C 1871.76 2.56115 5.55942 0
M  V30 19617 N 1870.9 2.13984 6.68697 0
M  V30 19618 H 1875.74 1.99991 2.20925 0
M  V30 19619 H 1873.27 0.995895 1.08261 0
M  V30 19620 H 1875.23 0.452622 4.14737 0
M  V30 19621 H 1873.86 -0.213845 3.22091 0
M  V30 19622 H 1872.91 2.20314 3.10106 0
M  V30 19623 H 1874.23 2.70722 4.1894 0
M  V30 19624 H 1873.38 1.15 5.95701 0
M  V30 19625 H 1872.12 0.54365 4.8466 0
M  V30 19626 H 1871.12 2.84417 4.70518 0
M  V30 19627 H 1872.35 3.44891 5.85002 0
M  V30 19628 H 1870.29 1.28208 6.4335 0
M  V30 19629 H 1870.21 2.92801 6.96996 0
M  V30 19630 H 1871.48 1.89605 7.56089 0
M  V30 19631 N 1875.71 -1.15554 1.07168 0
M  V30 19632 C 1876.64 -2.22387 0.71178 0
M  V30 19633 C 1877.62 -1.67435 -0.299908 0
M  V30 19634 O 1878.8 -1.93427 -0.173073 0
M  V30 19635 C 1875.93 -3.47136 0.106815 0
M  V30 19636 C 1874.89 -4.15035 1.04545 0
M  V30 19637 C 1874.21 -5.33839 0.303337 0
M  V30 19638 C 1875.51 -4.65011 2.37827 0
M  V30 19639 H 1877.21 -2.52748 1.60496 0
M  V30 19640 H 1874.75 -1.21485 0.773139 0
M  V30 19641 H 1876.71 -4.21108 -0.15689 0
M  V30 19642 H 1875.43 -3.16101 -0.821429 0
M  V30 19643 H 1874.09 -3.43001 1.29405 0
M  V30 19644 H 1873.74 -4.9906 -0.628308 0
M  V30 19645 H 1873.44 -5.8021 0.928964 0
M  V30 19646 H 1874.96 -6.10582 0.0473869 0
M  V30 19647 H 1876.38 -5.3052 2.17305 0
M  V30 19648 H 1874.77 -5.22038 2.95967 0
M  V30 19649 H 1875.84 -3.80748 3.00264 0
M  V30 19650 N 1877.19 -0.855519 -1.32358 0
M  V30 19651 C 1878.14 -0.27253 -2.26365 0
M  V30 19652 C 1879.12 0.582114 -1.50001 0
M  V30 19653 O 1880.31 0.431356 -1.71663 0
M  V30 19654 C 1877.44 0.53739 -3.39068 0
M  V30 19655 C 1876.53 -0.329689 -4.22817 0
M  V30 19656 N 1876.92 -1.41635 -4.85565 0
M  V30 19657 C 1875.22 -0.11959 -4.4584 0
M  V30 19658 C 1875.92 -1.94986 -5.48047 0
M  V30 19659 N 1874.89 -1.2489 -5.29059 0
M  V30 19660 H 1878.7 -1.10327 -2.72406 0
M  V30 19661 H 1876.21 -0.701726 -1.46457 0
M  V30 19662 H 1878.21 0.971464 -4.05423 0
M  V30 19663 H 1876.87 1.36591 -2.94572 0
M  V30 19664 H 1877.88 -1.79928 -4.8564 0
M  V30 19665 H 1874.56 0.674149 -4.12021 0
M  V30 19666 H 1875.95 -2.86078 -6.07955 0
M  V30 19667 N 1878.67 1.45167 -0.61354 0
M  V30 19668 C 1879.9 2.06266 -0.117437 0
M  V30 19669 C 1880.3 1.45784 1.20597 0
M  V30 19670 O 1879.65 0.568556 1.7468 0
M  V30 19671 C 1879.71 3.59387 0.0903205 0
M  V30 19672 C 1879.37 4.42237 -1.1522 0
M  V30 19673 C 1880.37 4.76837 -2.07177 0
M  V30 19674 C 1878.05 4.82894 -1.3827 0
M  V30 19675 C 1880.05 5.50958 -3.20506 0
M  V30 19676 C 1877.74 5.56768 -2.51899 0
M  V30 19677 C 1878.73 5.90717 -3.42845 0
M  V30 19678 O 1878.42 6.63091 -4.54495 0
M  V30 19679 H 1878.15 0.672495 -0.0687474 0
M  V30 19680 H 1880.71 1.87307 -0.842926 0
M  V30 19681 H 1878.94 3.76769 0.870766 0
M  V30 19682 H 1880.63 4.02308 0.538766 0
M  V30 19683 H 1881.39 4.4598 -1.90597 0
M  V30 19684 H 1877.27 4.55901 -0.683774 0
M  V30 19685 H 1880.82 5.77375 -3.91515 0
M  V30 19686 H 1876.71 5.8704 -2.68429 0
M  V30 19687 H 1877.48 6.81545 -4.53253 0
M  V30 19688 N 1880.14 0.353044 1.53595 0
M  V30 19689 C 1881.37 -0.241665 2.05484 0
M  V30 19690 C 1881.79 -1.43458 1.2274 0
M  V30 19691 O 1881.14 -1.80566 0.26501 0
M  V30 19692 C 1881.19 -0.647442 3.55655 0
M  V30 19693 O 1880.92 0.498047 4.3526 0
M  V30 19694 C 1882.42 -1.30187 4.23753 0
M  V30 19695 H 1879.64 -0.0449704 0.669491 0
M  V30 19696 H 1882.18 0.507783 1.98095 0
M  V30 19697 H 1880.34 -1.34682 3.63235 0
M  V30 19698 H 1880.75 0.172685 5.24216 0
M  V30 19699 H 1882.22 -1.53646 5.30186 0
M  V30 19700 H 1882.7 -2.25835 3.7669 0
M  V30 19701 H 1883.31 -0.644265 4.20392 0
M  V30 19702 O 1881.66 -1.59971 0.221725 0
M  V30 19703 H 1882.35 -1.90349 -0.35873 0
M  V30 END ATOM
M  V30 BEGIN BOND
M  V30 END BOND
M  V30 END CTAB
M  END
$$$$
