drugbank_target|P10153 Non-secretory ribonuclease (DB01812; DB02098)
 OpenBabel12092119523D

  0  0  0     0  0            999 V3000
M  V30 BEGIN CTAB
M  V30 COUNTS 2557 2589 0 0 0
M  V30 BEGIN ATOM
M  V30 1 H -0.908 1.98254 -0.117106 0
M  V30 2 N 0 1.576 0 0
M  V30 3 C 0.933 2.03868 1.02534 0
M  V30 4 C 1.911 0.928543 1.3348 0
M  V30 5 O 3.095 1.19667 1.45644 0
M  V30 6 C 0.222 2.43627 2.35294 0
M  V30 7 C -0.732 3.65373 2.2001 0
M  V30 8 S 0.101 5.13292 1.52614 0
M  V30 9 C 1.257 5.56322 2.86805 0
M  V30 10 H 1.49 2.90518 0.631377 0
M  V30 11 H -0.977 1.52953 0.210867 0
M  V30 12 H 0.981 2.67203 3.11629 0
M  V30 13 H -0.358 1.57376 2.7183 0
M  V30 14 H -1.165 3.90944 3.18086 0
M  V30 15 H -1.563 3.418 1.51819 0
M  V30 16 H 0.729 5.58782 3.83104 0
M  V30 17 H 1.672 6.56266 2.65933 0
M  V30 18 H 2.08 4.83886 2.90714 0
M  V30 19 N 1.4781 -0.272755 1.55222 0
M  V30 20 C 2.7241 -1.00581 1.761 0
M  V30 21 C 3.0571 -1.85932 0.560625 0
M  V30 22 O 2.3321 -1.89416 -0.441801 0
M  V30 23 C 2.6151 -1.88816 3.06628 0
M  V30 24 C 2.4681 -1.06457 4.37021 0
M  V30 25 C 3.7871 -2.8752 3.33197 0
M  V30 26 H 0.9061 -0.364244 0.640699 0
M  V30 27 H 3.5481 -0.278189 1.87952 0
M  V30 28 H 1.6981 -2.50856 2.96654 0
M  V30 29 H 3.3701 -0.464863 4.58952 0
M  V30 30 H 1.6131 -0.368043 4.32236 0
M  V30 31 H 2.2841 -1.71514 5.24678 0
M  V30 32 H 4.7601 -2.35615 3.42965 0
M  V30 33 H 3.6361 -3.46399 4.25792 0
M  V30 34 H 3.8971 -3.62657 2.52849 0
M  V30 35 N 2.9562 -1.48159 -0.537278 0
M  V30 36 C 4.3672 -1.49429 -1.11928 0
M  V30 37 C 4.7182 -0.26 -1.9447 0
M  V30 38 O 3.8432 0.633489 -2.0692 0
M  V30 39 C 4.4382 -2.70758 -2.03656 0
M  V30 40 C 2.9972 -2.74923 -2.57088 0
M  V30 41 C 2.1442 -2.42835 -1.3389 0
M  V30 42 H 5.0952 -1.55381 -0.322886 0
M  V30 43 H 5.1162 -2.48861 -2.87834 0
M  V30 44 H 4.6282 -3.60575 -1.43553 0
M  V30 45 H 2.7292 -1.89296 -3.20933 0
M  V30 46 H 2.8422 -3.76157 -2.9672 0
M  V30 47 H 1.2062 -1.93836 -1.65226 0
M  V30 48 H 1.9892 -3.34884 -0.755504 0
M  V30 49 N 4.4343 0.785586 -1.36625 0
M  V30 50 C 5.3813 1.89838 -1.31264 0
M  V30 51 C 6.3513 1.65115 -0.180633 0
M  V30 52 O 7.5363 1.87222 -0.36777 0
M  V30 53 C 4.6763 3.26706 -1.11163 0
M  V30 54 C 3.7893 3.63476 -2.33472 0
M  V30 55 C 2.9243 4.89481 -2.06353 0
M  V30 56 C 1.9633 5.18941 -3.24602 0
M  V30 57 N 1.1003 6.36131 -2.97123 0
M  V30 58 H 5.9403 1.93756 -2.26413 0
M  V30 59 H 3.4773 0.947454 -1.12524 0
M  V30 60 H 5.4353 4.05639 -0.975337 0
M  V30 61 H 4.0653 3.222 -0.196674 0
M  V30 62 H 3.1173 2.79636 -2.57891 0
M  V30 63 H 4.4293 3.81193 -3.21704 0
M  V30 64 H 3.5833 5.76288 -1.89675 0
M  V30 65 H 2.3223 4.73841 -1.15437 0
M  V30 66 H 1.3273 4.30615 -3.41834 0
M  V30 67 H 2.5523 5.36498 -4.16349 0
M  V30 68 H 0.4983 6.21875 -2.08823 0
M  V30 69 H 0.4153 6.54198 -3.78894 0
M  V30 70 H 1.6833 7.2591 -2.84033 0
M  V30 71 N 5.9124 1.20967 1.01018 0
M  V30 72 C 6.8424 0.988272 2.11555 0
M  V30 73 C 7.8234 -0.0849778 1.69888 0
M  V30 74 O 9.0084 0.0738202 1.9406 0
M  V30 75 C 6.1384 0.546528 3.42973 0
M  V30 76 C 5.0924 1.56375 3.9841 0
M  V30 77 C 4.4184 0.97842 5.25672 0
M  V30 78 C 5.7184 2.94922 4.31066 0
M  V30 79 H 7.4124 1.91276 2.30334 0
M  V30 80 H 4.9584 0.921073 1.1069 0
M  V30 81 H 6.9114 0.378839 4.19694 0
M  V30 82 H 5.6354 -0.413598 3.23971 0
M  V30 83 H 4.2944 1.71891 3.23804 0
M  V30 84 H 3.9424 0.0101688 5.02999 0
M  V30 85 H 3.6424 1.65784 5.63728 0
M  V30 86 H 5.1664 0.821939 6.05043 0
M  V30 87 H 6.5804 2.8288 4.9865 0
M  V30 88 H 4.9774 3.5983 4.80253 0
M  V30 89 H 6.0474 3.4616 3.39561 0
M  V30 90 N 7.3905 -1.2043 1.01659 0
M  V30 91 C 8.6375 -1.89797 0.705917 0
M  V30 92 C 8.9655 -1.78848 -0.764439 0
M  V30 93 O 8.2205 -1.16694 -1.57102 0
M  V30 94 C 8.5195 -3.40464 1.08714 0
M  V30 95 C 8.1855 -3.71614 2.5537 0
M  V30 96 C 6.8475 -3.79826 2.95441 0
M  V30 97 C 9.1995 -3.85915 3.50313 0
M  V30 98 C 6.5275 -3.99797 4.29394 0
M  V30 99 C 8.8795 -4.07396 4.83954 0
M  V30 100 C 7.5435 -4.13837 5.23732 0
M  V30 101 H 6.8135 -0.694518 0.258313 0
M  V30 102 H 9.4605 -1.42691 1.27717 0
M  V30 103 H 7.7655 -3.89385 0.434309 0
M  V30 104 H 9.4625 -3.92433 0.824461 0
M  V30 105 H 6.0525 -3.65822 2.23321 0
M  V30 106 H 10.2365 -3.78926 3.20513 0
M  V30 107 H 5.4925 -4.03018 4.59768 0
M  V30 108 H 9.6665 -4.17404 5.57447 0
M  V30 109 H 7.2935 -4.29064 6.27541 0
M  V30 110 N 8.8686 -0.792821 -1.36206 0
M  V30 111 C 10.0966 -0.378825 -2.03402 0
M  V30 112 C 10.5116 1.00586 -1.59774 0
M  V30 113 O 9.8686 1.64574 -0.788764 0
M  V30 114 C 9.9196 -0.43683 -3.58851 0
M  V30 115 O 9.6406 -1.76691 -4.00889 0
M  V30 116 C 11.1416 -0.0138943 -4.43298 0
M  V30 117 H 8.3616 -0.155673 -0.652692 0
M  V30 118 H 10.9056 -1.07261 -1.74113 0
M  V30 119 H 9.0606 0.208575 -3.86838 0
M  V30 120 H 9.4746 -1.72011 -4.95492 0
M  V30 121 H 10.9486 -0.105615 -5.51899 0
M  V30 122 H 11.4256 1.03915 -4.2673 0
M  V30 123 H 12.0316 -0.63192 -4.20579 0
M  V30 124 N 10.3467 1.47872 -0.545128 0
M  V30 125 C 11.5717 2.07391 -0.0190611 0
M  V30 126 C 11.9967 1.39688 1.25971 0
M  V30 127 O 11.3547 0.467816 1.7516 0
M  V30 128 C 11.4027 3.60188 0.172335 0
M  V30 129 O 10.5067 3.9339 1.23766 0
M  V30 130 H 9.8477 0.662411 -0.0459059 0
M  V30 131 H 12.3777 1.90066 -0.757365 0
M  V30 132 H 12.3877 4.06129 0.390305 0
M  V30 133 H 11.0627 4.08865 -0.761725 0
M  V30 134 H 9.6397 3.5921 1.00114 0
M  V30 135 N 11.8248 0.280983 1.55075 0
M  V30 136 C 12.7568 -0.637268 2.20163 0
M  V30 137 C 13.7698 -1.11298 1.18813 0
M  V30 138 O 14.9588 -1.03388 1.4551 0
M  V30 139 C 12.0588 -1.88199 2.81841 0
M  V30 140 C 11.2318 -1.55211 4.08936 0
M  V30 141 C 10.2908 -2.64991 4.54606 0
M  V30 142 O 9.3168 -2.30929 5.2025 0
M  V30 143 N 10.5188 -3.95161 4.25238 0
M  V30 144 H 13.2838 -0.0801694 2.99593 0
M  V30 145 H 10.8448 0.102329 1.61576 0
M  V30 146 H 12.8368 -2.60948 3.09335 0
M  V30 147 H 11.4068 -2.34799 2.06369 0
M  V30 148 H 10.6268 -0.658185 3.88666 0
M  V30 149 H 11.9148 -1.30681 4.91732 0
M  V30 150 H 11.3128 -4.25653 3.72607 0
M  V30 151 H 9.8698 -4.6427 4.5749 0
M  V30 152 N 13.3029 -1.57598 0.00835791 0
M  V30 153 C 14.5519 -1.90107 -0.673968 0
M  V30 154 C 14.8649 -0.884275 -1.7447 0
M  V30 155 O 16.0709 -1.09987 -2.48224 0
M  V30 156 C 14.5269 -3.37497 -1.24995 0
M  V30 157 C 14.1349 -4.47491 -0.2136 0
M  V30 158 C 15.8789 -3.79104 -1.90999 0
M  V30 159 C 13.7859 -5.85963 -0.80005 0
M  V30 160 H 12.7159 -0.709393 -0.255495 0
M  V30 161 H 15.3669 -1.83365 0.0702693 0
M  V30 162 H 13.7489 -3.39102 -2.04513 0
M  V30 163 H 14.9229 -4.57414 0.557596 0
M  V30 164 H 13.2379 -4.14956 0.346474 0
M  V30 165 H 15.8349 -4.79901 -2.35795 0
M  V30 166 H 16.1779 -3.1306 -2.74407 0
M  V30 167 H 16.7109 -3.79833 -1.18203 0
M  V30 168 H 13.4499 -6.555 -0.00456708 0
M  V30 169 H 12.9699 -5.79687 -1.54021 0
M  V30 170 H 14.6489 -6.33884 -1.29615 0
M  V30 171 N 14.781 0.264519 -1.55364 0
M  V30 172 C 16.021 1.00254 -1.78125 0
M  V30 173 C 16.385 1.83187 -0.575017 0
M  V30 174 O 17.586 2.60029 -0.681042 0
M  V30 175 C 15.857 1.85478 -3.05504 0
M  V30 176 S 17.416 2.6543 -3.49417 0
M  V30 177 H 14.234 0.337522 -0.625779 0
M  V30 178 H 16.836 0.272111 -1.93597 0
M  V30 179 H 15.54 1.23491 -3.9138 0
M  V30 180 H 15.071 2.62827 -2.92721 0
M  V30 181 H 17.086 3.87958 -3.09359 0
M  V30 182 N 16.2591 1.48442 0.529413 0
M  V30 183 C 17.1891 1.65902 1.64313 0
M  V30 184 C 18.1701 0.507897 1.6234 0
M  V30 185 O 19.3551 0.740503 1.79528 0
M  V30 186 C 16.4851 1.69911 3.02898 0
M  V30 187 C 15.4391 2.8453 3.19729 0
M  V30 188 C 14.7651 2.73629 4.59381 0
M  V30 189 C 16.0651 4.25821 3.02447 0
M  V30 190 H 17.7591 2.5914 1.49955 0
M  V30 191 H 15.3051 1.24709 0.719982 0
M  V30 192 H 17.2581 1.80715 3.80684 0
M  V30 193 H 15.9821 0.732524 3.18279 0
M  V30 194 H 14.6411 2.73283 2.44361 0
M  V30 195 H 14.2891 1.74938 4.71599 0
M  V30 196 H 13.9891 3.50541 4.71588 0
M  V30 197 H 15.5131 2.86401 5.39265 0
M  V30 198 H 16.9271 4.37898 3.70024 0
M  V30 199 H 15.3241 5.03735 3.26146 0
M  V30 200 H 16.3941 4.42244 1.98867 0
M  V30 201 N 17.7372 -0.778329 1.37039 0
M  V30 202 C 18.6672 -1.90546 1.34962 0
M  V30 203 C 19.6482 -1.68681 0.219274 0
M  V30 204 O 20.8332 -1.89634 0.418624 0
M  V30 205 C 17.9632 -3.27734 1.14925 0
M  V30 206 C 16.9172 -3.64147 2.24902 0
M  V30 207 C 16.2432 -4.99806 1.89996 0
M  V30 208 C 17.5432 -3.71579 3.67051 0
M  V30 209 H 19.2372 -1.92541 2.29277 0
M  V30 210 H 16.7832 -0.924948 1.10366 0
M  V30 211 H 18.7362 -4.06215 1.12104 0
M  V30 212 H 17.4602 -3.26154 0.170631 0
M  V30 213 H 16.1192 -2.8797 2.26868 0
M  V30 214 H 15.7672 -4.94759 0.906796 0
M  V30 215 H 15.4672 -5.25139 2.63634 0
M  V30 216 H 16.9912 -5.80694 1.88749 0
M  V30 217 H 18.4052 -4.40227 3.67251 0
M  V30 218 H 16.8022 -4.08405 4.39688 0
M  V30 219 H 17.8722 -2.72404 4.01154 0
M  V30 220 N 19.2153 -1.21501 -1.00376 0
M  V30 221 C 20.1453 -0.999478 -2.11028 0
M  V30 222 C 21.1263 0.0759671 -1.6993 0
M  V30 223 O 22.3113 -0.0841106 -1.94018 0
M  V30 224 C 19.4413 -0.564709 -3.42678 0
M  V30 225 C 18.3953 -1.58486 -3.97576 0
M  V30 226 C 17.7213 -1.00628 -5.25146 0
M  V30 227 C 19.0213 -2.97204 -4.29496 0
M  V30 228 H 20.7153 -1.92495 -2.29317 0
M  V30 229 H 18.2613 -0.92693 -1.102 0
M  V30 230 H 20.2143 -0.401091 -4.19487 0
M  V30 231 H 18.9383 0.396411 -3.24185 0
M  V30 232 H 17.5973 -1.73606 -3.22888 0
M  V30 233 H 17.2453 -0.0368439 -5.02987 0
M  V30 234 H 16.9453 -1.68771 -5.62841 0
M  V30 235 H 18.4693 -0.854015 -6.04598 0
M  V30 236 H 19.8833 -2.8552 -4.97143 0
M  V30 237 H 18.2803 -3.62372 -4.78338 0
M  V30 238 H 19.3503 -3.47956 -3.3772 0
M  V30 239 N 20.6934 1.19889 -1.02296 0
M  V30 240 C 21.6234 2.25141 -0.619174 0
M  V30 241 C 22.6044 1.66051 0.368915 0
M  V30 242 O 23.7894 1.92546 0.252941 0
M  V30 243 C 20.9194 3.4728 0.0368783 0
M  V30 244 C 19.8734 4.19005 -0.872865 0
M  V30 245 C 19.1994 5.34637 -0.0822402 0
M  V30 246 C 20.4994 4.74452 -2.18387 0
M  V30 247 H 22.1934 2.59171 -1.49903 0
M  V30 248 H 19.7394 1.24579 -0.722222 0
M  V30 249 H 21.6924 4.20098 0.330958 0
M  V30 250 H 20.4164 3.12433 0.95149 0
M  V30 251 H 19.0754 3.48061 -1.15105 0
M  V30 252 H 18.7234 4.96034 0.83422 0
M  V30 253 H 18.4234 5.83557 -0.688149 0
M  V30 254 H 19.9474 6.10255 0.205238 0
M  V30 255 H 21.3614 5.39055 -1.95172 0
M  V30 256 H 19.7584 5.33834 -2.74119 0
M  V30 257 H 20.8284 3.92844 -2.84257 0
M  V30 258 N 22.1715 0.800033 1.35784 0
M  V30 259 C 23.1015 0.220184 2.3246 0
M  V30 260 C 24.0825 -0.65073 1.57161 0
M  V30 261 O 25.2675 -0.582359 1.85263 0
M  V30 262 C 22.3975 -0.637353 3.41402 0
M  V30 263 C 21.3515 0.134531 4.27789 0
M  V30 264 C 20.6775 -0.844285 5.27992 0
M  V30 265 C 21.9775 1.32979 5.05088 0
M  V30 266 H 23.6715 1.02787 2.81203 0
M  V30 267 H 21.2175 0.495717 1.35199 0
M  V30 268 H 23.1705 -1.05302 4.08031 0
M  V30 269 H 21.8945 -1.47785 2.91251 0
M  V30 270 H 20.5535 0.531296 3.6273 0
M  V30 271 H 20.2015 -1.68011 4.74111 0
M  V30 272 H 19.9015 -0.332184 5.8666 0
M  V30 273 H 21.4255 -1.2583 5.97494 0
M  V30 274 H 22.8395 0.98934 5.64699 0
M  V30 275 H 21.2365 1.77593 5.7322 0
M  V30 276 H 22.3065 2.11978 4.36111 0
M  V30 277 N 23.6496 -1.47581 0.552962 0
M  V30 278 C 24.8976 -2.02082 0.0272703 0
M  V30 279 C 25.2186 -1.4301 -1.32563 0
M  V30 280 O 24.4886 -0.603745 -1.86365 0
M  V30 281 H 23.0686 -0.746966 0.00709182 0
M  V30 282 H 25.7306 -1.81033 0.722008 0
M  V30 283 H 24.8266 -3.12034 -0.0639951 0
M  V30 284 N 25.1277 -0.289203 -1.54924 0
M  V30 285 C 26.0577 0.58549 -2.2604 0
M  V30 286 C 27.0387 1.14753 -1.25562 0
M  V30 287 O 28.2237 1.17906 -1.54311 0
M  V30 288 C 25.3537 1.76305 -2.99222 0
M  V30 289 C 24.3077 1.33191 -4.06748 0
M  V30 290 C 23.6337 2.5937 -4.6758 0
M  V30 291 C 24.9337 0.471775 -5.20165 0
M  V30 292 H 26.6277 -0.00763532 -2.99399 0
M  V30 293 H 24.1737 -0.00511229 -1.43999 0
M  V30 294 H 26.1267 2.38097 -3.47689 0
M  V30 295 H 24.8507 2.38223 -2.23422 0
M  V30 296 H 23.5097 0.737121 -3.59113 0
M  V30 297 H 23.1577 3.19576 -3.88433 0
M  V30 298 H 22.8577 2.31228 -5.40192 0
M  V30 299 H 24.3817 3.21985 -5.18804 0
M  V30 300 H 25.7957 0.995056 -5.64599 0
M  V30 301 H 24.1927 0.284639 -5.99425 0
M  V30 302 H 25.2627 -0.506041 -4.82252 0
M  V30 303 N 26.6058 1.57591 -0.0167156 0
M  V30 304 C 27.5358 2.12496 0.967858 0
M  V30 305 C 28.5168 1.03807 1.34752 0
M  V30 306 O 29.7018 1.31577 1.42833 0
M  V30 307 C 26.8318 2.64194 2.25431 0
M  V30 308 C 25.7858 3.77559 2.01576 0
M  V30 309 C 25.1118 4.15636 3.36379 0
M  V30 310 C 26.4118 5.04151 1.36489 0
M  V30 311 H 28.1058 2.95013 0.510643 0
M  V30 312 H 25.6518 1.41915 0.244181 0
M  V30 313 H 27.6048 3.01236 2.94678 0
M  V30 314 H 26.3288 1.78821 2.73296 0
M  V30 315 H 24.9878 3.40937 1.34751 0
M  V30 316 H 24.6358 3.27263 3.81979 0
M  V30 317 H 24.3358 4.92022 3.21229 0
M  V30 318 H 25.8598 4.5525 4.06915 0
M  V30 319 H 27.2738 5.38857 1.95718 0
M  V30 320 H 25.6708 5.85453 1.31776 0
M  V30 321 H 26.7408 4.83733 0.336219 0
M  V30 322 N 28.0839 -0.256276 1.55502 0
M  V30 323 C 29.0469 -1.30047 1.88734 0
M  V30 324 C 30.0469 -1.4154 0.763086 0
M  V30 325 O 31.2369 -1.40403 1.03115 0
M  V30 326 C 28.3689 -2.67953 2.10747 0
M  V30 327 H 29.5619 -1.01802 2.82093 0
M  V30 328 H 27.1149 -0.495134 1.4825 0
M  V30 329 H 27.8499 -3.01351 1.19825 0
M  V30 330 H 27.6349 -2.60993 2.92617 0
M  V30 331 H 29.1249 -3.43368 2.37673 0
M  V30 332 N 29.562 -1.4872 -0.521534 0
M  V30 333 C 30.808 -1.574 -1.27879 0
M  V30 334 C 31.141 -0.250817 -1.92573 0
M  V30 335 O 30.416 0.743934 -1.79711 0
M  V30 336 C 30.699 -2.71843 -2.36164 0
M  V30 337 C 30.552 -4.13893 -1.76105 0
M  V30 338 C 31.871 -2.82008 -3.37875 0
M  V30 339 H 28.99 -0.572941 -0.463581 0
M  V30 340 H 31.632 -1.80927 -0.580119 0
M  V30 341 H 29.782 -2.51914 -2.95756 0
M  V30 342 H 31.454 -4.45284 -1.20499 0
M  V30 343 H 29.697 -4.20498 -1.06601 0
M  V30 344 H 30.368 -4.89804 -2.5455 0
M  V30 345 H 32.844 -3.00086 -2.88249 0
M  V30 346 H 31.72 -3.63796 -4.11028 0
M  V30 347 H 31.981 -1.90511 -3.98946 0
M  V30 348 N 31.0401 0.771051 -1.3745 0
M  V30 349 C 31.9501 1.91538 -1.35464 0
M  V30 350 C 32.9661 1.72134 -0.254123 0
M  V30 351 O 34.1421 1.95358 -0.489626 0
M  V30 352 C 31.2071 3.26671 -1.16134 0
M  V30 353 C 30.2681 3.58723 -2.35831 0
M  V30 354 C 29.5011 4.87409 -2.17413 0
M  V30 355 O 29.7241 5.58506 -1.15876 0
M  V30 356 O 28.6581 5.18539 -3.05615 0
M  V30 357 H 32.4841 1.96165 -2.31847 0
M  V30 358 H 30.0691 0.9139 -1.18187 0
M  V30 359 H 31.9511 4.07499 -1.07345 0
M  V30 360 H 30.6261 3.22894 -0.228251 0
M  V30 361 H 29.5331 2.78127 -2.50192 0
M  V30 362 H 30.8661 3.67243 -3.27709 0
M  V30 363 N 32.5182 1.22032 0.997298 0
M  V30 364 C 33.7662 1.04016 1.73278 0
M  V30 365 C 34.0872 -0.426255 1.90284 0
M  V30 366 O 33.3572 -1.30694 1.45931 0
M  V30 367 H 31.9372 0.381897 0.642 0
M  V30 368 H 34.5992 1.5347 1.20137 0
M  V30 369 H 33.6952 1.51441 2.72896 0
M  V30 370 N 33.9963 -1.19345 1.0293 0
M  V30 371 C 35.2213 -1.93538 0.745511 0
M  V30 372 C 35.6463 -1.75007 -0.689511 0
M  V30 373 O 35.0043 -1.05265 -1.47611 0
M  V30 374 C 35.0523 -3.43336 1.10239 0
M  V30 375 O 34.1563 -4.11806 0.221289 0
M  V30 376 H 33.4973 -0.604193 0.275404 0
M  V30 377 H 36.0273 -1.5141 1.37609 0
M  V30 378 H 36.0373 -3.94004 1.05947 0
M  V30 379 H 34.7123 -3.56146 2.14786 0
M  V30 380 H 33.2893 -3.715 0.322842 0
M  V30 381 N 35.4744 -0.807222 -1.35358 0
M  V30 382 C 36.4044 -0.232509 -2.3234 0
M  V30 383 C 37.3854 0.642386 -1.57504 0
M  V30 384 O 38.5704 0.572526 -1.85569 0
M  V30 385 C 35.7004 0.619238 -3.41735 0
M  V30 386 C 34.6544 -0.157215 -4.27711 0
M  V30 387 C 33.9804 0.816273 -5.28433 0
M  V30 388 C 35.2804 -1.35656 -5.04376 0
M  V30 389 H 36.9744 -1.04276 -2.80654 0
M  V30 390 H 34.5204 -0.50288 -1.34934 0
M  V30 391 H 36.4734 1.03137 -4.08584 0
M  V30 392 H 35.1974 1.46239 -2.92031 0
M  V30 393 H 33.8564 -0.550525 -3.62443 0
M  V30 394 H 33.5044 1.65494 -4.74996 0
M  V30 395 H 33.2044 0.301067 -5.86828 0
M  V30 396 H 34.7284 1.22659 -5.98153 0
M  V30 397 H 36.1424 -1.01927 -5.64166 0
M  V30 398 H 34.5394 -1.8063 -5.7227 0
M  V30 399 H 35.6094 -2.14288 -4.34981 0
M  V30 400 N 36.9525 1.47285 -0.560781 0
M  V30 401 C 37.9025 2.27073 0.205384 0
M  V30 402 C 38.8865 1.34569 0.882044 0
M  V30 403 O 40.0785 1.58899 0.77976 0
M  V30 404 C 37.2075 3.20414 1.23247 0
M  V30 405 C 36.2935 4.20399 0.559041 0
M  V30 406 N 36.6845 5.04423 -0.372927 0
M  V30 407 C 34.9825 4.38536 0.812522 0
M  V30 408 C 35.6835 5.76655 -0.764446 0
M  V30 409 N 34.6595 5.43471 -0.11848 0
M  V30 410 H 38.4615 2.89422 -0.511117 0
M  V30 411 H 35.9755 1.57868 -0.380975 0
M  V30 412 H 37.9725 3.76262 1.79534 0
M  V30 413 H 36.6325 2.59623 1.95002 0
M  V30 414 H 37.6435 5.1248 -0.747287 0
M  V30 415 H 34.3205 3.88913 1.51832 0
M  V30 416 H 35.7105 6.54238 -1.53045 0
M  V30 417 N 38.4306 0.297415 1.54768 0
M  V30 418 C 39.6766 -0.313376 2.00364 0
M  V30 419 C 40.0096 -1.53815 1.18553 0
M  V30 420 O 39.2846 -1.92739 0.261103 0
M  V30 421 C 39.5676 -0.673525 3.53745 0
M  V30 422 C 39.4206 0.560133 4.46299 0
M  V30 423 C 40.7396 -1.50143 4.13697 0
M  V30 424 H 37.8586 -0.112428 0.728374 0
M  V30 425 H 40.5006 0.4088 1.8555 0
M  V30 426 H 38.6506 -1.28881 3.665 0
M  V30 427 H 40.3226 1.19863 4.45455 0
M  V30 428 H 38.5656 1.19405 4.17043 0
M  V30 429 H 39.2366 0.26405 5.51368 0
M  V30 430 H 41.7126 -0.981588 4.04356 0
M  V30 431 H 40.5886 -1.72221 5.21182 0
M  V30 432 H 40.8496 -2.48952 3.65343 0
M  V30 433 N 39.9087 -1.5758 0.0250728 0
M  V30 434 C 40.8557 -2.09973 -0.958129 0
M  V30 435 C 41.8257 -1.00085 -1.3256 0
M  V30 436 O 43.0107 -1.27481 -1.41962 0
M  V30 437 C 40.1507 -2.62812 -2.2366 0
M  V30 438 C 39.2637 -3.86693 -1.92594 0
M  V30 439 C 38.3987 -4.27941 -3.14707 0
M  V30 440 C 37.4377 -5.44591 -2.79442 0
M  V30 441 N 36.5747 -5.81014 -3.94167 0
M  V30 442 H 41.4147 -2.937 -0.504428 0
M  V30 443 H 38.9517 -1.45172 -0.237392 0
M  V30 444 H 40.9097 -2.91536 -2.98434 0
M  V30 445 H 39.5397 -1.81922 -2.66654 0
M  V30 446 H 38.5917 -3.64723 -1.0808 0
M  V30 447 H 39.9037 -4.71547 -1.62619 0
M  V30 448 H 39.0577 -4.58079 -3.97804 0
M  V30 449 H 37.7967 -3.41845 -3.4784 0
M  V30 450 H 36.8017 -5.1415 -1.94755 0
M  V30 451 H 38.0267 -6.32382 -2.47528 0
M  V30 452 H 35.9727 -4.97874 -4.2715 0
M  V30 453 H 35.8897 -6.60498 -3.67801 0
M  V30 454 H 37.1577 -6.15756 -4.7798 0
M  V30 455 N 41.3868 0.248026 -1.55636 0
M  V30 456 C 42.7978 0.817177 -1.67866 0
M  V30 457 C 43.1488 1.86069 -0.622322 0
M  V30 458 O 42.2738 2.15157 0.231618 0
M  V30 459 C 42.8688 1.489 -3.04326 0
M  V30 460 C 41.4278 2.00587 -3.185 0
M  V30 461 C 40.5748 0.856573 -2.63739 0
M  V30 462 H 43.5258 0.0238579 -1.58682 0
M  V30 463 H 43.5468 2.35698 -2.98708 0
M  V30 464 H 43.0588 0.729279 -3.81186 0
M  V30 465 H 41.1598 2.79443 -2.4646 0
M  V30 466 H 41.2728 2.20402 -4.25393 0
M  V30 467 H 39.6368 1.25678 -2.21534 0
M  V30 468 H 40.4198 0.109953 -3.43124 0
M  V30 469 N 42.8649 1.48995 0.513639 0
M  V30 470 C 44.2759 1.5119 1.09537 0
M  V30 471 C 44.6269 0.290906 1.94031 0
M  V30 472 O 43.7519 -0.60049 2.07902 0
M  V30 473 C 44.3469 2.73964 1.99322 0
M  V30 474 C 42.9059 2.78978 2.52682 0
M  V30 475 C 42.0529 2.44934 1.30009 0
M  V30 476 H 45.0039 1.55875 0.298125 0
M  V30 477 H 45.0249 2.53409 2.83838 0
M  V30 478 H 44.5369 3.62813 1.37799 0
M  V30 479 H 42.6379 1.94378 3.1788 0
M  V30 480 H 42.7509 3.8083 2.90698 0
M  V30 481 H 41.1149 1.9644 1.62122 0
M  V30 482 H 41.8979 3.36043 0.702131 0
M  V30 483 N 44.343 -0.763751 1.37857 0
M  V30 484 C 45.275 -1.88664 1.30148 0
M  V30 485 C 46.288 -1.61365 0.215685 0
M  V30 486 O 47.477 -1.72134 0.472459 0
M  V30 487 C 44.577 -3.24075 0.991396 0
M  V30 488 C 43.75 -3.78958 2.18426 0
M  V30 489 C 42.809 -4.92862 1.8432 0
M  V30 490 O 41.835 -5.08027 2.56704 0
M  V30 491 N 43.037 -5.75071 0.792081 0
M  V30 492 H 45.802 -1.95791 2.26905 0
M  V30 493 H 43.363 -0.943226 1.31586 0
M  V30 494 H 45.355 -3.97804 0.743935 0
M  V30 495 H 43.925 -3.12399 0.112122 0
M  V30 496 H 43.145 -2.96913 2.59299 0
M  V30 497 H 44.433 -4.12357 2.98058 0
M  V30 498 H 43.831 -5.65375 0.191595 0
M  V30 499 H 42.388 -6.48991 0.60449 0
M  V30 500 N 45.8211 -1.22559 -0.990812 0
M  V30 501 C 47.0681 -1.05141 -1.73065 0
M  V30 502 C 47.3961 0.413191 -1.9006 0
M  V30 503 O 46.6511 1.32257 -1.44245 0
M  V30 504 C 46.9501 -1.71011 -3.13831 0
M  V30 505 C 46.6161 -3.20911 -3.16745 0
M  V30 506 C 45.2781 -3.61812 -3.17247 0
M  V30 507 C 47.6301 -4.16846 -3.12872 0
M  V30 508 C 44.9581 -4.97127 -3.1158 0
M  V30 509 C 47.3101 -5.5214 -3.08746 0
M  V30 510 C 45.9741 -5.92419 -3.07565 0
M  V30 511 H 45.2441 -0.384738 -0.633291 0
M  V30 512 H 47.8911 -1.5235 -1.16025 0
M  V30 513 H 46.1961 -1.16133 -3.74193 0
M  V30 514 H 47.8931 -1.55023 -3.69823 0
M  V30 515 H 44.4831 -2.88344 -3.17105 0
M  V30 516 H 48.6671 -3.86263 -3.11632 0
M  V30 517 H 43.9231 -5.27562 -3.09012 0
M  V30 518 H 48.0971 -6.26201 -3.04705 0
M  V30 519 H 45.7241 -6.97236 -3.02929 0
M  V30 520 N 47.2992 1.18797 -1.03562 0
M  V30 521 C 48.5272 1.92599 -0.755869 0
M  V30 522 C 48.9422 1.75886 0.686271 0
M  V30 523 O 48.2992 1.08517 1.46732 0
M  V30 524 C 48.3502 3.44159 -1.10619 0
M  V30 525 O 48.0712 3.60341 -2.4917 0
M  V30 526 C 49.5722 4.3507 -0.850214 0
M  V30 527 H 46.7922 0.611587 -0.276048 0
M  V30 528 H 49.3362 1.50742 -1.38192 0
M  V30 529 H 47.4912 3.83823 -0.525194 0
M  V30 530 H 47.9052 4.54128 -2.62427 0
M  V30 531 H 49.3792 5.39989 -1.14523 0
M  V30 532 H 49.8562 4.38673 0.215176 0
M  V30 533 H 50.4622 4.01097 -1.41426 0
M  V30 534 N 48.7773 0.814389 1.34928 0
M  V30 535 C 50.0233 0.408167 1.99263 0
M  V30 536 C 50.3783 -1.0154 1.63424 0
M  V30 537 O 49.6713 -1.69607 0.891289 0
M  V30 538 C 49.8653 0.537781 3.53331 0
M  V30 539 C 49.6943 1.9724 4.04137 0
M  V30 540 C 48.4643 2.60245 4.33129 0
M  V30 541 C 50.6623 2.93801 4.2212 0
M  V30 542 N 48.6443 3.95036 4.69914 0
M  V30 543 C 50.0153 4.1348 4.6199 0
M  V30 544 C 52.0703 2.9053 4.04348 0
M  V30 545 C 50.7733 5.3033 4.85945 0
M  V30 546 C 52.7993 4.06589 4.29464 0
M  V30 547 C 52.1613 5.25017 4.69613 0
M  V30 548 H 48.2603 0.197289 0.756704 0
M  V30 549 H 50.8443 1.05728 1.63492 0
M  V30 550 H 49.0153 -0.0813868 3.88315 0
M  V30 551 H 50.7473 0.105389 4.04563 0
M  V30 552 H 47.5023 2.11545 4.23728 0
M  V30 553 H 47.9263 4.64455 4.92555 0
M  V30 554 H 52.5683 2.00115 3.72443 0
M  V30 555 H 50.2863 6.21309 5.16721 0
M  V30 556 H 53.8723 4.05447 4.17257 0
M  V30 557 H 52.7523 6.1333 4.88667 0
M  V30 558 N 50.2554 -1.46986 0.568584 0
M  V30 559 C 51.2184 -2.28624 -0.162366 0
M  V30 560 C 52.2184 -1.37596 -0.832103 0
M  V30 561 O 53.4084 -1.60115 -0.68622 0
M  V30 562 C 50.5404 -3.17596 -1.23878 0
M  V30 563 H 51.7334 -2.94722 0.554899 0
M  V30 564 H 49.2864 -1.52863 0.325976 0
M  V30 565 H 50.0214 -2.56214 -1.98808 0
M  V30 566 H 49.8064 -3.846 -0.763219 0
M  V30 567 H 51.2964 -3.79078 -1.75185 0
M  V30 568 N 51.7335 -0.305618 -1.54608 0
M  V30 569 C 52.6655 0.602161 -2.21149 0
M  V30 570 C 53.6785 1.09394 -1.20569 0
M  V30 571 O 54.8675 1.0106 -1.47136 0
M  V30 572 C 51.9675 1.83692 -2.84799 0
M  V30 573 C 51.1405 1.48686 -4.11353 0
M  V30 574 C 50.1995 2.57725 -4.58764 0
M  V30 575 O 49.2255 2.22623 -5.23858 0
M  V30 576 N 50.4275 3.88346 -4.31471 0
M  V30 577 H 53.1925 0.0324966 -2.99682 0
M  V30 578 H 50.7535 -0.128021 -1.61393 0
M  V30 579 H 52.7455 2.55994 -3.13448 0
M  V30 580 H 51.3155 2.31486 -2.10078 0
M  V30 581 H 50.5355 0.596269 -3.89664 0
M  V30 582 H 51.8235 1.22842 -4.93748 0
M  V30 583 H 51.2215 4.19671 -3.79331 0
M  V30 584 H 49.7785 4.56932 -4.64818 0
M  V30 585 N 53.2116 1.57565 -0.0334293 0
M  V30 586 C 54.4576 1.93088 0.639417 0
M  V30 587 C 54.8126 0.910589 1.69488 0
M  V30 588 O 54.1056 -0.0727725 1.91462 0
M  V30 589 C 54.2996 3.33112 1.29504 0
M  V30 590 C 54.1286 4.48667 0.304604 0
M  V30 591 C 52.8986 5.05207 -0.0970777 0
M  V30 592 C 55.0966 5.1239 -0.442845 0
M  V30 593 N 53.0786 6.04286 -1.08223 0
M  V30 594 C 54.4496 6.06609 -1.28161 0
M  V30 595 C 56.5046 4.95352 -0.50308 0
M  V30 596 C 55.2076 6.85622 -2.17519 0
M  V30 597 C 57.2336 5.74978 -1.38401 0
M  V30 598 C 56.5956 6.68816 -2.21054 0
M  V30 599 H 52.6946 0.754335 0.206161 0
M  V30 600 H 55.2786 1.94435 -0.101613 0
M  V30 601 H 53.4496 3.32576 2.00618 0
M  V30 602 H 55.1816 3.55972 1.92525 0
M  V30 603 H 51.9366 4.72782 0.278255 0
M  V30 604 H 52.3606 6.58516 -1.57117 0
M  V30 605 H 57.0026 4.22625 0.121694 0
M  V30 606 H 54.7206 7.57652 -2.81049 0
M  V30 607 H 58.3066 5.63826 -1.43496 0
M  V30 608 H 57.1866 7.29355 -2.88116 0
M  V30 609 N 54.6897 -0.239769 1.55765 0
M  V30 610 C 55.9367 -0.966801 1.7793 0
M  V30 611 C 56.2647 -1.85046 0.599015 0
M  V30 612 O 55.5197 -1.91197 -0.417395 0
M  V30 613 C 55.8187 -1.852 3.05672 0
M  V30 614 C 55.4847 -1.1231 4.36689 0
M  V30 615 C 54.1467 -0.921689 4.72291 0
M  V30 616 C 56.4987 -0.607019 5.17653 0
M  V30 617 C 53.8267 -0.191996 5.86386 0
M  V30 618 C 56.1787 0.109241 6.32506 0
M  V30 619 C 54.8427 0.322073 6.66723 0
M  V30 620 H 54.1127 -0.353778 0.651093 0
M  V30 621 H 56.7597 -0.23634 1.90036 0
M  V30 622 H 55.0647 -2.64975 2.8861 0
M  V30 623 H 56.7617 -2.41635 3.20021 0
M  V30 624 H 53.3517 -1.29004 4.08725 0
M  V30 625 H 57.5357 -0.750153 4.90598 0
M  V30 626 H 52.7917 -0.0166949 6.11398 0
M  V30 627 H 56.9657 0.516737 6.9448 0
M  V30 628 H 54.5927 0.88944 7.54979 0
M  V30 629 N 56.1678 -1.49265 -0.50573 0
M  V30 630 C 57.0778 -1.68312 -1.63427 0
M  V30 631 C 58.0938 -0.565682 -1.64548 0
M  V30 632 O 59.2698 -0.839801 -1.83055 0
M  V30 633 C 56.3348 -1.74107 -2.99813 0
M  V30 634 C 55.3958 -2.97653 -3.09356 0
M  V30 635 C 54.6288 -3.03163 -4.39236 0
M  V30 636 O 54.8518 -2.16396 -5.27758 0
M  V30 637 O 53.7858 -3.9558 -4.53652 0
M  V30 638 H 57.6118 -2.63907 -1.50289 0
M  V30 639 H 55.1968 -1.32951 -0.681502 0
M  V30 640 H 57.0788 -1.803 -3.80881 0
M  V30 641 H 55.7538 -0.816901 -3.13223 0
M  V30 642 H 54.6608 -2.96981 -2.27493 0
M  V30 643 H 55.9938 -3.89535 -3.00871 0
M  V30 644 N 57.6459 0.756429 -1.3826 0
M  V30 645 C 58.8739 1.54565 -1.3754 0
M  V30 646 C 59.2889 1.88767 0.0355331 0
M  V30 647 O 58.6459 1.52572 1.0014 0
M  V30 648 C 58.6969 2.84654 -2.22833 0
M  V30 649 O 58.4179 2.51912 -3.5843 0
M  V30 650 C 59.9189 3.78807 -2.30261 0
M  V30 651 H 57.1389 0.478353 -0.470553 0
M  V30 652 H 59.6829 0.936381 -1.81803 0
M  V30 653 H 57.8379 3.41965 -1.8204 0
M  V30 654 H 58.2519 3.35325 -4.03308 0
M  V30 655 H 59.7259 4.67045 -2.94233 0
M  V30 656 H 60.2029 4.19038 -1.31545 0
M  V30 657 H 60.8089 3.2742 -2.71433 0
M  V30 658 N 59.124 1.23083 0.984299 0
M  V30 659 C 60.056 0.96636 2.07832 0
M  V30 660 C 61.069 -0.0582135 1.62696 0
M  V30 661 O 62.258 0.176843 1.77622 0
M  V30 662 C 59.358 0.433397 3.36117 0
M  V30 663 C 58.531 1.51722 4.10243 0
M  V30 664 C 57.59 0.989821 5.16807 0
M  V30 665 O 56.616 1.67794 5.43906 0
M  V30 666 N 57.818 -0.184367 5.80207 0
M  V30 667 H 60.583 1.90824 2.31098 0
M  V30 668 H 58.144 1.13888 1.1507 0
M  V30 669 H 60.136 0.065699 4.04647 0
M  V30 670 H 58.706 -0.413806 3.09849 0
M  V30 671 H 57.926 2.05786 3.36223 0
M  V30 672 H 59.214 2.24619 4.56534 0
M  V30 673 H 58.612 -0.760062 5.60571 0
M  V30 674 H 57.169 -0.493366 6.4993 0
M  V30 675 N 60.6021 -1.18246 1.0419 0
M  V30 676 C 61.5521 -2.19843 0.604392 0
M  V30 677 C 62.5361 -1.56962 -0.353814 0
M  V30 678 O 63.7281 -1.76156 -0.17267 0
M  V30 679 C 60.8571 -3.43287 -0.0298975 0
M  V30 680 C 59.9431 -4.13288 0.951531 0
M  V30 681 N 60.3341 -4.59271 2.11906 0
M  V30 682 C 58.6321 -4.39165 0.7778 0
M  V30 683 C 59.3331 -5.13173 2.73912 0
M  V30 684 N 58.3091 -5.04763 2.01779 0
M  V30 685 H 62.1111 -2.53089 1.4941 0
M  V30 686 H 59.6251 -1.34465 0.910658 0
M  V30 687 H 61.6221 -4.15334 -0.361037 0
M  V30 688 H 60.2821 -3.11537 -0.915127 0
M  V30 689 H 61.2931 -4.5368 2.49789 0
M  V30 690 H 57.9701 -4.17461 -0.0572331 0
M  V30 691 H 59.3601 -5.58947 3.72864 0
M  V30 692 N 62.0802 -0.821533 -1.34494 0
M  V30 693 C 63.3292 -0.405355 -1.97585 0
M  V30 694 C 63.6422 1.03677 -1.65863 0
M  V30 695 O 64.8482 1.55679 -2.22433 0
M  V30 696 C 63.3042 -0.673861 -3.53535 0
M  V30 697 C 62.9122 -2.12951 -3.94152 0
M  V30 698 C 64.6562 -0.32378 -4.23263 0
M  V30 699 C 62.5632 -2.34298 -5.43009 0
M  V30 700 H 61.4932 -0.147836 -0.739365 0
M  V30 701 H 64.1442 -1.00769 -1.53355 0
M  V30 702 H 62.5262 -0.00137554 -3.96 0
M  V30 703 H 63.7002 -2.84104 -3.62797 0
M  V30 704 H 62.0152 -2.44089 -3.37356 0
M  V30 705 H 64.6122 -0.461126 -5.32708 0
M  V30 706 H 64.9552 0.731586 -4.09821 0
M  V30 707 H 65.4882 -0.950786 -3.8627 0
M  V30 708 H 62.2272 -3.38335 -5.61435 0
M  V30 709 H 61.7472 -1.67687 -5.75883 0
M  V30 710 H 63.4262 -2.16588 -6.09671 0
M  V30 711 N 63.5583 1.46682 -0.576371 0
M  V30 712 C 64.5063 2.31953 0.17335 0
M  V30 713 C 65.5003 1.44098 0.89062 0
M  V30 714 O 66.7063 1.60759 0.809728 0
M  V30 715 H 63.0813 0.748273 0.0747727 0
M  V30 716 H 65.0523 2.93007 -0.564738 0
M  V30 717 C 63.8013 3.27142 1.17786 0
M  V30 718 H 63.1243 3.94719 0.635361 0
M  V30 719 H 64.5643 3.896 1.67296 0
M  V30 720 C 63.0233 2.52036 2.23561 0
M  V30 721 O 63.5533 2.27877 3.3081 0
M  V30 722 N 61.7593 2.12709 1.97998 0
M  V30 723 H 61.3063 2.32557 1.10792 0
M  V30 724 H 61.2643 1.62776 2.68982 0
M  V30 725 N 65.0364 0.313813 1.54444 0
M  V30 726 C 65.9694 -0.598866 2.20202 0
M  V30 727 C 66.9474 -1.12318 1.17573 0
M  V30 728 O 68.1314 -1.18899 1.46271 0
M  V30 729 C 65.2584 -1.82071 2.85601 0
M  V30 730 C 64.3044 -1.42851 4.01865 0
M  V30 731 S 65.1374 -0.473512 5.33402 0
M  V30 732 C 66.2934 -1.70286 6.0229 0
M  V30 733 H 66.5264 -0.0402532 2.97273 0
M  V30 734 H 64.0594 0.0979165 1.54089 0
M  V30 735 H 66.0174 -2.52184 3.23904 0
M  V30 736 H 64.6784 -2.3505 2.08351 0
M  V30 737 H 63.8714 -2.33871 4.46453 0
M  V30 738 H 63.4734 -0.807198 3.65185 0
M  V30 739 H 65.7654 -2.64168 6.23876 0
M  V30 740 H 66.7084 -1.29932 6.96077 0
M  V30 741 H 67.1164 -1.88541 5.32083 0
M  V30 742 N 66.5145 -1.57545 0.0417849 0
M  V30 743 C 67.7425 -1.96624 -0.643928 0
M  V30 744 C 68.1575 -0.918897 -1.64929 0
M  V30 745 O 67.5145 0.0979323 -1.82237 0
M  V30 746 C 67.5655 -3.35781 -1.33914 0
M  V30 747 O 67.2865 -4.365 -0.374048 0
M  V30 748 C 68.7875 -3.89566 -2.1155 0
M  V30 749 H 66.0075 -0.647316 -0.176702 0
M  V30 750 H 68.5515 -2.04229 0.105304 0
M  V30 751 H 66.7065 -3.29357 -2.03968 0
M  V30 752 H 67.1205 -5.17248 -0.869179 0
M  V30 753 H 68.5945 -4.89242 -2.55628 0
M  V30 754 H 69.0715 -3.24488 -2.9598 0
M  V30 755 H 69.6775 -3.99298 -1.46427 0
M  V30 756 N 67.9926 0.231505 -1.5589 0
M  V30 757 C 69.2176 0.978689 -1.82856 0
M  V30 758 C 69.6426 1.77559 -0.620846 0
M  V30 759 O 69.0006 1.76119 0.430305 0
M  V30 760 C 69.0486 1.87997 -3.07716 0
M  V30 761 O 68.1526 2.97393 -2.85712 0
M  V30 762 H 67.4936 0.277663 -0.603158 0
M  V30 763 H 70.0236 0.24783 -2.03093 0
M  V30 764 H 70.0336 2.2917 -3.37558 0
M  V30 765 H 68.7086 1.29417 -3.95252 0
M  V30 766 H 67.2856 2.60238 -2.67078 0
M  V30 767 N 69.4707 1.49531 0.497807 0
M  V30 768 C 70.4027 1.62559 1.61578 0
M  V30 769 C 71.4157 0.508134 1.54667 0
M  V30 770 O 72.6047 0.780309 1.60541 0
M  V30 771 C 69.7047 1.56925 3.00379 0
M  V30 772 C 68.8777 2.84257 3.3244 0
M  V30 773 C 67.9367 2.71632 4.50669 0
M  V30 774 O 66.9627 3.4557 4.52294 0
M  V30 775 N 68.1647 1.83391 5.5077 0
M  V30 776 H 70.9297 2.58981 1.50828 0
M  V30 777 H 68.4907 1.4666 0.685743 0
M  V30 778 H 70.4827 1.46129 3.77397 0
M  V30 779 H 69.0527 0.683483 3.05037 0
M  V30 780 H 68.2727 3.09381 2.44289 0
M  V30 781 H 69.5607 3.68666 3.5066 0
M  V30 782 H 68.9587 1.22583 5.52259 0
M  V30 783 H 67.5157 1.78515 6.26878 0
M  V30 784 N 70.9488 -0.749086 1.3866 0
M  V30 785 C 71.8808 -1.87273 1.32142 0
M  V30 786 C 72.8938 -1.61127 0.232787 0
M  V30 787 O 74.0828 -1.71623 0.49069 0
M  V30 788 C 71.1828 -3.23005 1.02571 0
M  V30 789 C 70.3558 -3.7662 2.22433 0
M  V30 790 C 69.4148 -4.90879 1.89537 0
M  V30 791 O 68.4408 -5.05276 2.62078 0
M  V30 792 N 69.6428 -5.74198 0.853031 0
M  V30 793 H 72.4078 -1.93373 2.28969 0
M  V30 794 H 69.9688 -0.929216 1.32579 0
M  V30 795 H 71.9608 -3.96992 0.786085 0
M  V30 796 H 70.5308 -3.12262 0.145249 0
M  V30 797 H 69.7508 -2.94147 2.62434 0
M  V30 798 H 71.0388 -4.09173 3.02415 0
M  V30 799 H 70.4368 -5.6514 0.25155 0
M  V30 800 H 68.9938 -6.48313 0.67329 0
M  V30 801 N 72.4269 -1.23603 -0.977757 0
M  V30 802 C 73.6669 -1.08148 -1.73446 0
M  V30 803 C 74.0309 0.374785 -1.88307 0
M  V30 804 O 75.2319 0.650588 -2.60808 0
M  V30 805 C 73.5029 -1.78991 -3.0935 0
M  V30 806 S 75.0619 -1.79141 -4.00567 0
M  V30 807 H 71.8799 -0.386987 -0.596458 0
M  V30 808 H 74.4819 -1.5678 -1.16792 0
M  V30 809 H 73.1859 -2.8408 -2.96187 0
M  V30 810 H 72.7169 -1.30651 -3.71071 0
M  V30 811 H 74.7319 -0.851892 -4.88833 0
M  V30 812 N 73.905 1.17692 -1.04816 0
M  V30 813 C 75.133 1.91786 -0.776254 0
M  V30 814 C 75.548 1.76604 0.667577 0
M  V30 815 O 74.905 1.10067 1.45573 0
M  V30 816 C 74.956 3.42967 -1.14263 0
M  V30 817 O 74.677 3.57678 -2.52978 0
M  V30 818 C 76.178 4.34144 -0.896311 0
M  V30 819 H 73.398 0.608624 -0.282519 0
M  V30 820 H 75.942 1.49268 -1.39783 0
M  V30 821 H 74.097 3.83245 -0.565874 0
M  V30 822 H 74.511 4.51319 -2.67229 0
M  V30 823 H 75.985 5.38744 -1.20244 0
M  V30 824 H 76.462 4.38876 0.168636 0
M  V30 825 H 77.068 3.99574 -1.45672 0
M  V30 826 N 75.3831 0.828654 1.34056 0
M  V30 827 C 76.3311 0.242973 2.31327 0
M  V30 828 C 77.3251 -0.61944 1.57668 0
M  V30 829 O 78.5311 -0.51014 1.7262 0
M  V30 830 H 74.9061 0.059834 0.749616 0
M  V30 831 H 76.8771 1.07809 2.78244 0
M  V30 832 C 75.6261 -0.575733 3.429 0
M  V30 833 H 74.9491 0.0785582 3.99723 0
M  V30 834 H 76.3891 -0.951547 4.13185 0
M  V30 835 C 74.8481 -1.75044 2.87856 0
M  V30 836 O 75.3781 -2.84882 2.83205 0
M  V30 837 N 73.5841 -1.56903 2.44602 0
M  V30 838 H 73.1311 -0.675547 2.48584 0
M  V30 839 H 73.0891 -2.35652 2.08124 0
M  V30 840 N 76.8612 -1.46375 0.584142 0
M  V30 841 C 77.8242 -2.28784 -0.138108 0
M  V30 842 C 78.8242 -1.38471 -0.817462 0
M  V30 843 O 80.0142 -1.60833 -0.669199 0
M  V30 844 C 77.1462 -3.18892 -1.20503 0
M  V30 845 H 78.3392 -2.94117 0.586127 0
M  V30 846 H 75.8922 -1.52509 0.342171 0
M  V30 847 H 76.6272 -2.58309 -1.96079 0
M  V30 848 H 76.4122 -3.85388 -0.722384 0
M  V30 849 H 77.9022 -3.80914 -1.71155 0
M  V30 850 N 78.3393 -0.321999 -1.54275 0
M  V30 851 C 79.2723 0.58718 -2.20516 0
M  V30 852 C 80.2503 1.11693 -1.18167 0
M  V30 853 O 81.4343 1.18122 -1.46899 0
M  V30 854 C 78.5613 1.80554 -2.86562 0
M  V30 855 C 77.6073 1.40718 -4.02617 0
M  V30 856 S 78.4403 0.445218 -5.33646 0
M  V30 857 C 79.5963 1.6709 -6.03185 0
M  V30 858 H 79.8293 0.0244875 -2.9729 0
M  V30 859 H 77.3623 -0.106087 -1.54035 0
M  V30 860 H 79.3203 2.50462 -3.25237 0
M  V30 861 H 77.9813 2.33942 -2.09595 0
M  V30 862 H 77.1743 2.31501 -4.47687 0
M  V30 863 H 76.7763 0.78782 -3.65608 0
M  V30 864 H 79.0683 2.60856 -6.25268 0
M  V30 865 H 80.0113 1.26239 -6.96756 0
M  V30 866 H 80.4193 1.85716 -5.33076 0
M  V30 867 N 79.8174 1.5752 -0.0501392 0
M  V30 868 C 80.7494 2.08413 0.95376 0
M  V30 869 C 81.7624 1.01175 1.27544 0
M  V30 870 O 82.9514 1.28744 1.23641 0
M  V30 871 C 80.0514 2.51138 2.27559 0
M  V30 872 C 79.2244 3.817 2.13598 0
M  V30 873 C 78.2834 4.10749 3.28895 0
M  V30 874 O 77.3094 4.80685 3.04845 0
M  V30 875 N 78.5114 3.62579 4.5334 0
M  V30 876 H 81.2764 2.95165 0.519383 0
M  V30 877 H 78.8374 1.61327 0.136127 0
M  V30 878 H 80.8294 2.67648 3.03557 0
M  V30 879 H 79.3994 1.6964 2.62567 0
M  V30 880 H 78.6194 3.74782 1.22197 0
M  V30 881 H 79.9074 4.67201 2.01496 0
M  V30 882 H 79.3054 3.06039 4.75769 0
M  V30 883 H 77.8624 3.84329 5.26436 0
M  V30 884 N 81.2955 -0.223234 1.56011 0
M  V30 885 C 82.5415 -0.949279 1.79211 0
M  V30 886 C 82.8745 -1.84054 0.619494 0
M  V30 887 O 82.1495 -1.90726 -0.381317 0
M  V30 888 C 82.4325 -1.78965 3.12479 0
M  V30 889 C 82.2855 -0.924997 4.40186 0
M  V30 890 C 83.6045 -2.76774 3.42175 0
M  V30 891 H 80.7235 -0.343676 0.651963 0
M  V30 892 H 83.3655 -0.218253 1.88742 0
M  V30 893 H 81.5155 -2.41291 3.04485 0
M  V30 894 H 83.1875 -0.318615 4.60198 0
M  V30 895 H 81.4305 -0.230344 4.33188 0
M  V30 896 H 82.1015 -1.54735 5.29869 0
M  V30 897 H 84.5775 -2.24584 3.50287 0
M  V30 898 H 83.4535 -3.32678 4.36597 0
M  V30 899 H 83.7145 -3.54429 2.64258 0
M  V30 900 N 82.7736 -1.49793 -0.48987 0
M  V30 901 C 84.0226 -1.59085 -1.23995 0
M  V30 902 C 84.3356 -0.287907 -1.9347 0
M  V30 903 O 85.5416 -0.259506 -2.70257 0
M  V30 904 C 83.9976 -2.80736 -2.252 0
M  V30 905 C 83.6056 -4.17833 -1.61614 0
M  V30 906 C 85.3496 -2.99364 -3.00967 0
M  V30 907 C 83.2566 -5.30693 -2.60996 0
M  V30 908 H 82.1866 -0.592372 -0.466488 0
M  V30 909 H 84.8376 -1.76197 -0.51252 0
M  V30 910 H 83.2196 -2.57142 -3.01154 0
M  V30 911 H 84.3936 -4.51608 -0.915774 0
M  V30 912 H 82.7086 -4.04656 -0.981977 0
M  V30 913 H 85.3056 -3.80851 -3.75308 0
M  V30 914 H 85.6486 -2.10356 -3.59244 0
M  V30 915 H 86.1816 -3.2305 -2.32128 0
M  V30 916 H 82.9206 -6.21796 -2.07485 0
M  V30 917 H 82.4406 -5.01359 -3.2924 0
M  V30 918 H 84.1196 -5.6049 -3.23202 0
M  V30 919 N 84.2517 0.741722 -1.39055 0
M  V30 920 C 85.1997 1.87702 -1.3737 0
M  V30 921 C 86.1937 1.67427 -0.257812 0
M  V30 922 O 87.3997 1.7485 -0.427489 0
M  V30 923 H 83.7747 0.617757 -0.428812 0
M  V30 924 H 85.7457 1.86239 -2.33147 0
M  V30 925 C 84.4947 3.25315 -1.22741 0
M  V30 926 H 83.8177 3.41509 -2.07873 0
M  V30 927 H 85.2577 4.04964 -1.25618 0
M  V30 928 C 83.7167 3.36838 0.0647316 0
M  V30 929 O 84.2467 3.88073 1.03741 0
M  V30 930 N 82.4527 2.90329 0.125544 0
M  V30 931 H 81.9997 2.48823 -0.666682 0
M  V30 932 H 81.9577 2.98418 0.989639 0
M  V30 933 N 85.7298 1.2412 0.971189 0
M  V30 934 C 86.6778 1.02812 2.08644 0
M  V30 935 C 87.6718 -0.0358403 1.69362 0
M  V30 936 O 88.8778 0.118429 1.7961 0
M  V30 937 H 85.2528 0.315428 0.682649 0
M  V30 938 H 87.2238 1.97397 2.23779 0
M  V30 939 C 85.9728 0.645874 3.41649 0
M  V30 940 H 85.2958 1.45632 3.72332 0
M  V30 941 H 86.7358 0.536366 4.20594 0
M  V30 942 C 85.1948 -0.646713 3.30635 0
M  V30 943 O 85.7248 -1.69338 3.64263 0
M  V30 944 N 83.9308 -0.626115 2.83775 0
M  V30 945 H 83.4778 0.225988 2.56607 0
M  V30 946 H 83.4358 -1.49117 2.76788 0
M  V30 947 N 87.2079 -1.17134 1.05439 0
M  V30 948 C 88.4379 -1.91094 0.785274 0
M  V30 949 C 88.8459 -1.77198 -0.663142 0
M  V30 950 O 88.1889 -1.10835 -1.46497 0
M  V30 951 C 88.2509 -3.42594 1.08949 0
M  V30 952 C 87.9149 -3.80274 2.53458 0
M  V30 953 C 88.9119 -3.82912 3.51673 0
M  V30 954 C 86.5969 -4.11162 2.88532 0
M  V30 955 C 88.5909 -4.15913 4.83006 0
M  V30 956 C 86.2779 -4.43831 4.20068 0
M  V30 957 C 87.2759 -4.46185 5.17115 0
M  V30 958 O 86.9639 -4.78083 6.46291 0
M  V30 959 H 86.6959 -0.613073 0.284811 0
M  V30 960 H 89.2499 -1.49461 1.40893 0
M  V30 961 H 87.4799 -3.84534 0.408741 0
M  V30 962 H 89.1689 -3.97817 0.805991 0
M  V30 963 H 89.9349 -3.5917 3.25917 0
M  V30 964 H 85.8139 -4.085 2.13656 0
M  V30 965 H 89.3579 -4.17665 5.5875 0
M  V30 966 H 85.2549 -4.67037 4.45586 0
M  V30 967 H 86.0229 -4.9593 6.51149 0
M  V30 968 N 88.686 -0.835752 -1.33615 0
M  V30 969 C 89.618 -0.224151 -2.28101 0
M  V30 970 C 90.631 0.593331 -1.51603 0
M  V30 971 O 91.82 0.420911 -1.73466 0
M  V30 972 C 88.92 0.703309 -3.31522 0
M  V30 973 C 88.093 -0.0741528 -4.37337 0
M  V30 974 C 87.152 0.776176 -5.20444 0
M  V30 975 O 86.178 0.216506 -5.68788 0
M  V30 976 N 87.38 2.09401 -5.41416 0
M  V30 977 H 90.145 -1.03598 -2.81225 0
M  V30 978 H 87.706 -0.69392 -1.46275 0
M  V30 979 H 89.698 1.27707 -3.84022 0
M  V30 980 H 88.268 1.41585 -2.78698 0
M  V30 981 H 87.488 -0.82928 -3.85378 0
M  V30 982 H 88.776 -0.608863 -5.05144 0
M  V30 983 H 88.174 2.57229 -5.03835 0
M  V30 984 H 86.731 2.61633 -5.96985 0
M  V30 985 N 90.1641 1.46063 -0.591896 0
M  V30 986 C 91.5801 1.57561 -0.254288 0
M  V30 987 C 91.7801 1.58565 1.24336 0
M  V30 988 O 90.8361 1.50753 2.02558 0
M  V30 989 C 92.1491 2.86549 -0.911611 0
M  V30 990 C 93.6971 3.00197 -0.886059 0
M  V30 991 C 94.1721 4.31933 -1.5231 0
M  V30 992 N 95.6631 4.38654 -1.48786 0
M  V30 993 C 96.3981 5.39222 -1.95006 0
M  V30 994 N 95.8941 6.46414 -2.49241 0
M  V30 995 N 97.6871 5.3048 -1.85868 0
M  V30 996 H 89.8381 1.43655 -1.56451 0
M  V30 997 H 92.1011 0.68583 -0.654478 0
M  V30 998 H 91.8071 2.91651 -1.96551 0
M  V30 999 H 91.6811 3.74794 -0.425368 0
M  V30 1000 H 94.0681 2.9467 0.159246 0
M  V30 1001 H 94.1491 2.13403 -1.41041 0
M  V30 1002 H 93.7931 4.38217 -2.56765 0
M  V30 1003 H 93.7231 5.17516 -0.973891 0
M  V30 1004 H 96.2141 3.61793 -1.09151 0
M  V30 1005 H 96.5271 7.19376 -2.82344 0
M  V30 1006 H 94.8721 6.47208 -2.53272 0
M  V30 1007 H 98.0631 4.45643 -1.43248 0
M  V30 1008 H 98.2361 6.08711 -2.22204 0
M  V30 1009 N 91.6422 0.330177 1.54103 0
M  V30 1010 C 93.0582 -0.0222371 1.59585 0
M  V30 1011 C 93.2582 -1.49902 1.34654 0
M  V30 1012 O 92.3142 -2.25592 1.13421 0
M  V30 1013 C 93.6272 0.401932 2.98002 0
M  V30 1014 C 95.1752 0.353145 3.11001 0
M  V30 1015 C 95.6502 0.752576 4.51775 0
M  V30 1016 N 97.1412 0.706239 4.57784 0
M  V30 1017 C 97.8762 0.987417 5.64834 0
M  V30 1018 N 97.3722 1.33607 6.79795 0
M  V30 1019 N 99.1652 0.91254 5.54643 0
M  V30 1020 H 91.3162 1.29228 1.68564 0
M  V30 1021 H 93.5792 0.525906 0.78875 0
M  V30 1022 H 93.2852 1.4311 3.21267 0
M  V30 1023 H 93.1592 -0.229699 3.765 0
M  V30 1024 H 95.5462 -0.666822 2.87467 0
M  V30 1025 H 95.6272 1.0198 2.34593 0
M  V30 1026 H 95.2712 1.77049 4.76042 0
M  V30 1027 H 95.2012 0.0635409 5.26562 0
M  V30 1028 H 97.6922 0.44889 3.75224 0
M  V30 1029 H 98.0052 1.53582 7.57385 0
M  V30 1030 H 96.3502 1.37439 6.81275 0
M  V30 1031 H 99.5412 0.639601 4.6371 0
M  V30 1032 H 99.7142 1.13503 6.37982 0
M  V30 1033 N 93.1203 -1.57491 0.0584922 0
M  V30 1034 C 94.3603 -1.94851 -0.617458 0
M  V30 1035 C 94.7243 -0.937165 -1.67575 0
M  V30 1036 O 95.9253 -1.19795 -2.40629 0
M  V30 1037 C 94.1963 -3.36955 -1.19147 0
M  V30 1038 S 95.7553 -3.96277 -1.8844 0
M  V30 1039 H 92.5733 -0.681539 -0.202547 0
M  V30 1040 H 95.1753 -1.95073 0.129176 0
M  V30 1041 H 93.8793 -4.08355 -0.409215 0
M  V30 1042 H 93.4103 -3.40245 -1.97476 0
M  V30 1043 H 95.4253 -3.82099 -3.16568 0
M  V30 1044 N 94.5984 0.214957 -1.56127 0
M  V30 1045 C 95.5454 1.26642 -1.92952 0
M  V30 1046 C 96.5154 1.46244 -0.78753 0
M  V30 1047 O 97.7004 1.59704 -1.04399 0
M  V30 1048 C 94.8404 2.6104 -2.25726 0
M  V30 1049 C 93.9534 2.49183 -3.52891 0
M  V30 1050 C 93.0884 3.76149 -3.7508 0
M  V30 1051 C 92.1274 3.59041 -4.95738 0
M  V30 1052 N 91.2644 4.77972 -5.14283 0
M  V30 1053 H 96.1044 0.945384 -2.82607 0
M  V30 1054 H 93.6414 0.455489 -1.3987 0
M  V30 1055 H 95.5994 3.39313 -2.42739 0
M  V30 1056 H 94.2294 2.91227 -1.39236 0
M  V30 1057 H 93.2814 1.6231 -3.44034 0
M  V30 1058 H 94.5934 2.32466 -4.41318 0
M  V30 1059 H 93.7474 4.62865 -3.92226 0
M  V30 1060 H 92.4864 3.95799 -2.84947 0
M  V30 1061 H 91.4914 2.7071 -4.78535 0
M  V30 1062 H 92.7164 3.40856 -5.87362 0
M  V30 1063 H 90.6624 4.97923 -4.27093 0
M  V30 1064 H 90.5794 4.64006 -5.96853 0
M  V30 1065 H 91.8474 5.66096 -5.35869 0
M  V30 1066 N 96.0765 1.50051 0.48192 0
M  V30 1067 C 97.0245 1.68635 1.60203 0
M  V30 1068 C 98.0185 0.552184 1.60148 0
M  V30 1069 O 99.2245 0.732377 1.64427 0
M  V30 1070 H 95.5995 0.532081 0.531407 0
M  V30 1071 H 97.5705 2.62616 1.41688 0
M  V30 1072 C 96.3195 1.78775 2.9822 0
M  V30 1073 H 95.6425 2.6543 2.98976 0
M  V30 1074 H 97.0825 1.95806 3.7608 0
M  V30 1075 C 95.5415 0.536849 3.32595 0
M  V30 1076 O 96.0715 -0.328897 4.00351 0
M  V30 1077 N 94.2775 0.394091 2.87915 0
M  V30 1078 H 93.8245 1.09962 2.32951 0
M  V30 1079 H 93.7825 -0.441737 3.11281 0
M  V30 1080 N 97.5546 -0.734337 1.39446 0
M  V30 1081 C 98.4866 -1.85861 1.34121 0
M  V30 1082 C 99.4996 -1.60871 0.249864 0
M  V30 1083 O 100.689 -1.71093 0.508865 0
M  V30 1084 C 97.7886 -3.21899 1.05991 0
M  V30 1085 C 96.9616 -3.74239 2.26415 0
M  V30 1086 C 96.0206 -4.88841 1.94733 0
M  V30 1087 O 95.0466 -5.02468 2.67422 0
M  V30 1088 N 96.2486 -5.73261 0.913884 0
M  V30 1089 H 99.0136 -1.90934 2.31007 0
M  V30 1090 H 96.5746 -0.915102 1.33557 0
M  V30 1091 H 98.5666 -3.96136 0.828147 0
M  V30 1092 H 97.1366 -3.12091 0.178361 0
M  V30 1093 H 96.3566 -2.91347 2.65539 0
M  V30 1094 H 97.6446 -4.05942 3.06738 0
M  V30 1095 H 97.0426 -5.64842 0.311476 0
M  V30 1096 H 95.5996 -6.47563 0.742015 0
M  V30 1097 N 99.0327 -1.24633 -0.964593 0
M  V30 1098 C 99.9807 -1.03917 -2.08096 0
M  V30 1099 C 100.975 0.0268581 -1.69379 0
M  V30 1100 O 102.181 -0.127952 -1.79545 0
M  V30 1101 H 98.5557 -0.319044 -0.680966 0
M  V30 1102 H 100.527 -1.98581 -2.22729 0
M  V30 1103 C 99.2757 -0.663983 -3.41301 0
M  V30 1104 H 98.5987 -1.47605 -3.71555 0
M  V30 1105 H 100.039 -0.558663 -4.20303 0
M  V30 1106 C 98.4977 0.629169 -3.30973 0
M  V30 1107 O 99.0277 1.67404 -3.65156 0
M  V30 1108 N 97.2337 0.611057 -2.84103 0
M  V30 1109 H 96.7807 -0.239593 -2.56483 0
M  V30 1110 H 96.7387 1.47647 -2.77575 0
M  V30 1111 N 100.511 1.16574 -1.06058 0
M  V30 1112 C 101.739 1.90952 -0.796552 0
M  V30 1113 C 102.154 1.77302 0.648808 0
M  V30 1114 O 101.511 1.11605 1.44397 0
M  V30 1115 C 101.562 3.41736 -1.17894 0
M  V30 1116 O 101.283 3.54975 -2.56758 0
M  V30 1117 C 102.784 4.33169 -0.942308 0
M  V30 1118 H 100.004 0.605594 -0.288959 0
M  V30 1119 H 102.548 1.47777 -1.41358 0
M  V30 1120 H 100.703 3.82623 -0.606491 0
M  V30 1121 H 101.117 4.4846 -2.72 0
M  V30 1122 H 102.591 5.37439 -1.25952 0
M  V30 1123 H 103.068 4.3903 0.122078 0
M  V30 1124 H 103.674 3.98007 -1.49902 0
M  V30 1125 N 101.989 0.842826 1.3317 0
M  V30 1126 C 103.236 0.440447 1.97652 0
M  V30 1127 C 103.564 -1.00123 1.6675 0
M  V30 1128 O 102.819 -1.7155 0.941761 0
M  V30 1129 C 103.118 0.612607 3.52111 0
M  V30 1130 C 102.784 2.02297 4.02972 0
M  V30 1131 C 101.446 2.40874 4.16573 0
M  V30 1132 C 103.798 2.94402 4.30089 0
M  V30 1133 C 101.126 3.70852 4.54627 0
M  V30 1134 C 103.478 4.23865 4.69597 0
M  V30 1135 C 102.142 4.62392 4.81404 0
M  V30 1136 H 101.412 0.161171 0.72326 0
M  V30 1137 H 104.059 1.07061 1.58777 0
M  V30 1138 H 102.364 -0.100849 3.9167 0
M  V30 1139 H 104.061 0.2815 4.00011 0
M  V30 1140 H 100.651 1.71338 3.92863 0
M  V30 1141 H 104.835 2.65835 4.19101 0
M  V30 1142 H 100.091 4.00501 4.61962 0
M  V30 1143 H 104.265 4.95306 4.89536 0
M  V30 1144 H 101.892 5.63154 5.10648 0
M  V30 1145 N 103.467 -1.45747 0.599634 0
M  V30 1146 C 104.397 -2.33235 -0.111306 0
M  V30 1147 C 105.378 -1.46359 -0.866781 0
M  V30 1148 O 106.563 -1.75146 -0.838904 0
M  V30 1149 C 103.693 -3.28932 -1.11451 0
M  V30 1150 C 102.647 -4.25381 -0.472772 0
M  V30 1151 C 101.973 -5.1071 -1.58365 0
M  V30 1152 C 103.273 -5.18831 0.600948 0
M  V30 1153 H 104.967 -2.92927 0.61919 0
M  V30 1154 H 102.513 -1.40857 0.299215 0
M  V30 1155 H 104.466 -3.89002 -1.62036 0
M  V30 1156 H 103.19 -2.67381 -1.8755 0
M  V30 1157 H 101.849 -3.66598 0.0121472 0
M  V30 1158 H 101.497 -4.45533 -2.33473 0
M  V30 1159 H 101.197 -5.7604 -1.15982 0
M  V30 1160 H 102.721 -5.73647 -2.09194 0
M  V30 1161 H 104.135 -5.73019 0.179491 0
M  V30 1162 H 102.532 -5.92595 0.946076 0
M  V30 1163 H 103.602 -4.6174 1.48068 0
M  V30 1164 N 104.945 -0.338344 -1.53925 0
M  V30 1165 C 105.875 0.51328 -2.27789 0
M  V30 1166 C 106.856 1.107 -1.29149 0
M  V30 1167 O 108.041 1.12937 -1.57984 0
M  V30 1168 C 105.171 1.66697 -3.04679 0
M  V30 1169 C 104.125 1.20183 -4.1078 0
M  V30 1170 C 103.451 2.44363 -4.75595 0
M  V30 1171 C 104.751 0.30605 -5.21403 0
M  V30 1172 H 106.445 -0.102883 -2.99223 0
M  V30 1173 H 103.991 -0.0509219 -1.4391 0
M  V30 1174 H 105.944 2.26915 -3.55088 0
M  V30 1175 H 104.668 2.30995 -2.30887 0
M  V30 1176 H 103.327 0.622499 -3.61276 0
M  V30 1177 H 102.975 3.07057 -3.98403 0
M  V30 1178 H 102.675 2.13925 -5.47275 0
M  V30 1179 H 104.199 3.05317 -5.28786 0
M  V30 1180 H 105.613 0.814929 -5.67478 0
M  V30 1181 H 104.01 0.0937929 -6.00027 0
M  V30 1182 H 105.08 -0.65921 -4.80398 0
M  V30 1183 N 106.423 1.57458 -0.0668435 0
M  V30 1184 C 107.651 1.97624 0.612565 0
M  V30 1185 C 108.066 0.94502 1.63447 0
M  V30 1186 O 107.423 -0.0689276 1.8237 0
M  V30 1187 C 107.474 3.37869 1.28555 0
M  V30 1188 O 107.195 4.3704 0.304557 0
M  V30 1189 C 108.696 3.92882 2.05325 0
M  V30 1190 H 105.916 0.650045 0.166381 0
M  V30 1191 H 108.46 2.04035 -0.137782 0
M  V30 1192 H 106.615 3.3256 1.98702 0
M  V30 1193 H 107.029 5.18565 0.786779 0
M  V30 1194 H 108.503 4.93247 2.47812 0
M  V30 1195 H 108.98 3.29156 2.9078 0
M  V30 1196 H 109.586 4.01577 1.40056 0
M  V30 1197 N 107.901 -0.206675 1.56239 0
M  V30 1198 C 109.129 -0.945345 1.8404 0
M  V30 1199 C 109.544 -1.77336 0.647885 0
M  V30 1200 O 108.901 -1.78425 -0.383511 0
M  V30 1201 C 108.952 -1.8509 3.10522 0
M  V30 1202 O 108.673 -1.05634 4.25174 0
M  V30 1203 C 110.174 -2.70222 3.51418 0
M  V30 1204 H 107.394 -0.276372 0.61144 0
M  V30 1205 H 109.938 -0.217417 2.03341 0
M  V30 1206 H 108.093 -2.53259 2.93153 0
M  V30 1207 H 108.507 -1.67238 4.97124 0
M  V30 1208 H 109.981 -3.29438 4.42916 0
M  V30 1209 H 110.458 -3.43358 2.73864 0
M  V30 1210 H 111.064 -2.07443 3.71278 0
M  V30 1211 N 109.379 -1.50304 -0.473955 0
M  V30 1212 C 110.626 -1.6115 -1.22625 0
M  V30 1213 C 110.954 -0.310517 -1.92005 0
M  V30 1214 O 110.209 0.703419 -1.82621 0
M  V30 1215 C 110.508 -2.73938 -2.29549 0
M  V30 1216 C 110.174 -4.14519 -1.7744 0
M  V30 1217 C 108.836 -4.5277 -1.62949 0
M  V30 1218 C 111.188 -5.02392 -1.3875 0
M  V30 1219 C 108.516 -5.76639 -1.08187 0
M  V30 1220 C 110.868 -6.26805 -0.854309 0
M  V30 1221 C 109.532 -6.63861 -0.696011 0
M  V30 1222 H 108.802 -0.589691 -0.448715 0
M  V30 1223 H 111.449 -1.84228 -0.522705 0
M  V30 1224 H 109.754 -2.44937 -3.05799 0
M  V30 1225 H 111.451 -2.79534 -2.87509 0
M  V30 1226 H 108.041 -3.8434 -1.89685 0
M  V30 1227 H 112.225 -4.73474 -1.4878 0
M  V30 1228 H 107.481 -6.04027 -0.946666 0
M  V30 1229 H 111.655 -6.94258 -0.545843 0
M  V30 1230 H 109.282 -7.59722 -0.26952 0
M  V30 1231 N 110.857 0.726932 -1.39834 0
M  V30 1232 C 111.82 1.82269 -1.38962 0
M  V30 1233 C 112.82 1.58248 -0.285334 0
M  V30 1234 O 114.01 1.65499 -0.54366 0
M  V30 1235 C 111.142 3.20186 -1.17019 0
M  V30 1236 H 112.335 1.84443 -2.36476 0
M  V30 1237 H 109.888 0.931416 -1.25516 0
M  V30 1238 H 110.623 3.23669 -0.202204 0
M  V30 1239 H 110.408 3.3902 -1.96998 0
M  V30 1240 H 111.898 4.00235 -1.1917 0
M  V30 1241 N 112.336 1.25143 0.95797 0
M  V30 1242 C 113.284 1.05019 2.07542 0
M  V30 1243 C 114.278 -0.0178751 1.69391 0
M  V30 1244 O 115.484 0.137472 1.79474 0
M  V30 1245 H 111.859 0.32265 0.679265 0
M  V30 1246 H 113.83 1.99759 2.21673 0
M  V30 1247 C 112.579 0.682074 3.40944 0
M  V30 1248 H 111.902 1.49573 3.70767 0
M  V30 1249 H 113.342 0.580945 4.20001 0
M  V30 1250 C 111.801 -0.611608 3.31302 0
M  V30 1251 O 112.331 -1.65465 3.66038 0
M  V30 1252 N 110.537 -0.595982 2.84423 0
M  V30 1253 H 110.084 0.253192 2.56353 0
M  V30 1254 H 110.042 -1.46173 2.78354 0
M  V30 1255 N 113.814 -1.1601 1.06675 0
M  V30 1256 C 115.06 -1.86909 0.786945 0
M  V30 1257 C 115.393 -1.81717 -0.685018 0
M  V30 1258 O 114.668 -1.23551 -1.50218 0
M  V30 1259 C 114.951 -3.36313 1.28707 0
M  V30 1260 C 114.804 -3.50175 2.82308 0
M  V30 1261 C 116.123 -4.3084 0.898071 0
M  V30 1262 H 113.242 -0.678677 0.287343 0
M  V30 1263 H 115.884 -1.36336 1.32334 0
M  V30 1264 H 114.034 -3.79513 0.830768 0
M  V30 1265 H 115.706 -3.15886 3.36175 0
M  V30 1266 H 113.949 -2.91959 3.20847 0
M  V30 1267 H 114.62 -4.55116 3.12368 0
M  V30 1268 H 117.096 -3.95561 1.29114 0
M  V30 1269 H 115.972 -5.33876 1.27543 0
M  V30 1270 H 116.233 -4.41662 -0.196651 0
M  V30 1271 N 115.292 -0.849877 -1.32721 0
M  V30 1272 C 116.538 -0.451591 -1.97708 0
M  V30 1273 C 116.871 0.989175 -1.6712 0
M  V30 1274 O 116.146 1.69334 -0.956891 0
M  V30 1275 C 116.429 -0.685598 -3.53513 0
M  V30 1276 C 116.282 -2.17444 -3.93749 0
M  V30 1277 C 117.601 -0.138874 -4.39881 0
M  V30 1278 H 114.72 -0.16555 -0.718166 0
M  V30 1279 H 117.362 -1.06742 -1.57182 0
M  V30 1280 H 115.512 -0.161416 -3.88165 0
M  V30 1281 H 117.184 -2.76433 -3.693 0
M  V30 1282 H 115.427 -2.65476 -3.43081 0
M  V30 1283 H 116.098 -2.28888 -5.02309 0
M  V30 1284 H 118.574 -0.587068 -4.11938 0
M  V30 1285 H 117.45 -0.332213 -5.47894 0
M  V30 1286 H 117.711 0.95806 -4.31594 0
M  V30 1287 N 116.77 1.45427 -0.607355 0
M  V30 1288 C 117.718 2.32269 0.12411 0
M  V30 1289 C 118.712 1.45955 0.859854 0
M  V30 1290 O 119.918 1.6244 0.775447 0
M  V30 1291 H 116.293 0.749691 0.0588839 0
M  V30 1292 H 118.264 2.91743 -0.626762 0
M  V30 1293 C 117.013 3.29567 1.1082 0
M  V30 1294 H 116.336 3.95978 0.551492 0
M  V30 1295 H 117.776 3.93061 1.58995 0
M  V30 1296 C 116.235 2.56722 2.18164 0
M  V30 1297 O 116.765 2.34842 3.25902 0
M  V30 1298 N 114.971 2.16861 1.93442 0
M  V30 1299 H 114.518 2.34855 1.05834 0
M  V30 1300 H 114.476 1.68444 2.65469 0
M  V30 1301 N 118.248 0.346503 1.53744 0
M  V30 1302 C 119.494 -0.249473 2.0126 0
M  V30 1303 C 119.827 -1.49965 1.23386 0
M  V30 1304 O 119.102 -1.91811 0.32229 0
M  V30 1305 C 119.385 -0.560643 3.55709 0
M  V30 1306 C 119.238 0.701836 4.44291 0
M  V30 1307 C 120.557 -1.36905 4.18264 0
M  V30 1308 H 117.676 -0.0891987 0.731582 0
M  V30 1309 H 120.318 0.467624 1.84156 0
M  V30 1310 H 118.468 -1.17156 3.70414 0
M  V30 1311 H 120.14 1.33974 4.41417 0
M  V30 1312 H 118.383 1.32612 4.13033 0
M  V30 1313 H 119.054 0.43933 5.50249 0
M  V30 1314 H 121.53 -0.852448 4.07275 0
M  V30 1315 H 120.406 -1.55553 5.26398 0
M  V30 1316 H 120.667 -2.37203 3.73078 0
M  V30 1317 N 119.726 -1.57421 0.075193 0
M  V30 1318 C 120.966 -1.95495 -0.596757 0
M  V30 1319 C 121.33 -0.954886 -1.66571 0
M  V30 1320 O 122.531 -1.22341 -2.39345 0
M  V30 1321 C 120.802 -3.382 -1.15566 0
M  V30 1322 S 122.361 -3.98254 -1.84226 0
M  V30 1323 H 119.179 -0.683649 -0.195307 0
M  V30 1324 H 121.781 -1.94925 0.149859 0
M  V30 1325 H 120.485 -4.08766 -0.36588 0
M  V30 1326 H 120.016 -3.42321 -1.93856 0
M  V30 1327 H 122.031 -3.85435 -3.12497 0
M  V30 1328 N 121.204 0.198386 -1.56346 0
M  V30 1329 C 122.452 0.91747 -1.80075 0
M  V30 1330 C 122.773 1.83929 -0.647692 0
M  V30 1331 O 122.043 1.93029 0.334166 0
M  V30 1332 H 120.623 0.341774 -0.664228 0
M  V30 1333 H 123.285 0.204684 -1.93822 0
M  V30 1334 H 122.381 1.51055 -2.7311 0
M  V30 1335 N 122.682 1.50554 0.465978 0
M  V30 1336 C 123.63 1.70324 1.58406 0
M  V30 1337 C 124.624 0.569139 1.59553 0
M  V30 1338 O 125.83 0.749776 1.63641 0
M  V30 1339 H 122.205 0.537688 0.525734 0
M  V30 1340 H 124.176 2.64104 1.38894 0
M  V30 1341 C 122.925 1.81928 2.96307 0
M  V30 1342 H 122.248 2.68586 2.96144 0
M  V30 1343 H 123.688 1.99784 3.73982 0
M  V30 1344 C 122.147 0.572095 3.32007 0
M  V30 1345 O 122.677 -0.286416 4.00678 0
M  V30 1346 N 120.883 0.424606 2.87481 0
M  V30 1347 H 120.43 1.12427 2.31771 0
M  V30 1348 H 120.388 -0.408697 3.11732 0
M  V30 1349 N 124.16 -0.719506 1.40217 0
M  V30 1350 C 125.571 -1.29848 1.34151 0
M  V30 1351 C 125.922 -1.96196 0.0131349 0
M  V30 1352 O 125.047 -1.973 -0.88892 0
M  V30 1353 C 125.642 -2.36118 2.42968 0
M  V30 1354 C 124.201 -2.8965 2.40374 0
M  V30 1355 C 123.348 -1.63393 2.24049 0
M  V30 1356 H 126.299 -0.51591 1.5008 0
M  V30 1357 H 126.32 -3.16871 2.10649 0
M  V30 1358 H 125.832 -1.878 3.39636 0
M  V30 1359 H 123.933 -3.42208 1.47392 0
M  V30 1360 H 124.046 -3.4171 3.35814 0
M  V30 1361 H 122.41 -1.88312 1.71495 0
M  V30 1362 H 123.193 -1.17104 3.2271 0
M  V30 1363 N 125.638 -1.25649 -0.95132 0
M  V30 1364 C 126.586 -1.06118 -2.06982 0
M  V30 1365 C 127.58 0.00889169 -1.69398 0
M  V30 1366 O 128.786 -0.146988 -1.79399 0
M  V30 1367 H 125.161 -0.326248 -0.677544 0
M  V30 1368 H 127.132 -2.00932 -2.2061 0
M  V30 1369 C 125.881 -0.700145 -3.40578 0
M  V30 1370 H 125.204 -1.51537 -3.69968 0
M  V30 1371 H 126.644 -0.603211 -4.19687 0
M  V30 1372 C 125.103 0.59403 -3.31622 0
M  V30 1373 O 125.633 1.63522 -3.66911 0
M  V30 1374 N 123.839 0.58089 -2.84735 0
M  V30 1375 H 123.386 -0.266783 -2.56215 0
M  V30 1376 H 123.344 1.44695 -2.79125 0
M  V30 1377 N 127.117 1.15442 -1.07289 0
M  V30 1378 C 128.05 2.19135 -0.636798 0
M  V30 1379 C 129.028 1.58884 0.34562 0
M  V30 1380 O 130.212 1.86805 0.252195 0
M  V30 1381 C 127.339 3.38638 0.0650014 0
M  V30 1382 C 126.385 4.17412 -0.87576 0
M  V30 1383 S 127.218 4.79882 -2.37642 0
M  V30 1384 C 128.374 6.02753 -1.6864 0
M  V30 1385 H 128.607 2.55787 -1.51526 0
M  V30 1386 H 126.14 1.26394 -0.886793 0
M  V30 1387 H 128.098 4.07873 0.463664 0
M  V30 1388 H 126.759 3.00331 0.919801 0
M  V30 1389 H 125.952 5.02909 -0.33143 0
M  V30 1390 H 125.554 3.53722 -1.21478 0
M  V30 1391 H 127.846 6.70113 -0.997753 0
M  V30 1392 H 128.789 6.61754 -2.51967 0
M  V30 1393 H 129.197 5.52355 -1.16465 0
M  V30 1394 N 128.595 0.856903 1.32268 0
M  V30 1395 C 129.823 0.475439 2.01363 0
M  V30 1396 C 130.238 -0.928486 1.64392 0
M  V30 1397 O 129.595 -1.60624 0.866387 0
M  V30 1398 C 129.646 0.607545 3.56358 0
M  V30 1399 O 129.367 1.95617 3.92002 0
M  V30 1400 C 130.868 0.225382 4.42727 0
M  V30 1401 H 128.088 0.186636 0.644521 0
M  V30 1402 H 130.632 1.15446 1.68797 0
M  V30 1403 H 128.787 -0.0237719 3.87393 0
M  V30 1404 H 129.201 1.95455 4.86721 0
M  V30 1405 H 130.675 0.368813 5.50767 0
M  V30 1406 H 131.152 -0.834369 4.31202 0
M  V30 1407 H 131.758 0.831864 4.17085 0
M  V30 1408 N 130.073 -1.45103 0.615059 0
M  V30 1409 C 131.313 -2.04069 0.116282 0
M  V30 1410 C 131.677 -1.4721 -1.2326 0
M  V30 1411 O 132.878 -1.97577 -1.82255 0
M  V30 1412 C 131.149 -3.57298 0.085482 0
M  V30 1413 S 132.708 -4.37394 -0.351015 0
M  V30 1414 H 129.526 -0.709006 0.0532183 0
M  V30 1415 H 132.128 -1.77709 0.81484 0
M  V30 1416 H 130.832 -3.9619 1.0706 0
M  V30 1417 H 130.363 -3.88244 -0.634835 0
M  V30 1418 H 132.378 -4.69734 -1.59889 0
M  V30 1419 N 131.551 -0.354651 -1.53558 0
M  V30 1420 C 132.962 0.126902 -1.86268 0
M  V30 1421 C 133.313 1.49075 -1.27558 0
M  V30 1422 O 132.438 2.08105 -0.5934 0
M  V30 1423 C 133.033 0.237046 -3.3797 0
M  V30 1424 C 131.592 0.662842 -3.70518 0
M  V30 1425 C 130.739 -0.196652 -2.76602 0
M  V30 1426 H 133.69 -0.573849 -1.47962 0
M  V30 1427 H 133.711 1.06259 -3.65362 0
M  V30 1428 H 133.223 -0.755725 -3.80671 0
M  V30 1429 H 131.324 1.66424 -3.33367 0
M  V30 1430 H 131.437 0.445034 -4.77029 0
M  V30 1431 H 129.801 0.332763 -2.52517 0
M  V30 1432 H 130.584 -1.18676 -3.22135 0
M  V30 1433 N 133.029 1.57378 -0.0835403 0
M  V30 1434 C 134.254 1.98682 0.594987 0
M  V30 1435 C 134.679 0.961969 1.61641 0
M  V30 1436 O 134.037 -0.0709989 1.81161 0
M  V30 1437 C 134.085 3.38988 1.2296 0
M  V30 1438 O 133.189 3.39208 2.34546 0
M  V30 1439 H 132.53 0.646368 0.152002 0
M  V30 1440 H 135.06 2.03961 -0.161533 0
M  V30 1441 H 135.07 3.76431 1.57366 0
M  V30 1442 H 133.745 4.13107 0.481228 0
M  V30 1443 H 132.322 3.13548 2.01846 0
M  V30 1444 N 134.507 -0.190092 1.56449 0
M  V30 1445 C 135.455 -1.25501 1.95837 0
M  V30 1446 C 136.449 -1.4685 0.844485 0
M  V30 1447 O 137.655 -1.47651 1.02952 0
M  V30 1448 H 134.03 -0.421447 0.622805 0
M  V30 1449 H 136.001 -0.895821 2.84636 0
M  V30 1450 C 134.75 -2.59124 2.31841 0
M  V30 1451 H 134.073 -2.43514 3.17082 0
M  V30 1452 H 135.513 -3.32371 2.6326 0
M  V30 1453 C 133.972 -3.16488 1.15486 0
M  V30 1454 O 134.502 -3.99365 0.432535 0
M  V30 1455 N 132.708 -2.75305 0.930349 0
M  V30 1456 H 132.255 -2.08013 1.51948 0
M  V30 1457 H 132.213 -3.14024 0.153634 0
M  V30 1458 N 135.985 -1.50799 -0.457987 0
M  V30 1459 C 136.932 -1.70617 -1.5543 0
M  V30 1460 C 137.902 -0.547562 -1.56815 0
M  V30 1461 O 139.087 -0.779647 -1.74144 0
M  V30 1462 C 136.227 -1.81831 -2.93311 0
M  V30 1463 C 135.34 -3.09278 -3.01615 0
M  V30 1464 C 134.475 -3.11209 -4.30491 0
M  V30 1465 C 133.514 -4.33055 -4.32585 0
M  V30 1466 N 132.651 -4.32652 -5.52952 0
M  V30 1467 H 137.491 -2.64207 -1.37836 0
M  V30 1468 H 135.028 -1.30959 -0.669937 0
M  V30 1469 H 136.986 -1.86314 -3.73287 0
M  V30 1470 H 135.616 -0.916685 -3.0951 0
M  V30 1471 H 134.668 -3.14203 -2.1443 0
M  V30 1472 H 135.98 -3.99233 -2.99022 0
M  V30 1473 H 135.134 -3.14494 -5.18824 0
M  V30 1474 H 133.873 -2.19106 -4.35711 0
M  V30 1475 H 132.878 -4.29969 -3.42647 0
M  V30 1476 H 134.103 -5.264 -4.29046 0
M  V30 1477 H 132.049 -3.43409 -5.58933 0
M  V30 1478 H 131.966 -5.16392 -5.52155 0
M  V30 1479 H 133.234 -4.40101 -6.43375 0
M  V30 1480 N 137.463 0.71206 -1.40597 0
M  V30 1481 C 138.691 1.50111 -1.42388 0
M  V30 1482 C 139.106 1.88784 -0.0245395 0
M  V30 1483 O 138.463 1.55681 0.952351 0
M  V30 1484 C 138.514 2.7742 -2.31776 0
M  V30 1485 O 138.235 2.40382 -3.66262 0
M  V30 1486 C 139.736 3.7129 -2.42196 0
M  V30 1487 H 136.956 0.46314 -0.485533 0
M  V30 1488 H 139.5 0.878068 -1.8469 0
M  V30 1489 H 137.655 3.36001 -1.92827 0
M  V30 1490 H 138.069 3.22324 -4.13772 0
M  V30 1491 H 139.543 4.57448 -3.08943 0
M  V30 1492 H 140.02 4.14641 -1.44809 0
M  V30 1493 H 140.626 3.18619 -2.81712 0
M  V30 1494 N 138.941 1.26152 0.944643 0
M  V30 1495 C 140.357 1.03189 1.21754 0
M  V30 1496 C 140.557 -0.245112 2.00004 0
M  V30 1497 O 139.613 -0.955176 2.33736 0
M  V30 1498 C 140.926 2.26119 1.98219 0
M  V30 1499 C 142.474 2.30984 2.11224 0
M  V30 1500 C 142.949 3.53597 2.91089 0
M  V30 1501 N 144.44 3.54053 2.98664 0
M  V30 1502 C 145.175 4.45593 3.60881 0
M  V30 1503 N 144.671 5.47416 4.24626 0
M  V30 1504 N 146.464 4.33252 3.58119 0
M  V30 1505 H 138.615 2.08177 0.421437 0
M  V30 1506 H 140.878 0.914723 0.248969 0
M  V30 1507 H 140.584 3.18984 1.48128 0
M  V30 1508 H 140.458 2.3009 2.98895 0
M  V30 1509 H 142.845 1.38635 2.60508 0
M  V30 1510 H 142.926 2.31026 1.09821 0
M  V30 1511 H 142.57 4.46273 2.42493 0
M  V30 1512 H 142.5 3.50802 3.92741 0
M  V30 1513 H 144.991 2.80403 2.53343 0
M  V30 1514 H 145.304 6.13459 4.69987 0
M  V30 1515 H 143.649 5.51278 4.23223 0
M  V30 1516 H 146.84 3.52924 3.0751 0
M  V30 1517 H 147.013 5.04786 4.06319 0
M  V30 1518 N 140.419 -1.14872 1.07899 0
M  V30 1519 C 141.366 -2.19791 0.704319 0
M  V30 1520 C 142.336 -1.63238 -0.306987 0
M  V30 1521 O 143.521 -1.8983 -0.192171 0
M  V30 1522 C 140.661 -3.44911 0.114244 0
M  V30 1523 C 139.774 -4.15637 1.1777 0
M  V30 1524 C 138.909 -5.28324 0.552037 0
M  V30 1525 C 137.948 -5.90875 1.59789 0
M  V30 1526 N 137.085 -6.95022 0.994404 0
M  V30 1527 H 141.925 -2.5119 1.60336 0
M  V30 1528 H 139.462 -1.23356 0.801352 0
M  V30 1529 H 141.42 -4.16477 -0.245544 0
M  V30 1530 H 140.05 -3.14011 -0.74813 0
M  V30 1531 H 139.102 -3.42512 1.65499 0
M  V30 1532 H 140.414 -4.5823 1.97046 0
M  V30 1533 H 139.568 -6.06538 0.1402 0
M  V30 1534 H 138.307 -4.86939 -0.272431 0
M  V30 1535 H 137.312 -5.11369 2.01945 0
M  V30 1536 H 138.537 -6.34337 2.42474 0
M  V30 1537 H 136.483 -6.55722 0.190939 0
M  V30 1538 H 136.4 -7.36073 1.72432 0
M  V30 1539 H 137.668 -7.77123 0.608253 0
M  V30 1540 N 141.898 -0.863906 -1.31812 0
M  V30 1541 C 142.846 -0.30422 -2.30602 0
M  V30 1542 C 143.84 0.577419 -1.59255 0
M  V30 1543 O 145.046 0.464194 -1.73912 0
M  V30 1544 H 141.421 -0.0796877 -0.747766 0
M  V30 1545 H 143.392 -1.15148 -2.75288 0
M  V30 1546 C 142.141 0.484617 -3.44306 0
M  V30 1547 H 141.464 -0.18451 -3.99374 0
M  V30 1548 H 142.904 0.841664 -4.15562 0
M  V30 1549 C 141.363 1.6735 -2.92396 0
M  V30 1550 O 141.893 2.77273 -2.90659 0
M  V30 1551 N 140.099 1.50362 -2.48676 0
M  V30 1552 H 139.646 0.609402 -2.50288 0
M  V30 1553 H 139.604 2.30051 -2.14299 0
M  V30 1554 N 143.376 1.44774 -0.622745 0
M  V30 1555 C 144.616 2.04004 -0.127102 0
M  V30 1556 C 144.98 1.47862 1.22478 0
M  V30 1557 O 146.181 1.98541 1.81204 0
M  V30 1558 C 144.452 3.57247 -0.104429 0
M  V30 1559 S 146.011 4.37574 0.327814 0
M  V30 1560 H 142.829 0.708713 -0.0569776 0
M  V30 1561 H 145.431 1.77275 -0.824253 0
M  V30 1562 H 144.135 3.95616 -1.09159 0
M  V30 1563 H 143.666 3.88575 0.614236 0
M  V30 1564 H 145.681 4.70575 1.57395 0
M  V30 1565 N 144.854 0.36279 1.53368 0
M  V30 1566 C 145.804 -0.501391 2.22419 0
M  V30 1567 C 146.788 -1.0509 1.2184 0
M  V30 1568 O 147.98 -0.981404 1.47301 0
M  V30 1569 C 145.109 -1.64201 3.01484 0
M  V30 1570 C 144.195 -1.10552 4.09438 0
M  V30 1571 N 144.586 -0.291788 5.04958 0
M  V30 1572 C 142.884 -1.3806 4.24094 0
M  V30 1573 C 143.585 0.00162655 5.817 0
M  V30 1574 N 142.561 -0.595244 5.40331 0
M  V30 1575 H 146.363 0.127159 2.93625 0
M  V30 1576 H 143.877 0.170658 1.61501 0
M  V30 1577 H 145.874 -2.27326 3.49469 0
M  V30 1578 H 144.534 -2.27365 2.31809 0
M  V30 1579 H 145.545 0.0687731 5.17854 0
M  V30 1580 H 142.222 -2.01522 3.65644 0
M  V30 1581 H 143.612 0.659278 6.68658 0
M  V30 1582 N 146.332 -1.57332 0.0918853 0
M  V30 1583 C 147.282 -2.10385 -0.87876 0
M  V30 1584 C 148.266 -1.01814 -1.24591 0
M  V30 1585 O 149.458 -1.28093 -1.22152 0
M  V30 1586 C 146.587 -2.68517 -2.13901 0
M  V30 1587 C 145.673 -3.84126 -1.79744 0
M  V30 1588 N 146.064 -4.92288 -1.1613 0
M  V30 1589 C 144.362 -3.93801 -2.09373 0
M  V30 1590 C 145.063 -5.7295 -1.00513 0
M  V30 1591 N 144.039 -5.21876 -1.5214 0
M  V30 1592 H 147.841 -2.91395 -0.38293 0
M  V30 1593 H 145.355 -1.62017 -0.111423 0
M  V30 1594 H 147.352 -3.04852 -2.84378 0
M  V30 1595 H 146.012 -1.88961 -2.64053 0
M  V30 1596 H 147.023 -5.1123 -0.828504 0
M  V30 1597 H 143.7 -3.25249 -2.61762 0
M  V30 1598 H 145.09 -6.69978 -0.507902 0
M  V30 1599 N 147.81 0.181792 -1.56548 0
M  V30 1600 C 149.035 0.920019 -1.85877 0
M  V30 1601 C 149.46 1.75494 -0.677021 0
M  V30 1602 O 148.818 1.77399 0.374056 0
M  V30 1603 C 148.866 1.78112 -3.13542 0
M  V30 1604 O 147.97 2.88152 -2.95029 0
M  V30 1605 H 147.311 0.258334 -0.611686 0
M  V30 1606 H 149.841 0.183092 -2.03779 0
M  V30 1607 H 149.851 2.18314 -3.44678 0
M  V30 1608 H 148.526 1.16777 -3.99169 0
M  V30 1609 H 147.103 2.51609 -2.75222 0
M  V30 1610 N 149.288 1.51039 0.449983 0
M  V30 1611 C 150.536 1.62759 1.19808 0
M  V30 1612 C 150.857 0.339981 1.92013 0
M  V30 1613 O 150.127 -0.643606 1.85026 0
M  V30 1614 H 148.707 0.599811 0.445237 0
M  V30 1615 H 151.369 1.87914 0.517138 0
M  V30 1616 H 150.465 2.44911 1.93455 0
M  V30 1617 N 150.766 -0.704594 1.40972 0
M  V30 1618 C 151.991 -1.49858 1.43378 0
M  V30 1619 C 152.416 -1.88061 0.038184 0
M  V30 1620 O 151.774 -1.5402 -0.956425 0
M  V30 1621 C 151.822 -2.74333 2.34038 0
M  V30 1622 O 150.926 -3.7147 1.7912 0
M  V30 1623 H 150.267 -0.45139 0.486974 0
M  V30 1624 H 152.797 -0.866832 1.8533 0
M  V30 1625 H 152.807 -3.22741 2.49604 0
M  V30 1626 H 151.482 -2.45863 3.35446 0
M  V30 1627 H 150.059 -3.30363 1.72958 0
M  V30 1628 N 152.244 -1.26651 -0.937939 0
M  V30 1629 C 153.176 -1.04283 -2.04102 0
M  V30 1630 C 154.189 -0.00221014 -1.628 0
M  V30 1631 O 155.378 -0.242645 -1.76843 0
M  V30 1632 C 152.478 -0.557846 -3.34277 0
M  V30 1633 C 151.651 -1.66843 -4.04329 0
M  V30 1634 C 150.71 -1.18095 -5.12777 0
M  V30 1635 O 149.736 -1.87865 -5.37304 0
M  V30 1636 N 150.938 -0.0311006 -5.80492 0
M  V30 1637 H 153.703 -1.9927 -2.23856 0
M  V30 1638 H 151.264 -1.1808 -1.10764 0
M  V30 1639 H 153.256 -0.215836 -4.04124 0
M  V30 1640 H 151.826 0.298523 -3.11171 0
M  V30 1641 H 151.046 -2.18123 -3.28353 0
M  V30 1642 H 152.334 -2.41408 -4.47883 0
M  V30 1643 H 151.732 0.551486 -5.63005 0
M  V30 1644 H 150.289 0.251809 -6.51313 0
M  V30 1645 N 153.722 1.14298 -1.08507 0
M  V30 1646 C 154.968 1.85633 -0.816581 0
M  V30 1647 C 155.301 1.82784 0.656021 0
M  V30 1648 O 154.576 1.25926 1.48233 0
M  V30 1649 C 154.859 3.34223 -1.34041 0
M  V30 1650 C 154.712 3.45639 -2.87843 0
M  V30 1651 C 156.031 4.29356 -0.9665 0
M  V30 1652 H 153.15 0.67402 -0.298104 0
M  V30 1653 H 155.792 1.34214 -1.34487 0
M  V30 1654 H 153.942 3.78144 -0.89104 0
M  V30 1655 H 155.614 3.10498 -3.41158 0
M  V30 1656 H 153.857 2.86817 -3.25451 0
M  V30 1657 H 154.528 4.50089 -3.19569 0
M  V30 1658 H 157.004 3.93457 -1.35391 0
M  V30 1659 H 155.88 5.3178 -1.3602 0
M  V30 1660 H 156.141 4.41919 0.126362 0
M  V30 1661 N 155.201 0.870884 1.31352 0
M  V30 1662 C 156.612 0.534714 1.78879 0
M  V30 1663 C 156.963 -0.948423 1.71754 0
M  V30 1664 O 156.088 -1.74055 1.28584 0
M  V30 1665 C 156.683 0.963839 3.24801 0
M  V30 1666 C 155.242 0.679311 3.70219 0
M  V30 1667 C 154.389 1.15465 2.52117 0
M  V30 1668 H 157.34 1.05651 1.18421 0
M  V30 1669 H 157.361 0.286892 3.79417 0
M  V30 1670 H 156.873 2.04332 3.29955 0
M  V30 1671 H 154.974 -0.388769 3.70566 0
M  V30 1672 H 155.087 1.25698 4.62317 0
M  V30 1673 H 153.451 0.574383 2.48139 0
M  V30 1674 H 154.234 2.24157 2.60016 0
M  V30 1675 N 156.679 -1.44442 0.630414 0
M  V30 1676 C 157.609 -2.33418 -0.0618083 0
M  V30 1677 C 158.59 -1.48165 -0.835541 0
M  V30 1678 O 159.775 -1.76886 -0.801564 0
M  V30 1679 C 156.905 -3.31222 -1.04449 0
M  V30 1680 C 155.859 -4.26288 -0.382436 0
M  V30 1681 C 155.185 -5.13954 -1.47497 0
M  V30 1682 C 156.485 -5.1744 0.710865 0
M  V30 1683 H 158.179 -2.91548 0.681184 0
M  V30 1684 H 155.725 -1.40191 0.329026 0
M  V30 1685 H 157.678 -3.92351 -1.53748 0
M  V30 1686 H 156.402 -2.71299 -1.81836 0
M  V30 1687 H 155.061 -3.6649 0.0899054 0
M  V30 1688 H 154.709 -4.50385 -2.2397 0
M  V30 1689 H 154.409 -5.7837 -1.03737 0
M  V30 1690 H 155.933 -5.77955 -1.96979 0
M  V30 1691 H 157.347 -5.72509 0.300996 0
M  V30 1692 H 155.744 -5.90455 1.07156 0
M  V30 1693 H 156.814 -4.58496 1.57829 0
M  V30 1694 N 158.157 -0.370918 -1.53173 0
M  V30 1695 C 159.406 0.218249 -2.00516 0
M  V30 1696 C 159.719 1.49429 -1.26215 0
M  V30 1697 O 160.925 2.16239 -1.64174 0
M  V30 1698 C 159.381 0.43948 -3.57207 0
M  V30 1699 C 158.989 -0.822244 -4.4039 0
M  V30 1700 C 160.733 0.986012 -4.1289 0
M  V30 1701 C 158.64 -0.570304 -5.88644 0
M  V30 1702 H 157.57 0.0853333 -0.749156 0
M  V30 1703 H 160.221 -0.490483 -1.76823 0
M  V30 1704 H 158.603 1.20961 -3.77074 0
M  V30 1705 H 159.777 -1.59557 -4.32294 0
M  V30 1706 H 158.092 -1.29238 -3.95836 0
M  V30 1707 H 160.689 1.18991 -5.21292 0
M  V30 1708 H 161.032 1.94972 -3.6782 0
M  V30 1709 H 161.565 0.27592 -3.96842 0
M  V30 1710 H 158.304 -1.50449 -6.38001 0
M  V30 1711 H 157.824 0.164427 -5.99575 0
M  V30 1712 H 159.503 -0.19784 -6.46697 0
M  V30 1713 N 159.635 1.57281 -0.100228 0
M  V30 1714 C 160.585 2.10848 0.86759 0
M  V30 1715 C 161.569 1.02473 1.24049 0
M  V30 1716 O 162.761 1.28739 1.21471 0
M  V30 1717 C 159.89 2.69648 2.12474 0
M  V30 1718 C 158.976 3.85074 1.77704 0
M  V30 1719 N 159.367 4.92897 1.13518 0
M  V30 1720 C 157.665 3.94905 2.07282 0
M  V30 1721 C 158.366 5.73475 0.974735 0
M  V30 1722 N 157.342 5.22675 1.4937 0
M  V30 1723 H 161.144 2.91594 0.367471 0
M  V30 1724 H 158.658 1.62074 0.102829 0
M  V30 1725 H 160.655 3.06356 2.82757 0
M  V30 1726 H 159.315 1.90359 2.63047 0
M  V30 1727 H 160.326 5.11662 0.801381 0
M  V30 1728 H 157.003 3.26633 2.60033 0
M  V30 1729 H 158.393 6.70238 0.472364 0
M  V30 1730 N 161.113 -0.173488 1.56642 0
M  V30 1731 C 162.353 -0.896984 1.83667 0
M  V30 1732 C 162.717 -1.79523 0.680842 0
M  V30 1733 O 163.918 -2.55616 0.831488 0
M  V30 1734 C 162.189 -1.67351 3.15798 0
M  V30 1735 S 163.748 -2.44607 3.64298 0
M  V30 1736 H 160.566 -0.300464 0.644393 0
M  V30 1737 H 163.168 -0.158775 1.94854 0
M  V30 1738 H 161.872 -1.00462 3.97914 0
M  V30 1739 H 161.403 -2.45313 3.07546 0
M  V30 1740 H 163.418 -3.69261 3.31452 0
M  V30 1741 N 162.591 -1.51276 -0.441967 0
M  V30 1742 C 163.539 -1.72823 -1.55676 0
M  V30 1743 C 164.533 -0.59445 -1.58627 0
M  V30 1744 O 165.739 -0.775715 -1.62427 0
M  V30 1745 H 162.114 -0.545983 -0.517113 0
M  V30 1746 H 164.085 -2.6628 -1.34675 0
M  V30 1747 C 162.834 -1.86619 -2.93375 0
M  V30 1748 H 162.157 -2.73264 -2.91834 0
M  V30 1749 H 163.597 -2.05709 -3.70756 0
M  V30 1750 C 162.056 -0.624842 -3.31055 0
M  V30 1751 O 162.586 0.222636 -4.01083 0
M  V30 1752 N 160.792 -0.470288 -2.86769 0
M  V30 1753 H 160.339 -1.161 -2.29953 0
M  V30 1754 H 160.297 0.359051 -3.12343 0
M  V30 1755 N 164.069 0.697108 -1.41344 0
M  V30 1756 C 164.999 1.82353 -1.45841 0
M  V30 1757 C 165.98 1.67115 -0.317247 0
M  V30 1758 O 167.165 1.86871 -0.528474 0
M  V30 1759 C 164.295 3.20476 -1.33838 0
M  V30 1760 C 163.249 3.50415 -2.4575 0
M  V30 1761 C 162.575 4.87878 -2.18813 0
M  V30 1762 C 163.875 3.49546 -3.88091 0
M  V30 1763 H 165.569 1.78846 -2.40113 0
M  V30 1764 H 163.115 0.859028 -1.15571 0
M  V30 1765 H 165.068 3.98988 -1.35596 0
M  V30 1766 H 163.792 3.24604 -0.360498 0
M  V30 1767 H 162.451 2.74253 -2.43271 0
M  V30 1768 H 162.099 4.8863 -1.19371 0
M  V30 1769 H 161.799 5.08875 -2.93803 0
M  V30 1770 H 163.323 5.68702 -2.22284 0
M  V30 1771 H 164.737 4.18066 -3.92293 0
M  V30 1772 H 163.134 3.82075 -4.62751 0
M  V30 1773 H 164.204 2.48552 -4.16353 0
M  V30 1774 N 165.547 1.27147 0.931209 0
M  V30 1775 C 166.775 1.16082 1.71267 0
M  V30 1776 C 167.19 -0.282772 1.8667 0
M  V30 1777 O 166.547 -1.19283 1.38122 0
M  V30 1778 C 166.598 1.8358 3.11417 0
M  V30 1779 O 166.319 3.22299 2.96741 0
M  V30 1780 C 167.82 1.78597 4.05732 0
M  V30 1781 H 165.04 0.403758 0.535929 0
M  V30 1782 H 167.584 1.67953 1.16671 0
M  V30 1783 H 165.739 1.35623 3.62885 0
M  V30 1784 H 166.153 3.55851 3.85319 0
M  V30 1785 H 167.627 2.30444 5.01597 0
M  V30 1786 H 168.104 0.754564 4.3267 0
M  V30 1787 H 168.71 2.26152 3.60188 0
M  V30 1788 N 167.025 -1.13721 1.09112 0
M  V30 1789 C 168.253 -1.88773 0.846899 0
M  V30 1790 C 168.668 -1.7896 -0.601572 0
M  V30 1791 O 168.025 -1.15394 -1.41388 0
M  V30 1792 C 168.076 -3.3849 1.26913 0
M  V30 1793 O 167.797 -3.48043 2.66079 0
M  V30 1794 C 169.298 -4.30518 1.05682 0
M  V30 1795 H 166.518 -0.59772 0.304914 0
M  V30 1796 H 169.062 -1.43977 1.45227 0
M  V30 1797 H 167.217 -3.80881 0.707723 0
M  V30 1798 H 167.631 -4.4109 2.83795 0
M  V30 1799 H 169.105 -5.3391 1.40156 0
M  V30 1800 H 169.582 -4.392 -0.00563416 0
M  V30 1801 H 170.188 -3.93893 1.60402 0
M  V30 1802 N 168.503 -0.877838 -1.30888 0
M  V30 1803 C 169.914 -0.544193 -1.78593 0
M  V30 1804 C 170.265 0.939301 -1.72254 0
M  V30 1805 O 169.39 1.7337 -1.29505 0
M  V30 1806 C 169.985 -0.98105 -3.24285 0
M  V30 1807 C 168.544 -0.698935 -3.69854 0
M  V30 1808 C 167.691 -1.168 -2.51502 0
M  V30 1809 H 170.642 -1.06278 -1.17859 0
M  V30 1810 H 170.663 -0.307009 -3.79259 0
M  V30 1811 H 170.175 -2.06079 -3.28866 0
M  V30 1812 H 168.276 0.369112 -3.70767 0
M  V30 1813 H 168.389 -1.28148 -4.61644 0
M  V30 1814 H 166.753 -0.587535 -2.47831 0
M  V30 1815 H 167.536 -2.25533 -2.58824 0
M  V30 1816 N 169.982 1.44106 -0.638065 0
M  V30 1817 C 171.207 2.0685 -0.150916 0
M  V30 1818 C 171.632 1.47417 1.16833 0
M  V30 1819 O 170.99 0.578264 1.71831 0
M  V30 1820 C 171.038 3.60555 -0.05708 0
M  V30 1821 O 170.142 4.00465 0.984972 0
M  V30 1822 H 169.483 0.658151 -0.0879399 0
M  V30 1823 H 172.013 1.84865 -0.876707 0
M  V30 1824 H 172.023 4.07789 0.131232 0
M  V30 1825 H 170.698 4.03193 -1.02021 0
M  V30 1826 H 169.275 3.64849 0.770672 0
M  V30 1827 N 171.46 0.379036 1.52974 0
M  V30 1828 C 172.871 -0.0972525 1.86447 0
M  V30 1829 C 173.222 -1.47027 1.29914 0
M  V30 1830 O 172.347 -2.07135 0.626433 0
M  V30 1831 C 172.942 -0.183248 3.38304 0
M  V30 1832 C 171.501 -0.603812 3.71525 0
M  V30 1833 C 170.648 0.240632 2.76254 0
M  V30 1834 H 173.599 0.597316 1.4703 0
M  V30 1835 H 173.62 -1.00432 3.67006 0
M  V30 1836 H 173.132 0.816191 3.79421 0
M  V30 1837 H 171.233 -1.61099 3.35973 0
M  V30 1838 H 171.346 -0.369086 4.77676 0
M  V30 1839 H 169.71 -0.292548 2.53014 0
M  V30 1840 H 170.493 1.23786 3.20206 0
M  V30 1841 N 172.938 -1.57226 0.108567 0
M  V30 1842 C 173.87 -2.11809 -0.875752 0
M  V30 1843 C 174.883 -1.05839 -1.23701 0
M  V30 1844 O 176.072 -1.33245 -1.18778 0
M  V30 1845 C 173.172 -2.59411 -2.18081 0
M  V30 1846 C 172.345 -3.89364 -1.99284 0
M  V30 1847 C 171.404 -4.22672 -3.13424 0
M  V30 1848 O 170.43 -4.91668 -2.86795 0
M  V30 1849 N 171.632 -3.79154 -4.3957 0
M  V30 1850 H 174.397 -2.9689 -0.409477 0
M  V30 1851 H 171.958 -1.61721 -0.076158 0
M  V30 1852 H 173.95 -2.7873 -2.93414 0
M  V30 1853 H 172.52 -1.79268 -2.5609 0
M  V30 1854 H 171.74 -3.79059 -1.08203 0
M  V30 1855 H 173.028 -4.74358 -1.84017 0
M  V30 1856 H 172.426 -3.23486 -4.64083 0
M  V30 1857 H 170.983 -4.03602 -5.11809 0
M  V30 1858 N 174.416 0.165178 -1.56732 0
M  V30 1859 C 175.364 1.22369 -1.97809 0
M  V30 1860 C 176.358 1.45488 -0.867741 0
M  V30 1861 O 177.564 1.45995 -1.05288 0
M  V30 1862 H 173.939 0.411486 -0.629431 0
M  V30 1863 H 175.91 0.850425 -2.86025 0
M  V30 1864 C 174.659 2.55403 -2.35934 0
M  V30 1865 H 173.982 2.38438 -3.20916 0
M  V30 1866 H 175.422 3.2814 -2.68514 0
M  V30 1867 C 173.881 3.14611 -1.20506 0
M  V30 1868 O 174.411 3.98626 -0.496016 0
M  V30 1869 N 172.617 2.7379 -0.97403 0
M  V30 1870 H 172.164 2.0557 -1.55238 0
M  V30 1871 H 172.122 3.1374 -0.203573 0
M  V30 1872 N 175.894 1.51508 0.433938 0
M  V30 1873 C 177.143 1.63578 1.18005 0
M  V30 1874 C 177.456 0.359514 1.92268 0
M  V30 1875 O 178.662 0.359632 2.69108 0
M  V30 1876 C 177.118 2.88901 2.14626 0
M  V30 1877 C 176.726 4.23544 1.45995 0
M  V30 1878 C 178.47 3.10328 2.89649 0
M  V30 1879 C 176.377 5.40014 2.4112 0
M  V30 1880 H 175.307 0.609277 0.444182 0
M  V30 1881 H 177.958 1.77978 0.446773 0
M  V30 1882 H 176.34 2.68142 2.91403 0
M  V30 1883 H 177.514 4.54696 0.747532 0
M  V30 1884 H 175.829 4.08021 0.831115 0
M  V30 1885 H 178.426 3.94518 3.60915 0
M  V30 1886 H 178.769 2.23544 3.51189 0
M  V30 1887 H 179.302 3.31443 2.19978 0
M  V30 1888 H 176.041 6.29068 1.84264 0
M  V30 1889 H 175.561 5.13233 3.10406 0
M  V30 1890 H 177.24 5.72099 3.02177 0
M  V30 1891 N 177.372 -0.689602 1.41712 0
M  V30 1892 C 178.597 -1.48329 1.44959 0
M  V30 1893 C 179.022 -1.8801 0.0581283 0
M  V30 1894 O 178.38 -1.55026 -0.940035 0
M  V30 1895 C 178.428 -2.71835 2.36935 0
M  V30 1896 O 177.532 -3.69549 1.8305 0
M  V30 1897 H 176.873 -0.446199 0.491734 0
M  V30 1898 H 179.403 -0.847127 1.86239 0
M  V30 1899 H 179.413 -3.20076 2.53013 0
M  V30 1900 H 178.088 -2.42291 3.38035 0
M  V30 1901 H 176.665 -3.2851 1.76452 0
M  V30 1902 N 178.85 -1.27639 -0.924453 0
M  V30 1903 C 179.798 -1.10485 -2.04685 0
M  V30 1904 C 180.792 -0.0270421 -1.69378 0
M  V30 1905 O 181.998 -0.185008 -1.79047 0
M  V30 1906 H 178.373 -0.340546 -0.670472 0
M  V30 1907 H 180.344 -2.05566 -2.16298 0
M  V30 1908 C 179.093 -0.772229 -3.39016 0
M  V30 1909 H 178.416 -1.59351 -3.66671 0
M  V30 1910 H 179.856 -0.692097 -4.18313 0
M  V30 1911 C 178.315 0.523554 -3.32807 0
M  V30 1912 O 178.845 1.55702 -3.70297 0
M  V30 1913 N 177.051 0.520363 -2.85903 0
M  V30 1914 H 176.598 -0.32107 -2.55591 0
M  V30 1915 H 176.556 1.38742 -2.82131 0
M  V30 1916 N 180.328 1.1314 -1.09713 0
M  V30 1917 C 181.568 1.8613 -0.844683 0
M  V30 1918 C 181.932 1.81765 0.618491 0
M  V30 1919 O 183.133 2.50024 0.98699 0
M  V30 1920 C 181.404 3.30151 -1.36877 0
M  V30 1921 S 182.963 4.206 -1.25064 0
M  V30 1922 H 179.781 0.642056 -0.305427 0
M  V30 1923 H 182.383 1.36343 -1.4011 0
M  V30 1924 H 181.087 3.30883 -2.42786 0
M  V30 1925 H 180.618 3.85 -0.808614 0
M  V30 1926 H 182.633 4.95783 -0.203486 0
M  V30 1927 N 181.806 0.884767 1.30421 0
M  V30 1928 C 183.222 0.57874 1.48737 0
M  V30 1929 C 183.422 -0.883567 1.81095 0
M  V30 1930 O 182.478 -1.6648 1.89844 0
M  V30 1931 C 183.791 1.49171 2.61091 0
M  V30 1932 C 185.339 1.49532 2.74971 0
M  V30 1933 C 185.814 2.39421 3.90438 0
M  V30 1934 N 187.305 2.37383 3.97748 0
M  V30 1935 C 188.04 3.03647 4.86401 0
M  V30 1936 N 187.536 3.79136 5.79852 0
M  V30 1937 N 189.329 2.9288 4.79768 0
M  V30 1938 H 181.48 1.83075 1.0769 0
M  V30 1939 H 183.743 0.783637 0.533495 0
M  V30 1940 H 183.449 2.53291 2.44001 0
M  V30 1941 H 183.323 1.20113 3.57565 0
M  V30 1942 H 185.71 0.46163 2.91467 0
M  V30 1943 H 185.791 1.8262 1.79119 0
M  V30 1944 H 185.435 3.42874 3.74699 0
M  V30 1945 H 185.365 2.03649 4.85628 0
M  V30 1946 H 187.856 1.82525 3.30897 0
M  V30 1947 H 188.169 4.26789 6.4426 0
M  V30 1948 H 186.514 3.83243 5.79784 0
M  V30 1949 H 189.705 2.33433 4.05742 0
M  V30 1950 H 189.878 3.448 5.4865 0
M  V30 1951 N 183.284 -1.43765 0.645699 0
M  V30 1952 C 184.514 -2.05953 0.163318 0
M  V30 1953 C 184.922 -1.48432 -1.17322 0
M  V30 1954 O 184.265 -0.607295 -1.73371 0
M  V30 1955 C 184.327 -3.59499 -0.0103065 0
M  V30 1956 C 183.991 -4.39563 1.25035 0
M  V30 1957 C 184.988 -4.72108 2.17739 0
M  V30 1958 C 182.673 -4.79697 1.48983 0
M  V30 1959 C 184.667 -5.43688 3.3269 0
M  V30 1960 C 182.354 -5.51023 2.64229 0
M  V30 1961 C 183.352 -5.8294 3.55908 0
M  V30 1962 O 183.04 -6.5281 4.69142 0
M  V30 1963 H 182.772 -0.670798 0.0836986 0
M  V30 1964 H 185.326 -1.85384 0.884407 0
M  V30 1965 H 183.556 -3.78613 -0.78669 0
M  V30 1966 H 185.245 -4.03408 -0.449087 0
M  V30 1967 H 186.011 -4.41627 2.00476 0
M  V30 1968 H 181.89 -4.54266 0.785078 0
M  V30 1969 H 185.434 -5.68517 4.04269 0
M  V30 1970 H 181.331 -5.8092 2.81429 0
M  V30 1971 H 182.099 -6.71288 4.6831 0
M  V30 1972 N 184.763 -0.387143 -1.52771 0
M  V30 1973 C 185.726 0.436939 -2.24997 0
M  V30 1974 C 186.726 0.991991 -1.26555 0
M  V30 1975 O 187.916 0.874335 -1.50669 0
M  V30 1976 C 185.048 1.61281 -3.00335 0
M  V30 1977 H 186.241 -0.195365 -2.99263 0
M  V30 1978 H 183.794 -0.139218 -1.55679 0
M  V30 1979 H 184.529 2.2826 -2.30364 0
M  V30 1980 H 184.314 1.22154 -3.72587 0
M  V30 1981 H 185.804 2.19629 -3.5518 0
M  V30 1982 N 186.241 1.57166 -0.116904 0
M  V30 1983 C 187.173 2.12271 0.864507 0
M  V30 1984 C 188.186 1.06494 1.23138 0
M  V30 1985 O 189.375 1.33873 1.18069 0
M  V30 1986 C 186.475 2.60564 2.16702 0
M  V30 1987 C 185.648 3.90416 1.97216 0
M  V30 1988 C 184.707 4.24329 3.11178 0
M  V30 1989 O 183.733 4.93182 2.84184 0
M  V30 1990 N 184.935 3.8148 4.37554 0
M  V30 1991 H 187.7 2.97102 0.393726 0
M  V30 1992 H 185.261 1.61759 0.0675805 0
M  V30 1993 H 187.253 2.80282 2.91932 0
M  V30 1994 H 185.823 1.80623 2.55135 0
M  V30 1995 H 185.043 3.79627 1.06192 0
M  V30 1996 H 186.331 4.75327 1.81499 0
M  V30 1997 H 185.729 3.25943 4.62361 0
M  V30 1998 H 184.286 4.06311 5.09661 0
M  V30 1999 N 187.719 -0.156864 1.56817 0
M  V30 2000 C 188.947 -0.886316 1.86955 0
M  V30 2001 C 189.362 -1.75185 0.703975 0
M  V30 2002 O 188.719 -1.79555 -0.326552 0
M  V30 2003 C 188.77 -1.75117 3.16253 0
M  V30 2004 O 188.491 -0.920537 4.2832 0
M  V30 2005 C 189.992 -2.58905 3.59837 0
M  V30 2006 H 187.212 -0.25678 0.619923 0
M  V30 2007 H 189.756 -0.152615 2.0393 0
M  V30 2008 H 187.911 -2.43805 3.01062 0
M  V30 2009 H 188.325 -1.51337 5.02192 0
M  V30 2010 H 189.799 -3.1518 4.53172 0
M  V30 2011 H 190.276 -3.34472 2.84649 0
M  V30 2012 H 190.882 -1.95526 3.7769 0
M  V30 2013 N 189.197 -1.51736 -0.425897 0
M  V30 2014 C 190.608 -1.5732 -1.00536 0
M  V30 2015 C 190.959 -0.403537 -1.92005 0
M  V30 2016 O 190.084 0.478256 -2.11049 0
M  V30 2017 C 190.679 -2.85119 -1.8301 0
M  V30 2018 C 189.238 -2.93236 -2.35987 0
M  V30 2019 C 188.385 -2.52098 -1.15508 0
M  V30 2020 H 191.336 -1.57348 -0.206739 0
M  V30 2021 H 191.357 -2.69526 -2.68581 0
M  V30 2022 H 190.869 -3.7023 -1.16411 0
M  V30 2023 H 188.97 -2.12581 -3.06007 0
M  V30 2024 H 189.083 -3.9713 -2.68001 0
M  V30 2025 H 187.447 -2.05558 -1.50393 0
M  V30 2026 H 188.23 -3.39565 -0.505014 0
M  V30 2027 N 190.675 0.682077 -1.42076 0
M  V30 2028 C 191.638 1.77756 -1.44691 0
M  V30 2029 C 192.638 1.5726 -0.335535 0
M  V30 2030 O 193.828 1.63686 -0.596037 0
M  V30 2031 C 190.96 3.16301 -1.27146 0
M  V30 2032 H 192.153 1.76826 -2.42224 0
M  V30 2033 H 189.706 0.891012 -1.28416 0
M  V30 2034 H 190.441 3.22862 -0.305075 0
M  V30 2035 H 190.226 3.32581 -2.07683 0
M  V30 2036 H 191.716 3.96241 -1.31843 0
M  V30 2037 N 192.153 1.28127 0.917671 0
M  V30 2038 C 193.101 1.11569 2.04096 0
M  V30 2039 C 194.095 0.0360242 1.69362 0
M  V30 2040 O 195.301 0.194501 1.78946 0
M  V30 2041 H 191.676 0.344097 0.668656 0
M  V30 2042 H 193.647 2.06711 2.15205 0
M  V30 2043 C 192.396 0.790197 3.38602 0
M  V30 2044 H 191.719 1.61293 3.6582 0
M  V30 2045 H 193.159 0.714271 4.1794 0
M  V30 2046 C 191.618 -0.505897 3.3308 0
M  V30 2047 O 192.148 -1.53736 3.71117 0
M  V30 2048 N 190.354 -0.505193 2.86175 0
M  V30 2049 H 189.901 0.334621 2.55417 0
M  V30 2050 H 189.859 -1.37243 2.82863 0
M  V30 2051 N 193.631 -1.12557 1.10312 0
M  V30 2052 C 194.564 -2.1737 0.694674 0
M  V30 2053 C 195.542 -1.59745 -0.303373 0
M  V30 2054 O 196.726 -1.87408 -0.202578 0
M  V30 2055 C 193.853 -3.38691 0.0248052 0
M  V30 2056 C 192.899 -4.14943 0.986121 0
M  V30 2057 S 193.732 -4.73413 2.50281 0
M  V30 2058 C 194.888 -5.9807 1.84562 0
M  V30 2059 H 195.121 -2.5168 1.58255 0
M  V30 2060 H 192.654 -1.23998 0.919992 0
M  V30 2061 H 194.612 -4.08959 -0.355361 0
M  V30 2062 H 193.273 -3.02664 -0.839851 0
M  V30 2063 H 192.466 -5.01854 0.464651 0
M  V30 2064 H 192.068 -3.50377 1.30813 0
M  V30 2065 H 194.36 -6.67232 1.17507 0
M  V30 2066 H 195.303 -6.54841 2.69423 0
M  V30 2067 H 195.711 -5.49073 1.31069 0
M  V30 2068 N 195.109 -0.891671 -1.2995 0
M  V30 2069 C 196.356 -0.513501 -1.95881 0
M  V30 2070 C 196.684 0.938655 -1.70351 0
M  V30 2071 O 195.939 1.67936 -1.00478 0
M  V30 2072 C 196.238 -0.742868 -3.49594 0
M  V30 2073 C 195.904 -2.17114 -3.95186 0
M  V30 2074 C 194.566 -2.56169 -4.07346 0
M  V30 2075 C 196.918 -3.10162 -4.18866 0
M  V30 2076 C 194.246 -3.87469 -4.4055 0
M  V30 2077 C 196.598 -4.41001 -4.53542 0
M  V30 2078 C 195.262 -4.79941 -4.63911 0
M  V30 2079 H 194.532 -0.187903 -0.71678 0
M  V30 2080 H 197.179 -1.1288 -1.54694 0
M  V30 2081 H 195.484 -0.044586 -3.91775 0
M  V30 2082 H 197.181 -0.429767 -3.9869 0
M  V30 2083 H 193.771 -1.85801 -3.86233 0
M  V30 2084 H 197.955 -2.81206 -4.08946 0
M  V30 2085 H 193.211 -4.17371 -4.46779 0
M  V30 2086 H 197.385 -5.13133 -4.70815 0
M  V30 2087 H 195.012 -5.81719 -4.89395 0
M  V30 2088 N 196.587 1.43421 -0.653314 0
M  V30 2089 C 197.817 2.05864 -0.174238 0
M  V30 2090 C 198.225 1.49052 1.16534 0
M  V30 2091 O 197.568 0.616481 1.73047 0
M  V30 2092 C 197.63 3.59499 -0.00875873 0
M  V30 2093 C 197.294 4.38893 -1.27364 0
M  V30 2094 C 198.291 4.70947 -2.20239 0
M  V30 2095 C 195.976 4.789 -1.51525 0
M  V30 2096 C 197.97 5.41916 -3.35568 0
M  V30 2097 C 195.657 5.49614 -2.67147 0
M  V30 2098 C 196.655 5.81044 -3.58994 0
M  V30 2099 O 196.343 6.50313 -4.72597 0
M  V30 2100 H 196.075 0.670345 -0.0872549 0
M  V30 2101 H 198.629 1.84913 -0.894226 0
M  V30 2102 H 196.859 3.79025 0.7666 0
M  V30 2103 H 198.548 4.0364 0.427687 0
M  V30 2104 H 199.314 4.40558 -2.02815 0
M  V30 2105 H 195.193 4.53843 -0.809158 0
M  V30 2106 H 198.737 5.66365 -4.07279 0
M  V30 2107 H 194.634 5.79419 -2.84505 0
M  V30 2108 H 195.402 6.68795 -4.71864 0
M  V30 2109 N 198.065 0.39524 1.52563 0
M  V30 2110 C 199.314 -0.186321 2.00838 0
M  V30 2111 C 199.627 -1.47402 1.28577 0
M  V30 2112 O 200.833 -2.13599 1.67593 0
M  V30 2113 C 199.289 -0.382595 3.57861 0
M  V30 2114 C 198.897 0.892202 4.39026 0
M  V30 2115 C 200.641 -0.9202 4.14406 0
M  V30 2116 C 198.548 0.66388 5.87662 0
M  V30 2117 H 197.478 -0.0734041 0.750418 0
M  V30 2118 H 200.129 0.518552 1.76021 0
M  V30 2119 H 198.511 -1.14946 3.7895 0
M  V30 2120 H 199.685 1.66414 4.29701 0
M  V30 2121 H 198 1.35519 3.9373 0
M  V30 2122 H 200.597 -1.10683 5.23119 0
M  V30 2123 H 200.94 -1.89096 3.70875 0
M  V30 2124 H 201.473 -0.212751 3.97231 0
M  V30 2125 H 198.212 1.6058 6.35527 0
M  V30 2126 H 197.732 -0.0690193 5.9976 0
M  V30 2127 H 199.411 0.300699 6.46301 0
M  V30 2128 N 199.544 -1.57102 0.125237 0
M  V30 2129 C 200.79 -1.95697 -0.532035 0
M  V30 2130 C 201.123 -1.009 -1.6593 0
M  V30 2131 O 200.398 -0.047347 -1.94442 0
M  V30 2132 C 200.681 -3.44181 -1.05884 0
M  V30 2133 C 200.534 -4.49752 0.0654392 0
M  V30 2134 C 201.853 -3.94655 -1.9477 0
M  V30 2135 H 198.972 -0.711571 -0.191925 0
M  V30 2136 H 201.614 -1.88923 0.20206 0
M  V30 2137 H 199.764 -3.50085 -1.68442 0
M  V30 2138 H 201.436 -4.55943 0.700982 0
M  V30 2139 H 199.679 -4.27653 0.727709 0
M  V30 2140 H 200.35 -5.50924 -0.344505 0
M  V30 2141 H 202.826 -3.91094 -1.42074 0
M  V30 2142 H 201.702 -4.99057 -2.28546 0
M  V30 2143 H 201.963 -3.35718 -2.87656 0
M  V30 2144 N 201.022 0.148545 -1.56898 0
M  V30 2145 C 201.985 1.16736 -1.97244 0
M  V30 2146 C 202.985 1.35947 -0.858777 0
M  V30 2147 O 204.175 1.32966 -1.12542 0
M  V30 2148 C 201.307 2.52798 -2.28705 0
M  V30 2149 H 202.5 0.821279 -2.88435 0
M  V30 2150 H 200.053 0.391831 -1.51309 0
M  V30 2151 H 200.788 2.92381 -1.403 0
M  V30 2152 H 200.573 2.40216 -3.09901 0
M  V30 2153 H 202.063 3.26179 -2.60762 0
M  V30 2154 N 202.5 1.5196 0.417844 0
M  V30 2155 C 203.74 1.67262 1.17486 0
M  V30 2156 C 204.104 0.38983 1.88001 0
M  V30 2157 O 205.305 0.418845 2.65517 0
M  V30 2158 C 203.576 2.85526 2.14965 0
M  V30 2159 S 205.135 3.21263 2.98891 0
M  V30 2160 H 201.953 0.589077 0.398132 0
M  V30 2161 H 204.555 1.89927 0.463452 0
M  V30 2162 H 203.259 3.77145 1.61833 0
M  V30 2163 H 202.79 2.65107 2.90657 0
M  V30 2164 H 204.805 2.69208 4.16823 0
M  V30 2165 N 203.978 -0.674533 1.42435 0
M  V30 2166 C 205.255 -1.4305 1.33402 0
M  V30 2167 C 205.635 -2.11081 -0.0284674 0
M  V30 2168 O 204.983 -2.03257 -1.04397 0
M  V30 2169 C 205.193 -2.43272 2.50239 0
M  V30 2170 C 206.541 -3.07907 2.92367 0
M  V30 2171 O 207.565 -2.53599 2.50132 0
M  V30 2172 O 206.424 -4.0632 3.65467 0
M  V30 2173 H 203.518 -0.638076 0.526106 0
M  V30 2174 H 206.064 -0.703235 1.54443 0
M  V30 2175 H 204.836 -1.91803 3.41068 0
M  V30 2176 H 204.459 -3.23479 2.31186 0
M  V30 2177 N 205.456 -1.28612 -0.910864 0
M  V30 2178 C 206.404 -1.1265 -2.03501 0
M  V30 2179 C 207.398 -0.0450054 -1.6934 0
M  V30 2180 O 208.604 -0.203988 -1.7884 0
M  V30 2181 H 204.979 -0.347639 -0.666822 0
M  V30 2182 H 206.95 -2.07849 -2.14106 0
M  V30 2183 C 205.699 -0.808143 -3.38178 0
M  V30 2184 H 205.022 -1.63231 -3.6496 0
M  V30 2185 H 206.462 -0.736426 -4.17556 0
M  V30 2186 C 204.921 0.488226 -3.33344 0
M  V30 2187 O 205.451 1.51766 -3.71927 0
M  V30 2188 N 203.657 0.490009 -2.86439 0
M  V30 2189 H 203.204 -0.348161 -2.55236 0
M  V30 2190 H 203.162 1.35741 -2.83587 0
M  V30 2191 N 206.934 1.1197 -1.10907 0
M  V30 2192 C 208.35 1.35591 -0.841852 0
M  V30 2193 C 208.55 1.94233 0.536246 0
M  V30 2194 O 207.606 2.1717 1.28816 0
M  V30 2195 C 208.919 2.29284 -1.94549 0
M  V30 2196 C 210.467 2.42862 -1.97451 0
M  V30 2197 C 210.942 3.39873 -3.07002 0
M  V30 2198 N 212.433 3.47433 -3.06341 0
M  V30 2199 C 213.168 4.22421 -3.87748 0
M  V30 2200 N 212.664 5.00432 -4.79103 0
M  V30 2201 N 214.457 4.17876 -3.75946 0
M  V30 2202 H 206.608 0.722664 -1.99728 0
M  V30 2203 H 208.871 0.380635 -0.868229 0
M  V30 2204 H 208.577 1.93378 -2.93765 0
M  V30 2205 H 208.451 3.29452 -1.83688 0
M  V30 2206 H 210.838 2.78046 -0.988645 0
M  V30 2207 H 210.919 1.42566 -2.12388 0
M  V30 2208 H 210.563 3.05417 -4.05811 0
M  V30 2209 H 210.493 4.40011 -2.89306 0
M  V30 2210 H 212.984 2.91784 -2.40147 0
M  V30 2211 H 213.297 5.55002 -5.37766 0
M  V30 2212 H 211.642 4.99612 -4.83128 0
M  V30 2213 H 214.833 3.56016 -3.03924 0
M  V30 2214 H 215.006 4.76061 -4.39624 0
M  V30 2215 N 208.412 0.89855 1.29475 0
M  V30 2216 C 209.689 0.443416 1.90508 0
M  V30 2217 C 210.069 -1.07685 1.81569 0
M  V30 2218 O 209.417 -1.9182 1.24166 0
M  V30 2219 C 209.627 0.956708 3.35631 0
M  V30 2220 C 210.975 0.999728 4.12663 0
M  V30 2221 O 211.999 0.904299 3.4453 0
M  V30 2222 O 210.858 1.14289 5.34416 0
M  V30 2223 H 207.952 0.138025 0.815401 0
M  V30 2224 H 210.498 0.98834 1.37949 0
M  V30 2225 H 209.27 2.00067 3.36287 0
M  V30 2226 H 208.893 0.391728 3.95666 0
M  V30 2227 N 209.89 -1.43072 0.660911 0
M  V30 2228 C 210.822 -2.29108 -0.0647641 0
M  V30 2229 C 211.835 -1.42928 -0.779448 0
M  V30 2230 O 213.024 -1.66788 -0.635921 0
M  V30 2231 C 210.124 -3.20032 -1.11503 0
M  V30 2232 C 209.297 -4.34792 -0.476955 0
M  V30 2233 C 208.356 -5.06534 -1.42513 0
M  V30 2234 O 207.382 -5.61538 -0.930771 0
M  V30 2235 N 208.584 -5.1075 -2.75889 0
M  V30 2236 H 211.349 -2.92029 0.673731 0
M  V30 2237 H 208.91 -1.53846 0.50427 0
M  V30 2238 H 210.902 -3.64892 -1.75032 0
M  V30 2239 H 209.472 -2.58658 -1.75541 0
M  V30 2240 H 208.692 -3.92752 0.337572 0
M  V30 2241 H 209.98 -5.0879 -0.0318525 0
M  V30 2242 H 209.378 -4.67447 -3.18606 0
M  V30 2243 H 207.935 -5.59302 -3.347 0
M  V30 2244 N 211.368 -0.403325 -1.52352 0
M  V30 2245 C 212.784 -0.0539281 -1.59509 0
M  V30 2246 C 212.984 1.43307 -1.41652 0
M  V30 2247 O 212.04 2.19924 -1.24056 0
M  V30 2248 C 213.353 -0.543654 -2.95745 0
M  V30 2249 C 214.901 -0.501125 -3.08962 0
M  V30 2250 C 215.376 -0.967267 -4.47669 0
M  V30 2251 N 216.867 -0.923849 -4.53893 0
M  V30 2252 C 217.602 -1.25578 -5.5948 0
M  V30 2253 N 217.098 -1.65889 -6.72646 0
M  V30 2254 N 218.891 -1.17613 -5.49658 0
M  V30 2255 H 211.042 -1.37123 -1.62206 0
M  V30 2256 H 213.305 -0.56294 -0.76276 0
M  V30 2257 H 213.011 -1.58275 -3.14073 0
M  V30 2258 H 212.885 0.0498042 -3.77167 0
M  V30 2259 H 215.272 0.528909 -2.90321 0
M  V30 2260 H 215.353 -1.13056 -2.2946 0
M  V30 2261 H 214.997 -1.9956 -4.67053 0
M  V30 2262 H 214.927 -0.314698 -5.25659 0
M  V30 2263 H 217.418 -0.627403 -3.72655 0
M  V30 2264 H 217.731 -1.89543 -7.49195 0
M  V30 2265 H 216.076 -1.69787 -6.73942 0
M  V30 2266 H 219.267 -0.860115 -4.6013 0
M  V30 2267 H 219.44 -1.43812 -6.3184 0
M  V30 2268 N 212.846 1.57033 -0.133567 0
M  V30 2269 C 214.262 1.58035 0.222944 0
M  V30 2270 C 214.462 1.14713 1.6566 0
M  V30 2271 O 213.518 0.841218 2.38075 0
M  V30 2272 C 214.831 3.00691 -0.0236116 0
M  V30 2273 C 216.379 3.12973 0.0411512 0
M  V30 2274 C 216.854 4.57654 -0.177899 0
M  V30 2275 N 218.345 4.63033 -0.124365 0
M  V30 2276 C 219.08 5.72771 -0.268553 0
M  V30 2277 N 218.576 6.91206 -0.46972 0
M  V30 2278 N 220.369 5.61718 -0.2071 0
M  V30 2279 H 212.52 1.8349 -1.06981 0
M  V30 2280 H 214.783 0.848677 -0.422436 0
M  V30 2281 H 214.489 3.36726 -1.0153 0
M  V30 2282 H 214.363 3.70614 0.701808 0
M  V30 2283 H 216.75 2.76787 1.02338 0
M  V30 2284 H 216.831 2.45564 -0.716383 0
M  V30 2285 H 216.475 4.94542 -1.15717 0
M  V30 2286 H 216.405 5.23173 0.599797 0
M  V30 2287 H 218.896 3.7789 0.027011 0
M  V30 2288 H 219.209 7.70693 -0.570212 0
M  V30 2289 H 217.554 6.93156 -0.505876 0
M  V30 2290 H 220.745 4.68072 -0.0507986 0
M  V30 2291 H 220.918 6.47195 -0.322909 0
M  V30 2292 N 214.325 -0.140222 1.56975 0
M  V30 2293 C 215.602 -0.880769 1.74648 0
M  V30 2294 C 215.982 -1.99036 0.703404 0
M  V30 2295 O 215.33 -2.26821 -0.27648 0
M  V30 2296 C 215.54 -1.417 3.18939 0
M  V30 2297 C 216.888 -1.87774 3.80823 0
M  V30 2298 O 217.912 -1.51427 3.2241 0
M  V30 2299 O 216.771 -2.54827 4.83452 0
M  V30 2300 H 213.865 -0.416713 0.714338 0
M  V30 2301 H 216.411 -0.125618 1.69234 0
M  V30 2302 H 215.183 -0.619902 3.86359 0
M  V30 2303 H 214.806 -2.23546 3.28805 0
M  V30 2304 N 215.803 -1.52179 -0.40978 0
M  V30 2305 C 217.214 -1.58377 -0.988615 0
M  V30 2306 C 217.565 -0.423879 -1.91566 0
M  V30 2307 O 216.69 0.455844 -2.11544 0
M  V30 2308 C 217.285 -2.87044 -1.79976 0
M  V30 2309 C 215.844 -2.95722 -2.32863 0
M  V30 2310 C 214.991 -2.53309 -1.12828 0
M  V30 2311 H 217.942 -1.57558 -0.190039 0
M  V30 2312 H 217.963 -2.7236 -2.65707 0
M  V30 2313 H 217.475 -3.71444 -1.12478 0
M  V30 2314 H 215.576 -2.15814 -3.03735 0
M  V30 2315 H 215.689 -3.99951 -2.63773 0
M  V30 2316 H 214.053 -2.07142 -1.48204 0
M  V30 2317 H 214.836 -3.40082 -0.46897 0
M  V30 2318 N 217.281 0.66697 -1.42791 0
M  V30 2319 C 218.692 1.2478 -1.38877 0
M  V30 2320 C 219.043 1.96012 -0.0859426 0
M  V30 2321 O 218.168 2.00463 0.815081 0
M  V30 2322 C 218.763 2.26938 -2.51564 0
M  V30 2323 C 217.322 2.80529 -2.50959 0
M  V30 2324 C 216.469 1.54965 -2.29959 0
M  V30 2325 H 219.42 0.459853 -1.51892 0
M  V30 2326 H 219.441 3.08834 -2.22265 0
M  V30 2327 H 218.953 1.75065 -3.46372 0
M  V30 2328 H 217.054 3.36502 -1.59991 0
M  V30 2329 H 217.167 3.29012 -3.48265 0
M  V30 2330 H 215.531 1.81817 -1.78366 0
M  V30 2331 H 216.314 1.05047 -3.26833 0
M  V30 2332 N 218.759 1.29093 0.90403 0
M  V30 2333 C 219.691 1.09658 2.01266 0
M  V30 2334 C 220.704 0.0453729 1.62737 0
M  V30 2335 O 221.893 0.289446 1.76138 0
M  V30 2336 C 218.993 0.646278 3.32681 0
M  V30 2337 C 218.166 1.77505 3.99763 0
M  V30 2338 C 217.225 1.31649 5.09465 0
M  V30 2339 O 216.251 2.02045 5.32134 0
M  V30 2340 N 217.453 0.184997 5.80205 0
M  V30 2341 H 220.218 2.05135 2.18494 0
M  V30 2342 H 217.779 1.20975 1.07594 0
M  V30 2343 H 219.771 0.322906 4.0341 0
M  V30 2344 H 218.341 -0.215916 3.11853 0
M  V30 2345 H 217.561 2.26752 3.22455 0
M  V30 2346 H 218.849 2.53198 4.41325 0
M  V30 2347 H 218.247 -0.402021 5.6427 0
M  V30 2348 H 216.804 -0.0790358 6.51752 0
M  V30 2349 N 220.237 -1.11381 1.11499 0
M  V30 2350 C 221.467 -1.86663 0.885464 0
M  V30 2351 C 221.875 -1.80464 -0.568281 0
M  V30 2352 O 221.218 -1.18445 -1.40415 0
M  V30 2353 C 221.28 -3.36337 1.26956 0
M  V30 2354 C 220.944 -3.66304 2.73259 0
M  V30 2355 C 221.941 -3.63733 3.71476 0
M  V30 2356 C 219.626 -3.9529 3.09921 0
M  V30 2357 C 221.62 -3.89725 5.04374 0
M  V30 2358 C 219.307 -4.20941 4.43004 0
M  V30 2359 C 220.305 -4.18147 5.40039 0
M  V30 2360 O 219.993 -4.43153 6.70724 0
M  V30 2361 H 219.725 -0.597114 0.316908 0
M  V30 2362 H 222.279 -1.41782 1.48617 0
M  V30 2363 H 220.509 -3.81826 0.611999 0
M  V30 2364 H 222.198 -3.92986 1.01573 0
M  V30 2365 H 222.964 -3.41389 3.44498 0
M  V30 2366 H 218.843 -3.966 2.35009 0
M  V30 2367 H 222.387 -3.8746 5.80104 0
M  V30 2368 H 218.284 -4.42761 4.69716 0
M  V30 2369 H 219.052 -4.60717 6.76522 0
M  V30 2370 N 221.715 -0.905404 -1.28997 0
M  V30 2371 C 223.126 -0.581953 -1.77398 0
M  V30 2372 C 223.477 0.902552 -1.74208 0
M  V30 2373 O 222.602 1.70584 -1.33154 0
M  V30 2374 C 223.197 -1.04961 -3.22131 0
M  V30 2375 C 221.756 -0.777229 -3.68288 0
M  V30 2376 C 220.903 -1.22109 -2.48967 0
M  V30 2377 H 223.854 -1.08754 -1.15578 0
M  V30 2378 H 223.875 -0.387387 -3.78523 0
M  V30 2379 H 223.387 -2.13008 -3.24421 0
M  V30 2380 H 221.488 0.290383 -3.71467 0
M  V30 2381 H 221.601 -1.37911 -4.58822 0
M  V30 2382 H 219.965 -0.639971 -2.46529 0
M  V30 2383 H 220.748 -2.30972 -2.53982 0
M  V30 2384 N 223.193 1.4272 -0.668489 0
M  V30 2385 C 224.439 2.01923 -0.188419 0
M  V30 2386 C 224.772 1.52704 1.19979 0
M  V30 2387 O 224.047 0.726566 1.8042 0
M  V30 2388 C 224.33 3.59451 -0.216085 0
M  V30 2389 C 224.183 4.18864 -1.6393 0
M  V30 2390 C 225.502 4.37903 0.439179 0
M  V30 2391 H 222.621 0.733674 -0.0699412 0
M  V30 2392 H 225.263 1.69822 -0.852076 0
M  V30 2393 H 223.413 3.86929 0.349012 0
M  V30 2394 H 225.085 4.02362 -2.25616 0
M  V30 2395 H 223.328 3.74933 -2.18193 0
M  V30 2396 H 223.999 5.27987 -1.61039 0
M  V30 2397 H 226.475 4.16079 -0.0417878 0
M  V30 2398 H 225.351 5.47519 0.389157 0
M  V30 2399 H 225.612 4.15303 1.51577 0
M  V30 2400 N 224.671 0.411399 1.52136 0
M  V30 2401 C 225.917 -0.163888 2.02137 0
M  V30 2402 C 226.25 -1.44597 1.29636 0
M  V30 2403 O 225.525 -1.90272 0.403353 0
M  V30 2404 C 225.808 -0.40927 3.57767 0
M  V30 2405 C 225.661 0.889643 4.40914 0
M  V30 2406 C 226.98 -1.19042 4.23694 0
M  V30 2407 H 224.099 -0.0580896 0.734707 0
M  V30 2408 H 226.741 0.54531 1.82007 0
M  V30 2409 H 224.891 -1.0134 3.7505 0
M  V30 2410 H 226.563 1.52575 4.35337 0
M  V30 2411 H 224.806 1.50011 4.07037 0
M  V30 2412 H 225.477 0.672314 5.4789 0
M  V30 2413 H 227.953 -0.678942 4.10524 0
M  V30 2414 H 226.829 -1.33086 5.32522 0
M  V30 2415 H 227.09 -2.21166 3.82803 0
M  V30 2416 N 226.149 -1.5696 0.141893 0
M  V30 2417 C 227.56 -1.82797 -0.379776 0
M  V30 2418 C 227.911 -1.06033 -1.6508 0
M  V30 2419 O 227.036 -0.304011 -2.14254 0
M  V30 2420 C 227.631 -3.31578 -0.695802 0
M  V30 2421 C 226.19 -3.58014 -1.16201 0
M  V30 2422 C 225.337 -2.76699 -0.182455 0
M  V30 2423 H 228.288 -1.54406 0.366675 0
M  V30 2424 H 228.309 -3.47454 -1.55099 0
M  V30 2425 H 227.821 -3.87421 0.229449 0
M  V30 2426 H 225.922 -3.07553 -2.10338 0
M  V30 2427 H 226.035 -4.66501 -1.09151 0
M  V30 2428 H 224.399 -2.45618 -0.674072 0
M  V30 2429 H 225.182 -3.35311 0.736297 0
M  V30 2430 N 227.627 0.131896 -1.57047 0
M  V30 2431 C 228.873 0.843179 -1.84441 0
M  V30 2432 C 229.206 1.80129 -0.725749 0
M  V30 2433 O 228.481 1.92624 0.269469 0
M  V30 2434 C 228.764 1.60442 -3.22382 0
M  V30 2435 C 228.617 0.666782 -4.4483 0
M  V30 2436 C 229.936 2.56354 -3.5773 0
M  V30 2437 H 227.055 0.305081 -0.670891 0
M  V30 2438 H 229.697 0.107839 -1.89694 0
M  V30 2439 H 227.847 2.23128 -3.18035 0
M  V30 2440 H 229.519 0.0497646 -4.61273 0
M  V30 2441 H 227.762 -0.022609 -4.33794 0
M  V30 2442 H 228.433 1.23579 -5.37989 0
M  V30 2443 H 230.909 2.0378 -3.62785 0
M  V30 2444 H 229.785 3.06657 -4.5525 0
M  V30 2445 H 230.046 3.38419 -2.84473 0
M  V30 2446 N 229.106 1.52395 0.401703 0
M  V30 2447 C 230.056 1.72649 1.48917 0
M  V30 2448 C 231.04 0.580436 1.50066 0
M  V30 2449 O 232.232 0.83779 1.55917 0
M  V30 2450 C 229.361 1.88729 2.86769 0
M  V30 2451 C 228.447 3.09228 2.90239 0
M  V30 2452 N 228.838 4.31805 2.63396 0
M  V30 2453 C 227.136 3.09214 3.21408 0
M  V30 2454 C 227.837 5.13326 2.73625 0
M  V30 2455 N 226.813 4.48735 3.06819 0
M  V30 2456 H 230.615 2.65058 1.26971 0
M  V30 2457 H 228.129 1.50528 0.609504 0
M  V30 2458 H 230.126 2.01358 3.65049 0
M  V30 2459 H 228.786 0.975252 3.09708 0
M  V30 2460 H 229.797 4.60154 2.37653 0
M  V30 2461 H 226.474 2.27774 3.49893 0
M  V30 2462 H 227.864 6.21003 2.56524 0
M  V30 2463 N 230.584 -0.659388 1.43143 0
M  V30 2464 C 231.514 -1.78422 1.50625 0
M  V30 2465 C 232.495 -1.66216 0.361443 0
M  V30 2466 O 233.68 -1.85404 0.577834 0
M  V30 2467 C 230.81 -3.16815 1.42287 0
M  V30 2468 C 229.764 -3.43777 2.54954 0
M  V30 2469 C 229.09 -4.81905 2.31671 0
M  V30 2470 C 230.39 -3.39134 3.97222 0
M  V30 2471 H 232.084 -1.72417 2.44771 0
M  V30 2472 H 229.63 -0.828084 1.17808 0
M  V30 2473 H 231.583 -3.95253 1.46127 0
M  V30 2474 H 230.307 -3.23534 0.446435 0
M  V30 2475 H 228.966 -2.67707 2.50457 0
M  V30 2476 H 228.614 -4.85294 1.32284 0
M  V30 2477 H 228.314 -5.00906 3.07192 0
M  V30 2478 H 229.838 -5.62609 2.37284 0
M  V30 2479 H 231.252 -4.07518 4.03239 0
M  V30 2480 H 229.649 -3.69671 4.72719 0
M  V30 2481 H 230.719 -2.37426 4.22797 0
M  V30 2482 N 232.062 -1.29571 -0.897171 0
M  V30 2483 C 233.339 -1.08365 -1.62839 0
M  V30 2484 C 233.719 0.371331 -2.07808 0
M  V30 2485 O 233.067 1.3606 -1.83576 0
M  V30 2486 C 233.277 -2.0735 -2.80726 0
M  V30 2487 C 234.625 -2.38406 -3.51351 0
M  V30 2488 O 235.649 -2.05564 -2.90898 0
M  V30 2489 O 234.508 -2.9453 -4.60341 0
M  V30 2490 H 231.602 -0.415345 -0.715134 0
M  V30 2491 H 234.148 -1.40952 -0.945018 0
M  V30 2492 H 232.92 -3.05339 -2.44711 0
M  V30 2493 H 232.543 -1.75507 -3.56767 0
M  V30 2494 N 233.54 1.10788 -1.12088 0
M  V30 2495 C 234.956 1.34691 -0.856186 0
M  V30 2496 C 235.156 1.94791 0.515615 0
M  V30 2497 O 234.212 2.18524 1.26505 0
M  V30 2498 C 235.525 2.27208 -1.9697 0
M  V30 2499 C 237.073 2.40755 -2.00016 0
M  V30 2500 C 237.548 3.36598 -3.1059 0
M  V30 2501 N 239.039 3.44164 -3.10008 0
M  V30 2502 C 239.774 4.18284 -3.92206 0
M  V30 2503 N 239.27 4.95322 -4.84384 0
M  V30 2504 N 241.063 4.13865 -3.80357 0
M  V30 2505 H 233.214 0.70144 -2.00483 0
M  V30 2506 H 235.477 0.371405 -0.872217 0
M  V30 2507 H 235.183 1.90251 -2.958 0
M  V30 2508 H 235.057 3.27485 -1.87172 0
M  V30 2509 H 237.444 2.76982 -1.01808 0
M  V30 2510 H 237.525 1.40305 -2.13888 0
M  V30 2511 H 237.169 3.01096 -4.09028 0
M  V30 2512 H 237.099 4.36918 -2.93956 0
M  V30 2513 H 239.59 2.8922 -2.43228 0
M  V30 2514 H 239.903 5.49267 -5.43623 0
M  V30 2515 H 238.248 4.94459 -4.884 0
M  V30 2516 H 241.439 3.52773 -3.07683 0
M  V30 2517 H 241.612 4.71372 -4.44649 0
M  V30 2518 N 235.018 0.912232 1.28515 0
M  V30 2519 C 236.267 0.540504 1.94323 0
M  V30 2520 C 236.58 -0.920044 1.72611 0
M  V30 2521 O 237.786 -1.39986 2.32629 0
M  V30 2522 C 236.242 0.915803 3.48053 0
M  V30 2523 C 235.85 2.39598 3.78546 0
M  V30 2524 C 237.594 0.614588 4.20027 0
M  V30 2525 C 235.501 2.71148 5.25578 0
M  V30 2526 H 234.431 0.198418 0.727424 0
M  V30 2527 H 237.082 1.11094 1.46049 0
M  V30 2528 H 235.464 0.274168 3.9505 0
M  V30 2529 H 236.638 3.08422 3.42364 0
M  V30 2530 H 234.953 2.66749 3.1974 0
M  V30 2531 H 237.55 0.827002 5.28266 0
M  V30 2532 H 237.893 -0.447531 4.13887 0
M  V30 2533 H 238.426 1.21462 3.78803 0
M  V30 2534 H 235.165 3.76207 5.36794 0
M  V30 2535 H 234.685 2.0696 5.62963 0
M  V30 2536 H 236.364 2.58072 5.93302 0
M  V30 2537 N 236.496 -1.42363 0.676048 0
M  V30 2538 C 237.745 -2.00745 0.196037 0
M  V30 2539 C 238.058 -1.54083 -1.20489 0
M  V30 2540 O 239.264 -2.04891 -1.78134 0
M  V30 2541 C 237.72 -3.58651 0.299616 0
M  V30 2542 C 237.328 -4.143 1.70468 0
M  V30 2543 C 239.072 -4.24326 -0.121619 0
M  V30 2544 C 236.979 -5.64574 1.76096 0
M  V30 2545 H 235.909 -0.750787 0.0695301 0
M  V30 2546 H 238.56 -1.63072 0.841412 0
M  V30 2547 H 236.942 -3.93833 -0.413673 0
M  V30 2548 H 238.116 -3.90575 2.44515 0
M  V30 2549 H 236.431 -3.61081 2.07387 0
M  V30 2550 H 239.028 -5.34607 -0.0997362 0
M  V30 2551 H 239.371 -3.99897 -1.15708 0
M  V30 2552 H 239.904 -3.94108 0.540706 0
M  V30 2553 H 236.643 -5.93804 2.77628 0
M  V30 2554 H 236.163 -5.90286 1.06406 0
M  V30 2555 H 237.842 -6.29013 1.51496 0
M  V30 2556 O 238.013 -0.561574 -1.51422 0
M  V30 2557 H 238.704 -0.0603133 -1.93606 0
M  V30 END ATOM
M  V30 BEGIN BOND
M  V30 END BOND
M  V30 END CTAB
M  END
$$$$
