drugbank_target|P10176 Cytochrome c oxidase subunit 8A, mitochondrial (DB02659; DB04464)
 OpenBabel12092120443D

  0  0  0     0  0            999 V3000
M  V30 BEGIN CTAB
M  V30 COUNTS 1107 1120 0 0 0
M  V30 BEGIN ATOM
M  V30 1 H -0.908 1.98254 -0.117106 0
M  V30 2 N 0 1.576 0 0
M  V30 3 C 0.933 2.03868 1.02534 0
M  V30 4 C 1.911 0.928543 1.3348 0
M  V30 5 O 3.095 1.19667 1.45644 0
M  V30 6 C 0.222 2.43627 2.35294 0
M  V30 7 C -0.732 3.65373 2.2001 0
M  V30 8 S 0.101 5.13292 1.52614 0
M  V30 9 C 1.257 5.56322 2.86805 0
M  V30 10 H 1.49 2.90518 0.631377 0
M  V30 11 H -0.977 1.52953 0.210867 0
M  V30 12 H 0.981 2.67203 3.11629 0
M  V30 13 H -0.358 1.57376 2.7183 0
M  V30 14 H -1.165 3.90944 3.18086 0
M  V30 15 H -1.563 3.418 1.51819 0
M  V30 16 H 0.729 5.58782 3.83104 0
M  V30 17 H 1.672 6.56266 2.65933 0
M  V30 18 H 2.08 4.83886 2.90714 0
M  V30 19 N 1.4781 -0.272755 1.55222 0
M  V30 20 C 2.7031 -1.02683 1.80197 0
M  V30 21 C 3.1281 -1.79142 0.573551 0
M  V30 22 O 2.4861 -1.74917 -0.476849 0
M  V30 23 C 2.5341 -1.9609 3.02624 0
M  V30 24 O 1.6381 -3.04863 2.77727 0
M  V30 25 H 0.9791 -0.293557 0.595584 0
M  V30 26 H 3.5091 -0.30159 2.02365 0
M  V30 27 H 3.5191 -2.38039 3.31363 0
M  V30 28 H 2.1941 -1.39851 3.91682 0
M  V30 29 H 0.7711 -2.67228 2.60084 0
M  V30 30 N 2.9562 -1.48159 -0.537278 0
M  V30 31 C 4.2022 -1.56035 -1.29541 0
M  V30 32 C 4.5352 -0.230377 -1.92829 0
M  V30 33 O 3.8102 0.762952 -1.78911 0
M  V30 34 C 4.0932 -2.69323 -2.39034 0
M  V30 35 C 3.9462 -4.12002 -1.80485 0
M  V30 36 C 5.2652 -2.78408 -3.40847 0
M  V30 37 H 2.3842 -0.567992 -0.469632 0
M  V30 38 H 5.0262 -1.80302 -0.599277 0
M  V30 39 H 3.1762 -2.48763 -2.98412 0
M  V30 40 H 4.8482 -4.43981 -1.25215 0
M  V30 41 H 3.0912 -4.19344 -1.11055 0
M  V30 42 H 3.7622 -4.87077 -2.59731 0
M  V30 43 H 6.2382 -2.97012 -2.91416 0
M  V30 44 H 5.1142 -3.59416 -4.14863 0
M  V30 45 H 5.3752 -1.86269 -4.00944 0
M  V30 46 N 4.4343 0.785586 -1.36625 0
M  V30 47 C 5.3643 1.91259 -1.33949 0
M  V30 48 C 6.3453 1.68795 -0.210325 0
M  V30 49 O 7.5303 1.89854 -0.408561 0
M  V30 50 C 4.6603 3.28339 -1.13186 0
M  V30 51 C 3.6143 3.65335 -2.22967 0
M  V30 52 C 2.9403 5.00806 -1.87342 0
M  V30 53 C 4.2403 3.7352 -3.65075 0
M  V30 54 H 5.9343 1.93755 -2.28253 0
M  V30 55 H 3.4803 0.930788 -1.09874 0
M  V30 56 H 5.4333 4.06804 -1.09948 0
M  V30 57 H 4.1573 3.2624 -0.153332 0
M  V30 58 H 2.8163 2.89169 -2.25337 0
M  V30 59 H 2.4643 4.95233 -0.880545 0
M  V30 60 H 2.1643 5.26529 -2.60846 0
M  V30 61 H 3.6883 5.81687 -1.85667 0
M  V30 62 H 5.1023 4.42168 -3.64911 0
M  V30 63 H 3.4993 4.10731 -4.37516 0
M  V30 64 H 4.5693 2.74527 -3.99703 0
M  V30 65 N 5.9124 1.20967 1.01018 0
M  V30 66 C 7.1404 1.04956 1.78303 0
M  V30 67 C 7.5554 -0.400915 1.84494 0
M  V30 68 O 6.9124 -1.27826 1.30257 0
M  V30 69 C 6.9634 1.63403 3.22462 0
M  V30 70 O 6.6844 3.02775 3.16637 0
M  V30 71 C 8.1854 1.52432 4.16268 0
M  V30 72 H 5.4054 0.368858 0.560522 0
M  V30 73 H 7.9494 1.60193 1.27116 0
M  V30 74 H 6.1044 1.1227 3.70775 0
M  V30 75 H 6.5184 3.30626 4.07169 0
M  V30 76 H 7.9924 1.98078 5.15237 0
M  V30 77 H 8.4694 0.477875 4.36592 0
M  V30 78 H 9.0754 2.02787 3.73841 0
M  V30 79 N 7.3905 -1.2043 1.01659 0
M  V30 80 C 8.8015 -1.71517 0.737482 0
M  V30 81 C 9.1525 -1.81547 -0.743973 0
M  V30 82 O 8.2775 -1.47803 -1.58061 0
M  V30 83 C 8.8725 -3.11515 1.33206 0
M  V30 84 C 7.4315 -3.59912 1.10183 0
M  V30 85 C 6.5785 -2.37116 1.43776 0
M  V30 86 H 9.5295 -1.05444 1.18606 0
M  V30 87 H 9.5505 -3.73575 0.722636 0
M  V30 88 H 9.0625 -3.04182 2.41028 0
M  V30 89 H 7.1635 -3.72577 0.0412756 0
M  V30 90 H 7.2765 -4.44731 1.78188 0
M  V30 91 H 5.6405 -2.39857 0.856778 0
M  V30 92 H 6.4235 -2.32424 2.52654 0
M  V30 93 N 8.8686 -0.792821 -1.36206 0
M  V30 94 C 9.7986 -0.207853 -2.32573 0
M  V30 95 C 10.7796 0.659055 -1.56813 0
M  V30 96 O 11.9646 0.592176 -1.84951 0
M  V30 97 C 9.0946 0.655449 -3.41059 0
M  V30 98 C 8.0486 -0.111842 -4.27854 0
M  V30 99 C 7.3746 0.872274 -5.27537 0
M  V30 100 C 8.6746 -1.30299 -5.05786 0
M  V30 101 H 10.3686 -1.01294 -2.81744 0
M  V30 102 H 7.9146 -0.48854 -1.3546 0
M  V30 103 H 9.8676 1.07464 -4.07467 0
M  V30 104 H 8.5916 1.49328 -2.90463 0
M  V30 105 H 7.2506 -0.512053 -3.63006 0
M  V30 106 H 6.8986 1.70523 -4.73214 0
M  V30 107 H 6.5986 0.363291 -5.86476 0
M  V30 108 H 8.1226 1.28996 -5.96818 0
M  V30 109 H 9.5366 -0.959379 -5.65216 0
M  V30 110 H 7.9336 -1.7455 -5.74154 0
M  V30 111 H 9.0036 -2.09663 -4.37229 0
M  V30 112 N 10.3467 1.47872 -0.545128 0
M  V30 113 C 11.2767 2.32661 0.197793 0
M  V30 114 C 12.2577 1.43041 0.920504 0
M  V30 115 O 13.4427 1.71912 0.90333 0
M  V30 116 C 10.5727 3.24569 1.23582 0
M  V30 117 C 9.5267 4.23333 0.630323 0
M  V30 118 C 8.8527 5.0448 1.77211 0
M  V30 119 C 10.1527 5.20704 -0.407974 0
M  V30 120 H 11.8467 2.95024 -0.510045 0
M  V30 121 H 9.3927 1.4187 -0.246731 0
M  V30 122 H 11.3457 3.8272 1.76362 0
M  V30 123 H 10.0697 2.60236 1.97344 0
M  V30 124 H 8.7287 3.6639 0.123922 0
M  V30 125 H 8.3767 4.36561 2.49847 0
M  V30 126 H 8.0767 5.71339 1.37281 0
M  V30 127 H 9.6007 5.65487 2.3034 0
M  V30 128 H 11.0147 5.7329 0.033305 0
M  V30 129 H 9.4117 5.95699 -0.725486 0
M  V30 130 H 10.4817 4.66917 -1.30828 0
M  V30 131 N 11.8248 0.280983 1.55075 0
M  V30 132 C 12.7548 -0.597469 2.25727 0
M  V30 133 C 13.7358 -1.15417 1.24952 0
M  V30 134 O 14.9208 -1.18722 1.53684 0
M  V30 135 C 12.0508 -1.7789 2.98283 0
M  V30 136 C 11.0048 -1.35347 4.06036 0
M  V30 137 C 10.3308 -2.61846 4.66198 0
M  V30 138 C 11.6308 -0.499354 5.19907 0
M  V30 139 H 13.3248 -0.00824265 2.99399 0
M  V30 140 H 10.8708 -0.0025244 1.44 0
M  V30 141 H 12.8238 -2.39937 3.46422 0
M  V30 142 H 11.5478 -2.39405 2.22155 0
M  V30 143 H 10.2068 -0.756156 3.58717 0
M  V30 144 H 9.8548 -3.21632 3.86732 0
M  V30 145 H 9.5548 -2.3409 5.38958 0
M  V30 146 H 11.0788 -3.24732 5.1709 0
M  V30 147 H 12.4928 -1.02498 5.64063 0
M  V30 148 H 10.8898 -0.316424 5.99265 0
M  V30 149 H 11.9598 0.480459 4.82514 0
M  V30 150 N 13.3029 -1.57598 0.00835791 0
M  V30 151 C 14.7189 -1.55764 -0.347822 0
M  V30 152 C 14.9189 -1.01186 -1.74252 0
M  V30 153 O 13.9749 -0.649371 -2.44007 0
M  V30 154 C 15.2879 -2.99927 -0.215407 0
M  V30 155 C 16.8359 -3.11656 -0.289725 0
M  V30 156 C 17.3109 -4.57621 -0.18634 0
M  V30 157 N 18.8019 -4.62557 -0.243978 0
M  V30 158 C 19.5369 -5.73094 -0.18745 0
M  V30 159 N 19.0329 -6.92753 -0.0810331 0
M  V30 160 N 20.8259 -5.61588 -0.239925 0
M  V30 161 H 12.9769 -1.91411 0.92062 0
M  V30 162 H 15.2399 -0.879562 0.353659 0
M  V30 163 H 14.9459 -3.43729 0.744512 0
M  V30 164 H 14.8199 -3.63865 -0.994097 0
M  V30 165 H 17.2069 -2.67779 -1.24009 0
M  V30 166 H 17.2879 -2.5048 0.51898 0
M  V30 167 H 16.9319 -5.02174 0.760519 0
M  V30 168 H 16.8619 -5.16752 -1.01364 0
M  V30 169 H 19.3529 -3.76481 -0.327217 0
M  V30 170 H 19.6659 -7.72787 -0.0440241 0
M  V30 171 H 18.0109 -6.94984 -0.0465419 0
M  V30 172 H 21.2019 -4.66996 -0.321317 0
M  V30 173 H 21.3749 -6.47714 -0.192407 0
M  V30 174 N 14.781 0.264519 -1.55364 0
M  V30 175 C 16.029 0.993021 -1.76021 0
M  V30 176 C 16.35 1.86511 -0.569099 0
M  V30 177 O 15.62 1.91438 0.415735 0
M  V30 178 H 14.2 0.369639 -0.649135 0
M  V30 179 H 16.862 0.286707 -1.9278 0
M  V30 180 H 15.958 1.62502 -2.66457 0
M  V30 181 N 16.2591 1.48442 0.529413 0
M  V30 182 C 17.1891 1.65902 1.64313 0
M  V30 183 C 18.1701 0.507897 1.6234 0
M  V30 184 O 19.3551 0.740503 1.79528 0
M  V30 185 C 16.4851 1.69911 3.02898 0
M  V30 186 C 15.4391 2.8453 3.19729 0
M  V30 187 C 14.7651 2.73629 4.59381 0
M  V30 188 C 16.0651 4.25821 3.02447 0
M  V30 189 H 17.7591 2.5914 1.49955 0
M  V30 190 H 15.3051 1.24709 0.719982 0
M  V30 191 H 17.2581 1.80715 3.80684 0
M  V30 192 H 15.9821 0.732524 3.18279 0
M  V30 193 H 14.6411 2.73283 2.44361 0
M  V30 194 H 14.2891 1.74938 4.71599 0
M  V30 195 H 13.9891 3.50541 4.71588 0
M  V30 196 H 15.5131 2.86401 5.39265 0
M  V30 197 H 16.9271 4.37898 3.70024 0
M  V30 198 H 15.3241 5.03735 3.26146 0
M  V30 199 H 16.3941 4.42244 1.98867 0
M  V30 200 N 17.7372 -0.778329 1.37039 0
M  V30 201 C 18.9652 -1.56734 1.35063 0
M  V30 202 C 19.3802 -1.88686 -0.0655597 0
M  V30 203 O 18.7372 -1.5096 -1.02554 0
M  V30 204 C 18.7882 -2.88163 2.18276 0
M  V30 205 O 18.5092 -2.57583 3.54376 0
M  V30 206 C 20.0102 -3.82422 2.24206 0
M  V30 207 H 17.2302 -0.485778 0.462883 0
M  V30 208 H 19.7742 -0.965185 1.8029 0
M  V30 209 H 17.9292 -3.44818 1.76576 0
M  V30 210 H 18.3432 -3.41699 3.97922 0
M  V30 211 H 19.8172 -4.71667 2.86765 0
M  V30 212 H 20.2942 -4.21078 1.24861 0
M  V30 213 H 20.9002 -3.31697 2.6619 0
M  V30 214 N 19.2153 -1.21501 -1.00376 0
M  V30 215 C 20.4633 -1.03095 -1.73827 0
M  V30 216 C 20.7843 0.436341 -1.90055 0
M  V30 217 O 20.0543 1.31466 -1.45236 0
M  V30 218 H 18.6343 -0.378487 -0.644016 0
M  V30 219 H 21.2963 -1.52831 -1.20949 0
M  V30 220 H 20.3923 -1.49991 -2.73695 0
M  V30 221 N 20.6934 1.19889 -1.02296 0
M  V30 222 C 21.9184 1.9393 -0.735237 0
M  V30 223 C 22.3434 1.74639 0.698782 0
M  V30 224 O 21.7014 1.04481 1.48167 0
M  V30 225 C 21.7494 3.43916 -1.08417 0
M  V30 226 O 20.8534 4.11917 -0.199446 0
M  V30 227 H 20.1944 0.605645 -0.272196 0
M  V30 228 H 22.7244 1.52137 -1.36804 0
M  V30 229 H 22.7344 3.9456 -1.03856 0
M  V30 230 H 21.4094 3.5728 -2.12894 0
M  V30 231 H 19.9864 3.71666 -0.303136 0
M  V30 232 N 22.1715 0.800033 1.35784 0
M  V30 233 C 23.1345 0.211565 2.28221 0
M  V30 234 C 24.1345 -0.59728 1.49296 0
M  V30 235 O 25.3245 -0.416721 1.69142 0
M  V30 236 C 22.4565 -0.705846 3.33513 0
M  V30 237 H 23.6495 1.02677 2.81776 0
M  V30 238 H 21.2025 0.570211 1.45528 0
M  V30 239 H 21.9375 -1.54498 2.85133 0
M  V30 240 H 21.7225 -0.127655 3.91892 0
M  V30 241 H 23.2125 -1.11211 4.02519 0
M  V30 242 N 23.6496 -1.47581 0.552962 0
M  V30 243 C 25.0656 -1.5818 0.212424 0
M  V30 244 C 25.2656 -1.55213 -1.28496 0
M  V30 245 O 24.3216 -1.45329 -2.06484 0
M  V30 246 C 25.6346 -2.88865 0.835318 0
M  V30 247 C 27.1826 -3.0244 0.806156 0
M  V30 248 C 27.6576 -4.35819 1.40804 0
M  V30 249 N 29.1486 -4.42444 1.37103 0
M  V30 250 C 29.8836 -5.44202 1.80641 0
M  V30 251 N 29.3796 -6.52795 2.32015 0
M  V30 252 N 31.1726 -5.35222 1.71738 0
M  V30 253 H 23.3236 -1.47753 1.52587 0
M  V30 254 H 25.5866 -0.702941 0.636064 0
M  V30 255 H 25.2926 -2.9676 1.88749 0
M  V30 256 H 25.1666 -3.7579 0.325848 0
M  V30 257 H 27.5536 -2.94144 -0.237317 0
M  V30 258 H 27.6346 -2.17068 1.35334 0
M  V30 259 H 27.2786 -4.44871 2.45056 0
M  V30 260 H 27.2086 -5.19916 0.836338 0
M  V30 261 H 29.6996 -3.6456 0.995202 0
M  V30 262 H 30.0126 -7.26609 2.63171 0
M  V30 263 H 28.3576 -6.53696 2.36023 0
M  V30 264 H 31.5486 -4.49284 1.31382 0
M  V30 265 H 31.7216 -6.14389 2.05987 0
M  V30 266 N 25.1277 -0.289203 -1.54924 0
M  V30 267 C 26.5437 0.0645403 -1.59469 0
M  V30 268 C 26.7437 1.53419 -1.30632 0
M  V30 269 O 25.7997 2.2852 -1.074 0
M  V30 270 C 27.1127 -0.32278 -2.98963 0
M  V30 271 C 28.6607 -0.270564 -3.11828 0
M  V30 272 C 29.1357 -0.632532 -4.53611 0
M  V30 273 N 30.6267 -0.584617 -4.59496 0
M  V30 274 C 31.3617 -0.837314 -5.67254 0
M  V30 275 N 30.8577 -1.15536 -6.83098 0
M  V30 276 N 32.6507 -0.765166 -5.56868 0
M  V30 277 H 24.8017 -1.24714 -1.71931 0
M  V30 278 H 27.0647 -0.504809 -0.802416 0
M  V30 279 H 26.7707 -1.34541 -3.24948 0
M  V30 280 H 26.6447 0.32944 -3.75759 0
M  V30 281 H 29.0317 0.742805 -2.85598 0
M  V30 282 H 29.1127 -0.957242 -2.37214 0
M  V30 283 H 28.7567 -1.64365 -4.80569 0
M  V30 284 H 28.6867 0.07609 -5.26545 0
M  V30 285 H 31.1777 -0.349248 -3.76283 0
M  V30 286 H 31.4907 -1.33447 -7.61191 0
M  V30 287 H 29.8357 -1.19328 -6.84679 0
M  V30 288 H 33.0267 -0.516432 -4.65243 0
M  V30 289 H 33.1997 -0.965477 -6.40767 0
M  V30 290 N 26.6058 1.57591 -0.0167156 0
M  V30 291 C 27.5358 2.12496 0.967858 0
M  V30 292 C 28.5168 1.03807 1.34752 0
M  V30 293 O 29.7018 1.31577 1.42833 0
M  V30 294 C 26.8318 2.64194 2.25431 0
M  V30 295 C 25.7858 3.77559 2.01576 0
M  V30 296 C 25.1118 4.15636 3.36379 0
M  V30 297 C 26.4118 5.04151 1.36489 0
M  V30 298 H 28.1058 2.95013 0.510643 0
M  V30 299 H 25.6518 1.41915 0.244181 0
M  V30 300 H 27.6048 3.01236 2.94678 0
M  V30 301 H 26.3288 1.78821 2.73296 0
M  V30 302 H 24.9878 3.40937 1.34751 0
M  V30 303 H 24.6358 3.27263 3.81979 0
M  V30 304 H 24.3358 4.92022 3.21229 0
M  V30 305 H 25.8598 4.5525 4.06915 0
M  V30 306 H 27.2738 5.38857 1.95718 0
M  V30 307 H 25.6708 5.85453 1.31776 0
M  V30 308 H 26.7408 4.83733 0.336219 0
M  V30 309 N 28.0839 -0.256276 1.55502 0
M  V30 310 C 29.4949 -0.826068 1.67431 0
M  V30 311 C 29.8459 -1.86396 0.612446 0
M  V30 312 O 28.9709 -2.15031 -0.243025 0
M  V30 313 C 29.5659 -1.50512 3.03532 0
M  V30 314 C 28.1249 -2.02273 3.17431 0
M  V30 315 C 27.2719 -0.870548 2.63281 0
M  V30 316 H 30.2229 -0.0322728 1.58667 0
M  V30 317 H 30.2439 -2.37279 2.97454 0
M  V30 318 H 29.7559 -0.749484 3.80794 0
M  V30 319 H 27.8569 -2.80746 2.44974 0
M  V30 320 H 27.9699 -2.22655 4.24219 0
M  V30 321 H 26.3339 -1.26851 2.20864 0
M  V30 322 H 27.1169 -0.128149 3.43061 0
M  V30 323 N 29.562 -1.4872 -0.521534 0
M  V30 324 C 30.808 -1.574 -1.27879 0
M  V30 325 C 31.141 -0.250817 -1.92573 0
M  V30 326 O 30.416 0.743934 -1.79711 0
M  V30 327 C 30.699 -2.71843 -2.36164 0
M  V30 328 C 30.552 -4.13893 -1.76105 0
M  V30 329 C 31.871 -2.82008 -3.37875 0
M  V30 330 H 28.99 -0.572941 -0.463581 0
M  V30 331 H 31.632 -1.80927 -0.580119 0
M  V30 332 H 29.782 -2.51914 -2.95756 0
M  V30 333 H 31.454 -4.45284 -1.20499 0
M  V30 334 H 29.697 -4.20498 -1.06601 0
M  V30 335 H 30.368 -4.89804 -2.5455 0
M  V30 336 H 32.844 -3.00086 -2.88249 0
M  V30 337 H 31.72 -3.63796 -4.11028 0
M  V30 338 H 31.981 -1.90511 -3.98946 0
M  V30 339 N 31.0401 0.771051 -1.3745 0
M  V30 340 C 32.4511 1.34737 -1.29239 0
M  V30 341 C 32.8021 1.96109 0.0596908 0
M  V30 342 O 31.9271 1.93865 0.961534 0
M  V30 343 C 32.5221 2.44973 -2.34037 0
M  V30 344 C 31.0811 2.98372 -2.29458 0
M  V30 345 C 30.2281 1.71595 -2.17831 0
M  V30 346 H 33.1791 0.571256 -1.48062 0
M  V30 347 H 33.2001 3.24471 -1.98744 0
M  V30 348 H 32.7121 2.00276 -3.32432 0
M  V30 349 H 30.8131 3.47443 -1.34589 0
M  V30 350 H 30.9261 3.53939 -3.229 0
M  V30 351 H 29.2901 1.94547 -1.64388 0
M  V30 352 H 30.0731 1.29001 -3.18141 0
M  V30 353 N 32.5182 1.22032 0.997298 0
M  V30 354 C 33.9342 0.979326 1.26021 0
M  V30 355 C 34.1342 -0.32972 1.98784 0
M  V30 356 O 33.1902 -1.05345 2.29475 0
M  V30 357 C 34.5032 2.17509 2.07631 0
M  V30 358 C 36.0512 2.21817 2.2083 0
M  V30 359 C 36.5262 3.40933 3.05825 0
M  V30 360 N 38.0172 3.41067 3.13412 0
M  V30 361 C 38.7522 4.29885 3.79455 0
M  V30 362 N 38.2482 5.28914 4.47462 0
M  V30 363 N 40.0412 4.17673 3.76173 0
M  V30 364 H 32.1922 2.06202 0.509352 0
M  V30 365 H 34.4552 0.90334 0.287541 0
M  V30 366 H 34.1612 3.12415 1.61524 0
M  V30 367 H 34.0352 2.17206 3.08385 0
M  V30 368 H 36.4222 1.27462 2.66153 0
M  V30 369 H 36.5032 2.2616 1.1952 0
M  V30 370 H 36.1472 4.35586 2.61203 0
M  V30 371 H 36.0772 3.33829 4.07266 0
M  V30 372 H 38.5682 2.69406 2.65007 0
M  V30 373 H 38.8812 5.92973 4.95583 0
M  V30 374 H 37.2262 5.32831 4.46224 0
M  V30 375 H 40.4172 3.39564 3.22202 0
M  V30 376 H 40.5902 4.87098 4.27363 0
M  V30 377 N 33.9963 -1.19345 1.0293 0
M  V30 378 C 34.9593 -2.20793 0.615069 0
M  V30 379 C 35.9593 -1.57553 -0.321533 0
M  V30 380 O 37.1493 -1.73862 -0.108483 0
M  V30 381 C 34.2813 -3.40754 -0.0999222 0
M  V30 382 H 35.4743 -2.58955 1.51269 0
M  V30 383 H 33.0273 -1.3303 0.820534 0
M  V30 384 H 33.7623 -3.0811 -1.01187 0
M  V30 385 H 33.5473 -3.87889 0.57309 0
M  V30 386 H 35.0373 -4.15898 -0.376645 0
M  V30 387 N 35.4744 -0.807222 -1.35358 0
M  V30 388 C 36.4214 -0.216037 -2.29787 0
M  V30 389 C 37.3914 0.650278 -1.52842 0
M  V30 390 O 38.5764 0.595227 -1.81278 0
M  V30 391 C 35.7164 0.628893 -3.39321 0
M  V30 392 C 34.8294 -0.257927 -4.31229 0
M  V30 393 C 33.9644 0.595069 -5.27856 0
M  V30 394 C 33.0034 -0.292111 -6.11403 0
M  V30 395 N 32.1404 0.520895 -7.00165 0
M  V30 396 H 36.9804 -1.02671 -2.79755 0
M  V30 397 H 34.5174 -0.517839 -1.37684 0
M  V30 398 H 36.4754 1.13393 -4.01494 0
M  V30 399 H 35.1054 1.40482 -2.90628 0
M  V30 400 H 34.1574 -0.881076 -3.70056 0
M  V30 401 H 35.4694 -0.940759 -4.89848 0
M  V30 402 H 34.6234 1.16522 -5.95405 0
M  V30 403 H 33.3624 1.31146 -4.69736 0
M  V30 404 H 32.3674 -0.874525 -5.428 0
M  V30 405 H 33.5924 -1.00638 -6.71602 0
M  V30 406 H 31.5384 1.22125 -6.44532 0
M  V30 407 H 31.4554 -0.103877 -7.55929 0
M  V30 408 H 32.7234 1.0743 -7.72062 0
M  V30 409 N 36.9525 1.47285 -0.560781 0
M  V30 410 C 38.2015 2.01668 -0.035895 0
M  V30 411 C 38.5145 1.44021 1.32353 0
M  V30 412 O 39.7205 1.90088 1.93853 0
M  V30 413 C 38.1765 3.59897 -0.0136659 0
M  V30 414 C 37.7845 4.26536 -1.37006 0
M  V30 415 C 39.5285 4.22017 0.458425 0
M  V30 416 C 37.4355 5.76782 -1.30675 0
M  V30 417 H 36.3655 0.753938 -0.00964879 0
M  V30 418 H 39.0165 1.69243 -0.709166 0
M  V30 419 H 37.3985 3.89301 0.725325 0
M  V30 420 H 38.5725 4.0877 -2.12705 0
M  V30 421 H 36.8875 3.76419 -1.78038 0
M  V30 422 H 39.4845 5.32124 0.524247 0
M  V30 423 H 39.8275 3.89437 1.4712 0
M  V30 424 H 40.3605 3.97159 -0.225818 0
M  V30 425 H 37.0995 6.13988 -2.29564 0
M  V30 426 H 36.6195 5.96875 -0.591622 0
M  V30 427 H 38.2985 6.39063 -1.01033 0
M  V30 428 N 38.4306 0.297415 1.54768 0
M  V30 429 C 39.3806 -0.595275 2.20092 0
M  V30 430 C 40.3646 -1.10163 1.17273 0
M  V30 431 O 41.5566 -1.043 1.43006 0
M  V30 432 C 38.6856 -1.7684 2.94249 0
M  V30 433 C 37.7716 -1.27818 4.0438 0
M  V30 434 N 38.1626 -0.505695 5.03266 0
M  V30 435 C 36.4606 -1.55923 4.17857 0
M  V30 436 C 37.1616 -0.245094 5.81183 0
M  V30 437 N 36.1376 -0.823881 5.3732 0
M  V30 438 H 39.9396 0.00250837 2.939 0
M  V30 439 H 37.4536 0.102007 1.62079 0
M  V30 440 H 39.4506 -2.41944 3.39513 0
M  V30 441 H 38.1106 -2.36992 2.21957 0
M  V30 442 H 39.1216 -0.150928 5.1768 0
M  V30 443 H 35.7986 -2.16849 3.56767 0
M  V30 444 H 37.1886 0.375084 6.70852 0
M  V30 445 N 39.9087 -1.5758 0.0250728 0
M  V30 446 C 41.1337 -1.96337 -0.668317 0
M  V30 447 C 41.5587 -0.901314 -1.651 0
M  V30 448 O 40.9167 0.138187 -1.80773 0
M  V30 449 C 40.9647 -3.34191 -1.35457 0
M  V30 450 O 40.0687 -3.30269 -2.46974 0
M  V30 451 H 39.4097 -0.640281 -0.175887 0
M  V30 452 H 41.9397 -2.0442 0.0857224 0
M  V30 453 H 41.9497 -3.70331 -1.71228 0
M  V30 454 H 40.6247 -4.11036 -0.634218 0
M  V30 455 H 39.2017 -3.05841 -2.13344 0
M  V30 456 N 41.3868 0.248026 -1.55636 0
M  V30 457 C 42.3168 1.31079 -1.93237 0
M  V30 458 C 43.2978 1.50264 -0.797174 0
M  V30 459 O 44.4828 1.62891 -1.05737 0
M  V30 460 C 41.6128 2.66575 -2.22609 0
M  V30 461 C 40.5668 2.62087 -3.3837 0
M  V30 462 C 39.8928 4.01369 -3.53281 0
M  V30 463 C 41.1928 2.19171 -4.7409 0
M  V30 464 H 42.8868 0.998556 -2.82257 0
M  V30 465 H 40.4328 0.47891 -1.35803 0
M  V30 466 H 42.3858 3.41057 -2.47503 0
M  V30 467 H 41.1098 2.99432 -1.30414 0
M  V30 468 H 39.7688 1.90063 -3.13483 0
M  V30 469 H 39.4168 4.31489 -2.58508 0
M  V30 470 H 39.1168 3.99254 -4.31127 0
M  V30 471 H 40.6408 4.77552 -3.80495 0
M  V30 472 H 42.0548 2.83384 -4.98363 0
M  V30 473 H 40.4518 2.2817 -5.5503 0
M  V30 474 H 41.5218 1.14336 -4.71227 0
M  V30 475 N 42.8649 1.48995 0.513639 0
M  V30 476 C 44.2759 1.5119 1.09537 0
M  V30 477 C 44.6269 0.290906 1.94031 0
M  V30 478 O 43.7519 -0.60049 2.07902 0
M  V30 479 C 44.3469 2.73964 1.99322 0
M  V30 480 C 42.9059 2.78978 2.52682 0
M  V30 481 C 42.0529 2.44934 1.30009 0
M  V30 482 H 45.0039 1.55875 0.298125 0
M  V30 483 H 45.0249 2.53409 2.83838 0
M  V30 484 H 44.5369 3.62813 1.37799 0
M  V30 485 H 42.6379 1.94378 3.1788 0
M  V30 486 H 42.7509 3.8083 2.90698 0
M  V30 487 H 41.1149 1.9644 1.62122 0
M  V30 488 H 41.8979 3.36043 0.702131 0
M  V30 489 N 44.343 -0.763751 1.37857 0
M  V30 490 C 45.754 -1.3405 1.29952 0
M  V30 491 C 46.105 -1.96138 -0.0492898 0
M  V30 492 O 45.23 -1.94372 -0.951239 0
M  V30 493 C 45.825 -2.43729 2.35333 0
M  V30 494 C 44.384 -2.97151 2.31037 0
M  V30 495 C 43.531 -1.70438 2.18738 0
M  V30 496 H 46.482 -0.563396 1.48363 0
M  V30 497 H 46.503 -3.23412 2.00462 0
M  V30 498 H 46.015 -1.9851 3.33489 0
M  V30 499 H 44.116 -3.46724 1.3643 0
M  V30 500 H 44.229 -3.52221 3.24772 0
M  V30 501 H 42.593 -1.93673 1.65418 0
M  V30 502 H 43.376 -1.27312 3.18821 0
M  V30 503 N 45.8211 -1.22559 -0.990812 0
M  V30 504 C 46.7311 -1.01394 -2.11557 0
M  V30 505 C 47.7471 0.0383962 -1.73958 0
M  V30 506 O 48.9231 -0.154787 -2.00804 0
M  V30 507 C 45.9881 -0.596569 -3.41529 0
M  V30 508 C 45.0491 -1.72276 -3.93217 0
M  V30 509 C 44.2821 -1.32521 -5.16985 0
M  V30 510 O 44.5051 -0.204909 -5.70032 0
M  V30 511 O 43.4391 -2.14247 -5.62478 0
M  V30 512 H 47.2651 -1.95633 -2.32296 0
M  V30 513 H 44.8501 -1.01172 -1.0993 0
M  V30 514 H 46.7321 -0.374263 -4.19735 0
M  V30 515 H 45.4071 0.316939 -3.22145 0
M  V30 516 H 44.3141 -1.99961 -3.16174 0
M  V30 517 H 45.6471 -2.61421 -4.17037 0
M  V30 518 N 47.2992 1.18797 -1.03562 0
M  V30 519 C 48.5472 1.88278 -0.734569 0
M  V30 520 C 48.8682 1.8043 0.739586 0
M  V30 521 O 48.1382 1.21925 1.53333 0
M  V30 522 H 46.7182 0.696991 -0.268725 0
M  V30 523 H 49.3802 1.44192 -1.31129 0
M  V30 524 H 48.4762 2.94443 -1.03489 0
M  V30 525 N 48.7773 0.814389 1.34928 0
M  V30 526 C 49.7243 0.22822 2.29669 0
M  V30 527 C 50.6943 -0.642164 1.53184 0
M  V30 528 O 51.8793 -0.585605 1.81591 0
M  V30 529 C 49.0193 -0.61089 3.3965 0
M  V30 530 C 48.1323 0.280792 4.31086 0
M  V30 531 C 47.2673 -0.567067 5.28165 0
M  V30 532 C 46.3063 0.324531 6.11239 0
M  V30 533 N 45.4433 -0.483756 7.00431 0
M  V30 534 H 50.2833 1.04153 2.79206 0
M  V30 535 H 47.8203 0.525133 1.37407 0
M  V30 536 H 49.7783 -1.11263 4.0209 0
M  V30 537 H 48.4083 -1.38939 2.91369 0
M  V30 538 H 47.4603 0.900688 3.69583 0
M  V30 539 H 48.7723 0.966723 4.89342 0
M  V30 540 H 47.9263 -1.13363 5.96015 0
M  V30 541 H 46.6653 -1.28654 4.70425 0
M  V30 542 H 45.6703 0.903298 5.42329 0
M  V30 543 H 46.8953 1.04198 6.71059 0
M  V30 544 H 44.8413 -1.18706 6.45171 0
M  V30 545 H 44.7583 0.143965 7.55863 0
M  V30 546 H 46.0263 -1.03334 7.7262 0
M  V30 547 N 50.2554 -1.46986 0.568584 0
M  V30 548 C 51.1854 -2.32946 -0.160753 0
M  V30 549 C 52.1664 -1.44487 -0.897631 0
M  V30 550 O 53.3514 -1.73327 -0.875867 0
M  V30 551 C 50.4814 -3.26494 -1.18403 0
M  V30 552 C 49.4354 -4.24282 -0.562895 0
M  V30 553 C 48.7614 -5.07236 -1.69163 0
M  V30 554 C 50.0614 -5.19989 0.490761 0
M  V30 555 H 51.7554 -2.94175 0.556916 0
M  V30 556 H 49.3014 -1.4146 0.26927 0
M  V30 557 H 51.2544 -3.85477 -1.70251 0
M  V30 558 H 49.9784 -2.63343 -1.93179 0
M  V30 559 H 48.6374 -3.66541 -0.0656164 0
M  V30 560 H 48.2854 -4.4048 -2.42871 0
M  V30 561 H 47.9854 -5.7345 -1.28174 0
M  V30 562 H 49.5094 -5.6908 -2.21314 0
M  V30 563 H 50.9234 -5.73271 0.0579047 0
M  V30 564 H 49.3204 -5.94469 0.820165 0
M  V30 565 H 50.3904 -4.64777 1.3824 0
M  V30 566 N 51.7335 -0.305618 -1.54608 0
M  V30 567 C 52.9815 0.301701 -1.99835 0
M  V30 568 C 53.3025 1.54054 -1.19551 0
M  V30 569 O 52.5725 1.93702 -0.292658 0
M  V30 570 H 51.1525 0.114468 -0.738178 0
M  V30 571 H 53.8145 -0.418016 -1.90364 0
M  V30 572 H 52.9105 0.570548 -3.06841 0
M  V30 573 N 53.2116 1.57565 -0.0334293 0
M  V30 574 C 54.4606 1.91155 0.643639 0
M  V30 575 C 54.7736 0.91192 1.73042 0
M  V30 576 O 55.9796 1.13923 2.46442 0
M  V30 577 C 54.4356 3.39443 1.1961 0
M  V30 578 C 54.0436 4.47774 0.142381 0
M  V30 579 C 55.7876 3.82094 1.84944 0
M  V30 580 C 53.6946 5.87162 0.706727 0
M  V30 581 H 52.6246 0.713368 0.244176 0
M  V30 582 H 55.2756 1.8323 -0.0994323 0
M  V30 583 H 53.6576 3.42313 1.99092 0
M  V30 584 H 54.8316 4.56469 -0.630296 0
M  V30 585 H 53.1466 4.14352 -0.412446 0
M  V30 586 H 55.7436 4.83591 2.2813 0
M  V30 587 H 56.0866 3.17386 2.69392 0
M  V30 588 H 56.6196 3.81665 1.12145 0
M  V30 589 H 53.3586 6.55424 -0.0997178 0
M  V30 590 H 52.8786 5.82064 1.44779 0
M  V30 591 H 54.5576 6.35866 1.19514 0
M  V30 592 N 54.6897 -0.239769 1.55765 0
M  V30 593 C 55.6227 -1.32356 1.85895 0
M  V30 594 C 56.6007 -1.46053 0.714662 0
M  V30 595 O 57.7847 -1.62154 0.961157 0
M  V30 596 C 54.9117 -2.6962 2.04994 0
M  V30 597 C 53.9577 -2.73036 3.27648 0
M  V30 598 S 54.7907 -2.28929 4.84099 0
M  V30 599 C 55.9467 -3.68103 5.06212 0
M  V30 600 H 56.1797 -1.06601 2.77531 0
M  V30 601 H 53.7127 -0.441112 1.47965 0
M  V30 602 H 55.6707 -3.48653 2.16682 0
M  V30 603 H 54.3317 -2.92609 1.14188 0
M  V30 604 H 53.5247 -3.7386 3.38 0
M  V30 605 H 53.1267 -2.02052 3.14723 0
M  V30 606 H 55.4187 -4.63656 4.93993 0
M  V30 607 H 56.3617 -3.6268 6.08168 0
M  V30 608 H 56.7697 -3.60947 4.34025 0
M  V30 609 N 56.1678 -1.49265 -0.50573 0
M  V30 610 C 57.0778 -1.68312 -1.63427 0
M  V30 611 C 58.0938 -0.565682 -1.64548 0
M  V30 612 O 59.2698 -0.839801 -1.83055 0
M  V30 613 C 56.3348 -1.74107 -2.99813 0
M  V30 614 C 55.3958 -2.97653 -3.09356 0
M  V30 615 C 54.6288 -3.03163 -4.39236 0
M  V30 616 O 54.8518 -2.16396 -5.27758 0
M  V30 617 O 53.7858 -3.9558 -4.53652 0
M  V30 618 H 57.6118 -2.63907 -1.50289 0
M  V30 619 H 55.1968 -1.32951 -0.681502 0
M  V30 620 H 57.0788 -1.803 -3.80881 0
M  V30 621 H 55.7538 -0.816901 -3.13223 0
M  V30 622 H 54.6608 -2.96981 -2.27493 0
M  V30 623 H 55.9938 -3.89535 -3.00871 0
M  V30 624 N 57.6459 0.756429 -1.3826 0
M  V30 625 C 58.5759 1.88374 -1.37976 0
M  V30 626 C 59.5569 1.68311 -0.246082 0
M  V30 627 O 60.7419 1.88944 -0.44874 0
M  V30 628 C 57.8719 3.25864 -1.20125 0
M  V30 629 C 56.8259 3.60523 -2.30666 0
M  V30 630 C 56.1519 4.9672 -1.97923 0
M  V30 631 C 57.4519 3.65692 -3.72916 0
M  V30 632 H 59.1459 1.88869 -2.32312 0
M  V30 633 H 56.6919 0.907272 -1.11824 0
M  V30 634 H 58.6449 4.0438 -1.18552 0
M  V30 635 H 57.3689 3.25841 -0.222498 0
M  V30 636 H 56.0279 2.84324 -2.3142 0
M  V30 637 H 55.6759 4.93253 -0.985393 0
M  V30 638 H 55.3759 5.20878 -2.71955 0
M  V30 639 H 56.8999 5.77618 -1.97964 0
M  V30 640 H 58.3139 4.34328 -3.74208 0
M  V30 641 H 56.7109 4.01358 -4.4613 0
M  V30 642 H 57.7809 2.65987 -4.05436 0
M  V30 643 N 59.124 1.23083 0.984299 0
M  V30 644 C 60.087 1.00979 2.05757 0
M  V30 645 C 61.087 -0.0269573 1.60777 0
M  V30 646 O 62.277 0.212403 1.729 0
M  V30 647 C 59.409 0.527072 3.36801 0
M  V30 648 H 60.602 1.9622 2.26799 0
M  V30 649 H 58.155 1.05072 1.15714 0
M  V30 650 H 58.89 -0.429294 3.21446 0
M  V30 651 H 58.675 1.27515 3.70786 0
M  V30 652 H 60.165 0.392942 4.15747 0
M  V30 653 N 60.6021 -1.18246 1.0419 0
M  V30 654 C 61.8481 -1.88536 0.747122 0
M  V30 655 C 62.1811 -1.80223 -0.723409 0
M  V30 656 O 61.4561 -1.20337 -1.52804 0
M  V30 657 C 61.7391 -3.38968 1.21544 0
M  V30 658 C 61.5921 -3.56084 2.74816 0
M  V30 659 C 62.9111 -4.32648 0.806482 0
M  V30 660 H 60.0301 -0.684619 0.272883 0
M  V30 661 H 62.6721 -1.39113 1.29413 0
M  V30 662 H 60.8221 -3.8119 0.750081 0
M  V30 663 H 62.4941 -3.22946 3.29399 0
M  V30 664 H 60.7371 -2.98699 3.14582 0
M  V30 665 H 61.4081 -4.61639 3.02644 0
M  V30 666 H 63.8841 -3.98211 1.20695 0
M  V30 667 H 62.7601 -5.36462 1.1619 0
M  V30 668 H 63.0211 -4.41146 -0.29029 0
M  V30 669 N 62.0802 -0.821533 -1.34494 0
M  V30 670 C 63.3282 -0.408139 -1.97936 0
M  V30 671 C 63.6492 1.03193 -1.65457 0
M  V30 672 O 62.9192 1.71622 -0.944595 0
M  V30 673 H 61.4992 -0.147928 -0.732206 0
M  V30 674 H 64.1612 -1.05067 -1.64155 0
M  V30 675 H 63.2572 -0.52601 -3.07635 0
M  V30 676 N 63.5583 1.46682 -0.576371 0
M  V30 677 C 64.4883 2.33028 0.148397 0
M  V30 678 C 65.4693 1.44961 0.889956 0
M  V30 679 O 66.6543 1.73789 0.866662 0
M  V30 680 C 63.7843 3.27117 1.1667 0
M  V30 681 C 62.7383 4.24575 0.540386 0
M  V30 682 C 62.0643 5.08126 1.6647 0
M  V30 683 C 63.3643 5.19722 -0.518331 0
M  V30 684 H 65.0583 2.93875 -0.572509 0
M  V30 685 H 62.6043 1.41315 -0.276768 0
M  V30 686 H 64.5573 3.86374 1.68204 0
M  V30 687 H 63.2813 2.64364 1.9178 0
M  V30 688 H 61.9403 3.66571 0.0461769 0
M  V30 689 H 61.5883 4.41762 2.40531 0
M  V30 690 H 61.2883 5.74122 1.25131 0
M  V30 691 H 62.8123 5.70246 2.18293 0
M  V30 692 H 64.2263 5.73232 -0.0883058 0
M  V30 693 H 62.6233 5.94026 -0.851679 0
M  V30 694 H 63.6933 4.64037 -1.40703 0
M  V30 695 N 65.0364 0.313813 1.54444 0
M  V30 696 C 66.2644 -0.293918 2.04802 0
M  V30 697 C 66.6794 -1.46537 1.19047 0
M  V30 698 O 66.0364 -1.81182 0.218939 0
M  V30 699 C 66.0874 -0.737806 3.53891 0
M  V30 700 O 65.8084 0.387038 4.36387 0
M  V30 701 C 67.3094 -1.40936 4.203 0
M  V30 702 H 64.5294 -0.0620057 0.668129 0
M  V30 703 H 67.0734 0.457169 1.99324 0
M  V30 704 H 65.2284 -1.43889 3.59687 0
M  V30 705 H 65.6424 0.0391274 5.24485 0
M  V30 706 H 67.1164 -1.67099 5.26101 0
M  V30 707 H 67.5934 -2.35355 3.70816 0
M  V30 708 H 68.1994 -0.751117 4.18615 0
M  V30 709 N 66.5145 -1.57545 0.0417849 0
M  V30 710 C 67.7395 -1.97035 -0.647455 0
M  V30 711 C 68.1645 -0.918775 -1.64135 0
M  V30 712 O 67.5225 0.119006 -1.80909 0
M  V30 713 C 67.5705 -3.35609 -1.31905 0
M  V30 714 O 66.6745 -3.3287 -2.43457 0
M  V30 715 H 66.0155 -0.64211 -0.169086 0
M  V30 716 H 68.5455 -2.04318 0.107399 0
M  V30 717 H 68.5555 -3.72126 -1.67291 0
M  V30 718 H 67.2305 -4.11685 -0.590586 0
M  V30 719 H 65.8075 -3.08087 -2.10088 0
M  V30 720 N 67.9926 0.231505 -1.5589 0
M  V30 721 C 69.2326 0.964533 -1.80211 0
M  V30 722 C 69.5966 1.81926 -0.613744 0
M  V30 723 O 70.7976 2.58526 -0.736045 0
M  V30 724 C 69.0686 1.78956 -3.09369 0
M  V30 725 S 70.6276 2.57959 -3.54969 0
M  V30 726 H 67.4456 0.324173 -0.632798 0
M  V30 727 H 70.0476 0.230985 -1.94131 0
M  V30 728 H 68.7516 1.15161 -3.93911 0
M  V30 729 H 68.2826 2.56559 -2.9823 0
M  V30 730 H 70.2976 3.81309 -3.17519 0
M  V30 731 N 69.4707 1.49531 0.497807 0
M  V30 732 C 70.7177 1.59179 1.25173 0
M  V30 733 C 71.0457 0.279932 1.92475 0
M  V30 734 O 70.3007 -0.732383 1.81479 0
M  V30 735 C 70.5997 2.70252 2.33878 0
M  V30 736 C 70.2657 4.11644 1.84012 0
M  V30 737 C 68.9277 4.50121 1.70132 0
M  V30 738 C 71.2797 5.00121 1.46725 0
M  V30 739 C 68.6077 5.74845 1.17348 0
M  V30 740 C 70.9597 6.25366 0.95392 0
M  V30 741 C 69.6237 6.6267 0.801538 0
M  V30 742 H 68.8937 0.582478 0.45804 0
M  V30 743 H 71.5407 1.83373 0.551948 0
M  V30 744 H 69.8457 2.40041 3.09657 0
M  V30 745 H 71.5427 2.74925 2.9192 0
M  V30 746 H 68.1327 3.81274 1.95775 0
M  V30 747 H 72.3167 4.71048 1.56294 0
M  V30 748 H 67.5727 6.02444 1.04264 0
M  V30 749 H 71.7467 6.93301 0.656225 0
M  V30 750 H 69.3737 7.59197 0.390351 0
M  V30 751 N 70.9488 -0.749086 1.3866 0
M  V30 752 C 72.1948 -1.51056 1.35314 0
M  V30 753 C 72.5278 -1.94121 -0.0553751 0
M  V30 754 O 71.8028 -1.65763 -1.01749 0
M  V30 755 C 72.0858 -2.76003 2.31288 0
M  V30 756 C 71.9388 -2.39047 3.8102 0
M  V30 757 C 73.2578 -3.78046 2.2532 0
M  V30 758 H 70.3768 -0.547972 0.492844 0
M  V30 759 H 73.0188 -0.857628 1.69543 0
M  V30 760 H 71.1688 -3.31716 2.02229 0
M  V30 761 H 72.8408 -1.89074 4.20771 0
M  V30 762 H 71.0838 -1.71449 3.98482 0
M  V30 763 H 71.7548 -3.28462 4.4364 0
M  V30 764 H 74.2308 -3.31884 2.50983 0
M  V30 765 H 73.1068 -4.63159 2.94576 0
M  V30 766 H 73.3678 -4.23957 1.25352 0
M  V30 767 N 72.4269 -1.23603 -0.977757 0
M  V30 768 C 73.6549 -1.09646 -1.75458 0
M  V30 769 C 74.0699 0.351859 -1.85492 0
M  V30 770 O 73.4269 1.24327 -1.336 0
M  V30 771 C 73.4779 -1.71895 -3.18016 0
M  V30 772 O 73.1989 -3.11063 -3.08498 0
M  V30 773 C 74.6999 -1.63415 -4.12081 0
M  V30 774 H 71.9199 -0.38359 -0.550545 0
M  V30 775 H 74.4639 -1.63507 -1.22824 0
M  V30 776 H 72.6189 -1.22061 -3.67668 0
M  V30 777 H 73.0329 -3.41305 -3.9826 0
M  V30 778 H 74.5069 -2.11669 -5.09804 0
M  V30 779 H 74.9839 -0.593462 -4.35172 0
M  V30 780 H 75.5899 -2.12628 -3.68334 0
M  V30 781 N 73.905 1.17692 -1.04816 0
M  V30 782 C 75.152 1.87859 -0.75599 0
M  V30 783 C 75.48 1.80812 0.716752 0
M  V30 784 O 74.735 1.20819 1.53952 0
M  V30 785 C 75.034 3.37462 -1.17703 0
M  V30 786 C 74.7 3.64713 -2.65133 0
M  V30 787 C 73.362 3.71859 -3.05408 0
M  V30 788 C 75.714 3.76492 -3.60421 0
M  V30 789 C 73.042 3.88271 -4.39843 0
M  V30 790 C 75.394 3.94421 -4.94585 0
M  V30 791 C 74.058 3.99806 -5.3452 0
M  V30 792 H 73.328 0.687425 -0.276636 0
M  V30 793 H 75.975 1.39255 -1.31455 0
M  V30 794 H 74.28 3.88097 -0.537395 0
M  V30 795 H 75.977 3.90109 -0.928218 0
M  V30 796 H 72.567 3.59772 -2.32942 0
M  V30 797 H 76.751 3.70295 -3.30447 0
M  V30 798 H 72.007 3.90687 -4.70291 0
M  V30 799 H 76.181 4.02477 -5.68318 0
M  V30 800 H 73.808 4.12276 -6.38696 0
M  V30 801 N 75.3831 0.828654 1.34056 0
M  V30 802 C 76.3131 0.269443 2.3194 0
M  V30 803 C 77.2941 -0.617247 1.58506 0
M  V30 804 O 78.4791 -0.542931 1.86456 0
M  V30 805 C 75.6091 -0.564793 3.42677 0
M  V30 806 C 74.5631 0.225241 4.27407 0
M  V30 807 C 73.8891 -0.7321 5.29664 0
M  V30 808 C 75.1891 1.43663 5.02154 0
M  V30 809 H 76.8831 1.08728 2.7896 0
M  V30 810 H 74.4291 0.524283 1.34117 0
M  V30 811 H 76.3821 -0.966233 4.10173 0
M  V30 812 H 75.1061 -1.41574 2.9432 0
M  V30 813 H 73.7651 0.608117 3.61521 0
M  V30 814 H 73.4131 -1.57916 4.77568 0
M  V30 815 H 73.1131 -0.20767 5.87233 0
M  V30 816 H 74.6371 -1.13128 6.00029 0
M  V30 817 H 76.0511 1.1089 5.62473 0
M  V30 818 H 74.4481 1.89711 5.69324 0
M  V30 819 H 75.5181 2.21181 4.31517 0
M  V30 820 N 76.8612 -1.46375 0.584142 0
M  V30 821 C 77.7912 -2.33103 -0.136037 0
M  V30 822 C 78.7722 -1.45431 -0.882255 0
M  V30 823 O 79.9572 -1.74246 -0.857434 0
M  V30 824 C 77.0872 -3.27731 -1.14933 0
M  V30 825 C 76.0412 -4.24855 -0.517862 0
M  V30 826 C 75.3672 -5.09001 -1.63773 0
M  V30 827 C 76.6672 -5.19439 0.545886 0
M  V30 828 H 78.3612 -2.93568 0.588086 0
M  V30 829 H 75.9072 -1.41166 0.284259 0
M  V30 830 H 77.8602 -3.87261 -1.66153 0
M  V30 831 H 76.5842 -2.65377 -1.90375 0
M  V30 832 H 75.2432 -3.6659 -0.0267361 0
M  V30 833 H 74.8912 -4.43031 -2.38185 0
M  V30 834 H 74.5912 -5.74777 -1.22085 0
M  V30 835 H 76.1152 -5.71396 -2.15266 0
M  V30 836 H 77.5292 -5.73177 0.118704 0
M  V30 837 H 75.9262 -5.93566 0.88317 0
M  V30 838 H 76.9962 -4.63285 1.43162 0
M  V30 839 N 78.3393 -0.321999 -1.54275 0
M  V30 840 C 79.7503 0.166384 -1.85957 0
M  V30 841 C 80.1013 1.51747 -1.24367 0
M  V30 842 O 79.2263 2.09317 -0.549124 0
M  V30 843 C 79.8213 0.308681 -3.37391 0
M  V30 844 C 78.3803 0.741286 -3.69028 0
M  V30 845 C 77.5273 -0.137937 -2.76957 0
M  V30 846 H 80.4783 -0.542335 -1.49146 0
M  V30 847 H 80.4993 1.13984 -3.63026 0
M  V30 848 H 80.0113 -0.674809 -3.82188 0
M  V30 849 H 78.1123 1.73458 -3.29762 0
M  V30 850 H 78.2253 0.546118 -4.75977 0
M  V30 851 H 76.5893 0.386251 -2.51754 0
M  V30 852 H 77.3723 -1.11816 -3.2458 0
M  V30 853 N 79.8174 1.5752 -0.0501392 0
M  V30 854 C 80.7804 2.1037 0.909786 0
M  V30 855 C 81.7804 1.02308 1.24056 0
M  V30 856 O 82.9704 1.28385 1.17741 0
M  V30 857 C 80.1024 2.58708 2.21998 0
M  V30 858 H 81.2954 2.96479 0.451665 0
M  V30 859 H 78.8484 1.55038 0.198248 0
M  V30 860 H 79.5834 1.75989 2.72394 0
M  V30 861 H 79.3684 3.37675 1.99295 0
M  V30 862 H 80.8584 2.99747 2.9076 0
M  V30 863 N 81.2955 -0.223234 1.56011 0
M  V30 864 C 82.5435 -0.946003 1.78592 0
M  V30 865 C 82.8645 -1.84936 0.618349 0
M  V30 866 O 82.1345 -1.92473 -0.364833 0
M  V30 867 H 80.7145 -0.352298 0.658707 0
M  V30 868 H 83.3765 -0.235494 1.93472 0
M  V30 869 H 82.4725 -1.55381 2.70672 0
M  V30 870 N 82.7736 -1.49793 -0.48987 0
M  V30 871 C 84.0196 -1.61049 -1.24236 0
M  V30 872 C 84.3746 -0.298412 -1.90072 0
M  V30 873 O 83.6676 0.702262 -1.78266 0
M  V30 874 C 83.8616 -2.71488 -2.32441 0
M  V30 875 C 83.6906 -4.13308 -1.77218 0
M  V30 876 C 82.4606 -4.79955 -1.58023 0
M  V30 877 C 84.6586 -4.98176 -1.27772 0
M  V30 878 N 82.6406 -6.06052 -0.978465 0
M  V30 879 C 84.0116 -6.14843 -0.798 0
M  V30 880 C 86.0666 -4.84091 -1.16449 0
M  V30 881 C 84.7696 -7.18975 -0.216245 0
M  V30 882 C 86.7956 -5.88382 -0.596698 0
M  V30 883 C 86.1576 -7.04285 -0.127262 0
M  V30 884 H 82.2566 -0.643611 -0.444172 0
M  V30 885 H 84.8406 -1.86842 -0.54754 0
M  V30 886 H 83.0116 -2.47449 -2.99372 0
M  V30 887 H 84.7436 -2.72205 -2.99477 0
M  V30 888 H 81.4986 -4.36936 -1.82712 0
M  V30 889 H 81.9226 -6.73407 -0.696534 0
M  V30 890 H 86.5646 -3.94786 -1.5134 0
M  V30 891 H 84.2826 -8.0797 0.144903 0
M  V30 892 H 87.8686 -5.79545 -0.511716 0
M  V30 893 H 86.7486 -7.83606 0.30523 0
M  V30 894 N 84.2517 0.741722 -1.39055 0
M  V30 895 C 85.5007 1.49656 -1.35225 0
M  V30 896 C 85.8137 1.95533 0.0512708 0
M  V30 897 O 87.0197 2.7067 0.212138 0
M  V30 898 C 85.4757 2.70389 -2.37525 0
M  V30 899 C 85.0837 2.31489 -3.83558 0
M  V30 900 C 86.8277 3.48236 -2.42759 0
M  V30 901 C 84.7347 3.48903 -4.77515 0
M  V30 902 H 83.6647 0.56197 -0.502699 0
M  V30 903 H 86.3157 0.809727 -1.64668 0
M  V30 904 H 84.6977 3.41113 -2.01142 0
M  V30 905 H 85.8717 1.68354 -4.28945 0
M  V30 906 H 84.1867 1.66749 -3.81554 0
M  V30 907 H 86.7837 4.35558 -3.1015 0
M  V30 908 H 87.1267 3.90229 -1.45008 0
M  V30 909 H 87.6597 2.84535 -2.78002 0
M  V30 910 H 84.3987 3.11966 -5.76504 0
M  V30 911 H 83.9187 4.11041 -4.36813 0
M  V30 912 H 85.5977 4.15328 -4.96096 0
M  V30 913 N 85.7298 1.2412 0.971189 0
M  V30 914 C 86.6598 1.05508 2.08304 0
M  V30 915 C 87.6408 -0.0308864 1.70072 0
M  V30 916 O 88.8258 0.135521 1.93727 0
M  V30 917 C 85.9558 0.655365 3.4106 0
M  V30 918 C 84.9098 1.68971 3.93234 0
M  V30 919 C 84.2358 1.14516 5.22293 0
M  V30 920 C 85.5358 3.08487 4.21465 0
M  V30 921 H 87.2298 1.98507 2.24132 0
M  V30 922 H 84.7758 0.955821 1.07704 0
M  V30 923 H 86.7288 0.51217 4.18276 0
M  V30 924 H 85.4528 -0.31032 3.25122 0
M  V30 925 H 84.1118 1.82106 3.18171 0
M  V30 926 H 83.7598 0.170189 5.02712 0
M  V30 927 H 83.4598 1.83635 5.58168 0
M  V30 928 H 84.9838 1.01401 6.02121 0
M  V30 929 H 86.3978 2.98601 4.89398 0
M  V30 930 H 84.7948 3.74926 4.68562 0
M  V30 931 H 85.8648 3.56787 3.28376 0
M  V30 932 N 87.2079 -1.17134 1.05439 0
M  V30 933 C 88.4329 -1.91913 0.786396 0
M  V30 934 C 88.8579 -1.7643 -0.652234 0
M  V30 935 O 88.2159 -1.08372 -1.45345 0
M  V30 936 C 88.2639 -3.40921 1.17497 0
M  V30 937 O 87.3679 -4.11244 0.308589 0
M  V30 938 H 86.7089 -0.598215 0.288158 0
M  V30 939 H 89.2389 -1.48457 1.4079 0
M  V30 940 H 89.2489 -3.91668 1.14281 0
M  V30 941 H 87.9239 -3.5151 2.22292 0
M  V30 942 H 86.5009 -3.70731 0.40157 0
M  V30 943 N 88.686 -0.835752 -1.33615 0
M  V30 944 C 89.636 -0.238856 -2.26745 0
M  V30 945 C 90.62 0.604343 -1.49119 0
M  V30 946 O 91.812 0.456822 -1.71003 0
M  V30 947 C 88.941 0.587725 -3.38232 0
M  V30 948 C 88.027 -0.266811 -4.2326 0
M  V30 949 N 88.418 -1.34403 -4.87616 0
M  V30 950 C 86.716 -0.0533131 -4.45968 0
M  V30 951 C 87.417 -1.86819 -5.50884 0
M  V30 952 N 86.393 -1.17013 -5.30857 0
M  V30 953 H 90.195 -1.06266 -2.74016 0
M  V30 954 H 87.709 -0.679881 -1.47483 0
M  V30 955 H 89.706 1.03161 -4.03935 0
M  V30 956 H 88.366 1.40954 -2.9251 0
M  V30 957 H 89.377 -1.7269 -4.88261 0
M  V30 958 H 86.054 0.735312 -4.10974 0
M  V30 959 H 87.444 -2.7701 -6.1214 0
M  V30 960 N 90.1641 1.46063 -0.591896 0
M  V30 961 C 91.0941 2.33172 0.123673 0
M  V30 962 C 92.0751 1.45897 0.87453 0
M  V30 963 O 93.2601 1.74698 0.848181 0
M  V30 964 C 90.3901 3.28336 1.13194 0
M  V30 965 C 89.3441 4.25124 0.495324 0
M  V30 966 C 88.6701 5.09863 1.61071 0
M  V30 967 C 89.9701 5.19143 -0.573425 0
M  V30 968 H 91.6641 2.93252 -0.603646 0
M  V30 969 H 89.2101 1.41014 -0.291741 0
M  V30 970 H 91.1631 3.88137 1.64097 0
M  V30 971 H 89.8871 2.66383 1.88965 0
M  V30 972 H 88.5461 3.66599 0.00729452 0
M  V30 973 H 88.1941 4.44288 2.35832 0
M  V30 974 H 87.8941 5.75417 1.19035 0
M  V30 975 H 89.4181 5.72529 2.12233 0
M  V30 976 H 90.8321 5.73106 -0.1491 0
M  V30 977 H 89.2291 5.93089 -0.914636 0
M  V30 978 H 90.2991 4.62519 -1.45617 0
M  V30 979 N 91.6422 0.330177 1.54103 0
M  V30 980 C 92.5522 -0.541534 2.28264 0
M  V30 981 C 93.5682 -1.12351 1.32866 0
M  V30 982 O 94.7442 -1.14206 1.65888 0
M  V30 983 C 91.8092 -1.68322 3.03098 0
M  V30 984 C 90.8702 -1.13238 4.14096 0
M  V30 985 C 90.1032 -2.21966 4.85352 0
M  V30 986 O 90.3262 -3.42437 4.56172 0
M  V30 987 O 89.2602 -1.87013 5.7211 0
M  V30 988 H 93.0862 0.060938 3.03639 0
M  V30 989 H 90.6712 0.09565 1.49093 0
M  V30 990 H 92.5532 -2.34777 3.49939 0
M  V30 991 H 91.2282 -2.27176 2.30593 0
M  V30 992 H 90.1352 -0.432736 3.71589 0
M  V30 993 H 91.4682 -0.588898 4.88664 0
M  V30 994 N 93.1203 -1.57491 0.0584922 0
M  V30 995 C 94.3483 -1.97296 -0.623037 0
M  V30 996 C 94.7633 -0.936338 -1.63946 0
M  V30 997 O 94.1203 0.0785981 -1.82331 0
M  V30 998 C 94.1713 -3.37183 -1.30345 0
M  V30 999 O 93.8923 -4.36872 -0.32773 0
M  V30 1000 C 95.3933 -3.91788 -2.07406 0
M  V30 1001 H 92.6133 -0.649153 -0.169826 0
M  V30 1002 H 95.1573 -2.04106 0.12696 0
M  V30 1003 H 93.3123 -3.31502 -2.00463 0
M  V30 1004 H 93.7263 -5.18141 -0.814269 0
M  V30 1005 H 95.2003 -4.91926 -2.50425 0
M  V30 1006 H 95.6773 -3.27609 -2.92521 0
M  V30 1007 H 96.2833 -4.00829 -1.42184 0
M  V30 1008 N 94.5984 0.214957 -1.56127 0
M  V30 1009 C 95.8284 0.953707 -1.8327 0
M  V30 1010 C 96.2364 1.78181 -0.636262 0
M  V30 1011 O 95.5794 1.79191 0.404516 0
M  V30 1012 C 95.6414 1.91516 -3.0424 0
M  V30 1013 C 95.3054 1.27094 -4.38972 0
M  V30 1014 C 96.3024 0.657575 -5.15725 0
M  V30 1015 C 93.9874 1.28073 -4.85698 0
M  V30 1016 C 95.9814 0.0625968 -6.37369 0
M  V30 1017 C 93.6684 0.681914 -6.07283 0
M  V30 1018 C 94.6664 0.0739046 -6.8296 0
M  V30 1019 O 94.3544 -0.515582 -8.02245 0
M  V30 1020 H 94.0864 0.284764 -0.613095 0
M  V30 1021 H 96.6404 0.233283 -2.04071 0
M  V30 1022 H 94.8704 2.67475 -2.79274 0
M  V30 1023 H 96.5594 2.52001 -3.18198 0
M  V30 1024 H 97.3254 0.642288 -4.80728 0
M  V30 1025 H 93.2044 1.74337 -4.26764 0
M  V30 1026 H 96.7484 -0.412593 -6.96379 0
M  V30 1027 H 92.6454 0.694636 -6.41752 0
M  V30 1028 H 93.4134 -0.410544 -8.1747 0
M  V30 1029 N 96.0765 1.50051 0.48192 0
M  V30 1030 C 97.4925 1.37237 0.814756 0
M  V30 1031 C 97.6925 0.420109 1.97072 0
M  V30 1032 O 96.7485 -0.141246 2.52105 0
M  V30 1033 C 98.0615 2.78375 1.13701 0
M  V30 1034 C 99.6095 2.87213 1.2441 0
M  V30 1035 C 100.084 4.29161 1.59954 0
M  V30 1036 N 101.575 4.32061 1.66967 0
M  V30 1037 C 102.31 5.38879 1.95952 0
M  V30 1038 N 101.806 6.55918 2.23031 0
M  V30 1039 N 103.599 5.26312 1.97363 0
M  V30 1040 H 95.7505 2.10546 -0.28005 0
M  V30 1041 H 98.0135 0.945921 -0.0627454 0
M  V30 1042 H 97.7195 3.49845 0.360787 0
M  V30 1043 H 97.5935 3.14941 2.07586 0
M  V30 1044 H 99.9805 2.15969 2.01101 0
M  V30 1045 H 100.061 2.54204 0.285299 0
M  V30 1046 H 99.7055 5.00938 0.838067 0
M  V30 1047 H 99.6355 4.59648 2.56966 0
M  V30 1048 H 102.126 3.47661 1.48123 0
M  V30 1049 H 102.439 7.33139 2.44391 0
M  V30 1050 H 100.784 6.59112 2.20447 0
M  V30 1051 H 103.975 4.33876 1.75697 0
M  V30 1052 H 104.148 6.09649 2.19618 0
M  V30 1053 N 97.5546 -0.734337 1.39446 0
M  V30 1054 C 98.9706 -1.03997 1.21065 0
M  V30 1055 C 99.1706 -2.01369 0.0727019 0
M  V30 1056 O 98.2266 -2.45856 -0.575426 0
M  V30 1057 C 99.5396 -1.60163 2.54496 0
M  V30 1058 C 101.088 -1.7224 2.61347 0
M  V30 1059 C 101.563 -2.31814 3.95002 0
M  V30 1060 N 103.054 -2.39223 3.96644 0
M  V30 1061 C 103.789 -2.86258 4.96834 0
M  V30 1062 N 103.285 -3.33184 6.07421 0
M  V30 1063 N 105.078 -2.85473 4.84213 0
M  V30 1064 H 97.2286 -0.0885624 2.12215 0
M  V30 1065 H 99.4916 -0.10191 0.942506 0
M  V30 1066 H 99.1976 -0.960811 3.38321 0
M  V30 1067 H 99.0716 -2.5896 2.74262 0
M  V30 1068 H 101.459 -2.35443 1.77906 0
M  V30 1069 H 101.54 -0.720939 2.4543 0
M  V30 1070 H 101.184 -1.69238 4.78875 0
M  V30 1071 H 101.114 -3.32638 4.08239 0
M  V30 1072 H 103.605 -2.06057 3.16779 0
M  V30 1073 H 103.918 -3.67586 6.7978 0
M  V30 1074 H 102.263 -3.31191 6.11013 0
M  V30 1075 H 105.454 -2.48136 3.96921 0
M  V30 1076 H 105.627 -3.21814 5.62441 0
M  V30 1077 N 99.0327 -1.24633 -0.964593 0
M  V30 1078 C 100.444 -1.08045 -1.5226 0
M  V30 1079 C 100.795 0.347116 -1.93105 0
M  V30 1080 O 99.9197 1.23588 -1.77637 0
M  V30 1081 C 100.515 -1.95514 -2.76695 0
M  V30 1082 C 99.0737 -1.8314 -3.28841 0
M  V30 1083 C 98.2207 -1.90262 -2.01732 0
M  V30 1084 H 101.172 -1.38064 -0.782553 0
M  V30 1085 H 101.193 -1.48925 -3.50145 0
M  V30 1086 H 100.705 -2.99407 -2.46936 0
M  V30 1087 H 98.8057 -0.82092 -3.63444 0
M  V30 1088 H 98.9187 -2.67406 -3.97531 0
M  V30 1089 H 97.2827 -1.34027 -2.16584 0
M  V30 1090 H 98.0657 -2.9574 -1.74334 0
M  V30 1091 N 100.511 1.16574 -1.06058 0
M  V30 1092 C 101.421 2.2452 -0.680282 0
M  V30 1093 C 102.437 1.71348 0.302604 0
M  V30 1094 O 103.613 2.00822 0.152513 0
M  V30 1095 C 100.678 3.46629 -0.0700315 0
M  V30 1096 C 99.7388 4.14849 -1.10448 0
M  V30 1097 C 98.9718 5.31129 -0.523256 0
M  V30 1098 O 99.1948 5.66514 0.664709 0
M  V30 1099 O 98.1288 5.88526 -1.26179 0
M  V30 1100 H 101.955 2.59355 -1.58015 0
M  V30 1101 H 99.5398 1.24043 -0.832694 0
M  V30 1102 H 101.422 4.20543 0.268667 0
M  V30 1103 H 100.097 3.13573 0.803353 0
M  V30 1104 H 99.0038 3.42916 -1.49532 0
M  V30 1105 H 100.337 4.51954 -1.94931 0
M  V30 1106 O 102.028 0.977372 1.28568 0
M  V30 1107 H 102.719 0.620331 1.83498 0
M  V30 END ATOM
M  V30 BEGIN BOND
M  V30 END BOND
M  V30 END CTAB
M  END
$$$$
