drugbank_target|P10145 Interleukin-8 (DB05434; DB05484; DB05855; DB06083)
 OpenBabel12092119443D

  0  0  0     0  0            999 V3000
M  V30 BEGIN CTAB
M  V30 COUNTS 1597 1610 0 0 0
M  V30 BEGIN ATOM
M  V30 1 H -0.908 1.98254 -0.117106 0
M  V30 2 N 0 1.576 0 0
M  V30 3 C 0.933 2.03868 1.02534 0
M  V30 4 C 1.911 0.928543 1.3348 0
M  V30 5 O 3.095 1.19667 1.45644 0
M  V30 6 C 0.222 2.43627 2.35294 0
M  V30 7 C -0.732 3.65373 2.2001 0
M  V30 8 S 0.101 5.13292 1.52614 0
M  V30 9 C 1.257 5.56322 2.86805 0
M  V30 10 H 1.49 2.90518 0.631377 0
M  V30 11 H -0.977 1.52953 0.210867 0
M  V30 12 H 0.981 2.67203 3.11629 0
M  V30 13 H -0.358 1.57376 2.7183 0
M  V30 14 H -1.165 3.90944 3.18086 0
M  V30 15 H -1.563 3.418 1.51819 0
M  V30 16 H 0.729 5.58782 3.83104 0
M  V30 17 H 1.672 6.56266 2.65933 0
M  V30 18 H 2.08 4.83886 2.90714 0
M  V30 19 N 1.4781 -0.272755 1.55222 0
M  V30 20 C 2.7061 -1.02255 1.79865 0
M  V30 21 C 3.1211 -1.79924 0.572088 0
M  V30 22 O 2.4781 -1.76638 -0.458842 0
M  V30 23 C 2.5291 -1.98094 3.02392 0
M  V30 24 O 2.2501 -1.23572 4.20311 0
M  V30 25 C 3.7511 -2.84884 3.39641 0
M  V30 26 H 0.9711 -0.302057 0.599168 0
M  V30 27 H 3.5151 -0.303465 2.02236 0
M  V30 28 H 1.6701 -2.65465 2.82147 0
M  V30 29 H 2.0841 -1.88172 4.89583 0
M  V30 30 H 3.5581 -3.47927 4.28545 0
M  V30 31 H 4.0351 -3.54665 2.59055 0
M  V30 32 H 4.6411 -2.23003 3.62146 0
M  V30 33 N 2.9562 -1.48159 -0.537278 0
M  V30 34 C 4.1812 -1.59707 -1.32319 0
M  V30 35 C 4.6062 -0.254859 -1.86365 0
M  V30 36 O 3.9642 0.772378 -1.64024 0
M  V30 37 C 4.0122 -2.6412 -2.45505 0
M  V30 38 O 3.1162 -2.20774 -3.48328 0
M  V30 39 H 2.4572 -0.535791 -0.392204 0
M  V30 40 H 4.9872 -1.94092 -0.647268 0
M  V30 41 H 4.9972 -2.85166 -2.91795 0
M  V30 42 H 3.6722 -3.61567 -2.05528 0
M  V30 43 H 2.2492 -2.09911 -3.08207 0
M  V30 44 N 4.4343 0.785586 -1.36625 0
M  V30 45 C 5.3813 1.89838 -1.31264 0
M  V30 46 C 6.3513 1.65115 -0.180633 0
M  V30 47 O 7.5363 1.87222 -0.36777 0
M  V30 48 C 4.6763 3.26706 -1.11163 0
M  V30 49 C 3.7893 3.63476 -2.33472 0
M  V30 50 C 2.9243 4.89481 -2.06353 0
M  V30 51 C 1.9633 5.18941 -3.24602 0
M  V30 52 N 1.1003 6.36131 -2.97123 0
M  V30 53 H 5.9403 1.93756 -2.26413 0
M  V30 54 H 3.4773 0.947454 -1.12524 0
M  V30 55 H 5.4353 4.05639 -0.975337 0
M  V30 56 H 4.0653 3.222 -0.196674 0
M  V30 57 H 3.1173 2.79636 -2.57891 0
M  V30 58 H 4.4293 3.81193 -3.21704 0
M  V30 59 H 3.5833 5.76288 -1.89675 0
M  V30 60 H 2.3223 4.73841 -1.15437 0
M  V30 61 H 1.3273 4.30615 -3.41834 0
M  V30 62 H 2.5523 5.36498 -4.16349 0
M  V30 63 H 0.4983 6.21875 -2.08823 0
M  V30 64 H 0.4153 6.54198 -3.78894 0
M  V30 65 H 1.6833 7.2591 -2.84033 0
M  V30 66 N 5.9124 1.20967 1.01018 0
M  V30 67 C 6.8424 0.988272 2.11555 0
M  V30 68 C 7.8234 -0.0849778 1.69888 0
M  V30 69 O 9.0084 0.0738202 1.9406 0
M  V30 70 C 6.1384 0.546528 3.42973 0
M  V30 71 C 5.0924 1.56375 3.9841 0
M  V30 72 C 4.4184 0.97842 5.25672 0
M  V30 73 C 5.7184 2.94922 4.31066 0
M  V30 74 H 7.4124 1.91276 2.30334 0
M  V30 75 H 4.9584 0.921073 1.1069 0
M  V30 76 H 6.9114 0.378839 4.19694 0
M  V30 77 H 5.6354 -0.413598 3.23971 0
M  V30 78 H 4.2944 1.71891 3.23804 0
M  V30 79 H 3.9424 0.0101688 5.02999 0
M  V30 80 H 3.6424 1.65784 5.63728 0
M  V30 81 H 5.1664 0.821939 6.05043 0
M  V30 82 H 6.5804 2.8288 4.9865 0
M  V30 83 H 4.9774 3.5983 4.80253 0
M  V30 84 H 6.0474 3.4616 3.39561 0
M  V30 85 N 7.3905 -1.2043 1.01659 0
M  V30 86 C 8.3535 -2.21433 0.591616 0
M  V30 87 C 9.3535 -1.57203 -0.338226 0
M  V30 88 O 10.5435 -1.73737 -0.126918 0
M  V30 89 C 7.6755 -3.40628 -0.136058 0
M  V30 90 H 8.8685 -2.60545 1.48514 0
M  V30 91 H 6.4215 -1.33893 0.806379 0
M  V30 92 H 7.1565 -3.07019 -1.04449 0
M  V30 93 H 6.9415 -3.88475 0.531917 0
M  V30 94 H 8.4315 -4.15475 -0.420735 0
M  V30 95 N 8.8686 -0.792821 -1.36206 0
M  V30 96 C 10.1146 -0.36733 -1.99446 0
M  V30 97 C 10.4476 1.05917 -1.62774 0
M  V30 98 O 9.7226 1.7324 -0.88421 0
M  V30 99 C 10.0056 -0.535044 -3.56103 0
M  V30 100 C 9.8586 -2.00548 -4.02617 0
M  V30 101 C 11.1776 0.0478191 -4.40074 0
M  V30 102 H 8.2966 -0.134941 -0.724541 0
M  V30 103 H 10.9386 -0.999794 -1.61568 0
M  V30 104 H 9.0886 0.00336329 -3.885 0
M  V30 105 H 10.7606 -2.60521 -3.80692 0
M  V30 106 H 9.0036 -2.50686 -3.54032 0
M  V30 107 H 9.6746 -2.07377 -5.11565 0
M  V30 108 H 12.1506 -0.411822 -4.14057 0
M  V30 109 H 11.0266 -0.0995336 -5.4881 0
M  V30 110 H 11.2876 1.14025 -4.27142 0
M  V30 111 N 10.3467 1.47872 -0.545128 0
M  V30 112 C 11.3097 2.28337 0.198717 0
M  V30 113 C 12.3097 1.36255 0.853888 0
M  V30 114 O 13.4997 1.59003 0.711606 0
M  V30 115 C 10.6317 3.15585 1.28915 0
M  V30 116 H 11.8247 2.95567 -0.507941 0
M  V30 117 H 9.3777 1.53362 -0.301616 0
M  V30 118 H 10.1127 2.53019 2.02859 0
M  V30 119 H 9.8977 3.83337 0.824309 0
M  V30 120 H 11.3877 3.76243 1.81194 0
M  V30 121 N 11.8248 0.280983 1.55075 0
M  V30 122 C 12.7548 -0.597469 2.25727 0
M  V30 123 C 13.7358 -1.15417 1.24952 0
M  V30 124 O 14.9208 -1.18722 1.53684 0
M  V30 125 C 12.0508 -1.7789 2.98283 0
M  V30 126 C 11.0048 -1.35347 4.06036 0
M  V30 127 C 10.3308 -2.61846 4.66198 0
M  V30 128 C 11.6308 -0.499354 5.19907 0
M  V30 129 H 13.3248 -0.00824265 2.99399 0
M  V30 130 H 10.8708 -0.0025244 1.44 0
M  V30 131 H 12.8238 -2.39937 3.46422 0
M  V30 132 H 11.5478 -2.39405 2.22155 0
M  V30 133 H 10.2068 -0.756156 3.58717 0
M  V30 134 H 9.8548 -3.21632 3.86732 0
M  V30 135 H 9.5548 -2.3409 5.38958 0
M  V30 136 H 11.0788 -3.24732 5.1709 0
M  V30 137 H 12.4928 -1.02498 5.64063 0
M  V30 138 H 10.8898 -0.316424 5.99265 0
M  V30 139 H 11.9598 0.480459 4.82514 0
M  V30 140 N 13.3029 -1.57598 0.00835791 0
M  V30 141 C 14.2329 -2.1198 -0.979113 0
M  V30 142 C 15.2139 -1.03091 -1.35301 0
M  V30 143 O 16.3989 -1.30818 -1.43528 0
M  V30 144 C 13.5289 -2.62995 -2.26828 0
M  V30 145 C 12.4829 -3.76485 -2.03576 0
M  V30 146 C 11.8089 -4.13846 -3.38579 0
M  V30 147 C 13.1089 -5.0342 -1.39161 0
M  V30 148 H 14.8029 -2.94738 -0.526281 0
M  V30 149 H 12.3489 -1.41783 -0.251704 0
M  V30 150 H 14.3019 -2.99669 -2.96271 0
M  V30 151 H 13.0259 -1.7737 -2.7424 0
M  V30 152 H 11.6849 -3.40217 -1.36557 0
M  V30 153 H 11.3329 -3.25232 -3.83709 0
M  V30 154 H 11.0329 -4.90312 -3.23834 0
M  V30 155 H 12.5569 -4.53086 -4.09323 0
M  V30 156 H 13.9709 -5.37812 -1.98573 0
M  V30 157 H 12.3679 -5.84746 -1.34878 0
M  V30 158 H 13.4379 -4.83548 -0.361868 0
M  V30 159 N 14.781 0.264519 -1.55364 0
M  V30 160 C 15.744 1.31046 -1.88042 0
M  V30 161 C 16.744 1.41943 -0.755569 0
M  V30 162 O 17.934 1.40947 -1.02369 0
M  V30 163 C 15.066 2.69067 -2.09323 0
M  V30 164 H 16.259 1.03297 -2.81549 0
M  V30 165 H 13.812 0.502989 -1.47986 0
M  V30 166 H 14.547 3.01982 -1.18226 0
M  V30 167 H 14.332 2.62542 -2.91229 0
M  V30 168 H 15.822 3.44623 -2.35848 0
M  V30 169 N 16.2591 1.48442 0.529413 0
M  V30 170 C 17.2221 1.62524 1.61612 0
M  V30 171 C 18.2221 0.498509 1.52877 0
M  V30 172 O 19.4121 0.76431 1.56537 0
M  V30 173 C 16.5441 1.59597 3.01233 0
M  V30 174 H 17.7371 2.59423 1.50465 0
M  V30 175 H 15.2901 1.37047 0.751514 0
M  V30 176 H 16.0251 0.641781 3.17886 0
M  V30 177 H 15.8101 2.41397 3.08982 0
M  V30 178 H 17.3001 1.72646 3.80241 0
M  V30 179 N 17.7372 -0.778329 1.37039 0
M  V30 180 C 18.9842 -1.53665 1.31884 0
M  V30 181 C 19.3122 -1.9425 -0.0986303 0
M  V30 182 O 18.5672 -1.63832 -1.07041 0
M  V30 183 C 18.8662 -2.81845 2.19768 0
M  V30 184 C 18.5322 -2.60345 3.68146 0
M  V30 185 C 17.1942 -2.5419 4.08584 0
M  V30 186 C 19.5462 -2.40923 4.62175 0
M  V30 187 C 16.8742 -2.26594 5.41177 0
M  V30 188 C 19.2262 -2.14852 5.94997 0
M  V30 189 C 17.8902 -2.07137 6.34547 0
M  V30 190 H 17.1602 -0.562299 0.482598 0
M  V30 191 H 19.8072 -0.897069 1.69189 0
M  V30 192 H 18.1122 -3.50328 1.75436 0
M  V30 193 H 19.8092 -3.39692 2.13097 0
M  V30 194 H 16.3992 -2.65996 3.36072 0
M  V30 195 H 20.5832 -2.44673 4.31797 0
M  V30 196 H 15.8392 -2.19111 5.70789 0
M  V30 197 H 20.0132 -1.98822 6.67415 0
M  V30 198 H 17.6402 -1.85518 7.37216 0
M  V30 199 N 19.2153 -1.21501 -1.00376 0
M  V30 200 C 20.1453 -0.999478 -2.11028 0
M  V30 201 C 21.1263 0.0759671 -1.6993 0
M  V30 202 O 22.3113 -0.0841106 -1.94018 0
M  V30 203 C 19.4413 -0.564709 -3.42678 0
M  V30 204 C 18.3953 -1.58486 -3.97576 0
M  V30 205 C 17.7213 -1.00628 -5.25146 0
M  V30 206 C 19.0213 -2.97204 -4.29496 0
M  V30 207 H 20.7153 -1.92495 -2.29317 0
M  V30 208 H 18.2613 -0.92693 -1.102 0
M  V30 209 H 20.2143 -0.401091 -4.19487 0
M  V30 210 H 18.9383 0.396411 -3.24185 0
M  V30 211 H 17.5973 -1.73606 -3.22888 0
M  V30 212 H 17.2453 -0.0368439 -5.02987 0
M  V30 213 H 16.9453 -1.68771 -5.62841 0
M  V30 214 H 18.4693 -0.854015 -6.04598 0
M  V30 215 H 19.8833 -2.8552 -4.97143 0
M  V30 216 H 18.2803 -3.62372 -4.78338 0
M  V30 217 H 19.3503 -3.47956 -3.3772 0
M  V30 218 N 20.6934 1.19889 -1.02296 0
M  V30 219 C 21.9424 1.88743 -0.711257 0
M  V30 220 C 22.2554 1.80112 0.762817 0
M  V30 221 O 23.4614 2.44161 1.18733 0
M  V30 222 C 21.9174 3.38525 -1.22185 0
M  V30 223 C 21.5254 3.55727 -2.72328 0
M  V30 224 C 23.2694 4.12893 -0.985864 0
M  V30 225 C 21.1764 4.99369 -3.16835 0
M  V30 226 H 20.1064 0.706885 -0.262353 0
M  V30 227 H 22.7574 1.35586 -1.23648 0
M  V30 228 H 21.1394 3.91044 -0.624571 0
M  V30 229 H 22.3134 3.13564 -3.3766 0
M  V30 230 H 20.6284 2.94739 -2.9414 0
M  V30 231 H 23.2254 5.18813 -1.29374 0
M  V30 232 H 23.5684 4.16228 0.0775055 0
M  V30 233 H 24.1014 3.66494 -1.54684 0
M  V30 234 H 20.8404 5.01193 -4.22476 0
M  V30 235 H 20.3604 5.42317 -2.56228 0
M  V30 236 H 22.0394 5.67988 -3.09837 0
M  V30 237 N 22.1715 0.800033 1.35784 0
M  V30 238 C 23.3965 0.388511 2.03729 0
M  V30 239 C 23.8215 -0.990481 1.5991 0
M  V30 240 O 23.1795 -1.64013 0.772612 0
M  V30 241 C 23.2275 0.4726 3.5749 0
M  V30 242 O 22.3315 -0.51646 4.09153 0
M  V30 243 H 21.6725 0.163271 0.643614 0
M  V30 244 H 24.2025 1.0841 1.73518 0
M  V30 245 H 24.2125 0.34003 4.06581 0
M  V30 246 H 22.8875 1.47848 3.88734 0
M  V30 247 H 21.4645 -0.344673 3.71304 0
M  V30 248 N 23.6496 -1.47581 0.552962 0
M  V30 249 C 24.6126 -2.28439 -0.186605 0
M  V30 250 C 25.6126 -1.36706 -0.84665 0
M  V30 251 O 26.8026 -1.59378 -0.703164 0
M  V30 252 C 23.9346 -3.16264 -1.2724 0
M  V30 253 H 25.1276 -2.95294 0.523609 0
M  V30 254 H 22.6806 -1.532 0.309745 0
M  V30 255 H 23.4156 -2.54091 -2.01514 0
M  V30 256 H 23.2006 -3.83769 -0.803968 0
M  V30 257 H 24.6906 -3.77198 -1.79196 0
M  V30 258 N 25.1277 -0.289203 -1.54924 0
M  V30 259 C 26.0907 0.579144 -2.21762 0
M  V30 260 C 27.0907 1.07047 -1.1999 0
M  V30 261 O 28.2807 0.968384 -1.44803 0
M  V30 262 C 25.4127 1.80055 -2.8947 0
M  V30 263 H 26.6057 -0.00464908 -2.999 0
M  V30 264 H 24.1587 -0.0399306 -1.56249 0
M  V30 265 H 24.8937 2.42449 -2.15381 0
M  V30 266 H 24.6787 1.45602 -3.64064 0
M  V30 267 H 26.1687 2.41773 -3.40493 0
M  V30 268 N 26.6058 1.57591 -0.0167156 0
M  V30 269 C 27.5358 2.12496 0.967858 0
M  V30 270 C 28.5168 1.03807 1.34752 0
M  V30 271 O 29.7018 1.31577 1.42833 0
M  V30 272 C 26.8318 2.64194 2.25431 0
M  V30 273 C 25.7858 3.77559 2.01576 0
M  V30 274 C 25.1118 4.15636 3.36379 0
M  V30 275 C 26.4118 5.04151 1.36489 0
M  V30 276 H 28.1058 2.95013 0.510643 0
M  V30 277 H 25.6518 1.41915 0.244181 0
M  V30 278 H 27.6048 3.01236 2.94678 0
M  V30 279 H 26.3288 1.78821 2.73296 0
M  V30 280 H 24.9878 3.40937 1.34751 0
M  V30 281 H 24.6358 3.27263 3.81979 0
M  V30 282 H 24.3358 4.92022 3.21229 0
M  V30 283 H 25.8598 4.5525 4.06915 0
M  V30 284 H 27.2738 5.38857 1.95718 0
M  V30 285 H 25.6708 5.85453 1.31776 0
M  V30 286 H 26.7408 4.83733 0.336219 0
M  V30 287 N 28.0839 -0.256276 1.55502 0
M  V30 288 C 29.3239 -0.993081 1.78654 0
M  V30 289 C 29.6879 -1.8288 0.584724 0
M  V30 290 O 30.8889 -2.59665 0.694822 0
M  V30 291 C 29.1599 -1.83856 3.06483 0
M  V30 292 S 30.7189 -2.63573 3.5082 0
M  V30 293 H 27.5369 -0.334199 0.62756 0
M  V30 294 H 30.1389 -0.26184 1.93739 0
M  V30 295 H 28.8429 -1.21414 3.92029 0
M  V30 296 H 28.3739 -2.61271 2.94111 0
M  V30 297 H 30.3889 -3.86312 3.11412 0
M  V30 298 N 29.562 -1.4872 -0.521534 0
M  V30 299 C 30.472 -1.66569 -1.65203 0
M  V30 300 C 31.488 -0.548197 -1.65139 0
M  V30 301 O 32.664 -0.820339 -1.83936 0
M  V30 302 C 29.729 -1.70917 -3.01642 0
M  V30 303 C 28.79 -2.94356 -3.12495 0
M  V30 304 C 28.023 -2.98487 -4.42426 0
M  V30 305 O 28.246 -2.10786 -5.30024 0
M  V30 306 O 27.18 -3.90746 -4.57822 0
M  V30 307 H 31.006 -2.62298 -1.5308 0
M  V30 308 H 28.591 -1.3222 -0.695565 0
M  V30 309 H 30.473 -1.7625 -3.82771 0
M  V30 310 H 29.148 -0.783633 -3.14071 0
M  V30 311 H 28.055 -2.94552 -2.3063 0
M  V30 312 H 29.388 -3.86322 -3.04986 0
M  V30 313 N 31.0401 0.771051 -1.3745 0
M  V30 314 C 32.2881 1.52661 -1.32435 0
M  V30 315 C 32.6091 1.9479 0.0905024 0
M  V30 316 O 31.8791 1.66348 1.03466 0
M  V30 317 H 30.4591 0.566218 -0.487244 0
M  V30 318 H 33.1211 0.917636 -1.71946 0
M  V30 319 H 32.2171 2.42568 -1.96385 0
M  V30 320 N 32.5182 1.22032 0.997298 0
M  V30 321 C 33.4812 0.987909 2.06816 0
M  V30 322 C 34.4812 -0.0440084 1.6074 0
M  V30 323 O 35.6712 0.194053 1.73116 0
M  V30 324 C 32.8032 0.49132 3.37341 0
M  V30 325 H 33.9962 1.93803 2.28868 0
M  V30 326 H 31.5492 1.03838 1.16822 0
M  V30 327 H 32.2842 -0.463364 3.20973 0
M  V30 328 H 32.0692 1.23575 3.72118 0
M  V30 329 H 33.5592 0.348824 4.16141 0
M  V30 330 N 33.9963 -1.19345 1.0293 0
M  V30 331 C 35.2423 -1.89318 0.727083 0
M  V30 332 C 35.5753 -1.79446 -0.742483 0
M  V30 333 O 34.8503 -1.1871 -1.54072 0
M  V30 334 C 35.1333 -3.40238 1.17942 0
M  V30 335 C 34.9863 -3.58979 2.71024 0
M  V30 336 C 36.3053 -4.33479 0.760548 0
M  V30 337 H 33.4243 -0.687475 0.265606 0
M  V30 338 H 36.0663 -1.40477 1.2793 0
M  V30 339 H 34.2163 -3.81964 0.709608 0
M  V30 340 H 35.8883 -3.26421 3.25955 0
M  V30 341 H 34.1313 -3.02018 3.11396 0
M  V30 342 H 34.8023 -4.64823 2.9773 0
M  V30 343 H 37.2783 -3.99469 1.16464 0
M  V30 344 H 36.1543 -5.37664 1.10493 0
M  V30 345 H 36.4153 -4.40813 -0.337063 0
M  V30 346 N 35.4744 -0.807222 -1.35358 0
M  V30 347 C 36.4044 -0.232509 -2.3234 0
M  V30 348 C 37.3854 0.642386 -1.57504 0
M  V30 349 O 38.5704 0.572526 -1.85569 0
M  V30 350 C 35.7004 0.619238 -3.41735 0
M  V30 351 C 34.6544 -0.157215 -4.27711 0
M  V30 352 C 33.9804 0.816273 -5.28433 0
M  V30 353 C 35.2804 -1.35656 -5.04376 0
M  V30 354 H 36.9744 -1.04276 -2.80654 0
M  V30 355 H 34.5204 -0.50288 -1.34934 0
M  V30 356 H 36.4734 1.03137 -4.08584 0
M  V30 357 H 35.1974 1.46239 -2.92031 0
M  V30 358 H 33.8564 -0.550525 -3.62443 0
M  V30 359 H 33.5044 1.65494 -4.74996 0
M  V30 360 H 33.2044 0.301067 -5.86828 0
M  V30 361 H 34.7284 1.22659 -5.98153 0
M  V30 362 H 36.1424 -1.01927 -5.64166 0
M  V30 363 H 34.5394 -1.8063 -5.7227 0
M  V30 364 H 35.6094 -2.14288 -4.34981 0
M  V30 365 N 36.9525 1.47285 -0.560781 0
M  V30 366 C 38.3635 1.86258 -0.128343 0
M  V30 367 C 38.7145 1.46699 1.30284 0
M  V30 368 O 37.8395 0.871698 1.98067 0
M  V30 369 C 38.4345 3.38044 -0.22614 0
M  V30 370 C 36.9935 3.76096 0.151283 0
M  V30 371 C 36.1405 2.71335 -0.572084 0
M  V30 372 H 39.0915 1.38752 -0.770297 0
M  V30 373 H 39.1125 3.76441 0.554322 0
M  V30 374 H 38.6245 3.66806 -1.26788 0
M  V30 375 H 36.7255 3.52951 1.19399 0
M  V30 376 H 36.8385 4.78641 -0.209765 0
M  V30 377 H 35.2025 2.54696 -0.0147653 0
M  V30 378 H 35.9855 3.02938 -1.61504 0
M  V30 379 N 38.4306 0.297415 1.54768 0
M  V30 380 C 39.8466 -0.0560823 1.59501 0
M  V30 381 C 40.0466 -1.52725 1.31444 0
M  V30 382 O 39.1026 -2.27947 1.08611 0
M  V30 383 C 40.4156 0.338631 2.98787 0
M  V30 384 C 41.9636 0.287097 3.11681 0
M  V30 385 C 42.4386 0.656579 4.53269 0
M  V30 386 N 43.9296 0.608977 4.59179 0
M  V30 387 C 44.6646 0.867385 5.66802 0
M  V30 388 N 44.1606 1.19157 6.82476 0
M  V30 389 N 45.9536 0.794687 5.56454 0
M  V30 390 H 38.1046 1.25624 1.71267 0
M  V30 391 H 40.3676 0.509057 0.799728 0
M  V30 392 H 40.0736 1.36263 3.2423 0
M  V30 393 H 39.9476 -0.309508 3.75928 0
M  V30 394 H 42.3346 -0.727649 2.85988 0
M  V30 395 H 42.4156 0.969809 2.36703 0
M  V30 396 H 42.0596 1.66912 4.7969 0
M  V30 397 H 41.9896 -0.0481649 5.26578 0
M  V30 398 H 44.4806 0.369198 3.76092 0
M  V30 399 H 44.7936 1.37482 7.60473 0
M  V30 400 H 43.1386 1.22958 6.84037 0
M  V30 401 H 46.3296 0.541098 4.64962 0
M  V30 402 H 46.5026 0.999445 6.40246 0
M  V30 403 N 39.9087 -1.5758 0.0250728 0
M  V30 404 C 41.1337 -1.96337 -0.668317 0
M  V30 405 C 41.5587 -0.901314 -1.651 0
M  V30 406 O 40.9167 0.138187 -1.80773 0
M  V30 407 C 40.9647 -3.34191 -1.35457 0
M  V30 408 O 40.0687 -3.30269 -2.46974 0
M  V30 409 H 39.4097 -0.640281 -0.175887 0
M  V30 410 H 41.9397 -2.0442 0.0857224 0
M  V30 411 H 41.9497 -3.70331 -1.71228 0
M  V30 412 H 40.6247 -4.11036 -0.634218 0
M  V30 413 H 39.2017 -3.05841 -2.13344 0
M  V30 414 N 41.3868 0.248026 -1.55636 0
M  V30 415 C 42.3498 1.29044 -1.89421 0
M  V30 416 C 43.3498 1.41134 -0.770581 0
M  V30 417 O 44.5398 1.39854 -1.03858 0
M  V30 418 C 41.6718 2.66831 -2.12165 0
M  V30 419 H 42.8648 1.00305 -2.82629 0
M  V30 420 H 40.4178 0.487265 -1.48511 0
M  V30 421 H 41.1528 3.00711 -1.21422 0
M  V30 422 H 40.9378 2.59438 -2.93997 0
M  V30 423 H 42.4278 3.42103 -2.3949 0
M  V30 424 N 42.8649 1.48995 0.513639 0
M  V30 425 C 43.8119 1.6473 1.61656 0
M  V30 426 C 44.7819 0.488984 1.58739 0
M  V30 427 O 45.9669 0.714478 1.76918 0
M  V30 428 C 43.1069 1.7082 2.99858 0
M  V30 429 C 42.2199 2.9787 3.12885 0
M  V30 430 C 41.3549 2.95017 4.41744 0
M  V30 431 C 40.3939 4.16702 4.48359 0
M  V30 432 N 39.5309 4.11832 5.68629 0
M  V30 433 H 44.3709 2.58909 1.47547 0
M  V30 434 H 41.9079 1.28382 0.71808 0
M  V30 435 H 43.8659 1.72331 3.79944 0
M  V30 436 H 42.4959 0.801181 3.12699 0
M  V30 437 H 41.5479 3.06029 2.25944 0
M  V30 438 H 42.8599 3.8786 3.13633 0
M  V30 439 H 42.0139 2.95021 5.30139 0
M  V30 440 H 40.7529 2.02784 4.43542 0
M  V30 441 H 39.7579 4.16955 3.58369 0
M  V30 442 H 40.9829 5.10113 4.48287 0
M  V30 443 H 38.9289 3.22428 5.71293 0
M  V30 444 H 38.8459 4.95543 5.7094 0
M  V30 445 H 40.1139 4.1592 6.59266 0
M  V30 446 N 44.343 -0.763751 1.37857 0
M  V30 447 C 45.253 -1.90817 1.36478 0
M  V30 448 C 46.269 -1.71997 0.263248 0
M  V30 449 O 47.445 -1.95095 0.499979 0
M  V30 450 C 44.51 -3.2605 1.17864 0
M  V30 451 C 43.571 -3.57467 2.3773 0
M  V30 452 C 42.804 -4.86249 2.19995 0
M  V30 453 O 43.027 -5.57884 1.18836 0
M  V30 454 O 41.961 -5.16911 3.08361 0
M  V30 455 H 45.787 -1.94933 2.32884 0
M  V30 456 H 43.372 -0.907619 1.1867 0
M  V30 457 H 45.254 -4.06924 1.09504 0
M  V30 458 H 43.929 -3.22769 0.245372 0
M  V30 459 H 42.836 -2.76796 2.51664 0
M  V30 460 H 44.169 -3.655 3.29652 0
M  V30 461 N 45.8211 -1.22559 -0.990812 0
M  V30 462 C 46.7511 -1.0218 -2.09956 0
M  V30 463 C 47.7321 0.0579394 -1.70001 0
M  V30 464 O 48.9171 -0.104684 -1.93918 0
M  V30 465 C 46.0471 -0.601023 -3.4206 0
M  V30 466 C 45.0011 -1.62694 -3.95872 0
M  V30 467 C 44.3271 -1.06193 -5.24049 0
M  V30 468 C 45.6271 -3.01743 -4.2632 0
M  V30 469 H 47.3211 -1.94916 -2.27262 0
M  V30 470 H 44.8671 -0.938566 -1.09211 0
M  V30 471 H 46.8201 -0.445561 -4.19038 0
M  V30 472 H 45.5441 0.362005 -3.24588 0
M  V30 473 H 44.2031 -1.77021 -3.21028 0
M  V30 474 H 43.8511 -0.0901903 -5.02919 0
M  V30 475 H 43.5511 -1.74732 -5.61019 0
M  V30 476 H 45.0751 -0.918092 -6.03658 0
M  V30 477 H 46.4891 -2.90777 -4.94087 0
M  V30 478 H 44.8861 -3.67425 -4.74467 0
M  V30 479 H 45.9561 -3.51518 -3.34011 0
M  V30 480 N 47.2992 1.18797 -1.03562 0
M  V30 481 C 48.7152 1.40671 -0.753917 0
M  V30 482 C 48.9152 1.9043 0.658686 0
M  V30 483 O 47.9712 2.08538 1.42366 0
M  V30 484 C 49.2842 2.41192 -1.79574 0
M  V30 485 C 50.8322 2.54928 -1.81606 0
M  V30 486 C 51.3072 3.58709 -2.84766 0
M  V30 487 N 52.7982 3.66212 -2.83625 0
M  V30 488 C 53.5332 4.46225 -3.60098 0
M  V30 489 N 53.0292 5.29888 -4.46308 0
M  V30 490 N 54.8222 4.40939 -3.4861 0
M  V30 491 H 46.9732 0.848221 -1.94728 0
M  V30 492 H 49.2362 0.435081 -0.842264 0
M  V30 493 H 48.9422 2.11669 -2.80872 0
M  V30 494 H 48.8162 3.40467 -1.62365 0
M  V30 495 H 51.2032 2.83771 -0.809817 0
M  V30 496 H 51.2842 1.55784 -2.02891 0
M  V30 497 H 50.9282 3.30607 -3.85566 0
M  V30 498 H 50.8582 4.57519 -2.60737 0
M  V30 499 H 53.3492 3.06466 -2.21105 0
M  V30 500 H 53.6622 5.88078 -5.01382 0
M  V30 501 H 52.0072 5.29326 -4.50377 0
M  V30 502 H 55.1982 3.74624 -2.80668 0
M  V30 503 H 55.3712 5.03056 -4.08459 0
M  V30 504 N 48.7773 0.814389 1.34928 0
M  V30 505 C 50.0173 0.404165 2.00364 0
M  V30 506 C 50.3813 -1.01166 1.63185 0
M  V30 507 O 51.5823 -1.52431 2.21401 0
M  V30 508 C 49.8533 0.590718 3.52484 0
M  V30 509 S 51.4123 0.272075 4.37956 0
M  V30 510 H 48.2303 0.15311 0.694319 0
M  V30 511 H 50.8323 1.05834 1.64376 0
M  V30 512 H 49.5363 1.62099 3.77031 0
M  V30 513 H 49.0673 -0.0785013 3.93322 0
M  V30 514 H 51.0823 -0.917405 4.87645 0
M  V30 515 N 50.2554 -1.46986 0.568584 0
M  V30 516 C 51.1874 -2.28233 -0.210337 0
M  V30 517 C 52.2004 -1.37682 -0.868767 0
M  V30 518 O 53.3894 -1.62406 -0.740705 0
M  V30 519 C 50.4894 -3.12293 -1.3163 0
M  V30 520 C 49.6624 -4.30878 -0.7525 0
M  V30 521 C 48.7214 -4.96445 -1.74439 0
M  V30 522 O 47.7474 -5.54482 -1.286 0
M  V30 523 N 48.9494 -4.92171 -3.07812 0
M  V30 524 H 51.7144 -2.95723 0.486648 0
M  V30 525 H 49.2754 -1.56742 0.405409 0
M  V30 526 H 51.2674 -3.53022 -1.97883 0
M  V30 527 H 49.8374 -2.46971 -1.91636 0
M  V30 528 H 49.0574 -3.94104 0.0871128 0
M  V30 529 H 50.3454 -5.07558 -0.35536 0
M  V30 530 H 49.7434 -4.46239 -3.47688 0
M  V30 531 H 48.3004 -5.36884 -3.69592 0
M  V30 532 N 51.7335 -0.305618 -1.54608 0
M  V30 533 C 52.9735 0.303114 -2.0214 0
M  V30 534 C 53.3375 1.50737 -1.18921 0
M  V30 535 O 54.5385 2.18778 -1.56172 0
M  V30 536 C 52.8095 0.646332 -3.51507 0
M  V30 537 S 54.3685 1.23727 -4.20995 0
M  V30 538 H 51.1865 0.0927643 -0.704923 0
M  V30 539 H 53.7885 -0.434566 -1.90609 0
M  V30 540 H 52.4925 -0.238541 -4.09706 0
M  V30 541 H 52.0235 1.41468 -3.67084 0
M  V30 542 H 54.0385 2.52489 -4.27158 0
M  V30 543 N 53.2116 1.57565 -0.0334293 0
M  V30 544 C 54.4606 1.91155 0.643639 0
M  V30 545 C 54.7736 0.91192 1.73042 0
M  V30 546 O 55.9796 1.13923 2.46442 0
M  V30 547 C 54.4356 3.39443 1.1961 0
M  V30 548 C 54.0436 4.47774 0.142381 0
M  V30 549 C 55.7876 3.82094 1.84944 0
M  V30 550 C 53.6946 5.87162 0.706727 0
M  V30 551 H 52.6246 0.713368 0.244176 0
M  V30 552 H 55.2756 1.8323 -0.0994323 0
M  V30 553 H 53.6576 3.42313 1.99092 0
M  V30 554 H 54.8316 4.56469 -0.630296 0
M  V30 555 H 53.1466 4.14352 -0.412446 0
M  V30 556 H 55.7436 4.83591 2.2813 0
M  V30 557 H 56.0866 3.17386 2.69392 0
M  V30 558 H 56.6196 3.81665 1.12145 0
M  V30 559 H 53.3586 6.55424 -0.0997178 0
M  V30 560 H 52.8786 5.82064 1.44779 0
M  V30 561 H 54.5576 6.35866 1.19514 0
M  V30 562 N 54.6897 -0.239769 1.55765 0
M  V30 563 C 55.6367 -1.29696 1.90913 0
M  V30 564 C 56.6067 -1.47478 0.764164 0
M  V30 565 O 57.7917 -1.61345 1.01845 0
M  V30 566 C 54.9317 -2.64598 2.21544 0
M  V30 567 C 54.0447 -2.54765 3.48882 0
M  V30 568 C 53.1797 -3.82069 3.69049 0
M  V30 569 C 52.2187 -3.66883 4.89963 0
M  V30 570 N 51.3557 -4.86094 5.06614 0
M  V30 571 H 56.1957 -0.990224 2.81067 0
M  V30 572 H 53.7327 -0.477684 1.39128 0
M  V30 573 H 55.6907 -3.43132 2.3731 0
M  V30 574 H 54.3207 -2.93405 1.34585 0
M  V30 575 H 53.3727 -1.67763 3.41409 0
M  V30 576 H 54.6847 -2.39457 4.37563 0
M  V30 577 H 53.8387 -4.69046 3.84812 0
M  V30 578 H 52.5777 -4.00282 2.78614 0
M  V30 579 H 51.5827 -2.78289 4.74168 0
M  V30 580 H 52.8077 -3.50157 5.81865 0
M  V30 581 H 50.7537 -5.04655 4.19117 0
M  V30 582 H 50.6707 -4.73443 5.89396 0
M  V30 583 H 51.9387 -5.74549 5.26795 0
M  V30 584 N 56.1678 -1.49265 -0.50573 0
M  V30 585 C 57.3958 -1.62215 -1.28429 0
M  V30 586 C 57.8108 -0.291697 -1.86533 0
M  V30 587 O 57.1678 0.722233 -1.67601 0
M  V30 588 C 57.2188 -2.68735 -2.41793 0
M  V30 589 O 56.9398 -3.96619 -1.86078 0
M  V30 590 C 58.4408 -2.92346 -3.3324 0
M  V30 591 H 55.6608 -0.546239 -0.389697 0
M  V30 592 H 58.2048 -1.95265 -0.607609 0
M  V30 593 H 56.3598 -2.38476 -3.053 0
M  V30 594 H 56.7738 -4.55256 -2.60465 0
M  V30 595 H 58.2478 -3.70623 -4.09075 0
M  V30 596 H 58.7248 -2.02081 -3.89948 0
M  V30 597 H 59.3308 -3.24003 -2.75503 0
M  V30 598 N 57.6459 0.756429 -1.3826 0
M  V30 599 C 58.8759 1.54341 -1.3734 0
M  V30 600 C 59.2839 1.89159 0.0393917 0
M  V30 601 O 58.6269 1.5307 1.01565 0
M  V30 602 C 58.6889 2.87238 -2.16182 0
M  V30 603 C 58.3529 2.74973 -3.65019 0
M  V30 604 C 59.3499 2.44962 -4.58574 0
M  V30 605 C 57.0349 2.92515 -4.08338 0
M  V30 606 C 59.0289 2.32642 -5.93428 0
M  V30 607 C 56.7159 2.79815 -5.43274 0
M  V30 608 C 57.7139 2.49921 -6.35632 0
M  V30 609 O 57.4019 2.37275 -7.68086 0
M  V30 610 H 57.1339 0.484281 -0.471643 0
M  V30 611 H 59.6879 0.944152 -1.82414 0
M  V30 612 H 57.9179 3.49342 -1.65822 0
M  V30 613 H 59.6069 3.48731 -2.07705 0
M  V30 614 H 60.3729 2.31081 -4.26412 0
M  V30 615 H 56.2519 3.14781 -3.368 0
M  V30 616 H 59.7959 2.0923 -6.65484 0
M  V30 617 H 55.6929 2.93269 -5.75034 0
M  V30 618 H 56.4609 2.52509 -7.78577 0
M  V30 619 N 59.124 1.23083 0.984299 0
M  V30 620 C 60.349 1.088 1.76571 0
M  V30 621 C 60.774 -0.356657 1.84688 0
M  V30 622 O 60.132 -1.25788 1.30565 0
M  V30 623 C 60.18 1.71371 3.17277 0
M  V30 624 O 59.284 0.973213 4.00752 0
M  V30 625 H 58.625 0.381599 0.543395 0
M  V30 626 H 61.155 1.63057 1.23587 0
M  V30 627 H 61.165 1.76449 3.67872 0
M  V30 628 H 59.84 2.76493 3.10684 0
M  V30 629 H 58.417 0.999078 3.59267 0
M  V30 630 N 60.6021 -1.18246 1.0419 0
M  V30 631 C 61.5491 -2.2192 0.634037 0
M  V30 632 C 62.5191 -1.62179 -0.358765 0
M  V30 633 O 63.7041 -1.89122 -0.252466 0
M  V30 634 C 60.8441 -3.451 0.00445535 0
M  V30 635 C 59.9571 -4.19174 1.04487 0
M  V30 636 C 59.0921 -5.29813 0.383676 0
M  V30 637 C 58.1311 -5.9566 1.4091 0
M  V30 638 N 57.2681 -6.97834 0.772784 0
M  V30 639 H 62.1081 -2.56164 1.52263 0
M  V30 640 H 59.6451 -1.25843 0.761701 0
M  V30 641 H 61.6031 -4.15485 -0.377919 0
M  V30 642 H 60.2331 -3.11472 -0.847652 0
M  V30 643 H 59.2851 -3.47604 1.54518 0
M  V30 644 H 60.5971 -4.64267 1.82368 0
M  V30 645 H 59.7511 -6.06677 -0.0528366 0
M  V30 646 H 58.4901 -4.85825 -0.427208 0
M  V30 647 H 57.4951 -5.17535 1.85574 0
M  V30 648 H 58.7201 -6.4173 2.22171 0
M  V30 649 H 56.6661 -6.55998 -0.0177708 0
M  V30 650 H 56.5831 -7.41186 1.48928 0
M  V30 651 H 57.8511 -7.78665 0.36071 0
M  V30 652 N 62.0802 -0.821533 -1.34494 0
M  V30 653 C 63.4912 -0.467956 -1.8074 0
M  V30 654 C 63.8422 1.01151 -1.68116 0
M  V30 655 O 62.9672 1.78707 -1.22036 0
M  V30 656 C 63.5622 -0.842627 -3.28154 0
M  V30 657 C 62.1212 -0.541439 -3.72485 0
M  V30 658 C 61.2682 -1.06028 -2.56229 0
M  V30 659 H 64.2192 -1.01183 -1.22261 0
M  V30 660 H 64.2402 -0.145876 -3.8022 0
M  V30 661 H 63.7522 -1.91945 -3.37311 0
M  V30 662 H 61.8532 0.526034 -3.68868 0
M  V30 663 H 61.9662 -1.08453 -4.66663 0
M  V30 664 H 60.3302 -0.481892 -2.501 0
M  V30 665 H 61.1132 -2.14352 -2.68157 0
M  V30 666 N 63.5583 1.46682 -0.576371 0
M  V30 667 C 64.8053 2.02412 -0.0595339 0
M  V30 668 C 65.1333 1.44859 1.29793 0
M  V30 669 O 64.3883 0.601099 1.8624 0
M  V30 670 C 64.6873 3.57345 0.062886 0
M  V30 671 C 64.3533 4.33908 -1.22616 0
M  V30 672 C 63.0153 4.54544 -1.57933 0
M  V30 673 C 65.3673 4.77919 -2.07948 0
M  V30 674 C 62.6953 5.16444 -2.78393 0
M  V30 675 C 65.0473 5.41149 -3.27629 0
M  V30 676 C 63.7113 5.60014 -3.63236 0
M  V30 677 H 62.9813 0.74068 -0.021785 0
M  V30 678 H 65.6283 1.76128 -0.751735 0
M  V30 679 H 63.9333 3.82729 0.838178 0
M  V30 680 H 65.6303 3.98136 0.478439 0
M  V30 681 H 62.2203 4.18138 -0.941202 0
M  V30 682 H 66.4043 4.61738 -1.81967 0
M  V30 683 H 61.6603 5.29242 -3.06126 0
M  V30 684 H 65.8343 5.74211 -3.94023 0
M  V30 685 H 63.4613 6.07748 -4.56669 0
M  V30 686 N 65.0364 0.313813 1.54444 0
M  V30 687 C 65.9864 -0.571898 2.20711 0
M  V30 688 C 66.9704 -1.08913 1.18435 0
M  V30 689 O 68.1624 -1.02777 1.44104 0
M  V30 690 C 65.2914 -1.7371 2.96108 0
M  V30 691 C 64.3774 -1.23522 4.05713 0
M  V30 692 N 64.7684 -0.452288 5.03774 0
M  V30 693 C 63.0664 -1.51482 4.19487 0
M  V30 694 C 63.7674 -0.183438 5.81411 0
M  V30 695 N 62.7434 -0.766845 5.38164 0
M  V30 696 H 66.5454 0.0336802 2.93881 0
M  V30 697 H 64.0594 0.119192 1.61962 0
M  V30 698 H 66.0564 -2.38329 3.4206 0
M  V30 699 H 64.7164 -2.34625 2.24458 0
M  V30 700 H 65.7274 -0.0960131 5.17811 0
M  V30 701 H 62.4044 -2.13053 3.59047 0
M  V30 702 H 63.7944 0.446216 6.70417 0
M  V30 703 N 66.5145 -1.57545 0.0417849 0
M  V30 704 C 67.9255 -1.80011 -0.495259 0
M  V30 705 C 68.2765 -0.953199 -1.71489 0
M  V30 706 O 67.4015 -0.167138 -2.15754 0
M  V30 707 C 67.9965 -3.26482 -0.905265 0
M  V30 708 C 66.5555 -3.499 -1.38734 0
M  V30 709 C 65.7025 -2.74979 -0.358056 0
M  V30 710 H 68.6535 -1.56425 0.267736 0
M  V30 711 H 68.6745 -3.36887 -1.76882 0
M  V30 712 H 68.1865 -3.88096 -0.017401 0
M  V30 713 H 66.2875 -2.93553 -2.29471 0
M  V30 714 H 66.4005 -4.58615 -1.38598 0
M  V30 715 H 64.7645 -2.40834 -0.828912 0
M  V30 716 H 65.5475 -3.39315 0.521561 0
M  V30 717 N 67.9926 0.231505 -1.5589 0
M  V30 718 C 68.9396 1.28682 -1.91598 0
M  V30 719 C 69.9096 1.47071 -0.771974 0
M  V30 720 O 71.0946 1.60802 -1.027 0
M  V30 721 C 68.2346 2.6342 -2.22944 0
M  V30 722 C 67.3476 2.52912 -3.50228 0
M  V30 723 C 66.4826 3.80106 -3.7107 0
M  V30 724 C 65.5216 3.64279 -4.91902 0
M  V30 725 N 64.6586 4.834 -5.09184 0
M  V30 726 H 69.4986 0.975305 -2.81588 0
M  V30 727 H 67.0356 0.470299 -1.39379 0
M  V30 728 H 68.9936 3.41869 -2.39126 0
M  V30 729 H 67.6236 2.92687 -1.36139 0
M  V30 730 H 66.6756 1.6595 -3.42294 0
M  V30 731 H 67.9876 2.37133 -4.38827 0
M  V30 732 H 67.1416 4.66999 -3.87295 0
M  V30 733 H 65.8806 3.98799 -2.80733 0
M  V30 734 H 64.8856 2.7577 -4.75637 0
M  V30 735 H 66.1106 3.47067 -5.83714 0
M  V30 736 H 64.0566 5.02425 -4.21788 0
M  V30 737 H 63.9736 4.70311 -5.91898 0
M  V30 738 H 65.2416 5.71747 -5.29835 0
M  V30 739 N 69.4707 1.49531 0.497807 0
M  V30 740 C 70.7177 1.59179 1.25173 0
M  V30 741 C 71.0457 0.279932 1.92475 0
M  V30 742 O 70.3007 -0.732383 1.81479 0
M  V30 743 C 70.5997 2.70252 2.33878 0
M  V30 744 C 70.2657 4.11644 1.84012 0
M  V30 745 C 68.9277 4.50121 1.70132 0
M  V30 746 C 71.2797 5.00121 1.46725 0
M  V30 747 C 68.6077 5.74845 1.17348 0
M  V30 748 C 70.9597 6.25366 0.95392 0
M  V30 749 C 69.6237 6.6267 0.801538 0
M  V30 750 H 68.8937 0.582478 0.45804 0
M  V30 751 H 71.5407 1.83373 0.551948 0
M  V30 752 H 69.8457 2.40041 3.09657 0
M  V30 753 H 71.5427 2.74925 2.9192 0
M  V30 754 H 68.1327 3.81274 1.95775 0
M  V30 755 H 72.3167 4.71048 1.56294 0
M  V30 756 H 67.5727 6.02444 1.04264 0
M  V30 757 H 71.7467 6.93301 0.656225 0
M  V30 758 H 69.3737 7.59197 0.390351 0
M  V30 759 N 70.9488 -0.749086 1.3866 0
M  V30 760 C 72.1978 -1.50371 1.3443 0
M  V30 761 C 72.5108 -1.95503 -0.0616397 0
M  V30 762 O 73.7168 -2.70554 -0.226489 0
M  V30 763 C 72.1728 -2.71644 2.36088 0
M  V30 764 C 71.7808 -2.3352 3.82325 0
M  V30 765 C 73.5248 -3.49518 2.40909 0
M  V30 766 C 71.4318 -3.51431 4.75658 0
M  V30 767 H 70.3618 -0.564628 0.499712 0
M  V30 768 H 73.0128 -0.818449 1.64237 0
M  V30 769 H 71.3948 -3.42175 1.9933 0
M  V30 770 H 72.5688 -1.70627 4.28046 0
M  V30 771 H 70.8838 -1.6877 3.80665 0
M  V30 772 H 73.4808 -4.37197 3.07836 0
M  V30 773 H 73.8238 -3.90992 1.42937 0
M  V30 774 H 74.3568 -2.86005 2.76489 0
M  V30 775 H 71.0958 -3.15019 5.74842 0
M  V30 776 H 70.6158 -4.13352 4.34627 0
M  V30 777 H 72.2948 -4.17953 4.93887 0
M  V30 778 N 72.4269 -1.23603 -0.977757 0
M  V30 779 C 73.3739 -1.01954 -2.07061 0
M  V30 780 C 74.3439 0.0638697 -1.65977 0
M  V30 781 O 75.5289 -0.0887624 -1.90593 0
M  V30 782 C 72.6689 -0.619658 -3.39491 0
M  V30 783 C 71.7819 -1.77547 -3.93829 0
M  V30 784 C 70.9169 -1.32212 -5.14484 0
M  V30 785 C 69.9559 -2.44852 -5.60994 0
M  V30 786 N 69.0929 -2.00456 -6.72876 0
M  V30 787 H 73.9329 -1.95495 -2.24913 0
M  V30 788 H 71.4699 -0.973861 -1.10247 0
M  V30 789 H 73.4279 -0.368898 -4.15566 0
M  V30 790 H 72.0579 0.278752 -3.21594 0
M  V30 791 H 71.1099 -2.14016 -3.14486 0
M  V30 792 H 72.4219 -2.62219 -4.24314 0
M  V30 793 H 71.5759 -1.02965 -5.97899 0
M  V30 794 H 70.3149 -0.445808 -4.85658 0
M  V30 795 H 69.3199 -2.74871 -4.76157 0
M  V30 796 H 70.5449 -3.33024 -5.91837 0
M  V30 797 H 68.4909 -1.15208 -6.45804 0
M  V30 798 H 68.4079 -2.78687 -7.02759 0
M  V30 799 H 69.6759 -1.7432 -7.59758 0
M  V30 800 N 73.905 1.17692 -1.04816 0
M  V30 801 C 74.815 2.25229 -0.65643 0
M  V30 802 C 75.831 1.71018 0.320761 0
M  V30 803 O 77.007 2.00649 0.173805 0
M  V30 804 C 74.072 3.46684 -0.0332629 0
M  V30 805 C 73.133 4.15997 -1.06042 0
M  V30 806 C 72.366 5.31654 -0.466893 0
M  V30 807 O 72.589 5.65777 0.724758 0
M  V30 808 O 71.523 5.89831 -1.1993 0
M  V30 809 H 75.349 2.61016 -1.55255 0
M  V30 810 H 72.934 1.24919 -0.81949 0
M  V30 811 H 74.816 4.20234 0.313256 0
M  V30 812 H 73.491 3.12703 0.836566 0
M  V30 813 H 72.398 3.44482 -1.45886 0
M  V30 814 H 73.731 4.53996 -1.90127 0
M  V30 815 N 75.3831 0.828654 1.34056 0
M  V30 816 C 76.3131 0.269443 2.3194 0
M  V30 817 C 77.2941 -0.617247 1.58506 0
M  V30 818 O 78.4791 -0.542931 1.86456 0
M  V30 819 C 75.6091 -0.564793 3.42677 0
M  V30 820 C 74.5631 0.225241 4.27407 0
M  V30 821 C 73.8891 -0.7321 5.29664 0
M  V30 822 C 75.1891 1.43663 5.02154 0
M  V30 823 H 76.8831 1.08728 2.7896 0
M  V30 824 H 74.4291 0.524283 1.34117 0
M  V30 825 H 76.3821 -0.966233 4.10173 0
M  V30 826 H 75.1061 -1.41574 2.9432 0
M  V30 827 H 73.7651 0.608117 3.61521 0
M  V30 828 H 73.4131 -1.57916 4.77568 0
M  V30 829 H 73.1131 -0.20767 5.87233 0
M  V30 830 H 74.6371 -1.13128 6.00029 0
M  V30 831 H 76.0511 1.1089 5.62473 0
M  V30 832 H 74.4481 1.89711 5.69324 0
M  V30 833 H 75.5181 2.21181 4.31517 0
M  V30 834 N 76.8612 -1.46375 0.584142 0
M  V30 835 C 78.2772 -1.57694 0.245929 0
M  V30 836 C 78.4772 -1.57903 -1.25175 0
M  V30 837 O 77.5332 -1.49676 -2.03355 0
M  V30 838 C 78.8462 -2.87028 0.896402 0
M  V30 839 C 80.3942 -3.00662 0.870127 0
M  V30 840 C 80.8692 -4.32734 1.50017 0
M  V30 841 N 82.3602 -4.39436 1.46458 0
M  V30 842 C 83.0952 -5.40248 1.92144 0
M  V30 843 N 82.5912 -6.47726 2.4581 0
M  V30 844 N 84.3842 -5.31459 1.83052 0
M  V30 845 H 76.5352 -1.44483 1.55687 0
M  V30 846 H 78.7982 -0.689291 0.650831 0
M  V30 847 H 78.5042 -2.9269 1.95002 0
M  V30 848 H 78.3782 -3.75014 0.405486 0
M  V30 849 H 80.7652 -2.94581 -0.174871 0
M  V30 850 H 80.8462 -2.14148 1.39908 0
M  V30 851 H 80.4902 -4.39573 2.54437 0
M  V30 852 H 80.4202 -5.18025 0.946432 0
M  V30 853 H 82.9112 -3.62367 1.07231 0
M  V30 854 H 83.2242 -7.20863 2.78525 0
M  V30 855 H 81.5692 -6.48542 2.49836 0
M  V30 856 H 84.7602 -4.46396 1.40883 0
M  V30 857 H 84.9332 -6.09881 2.18973 0
M  V30 858 N 78.3393 -0.321999 -1.54275 0
M  V30 859 C 79.5853 0.281461 -2.00837 0
M  V30 860 C 79.9183 1.51909 -1.20985 0
M  V30 861 O 79.1933 1.923 -0.291733 0
M  V30 862 C 79.4763 0.617162 -3.54772 0
M  V30 863 C 79.3293 -0.631064 -4.45351 0
M  V30 864 C 80.6483 1.43542 -4.16033 0
M  V30 865 H 77.7673 0.100826 -0.730071 0
M  V30 866 H 80.4093 -0.438268 -1.84876 0
M  V30 867 H 78.5593 1.23034 -3.68504 0
M  V30 868 H 80.2313 -1.26934 -4.43492 0
M  V30 869 H 78.4743 -1.26025 -4.15091 0
M  V30 870 H 79.1453 -0.351735 -5.50878 0
M  V30 871 H 81.6213 0.917134 -4.05867 0
M  V30 872 H 80.4973 1.63907 -5.23856 0
M  V30 873 H 80.7583 2.43108 -3.69257 0
M  V30 874 N 79.8174 1.5752 -0.0501392 0
M  V30 875 C 81.0664 1.91827 0.623328 0
M  V30 876 C 81.3794 0.930222 1.72065 0
M  V30 877 O 82.5854 1.1653 2.4522 0
M  V30 878 C 81.0414 3.40692 1.16003 0
M  V30 879 C 80.6494 4.479 0.0948811 0
M  V30 880 C 82.3934 3.84034 1.80881 0
M  V30 881 C 80.3004 5.87879 0.644411 0
M  V30 882 H 79.2304 0.715918 0.236596 0
M  V30 883 H 81.8814 1.83115 -0.118861 0
M  V30 884 H 80.2634 3.44405 1.9545 0
M  V30 885 H 81.4374 4.55775 -0.678675 0
M  V30 886 H 79.7524 4.13892 -0.45637 0
M  V30 887 H 82.3494 4.85984 2.22988 0
M  V30 888 H 82.6924 3.20225 2.6601 0
M  V30 889 H 83.2254 3.82833 1.0809 0
M  V30 890 H 79.9644 6.55282 -0.169229 0
M  V30 891 H 79.4844 5.83567 1.38598 0
M  V30 892 H 81.1634 6.37098 1.12763 0
M  V30 893 N 81.2955 -0.223234 1.56011 0
M  V30 894 C 82.2055 -1.29766 1.95443 0
M  V30 895 C 83.2215 -1.51373 0.858028 0
M  V30 896 O 84.3975 -1.64536 1.16146 0
M  V30 897 C 81.4625 -2.62772 2.26167 0
M  V30 898 C 80.5235 -2.49482 3.49367 0
M  V30 899 C 79.7565 -3.76145 3.78616 0
M  V30 900 O 79.9795 -4.79087 3.09568 0
M  V30 901 O 78.9135 -3.73358 4.72109 0
M  V30 902 H 82.7395 -0.99309 2.87004 0
M  V30 903 H 80.3245 -0.425958 1.43199 0
M  V30 904 H 82.2065 -3.41327 2.47131 0
M  V30 905 H 80.8815 -2.92913 1.37781 0
M  V30 906 H 79.7885 -1.69133 3.33684 0
M  V30 907 H 81.1215 -2.2428 4.38131 0
M  V30 908 N 82.7736 -1.49793 -0.48987 0
M  V30 909 C 83.9986 -1.63836 -1.27172 0
M  V30 910 C 84.4236 -0.31402 -1.8546 0
M  V30 911 O 83.7816 0.719803 -1.66399 0
M  V30 912 C 83.8296 -2.71797 -2.36978 0
M  V30 913 O 82.9336 -2.31744 -3.41128 0
M  V30 914 H 82.2746 -0.547997 -0.37496 0
M  V30 915 H 84.8046 -1.96053 -0.585191 0
M  V30 916 H 84.8146 -2.94305 -2.82575 0
M  V30 917 H 83.4896 -3.67923 -1.93921 0
M  V30 918 H 82.0666 -2.1961 -3.01373 0
M  V30 919 N 84.2517 0.741722 -1.39055 0
M  V30 920 C 85.4997 1.49818 -1.35643 0
M  V30 921 C 85.8207 1.94938 0.0491642 0
M  V30 922 O 85.0907 1.68505 0.999141 0
M  V30 923 H 83.6707 0.555755 -0.499144 0
M  V30 924 H 86.3327 0.880957 -1.73854 0
M  V30 925 H 85.4287 2.38348 -2.01486 0
M  V30 926 N 85.7298 1.2412 0.971189 0
M  V30 927 C 87.1408 1.07236 1.52831 0
M  V30 928 C 87.4918 -0.357352 1.92918 0
M  V30 929 O 86.6168 -1.24528 1.76979 0
M  V30 930 C 87.2118 1.94043 2.77728 0
M  V30 931 C 85.7708 1.81394 3.29808 0
M  V30 932 C 84.9178 1.89189 2.02738 0
M  V30 933 H 87.8688 1.37648 0.789864 0
M  V30 934 H 87.8898 1.47066 3.5093 0
M  V30 935 H 87.4018 2.98093 2.4852 0
M  V30 936 H 85.5028 0.801634 3.63874 0
M  V30 937 H 85.6158 2.65294 3.98944 0
M  V30 938 H 83.9798 1.32877 2.17292 0
M  V30 939 H 84.7628 2.94812 1.759 0
M  V30 940 N 87.2079 -1.17134 1.05439 0
M  V30 941 C 88.1579 -2.1919 0.627675 0
M  V30 942 C 89.1419 -1.57328 -0.337147 0
M  V30 943 O 90.3339 -1.76329 -0.153976 0
M  V30 944 C 87.4629 -3.43299 0.00651435 0
M  V30 945 C 86.5489 -4.12255 0.995312 0
M  V30 946 N 86.9399 -4.56997 2.16765 0
M  V30 947 C 85.2379 -4.38316 0.824336 0
M  V30 948 C 85.9389 -5.10239 2.7934 0
M  V30 949 N 84.9149 -5.02595 2.07122 0
M  V30 950 H 88.7169 -2.5149 1.52086 0
M  V30 951 H 86.2309 -1.33491 0.924868 0
M  V30 952 H 88.2279 -4.15693 -0.316965 0
M  V30 953 H 86.8879 -3.1249 -0.882033 0
M  V30 954 H 87.8989 -4.51006 2.54587 0
M  V30 955 H 84.5759 -4.17498 -0.0129526 0
M  V30 956 H 85.9659 -5.54961 3.78772 0
M  V30 957 N 88.686 -0.835752 -1.33615 0
M  V30 958 C 89.926 -0.43599 -1.99696 0
M  V30 959 C 90.29 0.98557 -1.64774 0
M  V30 960 O 91.491 1.48889 -2.23798 0
M  V30 961 C 89.762 -0.646721 -3.515 0
M  V30 962 S 91.321 -0.341715 -4.37467 0
M  V30 963 H 88.139 -0.164136 -0.691795 0
M  V30 964 H 90.741 -1.08436 -1.62671 0
M  V30 965 H 89.445 -1.68077 -3.74404 0
M  V30 966 H 88.976 0.0159173 -3.93397 0
M  V30 967 H 90.991 0.839708 -4.89043 0
M  V30 968 N 90.1641 1.46063 -0.591896 0
M  V30 969 C 91.1271 2.28854 0.125973 0
M  V30 970 C 92.1271 1.38903 0.810107 0
M  V30 971 O 93.3171 1.61186 0.66066 0
M  V30 972 C 90.4491 3.19526 1.1881 0
M  V30 973 H 91.6421 2.93802 -0.601717 0
M  V30 974 H 89.1951 1.52325 -0.350254 0
M  V30 975 H 89.9301 2.59345 1.94707 0
M  V30 976 H 89.7151 3.85766 0.701936 0
M  V30 977 H 91.2051 3.81817 1.69132 0
M  V30 978 N 91.6422 0.330177 1.54103 0
M  V30 979 C 92.5902 -0.548226 2.26047 0
M  V30 980 C 93.5842 -1.11309 1.27698 0
M  V30 981 O 94.7902 -1.06036 1.45452 0
M  V30 982 H 91.1652 -0.195456 0.726155 0
M  V30 983 H 93.1362 0.0807567 2.98291 0
M  V30 984 C 91.8852 -1.69415 3.03634 0
M  V30 985 H 91.2082 -1.26876 3.79134 0
M  V30 986 H 92.6482 -2.28423 3.5721 0
M  V30 987 C 91.1072 -2.61569 2.12328 0
M  V30 988 O 91.6372 -3.63462 1.7105 0
M  V30 989 N 89.8432 -2.29952 1.77681 0
M  V30 990 H 89.3902 -1.47134 2.11446 0
M  V30 991 H 89.3482 -2.91871 1.16869 0
M  V30 992 N 93.1203 -1.57491 0.0584922 0
M  V30 993 C 94.3483 -1.97296 -0.623037 0
M  V30 994 C 94.7633 -0.936338 -1.63946 0
M  V30 995 O 94.1203 0.0785981 -1.82331 0
M  V30 996 C 94.1713 -3.37183 -1.30345 0
M  V30 997 O 93.8923 -4.36872 -0.32773 0
M  V30 998 C 95.3933 -3.91788 -2.07406 0
M  V30 999 H 92.6133 -0.649153 -0.169826 0
M  V30 1000 H 95.1573 -2.04106 0.12696 0
M  V30 1001 H 93.3123 -3.31502 -2.00463 0
M  V30 1002 H 93.7263 -5.18141 -0.814269 0
M  V30 1003 H 95.2003 -4.91926 -2.50425 0
M  V30 1004 H 95.6773 -3.27609 -2.92521 0
M  V30 1005 H 96.2833 -4.00829 -1.42184 0
M  V30 1006 N 94.5984 0.214957 -1.56127 0
M  V30 1007 C 95.5084 1.28727 -1.96129 0
M  V30 1008 C 96.5244 1.50916 -0.866044 0
M  V30 1009 O 97.7004 1.63918 -1.17016 0
M  V30 1010 C 94.7654 2.61569 -2.27558 0
M  V30 1011 C 93.8264 2.47625 -3.50685 0
M  V30 1012 C 93.0594 3.74132 -3.80606 0
M  V30 1013 O 93.2824 4.77438 -3.12104 0
M  V30 1014 O 92.2164 3.70849 -4.74083 0
M  V30 1015 H 96.0424 0.977855 -2.87527 0
M  V30 1016 H 93.6274 0.418358 -1.43423 0
M  V30 1017 H 95.5094 3.40012 -2.48938 0
M  V30 1018 H 94.1844 2.92178 -1.39332 0
M  V30 1019 H 93.0914 1.67361 -3.34576 0
M  V30 1020 H 94.4244 2.21954 -4.39315 0
M  V30 1021 N 96.0765 1.50051 0.48192 0
M  V30 1022 C 97.3255 1.59741 1.23149 0
M  V30 1023 C 97.6385 0.298163 1.93314 0
M  V30 1024 O 98.8445 0.273835 2.70116 0
M  V30 1025 C 97.3005 2.81926 2.23708 0
M  V30 1026 C 96.9085 4.18685 1.59396 0
M  V30 1027 C 98.6525 3.00956 2.99375 0
M  V30 1028 C 96.5595 5.3207 2.58178 0
M  V30 1029 H 95.4895 0.594838 0.46334 0
M  V30 1030 H 98.1405 1.76467 0.503169 0
M  V30 1031 H 96.5225 2.58736 2.99786 0
M  V30 1032 H 97.6965 4.52088 0.891811 0
M  V30 1033 H 96.0115 4.05171 0.960503 0
M  V30 1034 H 98.6085 3.82836 3.73283 0
M  V30 1035 H 98.9515 2.12258 3.58123 0
M  V30 1036 H 99.4845 3.24277 2.30411 0
M  V30 1037 H 96.2235 6.22888 2.04184 0
M  V30 1038 H 95.7435 5.03098 3.26577 0
M  V30 1039 H 97.4225 5.62196 3.20225 0
M  V30 1040 N 97.5546 -0.734337 1.39446 0
M  V30 1041 C 98.8036 -1.48937 1.36017 0
M  V30 1042 C 99.1166 -1.95557 -0.0409005 0
M  V30 1043 O 100.323 -2.70779 -0.19778 0
M  V30 1044 C 98.7786 -2.69125 2.38955 0
M  V30 1045 C 98.3866 -2.29452 3.8478 0
M  V30 1046 C 100.131 -3.46944 2.44603 0
M  V30 1047 C 98.0376 -3.46366 4.79358 0
M  V30 1048 H 96.9676 -0.559296 0.505672 0
M  V30 1049 H 99.6186 -0.800983 1.65095 0
M  V30 1050 H 98.0006 -3.40041 2.02948 0
M  V30 1051 H 99.1746 -1.66077 4.29831 0
M  V30 1052 H 97.4896 -1.64723 3.82433 0
M  V30 1053 H 100.087 -4.33907 3.12456 0
M  V30 1054 H 100.43 -3.89454 1.47076 0
M  V30 1055 H 100.963 -2.83056 2.79507 0
M  V30 1056 H 97.7016 -3.08905 5.78151 0
M  V30 1057 H 97.2216 -4.08719 4.38986 0
M  V30 1058 H 98.9006 -4.12691 4.98292 0
M  V30 1059 N 99.0327 -1.24633 -0.964593 0
M  V30 1060 C 100.279 -1.08949 -1.71049 0
M  V30 1061 C 100.612 0.370302 -1.90637 0
M  V30 1062 O 99.8867 1.27349 -1.47011 0
M  V30 1063 C 100.17 -1.83329 -3.0994 0
M  V30 1064 C 100.023 -3.37077 -2.97824 0
M  V30 1065 C 101.342 -1.60846 -4.09654 0
M  V30 1066 H 98.4607 -0.397178 -0.620821 0
M  V30 1067 H 101.103 -1.5334 -1.12191 0
M  V30 1068 H 99.2527 -1.45597 -3.60186 0
M  V30 1069 H 100.925 -3.84425 -2.5498 0
M  V30 1070 H 99.1677 -3.65298 -2.33965 0
M  V30 1071 H 99.8387 -3.84324 -3.96231 0
M  V30 1072 H 102.315 -1.93674 -3.68279 0
M  V30 1073 H 101.191 -2.1534 -5.04896 0
M  V30 1074 H 101.452 -0.547434 -4.38698 0
M  V30 1075 N 100.511 1.16574 -1.06058 0
M  V30 1076 C 101.458 2.20883 -0.669263 0
M  V30 1077 C 102.428 1.62729 0.332918 0
M  V30 1078 O 103.613 1.895 0.222346 0
M  V30 1079 C 100.753 3.45049 -0.0593572 0
M  V30 1080 C 99.8658 4.17458 -1.11143 0
M  V30 1081 C 99.0008 5.29135 -0.467916 0
M  V30 1082 C 98.0398 5.93343 -1.50369 0
M  V30 1083 N 97.1768 6.96516 -0.883706 0
M  V30 1084 H 102.017 2.53709 -1.5632 0
M  V30 1085 H 99.5538 1.24616 -0.781625 0
M  V30 1086 H 101.512 4.16033 0.311771 0
M  V30 1087 H 100.142 3.12781 0.797992 0
M  V30 1088 H 99.1938 3.45101 -1.60029 0
M  V30 1089 H 100.506 4.61307 -1.89731 0
M  V30 1090 H 99.6598 6.06684 -0.0436871 0
M  V30 1091 H 98.3988 4.86443 0.349864 0
M  V30 1092 H 97.4038 5.14517 -1.93784 0
M  V30 1093 H 98.6288 6.38114 -2.32352 0
M  V30 1094 H 96.5748 6.55943 -0.086595 0
M  V30 1095 H 96.4918 7.38723 -1.607 0
M  V30 1096 H 97.7598 7.77993 -0.484543 0
M  V30 1097 N 101.989 0.842826 1.3317 0
M  V30 1098 C 102.919 0.294028 2.31641 0
M  V30 1099 C 103.9 -0.600401 1.59151 0
M  V30 1100 O 105.085 -0.523124 1.87022 0
M  V30 1101 C 102.215 -0.528416 3.43257 0
M  V30 1102 C 101.169 0.27056 4.27144 0
M  V30 1103 C 100.495 -0.675881 5.30411 0
M  V30 1104 C 101.795 1.48981 5.00602 0
M  V30 1105 H 103.489 1.11681 2.77791 0
M  V30 1106 H 101.035 0.538478 1.33553 0
M  V30 1107 H 102.988 -0.922674 4.11175 0
M  V30 1108 H 101.712 -1.38445 2.95805 0
M  V30 1109 H 100.371 0.646427 3.60856 0
M  V30 1110 H 100.019 -1.52842 4.79216 0
M  V30 1111 H 99.7189 -0.145374 5.8742 0
M  V30 1112 H 101.243 -1.06757 6.01195 0
M  V30 1113 H 102.657 1.16849 5.61266 0
M  V30 1114 H 101.054 1.95739 5.6728 0
M  V30 1115 H 102.124 2.25746 4.29147 0
M  V30 1116 N 103.467 -1.45747 0.599634 0
M  V30 1117 C 104.692 -2.07178 0.0960198 0
M  V30 1118 C 105.117 -1.44268 -1.207 0
M  V30 1119 O 104.475 -0.532503 -1.73303 0
M  V30 1120 C 104.523 -3.60579 -0.0385348 0
M  V30 1121 O 103.627 -3.97713 -1.0908 0
M  V30 1122 H 102.968 -0.660251 0.0704593 0
M  V30 1123 H 105.498 -1.87124 0.827385 0
M  V30 1124 H 105.508 -4.07298 -0.239304 0
M  V30 1125 H 104.183 -4.05756 0.912947 0
M  V30 1126 H 102.76 -3.62678 -0.867135 0
M  V30 1127 N 104.945 -0.338344 -1.53925 0
M  V30 1128 C 106.222 0.314774 -1.93051 0
M  V30 1129 C 106.602 1.68669 -1.26941 0
M  V30 1130 O 105.95 2.24636 -0.418445 0
M  V30 1131 C 106.16 0.392249 -3.46789 0
M  V30 1132 C 107.508 0.645554 -4.19664 0
M  V30 1133 O 108.532 0.474575 -3.53024 0
M  V30 1134 O 107.391 0.976408 -5.37707 0
M  V30 1135 H 104.485 0.182598 -0.80659 0
M  V30 1136 H 107.031 -0.389141 -1.65178 0
M  V30 1137 H 105.803 -0.570702 -3.87116 0
M  V30 1138 H 105.426 1.14316 -3.80812 0
M  V30 1139 N 106.423 1.57458 -0.0668435 0
M  V30 1140 C 107.671 1.92919 0.602214 0
M  V30 1141 C 107.992 0.947215 1.70449 0
M  V30 1142 O 107.262 -0.00544117 1.95899 0
M  V30 1143 H 105.842 0.71217 0.22544 0
M  V30 1144 H 108.504 1.94508 -0.123535 0
M  V30 1145 H 107.6 2.94589 1.03073 0
M  V30 1146 N 107.901 -0.206675 1.56239 0
M  V30 1147 C 109.317 -0.557025 1.49564 0
M  V30 1148 C 109.517 -1.86424 0.764735 0
M  V30 1149 O 108.573 -2.50584 0.310491 0
M  V30 1150 C 109.886 -0.622478 2.94186 0
M  V30 1151 C 111.434 -0.712099 3.04792 0
M  V30 1152 C 111.909 -0.808767 4.50803 0
M  V30 1153 N 113.4 -0.8726 4.54907 0
M  V30 1154 C 114.135 -0.967365 5.65181 0
M  V30 1155 N 113.631 -1.02515 6.85173 0
M  V30 1156 N 115.424 -1.00366 5.53067 0
M  V30 1157 H 107.575 0.650943 2.02179 0
M  V30 1158 H 109.838 0.230387 0.919579 0
M  V30 1159 H 109.544 0.268727 3.50672 0
M  V30 1160 H 109.418 -1.4811 3.46905 0
M  V30 1161 H 111.805 -1.59374 2.48363 0
M  V30 1162 H 111.886 0.172489 2.55218 0
M  V30 1163 H 111.53 0.0684754 5.07854 0
M  V30 1164 H 111.46 -1.70899 4.98098 0
M  V30 1165 H 113.951 -0.837657 3.68499 0
M  V30 1166 H 114.264 -1.09765 7.64965 0
M  V30 1167 H 112.609 -0.994026 6.87855 0
M  V30 1168 H 115.8 -0.95527 4.58249 0
M  V30 1169 H 115.973 -1.07405 6.39037 0
M  V30 1170 N 109.379 -1.50304 -0.473955 0
M  V30 1171 C 110.289 -1.7174 -1.5982 0
M  V30 1172 C 111.305 -0.600457 -1.63311 0
M  V30 1173 O 112.481 -0.878441 -1.81233 0
M  V30 1174 C 109.546 -1.80427 -2.96052 0
M  V30 1175 C 108.607 -3.04148 -3.02972 0
M  V30 1176 C 107.84 -3.12411 -4.32706 0
M  V30 1177 O 108.063 -2.27542 -5.23049 0
M  V30 1178 O 106.997 -4.05113 -4.45159 0
M  V30 1179 H 110.823 -2.67035 -1.44657 0
M  V30 1180 H 108.408 -1.34366 -0.653148 0
M  V30 1181 H 110.29 -1.88338 -3.7697 0
M  V30 1182 H 108.965 -0.883156 -3.11419 0
M  V30 1183 H 107.872 -3.0174 -2.21142 0
M  V30 1184 H 109.205 -3.95829 -2.92541 0
M  V30 1185 N 110.857 0.726932 -1.39834 0
M  V30 1186 C 111.787 1.85405 -1.41941 0
M  V30 1187 C 112.768 1.67751 -0.281728 0
M  V30 1188 O 113.953 1.8795 -0.488717 0
M  V30 1189 C 111.083 3.23243 -1.2701 0
M  V30 1190 C 110.037 3.55549 -2.38262 0
M  V30 1191 C 109.363 4.9241 -2.08415 0
M  V30 1192 C 110.663 3.577 -3.80589 0
M  V30 1193 H 112.357 1.83899 -2.36266 0
M  V30 1194 H 109.903 0.883349 -1.13723 0
M  V30 1195 H 111.856 4.01775 -1.27103 0
M  V30 1196 H 110.58 3.25296 -0.291564 0
M  V30 1197 H 109.239 2.79351 -2.37399 0
M  V30 1198 H 108.887 4.91052 -1.0898 0
M  V30 1199 H 108.587 5.14992 -2.82943 0
M  V30 1200 H 110.111 5.73289 -2.10171 0
M  V30 1201 H 111.525 4.26293 -3.83337 0
M  V30 1202 H 109.922 3.91804 -4.54543 0
M  V30 1203 H 110.992 2.57328 -4.10987 0
M  V30 1204 N 112.336 1.25143 0.95797 0
M  V30 1205 C 113.576 1.10893 1.71703 0
M  V30 1206 C 113.94 -0.34478 1.88879 0
M  V30 1207 O 115.141 -0.609014 2.6181 0
M  V30 1208 C 113.412 1.83889 3.06463 0
M  V30 1209 S 114.971 1.85491 3.97666 0
M  V30 1210 H 111.789 0.396428 0.590226 0
M  V30 1211 H 114.391 1.58618 1.14283 0
M  V30 1212 H 113.095 2.88756 2.9163 0
M  V30 1213 H 112.626 1.36538 3.68946 0
M  V30 1214 H 114.641 0.929553 4.87415 0
M  V30 1215 N 113.814 -1.1601 1.06675 0
M  V30 1216 C 114.744 -2.22688 0.702307 0
M  V30 1217 C 115.725 -1.67306 -0.307032 0
M  V30 1218 O 116.91 -1.93352 -0.181305 0
M  V30 1219 C 114.04 -3.47178 0.092038 0
M  V30 1220 C 112.994 -4.15477 1.02777 0
M  V30 1221 C 112.32 -5.33963 0.28061 0
M  V30 1222 C 113.62 -4.66019 2.35846 0
M  V30 1223 H 115.314 -2.53429 1.59419 0
M  V30 1224 H 112.86 -1.21813 0.767961 0
M  V30 1225 H 114.813 -4.21037 -0.174814 0
M  V30 1226 H 113.537 -3.15749 -0.834877 0
M  V30 1227 H 112.196 -3.43549 1.27944 0
M  V30 1228 H 111.844 -4.98788 -0.649545 0
M  V30 1229 H 111.544 -5.806 0.904258 0
M  V30 1230 H 113.068 -6.10596 0.021396 0
M  V30 1231 H 114.482 -5.3144 2.15045 0
M  V30 1232 H 112.879 -5.23293 2.93743 0
M  V30 1233 H 113.949 -3.82023 2.98641 0
M  V30 1234 N 115.292 -0.849877 -1.32721 0
M  V30 1235 C 116.569 -0.372405 -1.92022 0
M  V30 1236 C 116.949 1.1435 -1.77447 0
M  V30 1237 O 116.297 1.96296 -1.16962 0
M  V30 1238 C 116.507 -0.831482 -3.3895 0
M  V30 1239 C 117.855 -0.845882 -4.16089 0
M  V30 1240 O 118.879 -0.775806 -3.47649 0
M  V30 1241 O 117.738 -0.943753 -5.38289 0
M  V30 1242 H 114.832 -0.107667 -0.819961 0
M  V30 1243 H 117.378 -0.93646 -1.41522 0
M  V30 1244 H 116.15 -1.87448 -3.4348 0
M  V30 1245 H 115.773 -0.24461 -3.96847 0
M  V30 1246 N 116.77 1.45427 -0.607355 0
M  V30 1247 C 118.181 1.85756 -0.187535 0
M  V30 1248 C 118.532 1.5077 1.25551 0
M  V30 1249 O 117.657 0.93427 1.95193 0
M  V30 1250 C 118.252 3.37154 -0.333572 0
M  V30 1251 C 116.811 3.76387 0.0315542 0
M  V30 1252 C 115.958 2.69377 -0.658117 0
M  V30 1253 H 118.909 1.36231 -0.81405 0
M  V30 1254 H 118.93 3.78014 0.43428 0
M  V30 1255 H 118.442 3.62586 -1.38393 0
M  V30 1256 H 116.543 3.56571 1.0811 0
M  V30 1257 H 116.656 4.77731 -0.361935 0
M  V30 1258 H 115.02 2.5452 -0.0957873 0
M  V30 1259 H 115.803 2.97646 -1.7106 0
M  V30 1260 N 118.248 0.346503 1.53744 0
M  V30 1261 C 119.195 -0.508914 2.25119 0
M  V30 1262 C 120.165 -1.09315 1.25058 0
M  V30 1263 O 121.35 -1.12921 1.53797 0
M  V30 1264 C 118.49 -1.65246 3.02965 0
M  V30 1265 C 117.603 -1.09525 4.17886 0
M  V30 1266 C 116.738 -2.20634 4.83212 0
M  V30 1267 C 115.777 -1.62279 5.90196 0
M  V30 1268 N 114.914 -2.67143 6.49291 0
M  V30 1269 H 119.754 0.106283 2.9781 0
M  V30 1270 H 117.291 0.0642227 1.4696 0
M  V30 1271 H 119.249 -2.32574 3.4636 0
M  V30 1272 H 117.879 -2.2386 2.32565 0
M  V30 1273 H 116.931 -0.312818 3.79112 0
M  V30 1274 H 118.243 -0.628444 4.94825 0
M  V30 1275 H 117.397 -2.95821 5.29693 0
M  V30 1276 H 116.136 -2.70659 4.05703 0
M  V30 1277 H 115.141 -0.855989 5.43096 0
M  V30 1278 H 116.366 -1.13102 6.69615 0
M  V30 1279 H 114.312 -3.16417 5.74645 0
M  V30 1280 H 114.229 -2.25093 7.21713 0
M  V30 1281 H 115.497 -3.4209 7.00425 0
M  V30 1282 N 119.726 -1.57421 0.075193 0
M  V30 1283 C 120.636 -2.1642 -0.905511 0
M  V30 1284 C 121.652 -1.12828 -1.32461 0
M  V30 1285 O 122.828 -1.45109 -1.39661 0
M  V30 1286 C 119.893 -2.71693 -2.15369 0
M  V30 1287 C 118.954 -3.90171 -1.79068 0
M  V30 1288 C 118.187 -4.42798 -2.97936 0
M  V30 1289 O 118.41 -3.94416 -4.12058 0
M  V30 1290 O 117.344 -5.34085 -2.77555 0
M  V30 1291 H 121.17 -3.00588 -0.433626 0
M  V30 1292 H 118.755 -1.48664 -0.148067 0
M  V30 1293 H 120.637 -3.07104 -2.88557 0
M  V30 1294 H 119.312 -1.90582 -2.61649 0
M  V30 1295 H 118.219 -3.59606 -1.03122 0
M  V30 1296 H 119.552 -4.72584 -1.37569 0
M  V30 1297 N 121.204 0.198386 -1.56346 0
M  V30 1298 C 122.152 1.26538 -1.95169 0
M  V30 1299 C 123.146 1.47295 -0.836685 0
M  V30 1300 O 124.352 1.48195 -1.02167 0
M  V30 1301 H 120.727 0.424744 -0.620561 0
M  V30 1302 H 122.698 0.910904 -2.84157 0
M  V30 1303 C 121.447 2.6035 -2.30463 0
M  V30 1304 H 120.77 2.45192 -3.15786 0
M  V30 1305 H 122.21 3.33762 -2.61494 0
M  V30 1306 C 120.669 3.17096 -1.13806 0
M  V30 1307 O 121.199 3.99588 -0.41135 0
M  V30 1308 N 119.405 2.75795 -0.915736 0
M  V30 1309 H 118.952 2.08816 -1.50843 0
M  V30 1310 H 118.91 3.14101 -0.136979 0
M  V30 1311 N 122.682 1.50554 0.465978 0
M  V30 1312 C 123.928 1.63006 1.21658 0
M  V30 1313 C 124.283 0.328613 1.89573 0
M  V30 1314 O 123.576 -0.673813 1.79361 0
M  V30 1315 C 123.77 2.75152 2.28093 0
M  V30 1316 C 123.599 4.16075 1.7062 0
M  V30 1317 C 122.369 4.82408 1.50368 0
M  V30 1318 C 124.567 5.00145 1.1983 0
M  V30 1319 N 122.549 6.07532 0.881924 0
M  V30 1320 C 123.92 6.16035 0.700083 0
M  V30 1321 C 125.975 4.85882 1.08733 0
M  V30 1322 C 124.678 7.19228 0.101835 0
M  V30 1323 C 126.704 5.89257 0.503016 0
M  V30 1324 C 126.066 7.04398 0.0152005 0
M  V30 1325 H 122.165 0.650596 0.433877 0
M  V30 1326 H 124.749 1.8769 0.517746 0
M  V30 1327 H 122.92 2.52181 2.95397 0
M  V30 1328 H 124.652 2.76935 2.95109 0
M  V30 1329 H 121.407 4.39788 1.75737 0
M  V30 1330 H 121.831 6.7443 0.589312 0
M  V30 1331 H 126.473 3.97144 1.4504 0
M  V30 1332 H 124.191 8.07637 -0.273426 0
M  V30 1333 H 127.777 5.80286 0.419451 0
M  V30 1334 H 126.657 7.83021 -0.429856 0
M  V30 1335 N 124.16 -0.719506 1.40217 0
M  V30 1336 C 125.406 -1.48152 1.38488 0
M  V30 1337 C 125.739 -1.94195 -0.0141867 0
M  V30 1338 O 125.014 -1.67884 -0.982096 0
M  V30 1339 C 125.297 -2.71035 2.37091 0
M  V30 1340 C 125.15 -2.30912 3.86005 0
M  V30 1341 C 126.469 -3.73182 2.33288 0
M  V30 1342 H 123.588 -0.537395 0.504357 0
M  V30 1343 H 126.23 -0.821472 1.71324 0
M  V30 1344 H 124.38 -3.27352 2.0922 0
M  V30 1345 H 126.052 -1.80107 4.24687 0
M  V30 1346 H 124.295 -1.62958 4.02029 0
M  V30 1347 H 124.966 -3.18978 4.50508 0
M  V30 1348 H 127.442 -3.26485 2.57966 0
M  V30 1349 H 126.318 -4.56806 3.04334 0
M  V30 1350 H 126.579 -4.21202 1.34317 0
M  V30 1351 N 125.638 -1.25649 -0.95132 0
M  V30 1352 C 126.57 -1.02112 -2.05197 0
M  V30 1353 C 127.583 0.0150571 -1.62793 0
M  V30 1354 O 128.772 -0.223874 -1.77091 0
M  V30 1355 C 125.872 -0.522361 -3.3485 0
M  V30 1356 C 125.045 -1.62546 -4.06076 0
M  V30 1357 C 124.104 -1.12649 -5.14001 0
M  V30 1358 O 123.13 -1.82156 -5.39266 0
M  V30 1359 N 124.332 0.03047 -5.80492 0
M  V30 1360 H 127.097 -1.96885 -2.25957 0
M  V30 1361 H 124.658 -1.16899 -1.1201 0
M  V30 1362 H 126.65 -0.172961 -4.0433 0
M  V30 1363 H 125.22 0.33151 -3.10837 0
M  V30 1364 H 124.44 -2.14628 -3.30649 0
M  V30 1365 H 125.728 -2.36644 -4.50419 0
M  V30 1366 H 125.126 0.611169 -5.62389 0
M  V30 1367 H 123.683 0.320875 -6.5101 0
M  V30 1368 N 127.117 1.15442 -1.07289 0
M  V30 1369 C 128.533 1.38201 -0.798288 0
M  V30 1370 C 128.733 1.92429 0.597769 0
M  V30 1371 O 127.789 2.12962 1.3566 0
M  V30 1372 C 129.102 2.35357 -1.87156 0
M  V30 1373 C 130.65 2.49021 -1.89624 0
M  V30 1374 C 131.125 3.49468 -2.96034 0
M  V30 1375 N 132.616 3.57003 -2.95132 0
M  V30 1376 C 133.351 4.34543 -3.74112 0
M  V30 1377 N 132.847 5.15421 -4.6294 0
M  V30 1378 N 134.64 4.29625 -3.62462 0
M  V30 1379 H 126.791 0.78584 -1.97328 0
M  V30 1380 H 129.054 0.408065 -0.855679 0
M  V30 1381 H 128.76 2.02626 -2.87464 0
M  V30 1382 H 128.634 3.35129 -1.73114 0
M  V30 1383 H 131.021 2.81051 -0.899687 0
M  V30 1384 H 131.102 1.4925 -2.07745 0
M  V30 1385 H 130.746 3.18173 -3.95889 0
M  V30 1386 H 130.676 4.48992 -2.75161 0
M  V30 1387 H 133.167 2.99276 -2.30743 0
M  V30 1388 H 133.48 5.7183 -5.19837 0
M  V30 1389 H 131.825 5.14729 -4.66989 0
M  V30 1390 H 135.016 3.65505 -2.92444 0
M  V30 1391 H 135.189 4.89807 -4.24256 0
M  V30 1392 N 128.595 0.856903 1.32268 0
M  V30 1393 C 129.841 0.462069 1.97466 0
M  V30 1394 C 130.174 -0.980298 1.67642 0
M  V30 1395 O 129.449 -1.68824 0.965858 0
M  V30 1396 C 129.732 0.704336 3.53145 0
M  V30 1397 C 129.585 2.19529 3.9259 0
M  V30 1398 C 130.904 0.1622 4.39801 0
M  V30 1399 H 128.023 0.169357 0.717278 0
M  V30 1400 H 130.665 1.07574 1.56614 0
M  V30 1401 H 128.815 0.181999 3.88073 0
M  V30 1402 H 130.487 2.78387 3.67829 0
M  V30 1403 H 128.73 2.67292 3.41668 0
M  V30 1404 H 129.401 2.31549 5.01088 0
M  V30 1405 H 131.877 0.608905 4.11621 0
M  V30 1406 H 130.753 0.361265 5.4771 0
M  V30 1407 H 131.014 -0.935158 4.32096 0
M  V30 1408 N 130.073 -1.45103 0.615059 0
M  V30 1409 C 131.319 -2.02483 0.113347 0
M  V30 1410 C 131.652 -1.48146 -1.25564 0
M  V30 1411 O 130.927 -0.659104 -1.82992 0
M  V30 1412 C 131.21 -3.60005 0.0825278 0
M  V30 1413 C 131.063 -4.2466 1.48271 0
M  V30 1414 C 132.382 -4.35972 -0.601401 0
M  V30 1415 H 129.501 -0.735764 0.0426632 0
M  V30 1416 H 132.143 -1.72868 0.788461 0
M  V30 1417 H 130.293 -3.85367 -0.492378 0
M  V30 1418 H 131.965 -4.10458 2.10527 0
M  V30 1419 H 130.208 -3.82772 2.04127 0
M  V30 1420 H 130.879 -5.336 1.41332 0
M  V30 1421 H 133.355 -4.15947 -0.112666 0
M  V30 1422 H 132.231 -5.45697 -0.592097 0
M  V30 1423 H 132.492 -4.09391 -1.66887 0
M  V30 1424 N 131.551 -0.354651 -1.53558 0
M  V30 1425 C 132.461 0.50515 -2.29097 0
M  V30 1426 C 133.477 1.10223 -1.34636 0
M  V30 1427 O 134.653 1.11553 -1.67684 0
M  V30 1428 C 131.718 1.63479 -3.05738 0
M  V30 1429 C 130.779 1.06636 -4.15845 0
M  V30 1430 C 130.012 2.14217 -4.88822 0
M  V30 1431 O 130.235 3.35137 -4.61562 0
M  V30 1432 O 129.169 1.77887 -5.75013 0
M  V30 1433 H 132.995 -0.109237 -3.03503 0
M  V30 1434 H 130.58 -0.119357 -1.48922 0
M  V30 1435 H 132.462 2.2918 -3.5363 0
M  V30 1436 H 131.137 2.23478 -2.34178 0
M  V30 1437 H 130.044 0.373565 -3.7223 0
M  V30 1438 H 131.377 0.511081 -4.89539 0
M  V30 1439 N 133.029 1.57378 -0.0835403 0
M  V30 1440 C 133.976 2.13384 0.879539 0
M  V30 1441 C 134.946 1.04936 1.28754 0
M  V30 1442 O 136.131 1.32662 1.37133 0
M  V30 1443 C 133.271 2.70932 2.13752 0
M  V30 1444 C 132.384 3.93575 1.7811 0
M  V30 1445 C 131.519 4.39326 2.98607 0
M  V30 1446 C 130.558 5.54587 2.59037 0
M  V30 1447 N 129.695 5.95243 3.72331 0
M  V30 1448 H 134.535 2.9537 0.395076 0
M  V30 1449 H 132.072 1.45953 0.183349 0
M  V30 1450 H 134.03 3.02411 2.87408 0
M  V30 1451 H 132.66 1.91693 2.59718 0
M  V30 1452 H 131.712 3.68483 0.94469 0
M  V30 1453 H 133.024 4.77258 1.45005 0
M  V30 1454 H 132.178 4.72528 3.80529 0
M  V30 1455 H 130.917 3.5452 3.34913 0
M  V30 1456 H 129.922 5.21024 1.75539 0
M  V30 1457 H 131.147 6.41133 2.23887 0
M  V30 1458 H 129.093 5.13385 4.08378 0
M  V30 1459 H 129.01 6.73694 3.43034 0
M  V30 1460 H 130.278 6.33072 4.54797 0
M  V30 1461 N 134.507 -0.190092 1.56449 0
M  V30 1462 C 135.754 -0.909705 1.80916 0
M  V30 1463 C 136.082 -1.83047 0.657583 0
M  V30 1464 O 135.337 -1.92428 -0.356356 0
M  V30 1465 C 135.636 -1.75382 3.1141 0
M  V30 1466 C 135.302 -0.983606 4.40041 0
M  V30 1467 C 133.964 -0.770967 4.74984 0
M  V30 1468 C 136.316 -0.442024 5.19322 0
M  V30 1469 C 133.644 -0.0053448 5.867 0
M  V30 1470 C 135.996 0.310412 6.31838 0
M  V30 1471 C 134.66 0.534023 6.6536 0
M  V30 1472 H 133.93 -0.332885 0.662019 0
M  V30 1473 H 136.577 -0.175762 1.90692 0
M  V30 1474 H 134.882 -2.55659 2.96893 0
M  V30 1475 H 136.579 -2.31331 3.27547 0
M  V30 1476 H 133.169 -1.15936 4.12622 0
M  V30 1477 H 137.353 -0.593693 4.92736 0
M  V30 1478 H 132.609 0.177825 6.11141 0
M  V30 1479 H 136.783 0.737419 6.92485 0
M  V30 1480 H 134.41 1.12918 7.51767 0
M  V30 1481 N 135.985 -1.50799 -0.457987 0
M  V30 1482 C 136.915 -1.73553 -1.5621 0
M  V30 1483 C 137.896 -0.584774 -1.59732 0
M  V30 1484 O 139.081 -0.825314 -1.7579 0
M  V30 1485 C 136.211 -1.84169 -2.94447 0
M  V30 1486 C 135.165 -2.99461 -3.0579 0
M  V30 1487 C 134.491 -2.95235 -4.45803 0
M  V30 1488 C 135.791 -4.39766 -2.81786 0
M  V30 1489 H 137.485 -2.66 -1.37421 0
M  V30 1490 H 135.031 -1.28002 -0.659662 0
M  V30 1491 H 136.984 -1.98672 -3.71628 0
M  V30 1492 H 135.708 -0.883545 -3.14422 0
M  V30 1493 H 134.367 -2.8463 -2.31044 0
M  V30 1494 H 134.015 -1.97239 -4.62715 0
M  V30 1495 H 133.715 -3.72642 -4.54326 0
M  V30 1496 H 135.239 -3.11803 -5.24987 0
M  V30 1497 H 136.653 -4.55054 -3.4871 0
M  V30 1498 H 135.05 -5.18722 -3.0174 0
M  V30 1499 H 136.12 -4.51229 -1.7754 0
M  V30 1500 N 137.463 0.71206 -1.40597 0
M  V30 1501 C 138.41 1.82613 -1.41142 0
M  V30 1502 C 139.38 1.63925 -0.267903 0
M  V30 1503 O 140.565 1.85009 -0.466495 0
M  V30 1504 C 137.705 3.20354 -1.28324 0
M  V30 1505 C 136.818 3.50589 -2.52411 0
M  V30 1506 C 135.953 4.77855 -2.32009 0
M  V30 1507 C 134.992 5.01005 -3.51654 0
M  V30 1508 N 134.129 6.19487 -3.30425 0
M  V30 1509 H 138.969 1.81482 -2.36365 0
M  V30 1510 H 136.506 0.886475 -1.17388 0
M  V30 1511 H 138.464 3.99899 -1.18899 0
M  V30 1512 H 137.094 3.20705 -0.367189 0
M  V30 1513 H 136.146 2.65573 -2.72351 0
M  V30 1514 H 137.458 3.63604 -3.41458 0
M  V30 1515 H 136.612 5.65424 -2.19956 0
M  V30 1516 H 135.351 4.67056 -1.40392 0
M  V30 1517 H 134.356 4.1189 -3.64179 0
M  V30 1518 H 135.581 5.13674 -4.44202 0
M  V30 1519 H 133.527 6.09932 -2.41494 0
M  V30 1520 H 133.444 6.33194 -4.13039 0
M  V30 1521 H 134.712 7.09834 -3.22113 0
M  V30 1522 N 138.941 1.26152 0.944643 0
M  V30 1523 C 140.357 1.03189 1.21754 0
M  V30 1524 C 140.557 -0.245112 2.00004 0
M  V30 1525 O 139.613 -0.955176 2.33736 0
M  V30 1526 C 140.926 2.26119 1.98219 0
M  V30 1527 C 142.474 2.30984 2.11224 0
M  V30 1528 C 142.949 3.53597 2.91089 0
M  V30 1529 N 144.44 3.54053 2.98664 0
M  V30 1530 C 145.175 4.45593 3.60881 0
M  V30 1531 N 144.671 5.47416 4.24626 0
M  V30 1532 N 146.464 4.33252 3.58119 0
M  V30 1533 H 138.615 2.08177 0.421437 0
M  V30 1534 H 140.878 0.914723 0.248969 0
M  V30 1535 H 140.584 3.18984 1.48128 0
M  V30 1536 H 140.458 2.3009 2.98895 0
M  V30 1537 H 142.845 1.38635 2.60508 0
M  V30 1538 H 142.926 2.31026 1.09821 0
M  V30 1539 H 142.57 4.46273 2.42493 0
M  V30 1540 H 142.5 3.50802 3.92741 0
M  V30 1541 H 144.991 2.80403 2.53343 0
M  V30 1542 H 145.304 6.13459 4.69987 0
M  V30 1543 H 143.649 5.51278 4.23223 0
M  V30 1544 H 146.84 3.52924 3.0751 0
M  V30 1545 H 147.013 5.04786 4.06319 0
M  V30 1546 N 140.419 -1.14872 1.07899 0
M  V30 1547 C 141.382 -2.17986 0.708161 0
M  V30 1548 C 142.382 -1.58775 -0.25442 0
M  V30 1549 O 143.572 -1.74166 -0.034645 0
M  V30 1550 C 140.704 -3.40871 0.0446929 0
M  V30 1551 H 141.897 -2.52306 1.62116 0
M  V30 1552 H 139.45 -1.2943 0.876218 0
M  V30 1553 H 140.185 -3.12124 -0.880281 0
M  V30 1554 H 139.97 -3.8511 0.737091 0
M  V30 1555 H 141.46 -4.17121 -0.19991 0
M  V30 1556 N 141.898 -0.863906 -1.31812 0
M  V30 1557 C 142.808 -0.318461 -2.32428 0
M  V30 1558 C 143.824 0.568496 -1.64451 0
M  V30 1559 O 145 0.46666 -1.95919 0
M  V30 1560 C 142.065 0.476355 -3.43412 0
M  V30 1561 C 141.126 -0.43784 -4.27061 0
M  V30 1562 C 140.359 0.319138 -5.32745 0
M  V30 1563 O 140.582 1.54799 -5.48993 0
M  V30 1564 O 139.516 -0.319861 -6.01049 0
M  V30 1565 H 143.342 -1.15229 -2.80991 0
M  V30 1566 H 140.927 -0.627103 -1.35602 0
M  V30 1567 H 142.809 0.927156 -4.11074 0
M  V30 1568 H 141.484 1.28683 -2.97022 0
M  V30 1569 H 140.391 -0.937013 -3.62175 0
M  V30 1570 H 141.724 -1.21375 -4.77 0
M  V30 1571 N 143.376 1.44774 -0.622745 0
M  V30 1572 C 144.324 2.32387 0.0994683 0
M  V30 1573 C 145.318 1.46859 0.844326 0
M  V30 1574 O 146.524 1.63254 0.758174 0
M  V30 1575 H 142.899 0.750273 0.0509291 0
M  V30 1576 H 144.87 2.91062 -0.65767 0
M  V30 1577 C 143.619 3.30723 1.07319 0
M  V30 1578 H 142.942 3.96541 0.509462 0
M  V30 1579 H 144.382 3.94725 1.54817 0
M  V30 1580 C 142.841 2.59021 2.15429 0
M  V30 1581 O 143.371 2.38286 3.23393 0
M  V30 1582 N 141.577 2.189 1.91131 0
M  V30 1583 H 141.124 2.35964 1.03337 0
M  V30 1584 H 141.082 1.71251 2.63668 0
M  V30 1585 N 144.854 0.36279 1.53368 0
M  V30 1586 C 146.079 -0.231226 2.06107 0
M  V30 1587 C 146.504 -1.419 1.23474 0
M  V30 1588 O 145.862 -1.79524 0.253128 0
M  V30 1589 C 145.91 -0.605523 3.5548 0
M  V30 1590 O 145.014 -1.70312 3.7559 0
M  V30 1591 H 144.355 -0.034327 0.663112 0
M  V30 1592 H 146.885 0.522584 1.97814 0
M  V30 1593 H 146.895 -0.877314 3.98456 0
M  V30 1594 H 145.57 0.263004 4.15068 0
M  V30 1595 H 144.147 -1.4271 3.44512 0
M  V30 1596 O 146.371 -1.59827 0.231878 0
M  V30 1597 H 147.062 -1.90573 -0.346636 0
M  V30 END ATOM
M  V30 BEGIN BOND
M  V30 END BOND
M  V30 END CTAB
M  END
$$$$
