drugbank_target|P10186 Uracil-DNA glycosylase (DB03419)
 OpenBabel12092120023D

  0  0  0     0  0            999 V3000
M  V30 BEGIN CTAB
M  V30 COUNTS 14005 15046 0 0 0
M  V30 BEGIN ATOM
M  V30 1 H -1.547 9.37743 -1.21644 0
M  V30 2 O -1.44 8.89599 -0.40059 0
M  V30 3 P 0 8.91 0 0
M  V30 4 O 0.22 10.1746 0.733838 0
M  V30 5 O 0.79 8.73346 -1.23964 0
M  V30 6 O 0.25 7.66872 0.971405 0
M  V30 7 C -0.69 7.42405 2.04668 0
M  V30 8 C 0.04 6.86059 3.24661 0
M  V30 9 O 0.25 5.42934 3.03695 0
M  V30 10 C 1.44 7.41287 3.50796 0
M  V30 11 O 1.83 7.27073 4.86816 0
M  V30 12 C 2.32 6.5273 2.63741 0
M  V30 13 C 1.61 5.1842 2.73198 0
M  V30 14 N 1.66 4.38762 1.4784 0
M  V30 15 H -1.178 8.36899 2.3252 0
M  V30 16 H -1.45 6.70391 1.71179 0
M  V30 17 H -0.582 7.03638 4.13219 0
M  V30 18 H 2.073 4.59931 3.54016 0
M  V30 19 H 2.353 6.88995 1.59871 0
M  V30 20 H 3.344 6.4684 3.0373 0
M  V30 21 H 1.51 8.47002 3.20749 0
M  V30 22 P 3.37998 7.20834 5.23717 0
M  V30 23 O 3.59998 7.79853 6.57286 0
M  V30 24 O 4.16998 7.79239 4.12957 0
M  V30 25 O 3.62998 5.63315 5.29344 0
M  V30 26 C 2.68998 4.80255 6.01876 0
M  V30 27 C 3.41998 3.64202 6.65911 0
M  V30 28 O 3.62998 2.60694 5.64732 0
M  V30 29 C 4.81998 3.93473 7.1943 0
M  V30 30 O 5.20998 3.02071 8.21205 0
M  V30 31 C 5.69998 3.73047 5.97036 0
M  V30 32 C 4.98998 2.58828 5.25741 0
M  V30 33 N 5.03998 2.68068 3.77503 0
M  V30 34 H 2.20098 5.40332 6.79951 0
M  V30 35 H 1.93098 4.41613 5.32378 0
M  V30 36 H 2.79798 3.26331 7.47797 0
M  V30 37 P 6.75996 2.75334 8.47391 0
M  V30 38 O 6.97996 2.44571 9.90142 0
M  V30 39 O 7.54996 3.87688 7.92115 0
M  V30 40 O 7.00996 1.4459 7.59357 0
M  V30 41 C 6.06996 0.347608 7.69215 0
M  V30 42 C 6.79996 -0.96767 7.52806 0
M  V30 43 O 7.00996 -1.21036 6.1011 0
M  V30 44 C 8.19996 -1.04544 8.13308 0
M  V30 45 O 8.58996 -2.38311 8.41922 0
M  V30 46 C 9.07996 -0.491279 7.02284 0
M  V30 47 C 8.36996 -0.996264 5.77469 0
M  V30 48 N 8.41996 -0.0501916 4.62973 0
M  V30 49 C 8.33996 1.32786 4.63244 0
M  V30 50 N 8.41996 1.86957 3.44545 0
M  V30 51 C 8.55996 0.780241 2.58481 0
M  V30 52 C 8.68996 0.738536 1.17757 0
M  V30 53 N 8.80996 -0.58337 0.711393 0
M  V30 54 C 8.80996 -1.70816 1.51017 0
M  V30 55 N 8.93996 -2.87826 0.880757 0
M  V30 56 N 8.67996 -1.67126 2.8339 0
M  V30 57 C 8.55996 -0.401421 3.30572 0
M  V30 58 H 5.58096 0.374722 8.67691 0
M  V30 59 H 5.31096 0.443485 6.90277 0
M  V30 60 H 6.17796 -1.75537 7.96793 0
M  V30 61 P 10.1399 -2.75334 8.47391 0
M  V30 62 O 10.3599 -3.84204 9.44982 0
M  V30 63 O 10.9299 -1.51982 8.68909 0
M  V30 64 O 10.3899 -3.29363 6.99321 0
M  V30 65 C 9.44994 -4.24066 6.42823 0
M  V30 66 C 10.1799 -5.20775 5.52155 0
M  V30 67 O 10.3899 -4.56607 4.22514 0
M  V30 68 C 11.5799 -5.62697 5.96604 0
M  V30 69 O 11.9699 -6.87667 5.41053 0
M  V30 70 C 12.4599 -4.52537 5.39283 0
M  V30 71 C 11.7499 -4.20027 4.08623 0
M  V30 72 N 11.7999 -2.76189 3.71603 0
M  V30 73 C 11.7199 -1.66944 4.54297 0
M  V30 74 N 11.7899 -0.536169 3.91344 0
M  V30 75 C 11.9399 -0.901569 2.58849 0
M  V30 76 C 12.0699 -0.146599 1.40236 0
M  V30 77 N 12.0799 1.18234 1.37046 0
M  V30 78 N 12.1899 -0.822941 0.249738 0
M  V30 79 C 12.1799 -2.15179 0.280525 0
M  V30 80 N 12.0599 -2.96414 1.30822 0
M  V30 81 C 11.9399 -2.25804 2.44748 0
M  V30 82 H 8.96194 -4.79756 7.24086 0
M  V30 83 H 8.68994 -3.69963 5.84682 0
M  V30 84 H 9.55794 -6.10431 5.41508 0
M  V30 85 H 12.2129 -4.78816 3.28024 0
M  V30 86 H 12.4929 -3.64957 6.05871 0
M  V30 87 H 13.4839 -4.88748 5.21323 0
M  V30 88 H 11.6499 -5.66789 7.0643 0
M  V30 89 H 11.6089 -1.74684 5.62396 0
M  V30 90 H 11.9899 1.71949 2.24394 0
M  V30 91 H 12.1789 1.67511 0.470742 0
M  V30 92 H 12.2869 -2.63704 -0.6828 0
M  V30 93 P 13.5199 -7.20834 5.23717 0
M  V30 94 O 13.7399 -8.66189 5.38625 0
M  V30 95 O 14.3099 -6.33615 6.1356 0
M  V30 96 O 13.7699 -6.7751 3.72168 0
M  V30 97 C 12.8299 -7.20825 2.7076 0
M  V30 98 C 13.5599 -7.45864 1.40599 0
M  V30 99 O 13.7699 -6.17651 0.734225 0
M  V30 100 C 14.9599 -8.05808 1.51899 0
M  V30 101 O 15.3499 -8.74358 0.335205 0
M  V30 102 C 15.8399 -6.83093 1.70294 0
M  V30 103 C 15.1299 -5.79992 0.836974 0
M  V30 104 N 15.1799 -4.41769 1.38263 0
M  V30 105 C 15.3299 -3.36514 0.485617 0
M  V30 106 O 15.4199 -3.61814 -0.724703 0
M  V30 107 N 15.3799 -2.00746 1.14492 0
M  V30 108 C 15.2799 -1.85887 2.27776 0
M  V30 109 N 15.3299 -0.600907 2.69379 0
M  V30 110 C 15.1299 -2.92182 3.22265 0
M  V30 111 C 15.0799 -4.18399 2.71925 0
M  V30 112 H 12.3399 -8.1355 3.03735 0
M  V30 113 H 12.0709 -6.42695 2.55448 0
M  V30 114 H 12.9379 -8.12139 0.792866 0
M  V30 115 H 15.5929 -5.80078 -0.160615 0
M  V30 116 H 15.8719 -6.51379 2.75643 0
M  V30 117 H 16.8639 -7.01734 1.34462 0
M  V30 118 H 15.0299 -8.73674 2.38337 0
M  V30 119 H 14.9579 -5.02669 3.39718 0
M  V30 120 H 15.0599 -2.73001 4.29239 0
M  V30 121 H 15.4479 0.162318 2.01146 0
M  V30 122 H 15.2509 -0.387742 3.69773 0
M  V30 123 P 16.8999 -8.91 1.09116e-15 0
M  V30 124 O 17.1199 -10.1726 -0.733694 0
M  V30 125 O 17.6899 -8.73148 1.23936 0
M  V30 126 O 17.1499 -7.66872 -0.971405 0
M  V30 127 C 16.2099 -7.42309 -2.04641 0
M  V30 128 C 16.9399 -6.86059 -3.24661 0
M  V30 129 O 17.1499 -5.42847 -3.03646 0
M  V30 130 C 18.3399 -7.41196 -3.50753 0
M  V30 131 O 18.7299 -7.27073 -4.86816 0
M  V30 132 C 19.2199 -6.5273 -2.63741 0
M  V30 133 C 18.5099 -5.1842 -2.73198 0
M  V30 134 N 18.5599 -4.38762 -1.4784 0
M  V30 135 H 15.7209 -8.36803 -2.32493 0
M  V30 136 H 15.4509 -6.70197 -1.71129 0
M  V30 137 H 16.3179 -7.03551 -4.13168 0
M  V30 138 P 20.2799 -7.20834 -5.23717 0
M  V30 139 O 20.4999 -7.79853 -6.57286 0
M  V30 140 O 21.0699 -7.79239 -4.12957 0
M  V30 141 O 20.5299 -5.63315 -5.29344 0
M  V30 142 C 19.5899 -4.80255 -6.01876 0
M  V30 143 C 20.3199 -3.64202 -6.65911 0
M  V30 144 O 20.5299 -2.60694 -5.64732 0
M  V30 145 C 21.7199 -3.93473 -7.1943 0
M  V30 146 O 22.1099 -3.02071 -8.21205 0
M  V30 147 C 22.5999 -3.73047 -5.97036 0
M  V30 148 C 21.8899 -2.58828 -5.25741 0
M  V30 149 N 21.9399 -2.68068 -3.77503 0
M  V30 150 C 21.8599 -3.79715 -2.96723 0
M  V30 151 N 21.9399 -3.5377 -1.68852 0
M  V30 152 C 22.0799 -2.15054 -1.63254 0
M  V30 153 C 22.2099 -1.28964 -0.518571 0
M  V30 154 N 22.3299 0.0538097 -0.918425 0
M  V30 155 C 22.3299 0.494275 -2.22578 0
M  V30 156 N 22.4599 1.81086 -2.40434 0
M  V30 157 N 22.1999 -0.313645 -3.27502 0
M  V30 158 C 22.0799 -1.61829 -2.91033 0
M  V30 159 H 19.1009 -5.40332 -6.79951 0
M  V30 160 H 18.8309 -4.41613 -5.32378 0
M  V30 161 H 19.6979 -3.26331 -7.47797 0
M  V30 162 P 23.6599 -2.75334 -8.47391 0
M  V30 163 O 23.8799 -2.44571 -9.90142 0
M  V30 164 O 24.4499 -3.87688 -7.92115 0
M  V30 165 O 23.9099 -1.4459 -7.59357 0
M  V30 166 C 22.9699 -0.347608 -7.69215 0
M  V30 167 C 23.6999 0.96767 -7.52806 0
M  V30 168 O 23.9099 1.21036 -6.1011 0
M  V30 169 C 25.0999 1.04544 -8.13308 0
M  V30 170 O 25.4899 2.38311 -8.41922 0
M  V30 171 C 25.9799 0.491279 -7.02284 0
M  V30 172 C 25.2699 0.996264 -5.77469 0
M  V30 173 N 25.3199 0.0501916 -4.62973 0
M  V30 174 H 22.4809 -0.374722 -8.67691 0
M  V30 175 H 22.2109 -0.443485 -6.90277 0
M  V30 176 H 23.0779 1.75537 -7.96793 0
M  V30 177 P 27.0398 2.75334 -8.47391 0
M  V30 178 O 27.2598 3.84128 -9.44797 0
M  V30 179 O 27.8298 1.51947 -8.68712 0
M  V30 180 O 27.2898 3.29363 -6.99321 0
M  V30 181 C 26.3498 4.24011 -6.4274 0
M  V30 182 C 27.0798 5.20775 -5.52155 0
M  V30 183 O 27.2898 4.56534 -4.22446 0
M  V30 184 C 28.4798 5.62629 -5.96531 0
M  V30 185 O 28.8698 6.87667 -5.41053 0
M  V30 186 C 29.3598 4.52537 -5.39283 0
M  V30 187 C 28.6498 4.20027 -4.08623 0
M  V30 188 N 28.6998 2.76189 -3.71603 0
M  V30 189 H 25.8608 4.797 -7.24003 0
M  V30 190 H 25.5908 3.69856 -5.84513 0
M  V30 191 H 26.4578 6.10356 -5.41441 0
M  V30 192 P 30.4198 7.20834 -5.23717 0
M  V30 193 O 30.6398 8.66104 -5.38572 0
M  V30 194 O 31.2098 6.33544 -6.1349 0
M  V30 195 O 30.6698 6.7751 -3.72168 0
M  V30 196 C 29.7298 7.20825 -2.7076 0
M  V30 197 C 30.4598 7.45864 -1.40599 0
M  V30 198 O 30.6698 6.17651 -0.734225 0
M  V30 199 C 31.8598 8.05808 -1.51899 0
M  V30 200 O 32.2498 8.74358 -0.335205 0
M  V30 201 C 32.7398 6.83093 -1.70294 0
M  V30 202 C 32.0298 5.79992 -0.836974 0
M  V30 203 N 32.0798 4.41864 -1.38293 0
M  V30 204 H 29.2408 8.13644 -3.0377 0
M  V30 205 H 28.9708 6.42788 -2.55485 0
M  V30 206 H 29.8378 8.12039 -0.792769 0
M  V30 207 P 33.7998 8.91 -2.18232e-15 0
M  V30 208 O 34.0198 10.1726 0.733694 0
M  V30 209 O 34.5898 8.73148 -1.23936 0
M  V30 210 O 34.0498 7.66872 0.971405 0
M  V30 211 C 33.1098 7.42309 2.04641 0
M  V30 212 C 33.8398 6.86059 3.24661 0
M  V30 213 O 34.0498 5.42847 3.03646 0
M  V30 214 C 35.2398 7.41196 3.50753 0
M  V30 215 O 35.6298 7.27073 4.86816 0
M  V30 216 C 36.1198 6.5273 2.63741 0
M  V30 217 C 35.4098 5.1842 2.73198 0
M  V30 218 N 35.4598 4.38762 1.4784 0
M  V30 219 H 32.6208 8.36803 2.32493 0
M  V30 220 H 32.3508 6.70197 1.71129 0
M  V30 221 H 33.2178 7.03551 4.13168 0
M  V30 222 P 37.1798 7.20834 5.23717 0
M  V30 223 O 37.3998 7.79853 6.57286 0
M  V30 224 O 37.9698 7.79239 4.12957 0
M  V30 225 O 37.4298 5.63315 5.29344 0
M  V30 226 C 36.4898 4.80255 6.01876 0
M  V30 227 C 37.2198 3.64202 6.65911 0
M  V30 228 O 37.4298 2.60694 5.64732 0
M  V30 229 C 38.6198 3.93473 7.1943 0
M  V30 230 O 39.0098 3.02071 8.21205 0
M  V30 231 C 39.4998 3.73047 5.97036 0
M  V30 232 C 38.7898 2.58828 5.25741 0
M  V30 233 N 38.8398 2.68068 3.77503 0
M  V30 234 C 38.7598 3.79715 2.96723 0
M  V30 235 N 38.8398 3.5377 1.68852 0
M  V30 236 C 38.9798 2.15054 1.63254 0
M  V30 237 C 39.1098 1.28964 0.518571 0
M  V30 238 N 39.2298 -0.0538097 0.918425 0
M  V30 239 C 39.2298 -0.494275 2.22578 0
M  V30 240 N 39.3598 -1.81086 2.40434 0
M  V30 241 N 39.0998 0.313645 3.27502 0
M  V30 242 C 38.9798 1.61829 2.91033 0
M  V30 243 H 36.0008 5.40332 6.79951 0
M  V30 244 H 35.7308 4.41613 5.32378 0
M  V30 245 H 36.5978 3.26331 7.47797 0
M  V30 246 P 40.5598 2.75334 8.47391 0
M  V30 247 O 40.7798 2.44571 9.90142 0
M  V30 248 O 41.3498 3.87688 7.92115 0
M  V30 249 O 40.8098 1.4459 7.59357 0
M  V30 250 C 39.8698 0.347608 7.69215 0
M  V30 251 C 40.5998 -0.96767 7.52806 0
M  V30 252 O 40.8098 -1.21036 6.1011 0
M  V30 253 C 41.9998 -1.04544 8.13308 0
M  V30 254 O 42.3898 -2.38311 8.41922 0
M  V30 255 C 42.8798 -0.491279 7.02284 0
M  V30 256 C 42.1698 -0.996264 5.77469 0
M  V30 257 N 42.2198 -0.0501916 4.62973 0
M  V30 258 C 42.1398 1.32786 4.63244 0
M  V30 259 N 42.2198 1.86957 3.44545 0
M  V30 260 C 42.3598 0.780241 2.58481 0
M  V30 261 C 42.4898 0.738536 1.17757 0
M  V30 262 N 42.6098 -0.58337 0.711393 0
M  V30 263 C 42.6098 -1.70816 1.51017 0
M  V30 264 N 42.7398 -2.87826 0.880757 0
M  V30 265 N 42.4798 -1.67126 2.8339 0
M  V30 266 C 42.3598 -0.401421 3.30572 0
M  V30 267 H 39.3808 0.374722 8.67691 0
M  V30 268 H 39.1108 0.443485 6.90277 0
M  V30 269 H 39.9778 -1.75537 7.96793 0
M  V30 270 P 43.9397 -2.75334 8.47391 0
M  V30 271 O 44.1597 -3.84128 9.44797 0
M  V30 272 O 44.7297 -1.51947 8.68712 0
M  V30 273 O 44.1897 -3.29363 6.99321 0
M  V30 274 C 43.2497 -4.24011 6.4274 0
M  V30 275 C 43.9797 -5.20775 5.52155 0
M  V30 276 O 44.1897 -4.56534 4.22446 0
M  V30 277 C 45.3797 -5.62629 5.96531 0
M  V30 278 O 45.7697 -6.87667 5.41053 0
M  V30 279 C 46.2597 -4.52537 5.39283 0
M  V30 280 C 45.5497 -4.20027 4.08623 0
M  V30 281 N 45.5997 -2.76189 3.71603 0
M  V30 282 C 45.5197 -1.64862 4.52822 0
M  V30 283 N 45.5997 -0.512671 3.88633 0
M  V30 284 C 45.7397 -0.888083 2.54977 0
M  V30 285 C 45.8697 -0.094668 1.38677 0
M  V30 286 N 45.9897 -0.890102 0.232633 0
M  V30 287 C 45.9897 -2.26958 0.21772 0
M  V30 288 N 46.1197 -2.84626 -0.97925 0
M  V30 289 N 45.8597 -3.0178 1.31033 0
M  V30 290 C 45.7397 -2.26781 2.43843 0
M  V30 291 H 42.7607 -4.797 7.24003 0
M  V30 292 H 42.4907 -3.69856 5.84513 0
M  V30 293 H 43.3577 -6.10356 5.41441 0
M  V30 294 P 47.3197 -7.20834 5.23717 0
M  V30 295 O 47.5397 -8.66104 5.38572 0
M  V30 296 O 48.1097 -6.33544 6.1349 0
M  V30 297 O 47.5697 -6.7751 3.72168 0
M  V30 298 C 46.6297 -7.20825 2.7076 0
M  V30 299 C 47.3597 -7.45864 1.40599 0
M  V30 300 O 47.5697 -6.17651 0.734225 0
M  V30 301 C 48.7597 -8.05808 1.51899 0
M  V30 302 O 49.1497 -8.74358 0.335205 0
M  V30 303 C 49.6397 -6.83093 1.70294 0
M  V30 304 C 48.9297 -5.79992 0.836974 0
M  V30 305 N 48.9797 -4.41864 1.38293 0
M  V30 306 H 46.1407 -8.13644 3.0377 0
M  V30 307 H 45.8707 -6.42788 2.55485 0
M  V30 308 H 46.7377 -8.12039 0.792769 0
M  V30 309 P 50.6997 -8.91 3.27348e-15 0
M  V30 310 O 50.9197 -10.1726 -0.733694 0
M  V30 311 O 51.4897 -8.73148 1.23936 0
M  V30 312 O 50.9497 -7.66872 -0.971405 0
M  V30 313 C 50.0097 -7.42309 -2.04641 0
M  V30 314 C 50.7397 -6.86059 -3.24661 0
M  V30 315 O 50.9497 -5.42847 -3.03646 0
M  V30 316 C 52.1397 -7.41196 -3.50753 0
M  V30 317 O 52.5297 -7.27073 -4.86816 0
M  V30 318 C 53.0197 -6.5273 -2.63741 0
M  V30 319 C 52.3097 -5.1842 -2.73198 0
M  V30 320 N 52.3597 -4.38762 -1.4784 0
M  V30 321 H 49.5207 -8.36803 -2.32493 0
M  V30 322 H 49.2507 -6.70197 -1.71129 0
M  V30 323 H 50.1177 -7.03551 -4.13168 0
M  V30 324 P 54.0797 -7.20834 -5.23717 0
M  V30 325 O 54.2997 -7.79853 -6.57286 0
M  V30 326 O 54.8697 -7.79239 -4.12957 0
M  V30 327 O 54.3297 -5.63315 -5.29344 0
M  V30 328 C 53.3897 -4.80255 -6.01876 0
M  V30 329 C 54.1197 -3.64202 -6.65911 0
M  V30 330 O 54.3297 -2.60694 -5.64732 0
M  V30 331 C 55.5197 -3.93473 -7.1943 0
M  V30 332 O 55.9097 -3.02071 -8.21205 0
M  V30 333 C 56.3997 -3.73047 -5.97036 0
M  V30 334 C 55.6897 -2.58828 -5.25741 0
M  V30 335 N 55.7397 -2.68068 -3.77503 0
M  V30 336 H 52.9007 -5.40332 -6.79951 0
M  V30 337 H 52.6307 -4.41613 -5.32378 0
M  V30 338 H 53.4977 -3.26331 -7.47797 0
M  V30 339 P 57.4597 -2.75334 -8.47391 0
M  V30 340 O 57.6797 -2.44571 -9.90142 0
M  V30 341 O 58.2497 -3.87688 -7.92115 0
M  V30 342 O 57.7097 -1.4459 -7.59357 0
M  V30 343 C 56.7697 -0.347608 -7.69215 0
M  V30 344 C 57.4997 0.96767 -7.52806 0
M  V30 345 O 57.7097 1.21036 -6.1011 0
M  V30 346 C 58.8997 1.04544 -8.13308 0
M  V30 347 O 59.2897 2.38311 -8.41922 0
M  V30 348 C 59.7797 0.491279 -7.02284 0
M  V30 349 C 59.0697 0.996264 -5.77469 0
M  V30 350 N 59.1197 0.0501916 -4.62973 0
M  V30 351 H 56.2807 -0.374722 -8.67691 0
M  V30 352 H 56.0107 -0.443485 -6.90277 0
M  V30 353 H 56.8777 1.75537 -7.96793 0
M  V30 354 P 60.8396 2.75334 -8.47391 0
M  V30 355 O 61.0596 3.84128 -9.44797 0
M  V30 356 O 61.6296 1.51947 -8.68712 0
M  V30 357 O 61.0896 3.29363 -6.99321 0
M  V30 358 C 60.1496 4.24011 -6.4274 0
M  V30 359 C 60.8796 5.20775 -5.52155 0
M  V30 360 O 61.0896 4.56534 -4.22446 0
M  V30 361 C 62.2796 5.62629 -5.96531 0
M  V30 362 O 62.6696 6.87667 -5.41053 0
M  V30 363 C 63.1596 4.52537 -5.39283 0
M  V30 364 C 62.4496 4.20027 -4.08623 0
M  V30 365 N 62.4996 2.76189 -3.71603 0
M  V30 366 C 62.4196 1.64862 -4.52822 0
M  V30 367 N 62.4996 0.512671 -3.88633 0
M  V30 368 C 62.6396 0.888083 -2.54977 0
M  V30 369 C 62.7696 0.094668 -1.38677 0
M  V30 370 N 62.8896 0.890102 -0.232633 0
M  V30 371 C 62.8896 2.26958 -0.21772 0
M  V30 372 N 63.0196 2.84626 0.97925 0
M  V30 373 N 62.7596 3.0178 -1.31033 0
M  V30 374 C 62.6396 2.26781 -2.43843 0
M  V30 375 H 59.6606 4.797 -7.24003 0
M  V30 376 H 59.3906 3.69856 -5.84513 0
M  V30 377 H 60.2576 6.10356 -5.41441 0
M  V30 378 P 64.2196 7.20834 -5.23717 0
M  V30 379 O 64.4396 8.66104 -5.38572 0
M  V30 380 O 65.0096 6.33544 -6.1349 0
M  V30 381 O 64.4696 6.7751 -3.72168 0
M  V30 382 C 63.5296 7.20825 -2.7076 0
M  V30 383 C 64.2596 7.45864 -1.40599 0
M  V30 384 O 64.4696 6.17651 -0.734225 0
M  V30 385 C 65.6596 8.05808 -1.51899 0
M  V30 386 O 66.0496 8.74358 -0.335205 0
M  V30 387 C 66.5396 6.83093 -1.70294 0
M  V30 388 C 65.8296 5.79992 -0.836974 0
M  V30 389 N 65.8796 4.41864 -1.38293 0
M  V30 390 C 65.7996 3.99538 -2.69438 0
M  V30 391 N 65.8796 2.69909 -2.84277 0
M  V30 392 C 66.0196 2.21719 -1.5408 0
M  V30 393 C 66.1496 0.891712 -1.06628 0
M  V30 394 N 66.2696 0.856846 0.334985 0
M  V30 395 C 66.2696 1.9641 1.15789 0
M  V30 396 N 66.3996 1.72708 2.46522 0
M  V30 397 N 66.1396 3.21165 0.713741 0
M  V30 398 C 66.0196 3.26797 -0.639748 0
M  V30 399 H 63.0406 8.13644 -3.0377 0
M  V30 400 H 62.7706 6.42788 -2.55485 0
M  V30 401 H 63.6376 8.12039 -0.792769 0
M  V30 402 P 67.5996 8.91 -4.36464e-15 0
M  V30 403 O 67.8196 10.1736 0.733766 0
M  V30 404 O 68.3896 8.73247 -1.2395 0
M  V30 405 O 67.8496 7.66872 0.971405 0
M  V30 406 C 66.9096 7.42212 2.04614 0
M  V30 407 C 67.6396 6.86059 3.24661 0
M  V30 408 O 67.8496 5.42847 3.03646 0
M  V30 409 C 69.0396 7.41196 3.50753 0
M  V30 410 O 69.4296 7.27073 4.86816 0
M  V30 411 C 69.9196 6.5273 2.63741 0
M  V30 412 C 69.2096 5.1842 2.73198 0
M  V30 413 N 69.2596 4.38668 1.47808 0
M  V30 414 C 69.4096 3.02239 1.60048 0
M  V30 415 O 69.4996 2.46459 2.67869 0
M  V30 416 N 69.4496 2.32436 0.408571 0
M  V30 417 C 69.3596 2.85471 -0.854993 0
M  V30 418 O 69.4096 2.12566 -1.8531 0
M  V30 419 C 69.2096 4.28918 -0.887335 0
M  V30 420 C 69.0996 4.91066 -2.24619 0
M  V30 421 C 69.1596 5.00349 0.255399 0
M  V30 422 H 66.4196 8.36803 2.32493 0
M  V30 423 H 66.1506 6.701 1.71105 0
M  V30 424 H 67.0176 7.03551 4.13168 0
M  V30 425 H 69.6726 4.59773 3.53894 0
M  V30 426 H 69.9516 6.88995 1.59871 0
M  V30 427 H 70.9436 6.46749 3.03687 0
M  V30 428 H 69.1096 8.46908 3.20714 0
M  V30 429 H 69.0386 6.08548 0.206986 0
M  V30 430 H 70.0686 5.34836 -2.53099 0
M  V30 431 H 68.3316 5.69638 -2.2291 0
M  V30 432 H 68.8196 4.13971 -2.98044 0
M  V30 433 H 69.5556 1.33211 0.474216 0
M  V30 434 P 70.9796 7.20834 5.23717 0
M  V30 435 O 71.1996 7.79853 6.57286 0
M  V30 436 O 71.7696 7.79239 4.12957 0
M  V30 437 O 71.2296 5.63315 5.29344 0
M  V30 438 C 70.2896 4.80255 6.01876 0
M  V30 439 C 71.0196 3.64202 6.65911 0
M  V30 440 O 71.2296 2.60694 5.64732 0
M  V30 441 C 72.4196 3.93473 7.1943 0
M  V30 442 O 72.8096 3.02071 8.21205 0
M  V30 443 C 73.2996 3.73047 5.97036 0
M  V30 444 C 72.5896 2.58828 5.25741 0
M  V30 445 N 72.6396 2.68068 3.77503 0
M  V30 446 H 69.8006 5.40332 6.79951 0
M  V30 447 H 69.5306 4.41613 5.32378 0
M  V30 448 H 70.3976 3.26331 7.47797 0
M  V30 449 P 74.3596 2.75334 8.47391 0
M  V30 450 O 74.5796 2.44571 9.90142 0
M  V30 451 O 75.1496 3.87688 7.92115 0
M  V30 452 O 74.6096 1.4459 7.59357 0
M  V30 453 C 73.6696 0.347608 7.69215 0
M  V30 454 C 74.3996 -0.96767 7.52806 0
M  V30 455 O 74.6096 -1.21036 6.1011 0
M  V30 456 C 75.7996 -1.04544 8.13308 0
M  V30 457 O 76.1896 -2.38311 8.41922 0
M  V30 458 C 76.6796 -0.491279 7.02284 0
M  V30 459 C 75.9696 -0.996264 5.77469 0
M  V30 460 N 76.0196 -0.0501916 4.62973 0
M  V30 461 H 73.1806 0.374722 8.67691 0
M  V30 462 H 72.9106 0.443485 6.90277 0
M  V30 463 H 73.7776 -1.75537 7.96793 0
M  V30 464 P 77.7395 -2.75334 8.47391 0
M  V30 465 O 77.9595 -3.84128 9.44797 0
M  V30 466 O 78.5295 -1.51947 8.68712 0
M  V30 467 O 77.9895 -3.29363 6.99321 0
M  V30 468 C 77.0495 -4.24011 6.4274 0
M  V30 469 C 77.7795 -5.20775 5.52155 0
M  V30 470 O 77.9895 -4.56534 4.22446 0
M  V30 471 C 79.1795 -5.62629 5.96531 0
M  V30 472 O 79.5695 -6.87667 5.41053 0
M  V30 473 C 80.0595 -4.52537 5.39283 0
M  V30 474 C 79.3495 -4.20027 4.08623 0
M  V30 475 N 79.3995 -2.76189 3.71603 0
M  V30 476 C 79.3195 -1.64862 4.52822 0
M  V30 477 N 79.3995 -0.512671 3.88633 0
M  V30 478 C 79.5395 -0.888083 2.54977 0
M  V30 479 C 79.6695 -0.094668 1.38677 0
M  V30 480 N 79.7895 -0.890102 0.232633 0
M  V30 481 C 79.7895 -2.26958 0.21772 0
M  V30 482 N 79.9195 -2.84626 -0.97925 0
M  V30 483 N 79.6595 -3.0178 1.31033 0
M  V30 484 C 79.5395 -2.26781 2.43843 0
M  V30 485 H 76.5605 -4.797 7.24003 0
M  V30 486 H 76.2905 -3.69856 5.84513 0
M  V30 487 H 77.1575 -6.10356 5.41441 0
M  V30 488 P 81.1195 -7.20834 5.23717 0
M  V30 489 O 81.3395 -8.66104 5.38572 0
M  V30 490 O 81.9095 -6.33544 6.1349 0
M  V30 491 O 81.3695 -6.7751 3.72168 0
M  V30 492 C 80.4295 -7.20825 2.7076 0
M  V30 493 C 81.1595 -7.45864 1.40599 0
M  V30 494 O 81.3695 -6.17651 0.734225 0
M  V30 495 C 82.5595 -8.05808 1.51899 0
M  V30 496 O 82.9495 -8.74358 0.335205 0
M  V30 497 C 83.4395 -6.83093 1.70294 0
M  V30 498 C 82.7295 -5.79992 0.836974 0
M  V30 499 N 82.7795 -4.41864 1.38293 0
M  V30 500 H 79.9405 -8.13644 3.0377 0
M  V30 501 H 79.6705 -6.42788 2.55485 0
M  V30 502 H 80.5375 -8.12039 0.792769 0
M  V30 503 P 84.4995 -8.91 5.4558e-15 0
M  V30 504 O 84.7195 -10.1726 -0.733694 0
M  V30 505 O 85.2895 -8.73148 1.23936 0
M  V30 506 O 84.7495 -7.66872 -0.971405 0
M  V30 507 C 83.8095 -7.42309 -2.04641 0
M  V30 508 C 84.5395 -6.86059 -3.24661 0
M  V30 509 O 84.7495 -5.42847 -3.03646 0
M  V30 510 C 85.9395 -7.41196 -3.50753 0
M  V30 511 O 86.3295 -7.27073 -4.86816 0
M  V30 512 C 86.8195 -6.5273 -2.63741 0
M  V30 513 C 86.1095 -5.1842 -2.73198 0
M  V30 514 N 86.1595 -4.38762 -1.4784 0
M  V30 515 C 86.0795 -4.81605 -0.168631 0
M  V30 516 N 86.1595 -3.85454 0.713363 0
M  V30 517 C 86.2995 -2.6994 -0.0566958 0
M  V30 518 C 86.4295 -1.34815 0.338502 0
M  V30 519 O 86.4495 -0.869548 1.47125 0
M  V30 520 N 86.5495 -0.496304 -0.77465 0
M  V30 521 C 86.5495 -0.908403 -2.09122 0
M  V30 522 N 86.6795 0.0517805 -3.00955 0
M  V30 523 N 86.4195 -2.17875 -2.46519 0
M  V30 524 C 86.2995 -3.01988 -1.4033 0
M  V30 525 H 83.3205 -8.36803 -2.32493 0
M  V30 526 H 83.0505 -6.70197 -1.71129 0
M  V30 527 H 83.9175 -7.03551 -4.13168 0
M  V30 528 H 86.5725 -4.59498 -3.54415 0
M  V30 529 H 86.8515 -6.88898 -1.59848 0
M  V30 530 H 87.8435 -6.46749 -3.03687 0
M  V30 531 H 86.0095 -8.46908 -3.20714 0
M  V30 532 H 85.9605 -5.86405 0.105564 0
M  V30 533 H 86.6425 0.483664 -0.597855 0
M  V30 534 H 86.6795 -0.187865 -4.0116 0
M  V30 535 H 86.7805 1.03585 -2.71726 0
M  V30 536 P 87.8795 -7.20834 -5.23717 0
M  V30 537 O 88.0995 -7.7993 -6.57351 0
M  V30 538 O 88.6695 -7.79328 -4.13004 0
M  V30 539 O 88.1295 -5.63315 -5.29344 0
M  V30 540 C 87.1895 -4.80193 -6.01798 0
M  V30 541 C 87.9195 -3.64202 -6.65911 0
M  V30 542 O 88.1295 -2.60694 -5.64732 0
M  V30 543 C 89.3195 -3.93473 -7.1943 0
M  V30 544 O 89.7095 -3.02071 -8.21205 0
M  V30 545 C 90.1995 -3.73047 -5.97036 0
M  V30 546 C 89.4895 -2.58828 -5.25741 0
M  V30 547 N 89.5395 -2.6801 -3.77422 0
M  V30 548 C 89.6895 -1.50443 -3.07133 0
M  V30 549 O 89.7795 -0.419406 -3.61576 0
M  V30 550 N 89.7295 -1.6403 -1.69677 0
M  V30 551 C 89.6395 -2.81206 -0.986255 0
M  V30 552 O 89.6895 -2.80892 0.249754 0
M  V30 553 C 89.4895 -3.99158 -1.80325 0
M  V30 554 C 89.3795 -5.29309 -1.06921 0
M  V30 555 C 89.4395 -3.89779 -3.1476 0
M  V30 556 H 86.6995 -5.40332 -6.79951 0
M  V30 557 H 86.4305 -4.41549 -5.32301 0
M  V30 558 H 87.2975 -3.26331 -7.47797 0
M  V30 559 H 89.9525 -1.6395 -5.56554 0
M  V30 560 H 90.2315 -4.63439 -5.3432 0
M  V30 561 H 91.2235 -3.44728 -6.25838 0
M  V30 562 H 89.3895 -4.96652 -7.57263 0
M  V30 563 H 89.3185 -4.80159 -3.74441 0
M  V30 564 H 90.3485 -5.81459 -1.09608 0
M  V30 565 H 88.6115 -5.9187 -1.54487 0
M  V30 566 H 89.0995 -5.10095 -0.0220288 0
M  V30 567 H 89.8355 -0.798962 -1.16664 0
M  V30 568 P 91.2595 -2.75334 -8.47391 0
M  V30 569 O 91.4795 -2.44571 -9.90142 0
M  V30 570 O 92.0495 -3.87688 -7.92115 0
M  V30 571 O 91.5095 -1.4459 -7.59357 0
M  V30 572 C 90.5695 -0.347608 -7.69215 0
M  V30 573 C 91.2995 0.96767 -7.52806 0
M  V30 574 O 91.5095 1.21036 -6.1011 0
M  V30 575 C 92.6995 1.04544 -8.13308 0
M  V30 576 O 93.0895 2.38311 -8.41922 0
M  V30 577 C 93.5795 0.491279 -7.02284 0
M  V30 578 C 92.8695 0.996264 -5.77469 0
M  V30 579 N 92.9195 0.0501916 -4.62973 0
M  V30 580 H 90.0805 -0.374722 -8.67691 0
M  V30 581 H 89.8105 -0.443485 -6.90277 0
M  V30 582 H 90.6775 1.75537 -7.96793 0
M  V30 583 P 94.6394 2.75334 -8.47391 0
M  V30 584 O 94.8594 3.84128 -9.44797 0
M  V30 585 O 95.4294 1.51947 -8.68712 0
M  V30 586 O 94.8894 3.29363 -6.99321 0
M  V30 587 C 93.9494 4.24011 -6.4274 0
M  V30 588 C 94.6794 5.20775 -5.52155 0
M  V30 589 O 94.8894 4.56534 -4.22446 0
M  V30 590 C 96.0794 5.62629 -5.96531 0
M  V30 591 O 96.4694 6.87667 -5.41053 0
M  V30 592 C 96.9594 4.52537 -5.39283 0
M  V30 593 C 96.2494 4.20027 -4.08623 0
M  V30 594 N 96.2994 2.76189 -3.71603 0
M  V30 595 H 93.4604 4.797 -7.24003 0
M  V30 596 H 93.1904 3.69856 -5.84513 0
M  V30 597 H 94.0574 6.10356 -5.41441 0
M  V30 598 P 98.0194 7.20834 -5.23717 0
M  V30 599 O 98.2394 8.66104 -5.38572 0
M  V30 600 O 98.8094 6.33544 -6.1349 0
M  V30 601 O 98.2694 6.7751 -3.72168 0
M  V30 602 C 97.3294 7.20825 -2.7076 0
M  V30 603 C 98.0594 7.45864 -1.40599 0
M  V30 604 O 98.2694 6.17651 -0.734225 0
M  V30 605 C 99.4594 8.05808 -1.51899 0
M  V30 606 O 99.8494 8.74358 -0.335205 0
M  V30 607 C 100.339 6.83093 -1.70294 0
M  V30 608 C 99.6294 5.79992 -0.836974 0
M  V30 609 N 99.6794 4.41864 -1.38293 0
M  V30 610 H 96.8404 8.13644 -3.0377 0
M  V30 611 H 96.5704 6.42788 -2.55485 0
M  V30 612 H 97.4374 8.12039 -0.792769 0
M  V30 613 P 101.399 8.91 -6.54696e-15 0
M  V30 614 O 101.619 10.1726 0.733694 0
M  V30 615 O 102.189 8.73148 -1.23936 0
M  V30 616 O 101.649 7.66872 0.971405 0
M  V30 617 C 100.709 7.42309 2.04641 0
M  V30 618 C 101.439 6.86059 3.24661 0
M  V30 619 O 101.649 5.42847 3.03646 0
M  V30 620 C 102.839 7.41196 3.50753 0
M  V30 621 O 103.229 7.27073 4.86816 0
M  V30 622 C 103.719 6.5273 2.63741 0
M  V30 623 C 103.009 5.1842 2.73198 0
M  V30 624 N 103.059 4.38762 1.4784 0
M  V30 625 H 100.22 8.36803 2.32493 0
M  V30 626 H 99.9504 6.70197 1.71129 0
M  V30 627 H 100.817 7.03551 4.13168 0
M  V30 628 P 104.779 7.20834 5.23717 0
M  V30 629 O 104.999 7.80006 6.57415 0
M  V30 630 O 105.569 7.79416 4.13051 0
M  V30 631 O 105.029 5.63315 5.29344 0
M  V30 632 C 104.089 4.80318 6.01954 0
M  V30 633 C 104.819 3.64202 6.65911 0
M  V30 634 O 105.029 2.60736 5.64823 0
M  V30 635 C 106.219 3.93521 7.19518 0
M  V30 636 O 106.609 3.02071 8.21205 0
M  V30 637 C 107.099 3.73047 5.97036 0
M  V30 638 C 106.389 2.58828 5.25741 0
M  V30 639 N 106.439 2.68068 3.77503 0
M  V30 640 C 106.359 3.80474 2.99159 0
M  V30 641 N 106.429 3.55622 1.71925 0
M  V30 642 C 106.579 2.1832 1.65733 0
M  V30 643 C 106.709 1.28842 0.572777 0
M  V30 644 N 106.719 1.66875 -0.70098 0
M  V30 645 N 106.829 -0.016788 0.859836 0
M  V30 646 C 106.819 -0.398145 2.13316 0
M  V30 647 N 106.699 0.328224 3.22333 0
M  V30 648 C 106.579 1.62992 2.90383 0
M  V30 649 H 103.601 5.40394 6.8003 0
M  V30 650 H 103.329 4.41741 5.32532 0
M  V30 651 H 104.197 3.26371 7.47889 0
M  V30 652 H 106.852 1.64007 5.56746 0
M  V30 653 H 107.132 4.63439 5.3432 0
M  V30 654 H 108.123 3.44776 6.25925 0
M  V30 655 H 106.289 4.96707 7.57347 0
M  V30 656 H 106.248 4.8089 3.39924 0
M  V30 657 H 106.629 2.66547 -0.941919 0
M  V30 658 H 106.818 0.965341 -1.44766 0
M  V30 659 H 106.926 -1.46427 2.29697 0
M  V30 660 P 108.159 2.75334 8.47391 0
M  V30 661 O 108.379 2.44571 9.90142 0
M  V30 662 O 108.949 3.87688 7.92115 0
M  V30 663 O 108.409 1.4459 7.59357 0
M  V30 664 C 107.469 0.347608 7.69215 0
M  V30 665 C 108.199 -0.96767 7.52806 0
M  V30 666 O 108.409 -1.21036 6.1011 0
M  V30 667 C 109.599 -1.04544 8.13308 0
M  V30 668 O 109.989 -2.38311 8.41922 0
M  V30 669 C 110.479 -0.491279 7.02284 0
M  V30 670 C 109.769 -0.996264 5.77469 0
M  V30 671 N 109.819 -0.0501916 4.62973 0
M  V30 672 H 106.98 0.374722 8.67691 0
M  V30 673 H 106.71 0.443485 6.90277 0
M  V30 674 H 107.577 -1.75537 7.96793 0
M  V30 675 P 111.539 -2.75334 8.47391 0
M  V30 676 O 111.759 -3.84204 9.44982 0
M  V30 677 O 112.329 -1.51982 8.68909 0
M  V30 678 O 111.789 -3.29363 6.99321 0
M  V30 679 C 110.849 -4.24066 6.42823 0
M  V30 680 C 111.579 -5.20775 5.52155 0
M  V30 681 O 111.789 -4.56607 4.22514 0
M  V30 682 C 112.979 -5.62697 5.96604 0
M  V30 683 O 113.369 -6.87667 5.41053 0
M  V30 684 C 113.859 -4.52537 5.39283 0
M  V30 685 C 113.149 -4.20027 4.08623 0
M  V30 686 N 113.199 -2.76189 3.71603 0
M  V30 687 C 113.119 -1.66944 4.54297 0
M  V30 688 N 113.189 -0.536169 3.91344 0
M  V30 689 C 113.339 -0.901569 2.58849 0
M  V30 690 C 113.469 -0.146599 1.40236 0
M  V30 691 N 113.479 1.18234 1.37046 0
M  V30 692 N 113.589 -0.822941 0.249738 0
M  V30 693 C 113.579 -2.15179 0.280525 0
M  V30 694 N 113.459 -2.96414 1.30822 0
M  V30 695 C 113.339 -2.25804 2.44748 0
M  V30 696 H 110.361 -4.79756 7.24086 0
M  V30 697 H 110.089 -3.69963 5.84682 0
M  V30 698 H 110.957 -6.10431 5.41508 0
M  V30 699 H 113.612 -4.78816 3.28024 0
M  V30 700 H 113.892 -3.64957 6.05871 0
M  V30 701 H 114.883 -4.88748 5.21323 0
M  V30 702 H 113.049 -5.66789 7.0643 0
M  V30 703 H 113.008 -1.74684 5.62396 0
M  V30 704 H 113.389 1.71949 2.24394 0
M  V30 705 H 113.578 1.67511 0.470742 0
M  V30 706 H 113.686 -2.63704 -0.6828 0
M  V30 707 P 114.919 -7.20834 5.23717 0
M  V30 708 O 115.139 -8.66104 5.38572 0
M  V30 709 O 115.709 -6.33544 6.1349 0
M  V30 710 O 115.169 -6.7751 3.72168 0
M  V30 711 C 114.229 -7.20825 2.7076 0
M  V30 712 C 114.959 -7.45864 1.40599 0
M  V30 713 O 115.169 -6.17651 0.734225 0
M  V30 714 C 116.359 -8.05808 1.51899 0
M  V30 715 O 116.749 -8.74358 0.335205 0
M  V30 716 C 117.239 -6.83093 1.70294 0
M  V30 717 C 116.529 -5.79992 0.836974 0
M  V30 718 N 116.579 -4.41864 1.38293 0
M  V30 719 H 113.74 -8.13644 3.0377 0
M  V30 720 H 113.47 -6.42788 2.55485 0
M  V30 721 H 114.337 -8.12039 0.792769 0
M  V30 722 P 118.299 -8.91 7.63812e-15 0
M  V30 723 O 118.519 -10.1726 -0.733694 0
M  V30 724 O 119.089 -8.73148 1.23936 0
M  V30 725 O 118.549 -7.66872 -0.971405 0
M  V30 726 C 117.609 -7.42309 -2.04641 0
M  V30 727 C 118.339 -6.86059 -3.24661 0
M  V30 728 O 118.549 -5.42847 -3.03646 0
M  V30 729 C 119.739 -7.41196 -3.50753 0
M  V30 730 O 120.129 -7.27073 -4.86816 0
M  V30 731 C 120.619 -6.5273 -2.63741 0
M  V30 732 C 119.909 -5.1842 -2.73198 0
M  V30 733 N 119.959 -4.38762 -1.4784 0
M  V30 734 H 117.12 -8.36803 -2.32493 0
M  V30 735 H 116.85 -6.70197 -1.71129 0
M  V30 736 H 117.717 -7.03551 -4.13168 0
M  V30 737 P 121.679 -7.20834 -5.23717 0
M  V30 738 O 121.899 -7.79853 -6.57286 0
M  V30 739 O 122.469 -7.79239 -4.12957 0
M  V30 740 O 121.929 -5.63315 -5.29344 0
M  V30 741 C 120.989 -4.80255 -6.01876 0
M  V30 742 C 121.719 -3.64202 -6.65911 0
M  V30 743 O 121.929 -2.60694 -5.64732 0
M  V30 744 C 123.119 -3.93473 -7.1943 0
M  V30 745 O 123.509 -3.02071 -8.21205 0
M  V30 746 C 123.999 -3.73047 -5.97036 0
M  V30 747 C 123.289 -2.58828 -5.25741 0
M  V30 748 N 123.339 -2.68068 -3.77503 0
M  V30 749 H 120.5 -5.40332 -6.79951 0
M  V30 750 H 120.23 -4.41613 -5.32378 0
M  V30 751 H 121.097 -3.26331 -7.47797 0
M  V30 752 P 125.059 -2.75334 -8.47391 0
M  V30 753 O 125.279 -2.44595 -9.90239 0
M  V30 754 O 125.849 -3.87732 -7.92204 0
M  V30 755 O 125.309 -1.4459 -7.59357 0
M  V30 756 C 124.369 -0.347563 -7.69115 0
M  V30 757 C 125.099 0.96767 -7.52806 0
M  V30 758 O 125.309 1.21036 -6.1011 0
M  V30 759 C 126.499 1.04544 -8.13308 0
M  V30 760 O 126.889 2.38311 -8.41922 0
M  V30 761 C 127.379 0.491279 -7.02284 0
M  V30 762 C 126.669 0.996264 -5.77469 0
M  V30 763 N 126.719 0.0501808 -4.62873 0
M  V30 764 C 126.869 0.588177 -3.36904 0
M  V30 765 O 126.959 1.78598 -3.17173 0
M  V30 766 N 126.909 -0.329694 -2.33686 0
M  V30 767 C 126.819 -1.6953 -2.45079 0
M  V30 768 O 126.869 -2.41926 -1.44899 0
M  V30 769 C 126.669 -2.16933 -3.80505 0
M  V30 770 C 126.559 -3.65373 -3.97621 0
M  V30 771 C 126.619 -1.30326 -4.83752 0
M  V30 772 H 123.879 -0.374722 -8.67691 0
M  V30 773 H 123.61 -0.443421 -6.90177 0
M  V30 774 H 124.477 1.75537 -7.96793 0
M  V30 775 H 127.132 1.94496 -5.46629 0
M  V30 776 H 127.411 -0.608651 -7.04676 0
M  V30 777 H 128.403 0.889672 -7.08939 0
M  V30 778 H 126.569 0.43308 -9.04564 0
M  V30 779 H 126.498 -1.68366 -5.8516 0
M  V30 780 H 127.528 -4.05985 -4.30448 0
M  V30 781 H 125.791 -3.88028 -4.72875 0
M  V30 782 H 126.279 -4.11381 -3.01609 0
M  V30 783 H 127.015 0.0393617 -1.41345 0
M  V30 784 P 128.439 2.75334 -8.47391 0
M  V30 785 O 128.659 3.84128 -9.44797 0
M  V30 786 O 129.229 1.51947 -8.68712 0
M  V30 787 O 128.689 3.29363 -6.99321 0
M  V30 788 C 127.749 4.24011 -6.4274 0
M  V30 789 C 128.479 5.20775 -5.52155 0
M  V30 790 O 128.689 4.56534 -4.22446 0
M  V30 791 C 129.879 5.62629 -5.96531 0
M  V30 792 O 130.269 6.87667 -5.41053 0
M  V30 793 C 130.759 4.52537 -5.39283 0
M  V30 794 C 130.049 4.20027 -4.08623 0
M  V30 795 N 130.099 2.76189 -3.71603 0
M  V30 796 H 127.26 4.797 -7.24003 0
M  V30 797 H 126.99 3.69856 -5.84513 0
M  V30 798 H 127.857 6.10356 -5.41441 0
M  V30 799 P 131.819 7.20834 -5.23717 0
M  V30 800 O 132.039 8.66104 -5.38572 0
M  V30 801 O 132.609 6.33544 -6.1349 0
M  V30 802 O 132.069 6.7751 -3.72168 0
M  V30 803 C 131.129 7.20825 -2.7076 0
M  V30 804 C 131.859 7.45864 -1.40599 0
M  V30 805 O 132.069 6.17651 -0.734225 0
M  V30 806 C 133.259 8.05808 -1.51899 0
M  V30 807 O 133.649 8.74358 -0.335205 0
M  V30 808 C 134.139 6.83093 -1.70294 0
M  V30 809 C 133.429 5.79992 -0.836974 0
M  V30 810 N 133.479 4.41864 -1.38293 0
M  V30 811 C 133.399 3.99538 -2.69438 0
M  V30 812 N 133.479 2.69909 -2.84277 0
M  V30 813 C 133.619 2.21719 -1.5408 0
M  V30 814 C 133.749 0.891712 -1.06628 0
M  V30 815 O 133.769 -0.161298 -1.70137 0
M  V30 816 N 133.869 0.856846 0.334985 0
M  V30 817 C 133.869 1.9641 1.15789 0
M  V30 818 N 133.999 1.72708 2.46522 0
M  V30 819 N 133.739 3.21165 0.713741 0
M  V30 820 C 133.619 3.26797 -0.639748 0
M  V30 821 H 130.64 8.13644 -3.0377 0
M  V30 822 H 130.37 6.42788 -2.55485 0
M  V30 823 H 131.237 8.12039 -0.792769 0
M  V30 824 H 133.892 5.80061 0.166416 0
M  V30 825 H 134.171 6.51287 -2.75604 0
M  V30 826 H 135.163 7.01734 -1.34462 0
M  V30 827 H 133.329 8.73674 -2.38337 0
M  V30 828 H 133.28 4.68207 -3.53221 0
M  V30 829 H 133.962 -0.0398818 0.767965 0
M  V30 830 H 133.999 2.50995 3.13503 0
M  V30 831 H 134.1 0.759148 2.80716 0
M  V30 832 P 135.199 8.91 -8.72928e-15 0
M  V30 833 O 135.419 10.1746 0.733838 0
M  V30 834 O 135.989 8.73346 -1.23964 0
M  V30 835 O 135.449 7.66872 0.971405 0
M  V30 836 C 134.509 7.42405 2.04668 0
M  V30 837 C 135.239 6.86059 3.24661 0
M  V30 838 O 135.449 5.42934 3.03695 0
M  V30 839 C 136.639 7.41287 3.50796 0
M  V30 840 O 137.029 7.27073 4.86816 0
M  V30 841 C 137.519 6.5273 2.63741 0
M  V30 842 C 136.809 5.1842 2.73198 0
M  V30 843 N 136.859 4.38762 1.4784 0
M  V30 844 C 136.779 4.83651 0.183876 0
M  V30 845 N 136.849 3.88759 -0.699393 0
M  V30 846 C 136.999 2.7404 0.0575568 0
M  V30 847 C 137.129 1.37902 -0.293928 0
M  V30 848 N 137.139 0.938021 -1.54797 0
M  V30 849 N 137.249 0.491817 0.70549 0
M  V30 850 C 137.239 0.931735 1.95979 0
M  V30 851 N 137.119 2.16017 2.41481 0
M  V30 852 C 136.999 3.02547 1.39121 0
M  V30 853 H 134.021 8.36899 2.3252 0
M  V30 854 H 133.749 6.70391 1.71179 0
M  V30 855 H 134.617 7.03638 4.13219 0
M  V30 856 H 137.272 4.59931 3.54016 0
M  V30 857 H 137.552 6.88995 1.59871 0
M  V30 858 H 138.543 6.4684 3.0373 0
M  V30 859 H 136.709 8.47002 3.20749 0
M  V30 860 H 136.668 5.8885 -0.0765548 0
M  V30 861 H 137.049 1.60276 -2.32875 0
M  V30 862 H 137.238 -0.0699355 -1.73859 0
M  V30 863 H 137.346 0.165507 2.71897 0
M  V30 864 P 138.579 7.20834 5.23717 0
M  V30 865 O 138.799 7.79853 6.57286 0
M  V30 866 O 139.369 7.79239 4.12957 0
M  V30 867 O 138.829 5.63315 5.29344 0
M  V30 868 C 137.889 4.80255 6.01876 0
M  V30 869 C 138.619 3.64202 6.65911 0
M  V30 870 O 138.829 2.60694 5.64732 0
M  V30 871 C 140.019 3.93473 7.1943 0
M  V30 872 O 140.409 3.02071 8.21205 0
M  V30 873 C 140.899 3.73047 5.97036 0
M  V30 874 C 140.189 2.58828 5.25741 0
M  V30 875 N 140.239 2.68068 3.77503 0
M  V30 876 H 137.4 5.40332 6.79951 0
M  V30 877 H 137.13 4.41613 5.32378 0
M  V30 878 H 137.997 3.26331 7.47797 0
M  V30 879 P 141.959 2.75334 8.47391 0
M  V30 880 O 142.179 2.44571 9.90142 0
M  V30 881 O 142.749 3.87688 7.92115 0
M  V30 882 O 142.209 1.4459 7.59357 0
M  V30 883 C 141.269 0.347608 7.69215 0
M  V30 884 C 141.999 -0.96767 7.52806 0
M  V30 885 O 142.209 -1.21036 6.1011 0
M  V30 886 C 143.399 -1.04544 8.13308 0
M  V30 887 O 143.789 -2.38311 8.41922 0
M  V30 888 C 144.279 -0.491279 7.02284 0
M  V30 889 C 143.569 -0.996264 5.77469 0
M  V30 890 N 143.619 -0.0501916 4.62973 0
M  V30 891 H 140.78 0.374722 8.67691 0
M  V30 892 H 140.51 0.443485 6.90277 0
M  V30 893 H 141.377 -1.75537 7.96793 0
M  V30 894 P 145.339 -2.75334 8.47391 0
M  V30 895 O 145.559 -3.84128 9.44797 0
M  V30 896 O 146.129 -1.51947 8.68712 0
M  V30 897 O 145.589 -3.29363 6.99321 0
M  V30 898 C 144.649 -4.24011 6.4274 0
M  V30 899 C 145.379 -5.20775 5.52155 0
M  V30 900 O 145.589 -4.56534 4.22446 0
M  V30 901 C 146.779 -5.62629 5.96531 0
M  V30 902 O 147.169 -6.87667 5.41053 0
M  V30 903 C 147.659 -4.52537 5.39283 0
M  V30 904 C 146.949 -4.20027 4.08623 0
M  V30 905 N 146.999 -2.76189 3.71603 0
M  V30 906 H 144.16 -4.797 7.24003 0
M  V30 907 H 143.89 -3.69856 5.84513 0
M  V30 908 H 144.757 -6.10356 5.41441 0
M  V30 909 P 148.719 -7.20834 5.23717 0
M  V30 910 O 148.939 -8.66274 5.38678 0
M  V30 911 O 149.509 -6.33687 6.13629 0
M  V30 912 O 148.969 -6.7751 3.72168 0
M  V30 913 C 148.029 -7.20919 2.70795 0
M  V30 914 C 148.759 -7.45864 1.40599 0
M  V30 915 O 148.969 -6.17751 0.734343 0
M  V30 916 C 150.159 -8.05906 1.51917 0
M  V30 917 O 150.549 -8.74358 0.335205 0
M  V30 918 C 151.039 -6.83093 1.70294 0
M  V30 919 C 150.329 -5.79992 0.836974 0
M  V30 920 N 150.379 -4.41864 1.38293 0
M  V30 921 C 150.299 -4.02089 2.69407 0
M  V30 922 N 150.369 -2.73403 2.85089 0
M  V30 923 C 150.519 -2.25086 1.5642 0
M  V30 924 C 150.649 -0.942887 1.04836 0
M  V30 925 N 150.659 0.150999 1.80369 0
M  V30 926 N 150.769 -0.812565 -0.28167 0
M  V30 927 C 150.759 -1.90572 -1.03784 0
M  V30 928 N 150.639 -3.167 -0.683905 0
M  V30 929 C 150.519 -3.26538 0.652815 0
M  V30 930 H 147.541 -8.13738 3.03804 0
M  V30 931 H 147.269 -6.42974 2.55559 0
M  V30 932 H 148.137 -8.12139 0.792866 0
M  V30 933 H 150.792 -5.80178 -0.160643 0
M  V30 934 H 151.072 -6.51379 2.75643 0
M  V30 935 H 152.063 -7.01832 1.3448 0
M  V30 936 H 150.229 -8.73771 2.38364 0
M  V30 937 H 150.188 -4.7189 3.52311 0
M  V30 938 H 150.569 0.0721434 2.82608 0
M  V30 939 H 150.758 1.0785 1.36544 0
M  V30 940 H 150.866 -1.73207 -2.10241 0
M  V30 941 P 152.099 -8.91 9.82044e-15 0
M  V30 942 O 152.319 -10.1726 -0.733694 0
M  V30 943 O 152.889 -8.73148 1.23936 0
M  V30 944 O 152.349 -7.66872 -0.971405 0
M  V30 945 C 151.409 -7.42309 -2.04641 0
M  V30 946 C 152.139 -6.86059 -3.24661 0
M  V30 947 O 152.349 -5.42847 -3.03646 0
M  V30 948 C 153.539 -7.41196 -3.50753 0
M  V30 949 O 153.929 -7.27073 -4.86816 0
M  V30 950 C 154.419 -6.5273 -2.63741 0
M  V30 951 C 153.709 -5.1842 -2.73198 0
M  V30 952 N 153.759 -4.38762 -1.4784 0
M  V30 953 H 150.92 -8.36803 -2.32493 0
M  V30 954 H 150.65 -6.70197 -1.71129 0
M  V30 955 H 151.517 -7.03551 -4.13168 0
M  V30 956 P 155.479 -7.20834 -5.23717 0
M  V30 957 O 155.699 -7.7993 -6.57351 0
M  V30 958 O 156.269 -7.79328 -4.13004 0
M  V30 959 O 155.729 -5.63315 -5.29344 0
M  V30 960 C 154.789 -4.80193 -6.01798 0
M  V30 961 C 155.519 -3.64202 -6.65911 0
M  V30 962 O 155.729 -2.60694 -5.64732 0
M  V30 963 C 156.919 -3.93473 -7.1943 0
M  V30 964 O 157.309 -3.02071 -8.21205 0
M  V30 965 C 157.799 -3.73047 -5.97036 0
M  V30 966 C 157.089 -2.58828 -5.25741 0
M  V30 967 N 157.139 -2.6801 -3.77422 0
M  V30 968 C 157.289 -1.50443 -3.07133 0
M  V30 969 O 157.379 -0.419406 -3.61576 0
M  V30 970 N 157.329 -1.6403 -1.69677 0
M  V30 971 C 157.239 -2.81206 -0.986255 0
M  V30 972 O 157.289 -2.80892 0.249754 0
M  V30 973 C 157.089 -3.99158 -1.80325 0
M  V30 974 C 156.979 -5.29309 -1.06921 0
M  V30 975 C 157.039 -3.89779 -3.1476 0
M  V30 976 H 154.299 -5.40332 -6.79951 0
M  V30 977 H 154.03 -4.41549 -5.32301 0
M  V30 978 H 154.897 -3.26331 -7.47797 0
M  V30 979 H 157.552 -1.6395 -5.56554 0
M  V30 980 H 157.831 -4.63439 -5.3432 0
M  V30 981 H 158.823 -3.44728 -6.25838 0
M  V30 982 H 156.989 -4.96652 -7.57263 0
M  V30 983 H 156.918 -4.80159 -3.74441 0
M  V30 984 H 157.948 -5.81459 -1.09608 0
M  V30 985 H 156.211 -5.9187 -1.54487 0
M  V30 986 H 156.699 -5.10095 -0.0220288 0
M  V30 987 H 157.435 -0.798962 -1.16664 0
M  V30 988 P 158.859 -2.75334 -8.47391 0
M  V30 989 O 159.079 -2.44571 -9.90142 0
M  V30 990 O 159.649 -3.87688 -7.92115 0
M  V30 991 O 159.109 -1.4459 -7.59357 0
M  V30 992 C 158.169 -0.347608 -7.69215 0
M  V30 993 C 158.899 0.96767 -7.52806 0
M  V30 994 O 159.109 1.21036 -6.1011 0
M  V30 995 C 160.299 1.04544 -8.13308 0
M  V30 996 O 160.689 2.38311 -8.41922 0
M  V30 997 C 161.179 0.491279 -7.02284 0
M  V30 998 C 160.469 0.996264 -5.77469 0
M  V30 999 N 160.519 0.0501916 -4.62973 0
M  V30 1000 H 157.68 -0.374722 -8.67691 0
M  V30 1001 H 157.41 -0.443485 -6.90277 0
M  V30 1002 H 158.277 1.75537 -7.96793 0
M  V30 1003 P 162.239 2.75334 -8.47391 0
M  V30 1004 O 162.459 3.84166 -9.4489 0
M  V30 1005 O 163.029 1.51964 -8.6881 0
M  V30 1006 O 162.489 3.29363 -6.99321 0
M  V30 1007 C 161.549 4.23956 -6.42656 0
M  V30 1008 C 162.279 5.20775 -5.52155 0
M  V30 1009 O 162.489 4.56534 -4.22446 0
M  V30 1010 C 163.679 5.62629 -5.96531 0
M  V30 1011 O 164.069 6.87667 -5.41053 0
M  V30 1012 C 164.559 4.52537 -5.39283 0
M  V30 1013 C 163.849 4.20027 -4.08623 0
M  V30 1014 N 163.899 2.7613 -3.71522 0
M  V30 1015 C 164.049 2.45612 -2.37989 0
M  V30 1016 O 164.139 3.30919 -1.51621 0
M  V30 1017 N 164.089 1.10684 -2.08435 0
M  V30 1018 C 163.999 0.0690084 -2.9792 0
M  V30 1019 O 164.049 -1.10553 -2.59426 0
M  V30 1020 C 163.849 0.481522 -4.35345 0
M  V30 1021 C 163.739 -0.618778 -5.36443 0
M  V30 1022 C 163.799 1.78906 -4.67968 0
M  V30 1023 H 161.059 4.797 -7.24003 0
M  V30 1024 H 160.79 3.69802 -5.84429 0
M  V30 1025 H 161.657 6.10356 -5.41441 0
M  V30 1026 H 164.312 4.78651 -3.27911 0
M  V30 1027 H 164.591 3.64957 -6.05871 0
M  V30 1028 H 165.583 4.8868 -5.2125 0
M  V30 1029 H 163.749 5.66726 -7.06352 0
M  V30 1030 H 163.678 2.07737 -5.72367 0
M  V30 1031 H 164.708 -0.754375 -5.86871 0
M  V30 1032 H 162.971 -0.359721 -6.10641 0
M  V30 1033 H 163.459 -1.55533 -4.8581 0
M  V30 1034 H 164.195 0.862651 -1.12037 0
M  V30 1035 P 165.619 7.20834 -5.23717 0
M  V30 1036 O 165.839 8.66104 -5.38572 0
M  V30 1037 O 166.409 6.33544 -6.1349 0
M  V30 1038 O 165.869 6.7751 -3.72168 0
M  V30 1039 C 164.929 7.20825 -2.7076 0
M  V30 1040 C 165.659 7.45864 -1.40599 0
M  V30 1041 O 165.869 6.17651 -0.734225 0
M  V30 1042 C 167.059 8.05808 -1.51899 0
M  V30 1043 O 167.449 8.74358 -0.335205 0
M  V30 1044 C 167.939 6.83093 -1.70294 0
M  V30 1045 C 167.229 5.79992 -0.836974 0
M  V30 1046 N 167.279 4.41864 -1.38293 0
M  V30 1047 C 167.199 3.99538 -2.69438 0
M  V30 1048 N 167.279 2.69909 -2.84277 0
M  V30 1049 C 167.419 2.21719 -1.5408 0
M  V30 1050 C 167.549 0.891712 -1.06628 0
M  V30 1051 N 167.669 0.856846 0.334985 0
M  V30 1052 C 167.669 1.9641 1.15789 0
M  V30 1053 N 167.799 1.72708 2.46522 0
M  V30 1054 N 167.539 3.21165 0.713741 0
M  V30 1055 C 167.419 3.26797 -0.639748 0
M  V30 1056 H 164.44 8.13644 -3.0377 0
M  V30 1057 H 164.17 6.42788 -2.55485 0
M  V30 1058 H 165.037 8.12039 -0.792769 0
M  V30 1059 P 168.999 8.91 -1.09116e-14 0
M  V30 1060 O 169.219 10.1726 0.733694 0
M  V30 1061 O 169.789 8.73148 -1.23936 0
M  V30 1062 O 169.249 7.66872 0.971405 0
M  V30 1063 C 168.309 7.42309 2.04641 0
M  V30 1064 C 169.039 6.86059 3.24661 0
M  V30 1065 O 169.249 5.42847 3.03646 0
M  V30 1066 C 170.439 7.41196 3.50753 0
M  V30 1067 O 170.829 7.27073 4.86816 0
M  V30 1068 C 171.319 6.5273 2.63741 0
M  V30 1069 C 170.609 5.1842 2.73198 0
M  V30 1070 N 170.659 4.38762 1.4784 0
M  V30 1071 H 167.82 8.36803 2.32493 0
M  V30 1072 H 167.55 6.70197 1.71129 0
M  V30 1073 H 168.417 7.03551 4.13168 0
M  V30 1074 P 172.379 7.20834 5.23717 0
M  V30 1075 O 172.599 7.79853 6.57286 0
M  V30 1076 O 173.169 7.79239 4.12957 0
M  V30 1077 O 172.629 5.63315 5.29344 0
M  V30 1078 C 171.689 4.80255 6.01876 0
M  V30 1079 C 172.419 3.64202 6.65911 0
M  V30 1080 O 172.629 2.60694 5.64732 0
M  V30 1081 C 173.819 3.93473 7.1943 0
M  V30 1082 O 174.209 3.02071 8.21205 0
M  V30 1083 C 174.699 3.73047 5.97036 0
M  V30 1084 C 173.989 2.58828 5.25741 0
M  V30 1085 N 174.039 2.68068 3.77503 0
M  V30 1086 C 173.959 3.79715 2.96723 0
M  V30 1087 N 174.039 3.5377 1.68852 0
M  V30 1088 C 174.179 2.15054 1.63254 0
M  V30 1089 C 174.309 1.28964 0.518571 0
M  V30 1090 O 174.329 1.56826 -0.679156 0
M  V30 1091 N 174.429 -0.0538097 0.918425 0
M  V30 1092 C 174.429 -0.494275 2.22578 0
M  V30 1093 N 174.559 -1.81086 2.40434 0
M  V30 1094 N 174.299 0.313645 3.27502 0
M  V30 1095 C 174.179 1.61829 2.91033 0
M  V30 1096 H 171.2 5.40332 6.79951 0
M  V30 1097 H 170.93 4.41613 5.32378 0
M  V30 1098 H 171.797 3.26331 7.47797 0
M  V30 1099 H 174.452 1.63422 5.56814 0
M  V30 1100 H 174.731 4.63374 5.34244 0
M  V30 1101 H 175.723 3.44728 6.25838 0
M  V30 1102 H 173.889 4.96652 7.57263 0
M  V30 1103 H 173.84 4.80617 3.3614 0
M  V30 1104 H 174.522 -0.742702 0.199384 0
M  V30 1105 H 174.559 -2.20598 3.35588 0
M  V30 1106 H 174.66 -2.43518 1.58945 0
M  V30 1107 P 175.759 2.75334 8.47391 0
M  V30 1108 O 175.979 2.44571 9.90142 0
M  V30 1109 O 176.549 3.87688 7.92115 0
M  V30 1110 O 176.009 1.4459 7.59357 0
M  V30 1111 C 175.069 0.347608 7.69215 0
M  V30 1112 C 175.799 -0.96767 7.52806 0
M  V30 1113 O 176.009 -1.21036 6.1011 0
M  V30 1114 C 177.199 -1.04544 8.13308 0
M  V30 1115 O 177.589 -2.38311 8.41922 0
M  V30 1116 C 178.079 -0.491279 7.02284 0
M  V30 1117 C 177.369 -0.996264 5.77469 0
M  V30 1118 N 177.419 -0.0501916 4.62973 0
M  V30 1119 H 174.58 0.374722 8.67691 0
M  V30 1120 H 174.31 0.443485 6.90277 0
M  V30 1121 H 175.177 -1.75537 7.96793 0
M  V30 1122 P 179.139 -2.75334 8.47391 0
M  V30 1123 O 179.359 -3.84128 9.44797 0
M  V30 1124 O 179.929 -1.51947 8.68712 0
M  V30 1125 O 179.389 -3.29363 6.99321 0
M  V30 1126 C 178.449 -4.24011 6.4274 0
M  V30 1127 C 179.179 -5.20775 5.52155 0
M  V30 1128 O 179.389 -4.56534 4.22446 0
M  V30 1129 C 180.579 -5.62629 5.96531 0
M  V30 1130 O 180.969 -6.87667 5.41053 0
M  V30 1131 C 181.459 -4.52537 5.39283 0
M  V30 1132 C 180.749 -4.20027 4.08623 0
M  V30 1133 N 180.799 -2.76189 3.71603 0
M  V30 1134 C 180.719 -1.64862 4.52822 0
M  V30 1135 N 180.799 -0.512671 3.88633 0
M  V30 1136 C 180.939 -0.888083 2.54977 0
M  V30 1137 C 181.069 -0.094668 1.38677 0
M  V30 1138 O 181.089 1.13053 1.28163 0
M  V30 1139 N 181.189 -0.890102 0.232633 0
M  V30 1140 C 181.189 -2.26958 0.21772 0
M  V30 1141 N 181.319 -2.84626 -0.97925 0
M  V30 1142 N 181.059 -3.0178 1.31033 0
M  V30 1143 C 180.939 -2.26781 2.43843 0
M  V30 1144 H 177.96 -4.797 7.24003 0
M  V30 1145 H 177.69 -3.69856 5.84513 0
M  V30 1146 H 178.557 -6.10356 5.41441 0
M  V30 1147 H 181.212 -4.79061 3.27488 0
M  V30 1148 H 181.491 -3.64906 6.05785 0
M  V30 1149 H 182.483 -4.8868 5.2125 0
M  V30 1150 H 180.649 -5.66726 7.06352 0
M  V30 1151 H 180.6 -1.71169 5.60966 0
M  V30 1152 H 181.282 -0.419134 -0.644739 0
M  V30 1153 H 181.319 -3.87332 -1.06098 0
M  V30 1154 H 181.42 -2.26417 -1.82483 0
M  V30 1155 P 182.519 -7.20834 5.23717 0
M  V30 1156 O 182.739 -8.66104 5.38572 0
M  V30 1157 O 183.309 -6.33544 6.1349 0
M  V30 1158 O 182.769 -6.7751 3.72168 0
M  V30 1159 C 181.829 -7.20825 2.7076 0
M  V30 1160 C 182.559 -7.45864 1.40599 0
M  V30 1161 O 182.769 -6.17651 0.734225 0
M  V30 1162 C 183.959 -8.05808 1.51899 0
M  V30 1163 O 184.349 -8.74358 0.335205 0
M  V30 1164 C 184.839 -6.83093 1.70294 0
M  V30 1165 C 184.129 -5.79992 0.836974 0
M  V30 1166 N 184.179 -4.41864 1.38293 0
M  V30 1167 C 184.099 -3.99538 2.69438 0
M  V30 1168 N 184.179 -2.69909 2.84277 0
M  V30 1169 C 184.319 -2.21719 1.5408 0
M  V30 1170 C 184.449 -0.891712 1.06628 0
M  V30 1171 O 184.469 0.161298 1.70137 0
M  V30 1172 N 184.569 -0.856846 -0.334985 0
M  V30 1173 C 184.569 -1.9641 -1.15789 0
M  V30 1174 N 184.699 -1.72708 -2.46522 0
M  V30 1175 N 184.439 -3.21165 -0.713741 0
M  V30 1176 C 184.319 -3.26797 0.639748 0
M  V30 1177 H 181.34 -8.13644 3.0377 0
M  V30 1178 H 181.07 -6.42788 2.55485 0
M  V30 1179 H 181.937 -8.12039 0.792769 0
M  V30 1180 H 184.592 -5.80061 -0.166416 0
M  V30 1181 H 184.871 -6.51287 2.75604 0
M  V30 1182 H 185.863 -7.01734 1.34462 0
M  V30 1183 H 184.029 -8.73674 2.38337 0
M  V30 1184 H 183.98 -4.68207 3.53221 0
M  V30 1185 H 184.662 0.0398818 -0.767965 0
M  V30 1186 H 184.699 -2.50995 -3.13503 0
M  V30 1187 H 184.8 -0.759148 -2.80716 0
M  V30 1188 P 185.899 -8.91 -8.29613e-14 0
M  V30 1189 O 186.119 -10.1726 -0.733694 0
M  V30 1190 O 186.689 -8.73148 1.23936 0
M  V30 1191 O 186.149 -7.66872 -0.971405 0
M  V30 1192 C 185.209 -7.42309 -2.04641 0
M  V30 1193 C 185.939 -6.86059 -3.24661 0
M  V30 1194 O 186.149 -5.42847 -3.03646 0
M  V30 1195 C 187.339 -7.41196 -3.50753 0
M  V30 1196 O 187.729 -7.27073 -4.86816 0
M  V30 1197 C 188.219 -6.5273 -2.63741 0
M  V30 1198 C 187.509 -5.1842 -2.73198 0
M  V30 1199 N 187.559 -4.38762 -1.4784 0
M  V30 1200 H 184.72 -8.36803 -2.32493 0
M  V30 1201 H 184.45 -6.70197 -1.71129 0
M  V30 1202 H 185.317 -7.03551 -4.13168 0
M  V30 1203 P 189.279 -7.20834 -5.23717 0
M  V30 1204 O 189.499 -7.79853 -6.57286 0
M  V30 1205 O 190.069 -7.79239 -4.12957 0
M  V30 1206 O 189.529 -5.63315 -5.29344 0
M  V30 1207 C 188.589 -4.80255 -6.01876 0
M  V30 1208 C 189.319 -3.64202 -6.65911 0
M  V30 1209 O 189.529 -2.60694 -5.64732 0
M  V30 1210 C 190.719 -3.93473 -7.1943 0
M  V30 1211 O 191.109 -3.02071 -8.21205 0
M  V30 1212 C 191.599 -3.73047 -5.97036 0
M  V30 1213 C 190.889 -2.58828 -5.25741 0
M  V30 1214 N 190.939 -2.68068 -3.77503 0
M  V30 1215 H 188.1 -5.40332 -6.79951 0
M  V30 1216 H 187.83 -4.41613 -5.32378 0
M  V30 1217 H 188.697 -3.26331 -7.47797 0
M  V30 1218 P 192.659 -2.75334 -8.47391 0
M  V30 1219 O 192.879 -2.44619 -9.90336 0
M  V30 1220 O 193.449 -3.87776 -7.92294 0
M  V30 1221 O 192.909 -1.4459 -7.59357 0
M  V30 1222 C 191.969 -0.347653 -7.69315 0
M  V30 1223 C 192.699 0.96767 -7.52806 0
M  V30 1224 O 192.909 1.21055 -6.10208 0
M  V30 1225 C 194.099 1.04557 -8.13408 0
M  V30 1226 O 194.489 2.38311 -8.41922 0
M  V30 1227 C 194.979 0.491279 -7.02284 0
M  V30 1228 C 194.269 0.996264 -5.77469 0
M  V30 1229 N 194.319 0.0501916 -4.62973 0
M  V30 1230 C 194.239 -1.31969 -4.65661 0
M  V30 1231 N 194.309 -1.86649 -3.48119 0
M  V30 1232 C 194.459 -0.792089 -2.62406 0
M  V30 1233 C 194.589 -0.705684 -1.2207 0
M  V30 1234 N 194.599 -1.76207 -0.413762 0
M  V30 1235 N 194.709 0.518981 -0.685754 0
M  V30 1236 C 194.699 1.57595 -1.49174 0
M  V30 1237 N 194.579 1.62909 -2.80066 0
M  V30 1238 C 194.459 0.388195 -3.3073 0
M  V30 1239 H 191.481 -0.374765 -8.67791 0
M  V30 1240 H 191.209 -0.443613 -6.90476 0
M  V30 1241 H 192.077 1.75559 -7.96891 0
M  V30 1242 H 194.732 1.94563 -5.46818 0
M  V30 1243 H 195.012 -0.608651 -7.04676 0
M  V30 1244 H 196.003 0.889796 -7.09039 0
M  V30 1245 H 194.169 0.433128 -9.04664 0
M  V30 1246 H 194.128 -1.89246 -5.57664 0
M  V30 1247 H 194.509 -2.71005 -0.804694 0
M  V30 1248 H 194.698 -1.63189 0.603768 0
M  V30 1249 H 194.806 2.53475 -0.997614 0
M  V30 1250 P 196.039 2.75334 -8.47391 0
M  V30 1251 O 196.259 3.84204 -9.44982 0
M  V30 1252 O 196.829 1.51982 -8.68909 0
M  V30 1253 O 196.289 3.29363 -6.99321 0
M  V30 1254 C 195.349 4.24066 -6.42823 0
M  V30 1255 C 196.079 5.20775 -5.52155 0
M  V30 1256 O 196.289 4.56607 -4.22514 0
M  V30 1257 C 197.479 5.62697 -5.96604 0
M  V30 1258 O 197.869 6.87667 -5.41053 0
M  V30 1259 C 198.359 4.52537 -5.39283 0
M  V30 1260 C 197.649 4.20027 -4.08623 0
M  V30 1261 N 197.699 2.76189 -3.71603 0
M  V30 1262 C 197.619 1.66944 -4.54297 0
M  V30 1263 N 197.689 0.536169 -3.91344 0
M  V30 1264 C 197.839 0.901569 -2.58849 0
M  V30 1265 C 197.969 0.146599 -1.40236 0
M  V30 1266 N 197.979 -1.18234 -1.37046 0
M  V30 1267 N 198.089 0.822941 -0.249738 0
M  V30 1268 C 198.079 2.15179 -0.280525 0
M  V30 1269 N 197.959 2.96414 -1.30822 0
M  V30 1270 C 197.839 2.25804 -2.44748 0
M  V30 1271 H 194.861 4.79756 -7.24086 0
M  V30 1272 H 194.589 3.69963 -5.84682 0
M  V30 1273 H 195.457 6.10431 -5.41508 0
M  V30 1274 H 198.112 4.78816 -3.28024 0
M  V30 1275 H 198.392 3.64957 -6.05871 0
M  V30 1276 H 199.383 4.88748 -5.21323 0
M  V30 1277 H 197.549 5.66789 -7.0643 0
M  V30 1278 H 197.508 1.74684 -5.62396 0
M  V30 1279 H 197.889 -1.71949 -2.24394 0
M  V30 1280 H 198.078 -1.67511 -0.470742 0
M  V30 1281 H 198.186 2.63704 0.6828 0
M  V30 1282 P 199.419 7.20834 -5.23717 0
M  V30 1283 O 199.639 8.66189 -5.38625 0
M  V30 1284 O 200.209 6.33615 -6.1356 0
M  V30 1285 O 199.669 6.7751 -3.72168 0
M  V30 1286 C 198.729 7.20825 -2.7076 0
M  V30 1287 C 199.459 7.45864 -1.40599 0
M  V30 1288 O 199.669 6.17651 -0.734225 0
M  V30 1289 C 200.859 8.05808 -1.51899 0
M  V30 1290 O 201.249 8.74358 -0.335205 0
M  V30 1291 C 201.739 6.83093 -1.70294 0
M  V30 1292 C 201.029 5.79992 -0.836974 0
M  V30 1293 N 201.079 4.41769 -1.38263 0
M  V30 1294 C 201.229 3.36514 -0.485617 0
M  V30 1295 O 201.319 3.61814 0.724703 0
M  V30 1296 N 201.279 2.00746 -1.14492 0
M  V30 1297 C 201.179 1.85887 -2.27776 0
M  V30 1298 N 201.229 0.600907 -2.69379 0
M  V30 1299 C 201.029 2.92182 -3.22265 0
M  V30 1300 C 200.979 4.18399 -2.71925 0
M  V30 1301 H 198.239 8.1355 -3.03735 0
M  V30 1302 H 197.97 6.42695 -2.55448 0
M  V30 1303 H 198.837 8.12139 -0.792866 0
M  V30 1304 H 201.492 5.80078 0.160615 0
M  V30 1305 H 201.771 6.51379 -2.75643 0
M  V30 1306 H 202.763 7.01734 -1.34462 0
M  V30 1307 H 200.929 8.73674 -2.38337 0
M  V30 1308 H 200.857 5.02669 -3.39718 0
M  V30 1309 H 200.959 2.73001 -4.29239 0
M  V30 1310 H 201.347 -0.162318 -2.01146 0
M  V30 1311 H 201.15 0.387742 -3.69773 0
M  V30 1312 P 202.799 8.91 2.40144e-13 0
M  V30 1313 O 203.019 10.1726 0.733694 0
M  V30 1314 O 203.589 8.73148 -1.23936 0
M  V30 1315 O 203.049 7.66872 0.971405 0
M  V30 1316 C 202.109 7.42309 2.04641 0
M  V30 1317 C 202.839 6.86059 3.24661 0
M  V30 1318 O 203.049 5.42847 3.03646 0
M  V30 1319 C 204.239 7.41196 3.50753 0
M  V30 1320 O 204.629 7.27073 4.86816 0
M  V30 1321 C 205.119 6.5273 2.63741 0
M  V30 1322 C 204.409 5.1842 2.73198 0
M  V30 1323 N 204.459 4.38762 1.4784 0
M  V30 1324 C 204.379 4.81605 0.168631 0
M  V30 1325 N 204.459 3.85454 -0.713363 0
M  V30 1326 C 204.599 2.6994 0.0566958 0
M  V30 1327 C 204.729 1.34815 -0.338502 0
M  V30 1328 N 204.849 0.496304 0.77465 0
M  V30 1329 C 204.849 0.908403 2.09122 0
M  V30 1330 N 204.979 -0.0517805 3.00955 0
M  V30 1331 N 204.719 2.17875 2.46519 0
M  V30 1332 C 204.599 3.01988 1.4033 0
M  V30 1333 H 201.62 8.36803 2.32493 0
M  V30 1334 H 201.35 6.70197 1.71129 0
M  V30 1335 H 202.217 7.03551 4.13168 0
M  V30 1336 P 206.179 7.20834 5.23717 0
M  V30 1337 O 206.399 7.79853 6.57286 0
M  V30 1338 O 206.969 7.79239 4.12957 0
M  V30 1339 O 206.429 5.63315 5.29344 0
M  V30 1340 C 205.489 4.80255 6.01876 0
M  V30 1341 C 206.219 3.64202 6.65911 0
M  V30 1342 O 206.429 2.60694 5.64732 0
M  V30 1343 C 207.619 3.93473 7.1943 0
M  V30 1344 O 208.009 3.02071 8.21205 0
M  V30 1345 C 208.499 3.73047 5.97036 0
M  V30 1346 C 207.789 2.58828 5.25741 0
M  V30 1347 N 207.839 2.68068 3.77503 0
M  V30 1348 H 205 5.40332 6.79951 0
M  V30 1349 H 204.73 4.41613 5.32378 0
M  V30 1350 H 205.597 3.26331 7.47797 0
M  V30 1351 P 209.559 2.75334 8.47391 0
M  V30 1352 O 209.779 2.44571 9.90142 0
M  V30 1353 O 210.349 3.87688 7.92115 0
M  V30 1354 O 209.809 1.4459 7.59357 0
M  V30 1355 C 208.869 0.347608 7.69215 0
M  V30 1356 C 209.599 -0.96767 7.52806 0
M  V30 1357 O 209.809 -1.21036 6.1011 0
M  V30 1358 C 210.999 -1.04544 8.13308 0
M  V30 1359 O 211.389 -2.38311 8.41922 0
M  V30 1360 C 211.879 -0.491279 7.02284 0
M  V30 1361 C 211.169 -0.996264 5.77469 0
M  V30 1362 N 211.219 -0.0501916 4.62973 0
M  V30 1363 H 208.38 0.374722 8.67691 0
M  V30 1364 H 208.11 0.443485 6.90277 0
M  V30 1365 H 208.977 -1.75537 7.96793 0
M  V30 1366 P 212.939 -2.75334 8.47391 0
M  V30 1367 O 213.159 -3.84128 9.44797 0
M  V30 1368 O 213.729 -1.51947 8.68712 0
M  V30 1369 O 213.189 -3.29363 6.99321 0
M  V30 1370 C 212.249 -4.24011 6.4274 0
M  V30 1371 C 212.979 -5.20775 5.52155 0
M  V30 1372 O 213.189 -4.56534 4.22446 0
M  V30 1373 C 214.379 -5.62629 5.96531 0
M  V30 1374 O 214.769 -6.87667 5.41053 0
M  V30 1375 C 215.259 -4.52537 5.39283 0
M  V30 1376 C 214.549 -4.20027 4.08623 0
M  V30 1377 N 214.599 -2.76189 3.71603 0
M  V30 1378 C 214.519 -1.64862 4.52822 0
M  V30 1379 N 214.599 -0.512671 3.88633 0
M  V30 1380 C 214.739 -0.888083 2.54977 0
M  V30 1381 C 214.869 -0.094668 1.38677 0
M  V30 1382 O 214.889 1.13053 1.28163 0
M  V30 1383 N 214.989 -0.890102 0.232633 0
M  V30 1384 C 214.989 -2.26958 0.21772 0
M  V30 1385 N 215.119 -2.84626 -0.97925 0
M  V30 1386 N 214.859 -3.0178 1.31033 0
M  V30 1387 C 214.739 -2.26781 2.43843 0
M  V30 1388 H 211.76 -4.797 7.24003 0
M  V30 1389 H 211.49 -3.69856 5.84513 0
M  V30 1390 H 212.357 -6.10356 5.41441 0
M  V30 1391 H 215.012 -4.79061 3.27488 0
M  V30 1392 H 215.291 -3.64906 6.05785 0
M  V30 1393 H 216.283 -4.8868 5.2125 0
M  V30 1394 H 214.449 -5.66726 7.06352 0
M  V30 1395 H 214.4 -1.71169 5.60966 0
M  V30 1396 H 215.082 -0.419134 -0.644739 0
M  V30 1397 H 215.119 -3.87332 -1.06098 0
M  V30 1398 H 215.22 -2.26417 -1.82483 0
M  V30 1399 P 216.319 -7.20834 5.23717 0
M  V30 1400 O 216.539 -8.66104 5.38572 0
M  V30 1401 O 217.109 -6.33544 6.1349 0
M  V30 1402 O 216.569 -6.7751 3.72168 0
M  V30 1403 C 215.629 -7.20825 2.7076 0
M  V30 1404 C 216.359 -7.45864 1.40599 0
M  V30 1405 O 216.569 -6.17651 0.734225 0
M  V30 1406 C 217.759 -8.05808 1.51899 0
M  V30 1407 O 218.149 -8.74358 0.335205 0
M  V30 1408 C 218.639 -6.83093 1.70294 0
M  V30 1409 C 217.929 -5.79992 0.836974 0
M  V30 1410 N 217.979 -4.41864 1.38293 0
M  V30 1411 H 215.14 -8.13644 3.0377 0
M  V30 1412 H 214.87 -6.42788 2.55485 0
M  V30 1413 H 215.737 -8.12039 0.792769 0
M  V30 1414 P 219.699 -8.91 -3.97326e-13 0
M  V30 1415 O 219.919 -10.1746 -0.733838 0
M  V30 1416 O 220.489 -8.73346 1.23964 0
M  V30 1417 O 219.949 -7.66872 -0.971405 0
M  V30 1418 C 219.009 -7.42405 -2.04668 0
M  V30 1419 C 219.739 -6.86059 -3.24661 0
M  V30 1420 O 219.949 -5.42934 -3.03695 0
M  V30 1421 C 221.139 -7.41287 -3.50796 0
M  V30 1422 O 221.529 -7.27073 -4.86816 0
M  V30 1423 C 222.019 -6.5273 -2.63741 0
M  V30 1424 C 221.309 -5.1842 -2.73198 0
M  V30 1425 N 221.359 -4.38762 -1.4784 0
M  V30 1426 C 221.279 -4.83651 -0.183876 0
M  V30 1427 N 221.349 -3.88759 0.699393 0
M  V30 1428 C 221.499 -2.7404 -0.0575568 0
M  V30 1429 C 221.629 -1.37902 0.293928 0
M  V30 1430 N 221.639 -0.938021 1.54797 0
M  V30 1431 N 221.749 -0.491817 -0.70549 0
M  V30 1432 C 221.739 -0.931735 -1.95979 0
M  V30 1433 N 221.619 -2.16017 -2.41481 0
M  V30 1434 C 221.499 -3.02547 -1.39121 0
M  V30 1435 H 218.521 -8.36899 -2.3252 0
M  V30 1436 H 218.249 -6.70391 -1.71179 0
M  V30 1437 H 219.117 -7.03638 -4.13219 0
M  V30 1438 H 221.772 -4.59931 -3.54016 0
M  V30 1439 H 222.052 -6.88995 -1.59871 0
M  V30 1440 H 223.043 -6.4684 -3.0373 0
M  V30 1441 H 221.209 -8.47002 -3.20749 0
M  V30 1442 H 221.168 -5.8885 0.0765548 0
M  V30 1443 H 221.549 -1.60276 2.32875 0
M  V30 1444 H 221.738 0.0699355 1.73859 0
M  V30 1445 H 221.846 -0.165507 -2.71897 0
M  V30 1446 P 223.079 -7.20834 -5.23717 0
M  V30 1447 O 223.299 -7.80006 -6.57415 0
M  V30 1448 O 223.869 -7.79416 -4.13051 0
M  V30 1449 O 223.329 -5.63315 -5.29344 0
M  V30 1450 C 222.389 -4.80318 -6.01954 0
M  V30 1451 C 223.119 -3.64202 -6.65911 0
M  V30 1452 O 223.329 -2.60736 -5.64823 0
M  V30 1453 C 224.519 -3.93521 -7.19518 0
M  V30 1454 O 224.909 -3.02071 -8.21205 0
M  V30 1455 C 225.399 -3.73047 -5.97036 0
M  V30 1456 C 224.689 -2.58828 -5.25741 0
M  V30 1457 N 224.739 -2.68068 -3.77503 0
M  V30 1458 C 224.659 -3.80474 -2.99159 0
M  V30 1459 N 224.729 -3.55622 -1.71925 0
M  V30 1460 C 224.879 -2.1832 -1.65733 0
M  V30 1461 C 225.009 -1.28842 -0.572777 0
M  V30 1462 N 225.019 -1.66875 0.70098 0
M  V30 1463 N 225.129 0.016788 -0.859836 0
M  V30 1464 C 225.119 0.398145 -2.13316 0
M  V30 1465 N 224.999 -0.328224 -3.22333 0
M  V30 1466 C 224.879 -1.62992 -2.90383 0
M  V30 1467 H 221.901 -5.40394 -6.8003 0
M  V30 1468 H 221.629 -4.41741 -5.32532 0
M  V30 1469 H 222.497 -3.26371 -7.47889 0
M  V30 1470 H 225.152 -1.64007 -5.56746 0
M  V30 1471 H 225.432 -4.63439 -5.3432 0
M  V30 1472 H 226.423 -3.44776 -6.25925 0
M  V30 1473 H 224.589 -4.96707 -7.57347 0
M  V30 1474 H 224.548 -4.8089 -3.39924 0
M  V30 1475 H 224.929 -2.66547 0.941919 0
M  V30 1476 H 225.118 -0.965341 1.44766 0
M  V30 1477 H 225.226 1.46427 -2.29697 0
M  V30 1478 P 226.459 -2.75334 -8.47391 0
M  V30 1479 O 226.679 -2.44571 -9.90142 0
M  V30 1480 O 227.249 -3.87688 -7.92115 0
M  V30 1481 O 226.709 -1.4459 -7.59357 0
M  V30 1482 C 225.769 -0.347608 -7.69215 0
M  V30 1483 C 226.499 0.96767 -7.52806 0
M  V30 1484 O 226.709 1.21036 -6.1011 0
M  V30 1485 C 227.899 1.04544 -8.13308 0
M  V30 1486 O 228.289 2.38311 -8.41922 0
M  V30 1487 C 228.779 0.491279 -7.02284 0
M  V30 1488 C 228.069 0.996264 -5.77469 0
M  V30 1489 N 228.119 0.0501916 -4.62973 0
M  V30 1490 H 225.28 -0.374722 -8.67691 0
M  V30 1491 H 225.01 -0.443485 -6.90277 0
M  V30 1492 H 225.877 1.75537 -7.96793 0
M  V30 1493 P 229.839 2.75334 -8.47391 0
M  V30 1494 O 230.059 3.84128 -9.44797 0
M  V30 1495 O 230.629 1.51947 -8.68712 0
M  V30 1496 O 230.089 3.29363 -6.99321 0
M  V30 1497 C 229.149 4.24011 -6.4274 0
M  V30 1498 C 229.879 5.20775 -5.52155 0
M  V30 1499 O 230.089 4.56534 -4.22446 0
M  V30 1500 C 231.279 5.62629 -5.96531 0
M  V30 1501 O 231.669 6.87667 -5.41053 0
M  V30 1502 C 232.159 4.52537 -5.39283 0
M  V30 1503 C 231.449 4.20027 -4.08623 0
M  V30 1504 N 231.499 2.76189 -3.71603 0
M  V30 1505 H 228.66 4.797 -7.24003 0
M  V30 1506 H 228.39 3.69856 -5.84513 0
M  V30 1507 H 229.257 6.10356 -5.41441 0
M  V30 1508 P 233.219 7.20834 -5.23717 0
M  V30 1509 O 233.439 8.66274 -5.38678 0
M  V30 1510 O 234.009 6.33687 -6.13629 0
M  V30 1511 O 233.469 6.7751 -3.72168 0
M  V30 1512 C 232.529 7.20919 -2.70795 0
M  V30 1513 C 233.259 7.45864 -1.40599 0
M  V30 1514 O 233.469 6.17751 -0.734343 0
M  V30 1515 C 234.659 8.05906 -1.51917 0
M  V30 1516 O 235.049 8.74358 -0.335205 0
M  V30 1517 C 235.539 6.83093 -1.70294 0
M  V30 1518 C 234.829 5.79992 -0.836974 0
M  V30 1519 N 234.879 4.41864 -1.38293 0
M  V30 1520 C 234.799 4.02089 -2.69407 0
M  V30 1521 N 234.869 2.73403 -2.85089 0
M  V30 1522 C 235.019 2.25086 -1.5642 0
M  V30 1523 C 235.149 0.942887 -1.04836 0
M  V30 1524 N 235.159 -0.150999 -1.80369 0
M  V30 1525 N 235.269 0.812565 0.28167 0
M  V30 1526 C 235.259 1.90572 1.03784 0
M  V30 1527 N 235.139 3.167 0.683905 0
M  V30 1528 C 235.019 3.26538 -0.652815 0
M  V30 1529 H 232.041 8.13738 -3.03804 0
M  V30 1530 H 231.769 6.42974 -2.55559 0
M  V30 1531 H 232.637 8.12139 -0.792866 0
M  V30 1532 H 235.292 5.80178 0.160643 0
M  V30 1533 H 235.572 6.51379 -2.75643 0
M  V30 1534 H 236.563 7.01832 -1.3448 0
M  V30 1535 H 234.729 8.73771 -2.38364 0
M  V30 1536 H 234.688 4.7189 -3.52311 0
M  V30 1537 H 235.069 -0.0721434 -2.82608 0
M  V30 1538 H 235.258 -1.0785 -1.36544 0
M  V30 1539 H 235.366 1.73207 2.10241 0
M  V30 1540 P 236.599 8.91 5.54508e-13 0
M  V30 1541 O 236.819 10.1746 0.733838 0
M  V30 1542 O 237.389 8.73346 -1.23964 0
M  V30 1543 O 236.849 7.66872 0.971405 0
M  V30 1544 C 235.909 7.42405 2.04668 0
M  V30 1545 C 236.639 6.86059 3.24661 0
M  V30 1546 O 236.849 5.42934 3.03695 0
M  V30 1547 C 238.039 7.41287 3.50796 0
M  V30 1548 O 238.429 7.27073 4.86816 0
M  V30 1549 C 238.919 6.5273 2.63741 0
M  V30 1550 C 238.209 5.1842 2.73198 0
M  V30 1551 N 238.259 4.38762 1.4784 0
M  V30 1552 C 238.179 4.83651 0.183876 0
M  V30 1553 N 238.249 3.88759 -0.699393 0
M  V30 1554 C 238.399 2.7404 0.0575568 0
M  V30 1555 C 238.529 1.37902 -0.293928 0
M  V30 1556 N 238.539 0.938021 -1.54797 0
M  V30 1557 N 238.649 0.491817 0.70549 0
M  V30 1558 C 238.639 0.931735 1.95979 0
M  V30 1559 N 238.519 2.16017 2.41481 0
M  V30 1560 C 238.399 3.02547 1.39121 0
M  V30 1561 H 235.421 8.36899 2.3252 0
M  V30 1562 H 235.149 6.70391 1.71179 0
M  V30 1563 H 236.017 7.03638 4.13219 0
M  V30 1564 H 238.672 4.59931 3.54016 0
M  V30 1565 H 238.952 6.88995 1.59871 0
M  V30 1566 H 239.943 6.4684 3.0373 0
M  V30 1567 H 238.109 8.47002 3.20749 0
M  V30 1568 H 238.068 5.8885 -0.0765548 0
M  V30 1569 H 238.449 1.60276 -2.32875 0
M  V30 1570 H 238.638 -0.0699355 -1.73859 0
M  V30 1571 H 238.746 0.165507 2.71897 0
M  V30 1572 P 239.979 7.20834 5.23717 0
M  V30 1573 O 240.199 7.79853 6.57286 0
M  V30 1574 O 240.769 7.79239 4.12957 0
M  V30 1575 O 240.229 5.63315 5.29344 0
M  V30 1576 C 239.289 4.80255 6.01876 0
M  V30 1577 C 240.019 3.64202 6.65911 0
M  V30 1578 O 240.229 2.60694 5.64732 0
M  V30 1579 C 241.419 3.93473 7.1943 0
M  V30 1580 O 241.809 3.02071 8.21205 0
M  V30 1581 C 242.299 3.73047 5.97036 0
M  V30 1582 C 241.589 2.58828 5.25741 0
M  V30 1583 N 241.639 2.68068 3.77503 0
M  V30 1584 H 238.8 5.40332 6.79951 0
M  V30 1585 H 238.53 4.41613 5.32378 0
M  V30 1586 H 239.397 3.26331 7.47797 0
M  V30 1587 P 243.359 2.75334 8.47391 0
M  V30 1588 O 243.579 2.44571 9.90142 0
M  V30 1589 O 244.149 3.87688 7.92115 0
M  V30 1590 O 243.609 1.4459 7.59357 0
M  V30 1591 C 242.669 0.347608 7.69215 0
M  V30 1592 C 243.399 -0.96767 7.52806 0
M  V30 1593 O 243.609 -1.21036 6.1011 0
M  V30 1594 C 244.799 -1.04544 8.13308 0
M  V30 1595 O 245.189 -2.38311 8.41922 0
M  V30 1596 C 245.679 -0.491279 7.02284 0
M  V30 1597 C 244.969 -0.996264 5.77469 0
M  V30 1598 N 245.019 -0.0501916 4.62973 0
M  V30 1599 H 242.18 0.374722 8.67691 0
M  V30 1600 H 241.91 0.443485 6.90277 0
M  V30 1601 H 242.777 -1.75537 7.96793 0
M  V30 1602 P 246.739 -2.75334 8.47391 0
M  V30 1603 O 246.959 -3.84204 9.44982 0
M  V30 1604 O 247.529 -1.51982 8.68909 0
M  V30 1605 O 246.989 -3.29363 6.99321 0
M  V30 1606 C 246.049 -4.24066 6.42823 0
M  V30 1607 C 246.779 -5.20775 5.52155 0
M  V30 1608 O 246.989 -4.56607 4.22514 0
M  V30 1609 C 248.179 -5.62697 5.96604 0
M  V30 1610 O 248.569 -6.87667 5.41053 0
M  V30 1611 C 249.059 -4.52537 5.39283 0
M  V30 1612 C 248.349 -4.20027 4.08623 0
M  V30 1613 N 248.399 -2.76189 3.71603 0
M  V30 1614 C 248.319 -1.66944 4.54297 0
M  V30 1615 N 248.389 -0.536169 3.91344 0
M  V30 1616 C 248.539 -0.901569 2.58849 0
M  V30 1617 C 248.669 -0.146599 1.40236 0
M  V30 1618 N 248.679 1.18234 1.37046 0
M  V30 1619 N 248.789 -0.822941 0.249738 0
M  V30 1620 C 248.779 -2.15179 0.280525 0
M  V30 1621 N 248.659 -2.96414 1.30822 0
M  V30 1622 C 248.539 -2.25804 2.44748 0
M  V30 1623 H 245.561 -4.79756 7.24086 0
M  V30 1624 H 245.289 -3.69963 5.84682 0
M  V30 1625 H 246.157 -6.10431 5.41508 0
M  V30 1626 H 248.812 -4.78816 3.28024 0
M  V30 1627 H 249.092 -3.64957 6.05871 0
M  V30 1628 H 250.083 -4.88748 5.21323 0
M  V30 1629 H 248.249 -5.66789 7.0643 0
M  V30 1630 H 248.208 -1.74684 5.62396 0
M  V30 1631 H 248.589 1.71949 2.24394 0
M  V30 1632 H 248.778 1.67511 0.470742 0
M  V30 1633 H 248.886 -2.63704 -0.6828 0
M  V30 1634 P 250.119 -7.20834 5.23717 0
M  V30 1635 O 250.339 -8.66104 5.38572 0
M  V30 1636 O 250.909 -6.33544 6.1349 0
M  V30 1637 O 250.369 -6.7751 3.72168 0
M  V30 1638 C 249.429 -7.20825 2.7076 0
M  V30 1639 C 250.159 -7.45864 1.40599 0
M  V30 1640 O 250.369 -6.17651 0.734225 0
M  V30 1641 C 251.559 -8.05808 1.51899 0
M  V30 1642 O 251.949 -8.74358 0.335205 0
M  V30 1643 C 252.439 -6.83093 1.70294 0
M  V30 1644 C 251.729 -5.79992 0.836974 0
M  V30 1645 N 251.779 -4.41864 1.38293 0
M  V30 1646 C 251.699 -3.99538 2.69438 0
M  V30 1647 N 251.779 -2.69909 2.84277 0
M  V30 1648 C 251.919 -2.21719 1.5408 0
M  V30 1649 C 252.049 -0.891712 1.06628 0
M  V30 1650 O 252.069 0.161298 1.70137 0
M  V30 1651 N 252.169 -0.856846 -0.334985 0
M  V30 1652 C 252.169 -1.9641 -1.15789 0
M  V30 1653 N 252.299 -1.72708 -2.46522 0
M  V30 1654 N 252.039 -3.21165 -0.713741 0
M  V30 1655 C 251.919 -3.26797 0.639748 0
M  V30 1656 H 248.94 -8.13644 3.0377 0
M  V30 1657 H 248.67 -6.42788 2.55485 0
M  V30 1658 H 249.537 -8.12039 0.792769 0
M  V30 1659 H 252.192 -5.80061 -0.166416 0
M  V30 1660 H 252.471 -6.51287 2.75604 0
M  V30 1661 H 253.463 -7.01734 1.34462 0
M  V30 1662 H 251.629 -8.73674 2.38337 0
M  V30 1663 H 251.58 -4.68207 3.53221 0
M  V30 1664 H 252.262 0.0398818 -0.767965 0
M  V30 1665 H 252.299 -2.50995 -3.13503 0
M  V30 1666 H 252.4 -0.759148 -2.80716 0
M  V30 1667 P 253.498 -8.91 -7.1169e-13 0
M  V30 1668 O 253.718 -10.1726 -0.733694 0
M  V30 1669 O 254.288 -8.73148 1.23936 0
M  V30 1670 O 253.748 -7.66872 -0.971405 0
M  V30 1671 C 252.808 -7.42309 -2.04641 0
M  V30 1672 C 253.538 -6.86059 -3.24661 0
M  V30 1673 O 253.748 -5.42847 -3.03646 0
M  V30 1674 C 254.938 -7.41196 -3.50753 0
M  V30 1675 O 255.328 -7.27073 -4.86816 0
M  V30 1676 C 255.818 -6.5273 -2.63741 0
M  V30 1677 C 255.108 -5.1842 -2.73198 0
M  V30 1678 N 255.158 -4.38762 -1.4784 0
M  V30 1679 H 252.319 -8.36803 -2.32493 0
M  V30 1680 H 252.049 -6.70197 -1.71129 0
M  V30 1681 H 252.916 -7.03551 -4.13168 0
M  V30 1682 P 256.878 -7.20834 -5.23717 0
M  V30 1683 O 257.098 -7.80006 -6.57415 0
M  V30 1684 O 257.668 -7.79416 -4.13051 0
M  V30 1685 O 257.128 -5.63315 -5.29344 0
M  V30 1686 C 256.188 -4.80318 -6.01954 0
M  V30 1687 C 256.918 -3.64202 -6.65911 0
M  V30 1688 O 257.128 -2.60736 -5.64823 0
M  V30 1689 C 258.318 -3.93521 -7.19518 0
M  V30 1690 O 258.708 -3.02071 -8.21205 0
M  V30 1691 C 259.198 -3.73047 -5.97036 0
M  V30 1692 C 258.488 -2.58828 -5.25741 0
M  V30 1693 N 258.538 -2.68068 -3.77503 0
M  V30 1694 C 258.458 -3.80474 -2.99159 0
M  V30 1695 N 258.528 -3.55622 -1.71925 0
M  V30 1696 C 258.678 -2.1832 -1.65733 0
M  V30 1697 C 258.808 -1.28842 -0.572777 0
M  V30 1698 N 258.818 -1.66875 0.70098 0
M  V30 1699 N 258.928 0.016788 -0.859836 0
M  V30 1700 C 258.918 0.398145 -2.13316 0
M  V30 1701 N 258.798 -0.328224 -3.22333 0
M  V30 1702 C 258.678 -1.62992 -2.90383 0
M  V30 1703 H 255.7 -5.40394 -6.8003 0
M  V30 1704 H 255.428 -4.41741 -5.32532 0
M  V30 1705 H 256.296 -3.26371 -7.47889 0
M  V30 1706 H 258.951 -1.64007 -5.56746 0
M  V30 1707 H 259.231 -4.63439 -5.3432 0
M  V30 1708 H 260.222 -3.44776 -6.25925 0
M  V30 1709 H 258.388 -4.96707 -7.57347 0
M  V30 1710 H 258.347 -4.8089 -3.39924 0
M  V30 1711 H 258.728 -2.66547 0.941919 0
M  V30 1712 H 258.917 -0.965341 1.44766 0
M  V30 1713 H 259.025 1.46427 -2.29697 0
M  V30 1714 P 260.258 -2.75334 -8.47391 0
M  V30 1715 O 260.478 -2.44571 -9.90142 0
M  V30 1716 O 261.048 -3.87688 -7.92115 0
M  V30 1717 O 260.508 -1.4459 -7.59357 0
M  V30 1718 C 259.568 -0.347608 -7.69215 0
M  V30 1719 C 260.298 0.96767 -7.52806 0
M  V30 1720 O 260.508 1.21036 -6.1011 0
M  V30 1721 C 261.698 1.04544 -8.13308 0
M  V30 1722 O 262.088 2.38311 -8.41922 0
M  V30 1723 C 262.578 0.491279 -7.02284 0
M  V30 1724 C 261.868 0.996264 -5.77469 0
M  V30 1725 N 261.918 0.0501916 -4.62973 0
M  V30 1726 C 261.838 -1.32786 -4.63244 0
M  V30 1727 N 261.918 -1.86957 -3.44545 0
M  V30 1728 C 262.058 -0.780241 -2.58481 0
M  V30 1729 C 262.188 -0.738536 -1.17757 0
M  V30 1730 O 262.208 -1.66794 -0.372349 0
M  V30 1731 N 262.308 0.58337 -0.711393 0
M  V30 1732 C 262.308 1.70816 -1.51017 0
M  V30 1733 N 262.438 2.87826 -0.880757 0
M  V30 1734 N 262.178 1.67126 -2.8339 0
M  V30 1735 C 262.058 0.401421 -3.30572 0
M  V30 1736 H 259.079 -0.374722 -8.67691 0
M  V30 1737 H 258.809 -0.443485 -6.90277 0
M  V30 1738 H 259.676 1.75537 -7.96793 0
M  V30 1739 H 262.331 1.95076 -5.46529 0
M  V30 1740 H 262.61 -0.608565 -7.04577 0
M  V30 1741 H 263.602 0.889672 -7.08939 0
M  V30 1742 H 261.768 0.43308 -9.04564 0
M  V30 1743 H 261.719 -1.91249 -5.54442 0
M  V30 1744 H 262.401 0.718054 0.275244 0
M  V30 1745 H 262.438 3.75721 -1.41832 0
M  V30 1746 H 262.539 2.90436 0.145468 0
M  V30 1747 P 263.638 2.75334 -8.47391 0
M  V30 1748 O 263.858 3.84128 -9.44797 0
M  V30 1749 O 264.428 1.51947 -8.68712 0
M  V30 1750 O 263.888 3.29363 -6.99321 0
M  V30 1751 C 262.948 4.24011 -6.4274 0
M  V30 1752 C 263.678 5.20775 -5.52155 0
M  V30 1753 O 263.888 4.56534 -4.22446 0
M  V30 1754 C 265.078 5.62629 -5.96531 0
M  V30 1755 O 265.468 6.87667 -5.41053 0
M  V30 1756 C 265.958 4.52537 -5.39283 0
M  V30 1757 C 265.248 4.20027 -4.08623 0
M  V30 1758 N 265.298 2.76189 -3.71603 0
M  V30 1759 H 262.459 4.797 -7.24003 0
M  V30 1760 H 262.189 3.69856 -5.84513 0
M  V30 1761 H 263.056 6.10356 -5.41441 0
M  V30 1762 P 267.018 7.20834 -5.23717 0
M  V30 1763 O 267.238 8.66189 -5.38625 0
M  V30 1764 O 267.808 6.33615 -6.1356 0
M  V30 1765 O 267.268 6.7751 -3.72168 0
M  V30 1766 C 266.328 7.20732 -2.70725 0
M  V30 1767 C 267.058 7.45864 -1.40599 0
M  V30 1768 O 267.268 6.17651 -0.734225 0
M  V30 1769 C 268.458 8.05808 -1.51899 0
M  V30 1770 O 268.848 8.74358 -0.335205 0
M  V30 1771 C 269.338 6.83093 -1.70294 0
M  V30 1772 C 268.628 5.79992 -0.836974 0
M  V30 1773 N 268.678 4.41769 -1.38263 0
M  V30 1774 C 268.828 3.38591 -0.481702 0
M  V30 1775 O 268.918 3.56839 0.718452 0
M  V30 1776 N 268.868 2.1206 -1.03569 0
M  V30 1777 C 268.778 1.80696 -2.36966 0
M  V30 1778 O 268.828 0.630473 -2.74862 0
M  V30 1779 C 268.628 2.94845 -3.23898 0
M  V30 1780 C 268.518 2.65253 -4.70362 0
M  V30 1781 C 268.578 4.19803 -2.73435 0
M  V30 1782 H 265.838 8.13644 -3.0377 0
M  V30 1783 H 265.569 6.42695 -2.55448 0
M  V30 1784 H 266.436 8.12039 -0.792769 0
M  V30 1785 H 269.091 5.79978 0.160587 0
M  V30 1786 H 269.37 6.51379 -2.75643 0
M  V30 1787 H 270.362 7.01734 -1.34462 0
M  V30 1788 H 268.528 8.73674 -2.38337 0
M  V30 1789 H 268.457 5.04492 -3.4095 0
M  V30 1790 H 269.487 2.83924 -5.1913 0
M  V30 1791 H 267.75 3.29824 -5.15163 0
M  V30 1792 H 268.238 1.59723 -4.84449 0
M  V30 1793 H 268.974 1.35644 -0.399345 0
M  V30 1794 P 270.398 8.91 8.68872e-13 0
M  V30 1795 O 270.618 10.1726 0.733694 0
M  V30 1796 O 271.188 8.73148 -1.23936 0
M  V30 1797 O 270.648 7.66872 0.971405 0
M  V30 1798 C 269.708 7.42309 2.04641 0
M  V30 1799 C 270.438 6.86059 3.24661 0
M  V30 1800 O 270.648 5.42847 3.03646 0
M  V30 1801 C 271.838 7.41196 3.50753 0
M  V30 1802 O 272.228 7.27073 4.86816 0
M  V30 1803 C 272.718 6.5273 2.63741 0
M  V30 1804 C 272.008 5.1842 2.73198 0
M  V30 1805 N 272.058 4.38762 1.4784 0
M  V30 1806 H 269.219 8.36803 2.32493 0
M  V30 1807 H 268.949 6.70197 1.71129 0
M  V30 1808 H 269.816 7.03551 4.13168 0
M  V30 1809 P 273.778 7.20834 5.23717 0
M  V30 1810 O 273.998 7.79853 6.57286 0
M  V30 1811 O 274.568 7.79239 4.12957 0
M  V30 1812 O 274.028 5.63315 5.29344 0
M  V30 1813 C 273.088 4.80255 6.01876 0
M  V30 1814 C 273.818 3.64202 6.65911 0
M  V30 1815 O 274.028 2.60694 5.64732 0
M  V30 1816 C 275.218 3.93473 7.1943 0
M  V30 1817 O 275.608 3.02071 8.21205 0
M  V30 1818 C 276.098 3.73047 5.97036 0
M  V30 1819 C 275.388 2.58828 5.25741 0
M  V30 1820 N 275.438 2.68068 3.77503 0
M  V30 1821 H 272.599 5.40332 6.79951 0
M  V30 1822 H 272.329 4.41613 5.32378 0
M  V30 1823 H 273.196 3.26331 7.47797 0
M  V30 1824 P 277.158 2.75334 8.47391 0
M  V30 1825 O 277.378 2.44571 9.90142 0
M  V30 1826 O 277.948 3.87688 7.92115 0
M  V30 1827 O 277.408 1.4459 7.59357 0
M  V30 1828 C 276.468 0.347608 7.69215 0
M  V30 1829 C 277.198 -0.96767 7.52806 0
M  V30 1830 O 277.408 -1.21036 6.1011 0
M  V30 1831 C 278.598 -1.04544 8.13308 0
M  V30 1832 O 278.988 -2.38311 8.41922 0
M  V30 1833 C 279.478 -0.491279 7.02284 0
M  V30 1834 C 278.768 -0.996264 5.77469 0
M  V30 1835 N 278.818 -0.0501916 4.62973 0
M  V30 1836 H 275.979 0.374722 8.67691 0
M  V30 1837 H 275.709 0.443485 6.90277 0
M  V30 1838 H 276.576 -1.75537 7.96793 0
M  V30 1839 P 280.538 -2.75334 8.47391 0
M  V30 1840 O 280.758 -3.84128 9.44797 0
M  V30 1841 O 281.328 -1.51947 8.68712 0
M  V30 1842 O 280.788 -3.29363 6.99321 0
M  V30 1843 C 279.848 -4.24011 6.4274 0
M  V30 1844 C 280.578 -5.20775 5.52155 0
M  V30 1845 O 280.788 -4.56534 4.22446 0
M  V30 1846 C 281.978 -5.62629 5.96531 0
M  V30 1847 O 282.368 -6.87667 5.41053 0
M  V30 1848 C 282.858 -4.52537 5.39283 0
M  V30 1849 C 282.148 -4.20027 4.08623 0
M  V30 1850 N 282.198 -2.76189 3.71603 0
M  V30 1851 H 279.359 -4.797 7.24003 0
M  V30 1852 H 279.089 -3.69856 5.84513 0
M  V30 1853 H 279.956 -6.10356 5.41441 0
M  V30 1854 P 283.918 -7.20834 5.23717 0
M  V30 1855 O 284.138 -8.66274 5.38678 0
M  V30 1856 O 284.708 -6.33687 6.13629 0
M  V30 1857 O 284.168 -6.7751 3.72168 0
M  V30 1858 C 283.228 -7.20919 2.70795 0
M  V30 1859 C 283.958 -7.45864 1.40599 0
M  V30 1860 O 284.168 -6.17751 0.734343 0
M  V30 1861 C 285.358 -8.05906 1.51917 0
M  V30 1862 O 285.748 -8.74358 0.335205 0
M  V30 1863 C 286.238 -6.83093 1.70294 0
M  V30 1864 C 285.528 -5.79992 0.836974 0
M  V30 1865 N 285.578 -4.41864 1.38293 0
M  V30 1866 C 285.498 -4.02089 2.69407 0
M  V30 1867 N 285.568 -2.73403 2.85089 0
M  V30 1868 C 285.718 -2.25086 1.5642 0
M  V30 1869 C 285.848 -0.942887 1.04836 0
M  V30 1870 N 285.858 0.150999 1.80369 0
M  V30 1871 N 285.968 -0.812565 -0.28167 0
M  V30 1872 C 285.958 -1.90572 -1.03784 0
M  V30 1873 N 285.838 -3.167 -0.683905 0
M  V30 1874 C 285.718 -3.26538 0.652815 0
M  V30 1875 H 282.74 -8.13738 3.03804 0
M  V30 1876 H 282.468 -6.42974 2.55559 0
M  V30 1877 H 283.336 -8.12139 0.792866 0
M  V30 1878 H 285.991 -5.80178 -0.160643 0
M  V30 1879 H 286.271 -6.51379 2.75643 0
M  V30 1880 H 287.262 -7.01832 1.3448 0
M  V30 1881 H 285.428 -8.73771 2.38364 0
M  V30 1882 H 285.387 -4.7189 3.52311 0
M  V30 1883 H 285.768 0.0721434 2.82608 0
M  V30 1884 H 285.957 1.0785 1.36544 0
M  V30 1885 H 286.065 -1.73207 -2.10241 0
M  V30 1886 P 287.298 -8.91 -1.02605e-12 0
M  V30 1887 O 287.518 -10.1726 -0.733694 0
M  V30 1888 O 288.088 -8.73148 1.23936 0
M  V30 1889 O 287.548 -7.66872 -0.971405 0
M  V30 1890 C 286.608 -7.42309 -2.04641 0
M  V30 1891 C 287.338 -6.86059 -3.24661 0
M  V30 1892 O 287.548 -5.42847 -3.03646 0
M  V30 1893 C 288.738 -7.41196 -3.50753 0
M  V30 1894 O 289.128 -7.27073 -4.86816 0
M  V30 1895 C 289.618 -6.5273 -2.63741 0
M  V30 1896 C 288.908 -5.1842 -2.73198 0
M  V30 1897 N 288.958 -4.38762 -1.4784 0
M  V30 1898 H 286.119 -8.36803 -2.32493 0
M  V30 1899 H 285.849 -6.70197 -1.71129 0
M  V30 1900 H 286.716 -7.03551 -4.13168 0
M  V30 1901 P 290.678 -7.20834 -5.23717 0
M  V30 1902 O 290.898 -7.79853 -6.57286 0
M  V30 1903 O 291.468 -7.79239 -4.12957 0
M  V30 1904 O 290.928 -5.63315 -5.29344 0
M  V30 1905 C 289.988 -4.80255 -6.01876 0
M  V30 1906 C 290.718 -3.64202 -6.65911 0
M  V30 1907 O 290.928 -2.60694 -5.64732 0
M  V30 1908 C 292.118 -3.93473 -7.1943 0
M  V30 1909 O 292.508 -3.02071 -8.21205 0
M  V30 1910 C 292.998 -3.73047 -5.97036 0
M  V30 1911 C 292.288 -2.58828 -5.25741 0
M  V30 1912 N 292.338 -2.68068 -3.77503 0
M  V30 1913 H 289.499 -5.40332 -6.79951 0
M  V30 1914 H 289.229 -4.41613 -5.32378 0
M  V30 1915 H 290.096 -3.26331 -7.47797 0
M  V30 1916 P 294.058 -2.75334 -8.47391 0
M  V30 1917 O 294.278 -2.44571 -9.90142 0
M  V30 1918 O 294.848 -3.87688 -7.92115 0
M  V30 1919 O 294.308 -1.4459 -7.59357 0
M  V30 1920 C 293.368 -0.347608 -7.69215 0
M  V30 1921 C 294.098 0.96767 -7.52806 0
M  V30 1922 O 294.308 1.21036 -6.1011 0
M  V30 1923 C 295.498 1.04544 -8.13308 0
M  V30 1924 O 295.888 2.38311 -8.41922 0
M  V30 1925 C 296.378 0.491279 -7.02284 0
M  V30 1926 C 295.668 0.996264 -5.77469 0
M  V30 1927 N 295.718 0.0501916 -4.62973 0
M  V30 1928 H 292.879 -0.374722 -8.67691 0
M  V30 1929 H 292.609 -0.443485 -6.90277 0
M  V30 1930 H 293.476 1.75537 -7.96793 0
M  V30 1931 P 297.438 2.75334 -8.47391 0
M  V30 1932 O 297.658 3.84128 -9.44797 0
M  V30 1933 O 298.228 1.51947 -8.68712 0
M  V30 1934 O 297.688 3.29363 -6.99321 0
M  V30 1935 C 296.748 4.24011 -6.4274 0
M  V30 1936 C 297.478 5.20775 -5.52155 0
M  V30 1937 O 297.688 4.56534 -4.22446 0
M  V30 1938 C 298.878 5.62629 -5.96531 0
M  V30 1939 O 299.268 6.87667 -5.41053 0
M  V30 1940 C 299.758 4.52537 -5.39283 0
M  V30 1941 C 299.048 4.20027 -4.08623 0
M  V30 1942 N 299.098 2.76189 -3.71603 0
M  V30 1943 H 296.259 4.797 -7.24003 0
M  V30 1944 H 295.989 3.69856 -5.84513 0
M  V30 1945 H 296.856 6.10356 -5.41441 0
M  V30 1946 P 300.818 7.20834 -5.23717 0
M  V30 1947 O 301.038 8.66104 -5.38572 0
M  V30 1948 O 301.608 6.33544 -6.1349 0
M  V30 1949 O 301.068 6.7751 -3.72168 0
M  V30 1950 C 300.128 7.20825 -2.7076 0
M  V30 1951 C 300.858 7.45864 -1.40599 0
M  V30 1952 O 301.068 6.17651 -0.734225 0
M  V30 1953 C 302.258 8.05808 -1.51899 0
M  V30 1954 O 302.648 8.74358 -0.335205 0
M  V30 1955 C 303.138 6.83093 -1.70294 0
M  V30 1956 C 302.428 5.79992 -0.836974 0
M  V30 1957 N 302.478 4.41864 -1.38293 0
M  V30 1958 H 299.639 8.13644 -3.0377 0
M  V30 1959 H 299.369 6.42788 -2.55485 0
M  V30 1960 H 300.236 8.12039 -0.792769 0
M  V30 1961 P 304.198 8.91 1.18324e-12 0
M  V30 1962 O 304.418 10.1746 0.733838 0
M  V30 1963 O 304.988 8.73346 -1.23964 0
M  V30 1964 O 304.448 7.66872 0.971405 0
M  V30 1965 C 303.508 7.42405 2.04668 0
M  V30 1966 C 304.238 6.86059 3.24661 0
M  V30 1967 O 304.448 5.42934 3.03695 0
M  V30 1968 C 305.638 7.41287 3.50796 0
M  V30 1969 O 306.028 7.27073 4.86816 0
M  V30 1970 C 306.518 6.5273 2.63741 0
M  V30 1971 C 305.808 5.1842 2.73198 0
M  V30 1972 N 305.858 4.38762 1.4784 0
M  V30 1973 H 303.02 8.36899 2.3252 0
M  V30 1974 H 302.748 6.70391 1.71179 0
M  V30 1975 H 303.616 7.03638 4.13219 0
M  V30 1976 H 306.271 4.59931 3.54016 0
M  V30 1977 H 306.551 6.88995 1.59871 0
M  V30 1978 H 307.542 6.4684 3.0373 0
M  V30 1979 H 305.708 8.47002 3.20749 0
M  V30 1980 P 307.578 7.20834 5.23717 0
M  V30 1981 O 307.798 7.79853 6.57286 0
M  V30 1982 O 308.368 7.79239 4.12957 0
M  V30 1983 O 307.828 5.63315 5.29344 0
M  V30 1984 C 306.888 4.80255 6.01876 0
M  V30 1985 C 307.618 3.64202 6.65911 0
M  V30 1986 O 307.828 2.60694 5.64732 0
M  V30 1987 C 309.018 3.93473 7.1943 0
M  V30 1988 O 309.408 3.02071 8.21205 0
M  V30 1989 C 309.898 3.73047 5.97036 0
M  V30 1990 C 309.188 2.58828 5.25741 0
M  V30 1991 N 309.238 2.68068 3.77503 0
M  V30 1992 H 306.399 5.40332 6.79951 0
M  V30 1993 H 306.129 4.41613 5.32378 0
M  V30 1994 H 306.996 3.26331 7.47797 0
M  V30 1995 P 310.958 2.75334 8.47391 0
M  V30 1996 O 311.178 2.44571 9.90142 0
M  V30 1997 O 311.748 3.87688 7.92115 0
M  V30 1998 O 311.208 1.4459 7.59357 0
M  V30 1999 C 310.268 0.347608 7.69215 0
M  V30 2000 C 310.998 -0.96767 7.52806 0
M  V30 2001 O 311.208 -1.21036 6.1011 0
M  V30 2002 C 312.398 -1.04544 8.13308 0
M  V30 2003 O 312.788 -2.38311 8.41922 0
M  V30 2004 C 313.278 -0.491279 7.02284 0
M  V30 2005 C 312.568 -0.996264 5.77469 0
M  V30 2006 N 312.618 -0.0501916 4.62973 0
M  V30 2007 H 309.779 0.374722 8.67691 0
M  V30 2008 H 309.509 0.443485 6.90277 0
M  V30 2009 H 310.376 -1.75537 7.96793 0
M  V30 2010 P 314.338 -2.75334 8.47391 0
M  V30 2011 O 314.558 -3.84166 9.4489 0
M  V30 2012 O 315.128 -1.51964 8.6881 0
M  V30 2013 O 314.588 -3.29363 6.99321 0
M  V30 2014 C 313.648 -4.23956 6.42656 0
M  V30 2015 C 314.378 -5.20775 5.52155 0
M  V30 2016 O 314.588 -4.56534 4.22446 0
M  V30 2017 C 315.778 -5.62629 5.96531 0
M  V30 2018 O 316.168 -6.87667 5.41053 0
M  V30 2019 C 316.658 -4.52537 5.39283 0
M  V30 2020 C 315.948 -4.20027 4.08623 0
M  V30 2021 N 315.998 -2.7613 3.71522 0
M  V30 2022 C 316.148 -2.45612 2.37989 0
M  V30 2023 O 316.238 -3.30919 1.51621 0
M  V30 2024 N 316.188 -1.10684 2.08435 0
M  V30 2025 C 316.098 -0.0690084 2.9792 0
M  V30 2026 O 316.148 1.10553 2.59426 0
M  V30 2027 C 315.948 -0.481522 4.35345 0
M  V30 2028 C 315.838 0.618778 5.36443 0
M  V30 2029 C 315.898 -1.78906 4.67968 0
M  V30 2030 H 313.158 -4.797 7.24003 0
M  V30 2031 H 312.889 -3.69802 5.84429 0
M  V30 2032 H 313.756 -6.10356 5.41441 0
M  V30 2033 H 316.411 -4.78651 3.27911 0
M  V30 2034 H 316.69 -3.64957 6.05871 0
M  V30 2035 H 317.682 -4.8868 5.2125 0
M  V30 2036 H 315.848 -5.66726 7.06352 0
M  V30 2037 H 315.777 -2.07737 5.72367 0
M  V30 2038 H 316.807 0.754375 5.86871 0
M  V30 2039 H 315.07 0.359721 6.10641 0
M  V30 2040 H 315.558 1.55533 4.8581 0
M  V30 2041 H 316.294 -0.862651 1.12037 0
M  V30 2042 P 317.718 -7.20834 5.23717 0
M  V30 2043 O 317.938 -8.66104 5.38572 0
M  V30 2044 O 318.508 -6.33544 6.1349 0
M  V30 2045 O 317.968 -6.7751 3.72168 0
M  V30 2046 C 317.028 -7.20825 2.7076 0
M  V30 2047 C 317.758 -7.45864 1.40599 0
M  V30 2048 O 317.968 -6.17651 0.734225 0
M  V30 2049 C 319.158 -8.05808 1.51899 0
M  V30 2050 O 319.548 -8.74358 0.335205 0
M  V30 2051 C 320.038 -6.83093 1.70294 0
M  V30 2052 C 319.328 -5.79992 0.836974 0
M  V30 2053 N 319.378 -4.41864 1.38293 0
M  V30 2054 H 316.539 -8.13644 3.0377 0
M  V30 2055 H 316.269 -6.42788 2.55485 0
M  V30 2056 H 317.136 -8.12039 0.792769 0
M  V30 2057 P 321.098 -8.91 -1.34042e-12 0
M  V30 2058 O 321.318 -10.1726 -0.733694 0
M  V30 2059 O 321.888 -8.73148 1.23936 0
M  V30 2060 O 321.348 -7.66872 -0.971405 0
M  V30 2061 C 320.408 -7.42309 -2.04641 0
M  V30 2062 C 321.138 -6.86059 -3.24661 0
M  V30 2063 O 321.348 -5.42847 -3.03646 0
M  V30 2064 C 322.538 -7.41196 -3.50753 0
M  V30 2065 O 322.928 -7.27073 -4.86816 0
M  V30 2066 C 323.418 -6.5273 -2.63741 0
M  V30 2067 C 322.708 -5.1842 -2.73198 0
M  V30 2068 N 322.758 -4.38762 -1.4784 0
M  V30 2069 C 322.678 -4.81605 -0.168631 0
M  V30 2070 N 322.758 -3.85454 0.713363 0
M  V30 2071 C 322.898 -2.6994 -0.0566958 0
M  V30 2072 C 323.028 -1.34815 0.338502 0
M  V30 2073 O 323.048 -0.869548 1.47125 0
M  V30 2074 N 323.148 -0.496304 -0.77465 0
M  V30 2075 C 323.148 -0.908403 -2.09122 0
M  V30 2076 N 323.278 0.0517805 -3.00955 0
M  V30 2077 N 323.018 -2.17875 -2.46519 0
M  V30 2078 C 322.898 -3.01988 -1.4033 0
M  V30 2079 H 319.919 -8.36803 -2.32493 0
M  V30 2080 H 319.649 -6.70197 -1.71129 0
M  V30 2081 H 320.516 -7.03551 -4.13168 0
M  V30 2082 H 323.171 -4.59498 -3.54415 0
M  V30 2083 H 323.45 -6.88898 -1.59848 0
M  V30 2084 H 324.442 -6.46749 -3.03687 0
M  V30 2085 H 322.608 -8.46908 -3.20714 0
M  V30 2086 H 322.559 -5.86405 0.105564 0
M  V30 2087 H 323.241 0.483664 -0.597855 0
M  V30 2088 H 323.278 -0.187865 -4.0116 0
M  V30 2089 H 323.379 1.03585 -2.71726 0
M  V30 2090 P 324.478 -7.20834 -5.23717 0
M  V30 2091 O 324.698 -7.79853 -6.57286 0
M  V30 2092 O 325.268 -7.79239 -4.12957 0
M  V30 2093 O 324.728 -5.63315 -5.29344 0
M  V30 2094 C 323.788 -4.80255 -6.01876 0
M  V30 2095 C 324.518 -3.64202 -6.65911 0
M  V30 2096 O 324.728 -2.60694 -5.64732 0
M  V30 2097 C 325.918 -3.93473 -7.1943 0
M  V30 2098 O 326.308 -3.02071 -8.21205 0
M  V30 2099 C 326.798 -3.73047 -5.97036 0
M  V30 2100 C 326.088 -2.58828 -5.25741 0
M  V30 2101 N 326.138 -2.68068 -3.77503 0
M  V30 2102 C 326.058 -3.79715 -2.96723 0
M  V30 2103 N 326.138 -3.5377 -1.68852 0
M  V30 2104 C 326.278 -2.15054 -1.63254 0
M  V30 2105 C 326.408 -1.28964 -0.518571 0
M  V30 2106 O 326.428 -1.56826 0.679156 0
M  V30 2107 N 326.528 0.0538097 -0.918425 0
M  V30 2108 C 326.528 0.494275 -2.22578 0
M  V30 2109 N 326.658 1.81086 -2.40434 0
M  V30 2110 N 326.398 -0.313645 -3.27502 0
M  V30 2111 C 326.278 -1.61829 -2.91033 0
M  V30 2112 H 323.299 -5.40332 -6.79951 0
M  V30 2113 H 323.029 -4.41613 -5.32378 0
M  V30 2114 H 323.896 -3.26331 -7.47797 0
M  V30 2115 H 326.551 -1.63422 -5.56814 0
M  V30 2116 H 326.83 -4.63374 -5.34244 0
M  V30 2117 H 327.822 -3.44728 -6.25838 0
M  V30 2118 H 325.988 -4.96652 -7.57263 0
M  V30 2119 H 325.939 -4.80617 -3.3614 0
M  V30 2120 H 326.621 0.742702 -0.199384 0
M  V30 2121 H 326.658 2.20598 -3.35588 0
M  V30 2122 H 326.759 2.43518 -1.58945 0
M  V30 2123 P 327.858 -2.75334 -8.47391 0
M  V30 2124 O 328.078 -2.44571 -9.90142 0
M  V30 2125 O 328.648 -3.87688 -7.92115 0
M  V30 2126 O 328.108 -1.4459 -7.59357 0
M  V30 2127 C 327.168 -0.347608 -7.69215 0
M  V30 2128 C 327.898 0.96767 -7.52806 0
M  V30 2129 O 328.108 1.21036 -6.1011 0
M  V30 2130 C 329.298 1.04544 -8.13308 0
M  V30 2131 O 329.688 2.38311 -8.41922 0
M  V30 2132 C 330.178 0.491279 -7.02284 0
M  V30 2133 C 329.468 0.996264 -5.77469 0
M  V30 2134 N 329.518 0.0501916 -4.62973 0
M  V30 2135 H 326.679 -0.374722 -8.67691 0
M  V30 2136 H 326.409 -0.443485 -6.90277 0
M  V30 2137 H 327.276 1.75537 -7.96793 0
M  V30 2138 P 331.238 2.75334 -8.47391 0
M  V30 2139 O 331.458 3.84128 -9.44797 0
M  V30 2140 O 332.028 1.51947 -8.68712 0
M  V30 2141 O 331.488 3.29363 -6.99321 0
M  V30 2142 C 330.548 4.24011 -6.4274 0
M  V30 2143 C 331.278 5.20775 -5.52155 0
M  V30 2144 O 331.488 4.56534 -4.22446 0
M  V30 2145 C 332.678 5.62629 -5.96531 0
M  V30 2146 O 333.068 6.87667 -5.41053 0
M  V30 2147 C 333.558 4.52537 -5.39283 0
M  V30 2148 C 332.848 4.20027 -4.08623 0
M  V30 2149 N 332.898 2.76189 -3.71603 0
M  V30 2150 H 330.059 4.797 -7.24003 0
M  V30 2151 H 329.789 3.69856 -5.84513 0
M  V30 2152 H 330.656 6.10356 -5.41441 0
M  V30 2153 P 334.618 7.20834 -5.23717 0
M  V30 2154 O 334.838 8.66104 -5.38572 0
M  V30 2155 O 335.408 6.33544 -6.1349 0
M  V30 2156 O 334.868 6.7751 -3.72168 0
M  V30 2157 C 333.928 7.20825 -2.7076 0
M  V30 2158 C 334.658 7.45864 -1.40599 0
M  V30 2159 O 334.868 6.17651 -0.734225 0
M  V30 2160 C 336.058 8.05808 -1.51899 0
M  V30 2161 O 336.448 8.74358 -0.335205 0
M  V30 2162 C 336.938 6.83093 -1.70294 0
M  V30 2163 C 336.228 5.79992 -0.836974 0
M  V30 2164 N 336.278 4.41864 -1.38293 0
M  V30 2165 H 333.439 8.13644 -3.0377 0
M  V30 2166 H 333.169 6.42788 -2.55485 0
M  V30 2167 H 334.036 8.12039 -0.792769 0
M  V30 2168 P 337.998 8.91 1.4976e-12 0
M  V30 2169 O 338.218 10.1746 0.733838 0
M  V30 2170 O 338.788 8.73346 -1.23964 0
M  V30 2171 O 338.248 7.66872 0.971405 0
M  V30 2172 C 337.308 7.42405 2.04668 0
M  V30 2173 C 338.038 6.86059 3.24661 0
M  V30 2174 O 338.248 5.42934 3.03695 0
M  V30 2175 C 339.438 7.41287 3.50796 0
M  V30 2176 O 339.828 7.27073 4.86816 0
M  V30 2177 C 340.318 6.5273 2.63741 0
M  V30 2178 C 339.608 5.1842 2.73198 0
M  V30 2179 N 339.658 4.38762 1.4784 0
M  V30 2180 C 339.578 4.83651 0.183876 0
M  V30 2181 N 339.648 3.88759 -0.699393 0
M  V30 2182 C 339.798 2.7404 0.0575568 0
M  V30 2183 C 339.928 1.37902 -0.293928 0
M  V30 2184 N 339.938 0.938021 -1.54797 0
M  V30 2185 N 340.048 0.491817 0.70549 0
M  V30 2186 C 340.038 0.931735 1.95979 0
M  V30 2187 N 339.918 2.16017 2.41481 0
M  V30 2188 C 339.798 3.02547 1.39121 0
M  V30 2189 H 336.82 8.36899 2.3252 0
M  V30 2190 H 336.548 6.70391 1.71179 0
M  V30 2191 H 337.416 7.03638 4.13219 0
M  V30 2192 H 340.071 4.59931 3.54016 0
M  V30 2193 H 340.351 6.88995 1.59871 0
M  V30 2194 H 341.342 6.4684 3.0373 0
M  V30 2195 H 339.508 8.47002 3.20749 0
M  V30 2196 H 339.467 5.8885 -0.0765548 0
M  V30 2197 H 339.848 1.60276 -2.32875 0
M  V30 2198 H 340.037 -0.0699355 -1.73859 0
M  V30 2199 H 340.145 0.165507 2.71897 0
M  V30 2200 P 341.378 7.20834 5.23717 0
M  V30 2201 O 341.598 7.80006 6.57415 0
M  V30 2202 O 342.168 7.79416 4.13051 0
M  V30 2203 O 341.628 5.63315 5.29344 0
M  V30 2204 C 340.688 4.80318 6.01954 0
M  V30 2205 C 341.418 3.64202 6.65911 0
M  V30 2206 O 341.628 2.60736 5.64823 0
M  V30 2207 C 342.818 3.93521 7.19518 0
M  V30 2208 O 343.208 3.02071 8.21205 0
M  V30 2209 C 343.698 3.73047 5.97036 0
M  V30 2210 C 342.988 2.58828 5.25741 0
M  V30 2211 N 343.038 2.68068 3.77503 0
M  V30 2212 C 342.958 3.80474 2.99159 0
M  V30 2213 N 343.028 3.55622 1.71925 0
M  V30 2214 C 343.178 2.1832 1.65733 0
M  V30 2215 C 343.308 1.28842 0.572777 0
M  V30 2216 N 343.318 1.66875 -0.70098 0
M  V30 2217 N 343.428 -0.016788 0.859836 0
M  V30 2218 C 343.418 -0.398145 2.13316 0
M  V30 2219 N 343.298 0.328224 3.22333 0
M  V30 2220 C 343.178 1.62992 2.90383 0
M  V30 2221 H 340.2 5.40394 6.8003 0
M  V30 2222 H 339.928 4.41741 5.32532 0
M  V30 2223 H 340.796 3.26371 7.47889 0
M  V30 2224 H 343.451 1.64007 5.56746 0
M  V30 2225 H 343.731 4.63439 5.3432 0
M  V30 2226 H 344.722 3.44776 6.25925 0
M  V30 2227 H 342.888 4.96707 7.57347 0
M  V30 2228 H 342.847 4.8089 3.39924 0
M  V30 2229 H 343.228 2.66547 -0.941919 0
M  V30 2230 H 343.417 0.965341 -1.44766 0
M  V30 2231 H 343.525 -1.46427 2.29697 0
M  V30 2232 P 344.758 2.75334 8.47391 0
M  V30 2233 O 344.978 2.44595 9.90239 0
M  V30 2234 O 345.548 3.87732 7.92204 0
M  V30 2235 O 345.008 1.4459 7.59357 0
M  V30 2236 C 344.068 0.347563 7.69115 0
M  V30 2237 C 344.798 -0.96767 7.52806 0
M  V30 2238 O 345.008 -1.21036 6.1011 0
M  V30 2239 C 346.198 -1.04544 8.13308 0
M  V30 2240 O 346.588 -2.38311 8.41922 0
M  V30 2241 C 347.078 -0.491279 7.02284 0
M  V30 2242 C 346.368 -0.996264 5.77469 0
M  V30 2243 N 346.418 -0.0501808 4.62873 0
M  V30 2244 C 346.568 -0.588177 3.36904 0
M  V30 2245 O 346.658 -1.78598 3.17173 0
M  V30 2246 N 346.608 0.329694 2.33686 0
M  V30 2247 C 346.518 1.6953 2.45079 0
M  V30 2248 O 346.568 2.41926 1.44899 0
M  V30 2249 C 346.368 2.16933 3.80505 0
M  V30 2250 C 346.258 3.65373 3.97621 0
M  V30 2251 C 346.318 1.30326 4.83752 0
M  V30 2252 H 343.578 0.374722 8.67691 0
M  V30 2253 H 343.309 0.443421 6.90177 0
M  V30 2254 H 344.176 -1.75537 7.96793 0
M  V30 2255 H 346.831 -1.94496 5.46629 0
M  V30 2256 H 347.11 0.608651 7.04676 0
M  V30 2257 H 348.102 -0.889672 7.08939 0
M  V30 2258 H 346.268 -0.43308 9.04564 0
M  V30 2259 H 346.197 1.68366 5.8516 0
M  V30 2260 H 347.227 4.05985 4.30448 0
M  V30 2261 H 345.49 3.88028 4.72875 0
M  V30 2262 H 345.978 4.11381 3.01609 0
M  V30 2263 H 346.714 -0.0393617 1.41345 0
M  V30 2264 P 348.138 -2.75334 8.47391 0
M  V30 2265 O 348.358 -3.84128 9.44797 0
M  V30 2266 O 348.928 -1.51947 8.68712 0
M  V30 2267 O 348.388 -3.29363 6.99321 0
M  V30 2268 C 347.448 -4.24011 6.4274 0
M  V30 2269 C 348.178 -5.20775 5.52155 0
M  V30 2270 O 348.388 -4.56534 4.22446 0
M  V30 2271 C 349.578 -5.62629 5.96531 0
M  V30 2272 O 349.968 -6.87667 5.41053 0
M  V30 2273 C 350.458 -4.52537 5.39283 0
M  V30 2274 C 349.748 -4.20027 4.08623 0
M  V30 2275 N 349.798 -2.76189 3.71603 0
M  V30 2276 H 346.959 -4.797 7.24003 0
M  V30 2277 H 346.689 -3.69856 5.84513 0
M  V30 2278 H 347.556 -6.10356 5.41441 0
M  V30 2279 P 351.518 -7.20834 5.23717 0
M  V30 2280 O 351.738 -8.66274 5.38678 0
M  V30 2281 O 352.308 -6.33687 6.13629 0
M  V30 2282 O 351.768 -6.7751 3.72168 0
M  V30 2283 C 350.828 -7.20919 2.70795 0
M  V30 2284 C 351.558 -7.45864 1.40599 0
M  V30 2285 O 351.768 -6.17751 0.734343 0
M  V30 2286 C 352.958 -8.05906 1.51917 0
M  V30 2287 O 353.348 -8.74358 0.335205 0
M  V30 2288 C 353.838 -6.83093 1.70294 0
M  V30 2289 C 353.128 -5.79992 0.836974 0
M  V30 2290 N 353.178 -4.41864 1.38293 0
M  V30 2291 C 353.098 -4.02089 2.69407 0
M  V30 2292 N 353.168 -2.73403 2.85089 0
M  V30 2293 C 353.318 -2.25086 1.5642 0
M  V30 2294 C 353.448 -0.942887 1.04836 0
M  V30 2295 N 353.458 0.150999 1.80369 0
M  V30 2296 N 353.568 -0.812565 -0.28167 0
M  V30 2297 C 353.558 -1.90572 -1.03784 0
M  V30 2298 N 353.438 -3.167 -0.683905 0
M  V30 2299 C 353.318 -3.26538 0.652815 0
M  V30 2300 H 350.34 -8.13738 3.03804 0
M  V30 2301 H 350.068 -6.42974 2.55559 0
M  V30 2302 H 350.936 -8.12139 0.792866 0
M  V30 2303 H 353.591 -5.80178 -0.160643 0
M  V30 2304 H 353.871 -6.51379 2.75643 0
M  V30 2305 H 354.862 -7.01832 1.3448 0
M  V30 2306 H 353.028 -8.73771 2.38364 0
M  V30 2307 H 352.987 -4.7189 3.52311 0
M  V30 2308 H 353.368 0.0721434 2.82608 0
M  V30 2309 H 353.557 1.0785 1.36544 0
M  V30 2310 H 353.665 -1.73207 -2.10241 0
M  V30 2311 P 354.898 -8.91 -1.65478e-12 0
M  V30 2312 O 355.118 -10.1726 -0.733694 0
M  V30 2313 O 355.688 -8.73148 1.23936 0
M  V30 2314 O 355.148 -7.66872 -0.971405 0
M  V30 2315 C 354.208 -7.42309 -2.04641 0
M  V30 2316 C 354.938 -6.86059 -3.24661 0
M  V30 2317 O 355.148 -5.42847 -3.03646 0
M  V30 2318 C 356.338 -7.41196 -3.50753 0
M  V30 2319 O 356.728 -7.27073 -4.86816 0
M  V30 2320 C 357.218 -6.5273 -2.63741 0
M  V30 2321 C 356.508 -5.1842 -2.73198 0
M  V30 2322 N 356.558 -4.38762 -1.4784 0
M  V30 2323 H 353.719 -8.36803 -2.32493 0
M  V30 2324 H 353.449 -6.70197 -1.71129 0
M  V30 2325 H 354.316 -7.03551 -4.13168 0
M  V30 2326 P 358.278 -7.20834 -5.23717 0
M  V30 2327 O 358.498 -7.79853 -6.57286 0
M  V30 2328 O 359.068 -7.79239 -4.12957 0
M  V30 2329 O 358.528 -5.63315 -5.29344 0
M  V30 2330 C 357.588 -4.80255 -6.01876 0
M  V30 2331 C 358.318 -3.64202 -6.65911 0
M  V30 2332 O 358.528 -2.60694 -5.64732 0
M  V30 2333 C 359.718 -3.93473 -7.1943 0
M  V30 2334 O 360.108 -3.02071 -8.21205 0
M  V30 2335 C 360.598 -3.73047 -5.97036 0
M  V30 2336 C 359.888 -2.58828 -5.25741 0
M  V30 2337 N 359.938 -2.68068 -3.77503 0
M  V30 2338 H 357.099 -5.40332 -6.79951 0
M  V30 2339 H 356.829 -4.41613 -5.32378 0
M  V30 2340 H 357.696 -3.26331 -7.47797 0
M  V30 2341 P 361.658 -2.75334 -8.47391 0
M  V30 2342 O 361.878 -2.44571 -9.90142 0
M  V30 2343 O 362.448 -3.87688 -7.92115 0
M  V30 2344 O 361.908 -1.4459 -7.59357 0
M  V30 2345 C 360.968 -0.347608 -7.69215 0
M  V30 2346 C 361.698 0.96767 -7.52806 0
M  V30 2347 O 361.908 1.21036 -6.1011 0
M  V30 2348 C 363.098 1.04544 -8.13308 0
M  V30 2349 O 363.488 2.38311 -8.41922 0
M  V30 2350 C 363.978 0.491279 -7.02284 0
M  V30 2351 C 363.268 0.996264 -5.77469 0
M  V30 2352 N 363.318 0.0501916 -4.62973 0
M  V30 2353 H 360.479 -0.374722 -8.67691 0
M  V30 2354 H 360.209 -0.443485 -6.90277 0
M  V30 2355 H 361.076 1.75537 -7.96793 0
M  V30 2356 P 365.038 2.75334 -8.47391 0
M  V30 2357 O 365.258 3.84204 -9.44982 0
M  V30 2358 O 365.828 1.51982 -8.68909 0
M  V30 2359 O 365.288 3.29363 -6.99321 0
M  V30 2360 C 364.348 4.24066 -6.42823 0
M  V30 2361 C 365.078 5.20775 -5.52155 0
M  V30 2362 O 365.288 4.56607 -4.22514 0
M  V30 2363 C 366.478 5.62697 -5.96604 0
M  V30 2364 O 366.868 6.87667 -5.41053 0
M  V30 2365 C 367.358 4.52537 -5.39283 0
M  V30 2366 C 366.648 4.20027 -4.08623 0
M  V30 2367 N 366.698 2.76189 -3.71603 0
M  V30 2368 H 363.86 4.79756 -7.24086 0
M  V30 2369 H 363.588 3.69963 -5.84682 0
M  V30 2370 H 364.456 6.10431 -5.41508 0
M  V30 2371 H 367.111 4.78816 -3.28024 0
M  V30 2372 H 367.391 3.64957 -6.05871 0
M  V30 2373 H 368.382 4.88748 -5.21323 0
M  V30 2374 H 366.548 5.66789 -7.0643 0
M  V30 2375 P 368.418 7.20834 -5.23717 0
M  V30 2376 O 368.638 8.66189 -5.38625 0
M  V30 2377 O 369.208 6.33615 -6.1356 0
M  V30 2378 O 368.668 6.7751 -3.72168 0
M  V30 2379 C 367.728 7.20732 -2.70725 0
M  V30 2380 C 368.458 7.45864 -1.40599 0
M  V30 2381 O 368.668 6.17651 -0.734225 0
M  V30 2382 C 369.858 8.05808 -1.51899 0
M  V30 2383 O 370.248 8.74358 -0.335205 0
M  V30 2384 C 370.738 6.83093 -1.70294 0
M  V30 2385 C 370.028 5.79992 -0.836974 0
M  V30 2386 N 370.078 4.41769 -1.38263 0
M  V30 2387 C 370.228 3.38591 -0.481702 0
M  V30 2388 O 370.318 3.56839 0.718452 0
M  V30 2389 N 370.268 2.1206 -1.03569 0
M  V30 2390 C 370.178 1.80696 -2.36966 0
M  V30 2391 O 370.228 0.630473 -2.74862 0
M  V30 2392 C 370.028 2.94845 -3.23898 0
M  V30 2393 C 369.918 2.65253 -4.70362 0
M  V30 2394 C 369.978 4.19803 -2.73435 0
M  V30 2395 H 367.238 8.13644 -3.0377 0
M  V30 2396 H 366.969 6.42695 -2.55448 0
M  V30 2397 H 367.836 8.12039 -0.792769 0
M  V30 2398 H 370.491 5.79978 0.160587 0
M  V30 2399 H 370.77 6.51379 -2.75643 0
M  V30 2400 H 371.762 7.01734 -1.34462 0
M  V30 2401 H 369.928 8.73674 -2.38337 0
M  V30 2402 H 369.857 5.04492 -3.4095 0
M  V30 2403 H 370.887 2.83924 -5.1913 0
M  V30 2404 H 369.15 3.29824 -5.15163 0
M  V30 2405 H 369.638 1.59723 -4.84449 0
M  V30 2406 H 370.374 1.35644 -0.399345 0
M  V30 2407 P 371.798 8.91 1.81197e-12 0
M  V30 2408 O 372.018 10.1736 0.733766 0
M  V30 2409 O 372.588 8.73247 -1.2395 0
M  V30 2410 O 372.048 7.66872 0.971405 0
M  V30 2411 C 371.108 7.42212 2.04614 0
M  V30 2412 C 371.838 6.86059 3.24661 0
M  V30 2413 O 372.048 5.42847 3.03646 0
M  V30 2414 C 373.238 7.41196 3.50753 0
M  V30 2415 O 373.628 7.27073 4.86816 0
M  V30 2416 C 374.118 6.5273 2.63741 0
M  V30 2417 C 373.408 5.1842 2.73198 0
M  V30 2418 N 373.458 4.38668 1.47808 0
M  V30 2419 C 373.608 3.02239 1.60048 0
M  V30 2420 O 373.698 2.46459 2.67869 0
M  V30 2421 N 373.648 2.32436 0.408571 0
M  V30 2422 C 373.558 2.85471 -0.854993 0
M  V30 2423 O 373.608 2.12566 -1.8531 0
M  V30 2424 C 373.408 4.28918 -0.887335 0
M  V30 2425 C 373.298 4.91066 -2.24619 0
M  V30 2426 C 373.358 5.00349 0.255399 0
M  V30 2427 H 370.618 8.36803 2.32493 0
M  V30 2428 H 370.349 6.701 1.71105 0
M  V30 2429 H 371.216 7.03551 4.13168 0
M  V30 2430 H 373.871 4.59773 3.53894 0
M  V30 2431 H 374.15 6.88995 1.59871 0
M  V30 2432 H 375.142 6.46749 3.03687 0
M  V30 2433 H 373.308 8.46908 3.20714 0
M  V30 2434 H 373.237 6.08548 0.206986 0
M  V30 2435 H 374.267 5.34836 -2.53099 0
M  V30 2436 H 372.53 5.69638 -2.2291 0
M  V30 2437 H 373.018 4.13971 -2.98044 0
M  V30 2438 H 373.754 1.33211 0.474216 0
M  V30 2439 P 375.178 7.20834 5.23717 0
M  V30 2440 O 375.398 7.79853 6.57286 0
M  V30 2441 O 375.968 7.79239 4.12957 0
M  V30 2442 O 375.428 5.63315 5.29344 0
M  V30 2443 C 374.488 4.80255 6.01876 0
M  V30 2444 C 375.218 3.64202 6.65911 0
M  V30 2445 O 375.428 2.60694 5.64732 0
M  V30 2446 C 376.618 3.93473 7.1943 0
M  V30 2447 O 377.008 3.02071 8.21205 0
M  V30 2448 C 377.498 3.73047 5.97036 0
M  V30 2449 C 376.788 2.58828 5.25741 0
M  V30 2450 N 376.838 2.68068 3.77503 0
M  V30 2451 H 373.999 5.40332 6.79951 0
M  V30 2452 H 373.729 4.41613 5.32378 0
M  V30 2453 H 374.596 3.26331 7.47797 0
M  V30 2454 P 378.558 2.75334 8.47391 0
M  V30 2455 O 378.778 2.44571 9.90142 0
M  V30 2456 O 379.348 3.87688 7.92115 0
M  V30 2457 O 378.808 1.4459 7.59357 0
M  V30 2458 C 377.868 0.347608 7.69215 0
M  V30 2459 C 378.598 -0.96767 7.52806 0
M  V30 2460 O 378.808 -1.21036 6.1011 0
M  V30 2461 C 379.998 -1.04544 8.13308 0
M  V30 2462 O 380.388 -2.38311 8.41922 0
M  V30 2463 C 380.878 -0.491279 7.02284 0
M  V30 2464 C 380.168 -0.996264 5.77469 0
M  V30 2465 N 380.218 -0.0501916 4.62973 0
M  V30 2466 C 380.138 1.32786 4.63244 0
M  V30 2467 N 380.218 1.86957 3.44545 0
M  V30 2468 C 380.358 0.780241 2.58481 0
M  V30 2469 C 380.488 0.738536 1.17757 0
M  V30 2470 N 380.608 -0.58337 0.711393 0
M  V30 2471 C 380.608 -1.70816 1.51017 0
M  V30 2472 N 380.738 -2.87826 0.880757 0
M  V30 2473 N 380.478 -1.67126 2.8339 0
M  V30 2474 C 380.358 -0.401421 3.30572 0
M  V30 2475 H 377.379 0.374722 8.67691 0
M  V30 2476 H 377.109 0.443485 6.90277 0
M  V30 2477 H 377.976 -1.75537 7.96793 0
M  V30 2478 P 381.938 -2.75334 8.47391 0
M  V30 2479 O 382.158 -3.84128 9.44797 0
M  V30 2480 O 382.728 -1.51947 8.68712 0
M  V30 2481 O 382.188 -3.29363 6.99321 0
M  V30 2482 C 381.248 -4.24011 6.4274 0
M  V30 2483 C 381.978 -5.20775 5.52155 0
M  V30 2484 O 382.188 -4.56534 4.22446 0
M  V30 2485 C 383.378 -5.62629 5.96531 0
M  V30 2486 O 383.768 -6.87667 5.41053 0
M  V30 2487 C 384.258 -4.52537 5.39283 0
M  V30 2488 C 383.548 -4.20027 4.08623 0
M  V30 2489 N 383.598 -2.76189 3.71603 0
M  V30 2490 C 383.518 -1.64862 4.52822 0
M  V30 2491 N 383.598 -0.512671 3.88633 0
M  V30 2492 C 383.738 -0.888083 2.54977 0
M  V30 2493 C 383.868 -0.094668 1.38677 0
M  V30 2494 N 383.988 -0.890102 0.232633 0
M  V30 2495 C 383.988 -2.26958 0.21772 0
M  V30 2496 N 384.118 -2.84626 -0.97925 0
M  V30 2497 N 383.858 -3.0178 1.31033 0
M  V30 2498 C 383.738 -2.26781 2.43843 0
M  V30 2499 H 380.759 -4.797 7.24003 0
M  V30 2500 H 380.489 -3.69856 5.84513 0
M  V30 2501 H 381.356 -6.10356 5.41441 0
M  V30 2502 P 385.318 -7.20834 5.23717 0
M  V30 2503 O 385.538 -8.66104 5.38572 0
M  V30 2504 O 386.108 -6.33544 6.1349 0
M  V30 2505 O 385.568 -6.7751 3.72168 0
M  V30 2506 C 384.628 -7.20825 2.7076 0
M  V30 2507 C 385.358 -7.45864 1.40599 0
M  V30 2508 O 385.568 -6.17651 0.734225 0
M  V30 2509 C 386.758 -8.05808 1.51899 0
M  V30 2510 O 387.148 -8.74358 0.335205 0
M  V30 2511 C 387.638 -6.83093 1.70294 0
M  V30 2512 C 386.928 -5.79992 0.836974 0
M  V30 2513 N 386.978 -4.41864 1.38293 0
M  V30 2514 H 384.139 -8.13644 3.0377 0
M  V30 2515 H 383.869 -6.42788 2.55485 0
M  V30 2516 H 384.736 -8.12039 0.792769 0
M  V30 2517 P 388.698 -8.91 -1.96915e-12 0
M  V30 2518 O 388.918 -10.1726 -0.733694 0
M  V30 2519 O 389.488 -8.73148 1.23936 0
M  V30 2520 O 388.948 -7.66872 -0.971405 0
M  V30 2521 C 388.008 -7.42309 -2.04641 0
M  V30 2522 C 388.738 -6.86059 -3.24661 0
M  V30 2523 O 388.948 -5.42847 -3.03646 0
M  V30 2524 C 390.138 -7.41196 -3.50753 0
M  V30 2525 O 390.528 -7.27073 -4.86816 0
M  V30 2526 C 391.018 -6.5273 -2.63741 0
M  V30 2527 C 390.308 -5.1842 -2.73198 0
M  V30 2528 N 390.358 -4.38762 -1.4784 0
M  V30 2529 H 387.519 -8.36803 -2.32493 0
M  V30 2530 H 387.249 -6.70197 -1.71129 0
M  V30 2531 H 388.116 -7.03551 -4.13168 0
M  V30 2532 P 392.078 -7.20834 -5.23717 0
M  V30 2533 O 392.298 -7.79853 -6.57286 0
M  V30 2534 O 392.868 -7.79239 -4.12957 0
M  V30 2535 O 392.328 -5.63315 -5.29344 0
M  V30 2536 C 391.388 -4.80255 -6.01876 0
M  V30 2537 C 392.118 -3.64202 -6.65911 0
M  V30 2538 O 392.328 -2.60694 -5.64732 0
M  V30 2539 C 393.518 -3.93473 -7.1943 0
M  V30 2540 O 393.908 -3.02071 -8.21205 0
M  V30 2541 C 394.398 -3.73047 -5.97036 0
M  V30 2542 C 393.688 -2.58828 -5.25741 0
M  V30 2543 N 393.738 -2.68068 -3.77503 0
M  V30 2544 H 390.899 -5.40332 -6.79951 0
M  V30 2545 H 390.629 -4.41613 -5.32378 0
M  V30 2546 H 391.496 -3.26331 -7.47797 0
M  V30 2547 P 395.458 -2.75334 -8.47391 0
M  V30 2548 O 395.678 -2.44571 -9.90142 0
M  V30 2549 O 396.248 -3.87688 -7.92115 0
M  V30 2550 O 395.708 -1.4459 -7.59357 0
M  V30 2551 C 394.768 -0.347608 -7.69215 0
M  V30 2552 C 395.498 0.96767 -7.52806 0
M  V30 2553 O 395.708 1.21036 -6.1011 0
M  V30 2554 C 396.898 1.04544 -8.13308 0
M  V30 2555 O 397.288 2.38311 -8.41922 0
M  V30 2556 C 397.778 0.491279 -7.02284 0
M  V30 2557 C 397.068 0.996264 -5.77469 0
M  V30 2558 N 397.118 0.0501916 -4.62973 0
M  V30 2559 H 394.279 -0.374722 -8.67691 0
M  V30 2560 H 394.009 -0.443485 -6.90277 0
M  V30 2561 H 394.876 1.75537 -7.96793 0
M  V30 2562 P 398.838 2.75334 -8.47391 0
M  V30 2563 O 399.058 3.84128 -9.44797 0
M  V30 2564 O 399.628 1.51947 -8.68712 0
M  V30 2565 O 399.088 3.29363 -6.99321 0
M  V30 2566 C 398.148 4.24011 -6.4274 0
M  V30 2567 C 398.878 5.20775 -5.52155 0
M  V30 2568 O 399.088 4.56534 -4.22446 0
M  V30 2569 C 400.278 5.62629 -5.96531 0
M  V30 2570 O 400.668 6.87667 -5.41053 0
M  V30 2571 C 401.158 4.52537 -5.39283 0
M  V30 2572 C 400.448 4.20027 -4.08623 0
M  V30 2573 N 400.498 2.76189 -3.71603 0
M  V30 2574 H 397.659 4.797 -7.24003 0
M  V30 2575 H 397.389 3.69856 -5.84513 0
M  V30 2576 H 398.256 6.10356 -5.41441 0
M  V30 2577 P 402.218 7.20834 -5.23717 0
M  V30 2578 O 402.438 8.66104 -5.38572 0
M  V30 2579 O 403.008 6.33544 -6.1349 0
M  V30 2580 O 402.468 6.7751 -3.72168 0
M  V30 2581 C 401.528 7.20825 -2.7076 0
M  V30 2582 C 402.258 7.45864 -1.40599 0
M  V30 2583 O 402.468 6.17651 -0.734225 0
M  V30 2584 C 403.658 8.05808 -1.51899 0
M  V30 2585 O 404.048 8.74358 -0.335205 0
M  V30 2586 C 404.538 6.83093 -1.70294 0
M  V30 2587 C 403.828 5.79992 -0.836974 0
M  V30 2588 N 403.878 4.41864 -1.38293 0
M  V30 2589 H 401.039 8.13644 -3.0377 0
M  V30 2590 H 400.769 6.42788 -2.55485 0
M  V30 2591 H 401.636 8.12039 -0.792769 0
M  V30 2592 P 405.598 8.91 2.12633e-12 0
M  V30 2593 O 405.818 10.1746 0.733838 0
M  V30 2594 O 406.388 8.73346 -1.23964 0
M  V30 2595 O 405.848 7.66872 0.971405 0
M  V30 2596 C 404.908 7.42405 2.04668 0
M  V30 2597 C 405.638 6.86059 3.24661 0
M  V30 2598 O 405.848 5.42934 3.03695 0
M  V30 2599 C 407.038 7.41287 3.50796 0
M  V30 2600 O 407.428 7.27073 4.86816 0
M  V30 2601 C 407.918 6.5273 2.63741 0
M  V30 2602 C 407.208 5.1842 2.73198 0
M  V30 2603 N 407.258 4.38762 1.4784 0
M  V30 2604 C 407.178 4.83651 0.183876 0
M  V30 2605 N 407.248 3.88759 -0.699393 0
M  V30 2606 C 407.398 2.7404 0.0575568 0
M  V30 2607 C 407.528 1.37902 -0.293928 0
M  V30 2608 N 407.538 0.938021 -1.54797 0
M  V30 2609 N 407.648 0.491817 0.70549 0
M  V30 2610 C 407.638 0.931735 1.95979 0
M  V30 2611 N 407.518 2.16017 2.41481 0
M  V30 2612 C 407.398 3.02547 1.39121 0
M  V30 2613 H 404.42 8.36899 2.3252 0
M  V30 2614 H 404.148 6.70391 1.71179 0
M  V30 2615 H 405.016 7.03638 4.13219 0
M  V30 2616 H 407.671 4.59931 3.54016 0
M  V30 2617 H 407.951 6.88995 1.59871 0
M  V30 2618 H 408.942 6.4684 3.0373 0
M  V30 2619 H 407.108 8.47002 3.20749 0
M  V30 2620 H 407.067 5.8885 -0.0765548 0
M  V30 2621 H 407.448 1.60276 -2.32875 0
M  V30 2622 H 407.637 -0.0699355 -1.73859 0
M  V30 2623 H 407.745 0.165507 2.71897 0
M  V30 2624 P 408.978 7.20834 5.23717 0
M  V30 2625 O 409.198 7.80006 6.57415 0
M  V30 2626 O 409.768 7.79416 4.13051 0
M  V30 2627 O 409.228 5.63315 5.29344 0
M  V30 2628 C 408.288 4.80318 6.01954 0
M  V30 2629 C 409.018 3.64202 6.65911 0
M  V30 2630 O 409.228 2.60736 5.64823 0
M  V30 2631 C 410.418 3.93521 7.19518 0
M  V30 2632 O 410.808 3.02071 8.21205 0
M  V30 2633 C 411.298 3.73047 5.97036 0
M  V30 2634 C 410.588 2.58828 5.25741 0
M  V30 2635 N 410.638 2.68068 3.77503 0
M  V30 2636 H 407.8 5.40394 6.8003 0
M  V30 2637 H 407.528 4.41741 5.32532 0
M  V30 2638 H 408.396 3.26371 7.47889 0
M  V30 2639 H 411.051 1.64007 5.56746 0
M  V30 2640 H 411.331 4.63439 5.3432 0
M  V30 2641 H 412.322 3.44776 6.25925 0
M  V30 2642 H 410.488 4.96707 7.57347 0
M  V30 2643 P 412.358 2.75334 8.47391 0
M  V30 2644 O 412.578 2.44571 9.90142 0
M  V30 2645 O 413.148 3.87688 7.92115 0
M  V30 2646 O 412.608 1.4459 7.59357 0
M  V30 2647 C 411.668 0.347608 7.69215 0
M  V30 2648 C 412.398 -0.96767 7.52806 0
M  V30 2649 O 412.608 -1.21036 6.1011 0
M  V30 2650 C 413.798 -1.04544 8.13308 0
M  V30 2651 O 414.188 -2.38311 8.41922 0
M  V30 2652 C 414.678 -0.491279 7.02284 0
M  V30 2653 C 413.968 -0.996264 5.77469 0
M  V30 2654 N 414.018 -0.0501916 4.62973 0
M  V30 2655 C 413.938 1.32786 4.63244 0
M  V30 2656 N 414.018 1.86957 3.44545 0
M  V30 2657 C 414.158 0.780241 2.58481 0
M  V30 2658 C 414.288 0.738536 1.17757 0
M  V30 2659 N 414.408 -0.58337 0.711393 0
M  V30 2660 C 414.408 -1.70816 1.51017 0
M  V30 2661 N 414.538 -2.87826 0.880757 0
M  V30 2662 N 414.278 -1.67126 2.8339 0
M  V30 2663 C 414.158 -0.401421 3.30572 0
M  V30 2664 H 411.179 0.374722 8.67691 0
M  V30 2665 H 410.909 0.443485 6.90277 0
M  V30 2666 H 411.776 -1.75537 7.96793 0
M  V30 2667 P 415.738 -2.75334 8.47391 0
M  V30 2668 O 415.958 -3.84128 9.44797 0
M  V30 2669 O 416.528 -1.51947 8.68712 0
M  V30 2670 O 415.988 -3.29363 6.99321 0
M  V30 2671 C 415.048 -4.24011 6.4274 0
M  V30 2672 C 415.778 -5.20775 5.52155 0
M  V30 2673 O 415.988 -4.56534 4.22446 0
M  V30 2674 C 417.178 -5.62629 5.96531 0
M  V30 2675 O 417.568 -6.87667 5.41053 0
M  V30 2676 C 418.058 -4.52537 5.39283 0
M  V30 2677 C 417.348 -4.20027 4.08623 0
M  V30 2678 N 417.398 -2.76189 3.71603 0
M  V30 2679 H 414.559 -4.797 7.24003 0
M  V30 2680 H 414.289 -3.69856 5.84513 0
M  V30 2681 H 415.156 -6.10356 5.41441 0
M  V30 2682 P 419.118 -7.20834 5.23717 0
M  V30 2683 O 419.338 -8.66104 5.38572 0
M  V30 2684 O 419.908 -6.33544 6.1349 0
M  V30 2685 O 419.368 -6.7751 3.72168 0
M  V30 2686 C 418.428 -7.20825 2.7076 0
M  V30 2687 C 419.158 -7.45864 1.40599 0
M  V30 2688 O 419.368 -6.17651 0.734225 0
M  V30 2689 C 420.558 -8.05808 1.51899 0
M  V30 2690 O 420.948 -8.74358 0.335205 0
M  V30 2691 C 421.438 -6.83093 1.70294 0
M  V30 2692 C 420.728 -5.79992 0.836974 0
M  V30 2693 N 420.778 -4.41864 1.38293 0
M  V30 2694 H 417.939 -8.13644 3.0377 0
M  V30 2695 H 417.669 -6.42788 2.55485 0
M  V30 2696 H 418.536 -8.12039 0.792769 0
M  V30 2697 P 422.497 -8.91 -2.28351e-12 0
M  V30 2698 O 422.717 -10.1746 -0.733838 0
M  V30 2699 O 423.287 -8.73346 1.23964 0
M  V30 2700 O 422.747 -7.66872 -0.971405 0
M  V30 2701 C 421.807 -7.42405 -2.04668 0
M  V30 2702 C 422.537 -6.86059 -3.24661 0
M  V30 2703 O 422.747 -5.42934 -3.03695 0
M  V30 2704 C 423.937 -7.41287 -3.50796 0
M  V30 2705 O 424.327 -7.27073 -4.86816 0
M  V30 2706 C 424.817 -6.5273 -2.63741 0
M  V30 2707 C 424.107 -5.1842 -2.73198 0
M  V30 2708 N 424.157 -4.38762 -1.4784 0
M  V30 2709 H 421.319 -8.36899 -2.3252 0
M  V30 2710 H 421.047 -6.70391 -1.71179 0
M  V30 2711 H 421.915 -7.03638 -4.13219 0
M  V30 2712 H 424.57 -4.59931 -3.54016 0
M  V30 2713 H 424.85 -6.88995 -1.59871 0
M  V30 2714 H 425.841 -6.4684 -3.0373 0
M  V30 2715 H 424.007 -8.47002 -3.20749 0
M  V30 2716 P 425.877 -7.20834 -5.23717 0
M  V30 2717 O 426.097 -7.79853 -6.57286 0
M  V30 2718 O 426.667 -7.79239 -4.12957 0
M  V30 2719 O 426.127 -5.63315 -5.29344 0
M  V30 2720 C 425.187 -4.80255 -6.01876 0
M  V30 2721 C 425.917 -3.64202 -6.65911 0
M  V30 2722 O 426.127 -2.60694 -5.64732 0
M  V30 2723 C 427.317 -3.93473 -7.1943 0
M  V30 2724 O 427.707 -3.02071 -8.21205 0
M  V30 2725 C 428.197 -3.73047 -5.97036 0
M  V30 2726 C 427.487 -2.58828 -5.25741 0
M  V30 2727 N 427.537 -2.68068 -3.77503 0
M  V30 2728 H 424.698 -5.40332 -6.79951 0
M  V30 2729 H 424.428 -4.41613 -5.32378 0
M  V30 2730 H 425.295 -3.26331 -7.47797 0
M  V30 2731 P 429.257 -2.75334 -8.47391 0
M  V30 2732 O 429.477 -2.44571 -9.90142 0
M  V30 2733 O 430.047 -3.87688 -7.92115 0
M  V30 2734 O 429.507 -1.4459 -7.59357 0
M  V30 2735 C 428.567 -0.347608 -7.69215 0
M  V30 2736 C 429.297 0.96767 -7.52806 0
M  V30 2737 O 429.507 1.21036 -6.1011 0
M  V30 2738 C 430.697 1.04544 -8.13308 0
M  V30 2739 O 431.087 2.38311 -8.41922 0
M  V30 2740 C 431.577 0.491279 -7.02284 0
M  V30 2741 C 430.867 0.996264 -5.77469 0
M  V30 2742 N 430.917 0.0501916 -4.62973 0
M  V30 2743 H 428.078 -0.374722 -8.67691 0
M  V30 2744 H 427.808 -0.443485 -6.90277 0
M  V30 2745 H 428.675 1.75537 -7.96793 0
M  V30 2746 P 432.637 2.75334 -8.47391 0
M  V30 2747 O 432.857 3.84128 -9.44797 0
M  V30 2748 O 433.427 1.51947 -8.68712 0
M  V30 2749 O 432.887 3.29363 -6.99321 0
M  V30 2750 C 431.947 4.24011 -6.4274 0
M  V30 2751 C 432.677 5.20775 -5.52155 0
M  V30 2752 O 432.887 4.56534 -4.22446 0
M  V30 2753 C 434.077 5.62629 -5.96531 0
M  V30 2754 O 434.467 6.87667 -5.41053 0
M  V30 2755 C 434.957 4.52537 -5.39283 0
M  V30 2756 C 434.247 4.20027 -4.08623 0
M  V30 2757 N 434.297 2.76189 -3.71603 0
M  V30 2758 H 431.458 4.797 -7.24003 0
M  V30 2759 H 431.188 3.69856 -5.84513 0
M  V30 2760 H 432.055 6.10356 -5.41441 0
M  V30 2761 P 436.017 7.20834 -5.23717 0
M  V30 2762 O 436.237 8.66104 -5.38572 0
M  V30 2763 O 436.807 6.33544 -6.1349 0
M  V30 2764 O 436.267 6.7751 -3.72168 0
M  V30 2765 C 435.327 7.20825 -2.7076 0
M  V30 2766 C 436.057 7.45864 -1.40599 0
M  V30 2767 O 436.267 6.17651 -0.734225 0
M  V30 2768 C 437.457 8.05808 -1.51899 0
M  V30 2769 O 437.847 8.74358 -0.335205 0
M  V30 2770 C 438.337 6.83093 -1.70294 0
M  V30 2771 C 437.627 5.79992 -0.836974 0
M  V30 2772 N 437.677 4.41864 -1.38293 0
M  V30 2773 H 434.838 8.13644 -3.0377 0
M  V30 2774 H 434.568 6.42788 -2.55485 0
M  V30 2775 H 435.435 8.12039 -0.792769 0
M  V30 2776 P 439.397 8.91 2.44069e-12 0
M  V30 2777 O 439.617 10.1746 0.733838 0
M  V30 2778 O 440.187 8.73346 -1.23964 0
M  V30 2779 O 439.647 7.66872 0.971405 0
M  V30 2780 C 438.707 7.42405 2.04668 0
M  V30 2781 C 439.437 6.86059 3.24661 0
M  V30 2782 O 439.647 5.42934 3.03695 0
M  V30 2783 C 440.837 7.41287 3.50796 0
M  V30 2784 O 441.227 7.27073 4.86816 0
M  V30 2785 C 441.717 6.5273 2.63741 0
M  V30 2786 C 441.007 5.1842 2.73198 0
M  V30 2787 N 441.057 4.38762 1.4784 0
M  V30 2788 C 440.977 4.83651 0.183876 0
M  V30 2789 N 441.047 3.88759 -0.699393 0
M  V30 2790 C 441.197 2.7404 0.0575568 0
M  V30 2791 C 441.327 1.37902 -0.293928 0
M  V30 2792 N 441.337 0.938021 -1.54797 0
M  V30 2793 N 441.447 0.491817 0.70549 0
M  V30 2794 C 441.437 0.931735 1.95979 0
M  V30 2795 N 441.317 2.16017 2.41481 0
M  V30 2796 C 441.197 3.02547 1.39121 0
M  V30 2797 H 438.219 8.36899 2.3252 0
M  V30 2798 H 437.947 6.70391 1.71179 0
M  V30 2799 H 438.815 7.03638 4.13219 0
M  V30 2800 H 441.47 4.59931 3.54016 0
M  V30 2801 H 441.75 6.88995 1.59871 0
M  V30 2802 H 442.741 6.4684 3.0373 0
M  V30 2803 H 440.907 8.47002 3.20749 0
M  V30 2804 H 440.866 5.8885 -0.0765548 0
M  V30 2805 H 441.247 1.60276 -2.32875 0
M  V30 2806 H 441.436 -0.0699355 -1.73859 0
M  V30 2807 H 441.544 0.165507 2.71897 0
M  V30 2808 P 442.777 7.20834 5.23717 0
M  V30 2809 O 442.997 7.79853 6.57286 0
M  V30 2810 O 443.567 7.79239 4.12957 0
M  V30 2811 O 443.027 5.63315 5.29344 0
M  V30 2812 C 442.087 4.80255 6.01876 0
M  V30 2813 C 442.817 3.64202 6.65911 0
M  V30 2814 O 443.027 2.60694 5.64732 0
M  V30 2815 C 444.217 3.93473 7.1943 0
M  V30 2816 O 444.607 3.02071 8.21205 0
M  V30 2817 C 445.097 3.73047 5.97036 0
M  V30 2818 C 444.387 2.58828 5.25741 0
M  V30 2819 N 444.437 2.68068 3.77503 0
M  V30 2820 H 441.598 5.40332 6.79951 0
M  V30 2821 H 441.328 4.41613 5.32378 0
M  V30 2822 H 442.195 3.26331 7.47797 0
M  V30 2823 P 446.157 2.75334 8.47391 0
M  V30 2824 O 446.377 2.44571 9.90142 0
M  V30 2825 O 446.947 3.87688 7.92115 0
M  V30 2826 O 446.407 1.4459 7.59357 0
M  V30 2827 C 445.467 0.347608 7.69215 0
M  V30 2828 C 446.197 -0.96767 7.52806 0
M  V30 2829 O 446.407 -1.21036 6.1011 0
M  V30 2830 C 447.597 -1.04544 8.13308 0
M  V30 2831 O 447.987 -2.38311 8.41922 0
M  V30 2832 C 448.477 -0.491279 7.02284 0
M  V30 2833 C 447.767 -0.996264 5.77469 0
M  V30 2834 N 447.817 -0.0501916 4.62973 0
M  V30 2835 H 444.978 0.374722 8.67691 0
M  V30 2836 H 444.708 0.443485 6.90277 0
M  V30 2837 H 445.575 -1.75537 7.96793 0
M  V30 2838 P 449.537 -2.75334 8.47391 0
M  V30 2839 O 449.757 -3.84128 9.44797 0
M  V30 2840 O 450.327 -1.51947 8.68712 0
M  V30 2841 O 449.787 -3.29363 6.99321 0
M  V30 2842 C 448.847 -4.24011 6.4274 0
M  V30 2843 C 449.577 -5.20775 5.52155 0
M  V30 2844 O 449.787 -4.56534 4.22446 0
M  V30 2845 C 450.977 -5.62629 5.96531 0
M  V30 2846 O 451.367 -6.87667 5.41053 0
M  V30 2847 C 451.857 -4.52537 5.39283 0
M  V30 2848 C 451.147 -4.20027 4.08623 0
M  V30 2849 N 451.197 -2.76189 3.71603 0
M  V30 2850 H 448.358 -4.797 7.24003 0
M  V30 2851 H 448.088 -3.69856 5.84513 0
M  V30 2852 H 448.955 -6.10356 5.41441 0
M  V30 2853 P 452.917 -7.20834 5.23717 0
M  V30 2854 O 453.137 -8.66189 5.38625 0
M  V30 2855 O 453.707 -6.33615 6.1356 0
M  V30 2856 O 453.167 -6.7751 3.72168 0
M  V30 2857 C 452.227 -7.20732 2.70725 0
M  V30 2858 C 452.957 -7.45864 1.40599 0
M  V30 2859 O 453.167 -6.17651 0.734225 0
M  V30 2860 C 454.357 -8.05808 1.51899 0
M  V30 2861 O 454.747 -8.74358 0.335205 0
M  V30 2862 C 455.237 -6.83093 1.70294 0
M  V30 2863 C 454.527 -5.79992 0.836974 0
M  V30 2864 N 454.577 -4.41769 1.38263 0
M  V30 2865 C 454.727 -3.38591 0.481702 0
M  V30 2866 O 454.817 -3.56839 -0.718452 0
M  V30 2867 N 454.767 -2.1206 1.03569 0
M  V30 2868 C 454.677 -1.80696 2.36966 0
M  V30 2869 O 454.727 -0.630473 2.74862 0
M  V30 2870 C 454.527 -2.94845 3.23898 0
M  V30 2871 C 454.417 -2.65253 4.70362 0
M  V30 2872 C 454.477 -4.19803 2.73435 0
M  V30 2873 H 451.737 -8.13644 3.0377 0
M  V30 2874 H 451.468 -6.42695 2.55448 0
M  V30 2875 H 452.335 -8.12039 0.792769 0
M  V30 2876 H 454.99 -5.79978 -0.160587 0
M  V30 2877 H 455.269 -6.51379 2.75643 0
M  V30 2878 H 456.261 -7.01734 1.34462 0
M  V30 2879 H 454.427 -8.73674 2.38337 0
M  V30 2880 H 454.356 -5.04492 3.4095 0
M  V30 2881 H 455.386 -2.83924 5.1913 0
M  V30 2882 H 453.649 -3.29824 5.15163 0
M  V30 2883 H 454.137 -1.59723 4.84449 0
M  V30 2884 H 454.873 -1.35644 0.399345 0
M  V30 2885 P 456.297 -8.91 -2.59788e-12 0
M  V30 2886 O 456.517 -10.1746 -0.733838 0
M  V30 2887 O 457.087 -8.73346 1.23964 0
M  V30 2888 O 456.547 -7.66872 -0.971405 0
M  V30 2889 C 455.607 -7.42405 -2.04668 0
M  V30 2890 C 456.337 -6.86059 -3.24661 0
M  V30 2891 O 456.547 -5.42934 -3.03695 0
M  V30 2892 C 457.737 -7.41287 -3.50796 0
M  V30 2893 O 458.127 -7.27073 -4.86816 0
M  V30 2894 C 458.617 -6.5273 -2.63741 0
M  V30 2895 C 457.907 -5.1842 -2.73198 0
M  V30 2896 N 457.957 -4.38762 -1.4784 0
M  V30 2897 C 457.877 -4.83651 -0.183876 0
M  V30 2898 N 457.947 -3.88759 0.699393 0
M  V30 2899 C 458.097 -2.7404 -0.0575568 0
M  V30 2900 C 458.227 -1.37902 0.293928 0
M  V30 2901 N 458.237 -0.938021 1.54797 0
M  V30 2902 N 458.347 -0.491817 -0.70549 0
M  V30 2903 C 458.337 -0.931735 -1.95979 0
M  V30 2904 N 458.217 -2.16017 -2.41481 0
M  V30 2905 C 458.097 -3.02547 -1.39121 0
M  V30 2906 H 455.119 -8.36899 -2.3252 0
M  V30 2907 H 454.847 -6.70391 -1.71179 0
M  V30 2908 H 455.715 -7.03638 -4.13219 0
M  V30 2909 H 458.37 -4.59931 -3.54016 0
M  V30 2910 H 458.65 -6.88995 -1.59871 0
M  V30 2911 H 459.641 -6.4684 -3.0373 0
M  V30 2912 H 457.807 -8.47002 -3.20749 0
M  V30 2913 H 457.766 -5.8885 0.0765548 0
M  V30 2914 H 458.147 -1.60276 2.32875 0
M  V30 2915 H 458.336 0.0699355 1.73859 0
M  V30 2916 H 458.444 -0.165507 -2.71897 0
M  V30 2917 P 459.677 -7.20834 -5.23717 0
M  V30 2918 O 459.897 -7.80006 -6.57415 0
M  V30 2919 O 460.467 -7.79416 -4.13051 0
M  V30 2920 O 459.927 -5.63315 -5.29344 0
M  V30 2921 C 458.987 -4.80318 -6.01954 0
M  V30 2922 C 459.717 -3.64202 -6.65911 0
M  V30 2923 O 459.927 -2.60736 -5.64823 0
M  V30 2924 C 461.117 -3.93521 -7.19518 0
M  V30 2925 O 461.507 -3.02071 -8.21205 0
M  V30 2926 C 461.997 -3.73047 -5.97036 0
M  V30 2927 C 461.287 -2.58828 -5.25741 0
M  V30 2928 N 461.337 -2.68068 -3.77503 0
M  V30 2929 H 458.499 -5.40394 -6.8003 0
M  V30 2930 H 458.227 -4.41741 -5.32532 0
M  V30 2931 H 459.095 -3.26371 -7.47889 0
M  V30 2932 H 461.75 -1.64007 -5.56746 0
M  V30 2933 H 462.03 -4.63439 -5.3432 0
M  V30 2934 H 463.021 -3.44776 -6.25925 0
M  V30 2935 H 461.187 -4.96707 -7.57347 0
M  V30 2936 P 463.057 -2.75334 -8.47391 0
M  V30 2937 O 463.277 -2.44571 -9.90142 0
M  V30 2938 O 463.847 -3.87688 -7.92115 0
M  V30 2939 O 463.307 -1.4459 -7.59357 0
M  V30 2940 C 462.367 -0.347608 -7.69215 0
M  V30 2941 C 463.097 0.96767 -7.52806 0
M  V30 2942 O 463.307 1.21036 -6.1011 0
M  V30 2943 C 464.497 1.04544 -8.13308 0
M  V30 2944 O 464.887 2.38311 -8.41922 0
M  V30 2945 C 465.377 0.491279 -7.02284 0
M  V30 2946 C 464.667 0.996264 -5.77469 0
M  V30 2947 N 464.717 0.0501916 -4.62973 0
M  V30 2948 H 461.878 -0.374722 -8.67691 0
M  V30 2949 H 461.608 -0.443485 -6.90277 0
M  V30 2950 H 462.475 1.75537 -7.96793 0
M  V30 2951 P 466.437 2.75334 -8.47391 0
M  V30 2952 O 466.657 3.84128 -9.44797 0
M  V30 2953 O 467.227 1.51947 -8.68712 0
M  V30 2954 O 466.687 3.29363 -6.99321 0
M  V30 2955 C 465.747 4.24011 -6.4274 0
M  V30 2956 C 466.477 5.20775 -5.52155 0
M  V30 2957 O 466.687 4.56534 -4.22446 0
M  V30 2958 C 467.877 5.62629 -5.96531 0
M  V30 2959 O 468.267 6.87667 -5.41053 0
M  V30 2960 C 468.757 4.52537 -5.39283 0
M  V30 2961 C 468.047 4.20027 -4.08623 0
M  V30 2962 N 468.097 2.76189 -3.71603 0
M  V30 2963 H 465.258 4.797 -7.24003 0
M  V30 2964 H 464.988 3.69856 -5.84513 0
M  V30 2965 H 465.855 6.10356 -5.41441 0
M  V30 2966 P 469.817 7.20834 -5.23717 0
M  V30 2967 O 470.037 8.66274 -5.38678 0
M  V30 2968 O 470.607 6.33687 -6.13629 0
M  V30 2969 O 470.067 6.7751 -3.72168 0
M  V30 2970 C 469.127 7.20919 -2.70795 0
M  V30 2971 C 469.857 7.45864 -1.40599 0
M  V30 2972 O 470.067 6.17751 -0.734343 0
M  V30 2973 C 471.257 8.05906 -1.51917 0
M  V30 2974 O 471.647 8.74358 -0.335205 0
M  V30 2975 C 472.137 6.83093 -1.70294 0
M  V30 2976 C 471.427 5.79992 -0.836974 0
M  V30 2977 N 471.477 4.41864 -1.38293 0
M  V30 2978 C 471.397 4.02089 -2.69407 0
M  V30 2979 N 471.467 2.73403 -2.85089 0
M  V30 2980 C 471.617 2.25086 -1.5642 0
M  V30 2981 C 471.747 0.942887 -1.04836 0
M  V30 2982 N 471.757 -0.150999 -1.80369 0
M  V30 2983 N 471.867 0.812565 0.28167 0
M  V30 2984 C 471.857 1.90572 1.03784 0
M  V30 2985 N 471.737 3.167 0.683905 0
M  V30 2986 C 471.617 3.26538 -0.652815 0
M  V30 2987 H 468.639 8.13738 -3.03804 0
M  V30 2988 H 468.367 6.42974 -2.55559 0
M  V30 2989 H 469.235 8.12139 -0.792866 0
M  V30 2990 H 471.89 5.80178 0.160643 0
M  V30 2991 H 472.17 6.51379 -2.75643 0
M  V30 2992 H 473.161 7.01832 -1.3448 0
M  V30 2993 H 471.327 8.73771 -2.38364 0
M  V30 2994 H 471.286 4.7189 -3.52311 0
M  V30 2995 H 471.667 -0.0721434 -2.82608 0
M  V30 2996 H 471.856 -1.0785 -1.36544 0
M  V30 2997 H 471.964 1.73207 2.10241 0
M  V30 2998 P 473.197 8.91 2.75506e-12 0
M  V30 2999 O 473.417 10.1726 0.733694 0
M  V30 3000 O 473.987 8.73148 -1.23936 0
M  V30 3001 O 473.447 7.66872 0.971405 0
M  V30 3002 C 472.507 7.42309 2.04641 0
M  V30 3003 C 473.237 6.86059 3.24661 0
M  V30 3004 O 473.447 5.42847 3.03646 0
M  V30 3005 C 474.637 7.41196 3.50753 0
M  V30 3006 O 475.027 7.27073 4.86816 0
M  V30 3007 C 475.517 6.5273 2.63741 0
M  V30 3008 C 474.807 5.1842 2.73198 0
M  V30 3009 N 474.857 4.38762 1.4784 0
M  V30 3010 H 472.018 8.36803 2.32493 0
M  V30 3011 H 471.748 6.70197 1.71129 0
M  V30 3012 H 472.615 7.03551 4.13168 0
M  V30 3013 P 476.577 7.20834 5.23717 0
M  V30 3014 O 476.797 7.7993 6.57351 0
M  V30 3015 O 477.367 7.79328 4.13004 0
M  V30 3016 O 476.827 5.63315 5.29344 0
M  V30 3017 C 475.887 4.80193 6.01798 0
M  V30 3018 C 476.617 3.64202 6.65911 0
M  V30 3019 O 476.827 2.60694 5.64732 0
M  V30 3020 C 478.017 3.93473 7.1943 0
M  V30 3021 O 478.407 3.02071 8.21205 0
M  V30 3022 C 478.897 3.73047 5.97036 0
M  V30 3023 C 478.187 2.58828 5.25741 0
M  V30 3024 N 478.237 2.6801 3.77422 0
M  V30 3025 C 478.387 1.50443 3.07133 0
M  V30 3026 O 478.477 0.419406 3.61576 0
M  V30 3027 N 478.427 1.6403 1.69677 0
M  V30 3028 C 478.337 2.81206 0.986255 0
M  V30 3029 C 478.187 3.99158 1.80325 0
M  V30 3030 C 478.137 3.89779 3.1476 0
M  V30 3031 H 475.397 5.40332 6.79951 0
M  V30 3032 H 475.128 4.41549 5.32301 0
M  V30 3033 H 475.995 3.26331 7.47797 0
M  V30 3034 H 478.65 1.6395 5.56554 0
M  V30 3035 H 478.929 4.63439 5.3432 0
M  V30 3036 H 479.921 3.44728 6.25838 0
M  V30 3037 H 478.087 4.96652 7.57263 0
M  V30 3038 H 478.016 4.80159 3.74441 0
M  V30 3039 P 479.957 2.75334 8.47391 0
M  V30 3040 O 480.177 2.44571 9.90142 0
M  V30 3041 O 480.747 3.87688 7.92115 0
M  V30 3042 O 480.207 1.4459 7.59357 0
M  V30 3043 C 479.267 0.347608 7.69215 0
M  V30 3044 C 479.997 -0.96767 7.52806 0
M  V30 3045 O 480.207 -1.21036 6.1011 0
M  V30 3046 C 481.397 -1.04544 8.13308 0
M  V30 3047 O 481.787 -2.38311 8.41922 0
M  V30 3048 C 482.277 -0.491279 7.02284 0
M  V30 3049 C 481.567 -0.996264 5.77469 0
M  V30 3050 N 481.617 -0.0501916 4.62973 0
M  V30 3051 H 478.778 0.374722 8.67691 0
M  V30 3052 H 478.508 0.443485 6.90277 0
M  V30 3053 H 479.375 -1.75537 7.96793 0
M  V30 3054 P 483.337 -2.75334 8.47391 0
M  V30 3055 O 483.557 -3.84128 9.44797 0
M  V30 3056 O 484.127 -1.51947 8.68712 0
M  V30 3057 O 483.587 -3.29363 6.99321 0
M  V30 3058 C 482.647 -4.24011 6.4274 0
M  V30 3059 C 483.377 -5.20775 5.52155 0
M  V30 3060 O 483.587 -4.56534 4.22446 0
M  V30 3061 C 484.777 -5.62629 5.96531 0
M  V30 3062 O 485.167 -6.87667 5.41053 0
M  V30 3063 C 485.657 -4.52537 5.39283 0
M  V30 3064 C 484.947 -4.20027 4.08623 0
M  V30 3065 N 484.997 -2.76189 3.71603 0
M  V30 3066 C 484.917 -1.64862 4.52822 0
M  V30 3067 N 484.997 -0.512671 3.88633 0
M  V30 3068 C 485.137 -0.888083 2.54977 0
M  V30 3069 C 485.267 -0.094668 1.38677 0
M  V30 3070 N 485.387 -0.890102 0.232633 0
M  V30 3071 C 485.387 -2.26958 0.21772 0
M  V30 3072 N 485.517 -2.84626 -0.97925 0
M  V30 3073 N 485.257 -3.0178 1.31033 0
M  V30 3074 C 485.137 -2.26781 2.43843 0
M  V30 3075 H 482.158 -4.797 7.24003 0
M  V30 3076 H 481.888 -3.69856 5.84513 0
M  V30 3077 H 482.755 -6.10356 5.41441 0
M  V30 3078 P 486.717 -7.20834 5.23717 0
M  V30 3079 O 486.937 -8.66104 5.38572 0
M  V30 3080 O 487.507 -6.33544 6.1349 0
M  V30 3081 O 486.967 -6.7751 3.72168 0
M  V30 3082 C 486.027 -7.20825 2.7076 0
M  V30 3083 C 486.757 -7.45864 1.40599 0
M  V30 3084 O 486.967 -6.17651 0.734225 0
M  V30 3085 C 488.157 -8.05808 1.51899 0
M  V30 3086 O 488.547 -8.74358 0.335205 0
M  V30 3087 C 489.037 -6.83093 1.70294 0
M  V30 3088 C 488.327 -5.79992 0.836974 0
M  V30 3089 N 488.377 -4.41864 1.38293 0
M  V30 3090 C 488.297 -3.99538 2.69438 0
M  V30 3091 N 488.377 -2.69909 2.84277 0
M  V30 3092 C 488.517 -2.21719 1.5408 0
M  V30 3093 C 488.647 -0.891712 1.06628 0
M  V30 3094 N 488.767 -0.856846 -0.334985 0
M  V30 3095 C 488.767 -1.9641 -1.15789 0
M  V30 3096 N 488.897 -1.72708 -2.46522 0
M  V30 3097 N 488.637 -3.21165 -0.713741 0
M  V30 3098 C 488.517 -3.26797 0.639748 0
M  V30 3099 H 485.538 -8.13644 3.0377 0
M  V30 3100 H 485.268 -6.42788 2.55485 0
M  V30 3101 H 486.135 -8.12039 0.792769 0
M  V30 3102 P 490.097 -8.91 -2.91224e-12 0
M  V30 3103 O 490.317 -10.1736 -0.733766 0
M  V30 3104 O 490.887 -8.73247 1.2395 0
M  V30 3105 O 490.347 -7.66872 -0.971405 0
M  V30 3106 C 489.407 -7.42309 -2.04641 0
M  V30 3107 C 490.137 -6.86059 -3.24661 0
M  V30 3108 O 490.347 -5.42847 -3.03646 0
M  V30 3109 C 491.537 -7.41196 -3.50753 0
M  V30 3110 O 491.927 -7.27073 -4.86816 0
M  V30 3111 C 492.417 -6.5273 -2.63741 0
M  V30 3112 C 491.707 -5.1842 -2.73198 0
M  V30 3113 N 491.757 -4.38668 -1.47808 0
M  V30 3114 C 491.907 -3.00789 -1.58511 0
M  V30 3115 O 491.997 -2.50116 -2.71298 0
M  V30 3116 N 491.957 -2.29703 -0.253698 0
M  V30 3117 C 491.857 -2.84269 0.750133 0
M  V30 3118 N 491.907 -2.06951 1.82612 0
M  V30 3119 C 491.707 -4.25803 0.889776 0
M  V30 3120 C 491.657 -4.98326 -0.259363 0
M  V30 3121 H 488.917 -8.36707 -2.32466 0
M  V30 3122 H 488.648 -6.701 -1.71105 0
M  V30 3123 H 489.515 -7.03638 -4.13219 0
M  V30 3124 H 492.17 -4.59852 -3.53955 0
M  V30 3125 H 492.449 -6.88995 -1.59871 0
M  V30 3126 H 493.441 -6.46749 -3.03687 0
M  V30 3127 H 491.607 -8.46908 -3.20714 0
M  V30 3128 H 491.535 -6.06349 -0.206238 0
M  V30 3129 H 491.637 -4.73163 1.86796 0
M  V30 3130 H 492.025 -1.05099 1.72271 0
M  V30 3131 H 491.828 -2.48716 2.76361 0
M  V30 3132 P 493.477 -7.20834 -5.23717 0
M  V30 3133 O 493.697 -7.79853 -6.57286 0
M  V30 3134 O 494.267 -7.79239 -4.12957 0
M  V30 3135 O 493.727 -5.63315 -5.29344 0
M  V30 3136 C 492.787 -4.80255 -6.01876 0
M  V30 3137 C 493.517 -3.64202 -6.65911 0
M  V30 3138 O 493.727 -2.60694 -5.64732 0
M  V30 3139 C 494.917 -3.93473 -7.1943 0
M  V30 3140 O 495.307 -3.02071 -8.21205 0
M  V30 3141 C 495.797 -3.73047 -5.97036 0
M  V30 3142 C 495.087 -2.58828 -5.25741 0
M  V30 3143 N 495.137 -2.68068 -3.77503 0
M  V30 3144 H 492.298 -5.40332 -6.79951 0
M  V30 3145 H 492.028 -4.41613 -5.32378 0
M  V30 3146 H 492.895 -3.26331 -7.47797 0
M  V30 3147 P 496.857 -2.75334 -8.47391 0
M  V30 3148 O 497.077 -2.44595 -9.90239 0
M  V30 3149 O 497.647 -3.87732 -7.92204 0
M  V30 3150 O 497.107 -1.4459 -7.59357 0
M  V30 3151 C 496.167 -0.347563 -7.69115 0
M  V30 3152 C 496.897 0.96767 -7.52806 0
M  V30 3153 O 497.107 1.21036 -6.1011 0
M  V30 3154 C 498.297 1.04544 -8.13308 0
M  V30 3155 O 498.687 2.38311 -8.41922 0
M  V30 3156 C 499.177 0.491279 -7.02284 0
M  V30 3157 C 498.467 0.996264 -5.77469 0
M  V30 3158 N 498.517 0.0501808 -4.62873 0
M  V30 3159 C 498.667 0.588177 -3.36904 0
M  V30 3160 O 498.757 1.78598 -3.17173 0
M  V30 3161 N 498.707 -0.329694 -2.33686 0
M  V30 3162 C 498.617 -1.6953 -2.45079 0
M  V30 3163 O 498.667 -2.41926 -1.44899 0
M  V30 3164 C 498.467 -2.16933 -3.80505 0
M  V30 3165 C 498.357 -3.65373 -3.97621 0
M  V30 3166 C 498.417 -1.30326 -4.83752 0
M  V30 3167 H 495.677 -0.374722 -8.67691 0
M  V30 3168 H 495.408 -0.443421 -6.90177 0
M  V30 3169 H 496.275 1.75537 -7.96793 0
M  V30 3170 H 498.93 1.94496 -5.46629 0
M  V30 3171 H 499.209 -0.608651 -7.04676 0
M  V30 3172 H 500.201 0.889672 -7.08939 0
M  V30 3173 H 498.367 0.43308 -9.04564 0
M  V30 3174 H 498.296 -1.68366 -5.8516 0
M  V30 3175 H 499.326 -4.05985 -4.30448 0
M  V30 3176 H 497.589 -3.88028 -4.72875 0
M  V30 3177 H 498.077 -4.11381 -3.01609 0
M  V30 3178 H 498.813 0.0393617 -1.41345 0
M  V30 3179 P 500.237 2.75334 -8.47391 0
M  V30 3180 O 500.457 3.84128 -9.44797 0
M  V30 3181 O 501.027 1.51947 -8.68712 0
M  V30 3182 O 500.487 3.29363 -6.99321 0
M  V30 3183 C 499.547 4.24011 -6.4274 0
M  V30 3184 C 500.277 5.20775 -5.52155 0
M  V30 3185 O 500.487 4.56534 -4.22446 0
M  V30 3186 C 501.677 5.62629 -5.96531 0
M  V30 3187 O 502.067 6.87667 -5.41053 0
M  V30 3188 C 502.557 4.52537 -5.39283 0
M  V30 3189 C 501.847 4.20027 -4.08623 0
M  V30 3190 N 501.897 2.76189 -3.71603 0
M  V30 3191 H 499.058 4.797 -7.24003 0
M  V30 3192 H 498.788 3.69856 -5.84513 0
M  V30 3193 H 499.655 6.10356 -5.41441 0
M  V30 3194 P 503.617 7.20834 -5.23717 0
M  V30 3195 O 503.837 8.66104 -5.38572 0
M  V30 3196 O 504.407 6.33544 -6.1349 0
M  V30 3197 O 503.867 6.7751 -3.72168 0
M  V30 3198 C 502.927 7.20825 -2.7076 0
M  V30 3199 C 503.657 7.45864 -1.40599 0
M  V30 3200 O 503.867 6.17651 -0.734225 0
M  V30 3201 C 505.057 8.05808 -1.51899 0
M  V30 3202 O 505.447 8.74358 -0.335205 0
M  V30 3203 C 505.937 6.83093 -1.70294 0
M  V30 3204 C 505.227 5.79992 -0.836974 0
M  V30 3205 N 505.277 4.41864 -1.38293 0
M  V30 3206 H 502.438 8.13644 -3.0377 0
M  V30 3207 H 502.168 6.42788 -2.55485 0
M  V30 3208 H 503.035 8.12039 -0.792769 0
M  V30 3209 P 506.997 8.91 3.06942e-12 0
M  V30 3210 O 507.217 10.1726 0.733694 0
M  V30 3211 O 507.787 8.73148 -1.23936 0
M  V30 3212 O 507.247 7.66872 0.971405 0
M  V30 3213 C 506.307 7.42309 2.04641 0
M  V30 3214 C 507.037 6.86059 3.24661 0
M  V30 3215 O 507.247 5.42847 3.03646 0
M  V30 3216 C 508.437 7.41196 3.50753 0
M  V30 3217 O 508.827 7.27073 4.86816 0
M  V30 3218 C 509.317 6.5273 2.63741 0
M  V30 3219 C 508.607 5.1842 2.73198 0
M  V30 3220 N 508.657 4.38762 1.4784 0
M  V30 3221 H 505.818 8.36803 2.32493 0
M  V30 3222 H 505.548 6.70197 1.71129 0
M  V30 3223 H 506.415 7.03551 4.13168 0
M  V30 3224 P 510.377 7.20834 5.23717 0
M  V30 3225 O 510.597 7.79853 6.57286 0
M  V30 3226 O 511.167 7.79239 4.12957 0
M  V30 3227 O 510.627 5.63315 5.29344 0
M  V30 3228 C 509.687 4.80255 6.01876 0
M  V30 3229 C 510.417 3.64202 6.65911 0
M  V30 3230 O 510.627 2.60694 5.64732 0
M  V30 3231 C 511.817 3.93473 7.1943 0
M  V30 3232 O 512.207 3.02071 8.21205 0
M  V30 3233 C 512.697 3.73047 5.97036 0
M  V30 3234 C 511.987 2.58828 5.25741 0
M  V30 3235 N 512.037 2.68068 3.77503 0
M  V30 3236 H 509.198 5.40332 6.79951 0
M  V30 3237 H 508.928 4.41613 5.32378 0
M  V30 3238 H 509.795 3.26331 7.47797 0
M  V30 3239 P 513.757 2.75334 8.47391 0
M  V30 3240 O 513.977 2.44571 9.90142 0
M  V30 3241 O 514.547 3.87688 7.92115 0
M  V30 3242 O 514.007 1.4459 7.59357 0
M  V30 3243 C 513.067 0.347608 7.69215 0
M  V30 3244 C 513.797 -0.96767 7.52806 0
M  V30 3245 O 514.007 -1.21036 6.1011 0
M  V30 3246 C 515.197 -1.04544 8.13308 0
M  V30 3247 O 515.587 -2.38311 8.41922 0
M  V30 3248 C 516.077 -0.491279 7.02284 0
M  V30 3249 C 515.367 -0.996264 5.77469 0
M  V30 3250 N 515.417 -0.0501916 4.62973 0
M  V30 3251 H 512.578 0.374722 8.67691 0
M  V30 3252 H 512.308 0.443485 6.90277 0
M  V30 3253 H 513.175 -1.75537 7.96793 0
M  V30 3254 P 517.137 -2.75334 8.47391 0
M  V30 3255 O 517.357 -3.84128 9.44797 0
M  V30 3256 O 517.927 -1.51947 8.68712 0
M  V30 3257 O 517.387 -3.29363 6.99321 0
M  V30 3258 C 516.447 -4.24011 6.4274 0
M  V30 3259 C 517.177 -5.20775 5.52155 0
M  V30 3260 O 517.387 -4.56534 4.22446 0
M  V30 3261 C 518.577 -5.62629 5.96531 0
M  V30 3262 O 518.967 -6.87667 5.41053 0
M  V30 3263 C 519.457 -4.52537 5.39283 0
M  V30 3264 C 518.747 -4.20027 4.08623 0
M  V30 3265 N 518.797 -2.76189 3.71603 0
M  V30 3266 H 515.958 -4.797 7.24003 0
M  V30 3267 H 515.688 -3.69856 5.84513 0
M  V30 3268 H 516.555 -6.10356 5.41441 0
M  V30 3269 P 520.517 -7.20834 5.23717 0
M  V30 3270 O 520.737 -8.66104 5.38572 0
M  V30 3271 O 521.307 -6.33544 6.1349 0
M  V30 3272 O 520.767 -6.7751 3.72168 0
M  V30 3273 C 519.827 -7.20825 2.7076 0
M  V30 3274 C 520.557 -7.45864 1.40599 0
M  V30 3275 O 520.767 -6.17651 0.734225 0
M  V30 3276 C 521.957 -8.05808 1.51899 0
M  V30 3277 O 522.347 -8.74358 0.335205 0
M  V30 3278 C 522.837 -6.83093 1.70294 0
M  V30 3279 C 522.127 -5.79992 0.836974 0
M  V30 3280 N 522.177 -4.41864 1.38293 0
M  V30 3281 C 522.097 -3.99538 2.69438 0
M  V30 3282 N 522.177 -2.69909 2.84277 0
M  V30 3283 C 522.317 -2.21719 1.5408 0
M  V30 3284 C 522.447 -0.891712 1.06628 0
M  V30 3285 N 522.567 -0.856846 -0.334985 0
M  V30 3286 C 522.567 -1.9641 -1.15789 0
M  V30 3287 N 522.697 -1.72708 -2.46522 0
M  V30 3288 N 522.437 -3.21165 -0.713741 0
M  V30 3289 C 522.317 -3.26797 0.639748 0
M  V30 3290 H 519.338 -8.13644 3.0377 0
M  V30 3291 H 519.068 -6.42788 2.55485 0
M  V30 3292 H 519.935 -8.12039 0.792769 0
M  V30 3293 P 523.897 -8.91 -3.22661e-12 0
M  V30 3294 O 524.117 -10.1726 -0.733694 0
M  V30 3295 O 524.687 -8.73148 1.23936 0
M  V30 3296 O 524.147 -7.66872 -0.971405 0
M  V30 3297 C 523.207 -7.42309 -2.04641 0
M  V30 3298 C 523.937 -6.86059 -3.24661 0
M  V30 3299 O 524.147 -5.42847 -3.03646 0
M  V30 3300 C 525.337 -7.41196 -3.50753 0
M  V30 3301 O 525.727 -7.27073 -4.86816 0
M  V30 3302 C 526.217 -6.5273 -2.63741 0
M  V30 3303 C 525.507 -5.1842 -2.73198 0
M  V30 3304 N 525.557 -4.38762 -1.4784 0
M  V30 3305 H 522.718 -8.36803 -2.32493 0
M  V30 3306 H 522.448 -6.70197 -1.71129 0
M  V30 3307 H 523.315 -7.03551 -4.13168 0
M  V30 3308 P 527.277 -7.20834 -5.23717 0
M  V30 3309 O 527.497 -7.79853 -6.57286 0
M  V30 3310 O 528.067 -7.79239 -4.12957 0
M  V30 3311 O 527.527 -5.63315 -5.29344 0
M  V30 3312 C 526.587 -4.80255 -6.01876 0
M  V30 3313 C 527.317 -3.64202 -6.65911 0
M  V30 3314 O 527.527 -2.60694 -5.64732 0
M  V30 3315 C 528.717 -3.93473 -7.1943 0
M  V30 3316 O 529.107 -3.02071 -8.21205 0
M  V30 3317 C 529.597 -3.73047 -5.97036 0
M  V30 3318 C 528.887 -2.58828 -5.25741 0
M  V30 3319 N 528.937 -2.68068 -3.77503 0
M  V30 3320 H 526.098 -5.40332 -6.79951 0
M  V30 3321 H 525.828 -4.41613 -5.32378 0
M  V30 3322 H 526.695 -3.26331 -7.47797 0
M  V30 3323 P 530.657 -2.75334 -8.47391 0
M  V30 3324 O 530.877 -2.44571 -9.90142 0
M  V30 3325 O 531.447 -3.87688 -7.92115 0
M  V30 3326 O 530.907 -1.4459 -7.59357 0
M  V30 3327 C 529.967 -0.347608 -7.69215 0
M  V30 3328 C 530.697 0.96767 -7.52806 0
M  V30 3329 O 530.907 1.21036 -6.1011 0
M  V30 3330 C 532.097 1.04544 -8.13308 0
M  V30 3331 O 532.487 2.38311 -8.41922 0
M  V30 3332 C 532.977 0.491279 -7.02284 0
M  V30 3333 C 532.267 0.996264 -5.77469 0
M  V30 3334 N 532.317 0.0501916 -4.62973 0
M  V30 3335 H 529.478 -0.374722 -8.67691 0
M  V30 3336 H 529.208 -0.443485 -6.90277 0
M  V30 3337 H 530.075 1.75537 -7.96793 0
M  V30 3338 P 534.037 2.75334 -8.47391 0
M  V30 3339 O 534.257 3.84128 -9.44797 0
M  V30 3340 O 534.827 1.51947 -8.68712 0
M  V30 3341 O 534.287 3.29363 -6.99321 0
M  V30 3342 C 533.347 4.24011 -6.4274 0
M  V30 3343 C 534.077 5.20775 -5.52155 0
M  V30 3344 O 534.287 4.56534 -4.22446 0
M  V30 3345 C 535.477 5.62629 -5.96531 0
M  V30 3346 O 535.867 6.87667 -5.41053 0
M  V30 3347 C 536.357 4.52537 -5.39283 0
M  V30 3348 C 535.647 4.20027 -4.08623 0
M  V30 3349 N 535.697 2.76189 -3.71603 0
M  V30 3350 H 532.858 4.797 -7.24003 0
M  V30 3351 H 532.588 3.69856 -5.84513 0
M  V30 3352 H 533.455 6.10356 -5.41441 0
M  V30 3353 P 537.417 7.20834 -5.23717 0
M  V30 3354 O 537.637 8.66104 -5.38572 0
M  V30 3355 O 538.207 6.33544 -6.1349 0
M  V30 3356 O 537.667 6.7751 -3.72168 0
M  V30 3357 C 536.727 7.20825 -2.7076 0
M  V30 3358 C 537.457 7.45864 -1.40599 0
M  V30 3359 O 537.667 6.17651 -0.734225 0
M  V30 3360 C 538.857 8.05808 -1.51899 0
M  V30 3361 O 539.247 8.74358 -0.335205 0
M  V30 3362 C 539.737 6.83093 -1.70294 0
M  V30 3363 C 539.027 5.79992 -0.836974 0
M  V30 3364 N 539.077 4.41864 -1.38293 0
M  V30 3365 H 536.238 8.13644 -3.0377 0
M  V30 3366 H 535.968 6.42788 -2.55485 0
M  V30 3367 H 536.835 8.12039 -0.792769 0
M  V30 3368 P 540.797 8.91 3.38379e-12 0
M  V30 3369 O 541.017 10.1746 0.733838 0
M  V30 3370 O 541.587 8.73346 -1.23964 0
M  V30 3371 O 541.047 7.66872 0.971405 0
M  V30 3372 C 540.107 7.42405 2.04668 0
M  V30 3373 C 540.837 6.86059 3.24661 0
M  V30 3374 O 541.047 5.42934 3.03695 0
M  V30 3375 C 542.237 7.41287 3.50796 0
M  V30 3376 O 542.627 7.27073 4.86816 0
M  V30 3377 C 543.117 6.5273 2.63741 0
M  V30 3378 C 542.407 5.1842 2.73198 0
M  V30 3379 N 542.457 4.38762 1.4784 0
M  V30 3380 H 539.619 8.36899 2.3252 0
M  V30 3381 H 539.347 6.70391 1.71179 0
M  V30 3382 H 540.215 7.03638 4.13219 0
M  V30 3383 H 542.87 4.59931 3.54016 0
M  V30 3384 H 543.15 6.88995 1.59871 0
M  V30 3385 H 544.141 6.4684 3.0373 0
M  V30 3386 H 542.307 8.47002 3.20749 0
M  V30 3387 P 544.177 7.20834 5.23717 0
M  V30 3388 O 544.397 7.7993 6.57351 0
M  V30 3389 O 544.967 7.79328 4.13004 0
M  V30 3390 O 544.427 5.63315 5.29344 0
M  V30 3391 C 543.487 4.80193 6.01798 0
M  V30 3392 C 544.217 3.64202 6.65911 0
M  V30 3393 O 544.427 2.60694 5.64732 0
M  V30 3394 C 545.617 3.93473 7.1943 0
M  V30 3395 O 546.007 3.02071 8.21205 0
M  V30 3396 C 546.497 3.73047 5.97036 0
M  V30 3397 C 545.787 2.58828 5.25741 0
M  V30 3398 N 545.837 2.6801 3.77422 0
M  V30 3399 C 545.987 1.50443 3.07133 0
M  V30 3400 O 546.077 0.419406 3.61576 0
M  V30 3401 N 546.027 1.6403 1.69677 0
M  V30 3402 C 545.937 2.81206 0.986255 0
M  V30 3403 O 545.987 2.80892 -0.249754 0
M  V30 3404 C 545.787 3.99158 1.80325 0
M  V30 3405 C 545.677 5.29309 1.06921 0
M  V30 3406 C 545.737 3.89779 3.1476 0
M  V30 3407 H 542.997 5.40332 6.79951 0
M  V30 3408 H 542.728 4.41549 5.32301 0
M  V30 3409 H 543.595 3.26331 7.47797 0
M  V30 3410 H 546.25 1.6395 5.56554 0
M  V30 3411 H 546.529 4.63439 5.3432 0
M  V30 3412 H 547.521 3.44728 6.25838 0
M  V30 3413 H 545.687 4.96652 7.57263 0
M  V30 3414 H 545.616 4.80159 3.74441 0
M  V30 3415 H 546.646 5.81459 1.09608 0
M  V30 3416 H 544.909 5.9187 1.54487 0
M  V30 3417 H 545.397 5.10095 0.0220288 0
M  V30 3418 H 546.133 0.798962 1.16664 0
M  V30 3419 P 547.557 2.75334 8.47391 0
M  V30 3420 O 547.777 2.44571 9.90142 0
M  V30 3421 O 548.347 3.87688 7.92115 0
M  V30 3422 O 547.807 1.4459 7.59357 0
M  V30 3423 C 546.867 0.347608 7.69215 0
M  V30 3424 C 547.597 -0.96767 7.52806 0
M  V30 3425 O 547.807 -1.21036 6.1011 0
M  V30 3426 C 548.997 -1.04544 8.13308 0
M  V30 3427 O 549.387 -2.38311 8.41922 0
M  V30 3428 C 549.877 -0.491279 7.02284 0
M  V30 3429 C 549.167 -0.996264 5.77469 0
M  V30 3430 N 549.217 -0.0501916 4.62973 0
M  V30 3431 C 549.137 1.32786 4.63244 0
M  V30 3432 N 549.217 1.86957 3.44545 0
M  V30 3433 C 549.357 0.780241 2.58481 0
M  V30 3434 C 549.487 0.738536 1.17757 0
M  V30 3435 N 549.607 -0.58337 0.711393 0
M  V30 3436 C 549.607 -1.70816 1.51017 0
M  V30 3437 N 549.737 -2.87826 0.880757 0
M  V30 3438 N 549.477 -1.67126 2.8339 0
M  V30 3439 C 549.357 -0.401421 3.30572 0
M  V30 3440 H 546.378 0.374722 8.67691 0
M  V30 3441 H 546.108 0.443485 6.90277 0
M  V30 3442 H 546.975 -1.75537 7.96793 0
M  V30 3443 P 550.937 -2.75334 8.47391 0
M  V30 3444 O 551.157 -3.84166 9.4489 0
M  V30 3445 O 551.727 -1.51964 8.6881 0
M  V30 3446 O 551.187 -3.29363 6.99321 0
M  V30 3447 C 550.247 -4.23956 6.42656 0
M  V30 3448 C 550.977 -5.20775 5.52155 0
M  V30 3449 O 551.187 -4.56534 4.22446 0
M  V30 3450 C 552.377 -5.62629 5.96531 0
M  V30 3451 O 552.767 -6.87667 5.41053 0
M  V30 3452 C 553.257 -4.52537 5.39283 0
M  V30 3453 C 552.547 -4.20027 4.08623 0
M  V30 3454 N 552.597 -2.7613 3.71522 0
M  V30 3455 C 552.747 -2.45612 2.37989 0
M  V30 3456 O 552.837 -3.30919 1.51621 0
M  V30 3457 N 552.787 -1.10684 2.08435 0
M  V30 3458 C 552.697 -0.0690084 2.9792 0
M  V30 3459 C 552.547 -0.481522 4.35345 0
M  V30 3460 C 552.497 -1.78906 4.67968 0
M  V30 3461 H 549.757 -4.797 7.24003 0
M  V30 3462 H 549.488 -3.69802 5.84429 0
M  V30 3463 H 550.355 -6.10356 5.41441 0
M  V30 3464 H 553.01 -4.78651 3.27911 0
M  V30 3465 H 553.289 -3.64957 6.05871 0
M  V30 3466 H 554.281 -4.8868 5.2125 0
M  V30 3467 H 552.447 -5.66726 7.06352 0
M  V30 3468 H 552.376 -2.07737 5.72367 0
M  V30 3469 P 554.317 -7.20834 5.23717 0
M  V30 3470 O 554.537 -8.66189 5.38625 0
M  V30 3471 O 555.107 -6.33615 6.1356 0
M  V30 3472 O 554.567 -6.7751 3.72168 0
M  V30 3473 C 553.627 -7.20825 2.7076 0
M  V30 3474 C 554.357 -7.45864 1.40599 0
M  V30 3475 O 554.567 -6.17651 0.734225 0
M  V30 3476 C 555.757 -8.05808 1.51899 0
M  V30 3477 O 556.147 -8.74358 0.335205 0
M  V30 3478 C 556.637 -6.83093 1.70294 0
M  V30 3479 C 555.927 -5.79992 0.836974 0
M  V30 3480 N 555.977 -4.41769 1.38263 0
M  V30 3481 C 556.127 -3.36514 0.485617 0
M  V30 3482 O 556.217 -3.61814 -0.724703 0
M  V30 3483 N 556.177 -2.00746 1.14492 0
M  V30 3484 C 556.077 -1.85887 2.27776 0
M  V30 3485 N 556.127 -0.600907 2.69379 0
M  V30 3486 C 555.927 -2.92182 3.22265 0
M  V30 3487 C 555.877 -4.18399 2.71925 0
M  V30 3488 H 553.137 -8.1355 3.03735 0
M  V30 3489 H 552.868 -6.42695 2.55448 0
M  V30 3490 H 553.735 -8.12139 0.792866 0
M  V30 3491 H 556.39 -5.80078 -0.160615 0
M  V30 3492 H 556.669 -6.51379 2.75643 0
M  V30 3493 H 557.661 -7.01734 1.34462 0
M  V30 3494 H 555.827 -8.73674 2.38337 0
M  V30 3495 H 555.755 -5.02669 3.39718 0
M  V30 3496 H 555.857 -2.73001 4.29239 0
M  V30 3497 H 556.245 0.162318 2.01146 0
M  V30 3498 H 556.048 -0.387742 3.69773 0
M  V30 3499 P 557.697 -8.91 -3.54097e-12 0
M  V30 3500 O 557.917 -10.1736 -0.733766 0
M  V30 3501 O 558.487 -8.73247 1.2395 0
M  V30 3502 O 557.947 -7.66872 -0.971405 0
M  V30 3503 C 557.007 -7.42212 -2.04614 0
M  V30 3504 C 557.737 -6.86059 -3.24661 0
M  V30 3505 O 557.947 -5.42847 -3.03646 0
M  V30 3506 C 559.137 -7.41196 -3.50753 0
M  V30 3507 O 559.527 -7.27073 -4.86816 0
M  V30 3508 C 560.017 -6.5273 -2.63741 0
M  V30 3509 C 559.307 -5.1842 -2.73198 0
M  V30 3510 N 559.357 -4.38668 -1.47808 0
M  V30 3511 C 559.507 -3.02239 -1.60048 0
M  V30 3512 O 559.597 -2.46459 -2.67869 0
M  V30 3513 N 559.547 -2.32436 -0.408571 0
M  V30 3514 C 559.457 -2.85471 0.854993 0
M  V30 3515 O 559.507 -2.12566 1.8531 0
M  V30 3516 C 559.307 -4.28918 0.887335 0
M  V30 3517 C 559.197 -4.91066 2.24619 0
M  V30 3518 C 559.257 -5.00349 -0.255399 0
M  V30 3519 H 556.517 -8.36803 -2.32493 0
M  V30 3520 H 556.248 -6.701 -1.71105 0
M  V30 3521 H 557.115 -7.03551 -4.13168 0
M  V30 3522 H 559.77 -4.59773 -3.53894 0
M  V30 3523 H 560.049 -6.88995 -1.59871 0
M  V30 3524 H 561.041 -6.46749 -3.03687 0
M  V30 3525 H 559.207 -8.46908 -3.20714 0
M  V30 3526 H 559.136 -6.08548 -0.206986 0
M  V30 3527 H 560.166 -5.34836 2.53099 0
M  V30 3528 H 558.429 -5.69638 2.2291 0
M  V30 3529 H 558.917 -4.13971 2.98044 0
M  V30 3530 H 559.653 -1.33211 -0.474216 0
M  V30 3531 P 561.077 -7.20834 -5.23717 0
M  V30 3532 O 561.297 -7.79853 -6.57286 0
M  V30 3533 O 561.867 -7.79239 -4.12957 0
M  V30 3534 O 561.327 -5.63315 -5.29344 0
M  V30 3535 C 560.387 -4.80255 -6.01876 0
M  V30 3536 C 561.117 -3.64202 -6.65911 0
M  V30 3537 O 561.327 -2.60694 -5.64732 0
M  V30 3538 C 562.517 -3.93473 -7.1943 0
M  V30 3539 O 562.907 -3.02071 -8.21205 0
M  V30 3540 C 563.397 -3.73047 -5.97036 0
M  V30 3541 C 562.687 -2.58828 -5.25741 0
M  V30 3542 N 562.737 -2.68068 -3.77503 0
M  V30 3543 H 559.898 -5.40332 -6.79951 0
M  V30 3544 H 559.628 -4.41613 -5.32378 0
M  V30 3545 H 560.495 -3.26331 -7.47797 0
M  V30 3546 P 564.457 -2.75334 -8.47391 0
M  V30 3547 O 564.677 -2.44571 -9.90142 0
M  V30 3548 O 565.247 -3.87688 -7.92115 0
M  V30 3549 O 564.707 -1.4459 -7.59357 0
M  V30 3550 C 563.767 -0.347608 -7.69215 0
M  V30 3551 C 564.497 0.96767 -7.52806 0
M  V30 3552 O 564.707 1.21036 -6.1011 0
M  V30 3553 C 565.897 1.04544 -8.13308 0
M  V30 3554 O 566.287 2.38311 -8.41922 0
M  V30 3555 C 566.777 0.491279 -7.02284 0
M  V30 3556 C 566.067 0.996264 -5.77469 0
M  V30 3557 N 566.117 0.0501916 -4.62973 0
M  V30 3558 H 563.278 -0.374722 -8.67691 0
M  V30 3559 H 563.008 -0.443485 -6.90277 0
M  V30 3560 H 563.875 1.75537 -7.96793 0
M  V30 3561 P 567.837 2.75334 -8.47391 0
M  V30 3562 O 568.057 3.84128 -9.44797 0
M  V30 3563 O 568.627 1.51947 -8.68712 0
M  V30 3564 O 568.087 3.29363 -6.99321 0
M  V30 3565 C 567.147 4.24011 -6.4274 0
M  V30 3566 C 567.877 5.20775 -5.52155 0
M  V30 3567 O 568.087 4.56534 -4.22446 0
M  V30 3568 C 569.277 5.62629 -5.96531 0
M  V30 3569 O 569.667 6.87667 -5.41053 0
M  V30 3570 C 570.157 4.52537 -5.39283 0
M  V30 3571 C 569.447 4.20027 -4.08623 0
M  V30 3572 N 569.497 2.76189 -3.71603 0
M  V30 3573 H 566.658 4.797 -7.24003 0
M  V30 3574 H 566.388 3.69856 -5.84513 0
M  V30 3575 H 567.255 6.10356 -5.41441 0
M  V30 3576 P 571.217 7.20834 -5.23717 0
M  V30 3577 O 571.437 8.66104 -5.38572 0
M  V30 3578 O 572.007 6.33544 -6.1349 0
M  V30 3579 O 571.467 6.7751 -3.72168 0
M  V30 3580 C 570.527 7.20825 -2.7076 0
M  V30 3581 C 571.257 7.45864 -1.40599 0
M  V30 3582 O 571.467 6.17651 -0.734225 0
M  V30 3583 C 572.657 8.05808 -1.51899 0
M  V30 3584 O 573.047 8.74358 -0.335205 0
M  V30 3585 C 573.537 6.83093 -1.70294 0
M  V30 3586 C 572.827 5.79992 -0.836974 0
M  V30 3587 N 572.877 4.41864 -1.38293 0
M  V30 3588 H 570.038 8.13644 -3.0377 0
M  V30 3589 H 569.768 6.42788 -2.55485 0
M  V30 3590 H 570.635 8.12039 -0.792769 0
M  V30 3591 P 574.597 8.91 3.69815e-12 0
M  V30 3592 O 574.817 10.1726 0.733694 0
M  V30 3593 O 575.387 8.73148 -1.23936 0
M  V30 3594 O 574.847 7.66872 0.971405 0
M  V30 3595 C 573.907 7.42309 2.04641 0
M  V30 3596 C 574.637 6.86059 3.24661 0
M  V30 3597 O 574.847 5.42847 3.03646 0
M  V30 3598 C 576.037 7.41196 3.50753 0
M  V30 3599 O 576.427 7.27073 4.86816 0
M  V30 3600 C 576.917 6.5273 2.63741 0
M  V30 3601 C 576.207 5.1842 2.73198 0
M  V30 3602 N 576.257 4.38762 1.4784 0
M  V30 3603 C 576.177 4.81605 0.168631 0
M  V30 3604 N 576.257 3.85454 -0.713363 0
M  V30 3605 C 576.397 2.6994 0.0566958 0
M  V30 3606 C 576.527 1.34815 -0.338502 0
M  V30 3607 N 576.647 0.496304 0.77465 0
M  V30 3608 C 576.647 0.908403 2.09122 0
M  V30 3609 N 576.777 -0.0517805 3.00955 0
M  V30 3610 N 576.517 2.17875 2.46519 0
M  V30 3611 C 576.397 3.01988 1.4033 0
M  V30 3612 H 573.418 8.36803 2.32493 0
M  V30 3613 H 573.148 6.70197 1.71129 0
M  V30 3614 H 574.015 7.03551 4.13168 0
M  V30 3615 P 577.977 7.20834 5.23717 0
M  V30 3616 O 578.197 7.79853 6.57286 0
M  V30 3617 O 578.767 7.79239 4.12957 0
M  V30 3618 O 578.227 5.63315 5.29344 0
M  V30 3619 C 577.287 4.80255 6.01876 0
M  V30 3620 C 578.017 3.64202 6.65911 0
M  V30 3621 O 578.227 2.60694 5.64732 0
M  V30 3622 C 579.417 3.93473 7.1943 0
M  V30 3623 O 579.807 3.02071 8.21205 0
M  V30 3624 C 580.297 3.73047 5.97036 0
M  V30 3625 C 579.587 2.58828 5.25741 0
M  V30 3626 N 579.637 2.68068 3.77503 0
M  V30 3627 H 576.798 5.40332 6.79951 0
M  V30 3628 H 576.528 4.41613 5.32378 0
M  V30 3629 H 577.395 3.26331 7.47797 0
M  V30 3630 P 581.357 2.75334 8.47391 0
M  V30 3631 O 581.577 2.44571 9.90142 0
M  V30 3632 O 582.147 3.87688 7.92115 0
M  V30 3633 O 581.607 1.4459 7.59357 0
M  V30 3634 C 580.667 0.347608 7.69215 0
M  V30 3635 C 581.397 -0.96767 7.52806 0
M  V30 3636 O 581.607 -1.21036 6.1011 0
M  V30 3637 C 582.797 -1.04544 8.13308 0
M  V30 3638 O 583.187 -2.38311 8.41922 0
M  V30 3639 C 583.677 -0.491279 7.02284 0
M  V30 3640 C 582.967 -0.996264 5.77469 0
M  V30 3641 N 583.017 -0.0501916 4.62973 0
M  V30 3642 H 580.178 0.374722 8.67691 0
M  V30 3643 H 579.908 0.443485 6.90277 0
M  V30 3644 H 580.775 -1.75537 7.96793 0
M  V30 3645 P 584.737 -2.75334 8.47391 0
M  V30 3646 O 584.957 -3.84128 9.44797 0
M  V30 3647 O 585.527 -1.51947 8.68712 0
M  V30 3648 O 584.987 -3.29363 6.99321 0
M  V30 3649 C 584.047 -4.24011 6.4274 0
M  V30 3650 C 584.777 -5.20775 5.52155 0
M  V30 3651 O 584.987 -4.56534 4.22446 0
M  V30 3652 C 586.177 -5.62629 5.96531 0
M  V30 3653 O 586.567 -6.87667 5.41053 0
M  V30 3654 C 587.057 -4.52537 5.39283 0
M  V30 3655 C 586.347 -4.20027 4.08623 0
M  V30 3656 N 586.397 -2.76189 3.71603 0
M  V30 3657 H 583.558 -4.797 7.24003 0
M  V30 3658 H 583.288 -3.69856 5.84513 0
M  V30 3659 H 584.155 -6.10356 5.41441 0
M  V30 3660 P 588.117 -7.20834 5.23717 0
M  V30 3661 O 588.337 -8.66104 5.38572 0
M  V30 3662 O 588.907 -6.33544 6.1349 0
M  V30 3663 O 588.367 -6.7751 3.72168 0
M  V30 3664 C 587.427 -7.20825 2.7076 0
M  V30 3665 C 588.157 -7.45864 1.40599 0
M  V30 3666 O 588.367 -6.17651 0.734225 0
M  V30 3667 C 589.557 -8.05808 1.51899 0
M  V30 3668 O 589.947 -8.74358 0.335205 0
M  V30 3669 C 590.437 -6.83093 1.70294 0
M  V30 3670 C 589.727 -5.79992 0.836974 0
M  V30 3671 N 589.777 -4.41864 1.38293 0
M  V30 3672 H 586.938 -8.13644 3.0377 0
M  V30 3673 H 586.668 -6.42788 2.55485 0
M  V30 3674 H 587.535 -8.12039 0.792769 0
M  V30 3675 P 591.496 -8.91 -3.85533e-12 0
M  V30 3676 O 591.716 -10.1726 -0.733694 0
M  V30 3677 O 592.286 -8.73148 1.23936 0
M  V30 3678 O 591.746 -7.66872 -0.971405 0
M  V30 3679 C 590.806 -7.42309 -2.04641 0
M  V30 3680 C 591.536 -6.86059 -3.24661 0
M  V30 3681 O 591.746 -5.42847 -3.03646 0
M  V30 3682 C 592.937 -7.41196 -3.50753 0
M  V30 3683 O 593.327 -7.27073 -4.86816 0
M  V30 3684 C 593.817 -6.5273 -2.63741 0
M  V30 3685 C 593.106 -5.1842 -2.73198 0
M  V30 3686 N 593.156 -4.38762 -1.4784 0
M  V30 3687 C 593.077 -4.81605 -0.168631 0
M  V30 3688 N 593.156 -3.85454 0.713363 0
M  V30 3689 C 593.296 -2.6994 -0.0566958 0
M  V30 3690 C 593.426 -1.34815 0.338502 0
M  V30 3691 O 593.447 -0.869548 1.47125 0
M  V30 3692 N 593.546 -0.496304 -0.77465 0
M  V30 3693 C 593.546 -0.908403 -2.09122 0
M  V30 3694 N 593.676 0.0517805 -3.00955 0
M  V30 3695 N 593.416 -2.17875 -2.46519 0
M  V30 3696 C 593.296 -3.01988 -1.4033 0
M  V30 3697 H 590.317 -8.36803 -2.32493 0
M  V30 3698 H 590.048 -6.70197 -1.71129 0
M  V30 3699 H 590.914 -7.03551 -4.13168 0
M  V30 3700 H 593.569 -4.59498 -3.54415 0
M  V30 3701 H 593.848 -6.88898 -1.59848 0
M  V30 3702 H 594.841 -6.46749 -3.03687 0
M  V30 3703 H 593.006 -8.46908 -3.20714 0
M  V30 3704 H 592.957 -5.86405 0.105564 0
M  V30 3705 H 593.639 0.483664 -0.597855 0
M  V30 3706 H 593.676 -0.187865 -4.0116 0
M  V30 3707 H 593.777 1.03585 -2.71726 0
M  V30 3708 P 594.876 -7.20834 -5.23717 0
M  V30 3709 O 595.096 -7.79853 -6.57286 0
M  V30 3710 O 595.666 -7.79239 -4.12957 0
M  V30 3711 O 595.126 -5.63315 -5.29344 0
M  V30 3712 C 594.186 -4.80255 -6.01876 0
M  V30 3713 C 594.916 -3.64202 -6.65911 0
M  V30 3714 O 595.126 -2.60694 -5.64732 0
M  V30 3715 C 596.316 -3.93473 -7.1943 0
M  V30 3716 O 596.706 -3.02071 -8.21205 0
M  V30 3717 C 597.196 -3.73047 -5.97036 0
M  V30 3718 C 596.486 -2.58828 -5.25741 0
M  V30 3719 N 596.536 -2.68068 -3.77503 0
M  V30 3720 H 593.697 -5.40332 -6.79951 0
M  V30 3721 H 593.427 -4.41613 -5.32378 0
M  V30 3722 H 594.294 -3.26331 -7.47797 0
M  V30 3723 P 598.256 -2.75334 -8.47391 0
M  V30 3724 O 598.476 -2.44571 -9.90142 0
M  V30 3725 O 599.046 -3.87688 -7.92115 0
M  V30 3726 O 598.506 -1.4459 -7.59357 0
M  V30 3727 C 597.566 -0.347608 -7.69215 0
M  V30 3728 C 598.296 0.96767 -7.52806 0
M  V30 3729 O 598.506 1.21036 -6.1011 0
M  V30 3730 C 599.696 1.04544 -8.13308 0
M  V30 3731 O 600.086 2.38311 -8.41922 0
M  V30 3732 C 600.576 0.491279 -7.02284 0
M  V30 3733 C 599.866 0.996264 -5.77469 0
M  V30 3734 N 599.916 0.0501916 -4.62973 0
M  V30 3735 H 597.077 -0.374722 -8.67691 0
M  V30 3736 H 596.807 -0.443485 -6.90277 0
M  V30 3737 H 597.674 1.75537 -7.96793 0
M  V30 3738 P 601.636 2.75334 -8.47391 0
M  V30 3739 O 601.856 3.84128 -9.44797 0
M  V30 3740 O 602.426 1.51947 -8.68712 0
M  V30 3741 O 601.886 3.29363 -6.99321 0
M  V30 3742 C 600.946 4.24011 -6.4274 0
M  V30 3743 C 601.676 5.20775 -5.52155 0
M  V30 3744 O 601.886 4.56534 -4.22446 0
M  V30 3745 C 603.076 5.62629 -5.96531 0
M  V30 3746 O 603.466 6.87667 -5.41053 0
M  V30 3747 C 603.956 4.52537 -5.39283 0
M  V30 3748 C 603.246 4.20027 -4.08623 0
M  V30 3749 N 603.296 2.76189 -3.71603 0
M  V30 3750 H 600.457 4.797 -7.24003 0
M  V30 3751 H 600.187 3.69856 -5.84513 0
M  V30 3752 H 601.054 6.10356 -5.41441 0
M  V30 3753 P 605.016 7.20834 -5.23717 0
M  V30 3754 O 605.236 8.66189 -5.38625 0
M  V30 3755 O 605.806 6.33615 -6.1356 0
M  V30 3756 O 605.266 6.7751 -3.72168 0
M  V30 3757 C 604.326 7.20732 -2.70725 0
M  V30 3758 C 605.056 7.45864 -1.40599 0
M  V30 3759 O 605.266 6.17651 -0.734225 0
M  V30 3760 C 606.456 8.05808 -1.51899 0
M  V30 3761 O 606.846 8.74358 -0.335205 0
M  V30 3762 C 607.336 6.83093 -1.70294 0
M  V30 3763 C 606.626 5.79992 -0.836974 0
M  V30 3764 N 606.676 4.41769 -1.38263 0
M  V30 3765 C 606.826 3.38591 -0.481702 0
M  V30 3766 O 606.916 3.56839 0.718452 0
M  V30 3767 N 606.866 2.1206 -1.03569 0
M  V30 3768 C 606.776 1.80696 -2.36966 0
M  V30 3769 C 606.626 2.94845 -3.23898 0
M  V30 3770 C 606.576 4.19803 -2.73435 0
M  V30 3771 H 603.836 8.13644 -3.0377 0
M  V30 3772 H 603.567 6.42695 -2.55448 0
M  V30 3773 H 604.434 8.12039 -0.792769 0
M  V30 3774 H 607.089 5.79978 0.160587 0
M  V30 3775 H 607.368 6.51379 -2.75643 0
M  V30 3776 H 608.36 7.01734 -1.34462 0
M  V30 3777 H 606.526 8.73674 -2.38337 0
M  V30 3778 H 606.455 5.04492 -3.4095 0
M  V30 3779 P 608.396 8.91 4.01252e-12 0
M  V30 3780 O 608.616 10.1746 0.733838 0
M  V30 3781 O 609.186 8.73346 -1.23964 0
M  V30 3782 O 608.646 7.66872 0.971405 0
M  V30 3783 C 607.706 7.42405 2.04668 0
M  V30 3784 C 608.436 6.86059 3.24661 0
M  V30 3785 O 608.646 5.42934 3.03695 0
M  V30 3786 C 609.836 7.41287 3.50796 0
M  V30 3787 O 610.226 7.27073 4.86816 0
M  V30 3788 C 610.716 6.5273 2.63741 0
M  V30 3789 C 610.006 5.1842 2.73198 0
M  V30 3790 N 610.056 4.38762 1.4784 0
M  V30 3791 H 607.218 8.36899 2.3252 0
M  V30 3792 H 606.946 6.70391 1.71179 0
M  V30 3793 H 607.814 7.03638 4.13219 0
M  V30 3794 H 610.469 4.59931 3.54016 0
M  V30 3795 H 610.749 6.88995 1.59871 0
M  V30 3796 H 611.74 6.4684 3.0373 0
M  V30 3797 H 609.906 8.47002 3.20749 0
M  V30 3798 P 611.776 7.20834 5.23717 0
M  V30 3799 O 611.996 7.80006 6.57415 0
M  V30 3800 O 612.566 7.79416 4.13051 0
M  V30 3801 O 612.026 5.63315 5.29344 0
M  V30 3802 C 611.086 4.80318 6.01954 0
M  V30 3803 C 611.816 3.64202 6.65911 0
M  V30 3804 O 612.026 2.60736 5.64823 0
M  V30 3805 C 613.216 3.93521 7.19518 0
M  V30 3806 O 613.606 3.02071 8.21205 0
M  V30 3807 C 614.096 3.73047 5.97036 0
M  V30 3808 C 613.386 2.58828 5.25741 0
M  V30 3809 N 613.436 2.68068 3.77503 0
M  V30 3810 H 610.598 5.40394 6.8003 0
M  V30 3811 H 610.326 4.41741 5.32532 0
M  V30 3812 H 611.194 3.26371 7.47889 0
M  V30 3813 H 613.849 1.64007 5.56746 0
M  V30 3814 H 614.129 4.63439 5.3432 0
M  V30 3815 H 615.12 3.44776 6.25925 0
M  V30 3816 H 613.286 4.96707 7.57347 0
M  V30 3817 P 615.156 2.75334 8.47391 0
M  V30 3818 O 615.376 2.44571 9.90142 0
M  V30 3819 O 615.946 3.87688 7.92115 0
M  V30 3820 O 615.406 1.4459 7.59357 0
M  V30 3821 C 614.466 0.347608 7.69215 0
M  V30 3822 C 615.196 -0.96767 7.52806 0
M  V30 3823 O 615.406 -1.21036 6.1011 0
M  V30 3824 C 616.596 -1.04544 8.13308 0
M  V30 3825 O 616.986 -2.38311 8.41922 0
M  V30 3826 C 617.476 -0.491279 7.02284 0
M  V30 3827 C 616.766 -0.996264 5.77469 0
M  V30 3828 N 616.816 -0.0501916 4.62973 0
M  V30 3829 H 613.977 0.374722 8.67691 0
M  V30 3830 H 613.707 0.443485 6.90277 0
M  V30 3831 H 614.574 -1.75537 7.96793 0
M  V30 3832 P 618.536 -2.75334 8.47391 0
M  V30 3833 O 618.756 -3.84128 9.44797 0
M  V30 3834 O 619.326 -1.51947 8.68712 0
M  V30 3835 O 618.786 -3.29363 6.99321 0
M  V30 3836 C 617.846 -4.24011 6.4274 0
M  V30 3837 C 618.576 -5.20775 5.52155 0
M  V30 3838 O 618.786 -4.56534 4.22446 0
M  V30 3839 C 619.976 -5.62629 5.96531 0
M  V30 3840 O 620.366 -6.87667 5.41053 0
M  V30 3841 C 620.856 -4.52537 5.39283 0
M  V30 3842 C 620.146 -4.20027 4.08623 0
M  V30 3843 N 620.196 -2.76189 3.71603 0
M  V30 3844 C 620.116 -1.64862 4.52822 0
M  V30 3845 N 620.196 -0.512671 3.88633 0
M  V30 3846 C 620.336 -0.888083 2.54977 0
M  V30 3847 C 620.466 -0.094668 1.38677 0
M  V30 3848 O 620.486 1.13053 1.28163 0
M  V30 3849 N 620.586 -0.890102 0.232633 0
M  V30 3850 C 620.586 -2.26958 0.21772 0
M  V30 3851 N 620.716 -2.84626 -0.97925 0
M  V30 3852 N 620.456 -3.0178 1.31033 0
M  V30 3853 C 620.336 -2.26781 2.43843 0
M  V30 3854 H 617.357 -4.797 7.24003 0
M  V30 3855 H 617.087 -3.69856 5.84513 0
M  V30 3856 H 617.954 -6.10356 5.41441 0
M  V30 3857 H 620.609 -4.79061 3.27488 0
M  V30 3858 H 620.888 -3.64906 6.05785 0
M  V30 3859 H 621.88 -4.8868 5.2125 0
M  V30 3860 H 620.046 -5.66726 7.06352 0
M  V30 3861 H 619.997 -1.71169 5.60966 0
M  V30 3862 H 620.679 -0.419134 -0.644739 0
M  V30 3863 H 620.716 -3.87332 -1.06098 0
M  V30 3864 H 620.817 -2.26417 -1.82483 0
M  V30 3865 P 621.916 -7.20834 5.23717 0
M  V30 3866 O 622.136 -8.66104 5.38572 0
M  V30 3867 O 622.706 -6.33544 6.1349 0
M  V30 3868 O 622.166 -6.7751 3.72168 0
M  V30 3869 C 621.226 -7.20825 2.7076 0
M  V30 3870 C 621.956 -7.45864 1.40599 0
M  V30 3871 O 622.166 -6.17651 0.734225 0
M  V30 3872 C 623.356 -8.05808 1.51899 0
M  V30 3873 O 623.746 -8.74358 0.335205 0
M  V30 3874 C 624.236 -6.83093 1.70294 0
M  V30 3875 C 623.526 -5.79992 0.836974 0
M  V30 3876 N 623.576 -4.41864 1.38293 0
M  V30 3877 H 620.737 -8.13644 3.0377 0
M  V30 3878 H 620.467 -6.42788 2.55485 0
M  V30 3879 H 621.334 -8.12039 0.792769 0
M  V30 3880 P 625.296 -8.91 -4.1697e-12 0
M  V30 3881 O 625.516 -10.1746 -0.733838 0
M  V30 3882 O 626.086 -8.73346 1.23964 0
M  V30 3883 O 625.546 -7.66872 -0.971405 0
M  V30 3884 C 624.606 -7.42405 -2.04668 0
M  V30 3885 C 625.336 -6.86059 -3.24661 0
M  V30 3886 O 625.546 -5.42934 -3.03695 0
M  V30 3887 C 626.736 -7.41287 -3.50796 0
M  V30 3888 O 627.126 -7.27073 -4.86816 0
M  V30 3889 C 627.616 -6.5273 -2.63741 0
M  V30 3890 C 626.906 -5.1842 -2.73198 0
M  V30 3891 N 626.956 -4.38762 -1.4784 0
M  V30 3892 C 626.876 -4.83651 -0.183876 0
M  V30 3893 N 626.946 -3.88759 0.699393 0
M  V30 3894 C 627.096 -2.7404 -0.0575568 0
M  V30 3895 C 627.226 -1.37902 0.293928 0
M  V30 3896 N 627.236 -0.938021 1.54797 0
M  V30 3897 N 627.346 -0.491817 -0.70549 0
M  V30 3898 C 627.336 -0.931735 -1.95979 0
M  V30 3899 N 627.216 -2.16017 -2.41481 0
M  V30 3900 C 627.096 -3.02547 -1.39121 0
M  V30 3901 H 624.118 -8.36899 -2.3252 0
M  V30 3902 H 623.846 -6.70391 -1.71179 0
M  V30 3903 H 624.714 -7.03638 -4.13219 0
M  V30 3904 H 627.369 -4.59931 -3.54016 0
M  V30 3905 H 627.649 -6.88995 -1.59871 0
M  V30 3906 H 628.64 -6.4684 -3.0373 0
M  V30 3907 H 626.806 -8.47002 -3.20749 0
M  V30 3908 H 626.765 -5.8885 0.0765548 0
M  V30 3909 H 627.146 -1.60276 2.32875 0
M  V30 3910 H 627.335 0.0699355 1.73859 0
M  V30 3911 H 627.443 -0.165507 -2.71897 0
M  V30 3912 P 628.676 -7.20834 -5.23717 0
M  V30 3913 O 628.896 -7.80006 -6.57415 0
M  V30 3914 O 629.466 -7.79416 -4.13051 0
M  V30 3915 O 628.926 -5.63315 -5.29344 0
M  V30 3916 C 627.986 -4.80318 -6.01954 0
M  V30 3917 C 628.716 -3.64202 -6.65911 0
M  V30 3918 O 628.926 -2.60736 -5.64823 0
M  V30 3919 C 630.116 -3.93521 -7.19518 0
M  V30 3920 O 630.506 -3.02071 -8.21205 0
M  V30 3921 C 630.996 -3.73047 -5.97036 0
M  V30 3922 C 630.286 -2.58828 -5.25741 0
M  V30 3923 N 630.336 -2.68068 -3.77503 0
M  V30 3924 H 627.498 -5.40394 -6.8003 0
M  V30 3925 H 627.226 -4.41741 -5.32532 0
M  V30 3926 H 628.094 -3.26371 -7.47889 0
M  V30 3927 H 630.749 -1.64007 -5.56746 0
M  V30 3928 H 631.029 -4.63439 -5.3432 0
M  V30 3929 H 632.02 -3.44776 -6.25925 0
M  V30 3930 H 630.186 -4.96707 -7.57347 0
M  V30 3931 P 632.056 -2.75334 -8.47391 0
M  V30 3932 O 632.276 -2.44571 -9.90142 0
M  V30 3933 O 632.846 -3.87688 -7.92115 0
M  V30 3934 O 632.306 -1.4459 -7.59357 0
M  V30 3935 C 631.366 -0.347608 -7.69215 0
M  V30 3936 C 632.096 0.96767 -7.52806 0
M  V30 3937 O 632.306 1.21036 -6.1011 0
M  V30 3938 C 633.496 1.04544 -8.13308 0
M  V30 3939 O 633.886 2.38311 -8.41922 0
M  V30 3940 C 634.376 0.491279 -7.02284 0
M  V30 3941 C 633.666 0.996264 -5.77469 0
M  V30 3942 N 633.716 0.0501916 -4.62973 0
M  V30 3943 C 633.636 -1.32786 -4.63244 0
M  V30 3944 N 633.716 -1.86957 -3.44545 0
M  V30 3945 C 633.856 -0.780241 -2.58481 0
M  V30 3946 C 633.986 -0.738536 -1.17757 0
M  V30 3947 O 634.006 -1.66794 -0.372349 0
M  V30 3948 N 634.106 0.58337 -0.711393 0
M  V30 3949 C 634.106 1.70816 -1.51017 0
M  V30 3950 N 634.236 2.87826 -0.880757 0
M  V30 3951 N 633.976 1.67126 -2.8339 0
M  V30 3952 C 633.856 0.401421 -3.30572 0
M  V30 3953 H 630.877 -0.374722 -8.67691 0
M  V30 3954 H 630.607 -0.443485 -6.90277 0
M  V30 3955 H 631.474 1.75537 -7.96793 0
M  V30 3956 H 634.129 1.95076 -5.46529 0
M  V30 3957 H 634.408 -0.608565 -7.04577 0
M  V30 3958 H 635.4 0.889672 -7.08939 0
M  V30 3959 H 633.566 0.43308 -9.04564 0
M  V30 3960 H 633.517 -1.91249 -5.54442 0
M  V30 3961 H 634.199 0.718054 0.275244 0
M  V30 3962 H 634.236 3.75721 -1.41832 0
M  V30 3963 H 634.337 2.90436 0.145468 0
M  V30 3964 P 635.436 2.75334 -8.47391 0
M  V30 3965 O 635.656 3.84128 -9.44797 0
M  V30 3966 O 636.226 1.51947 -8.68712 0
M  V30 3967 O 635.686 3.29363 -6.99321 0
M  V30 3968 C 634.746 4.24011 -6.4274 0
M  V30 3969 C 635.476 5.20775 -5.52155 0
M  V30 3970 O 635.686 4.56534 -4.22446 0
M  V30 3971 C 636.876 5.62629 -5.96531 0
M  V30 3972 O 637.266 6.87667 -5.41053 0
M  V30 3973 C 637.756 4.52537 -5.39283 0
M  V30 3974 C 637.046 4.20027 -4.08623 0
M  V30 3975 N 637.096 2.76189 -3.71603 0
M  V30 3976 H 634.257 4.797 -7.24003 0
M  V30 3977 H 633.987 3.69856 -5.84513 0
M  V30 3978 H 634.854 6.10356 -5.41441 0
M  V30 3979 P 638.816 7.20834 -5.23717 0
M  V30 3980 O 639.036 8.66274 -5.38678 0
M  V30 3981 O 639.606 6.33687 -6.13629 0
M  V30 3982 O 639.066 6.7751 -3.72168 0
M  V30 3983 C 638.126 7.20919 -2.70795 0
M  V30 3984 C 638.856 7.45864 -1.40599 0
M  V30 3985 O 639.066 6.17751 -0.734343 0
M  V30 3986 C 640.256 8.05906 -1.51917 0
M  V30 3987 O 640.646 8.74358 -0.335205 0
M  V30 3988 C 641.136 6.83093 -1.70294 0
M  V30 3989 C 640.426 5.79992 -0.836974 0
M  V30 3990 N 640.476 4.41864 -1.38293 0
M  V30 3991 C 640.396 4.02089 -2.69407 0
M  V30 3992 N 640.466 2.73403 -2.85089 0
M  V30 3993 C 640.616 2.25086 -1.5642 0
M  V30 3994 C 640.746 0.942887 -1.04836 0
M  V30 3995 N 640.756 -0.150999 -1.80369 0
M  V30 3996 N 640.866 0.812565 0.28167 0
M  V30 3997 C 640.856 1.90572 1.03784 0
M  V30 3998 N 640.736 3.167 0.683905 0
M  V30 3999 C 640.616 3.26538 -0.652815 0
M  V30 4000 H 637.638 8.13738 -3.03804 0
M  V30 4001 H 637.366 6.42974 -2.55559 0
M  V30 4002 H 638.234 8.12139 -0.792866 0
M  V30 4003 H 640.889 5.80178 0.160643 0
M  V30 4004 H 641.169 6.51379 -2.75643 0
M  V30 4005 H 642.16 7.01832 -1.3448 0
M  V30 4006 H 640.326 8.73771 -2.38364 0
M  V30 4007 H 640.285 4.7189 -3.52311 0
M  V30 4008 H 640.666 -0.0721434 -2.82608 0
M  V30 4009 H 640.855 -1.0785 -1.36544 0
M  V30 4010 H 640.963 1.73207 2.10241 0
M  V30 4011 P 642.196 8.91 4.32688e-12 0
M  V30 4012 O 642.416 10.1726 0.733694 0
M  V30 4013 O 642.986 8.73148 -1.23936 0
M  V30 4014 O 642.446 7.66872 0.971405 0
M  V30 4015 C 641.506 7.42309 2.04641 0
M  V30 4016 C 642.236 6.86059 3.24661 0
M  V30 4017 O 642.446 5.42847 3.03646 0
M  V30 4018 C 643.636 7.41196 3.50753 0
M  V30 4019 O 644.026 7.27073 4.86816 0
M  V30 4020 C 644.516 6.5273 2.63741 0
M  V30 4021 C 643.806 5.1842 2.73198 0
M  V30 4022 N 643.856 4.38762 1.4784 0
M  V30 4023 H 641.017 8.36803 2.32493 0
M  V30 4024 H 640.747 6.70197 1.71129 0
M  V30 4025 H 641.614 7.03551 4.13168 0
M  V30 4026 P 645.576 7.20834 5.23717 0
M  V30 4027 O 645.796 7.79853 6.57286 0
M  V30 4028 O 646.366 7.79239 4.12957 0
M  V30 4029 O 645.826 5.63315 5.29344 0
M  V30 4030 C 644.886 4.80255 6.01876 0
M  V30 4031 C 645.616 3.64202 6.65911 0
M  V30 4032 O 645.826 2.60694 5.64732 0
M  V30 4033 C 647.016 3.93473 7.1943 0
M  V30 4034 O 647.406 3.02071 8.21205 0
M  V30 4035 C 647.896 3.73047 5.97036 0
M  V30 4036 C 647.186 2.58828 5.25741 0
M  V30 4037 N 647.236 2.68068 3.77503 0
M  V30 4038 H 644.397 5.40332 6.79951 0
M  V30 4039 H 644.127 4.41613 5.32378 0
M  V30 4040 H 644.994 3.26331 7.47797 0
M  V30 4041 P 648.956 2.75334 8.47391 0
M  V30 4042 O 649.176 2.44571 9.90142 0
M  V30 4043 O 649.746 3.87688 7.92115 0
M  V30 4044 O 649.206 1.4459 7.59357 0
M  V30 4045 C 648.266 0.347608 7.69215 0
M  V30 4046 C 648.996 -0.96767 7.52806 0
M  V30 4047 O 649.206 -1.21036 6.1011 0
M  V30 4048 C 650.396 -1.04544 8.13308 0
M  V30 4049 O 650.786 -2.38311 8.41922 0
M  V30 4050 C 651.276 -0.491279 7.02284 0
M  V30 4051 C 650.566 -0.996264 5.77469 0
M  V30 4052 N 650.616 -0.0501916 4.62973 0
M  V30 4053 H 647.777 0.374722 8.67691 0
M  V30 4054 H 647.507 0.443485 6.90277 0
M  V30 4055 H 648.374 -1.75537 7.96793 0
M  V30 4056 P 652.336 -2.75334 8.47391 0
M  V30 4057 O 652.556 -3.84128 9.44797 0
M  V30 4058 O 653.126 -1.51947 8.68712 0
M  V30 4059 O 652.586 -3.29363 6.99321 0
M  V30 4060 C 651.646 -4.24011 6.4274 0
M  V30 4061 C 652.376 -5.20775 5.52155 0
M  V30 4062 O 652.586 -4.56534 4.22446 0
M  V30 4063 C 653.776 -5.62629 5.96531 0
M  V30 4064 O 654.166 -6.87667 5.41053 0
M  V30 4065 C 654.656 -4.52537 5.39283 0
M  V30 4066 C 653.946 -4.20027 4.08623 0
M  V30 4067 N 653.996 -2.76189 3.71603 0
M  V30 4068 C 653.916 -1.64862 4.52822 0
M  V30 4069 N 653.996 -0.512671 3.88633 0
M  V30 4070 C 654.136 -0.888083 2.54977 0
M  V30 4071 C 654.266 -0.094668 1.38677 0
M  V30 4072 N 654.386 -0.890102 0.232633 0
M  V30 4073 C 654.386 -2.26958 0.21772 0
M  V30 4074 N 654.516 -2.84626 -0.97925 0
M  V30 4075 N 654.256 -3.0178 1.31033 0
M  V30 4076 C 654.136 -2.26781 2.43843 0
M  V30 4077 H 651.157 -4.797 7.24003 0
M  V30 4078 H 650.887 -3.69856 5.84513 0
M  V30 4079 H 651.754 -6.10356 5.41441 0
M  V30 4080 P 655.716 -7.20834 5.23717 0
M  V30 4081 O 655.936 -8.66274 5.38678 0
M  V30 4082 O 656.506 -6.33687 6.13629 0
M  V30 4083 O 655.966 -6.7751 3.72168 0
M  V30 4084 C 655.026 -7.20919 2.70795 0
M  V30 4085 C 655.756 -7.45864 1.40599 0
M  V30 4086 O 655.966 -6.17751 0.734343 0
M  V30 4087 C 657.156 -8.05906 1.51917 0
M  V30 4088 O 657.546 -8.74358 0.335205 0
M  V30 4089 C 658.036 -6.83093 1.70294 0
M  V30 4090 C 657.326 -5.79992 0.836974 0
M  V30 4091 N 657.376 -4.41864 1.38293 0
M  V30 4092 C 657.296 -4.02089 2.69407 0
M  V30 4093 N 657.366 -2.73403 2.85089 0
M  V30 4094 C 657.516 -2.25086 1.5642 0
M  V30 4095 C 657.646 -0.942887 1.04836 0
M  V30 4096 N 657.656 0.150999 1.80369 0
M  V30 4097 N 657.766 -0.812565 -0.28167 0
M  V30 4098 C 657.756 -1.90572 -1.03784 0
M  V30 4099 N 657.636 -3.167 -0.683905 0
M  V30 4100 C 657.516 -3.26538 0.652815 0
M  V30 4101 H 654.538 -8.13738 3.03804 0
M  V30 4102 H 654.266 -6.42974 2.55559 0
M  V30 4103 H 655.134 -8.12139 0.792866 0
M  V30 4104 H 657.789 -5.80178 -0.160643 0
M  V30 4105 H 658.069 -6.51379 2.75643 0
M  V30 4106 H 659.06 -7.01832 1.3448 0
M  V30 4107 H 657.226 -8.73771 2.38364 0
M  V30 4108 H 657.185 -4.7189 3.52311 0
M  V30 4109 H 657.566 0.0721434 2.82608 0
M  V30 4110 H 657.755 1.0785 1.36544 0
M  V30 4111 H 657.863 -1.73207 -2.10241 0
M  V30 4112 P 659.096 -8.91 -4.48406e-12 0
M  V30 4113 O 659.316 -10.1726 -0.733694 0
M  V30 4114 O 659.886 -8.73148 1.23936 0
M  V30 4115 O 659.346 -7.66872 -0.971405 0
M  V30 4116 C 658.406 -7.42309 -2.04641 0
M  V30 4117 C 659.136 -6.86059 -3.24661 0
M  V30 4118 O 659.346 -5.42847 -3.03646 0
M  V30 4119 C 660.536 -7.41196 -3.50753 0
M  V30 4120 O 660.926 -7.27073 -4.86816 0
M  V30 4121 C 661.416 -6.5273 -2.63741 0
M  V30 4122 C 660.706 -5.1842 -2.73198 0
M  V30 4123 N 660.756 -4.38762 -1.4784 0
M  V30 4124 H 657.917 -8.36803 -2.32493 0
M  V30 4125 H 657.647 -6.70197 -1.71129 0
M  V30 4126 H 658.514 -7.03551 -4.13168 0
M  V30 4127 P 662.476 -7.20834 -5.23717 0
M  V30 4128 O 662.696 -7.79853 -6.57286 0
M  V30 4129 O 663.266 -7.79239 -4.12957 0
M  V30 4130 O 662.726 -5.63315 -5.29344 0
M  V30 4131 C 661.786 -4.80255 -6.01876 0
M  V30 4132 C 662.516 -3.64202 -6.65911 0
M  V30 4133 O 662.726 -2.60694 -5.64732 0
M  V30 4134 C 663.916 -3.93473 -7.1943 0
M  V30 4135 O 664.306 -3.02071 -8.21205 0
M  V30 4136 C 664.796 -3.73047 -5.97036 0
M  V30 4137 C 664.086 -2.58828 -5.25741 0
M  V30 4138 N 664.136 -2.68068 -3.77503 0
M  V30 4139 H 661.297 -5.40332 -6.79951 0
M  V30 4140 H 661.027 -4.41613 -5.32378 0
M  V30 4141 H 661.894 -3.26331 -7.47797 0
M  V30 4142 P 665.856 -2.75334 -8.47391 0
M  V30 4143 O 666.076 -2.44571 -9.90142 0
M  V30 4144 O 666.646 -3.87688 -7.92115 0
M  V30 4145 O 666.106 -1.4459 -7.59357 0
M  V30 4146 C 665.166 -0.347608 -7.69215 0
M  V30 4147 C 665.896 0.96767 -7.52806 0
M  V30 4148 O 666.106 1.21036 -6.1011 0
M  V30 4149 C 667.296 1.04544 -8.13308 0
M  V30 4150 O 667.686 2.38311 -8.41922 0
M  V30 4151 C 668.176 0.491279 -7.02284 0
M  V30 4152 C 667.466 0.996264 -5.77469 0
M  V30 4153 N 667.516 0.0501916 -4.62973 0
M  V30 4154 H 664.677 -0.374722 -8.67691 0
M  V30 4155 H 664.407 -0.443485 -6.90277 0
M  V30 4156 H 665.274 1.75537 -7.96793 0
M  V30 4157 P 669.236 2.75334 -8.47391 0
M  V30 4158 O 669.456 3.84128 -9.44797 0
M  V30 4159 O 670.026 1.51947 -8.68712 0
M  V30 4160 O 669.486 3.29363 -6.99321 0
M  V30 4161 C 668.546 4.24011 -6.4274 0
M  V30 4162 C 669.276 5.20775 -5.52155 0
M  V30 4163 O 669.486 4.56534 -4.22446 0
M  V30 4164 C 670.676 5.62629 -5.96531 0
M  V30 4165 O 671.066 6.87667 -5.41053 0
M  V30 4166 C 671.556 4.52537 -5.39283 0
M  V30 4167 C 670.846 4.20027 -4.08623 0
M  V30 4168 N 670.896 2.76189 -3.71603 0
M  V30 4169 H 668.057 4.797 -7.24003 0
M  V30 4170 H 667.787 3.69856 -5.84513 0
M  V30 4171 H 668.654 6.10356 -5.41441 0
M  V30 4172 P 672.616 7.20834 -5.23717 0
M  V30 4173 O 672.836 8.66104 -5.38572 0
M  V30 4174 O 673.406 6.33544 -6.1349 0
M  V30 4175 O 672.866 6.7751 -3.72168 0
M  V30 4176 C 671.926 7.20825 -2.7076 0
M  V30 4177 C 672.656 7.45864 -1.40599 0
M  V30 4178 O 672.866 6.17651 -0.734225 0
M  V30 4179 C 674.056 8.05808 -1.51899 0
M  V30 4180 O 674.446 8.74358 -0.335205 0
M  V30 4181 C 674.936 6.83093 -1.70294 0
M  V30 4182 C 674.226 5.79992 -0.836974 0
M  V30 4183 N 674.276 4.41864 -1.38293 0
M  V30 4184 H 671.437 8.13644 -3.0377 0
M  V30 4185 H 671.167 6.42788 -2.55485 0
M  V30 4186 H 672.034 8.12039 -0.792769 0
M  V30 4187 P 675.996 8.91 4.64125e-12 0
M  V30 4188 O 676.216 10.1726 0.733694 0
M  V30 4189 O 676.786 8.73148 -1.23936 0
M  V30 4190 O 676.246 7.66872 0.971405 0
M  V30 4191 C 675.306 7.42309 2.04641 0
M  V30 4192 C 676.036 6.86059 3.24661 0
M  V30 4193 O 676.246 5.42847 3.03646 0
M  V30 4194 C 677.436 7.41196 3.50753 0
M  V30 4195 O 677.826 7.27073 4.86816 0
M  V30 4196 C 678.316 6.5273 2.63741 0
M  V30 4197 C 677.606 5.1842 2.73198 0
M  V30 4198 N 677.656 4.38762 1.4784 0
M  V30 4199 H 674.817 8.36803 2.32493 0
M  V30 4200 H 674.547 6.70197 1.71129 0
M  V30 4201 H 675.414 7.03551 4.13168 0
M  V30 4202 P 679.376 7.20834 5.23717 0
M  V30 4203 O 679.596 7.79853 6.57286 0
M  V30 4204 O 680.166 7.79239 4.12957 0
M  V30 4205 O 679.626 5.63315 5.29344 0
M  V30 4206 C 678.686 4.80255 6.01876 0
M  V30 4207 C 679.416 3.64202 6.65911 0
M  V30 4208 O 679.626 2.60694 5.64732 0
M  V30 4209 C 680.816 3.93473 7.1943 0
M  V30 4210 O 681.206 3.02071 8.21205 0
M  V30 4211 C 681.696 3.73047 5.97036 0
M  V30 4212 C 680.986 2.58828 5.25741 0
M  V30 4213 N 681.036 2.68068 3.77503 0
M  V30 4214 H 678.197 5.40332 6.79951 0
M  V30 4215 H 677.927 4.41613 5.32378 0
M  V30 4216 H 678.794 3.26331 7.47797 0
M  V30 4217 P 682.756 2.75334 8.47391 0
M  V30 4218 O 682.976 2.44571 9.90142 0
M  V30 4219 O 683.546 3.87688 7.92115 0
M  V30 4220 O 683.006 1.4459 7.59357 0
M  V30 4221 C 682.066 0.347608 7.69215 0
M  V30 4222 C 682.796 -0.96767 7.52806 0
M  V30 4223 O 683.006 -1.21036 6.1011 0
M  V30 4224 C 684.196 -1.04544 8.13308 0
M  V30 4225 O 684.586 -2.38311 8.41922 0
M  V30 4226 C 685.076 -0.491279 7.02284 0
M  V30 4227 C 684.366 -0.996264 5.77469 0
M  V30 4228 N 684.416 -0.0501916 4.62973 0
M  V30 4229 H 681.577 0.374722 8.67691 0
M  V30 4230 H 681.307 0.443485 6.90277 0
M  V30 4231 H 682.174 -1.75537 7.96793 0
M  V30 4232 P 686.136 -2.75334 8.47391 0
M  V30 4233 O 686.356 -3.84128 9.44797 0
M  V30 4234 O 686.926 -1.51947 8.68712 0
M  V30 4235 O 686.386 -3.29363 6.99321 0
M  V30 4236 C 685.446 -4.24011 6.4274 0
M  V30 4237 C 686.176 -5.20775 5.52155 0
M  V30 4238 O 686.386 -4.56534 4.22446 0
M  V30 4239 C 687.576 -5.62629 5.96531 0
M  V30 4240 O 687.966 -6.87667 5.41053 0
M  V30 4241 C 688.456 -4.52537 5.39283 0
M  V30 4242 C 687.746 -4.20027 4.08623 0
M  V30 4243 N 687.796 -2.76189 3.71603 0
M  V30 4244 C 687.716 -1.64862 4.52822 0
M  V30 4245 N 687.796 -0.512671 3.88633 0
M  V30 4246 C 687.936 -0.888083 2.54977 0
M  V30 4247 C 688.066 -0.094668 1.38677 0
M  V30 4248 N 688.186 -0.890102 0.232633 0
M  V30 4249 C 688.186 -2.26958 0.21772 0
M  V30 4250 N 688.316 -2.84626 -0.97925 0
M  V30 4251 N 688.056 -3.0178 1.31033 0
M  V30 4252 C 687.936 -2.26781 2.43843 0
M  V30 4253 H 684.957 -4.797 7.24003 0
M  V30 4254 H 684.687 -3.69856 5.84513 0
M  V30 4255 H 685.554 -6.10356 5.41441 0
M  V30 4256 P 689.516 -7.20834 5.23717 0
M  V30 4257 O 689.736 -8.66104 5.38572 0
M  V30 4258 O 690.306 -6.33544 6.1349 0
M  V30 4259 O 689.766 -6.7751 3.72168 0
M  V30 4260 C 688.826 -7.20825 2.7076 0
M  V30 4261 C 689.556 -7.45864 1.40599 0
M  V30 4262 O 689.766 -6.17651 0.734225 0
M  V30 4263 C 690.956 -8.05808 1.51899 0
M  V30 4264 O 691.346 -8.74358 0.335205 0
M  V30 4265 C 691.836 -6.83093 1.70294 0
M  V30 4266 C 691.126 -5.79992 0.836974 0
M  V30 4267 N 691.176 -4.41864 1.38293 0
M  V30 4268 H 688.337 -8.13644 3.0377 0
M  V30 4269 H 688.067 -6.42788 2.55485 0
M  V30 4270 H 688.934 -8.12039 0.792769 0
M  V30 4271 P 692.896 -8.91 -4.67181e-12 0
M  V30 4272 O 693.116 -10.1726 -0.733694 0
M  V30 4273 O 693.686 -8.73148 1.23936 0
M  V30 4274 O 693.146 -7.66872 -0.971405 0
M  V30 4275 C 692.206 -7.42309 -2.04641 0
M  V30 4276 C 692.936 -6.86059 -3.24661 0
M  V30 4277 O 693.146 -5.42847 -3.03646 0
M  V30 4278 C 694.336 -7.41196 -3.50753 0
M  V30 4279 O 694.726 -7.27073 -4.86816 0
M  V30 4280 C 695.216 -6.5273 -2.63741 0
M  V30 4281 C 694.506 -5.1842 -2.73198 0
M  V30 4282 N 694.556 -4.38762 -1.4784 0
M  V30 4283 H 691.717 -8.36803 -2.32493 0
M  V30 4284 H 691.447 -6.70197 -1.71129 0
M  V30 4285 H 692.314 -7.03551 -4.13168 0
M  V30 4286 P 696.276 -7.20834 -5.23717 0
M  V30 4287 O 696.496 -7.79853 -6.57286 0
M  V30 4288 O 697.066 -7.79239 -4.12957 0
M  V30 4289 O 696.526 -5.63315 -5.29344 0
M  V30 4290 C 695.586 -4.80255 -6.01876 0
M  V30 4291 C 696.316 -3.64202 -6.65911 0
M  V30 4292 O 696.526 -2.60694 -5.64732 0
M  V30 4293 C 697.716 -3.93473 -7.1943 0
M  V30 4294 O 698.106 -3.02071 -8.21205 0
M  V30 4295 C 698.596 -3.73047 -5.97036 0
M  V30 4296 C 697.886 -2.58828 -5.25741 0
M  V30 4297 N 697.936 -2.68068 -3.77503 0
M  V30 4298 H 695.097 -5.40332 -6.79951 0
M  V30 4299 H 694.827 -4.41613 -5.32378 0
M  V30 4300 H 695.694 -3.26331 -7.47797 0
M  V30 4301 P 699.656 -2.75334 -8.47391 0
M  V30 4302 O 699.876 -2.44619 -9.90336 0
M  V30 4303 O 700.446 -3.87776 -7.92294 0
M  V30 4304 O 699.906 -1.4459 -7.59357 0
M  V30 4305 C 698.966 -0.347653 -7.69315 0
M  V30 4306 C 699.696 0.96767 -7.52806 0
M  V30 4307 O 699.906 1.21055 -6.10208 0
M  V30 4308 C 701.096 1.04557 -8.13408 0
M  V30 4309 O 701.486 2.38311 -8.41922 0
M  V30 4310 C 701.976 0.491279 -7.02284 0
M  V30 4311 C 701.266 0.996264 -5.77469 0
M  V30 4312 N 701.316 0.0501916 -4.62973 0
M  V30 4313 C 701.236 -1.31969 -4.65661 0
M  V30 4314 N 701.306 -1.86649 -3.48119 0
M  V30 4315 C 701.456 -0.792089 -2.62406 0
M  V30 4316 C 701.586 -0.705684 -1.2207 0
M  V30 4317 N 701.596 -1.76207 -0.413762 0
M  V30 4318 N 701.706 0.518981 -0.685754 0
M  V30 4319 C 701.696 1.57595 -1.49174 0
M  V30 4320 N 701.576 1.62909 -2.80066 0
M  V30 4321 C 701.456 0.388195 -3.3073 0
M  V30 4322 H 698.478 -0.374765 -8.67791 0
M  V30 4323 H 698.206 -0.443613 -6.90476 0
M  V30 4324 H 699.074 1.75559 -7.96891 0
M  V30 4325 H 701.729 1.94563 -5.46818 0
M  V30 4326 H 702.009 -0.608651 -7.04676 0
M  V30 4327 H 703 0.889796 -7.09039 0
M  V30 4328 H 701.166 0.433128 -9.04664 0
M  V30 4329 H 701.125 -1.89246 -5.57664 0
M  V30 4330 H 701.506 -2.71005 -0.804694 0
M  V30 4331 H 701.695 -1.63189 0.603768 0
M  V30 4332 H 701.803 2.53475 -0.997614 0
M  V30 4333 P 703.036 2.75334 -8.47391 0
M  V30 4334 O 703.256 3.84204 -9.44982 0
M  V30 4335 O 703.826 1.51982 -8.68909 0
M  V30 4336 O 703.286 3.29363 -6.99321 0
M  V30 4337 C 702.346 4.24066 -6.42823 0
M  V30 4338 C 703.076 5.20775 -5.52155 0
M  V30 4339 O 703.286 4.56607 -4.22514 0
M  V30 4340 C 704.476 5.62697 -5.96604 0
M  V30 4341 O 704.866 6.87667 -5.41053 0
M  V30 4342 C 705.356 4.52537 -5.39283 0
M  V30 4343 C 704.646 4.20027 -4.08623 0
M  V30 4344 N 704.696 2.76189 -3.71603 0
M  V30 4345 C 704.616 1.66944 -4.54297 0
M  V30 4346 N 704.686 0.536169 -3.91344 0
M  V30 4347 C 704.836 0.901569 -2.58849 0
M  V30 4348 C 704.966 0.146599 -1.40236 0
M  V30 4349 N 704.976 -1.18234 -1.37046 0
M  V30 4350 N 705.086 0.822941 -0.249738 0
M  V30 4351 C 705.076 2.15179 -0.280525 0
M  V30 4352 N 704.956 2.96414 -1.30822 0
M  V30 4353 C 704.836 2.25804 -2.44748 0
M  V30 4354 H 701.858 4.79756 -7.24086 0
M  V30 4355 H 701.586 3.69963 -5.84682 0
M  V30 4356 H 702.454 6.10431 -5.41508 0
M  V30 4357 H 705.109 4.78816 -3.28024 0
M  V30 4358 H 705.389 3.64957 -6.05871 0
M  V30 4359 H 706.38 4.88748 -5.21323 0
M  V30 4360 H 704.546 5.66789 -7.0643 0
M  V30 4361 H 704.505 1.74684 -5.62396 0
M  V30 4362 H 704.886 -1.71949 -2.24394 0
M  V30 4363 H 705.075 -1.67511 -0.470742 0
M  V30 4364 H 705.183 2.63704 0.6828 0
M  V30 4365 P 706.416 7.20834 -5.23717 0
M  V30 4366 O 706.636 8.66104 -5.38572 0
M  V30 4367 O 707.206 6.33544 -6.1349 0
M  V30 4368 O 706.666 6.7751 -3.72168 0
M  V30 4369 C 705.726 7.20825 -2.7076 0
M  V30 4370 C 706.456 7.45864 -1.40599 0
M  V30 4371 O 706.666 6.17651 -0.734225 0
M  V30 4372 C 707.856 8.05808 -1.51899 0
M  V30 4373 O 708.246 8.74358 -0.335205 0
M  V30 4374 C 708.736 6.83093 -1.70294 0
M  V30 4375 C 708.026 5.79992 -0.836974 0
M  V30 4376 N 708.076 4.41864 -1.38293 0
M  V30 4377 H 705.237 8.13644 -3.0377 0
M  V30 4378 H 704.967 6.42788 -2.55485 0
M  V30 4379 H 705.834 8.12039 -0.792769 0
M  V30 4380 P 709.796 8.91 4.82899e-12 0
M  V30 4381 O 710.016 10.1726 0.733694 0
M  V30 4382 O 710.586 8.73148 -1.23936 0
M  V30 4383 O 710.046 7.66872 0.971405 0
M  V30 4384 C 709.106 7.42309 2.04641 0
M  V30 4385 C 709.836 6.86059 3.24661 0
M  V30 4386 O 710.046 5.42847 3.03646 0
M  V30 4387 C 711.236 7.41196 3.50753 0
M  V30 4388 O 711.626 7.27073 4.86816 0
M  V30 4389 C 712.116 6.5273 2.63741 0
M  V30 4390 C 711.406 5.1842 2.73198 0
M  V30 4391 N 711.456 4.38762 1.4784 0
M  V30 4392 H 708.617 8.36803 2.32493 0
M  V30 4393 H 708.347 6.70197 1.71129 0
M  V30 4394 H 709.214 7.03551 4.13168 0
M  V30 4395 P 713.176 7.20834 5.23717 0
M  V30 4396 O 713.396 7.79853 6.57286 0
M  V30 4397 O 713.966 7.79239 4.12957 0
M  V30 4398 O 713.426 5.63315 5.29344 0
M  V30 4399 C 712.486 4.80255 6.01876 0
M  V30 4400 C 713.216 3.64202 6.65911 0
M  V30 4401 O 713.426 2.60694 5.64732 0
M  V30 4402 C 714.616 3.93473 7.1943 0
M  V30 4403 O 715.006 3.02071 8.21205 0
M  V30 4404 C 715.496 3.73047 5.97036 0
M  V30 4405 C 714.786 2.58828 5.25741 0
M  V30 4406 N 714.836 2.68068 3.77503 0
M  V30 4407 H 711.997 5.40332 6.79951 0
M  V30 4408 H 711.727 4.41613 5.32378 0
M  V30 4409 H 712.594 3.26331 7.47797 0
M  V30 4410 P 716.556 2.75334 8.47391 0
M  V30 4411 O 716.776 2.44595 9.90239 0
M  V30 4412 O 717.346 3.87732 7.92204 0
M  V30 4413 O 716.806 1.4459 7.59357 0
M  V30 4414 C 715.866 0.347608 7.69215 0
M  V30 4415 C 716.596 -0.96767 7.52806 0
M  V30 4416 O 716.806 -1.21036 6.1011 0
M  V30 4417 C 717.996 -1.04544 8.13308 0
M  V30 4418 O 718.386 -2.38311 8.41922 0
M  V30 4419 C 718.876 -0.491279 7.02284 0
M  V30 4420 C 718.166 -0.996264 5.77469 0
M  V30 4421 N 718.216 -0.0501808 4.62873 0
M  V30 4422 C 718.366 -0.578037 3.3505 0
M  V30 4423 O 718.456 -1.8073 3.21711 0
M  V30 4424 N 718.416 0.468541 2.263 0
M  V30 4425 C 718.316 1.59186 2.47176 0
M  V30 4426 N 718.366 2.37626 1.40392 0
M  V30 4427 C 718.166 2.16203 3.77467 0
M  V30 4428 C 718.116 1.29324 4.8195 0
M  V30 4429 H 715.376 0.374679 8.67591 0
M  V30 4430 H 715.107 0.443421 6.90177 0
M  V30 4431 H 715.974 -1.75559 7.96891 0
M  V30 4432 H 718.629 -1.94529 5.46723 0
M  V30 4433 H 718.908 0.608651 7.04676 0
M  V30 4434 H 719.9 -0.889672 7.08939 0
M  V30 4435 H 718.066 -0.43308 9.04564 0
M  V30 4436 H 717.994 1.67758 5.83046 0
M  V30 4437 H 718.096 3.23869 3.92281 0
M  V30 4438 H 718.484 1.96317 0.467202 0
M  V30 4439 H 718.287 3.39693 1.51142 0
M  V30 4440 P 719.936 -2.75334 8.47391 0
M  V30 4441 O 720.156 -3.84166 9.4489 0
M  V30 4442 O 720.726 -1.51964 8.6881 0
M  V30 4443 O 720.186 -3.29363 6.99321 0
M  V30 4444 C 719.246 -4.23956 6.42656 0
M  V30 4445 C 719.976 -5.20775 5.52155 0
M  V30 4446 O 720.186 -4.56534 4.22446 0
M  V30 4447 C 721.376 -5.62629 5.96531 0
M  V30 4448 O 721.766 -6.87667 5.41053 0
M  V30 4449 C 722.256 -4.52537 5.39283 0
M  V30 4450 C 721.546 -4.20027 4.08623 0
M  V30 4451 N 721.596 -2.7613 3.71522 0
M  V30 4452 C 721.746 -2.45612 2.37989 0
M  V30 4453 O 721.836 -3.30919 1.51621 0
M  V30 4454 N 721.786 -1.10684 2.08435 0
M  V30 4455 C 721.696 -0.0690084 2.9792 0
M  V30 4456 C 721.546 -0.481522 4.35345 0
M  V30 4457 C 721.496 -1.78906 4.67968 0
M  V30 4458 H 718.756 -4.797 7.24003 0
M  V30 4459 H 718.487 -3.69802 5.84429 0
M  V30 4460 H 719.354 -6.10356 5.41441 0
M  V30 4461 H 722.009 -4.78651 3.27911 0
M  V30 4462 H 722.288 -3.64957 6.05871 0
M  V30 4463 H 723.28 -4.8868 5.2125 0
M  V30 4464 H 721.446 -5.66726 7.06352 0
M  V30 4465 H 721.375 -2.07737 5.72367 0
M  V30 4466 P 723.316 -7.20834 5.23717 0
M  V30 4467 O 723.536 -8.66104 5.38572 0
M  V30 4468 O 724.106 -6.33544 6.1349 0
M  V30 4469 O 723.566 -6.7751 3.72168 0
M  V30 4470 C 722.626 -7.20825 2.7076 0
M  V30 4471 C 723.356 -7.45864 1.40599 0
M  V30 4472 O 723.566 -6.17651 0.734225 0
M  V30 4473 C 724.756 -8.05808 1.51899 0
M  V30 4474 O 725.146 -8.74358 0.335205 0
M  V30 4475 C 725.636 -6.83093 1.70294 0
M  V30 4476 C 724.926 -5.79992 0.836974 0
M  V30 4477 N 724.976 -4.41864 1.38293 0
M  V30 4478 H 722.137 -8.13644 3.0377 0
M  V30 4479 H 721.867 -6.42788 2.55485 0
M  V30 4480 H 722.734 -8.12039 0.792769 0
M  V30 4481 P 726.696 -8.91 -4.98617e-12 0
M  V30 4482 O 726.916 -10.1726 -0.733694 0
M  V30 4483 O 727.486 -8.73148 1.23936 0
M  V30 4484 O 726.946 -7.66872 -0.971405 0
M  V30 4485 C 726.006 -7.42309 -2.04641 0
M  V30 4486 C 726.736 -6.86059 -3.24661 0
M  V30 4487 O 726.946 -5.42847 -3.03646 0
M  V30 4488 C 728.136 -7.41196 -3.50753 0
M  V30 4489 O 728.526 -7.27073 -4.86816 0
M  V30 4490 C 729.016 -6.5273 -2.63741 0
M  V30 4491 C 728.306 -5.1842 -2.73198 0
M  V30 4492 N 728.356 -4.38762 -1.4784 0
M  V30 4493 H 725.517 -8.36803 -2.32493 0
M  V30 4494 H 725.247 -6.70197 -1.71129 0
M  V30 4495 H 726.114 -7.03551 -4.13168 0
M  V30 4496 P 730.076 -7.20834 -5.23717 0
M  V30 4497 O 730.296 -7.80006 -6.57415 0
M  V30 4498 O 730.866 -7.79416 -4.13051 0
M  V30 4499 O 730.326 -5.63315 -5.29344 0
M  V30 4500 C 729.386 -4.80318 -6.01954 0
M  V30 4501 C 730.116 -3.64202 -6.65911 0
M  V30 4502 O 730.326 -2.60736 -5.64823 0
M  V30 4503 C 731.516 -3.93521 -7.19518 0
M  V30 4504 O 731.906 -3.02071 -8.21205 0
M  V30 4505 C 732.396 -3.73047 -5.97036 0
M  V30 4506 C 731.686 -2.58828 -5.25741 0
M  V30 4507 N 731.736 -2.68068 -3.77503 0
M  V30 4508 C 731.656 -3.80474 -2.99159 0
M  V30 4509 N 731.726 -3.55622 -1.71925 0
M  V30 4510 C 731.876 -2.1832 -1.65733 0
M  V30 4511 C 732.006 -1.28842 -0.572777 0
M  V30 4512 N 732.016 -1.66875 0.70098 0
M  V30 4513 N 732.126 0.016788 -0.859836 0
M  V30 4514 C 732.116 0.398145 -2.13316 0
M  V30 4515 N 731.996 -0.328224 -3.22333 0
M  V30 4516 C 731.876 -1.62992 -2.90383 0
M  V30 4517 H 728.898 -5.40394 -6.8003 0
M  V30 4518 H 728.626 -4.41741 -5.32532 0
M  V30 4519 H 729.494 -3.26371 -7.47889 0
M  V30 4520 H 732.149 -1.64007 -5.56746 0
M  V30 4521 H 732.429 -4.63439 -5.3432 0
M  V30 4522 H 733.42 -3.44776 -6.25925 0
M  V30 4523 H 731.586 -4.96707 -7.57347 0
M  V30 4524 H 731.545 -4.8089 -3.39924 0
M  V30 4525 H 731.926 -2.66547 0.941919 0
M  V30 4526 H 732.115 -0.965341 1.44766 0
M  V30 4527 H 732.223 1.46427 -2.29697 0
M  V30 4528 P 733.456 -2.75334 -8.47391 0
M  V30 4529 O 733.676 -2.44571 -9.90142 0
M  V30 4530 O 734.246 -3.87688 -7.92115 0
M  V30 4531 O 733.706 -1.4459 -7.59357 0
M  V30 4532 C 732.766 -0.347608 -7.69215 0
M  V30 4533 C 733.496 0.96767 -7.52806 0
M  V30 4534 O 733.706 1.21036 -6.1011 0
M  V30 4535 C 734.896 1.04544 -8.13308 0
M  V30 4536 O 735.286 2.38311 -8.41922 0
M  V30 4537 C 735.776 0.491279 -7.02284 0
M  V30 4538 C 735.066 0.996264 -5.77469 0
M  V30 4539 N 735.116 0.0501916 -4.62973 0
M  V30 4540 C 735.036 -1.32786 -4.63244 0
M  V30 4541 N 735.116 -1.86957 -3.44545 0
M  V30 4542 C 735.256 -0.780241 -2.58481 0
M  V30 4543 C 735.386 -0.738536 -1.17757 0
M  V30 4544 N 735.506 0.58337 -0.711393 0
M  V30 4545 C 735.506 1.70816 -1.51017 0
M  V30 4546 N 735.636 2.87826 -0.880757 0
M  V30 4547 N 735.376 1.67126 -2.8339 0
M  V30 4548 C 735.256 0.401421 -3.30572 0
M  V30 4549 H 732.277 -0.374722 -8.67691 0
M  V30 4550 H 732.007 -0.443485 -6.90277 0
M  V30 4551 H 732.874 1.75537 -7.96793 0
M  V30 4552 P 736.836 2.75334 -8.47391 0
M  V30 4553 O 737.056 3.84204 -9.44982 0
M  V30 4554 O 737.626 1.51982 -8.68909 0
M  V30 4555 O 737.086 3.29363 -6.99321 0
M  V30 4556 C 736.146 4.24066 -6.42823 0
M  V30 4557 C 736.876 5.20775 -5.52155 0
M  V30 4558 O 737.086 4.56607 -4.22514 0
M  V30 4559 C 738.276 5.62697 -5.96604 0
M  V30 4560 O 738.666 6.87667 -5.41053 0
M  V30 4561 C 739.156 4.52537 -5.39283 0
M  V30 4562 C 738.446 4.20027 -4.08623 0
M  V30 4563 N 738.496 2.76189 -3.71603 0
M  V30 4564 H 735.658 4.79756 -7.24086 0
M  V30 4565 H 735.386 3.69963 -5.84682 0
M  V30 4566 H 736.254 6.10431 -5.41508 0
M  V30 4567 H 738.909 4.78816 -3.28024 0
M  V30 4568 H 739.189 3.64957 -6.05871 0
M  V30 4569 H 740.18 4.88748 -5.21323 0
M  V30 4570 H 738.346 5.66789 -7.0643 0
M  V30 4571 P 740.216 7.20834 -5.23717 0
M  V30 4572 O 740.436 8.66104 -5.38572 0
M  V30 4573 O 741.006 6.33544 -6.1349 0
M  V30 4574 O 740.466 6.7751 -3.72168 0
M  V30 4575 C 739.526 7.20825 -2.7076 0
M  V30 4576 C 740.256 7.45864 -1.40599 0
M  V30 4577 O 740.466 6.17651 -0.734225 0
M  V30 4578 C 741.656 8.05808 -1.51899 0
M  V30 4579 O 742.046 8.74358 -0.335205 0
M  V30 4580 C 742.536 6.83093 -1.70294 0
M  V30 4581 C 741.826 5.79992 -0.836974 0
M  V30 4582 N 741.876 4.41864 -1.38293 0
M  V30 4583 H 739.037 8.13644 -3.0377 0
M  V30 4584 H 738.767 6.42788 -2.55485 0
M  V30 4585 H 739.634 8.12039 -0.792769 0
M  V30 4586 P 743.596 8.91 5.14336e-12 0
M  V30 4587 O 743.816 10.1726 0.733694 0
M  V30 4588 O 744.386 8.73148 -1.23936 0
M  V30 4589 O 743.846 7.66872 0.971405 0
M  V30 4590 C 742.906 7.42309 2.04641 0
M  V30 4591 C 743.636 6.86059 3.24661 0
M  V30 4592 O 743.846 5.42847 3.03646 0
M  V30 4593 C 745.036 7.41196 3.50753 0
M  V30 4594 O 745.426 7.27073 4.86816 0
M  V30 4595 C 745.916 6.5273 2.63741 0
M  V30 4596 C 745.206 5.1842 2.73198 0
M  V30 4597 N 745.256 4.38762 1.4784 0
M  V30 4598 C 745.176 4.81605 0.168631 0
M  V30 4599 N 745.256 3.85454 -0.713363 0
M  V30 4600 C 745.396 2.6994 0.0566958 0
M  V30 4601 C 745.526 1.34815 -0.338502 0
M  V30 4602 O 745.546 0.869548 -1.47125 0
M  V30 4603 N 745.646 0.496304 0.77465 0
M  V30 4604 C 745.646 0.908403 2.09122 0
M  V30 4605 N 745.776 -0.0517805 3.00955 0
M  V30 4606 N 745.516 2.17875 2.46519 0
M  V30 4607 C 745.396 3.01988 1.4033 0
M  V30 4608 H 742.417 8.36803 2.32493 0
M  V30 4609 H 742.147 6.70197 1.71129 0
M  V30 4610 H 743.014 7.03551 4.13168 0
M  V30 4611 H 745.669 4.59498 3.54415 0
M  V30 4612 H 745.948 6.88898 1.59848 0
M  V30 4613 H 746.94 6.46749 3.03687 0
M  V30 4614 H 745.106 8.46908 3.20714 0
M  V30 4615 H 745.057 5.86405 -0.105564 0
M  V30 4616 H 745.739 -0.483664 0.597855 0
M  V30 4617 H 745.776 0.187865 4.0116 0
M  V30 4618 H 745.877 -1.03585 2.71726 0
M  V30 4619 P 746.976 7.20834 5.23717 0
M  V30 4620 O 747.196 7.80006 6.57415 0
M  V30 4621 O 747.766 7.79416 4.13051 0
M  V30 4622 O 747.226 5.63315 5.29344 0
M  V30 4623 C 746.286 4.80318 6.01954 0
M  V30 4624 C 747.016 3.64202 6.65911 0
M  V30 4625 O 747.226 2.60736 5.64823 0
M  V30 4626 C 748.416 3.93521 7.19518 0
M  V30 4627 O 748.806 3.02071 8.21205 0
M  V30 4628 C 749.296 3.73047 5.97036 0
M  V30 4629 C 748.586 2.58828 5.25741 0
M  V30 4630 N 748.636 2.68068 3.77503 0
M  V30 4631 H 745.798 5.40394 6.8003 0
M  V30 4632 H 745.526 4.41741 5.32532 0
M  V30 4633 H 746.394 3.26371 7.47889 0
M  V30 4634 H 749.049 1.64007 5.56746 0
M  V30 4635 H 749.329 4.63439 5.3432 0
M  V30 4636 H 750.32 3.44776 6.25925 0
M  V30 4637 H 748.486 4.96707 7.57347 0
M  V30 4638 P 750.356 2.75334 8.47391 0
M  V30 4639 O 750.576 2.44571 9.90142 0
M  V30 4640 O 751.146 3.87688 7.92115 0
M  V30 4641 O 750.606 1.4459 7.59357 0
M  V30 4642 C 749.666 0.347608 7.69215 0
M  V30 4643 C 750.396 -0.96767 7.52806 0
M  V30 4644 O 750.606 -1.21036 6.1011 0
M  V30 4645 C 751.796 -1.04544 8.13308 0
M  V30 4646 O 752.186 -2.38311 8.41922 0
M  V30 4647 C 752.676 -0.491279 7.02284 0
M  V30 4648 C 751.966 -0.996264 5.77469 0
M  V30 4649 N 752.016 -0.0501916 4.62973 0
M  V30 4650 C 751.936 1.32786 4.63244 0
M  V30 4651 N 752.016 1.86957 3.44545 0
M  V30 4652 C 752.156 0.780241 2.58481 0
M  V30 4653 C 752.286 0.738536 1.17757 0
M  V30 4654 O 752.306 1.66794 0.372349 0
M  V30 4655 N 752.406 -0.58337 0.711393 0
M  V30 4656 C 752.406 -1.70816 1.51017 0
M  V30 4657 N 752.536 -2.87826 0.880757 0
M  V30 4658 N 752.276 -1.67126 2.8339 0
M  V30 4659 C 752.156 -0.401421 3.30572 0
M  V30 4660 H 749.177 0.374722 8.67691 0
M  V30 4661 H 748.907 0.443485 6.90277 0
M  V30 4662 H 749.774 -1.75537 7.96793 0
M  V30 4663 H 752.429 -1.95076 5.46529 0
M  V30 4664 H 752.708 0.608565 7.04577 0
M  V30 4665 H 753.7 -0.889672 7.08939 0
M  V30 4666 H 751.866 -0.43308 9.04564 0
M  V30 4667 H 751.817 1.91249 5.54442 0
M  V30 4668 H 752.499 -0.718054 -0.275244 0
M  V30 4669 H 752.536 -3.75721 1.41832 0
M  V30 4670 H 752.637 -2.90436 -0.145468 0
M  V30 4671 P 753.736 -2.75334 8.47391 0
M  V30 4672 O 753.956 -3.84166 9.4489 0
M  V30 4673 O 754.526 -1.51964 8.6881 0
M  V30 4674 O 753.986 -3.29363 6.99321 0
M  V30 4675 C 753.046 -4.24011 6.4274 0
M  V30 4676 C 753.776 -5.20775 5.52155 0
M  V30 4677 O 753.986 -4.56534 4.22446 0
M  V30 4678 C 755.176 -5.62629 5.96531 0
M  V30 4679 O 755.566 -6.87667 5.41053 0
M  V30 4680 C 756.056 -4.52537 5.39283 0
M  V30 4681 C 755.346 -4.20027 4.08623 0
M  V30 4682 N 755.396 -2.7613 3.71522 0
M  V30 4683 C 755.546 -2.43702 2.37085 0
M  V30 4684 O 755.636 -3.3531 1.54039 0
M  V30 4685 N 755.596 -0.951103 2.10621 0
M  V30 4686 C 755.496 -0.165021 2.93537 0
M  V30 4687 N 755.546 1.09723 2.53253 0
M  V30 4688 C 755.346 -0.469576 4.32458 0
M  V30 4689 C 755.296 -1.78658 4.65921 0
M  V30 4690 H 752.556 -4.79645 7.23919 0
M  V30 4691 H 752.287 -3.69802 5.84429 0
M  V30 4692 H 753.154 -6.10431 5.41508 0
M  V30 4693 H 755.809 -4.78733 3.27967 0
M  V30 4694 H 756.088 -3.64957 6.05871 0
M  V30 4695 H 757.08 -4.8868 5.2125 0
M  V30 4696 H 755.246 -5.66726 7.06352 0
M  V30 4697 H 755.174 -2.06987 5.70299 0
M  V30 4698 H 755.276 0.314383 5.07728 0
M  V30 4699 H 755.664 1.31363 1.5319 0
M  V30 4700 H 755.467 1.85978 3.21943 0
M  V30 4701 P 757.116 -7.20834 5.23717 0
M  V30 4702 O 757.336 -8.66104 5.38572 0
M  V30 4703 O 757.906 -6.33544 6.1349 0
M  V30 4704 O 757.366 -6.7751 3.72168 0
M  V30 4705 C 756.426 -7.20825 2.7076 0
M  V30 4706 C 757.156 -7.45864 1.40599 0
M  V30 4707 O 757.366 -6.17651 0.734225 0
M  V30 4708 C 758.556 -8.05808 1.51899 0
M  V30 4709 O 758.946 -8.74358 0.335205 0
M  V30 4710 C 759.436 -6.83093 1.70294 0
M  V30 4711 C 758.726 -5.79992 0.836974 0
M  V30 4712 N 758.776 -4.41864 1.38293 0
M  V30 4713 H 755.937 -8.13644 3.0377 0
M  V30 4714 H 755.667 -6.42788 2.55485 0
M  V30 4715 H 756.534 -8.12039 0.792769 0
M  V30 4716 P 760.496 -8.91 -5.30054e-12 0
M  V30 4717 O 760.716 -10.1726 -0.733694 0
M  V30 4718 O 761.286 -8.73148 1.23936 0
M  V30 4719 O 760.746 -7.66872 -0.971405 0
M  V30 4720 C 759.806 -7.42309 -2.04641 0
M  V30 4721 C 760.536 -6.86059 -3.24661 0
M  V30 4722 O 760.746 -5.42847 -3.03646 0
M  V30 4723 C 761.936 -7.41196 -3.50753 0
M  V30 4724 O 762.326 -7.27073 -4.86816 0
M  V30 4725 C 762.816 -6.5273 -2.63741 0
M  V30 4726 C 762.106 -5.1842 -2.73198 0
M  V30 4727 N 762.156 -4.38762 -1.4784 0
M  V30 4728 H 759.317 -8.36803 -2.32493 0
M  V30 4729 H 759.047 -6.70197 -1.71129 0
M  V30 4730 H 759.914 -7.03551 -4.13168 0
M  V30 4731 P 763.875 -7.20834 -5.23717 0
M  V30 4732 O 764.095 -7.79853 -6.57286 0
M  V30 4733 O 764.665 -7.79239 -4.12957 0
M  V30 4734 O 764.125 -5.63315 -5.29344 0
M  V30 4735 C 763.185 -4.80255 -6.01876 0
M  V30 4736 C 763.915 -3.64202 -6.65911 0
M  V30 4737 O 764.125 -2.60694 -5.64732 0
M  V30 4738 C 765.315 -3.93473 -7.1943 0
M  V30 4739 O 765.705 -3.02071 -8.21205 0
M  V30 4740 C 766.195 -3.73047 -5.97036 0
M  V30 4741 C 765.485 -2.58828 -5.25741 0
M  V30 4742 N 765.535 -2.68068 -3.77503 0
M  V30 4743 H 762.696 -5.40332 -6.79951 0
M  V30 4744 H 762.426 -4.41613 -5.32378 0
M  V30 4745 H 763.293 -3.26331 -7.47797 0
M  V30 4746 P 767.255 -2.75334 -8.47391 0
M  V30 4747 O 767.475 -2.44619 -9.90336 0
M  V30 4748 O 768.045 -3.87776 -7.92294 0
M  V30 4749 O 767.505 -1.4459 -7.59357 0
M  V30 4750 C 766.565 -0.347653 -7.69315 0
M  V30 4751 C 767.295 0.96767 -7.52806 0
M  V30 4752 O 767.505 1.21055 -6.10208 0
M  V30 4753 C 768.695 1.04557 -8.13408 0
M  V30 4754 O 769.085 2.38311 -8.41922 0
M  V30 4755 C 769.575 0.491279 -7.02284 0
M  V30 4756 C 768.865 0.996264 -5.77469 0
M  V30 4757 N 768.915 0.0501916 -4.62973 0
M  V30 4758 H 766.077 -0.374765 -8.67791 0
M  V30 4759 H 765.805 -0.443613 -6.90476 0
M  V30 4760 H 766.673 1.75559 -7.96891 0
M  V30 4761 H 769.328 1.94563 -5.46818 0
M  V30 4762 H 769.608 -0.608651 -7.04676 0
M  V30 4763 H 770.599 0.889796 -7.09039 0
M  V30 4764 H 768.765 0.433128 -9.04664 0
M  V30 4765 P 770.635 2.75334 -8.47391 0
M  V30 4766 O 770.855 3.84204 -9.44982 0
M  V30 4767 O 771.425 1.51982 -8.68909 0
M  V30 4768 O 770.885 3.29363 -6.99321 0
M  V30 4769 C 769.945 4.24066 -6.42823 0
M  V30 4770 C 770.675 5.20775 -5.52155 0
M  V30 4771 O 770.885 4.56607 -4.22514 0
M  V30 4772 C 772.075 5.62697 -5.96604 0
M  V30 4773 O 772.465 6.87667 -5.41053 0
M  V30 4774 C 772.955 4.52537 -5.39283 0
M  V30 4775 C 772.245 4.20027 -4.08623 0
M  V30 4776 N 772.295 2.76189 -3.71603 0
M  V30 4777 C 772.215 1.66944 -4.54297 0
M  V30 4778 N 772.285 0.536169 -3.91344 0
M  V30 4779 C 772.435 0.901569 -2.58849 0
M  V30 4780 C 772.565 0.146599 -1.40236 0
M  V30 4781 N 772.575 -1.18234 -1.37046 0
M  V30 4782 N 772.685 0.822941 -0.249738 0
M  V30 4783 C 772.675 2.15179 -0.280525 0
M  V30 4784 N 772.555 2.96414 -1.30822 0
M  V30 4785 C 772.435 2.25804 -2.44748 0
M  V30 4786 H 769.457 4.79756 -7.24086 0
M  V30 4787 H 769.185 3.69963 -5.84682 0
M  V30 4788 H 770.053 6.10431 -5.41508 0
M  V30 4789 H 772.708 4.78816 -3.28024 0
M  V30 4790 H 772.988 3.64957 -6.05871 0
M  V30 4791 H 773.979 4.88748 -5.21323 0
M  V30 4792 H 772.145 5.66789 -7.0643 0
M  V30 4793 H 772.104 1.74684 -5.62396 0
M  V30 4794 H 772.485 -1.71949 -2.24394 0
M  V30 4795 H 772.674 -1.67511 -0.470742 0
M  V30 4796 H 772.782 2.63704 0.6828 0
M  V30 4797 P 774.015 7.20834 -5.23717 0
M  V30 4798 O 774.235 8.66104 -5.38572 0
M  V30 4799 O 774.805 6.33544 -6.1349 0
M  V30 4800 O 774.265 6.7751 -3.72168 0
M  V30 4801 C 773.325 7.20825 -2.7076 0
M  V30 4802 C 774.055 7.45864 -1.40599 0
M  V30 4803 O 774.265 6.17651 -0.734225 0
M  V30 4804 C 775.455 8.05808 -1.51899 0
M  V30 4805 O 775.845 8.74358 -0.335205 0
M  V30 4806 C 776.335 6.83093 -1.70294 0
M  V30 4807 C 775.625 5.79992 -0.836974 0
M  V30 4808 N 775.675 4.41864 -1.38293 0
M  V30 4809 C 775.595 3.99538 -2.69438 0
M  V30 4810 N 775.675 2.69909 -2.84277 0
M  V30 4811 C 775.815 2.21719 -1.5408 0
M  V30 4812 C 775.945 0.891712 -1.06628 0
M  V30 4813 N 776.065 0.856846 0.334985 0
M  V30 4814 C 776.065 1.9641 1.15789 0
M  V30 4815 N 776.195 1.72708 2.46522 0
M  V30 4816 N 775.935 3.21165 0.713741 0
M  V30 4817 C 775.815 3.26797 -0.639748 0
M  V30 4818 H 772.836 8.13644 -3.0377 0
M  V30 4819 H 772.566 6.42788 -2.55485 0
M  V30 4820 H 773.433 8.12039 -0.792769 0
M  V30 4821 P 777.395 8.91 5.45772e-12 0
M  V30 4822 O 777.615 10.1726 0.733694 0
M  V30 4823 O 778.185 8.73148 -1.23936 0
M  V30 4824 O 777.645 7.66872 0.971405 0
M  V30 4825 C 776.705 7.42309 2.04641 0
M  V30 4826 C 777.435 6.86059 3.24661 0
M  V30 4827 O 777.645 5.42847 3.03646 0
M  V30 4828 C 778.835 7.41196 3.50753 0
M  V30 4829 O 779.225 7.27073 4.86816 0
M  V30 4830 C 779.715 6.5273 2.63741 0
M  V30 4831 C 779.005 5.1842 2.73198 0
M  V30 4832 N 779.055 4.38762 1.4784 0
M  V30 4833 H 776.216 8.36803 2.32493 0
M  V30 4834 H 775.946 6.70197 1.71129 0
M  V30 4835 H 776.813 7.03551 4.13168 0
M  V30 4836 P 780.775 7.20834 5.23717 0
M  V30 4837 O 780.995 7.79853 6.57286 0
M  V30 4838 O 781.565 7.79239 4.12957 0
M  V30 4839 O 781.025 5.63315 5.29344 0
M  V30 4840 C 780.085 4.80255 6.01876 0
M  V30 4841 C 780.815 3.64202 6.65911 0
M  V30 4842 O 781.025 2.60694 5.64732 0
M  V30 4843 C 782.215 3.93473 7.1943 0
M  V30 4844 O 782.605 3.02071 8.21205 0
M  V30 4845 C 783.095 3.73047 5.97036 0
M  V30 4846 C 782.385 2.58828 5.25741 0
M  V30 4847 N 782.435 2.68068 3.77503 0
M  V30 4848 C 782.355 3.79715 2.96723 0
M  V30 4849 N 782.435 3.5377 1.68852 0
M  V30 4850 C 782.575 2.15054 1.63254 0
M  V30 4851 C 782.705 1.28964 0.518571 0
M  V30 4852 O 782.725 1.56826 -0.679156 0
M  V30 4853 N 782.825 -0.0538097 0.918425 0
M  V30 4854 C 782.825 -0.494275 2.22578 0
M  V30 4855 N 782.955 -1.81086 2.40434 0
M  V30 4856 N 782.695 0.313645 3.27502 0
M  V30 4857 C 782.575 1.61829 2.91033 0
M  V30 4858 H 779.596 5.40332 6.79951 0
M  V30 4859 H 779.326 4.41613 5.32378 0
M  V30 4860 H 780.193 3.26331 7.47797 0
M  V30 4861 H 782.848 1.63422 5.56814 0
M  V30 4862 H 783.127 4.63374 5.34244 0
M  V30 4863 H 784.119 3.44728 6.25838 0
M  V30 4864 H 782.285 4.96652 7.57263 0
M  V30 4865 H 782.236 4.80617 3.3614 0
M  V30 4866 H 782.918 -0.742702 0.199384 0
M  V30 4867 H 782.955 -2.20598 3.35588 0
M  V30 4868 H 783.056 -2.43518 1.58945 0
M  V30 4869 P 784.155 2.75334 8.47391 0
M  V30 4870 O 784.375 2.44571 9.90142 0
M  V30 4871 O 784.945 3.87688 7.92115 0
M  V30 4872 O 784.405 1.4459 7.59357 0
M  V30 4873 C 783.465 0.347608 7.69215 0
M  V30 4874 C 784.195 -0.96767 7.52806 0
M  V30 4875 O 784.405 -1.21036 6.1011 0
M  V30 4876 C 785.595 -1.04544 8.13308 0
M  V30 4877 O 785.985 -2.38311 8.41922 0
M  V30 4878 C 786.475 -0.491279 7.02284 0
M  V30 4879 C 785.765 -0.996264 5.77469 0
M  V30 4880 N 785.815 -0.0501916 4.62973 0
M  V30 4881 H 782.976 0.374722 8.67691 0
M  V30 4882 H 782.706 0.443485 6.90277 0
M  V30 4883 H 783.573 -1.75537 7.96793 0
M  V30 4884 P 787.535 -2.75334 8.47391 0
M  V30 4885 O 787.755 -3.84128 9.44797 0
M  V30 4886 O 788.325 -1.51947 8.68712 0
M  V30 4887 O 787.785 -3.29363 6.99321 0
M  V30 4888 C 786.845 -4.24011 6.4274 0
M  V30 4889 C 787.575 -5.20775 5.52155 0
M  V30 4890 O 787.785 -4.56534 4.22446 0
M  V30 4891 C 788.975 -5.62629 5.96531 0
M  V30 4892 O 789.365 -6.87667 5.41053 0
M  V30 4893 C 789.855 -4.52537 5.39283 0
M  V30 4894 C 789.145 -4.20027 4.08623 0
M  V30 4895 N 789.195 -2.76189 3.71603 0
M  V30 4896 H 786.356 -4.797 7.24003 0
M  V30 4897 H 786.086 -3.69856 5.84513 0
M  V30 4898 H 786.953 -6.10356 5.41441 0
M  V30 4899 P 790.915 -7.20834 5.23717 0
M  V30 4900 O 791.135 -8.66104 5.38572 0
M  V30 4901 O 791.705 -6.33544 6.1349 0
M  V30 4902 O 791.165 -6.7751 3.72168 0
M  V30 4903 C 790.225 -7.20825 2.7076 0
M  V30 4904 C 790.955 -7.45864 1.40599 0
M  V30 4905 O 791.165 -6.17651 0.734225 0
M  V30 4906 C 792.355 -8.05808 1.51899 0
M  V30 4907 O 792.745 -8.74358 0.335205 0
M  V30 4908 C 793.235 -6.83093 1.70294 0
M  V30 4909 C 792.525 -5.79992 0.836974 0
M  V30 4910 N 792.575 -4.41864 1.38293 0
M  V30 4911 H 789.736 -8.13644 3.0377 0
M  V30 4912 H 789.466 -6.42788 2.55485 0
M  V30 4913 H 790.333 -8.12039 0.792769 0
M  V30 4914 P 794.295 -8.91 -5.6149e-12 0
M  V30 4915 O 794.515 -10.1726 -0.733694 0
M  V30 4916 O 795.085 -8.73148 1.23936 0
M  V30 4917 O 794.545 -7.66872 -0.971405 0
M  V30 4918 C 793.605 -7.42309 -2.04641 0
M  V30 4919 C 794.335 -6.86059 -3.24661 0
M  V30 4920 O 794.545 -5.42847 -3.03646 0
M  V30 4921 C 795.735 -7.41196 -3.50753 0
M  V30 4922 O 796.125 -7.27073 -4.86816 0
M  V30 4923 C 796.615 -6.5273 -2.63741 0
M  V30 4924 C 795.905 -5.1842 -2.73198 0
M  V30 4925 N 795.955 -4.38762 -1.4784 0
M  V30 4926 H 793.116 -8.36803 -2.32493 0
M  V30 4927 H 792.846 -6.70197 -1.71129 0
M  V30 4928 H 793.713 -7.03551 -4.13168 0
M  V30 4929 P 797.675 -7.20834 -5.23717 0
M  V30 4930 O 797.895 -7.79853 -6.57286 0
M  V30 4931 O 798.465 -7.79239 -4.12957 0
M  V30 4932 O 797.925 -5.63315 -5.29344 0
M  V30 4933 C 796.985 -4.80255 -6.01876 0
M  V30 4934 C 797.715 -3.64202 -6.65911 0
M  V30 4935 O 797.925 -2.60694 -5.64732 0
M  V30 4936 C 799.115 -3.93473 -7.1943 0
M  V30 4937 O 799.505 -3.02071 -8.21205 0
M  V30 4938 C 799.995 -3.73047 -5.97036 0
M  V30 4939 C 799.285 -2.58828 -5.25741 0
M  V30 4940 N 799.335 -2.68068 -3.77503 0
M  V30 4941 H 796.496 -5.40332 -6.79951 0
M  V30 4942 H 796.226 -4.41613 -5.32378 0
M  V30 4943 H 797.093 -3.26331 -7.47797 0
M  V30 4944 P 801.055 -2.75334 -8.47391 0
M  V30 4945 O 801.275 -2.44595 -9.90239 0
M  V30 4946 O 801.845 -3.87732 -7.92204 0
M  V30 4947 O 801.305 -1.4459 -7.59357 0
M  V30 4948 C 800.365 -0.347563 -7.69115 0
M  V30 4949 C 801.095 0.96767 -7.52806 0
M  V30 4950 O 801.305 1.21036 -6.1011 0
M  V30 4951 C 802.495 1.04544 -8.13308 0
M  V30 4952 O 802.885 2.38311 -8.41922 0
M  V30 4953 C 803.375 0.491279 -7.02284 0
M  V30 4954 C 802.665 0.996264 -5.77469 0
M  V30 4955 N 802.715 0.0501808 -4.62873 0
M  V30 4956 C 802.865 0.588177 -3.36904 0
M  V30 4957 O 802.955 1.78598 -3.17173 0
M  V30 4958 N 802.905 -0.329694 -2.33686 0
M  V30 4959 C 802.815 -1.6953 -2.45079 0
M  V30 4960 O 802.865 -2.41926 -1.44899 0
M  V30 4961 C 802.665 -2.16933 -3.80505 0
M  V30 4962 C 802.555 -3.65373 -3.97621 0
M  V30 4963 C 802.615 -1.30326 -4.83752 0
M  V30 4964 H 799.875 -0.374722 -8.67691 0
M  V30 4965 H 799.606 -0.443421 -6.90177 0
M  V30 4966 H 800.473 1.75537 -7.96793 0
M  V30 4967 H 803.128 1.94496 -5.46629 0
M  V30 4968 H 803.407 -0.608651 -7.04676 0
M  V30 4969 H 804.399 0.889672 -7.08939 0
M  V30 4970 H 802.565 0.43308 -9.04564 0
M  V30 4971 H 802.494 -1.68366 -5.8516 0
M  V30 4972 H 803.524 -4.05985 -4.30448 0
M  V30 4973 H 801.787 -3.88028 -4.72875 0
M  V30 4974 H 802.275 -4.11381 -3.01609 0
M  V30 4975 H 803.011 0.0393617 -1.41345 0
M  V30 4976 P 804.435 2.75334 -8.47391 0
M  V30 4977 O 804.655 3.84166 -9.4489 0
M  V30 4978 O 805.225 1.51964 -8.6881 0
M  V30 4979 O 804.685 3.29363 -6.99321 0
M  V30 4980 C 803.745 4.23956 -6.42656 0
M  V30 4981 C 804.475 5.20775 -5.52155 0
M  V30 4982 O 804.685 4.56534 -4.22446 0
M  V30 4983 C 805.875 5.62629 -5.96531 0
M  V30 4984 O 806.265 6.87667 -5.41053 0
M  V30 4985 C 806.755 4.52537 -5.39283 0
M  V30 4986 C 806.045 4.20027 -4.08623 0
M  V30 4987 N 806.095 2.7613 -3.71522 0
M  V30 4988 C 806.245 2.45612 -2.37989 0
M  V30 4989 O 806.335 3.30919 -1.51621 0
M  V30 4990 N 806.285 1.10684 -2.08435 0
M  V30 4991 C 806.195 0.0690084 -2.9792 0
M  V30 4992 O 806.245 -1.10553 -2.59426 0
M  V30 4993 C 806.045 0.481522 -4.35345 0
M  V30 4994 C 805.935 -0.618778 -5.36443 0
M  V30 4995 C 805.995 1.78906 -4.67968 0
M  V30 4996 H 803.255 4.797 -7.24003 0
M  V30 4997 H 802.986 3.69802 -5.84429 0
M  V30 4998 H 803.853 6.10356 -5.41441 0
M  V30 4999 H 806.508 4.78651 -3.27911 0
M  V30 5000 H 806.787 3.64957 -6.05871 0
M  V30 5001 H 807.779 4.8868 -5.2125 0
M  V30 5002 H 805.945 5.66726 -7.06352 0
M  V30 5003 H 805.874 2.07737 -5.72367 0
M  V30 5004 H 806.904 -0.754375 -5.86871 0
M  V30 5005 H 805.167 -0.359721 -6.10641 0
M  V30 5006 H 805.655 -1.55533 -4.8581 0
M  V30 5007 H 806.391 0.862651 -1.12037 0
M  V30 5008 P 807.815 7.20834 -5.23717 0
M  V30 5009 O 808.035 8.66104 -5.38572 0
M  V30 5010 O 808.605 6.33544 -6.1349 0
M  V30 5011 O 808.065 6.7751 -3.72168 0
M  V30 5012 C 807.125 7.20825 -2.7076 0
M  V30 5013 C 807.855 7.45864 -1.40599 0
M  V30 5014 O 808.065 6.17651 -0.734225 0
M  V30 5015 C 809.255 8.05808 -1.51899 0
M  V30 5016 O 809.645 8.74358 -0.335205 0
M  V30 5017 C 810.135 6.83093 -1.70294 0
M  V30 5018 C 809.425 5.79992 -0.836974 0
M  V30 5019 N 809.475 4.41864 -1.38293 0
M  V30 5020 H 806.636 8.13644 -3.0377 0
M  V30 5021 H 806.366 6.42788 -2.55485 0
M  V30 5022 H 807.233 8.12039 -0.792769 0
M  V30 5023 P 811.195 8.91 5.77209e-12 0
M  V30 5024 O 811.415 10.1736 0.733766 0
M  V30 5025 O 811.985 8.73247 -1.2395 0
M  V30 5026 O 811.445 7.66872 0.971405 0
M  V30 5027 C 810.505 7.42212 2.04614 0
M  V30 5028 C 811.235 6.86059 3.24661 0
M  V30 5029 O 811.445 5.42847 3.03646 0
M  V30 5030 C 812.635 7.41196 3.50753 0
M  V30 5031 O 813.025 7.27073 4.86816 0
M  V30 5032 C 813.515 6.5273 2.63741 0
M  V30 5033 C 812.805 5.1842 2.73198 0
M  V30 5034 N 812.855 4.38668 1.47808 0
M  V30 5035 C 813.005 3.02239 1.60048 0
M  V30 5036 O 813.095 2.46459 2.67869 0
M  V30 5037 N 813.045 2.32436 0.408571 0
M  V30 5038 C 812.955 2.85471 -0.854993 0
M  V30 5039 O 813.005 2.12566 -1.8531 0
M  V30 5040 C 812.805 4.28918 -0.887335 0
M  V30 5041 C 812.695 4.91066 -2.24619 0
M  V30 5042 C 812.755 5.00349 0.255399 0
M  V30 5043 H 810.015 8.36803 2.32493 0
M  V30 5044 H 809.746 6.701 1.71105 0
M  V30 5045 H 810.613 7.03551 4.13168 0
M  V30 5046 H 813.268 4.59773 3.53894 0
M  V30 5047 H 813.547 6.88995 1.59871 0
M  V30 5048 H 814.539 6.46749 3.03687 0
M  V30 5049 H 812.705 8.46908 3.20714 0
M  V30 5050 H 812.634 6.08548 0.206986 0
M  V30 5051 H 813.664 5.34836 -2.53099 0
M  V30 5052 H 811.927 5.69638 -2.2291 0
M  V30 5053 H 812.415 4.13971 -2.98044 0
M  V30 5054 H 813.151 1.33211 0.474216 0
M  V30 5055 P 814.575 7.20834 5.23717 0
M  V30 5056 O 814.795 7.79853 6.57286 0
M  V30 5057 O 815.365 7.79239 4.12957 0
M  V30 5058 O 814.825 5.63315 5.29344 0
M  V30 5059 C 813.885 4.80255 6.01876 0
M  V30 5060 C 814.615 3.64202 6.65911 0
M  V30 5061 O 814.825 2.60694 5.64732 0
M  V30 5062 C 816.015 3.93473 7.1943 0
M  V30 5063 O 816.405 3.02071 8.21205 0
M  V30 5064 C 816.895 3.73047 5.97036 0
M  V30 5065 C 816.185 2.58828 5.25741 0
M  V30 5066 N 816.235 2.68068 3.77503 0
M  V30 5067 H 813.396 5.40332 6.79951 0
M  V30 5068 H 813.126 4.41613 5.32378 0
M  V30 5069 H 813.993 3.26331 7.47797 0
M  V30 5070 P 817.955 2.75334 8.47391 0
M  V30 5071 O 818.175 2.44571 9.90142 0
M  V30 5072 O 818.745 3.87688 7.92115 0
M  V30 5073 O 818.205 1.4459 7.59357 0
M  V30 5074 C 817.265 0.347608 7.69215 0
M  V30 5075 C 817.995 -0.96767 7.52806 0
M  V30 5076 O 818.205 -1.21036 6.1011 0
M  V30 5077 C 819.395 -1.04544 8.13308 0
M  V30 5078 O 819.785 -2.38311 8.41922 0
M  V30 5079 C 820.275 -0.491279 7.02284 0
M  V30 5080 C 819.565 -0.996264 5.77469 0
M  V30 5081 N 819.615 -0.0501916 4.62973 0
M  V30 5082 H 816.776 0.374722 8.67691 0
M  V30 5083 H 816.506 0.443485 6.90277 0
M  V30 5084 H 817.373 -1.75537 7.96793 0
M  V30 5085 P 821.335 -2.75334 8.47391 0
M  V30 5086 O 821.555 -3.84128 9.44797 0
M  V30 5087 O 822.125 -1.51947 8.68712 0
M  V30 5088 O 821.585 -3.29363 6.99321 0
M  V30 5089 C 820.645 -4.24011 6.4274 0
M  V30 5090 C 821.375 -5.20775 5.52155 0
M  V30 5091 O 821.585 -4.56534 4.22446 0
M  V30 5092 C 822.775 -5.62629 5.96531 0
M  V30 5093 O 823.165 -6.87667 5.41053 0
M  V30 5094 C 823.655 -4.52537 5.39283 0
M  V30 5095 C 822.945 -4.20027 4.08623 0
M  V30 5096 N 822.995 -2.76189 3.71603 0
M  V30 5097 C 822.915 -1.64862 4.52822 0
M  V30 5098 N 822.995 -0.512671 3.88633 0
M  V30 5099 C 823.135 -0.888083 2.54977 0
M  V30 5100 C 823.265 -0.094668 1.38677 0
M  V30 5101 N 823.385 -0.890102 0.232633 0
M  V30 5102 C 823.385 -2.26958 0.21772 0
M  V30 5103 N 823.515 -2.84626 -0.97925 0
M  V30 5104 N 823.255 -3.0178 1.31033 0
M  V30 5105 C 823.135 -2.26781 2.43843 0
M  V30 5106 H 820.156 -4.797 7.24003 0
M  V30 5107 H 819.886 -3.69856 5.84513 0
M  V30 5108 H 820.753 -6.10356 5.41441 0
M  V30 5109 P 824.715 -7.20834 5.23717 0
M  V30 5110 O 824.935 -8.66104 5.38572 0
M  V30 5111 O 825.505 -6.33544 6.1349 0
M  V30 5112 O 824.965 -6.7751 3.72168 0
M  V30 5113 C 824.025 -7.20825 2.7076 0
M  V30 5114 C 824.755 -7.45864 1.40599 0
M  V30 5115 O 824.965 -6.17651 0.734225 0
M  V30 5116 C 826.155 -8.05808 1.51899 0
M  V30 5117 O 826.545 -8.74358 0.335205 0
M  V30 5118 C 827.035 -6.83093 1.70294 0
M  V30 5119 C 826.325 -5.79992 0.836974 0
M  V30 5120 N 826.375 -4.41864 1.38293 0
M  V30 5121 C 826.295 -3.99538 2.69438 0
M  V30 5122 N 826.375 -2.69909 2.84277 0
M  V30 5123 C 826.515 -2.21719 1.5408 0
M  V30 5124 C 826.645 -0.891712 1.06628 0
M  V30 5125 O 826.665 0.161298 1.70137 0
M  V30 5126 N 826.765 -0.856846 -0.334985 0
M  V30 5127 C 826.765 -1.9641 -1.15789 0
M  V30 5128 N 826.895 -1.72708 -2.46522 0
M  V30 5129 N 826.635 -3.21165 -0.713741 0
M  V30 5130 C 826.515 -3.26797 0.639748 0
M  V30 5131 H 823.536 -8.13644 3.0377 0
M  V30 5132 H 823.266 -6.42788 2.55485 0
M  V30 5133 H 824.133 -8.12039 0.792769 0
M  V30 5134 H 826.788 -5.80061 -0.166416 0
M  V30 5135 H 827.067 -6.51287 2.75604 0
M  V30 5136 H 828.059 -7.01734 1.34462 0
M  V30 5137 H 826.225 -8.73674 2.38337 0
M  V30 5138 H 826.176 -4.68207 3.53221 0
M  V30 5139 H 826.858 0.0398818 -0.767965 0
M  V30 5140 H 826.895 -2.50995 -3.13503 0
M  V30 5141 H 826.996 -0.759148 -2.80716 0
M  V30 5142 P 828.095 -8.91 -5.92927e-12 0
M  V30 5143 O 828.315 -10.1746 -0.733838 0
M  V30 5144 O 828.885 -8.73346 1.23964 0
M  V30 5145 O 828.345 -7.66872 -0.971405 0
M  V30 5146 C 827.405 -7.42405 -2.04668 0
M  V30 5147 C 828.135 -6.86059 -3.24661 0
M  V30 5148 O 828.345 -5.42934 -3.03695 0
M  V30 5149 C 829.535 -7.41287 -3.50796 0
M  V30 5150 O 829.925 -7.27073 -4.86816 0
M  V30 5151 C 830.415 -6.5273 -2.63741 0
M  V30 5152 C 829.705 -5.1842 -2.73198 0
M  V30 5153 N 829.755 -4.38762 -1.4784 0
M  V30 5154 C 829.675 -4.83651 -0.183876 0
M  V30 5155 N 829.745 -3.88759 0.699393 0
M  V30 5156 C 829.895 -2.7404 -0.0575568 0
M  V30 5157 C 830.025 -1.37902 0.293928 0
M  V30 5158 N 830.035 -0.938021 1.54797 0
M  V30 5159 N 830.145 -0.491817 -0.70549 0
M  V30 5160 C 830.135 -0.931735 -1.95979 0
M  V30 5161 N 830.015 -2.16017 -2.41481 0
M  V30 5162 C 829.895 -3.02547 -1.39121 0
M  V30 5163 H 826.917 -8.36899 -2.3252 0
M  V30 5164 H 826.645 -6.70391 -1.71179 0
M  V30 5165 H 827.513 -7.03638 -4.13219 0
M  V30 5166 H 830.168 -4.59931 -3.54016 0
M  V30 5167 H 830.448 -6.88995 -1.59871 0
M  V30 5168 H 831.439 -6.4684 -3.0373 0
M  V30 5169 H 829.605 -8.47002 -3.20749 0
M  V30 5170 H 829.564 -5.8885 0.0765548 0
M  V30 5171 H 829.945 -1.60276 2.32875 0
M  V30 5172 H 830.134 0.0699355 1.73859 0
M  V30 5173 H 830.242 -0.165507 -2.71897 0
M  V30 5174 P 831.475 -7.20834 -5.23717 0
M  V30 5175 O 831.695 -7.80006 -6.57415 0
M  V30 5176 O 832.265 -7.79416 -4.13051 0
M  V30 5177 O 831.725 -5.63315 -5.29344 0
M  V30 5178 C 830.785 -4.80318 -6.01954 0
M  V30 5179 C 831.515 -3.64202 -6.65911 0
M  V30 5180 O 831.725 -2.60736 -5.64823 0
M  V30 5181 C 832.915 -3.93521 -7.19518 0
M  V30 5182 O 833.305 -3.02071 -8.21205 0
M  V30 5183 C 833.795 -3.73047 -5.97036 0
M  V30 5184 C 833.085 -2.58828 -5.25741 0
M  V30 5185 N 833.135 -2.68068 -3.77503 0
M  V30 5186 C 833.055 -3.80474 -2.99159 0
M  V30 5187 N 833.125 -3.55622 -1.71925 0
M  V30 5188 C 833.275 -2.1832 -1.65733 0
M  V30 5189 C 833.405 -1.28842 -0.572777 0
M  V30 5190 N 833.415 -1.66875 0.70098 0
M  V30 5191 N 833.525 0.016788 -0.859836 0
M  V30 5192 C 833.515 0.398145 -2.13316 0
M  V30 5193 N 833.395 -0.328224 -3.22333 0
M  V30 5194 C 833.275 -1.62992 -2.90383 0
M  V30 5195 H 830.297 -5.40394 -6.8003 0
M  V30 5196 H 830.025 -4.41741 -5.32532 0
M  V30 5197 H 830.893 -3.26371 -7.47889 0
M  V30 5198 H 833.548 -1.64007 -5.56746 0
M  V30 5199 H 833.828 -4.63439 -5.3432 0
M  V30 5200 H 834.819 -3.44776 -6.25925 0
M  V30 5201 H 832.985 -4.96707 -7.57347 0
M  V30 5202 H 832.944 -4.8089 -3.39924 0
M  V30 5203 H 833.325 -2.66547 0.941919 0
M  V30 5204 H 833.514 -0.965341 1.44766 0
M  V30 5205 H 833.622 1.46427 -2.29697 0
M  V30 5206 P 834.855 -2.75334 -8.47391 0
M  V30 5207 O 835.075 -2.44619 -9.90336 0
M  V30 5208 O 835.645 -3.87776 -7.92294 0
M  V30 5209 O 835.105 -1.4459 -7.59357 0
M  V30 5210 C 834.165 -0.347653 -7.69315 0
M  V30 5211 C 834.895 0.96767 -7.52806 0
M  V30 5212 O 835.105 1.21055 -6.10208 0
M  V30 5213 C 836.295 1.04557 -8.13408 0
M  V30 5214 O 836.685 2.38311 -8.41922 0
M  V30 5215 C 837.175 0.491279 -7.02284 0
M  V30 5216 C 836.465 0.996264 -5.77469 0
M  V30 5217 N 836.515 0.0501916 -4.62973 0
M  V30 5218 C 836.435 -1.31969 -4.65661 0
M  V30 5219 N 836.505 -1.86649 -3.48119 0
M  V30 5220 C 836.655 -0.792089 -2.62406 0
M  V30 5221 C 836.785 -0.705684 -1.2207 0
M  V30 5222 N 836.795 -1.76207 -0.413762 0
M  V30 5223 N 836.905 0.518981 -0.685754 0
M  V30 5224 C 836.895 1.57595 -1.49174 0
M  V30 5225 N 836.775 1.62909 -2.80066 0
M  V30 5226 C 836.655 0.388195 -3.3073 0
M  V30 5227 H 833.677 -0.374765 -8.67791 0
M  V30 5228 H 833.405 -0.443613 -6.90476 0
M  V30 5229 H 834.273 1.75559 -7.96891 0
M  V30 5230 H 836.928 1.94563 -5.46818 0
M  V30 5231 H 837.208 -0.608651 -7.04676 0
M  V30 5232 H 838.199 0.889796 -7.09039 0
M  V30 5233 H 836.365 0.433128 -9.04664 0
M  V30 5234 H 836.324 -1.89246 -5.57664 0
M  V30 5235 H 836.705 -2.71005 -0.804694 0
M  V30 5236 H 836.894 -1.63189 0.603768 0
M  V30 5237 H 837.002 2.53475 -0.997614 0
M  V30 5238 P 838.235 2.75334 -8.47391 0
M  V30 5239 O 838.455 3.84128 -9.44797 0
M  V30 5240 O 839.025 1.51947 -8.68712 0
M  V30 5241 O 838.485 3.29363 -6.99321 0
M  V30 5242 C 837.545 4.24011 -6.4274 0
M  V30 5243 C 838.275 5.20775 -5.52155 0
M  V30 5244 O 838.485 4.56534 -4.22446 0
M  V30 5245 C 839.675 5.62629 -5.96531 0
M  V30 5246 O 840.065 6.87667 -5.41053 0
M  V30 5247 C 840.555 4.52537 -5.39283 0
M  V30 5248 C 839.845 4.20027 -4.08623 0
M  V30 5249 N 839.895 2.76189 -3.71603 0
M  V30 5250 H 837.056 4.797 -7.24003 0
M  V30 5251 H 836.786 3.69856 -5.84513 0
M  V30 5252 H 837.653 6.10356 -5.41441 0
M  V30 5253 P 841.615 7.20834 -5.23717 0
M  V30 5254 O 841.835 8.66274 -5.38678 0
M  V30 5255 O 842.405 6.33687 -6.13629 0
M  V30 5256 O 841.865 6.7751 -3.72168 0
M  V30 5257 C 840.925 7.20919 -2.70795 0
M  V30 5258 C 841.655 7.45864 -1.40599 0
M  V30 5259 O 841.865 6.17751 -0.734343 0
M  V30 5260 C 843.055 8.05906 -1.51917 0
M  V30 5261 O 843.445 8.74358 -0.335205 0
M  V30 5262 C 843.935 6.83093 -1.70294 0
M  V30 5263 C 843.225 5.79992 -0.836974 0
M  V30 5264 N 843.275 4.41864 -1.38293 0
M  V30 5265 H 840.437 8.13738 -3.03804 0
M  V30 5266 H 840.165 6.42974 -2.55559 0
M  V30 5267 H 841.033 8.12139 -0.792866 0
M  V30 5268 H 843.688 5.80178 0.160643 0
M  V30 5269 H 843.968 6.51379 -2.75643 0
M  V30 5270 H 844.959 7.01832 -1.3448 0
M  V30 5271 H 843.125 8.73771 -2.38364 0
M  V30 5272 P 844.995 8.91 6.08645e-12 0
M  V30 5273 O 845.215 10.1726 0.733694 0
M  V30 5274 O 845.785 8.73148 -1.23936 0
M  V30 5275 O 845.245 7.66872 0.971405 0
M  V30 5276 C 844.305 7.42309 2.04641 0
M  V30 5277 C 845.035 6.86059 3.24661 0
M  V30 5278 O 845.245 5.42847 3.03646 0
M  V30 5279 C 846.435 7.41196 3.50753 0
M  V30 5280 O 846.825 7.27073 4.86816 0
M  V30 5281 C 847.315 6.5273 2.63741 0
M  V30 5282 C 846.605 5.1842 2.73198 0
M  V30 5283 N 846.655 4.38762 1.4784 0
M  V30 5284 H 843.816 8.36803 2.32493 0
M  V30 5285 H 843.546 6.70197 1.71129 0
M  V30 5286 H 844.413 7.03551 4.13168 0
M  V30 5287 P 848.375 7.20834 5.23717 0
M  V30 5288 O 848.595 7.79853 6.57286 0
M  V30 5289 O 849.165 7.79239 4.12957 0
M  V30 5290 O 848.625 5.63315 5.29344 0
M  V30 5291 C 847.685 4.80255 6.01876 0
M  V30 5292 C 848.415 3.64202 6.65911 0
M  V30 5293 O 848.625 2.60694 5.64732 0
M  V30 5294 C 849.815 3.93473 7.1943 0
M  V30 5295 O 850.205 3.02071 8.21205 0
M  V30 5296 C 850.695 3.73047 5.97036 0
M  V30 5297 C 849.985 2.58828 5.25741 0
M  V30 5298 N 850.035 2.68068 3.77503 0
M  V30 5299 C 849.955 3.79715 2.96723 0
M  V30 5300 N 850.035 3.5377 1.68852 0
M  V30 5301 C 850.175 2.15054 1.63254 0
M  V30 5302 C 850.305 1.28964 0.518571 0
M  V30 5303 N 850.425 -0.0538097 0.918425 0
M  V30 5304 C 850.425 -0.494275 2.22578 0
M  V30 5305 N 850.555 -1.81086 2.40434 0
M  V30 5306 N 850.295 0.313645 3.27502 0
M  V30 5307 C 850.175 1.61829 2.91033 0
M  V30 5308 H 847.196 5.40332 6.79951 0
M  V30 5309 H 846.926 4.41613 5.32378 0
M  V30 5310 H 847.793 3.26331 7.47797 0
M  V30 5311 P 851.755 2.75334 8.47391 0
M  V30 5312 O 851.975 2.44571 9.90142 0
M  V30 5313 O 852.545 3.87688 7.92115 0
M  V30 5314 O 852.005 1.4459 7.59357 0
M  V30 5315 C 851.065 0.347608 7.69215 0
M  V30 5316 C 851.795 -0.96767 7.52806 0
M  V30 5317 O 852.005 -1.21036 6.1011 0
M  V30 5318 C 853.195 -1.04544 8.13308 0
M  V30 5319 O 853.585 -2.38311 8.41922 0
M  V30 5320 C 854.075 -0.491279 7.02284 0
M  V30 5321 C 853.365 -0.996264 5.77469 0
M  V30 5322 N 853.415 -0.0501916 4.62973 0
M  V30 5323 H 850.576 0.374722 8.67691 0
M  V30 5324 H 850.306 0.443485 6.90277 0
M  V30 5325 H 851.173 -1.75537 7.96793 0
M  V30 5326 P 855.135 -2.75334 8.47391 0
M  V30 5327 O 855.355 -3.84128 9.44797 0
M  V30 5328 O 855.925 -1.51947 8.68712 0
M  V30 5329 O 855.385 -3.29363 6.99321 0
M  V30 5330 C 854.445 -4.24011 6.4274 0
M  V30 5331 C 855.175 -5.20775 5.52155 0
M  V30 5332 O 855.385 -4.56534 4.22446 0
M  V30 5333 C 856.575 -5.62629 5.96531 0
M  V30 5334 O 856.965 -6.87667 5.41053 0
M  V30 5335 C 857.455 -4.52537 5.39283 0
M  V30 5336 C 856.745 -4.20027 4.08623 0
M  V30 5337 N 856.795 -2.76189 3.71603 0
M  V30 5338 C 856.715 -1.64862 4.52822 0
M  V30 5339 N 856.795 -0.512671 3.88633 0
M  V30 5340 C 856.935 -0.888083 2.54977 0
M  V30 5341 C 857.065 -0.094668 1.38677 0
M  V30 5342 O 857.085 1.13053 1.28163 0
M  V30 5343 N 857.185 -0.890102 0.232633 0
M  V30 5344 C 857.185 -2.26958 0.21772 0
M  V30 5345 N 857.315 -2.84626 -0.97925 0
M  V30 5346 N 857.055 -3.0178 1.31033 0
M  V30 5347 C 856.935 -2.26781 2.43843 0
M  V30 5348 H 853.956 -4.797 7.24003 0
M  V30 5349 H 853.686 -3.69856 5.84513 0
M  V30 5350 H 854.553 -6.10356 5.41441 0
M  V30 5351 H 857.208 -4.79061 3.27488 0
M  V30 5352 H 857.487 -3.64906 6.05785 0
M  V30 5353 H 858.479 -4.8868 5.2125 0
M  V30 5354 H 856.645 -5.66726 7.06352 0
M  V30 5355 H 856.596 -1.71169 5.60966 0
M  V30 5356 H 857.278 -0.419134 -0.644739 0
M  V30 5357 H 857.315 -3.87332 -1.06098 0
M  V30 5358 H 857.416 -2.26417 -1.82483 0
M  V30 5359 P 858.515 -7.20834 5.23717 0
M  V30 5360 O 858.735 -8.66274 5.38678 0
M  V30 5361 O 859.305 -6.33687 6.13629 0
M  V30 5362 O 858.765 -6.7751 3.72168 0
M  V30 5363 C 857.825 -7.20919 2.70795 0
M  V30 5364 C 858.555 -7.45864 1.40599 0
M  V30 5365 O 858.765 -6.17751 0.734343 0
M  V30 5366 C 859.955 -8.05906 1.51917 0
M  V30 5367 O 860.345 -8.74358 0.335205 0
M  V30 5368 C 860.835 -6.83093 1.70294 0
M  V30 5369 C 860.125 -5.79992 0.836974 0
M  V30 5370 N 860.175 -4.41864 1.38293 0
M  V30 5371 H 857.337 -8.13738 3.03804 0
M  V30 5372 H 857.065 -6.42974 2.55559 0
M  V30 5373 H 857.933 -8.12139 0.792866 0
M  V30 5374 H 860.588 -5.80178 -0.160643 0
M  V30 5375 H 860.868 -6.51379 2.75643 0
M  V30 5376 H 861.859 -7.01832 1.3448 0
M  V30 5377 H 860.025 -8.73771 2.38364 0
M  V30 5378 P 861.895 -8.91 -6.24363e-12 0
M  V30 5379 O 862.115 -10.1726 -0.733694 0
M  V30 5380 O 862.685 -8.73148 1.23936 0
M  V30 5381 O 862.145 -7.66872 -0.971405 0
M  V30 5382 C 861.205 -7.42309 -2.04641 0
M  V30 5383 C 861.935 -6.86059 -3.24661 0
M  V30 5384 O 862.145 -5.42847 -3.03646 0
M  V30 5385 C 863.335 -7.41196 -3.50753 0
M  V30 5386 O 863.725 -7.27073 -4.86816 0
M  V30 5387 C 864.215 -6.5273 -2.63741 0
M  V30 5388 C 863.505 -5.1842 -2.73198 0
M  V30 5389 N 863.555 -4.38762 -1.4784 0
M  V30 5390 H 860.716 -8.36803 -2.32493 0
M  V30 5391 H 860.446 -6.70197 -1.71129 0
M  V30 5392 H 861.313 -7.03551 -4.13168 0
M  V30 5393 P 865.275 -7.20834 -5.23717 0
M  V30 5394 O 865.495 -7.79853 -6.57286 0
M  V30 5395 O 866.065 -7.79239 -4.12957 0
M  V30 5396 O 865.525 -5.63315 -5.29344 0
M  V30 5397 C 864.585 -4.80255 -6.01876 0
M  V30 5398 C 865.315 -3.64202 -6.65911 0
M  V30 5399 O 865.525 -2.60694 -5.64732 0
M  V30 5400 C 866.715 -3.93473 -7.1943 0
M  V30 5401 O 867.105 -3.02071 -8.21205 0
M  V30 5402 C 867.595 -3.73047 -5.97036 0
M  V30 5403 C 866.885 -2.58828 -5.25741 0
M  V30 5404 N 866.935 -2.68068 -3.77503 0
M  V30 5405 C 866.855 -3.79715 -2.96723 0
M  V30 5406 N 866.935 -3.5377 -1.68852 0
M  V30 5407 C 867.075 -2.15054 -1.63254 0
M  V30 5408 C 867.205 -1.28964 -0.518571 0
M  V30 5409 N 867.325 0.0538097 -0.918425 0
M  V30 5410 C 867.325 0.494275 -2.22578 0
M  V30 5411 N 867.455 1.81086 -2.40434 0
M  V30 5412 N 867.195 -0.313645 -3.27502 0
M  V30 5413 C 867.075 -1.61829 -2.91033 0
M  V30 5414 H 864.096 -5.40332 -6.79951 0
M  V30 5415 H 863.826 -4.41613 -5.32378 0
M  V30 5416 H 864.693 -3.26331 -7.47797 0
M  V30 5417 P 868.655 -2.75334 -8.47391 0
M  V30 5418 O 868.875 -2.44571 -9.90142 0
M  V30 5419 O 869.445 -3.87688 -7.92115 0
M  V30 5420 O 868.905 -1.4459 -7.59357 0
M  V30 5421 C 867.965 -0.347608 -7.69215 0
M  V30 5422 C 868.695 0.96767 -7.52806 0
M  V30 5423 O 868.905 1.21036 -6.1011 0
M  V30 5424 C 870.095 1.04544 -8.13308 0
M  V30 5425 O 870.485 2.38311 -8.41922 0
M  V30 5426 C 870.975 0.491279 -7.02284 0
M  V30 5427 C 870.265 0.996264 -5.77469 0
M  V30 5428 N 870.315 0.0501916 -4.62973 0
M  V30 5429 H 867.476 -0.374722 -8.67691 0
M  V30 5430 H 867.206 -0.443485 -6.90277 0
M  V30 5431 H 868.073 1.75537 -7.96793 0
M  V30 5432 P 872.035 2.75334 -8.47391 0
M  V30 5433 O 872.255 3.84128 -9.44797 0
M  V30 5434 O 872.825 1.51947 -8.68712 0
M  V30 5435 O 872.285 3.29363 -6.99321 0
M  V30 5436 C 871.345 4.24011 -6.4274 0
M  V30 5437 C 872.075 5.20775 -5.52155 0
M  V30 5438 O 872.285 4.56534 -4.22446 0
M  V30 5439 C 873.475 5.62629 -5.96531 0
M  V30 5440 O 873.865 6.87667 -5.41053 0
M  V30 5441 C 874.355 4.52537 -5.39283 0
M  V30 5442 C 873.645 4.20027 -4.08623 0
M  V30 5443 N 873.695 2.76189 -3.71603 0
M  V30 5444 H 870.856 4.797 -7.24003 0
M  V30 5445 H 870.586 3.69856 -5.84513 0
M  V30 5446 H 871.453 6.10356 -5.41441 0
M  V30 5447 P 875.415 7.20834 -5.23717 0
M  V30 5448 O 875.635 8.66104 -5.38572 0
M  V30 5449 O 876.205 6.33544 -6.1349 0
M  V30 5450 O 875.665 6.7751 -3.72168 0
M  V30 5451 C 874.725 7.20825 -2.7076 0
M  V30 5452 C 875.455 7.45864 -1.40599 0
M  V30 5453 O 875.665 6.17651 -0.734225 0
M  V30 5454 C 876.855 8.05808 -1.51899 0
M  V30 5455 O 877.245 8.74358 -0.335205 0
M  V30 5456 C 877.735 6.83093 -1.70294 0
M  V30 5457 C 877.025 5.79992 -0.836974 0
M  V30 5458 N 877.075 4.41864 -1.38293 0
M  V30 5459 C 876.995 3.99538 -2.69438 0
M  V30 5460 N 877.075 2.69909 -2.84277 0
M  V30 5461 C 877.215 2.21719 -1.5408 0
M  V30 5462 C 877.345 0.891712 -1.06628 0
M  V30 5463 O 877.365 -0.161298 -1.70137 0
M  V30 5464 N 877.465 0.856846 0.334985 0
M  V30 5465 C 877.465 1.9641 1.15789 0
M  V30 5466 N 877.595 1.72708 2.46522 0
M  V30 5467 N 877.335 3.21165 0.713741 0
M  V30 5468 C 877.215 3.26797 -0.639748 0
M  V30 5469 H 874.236 8.13644 -3.0377 0
M  V30 5470 H 873.966 6.42788 -2.55485 0
M  V30 5471 H 874.833 8.12039 -0.792769 0
M  V30 5472 H 877.488 5.80061 0.166416 0
M  V30 5473 H 877.767 6.51287 -2.75604 0
M  V30 5474 H 878.759 7.01734 -1.34462 0
M  V30 5475 H 876.925 8.73674 -2.38337 0
M  V30 5476 H 876.876 4.68207 -3.53221 0
M  V30 5477 H 877.558 -0.0398818 0.767965 0
M  V30 5478 H 877.595 2.50995 3.13503 0
M  V30 5479 H 877.696 0.759148 2.80716 0
M  V30 5480 P 878.795 8.91 6.40081e-12 0
M  V30 5481 O 879.015 10.1726 0.733694 0
M  V30 5482 O 879.585 8.73148 -1.23936 0
M  V30 5483 O 879.045 7.66872 0.971405 0
M  V30 5484 C 878.105 7.42309 2.04641 0
M  V30 5485 C 878.835 6.86059 3.24661 0
M  V30 5486 O 879.045 5.42847 3.03646 0
M  V30 5487 C 880.235 7.41196 3.50753 0
M  V30 5488 O 880.625 7.27073 4.86816 0
M  V30 5489 C 881.115 6.5273 2.63741 0
M  V30 5490 C 880.405 5.1842 2.73198 0
M  V30 5491 N 880.455 4.38762 1.4784 0
M  V30 5492 C 880.375 4.81605 0.168631 0
M  V30 5493 N 880.455 3.85454 -0.713363 0
M  V30 5494 C 880.595 2.6994 0.0566958 0
M  V30 5495 C 880.725 1.34815 -0.338502 0
M  V30 5496 O 880.745 0.869548 -1.47125 0
M  V30 5497 N 880.845 0.496304 0.77465 0
M  V30 5498 C 880.845 0.908403 2.09122 0
M  V30 5499 N 880.975 -0.0517805 3.00955 0
M  V30 5500 N 880.715 2.17875 2.46519 0
M  V30 5501 C 880.595 3.01988 1.4033 0
M  V30 5502 H 877.616 8.36803 2.32493 0
M  V30 5503 H 877.346 6.70197 1.71129 0
M  V30 5504 H 878.213 7.03551 4.13168 0
M  V30 5505 H 880.868 4.59498 3.54415 0
M  V30 5506 H 881.147 6.88898 1.59848 0
M  V30 5507 H 882.139 6.46749 3.03687 0
M  V30 5508 H 880.305 8.46908 3.20714 0
M  V30 5509 H 880.256 5.86405 -0.105564 0
M  V30 5510 H 880.938 -0.483664 0.597855 0
M  V30 5511 H 880.975 0.187865 4.0116 0
M  V30 5512 H 881.076 -1.03585 2.71726 0
M  V30 5513 P 882.175 7.20834 5.23717 0
M  V30 5514 O 882.395 7.79853 6.57286 0
M  V30 5515 O 882.965 7.79239 4.12957 0
M  V30 5516 O 882.425 5.63315 5.29344 0
M  V30 5517 C 881.485 4.80255 6.01876 0
M  V30 5518 C 882.215 3.64202 6.65911 0
M  V30 5519 O 882.425 2.60694 5.64732 0
M  V30 5520 C 883.615 3.93473 7.1943 0
M  V30 5521 O 884.005 3.02071 8.21205 0
M  V30 5522 C 884.495 3.73047 5.97036 0
M  V30 5523 C 883.785 2.58828 5.25741 0
M  V30 5524 N 883.835 2.68068 3.77503 0
M  V30 5525 H 880.996 5.40332 6.79951 0
M  V30 5526 H 880.726 4.41613 5.32378 0
M  V30 5527 H 881.593 3.26331 7.47797 0
M  V30 5528 P 885.555 2.75334 8.47391 0
M  V30 5529 O 885.775 2.44571 9.90142 0
M  V30 5530 O 886.345 3.87688 7.92115 0
M  V30 5531 O 885.805 1.4459 7.59357 0
M  V30 5532 C 884.865 0.347608 7.69215 0
M  V30 5533 C 885.595 -0.96767 7.52806 0
M  V30 5534 O 885.805 -1.21036 6.1011 0
M  V30 5535 C 886.995 -1.04544 8.13308 0
M  V30 5536 O 887.385 -2.38311 8.41922 0
M  V30 5537 C 887.875 -0.491279 7.02284 0
M  V30 5538 C 887.165 -0.996264 5.77469 0
M  V30 5539 N 887.215 -0.0501916 4.62973 0
M  V30 5540 H 884.376 0.374722 8.67691 0
M  V30 5541 H 884.106 0.443485 6.90277 0
M  V30 5542 H 884.973 -1.75537 7.96793 0
M  V30 5543 P 888.935 -2.75334 8.47391 0
M  V30 5544 O 889.155 -3.84128 9.44797 0
M  V30 5545 O 889.725 -1.51947 8.68712 0
M  V30 5546 O 889.185 -3.29363 6.99321 0
M  V30 5547 C 888.245 -4.24011 6.4274 0
M  V30 5548 C 888.975 -5.20775 5.52155 0
M  V30 5549 O 889.185 -4.56534 4.22446 0
M  V30 5550 C 890.375 -5.62629 5.96531 0
M  V30 5551 O 890.765 -6.87667 5.41053 0
M  V30 5552 C 891.255 -4.52537 5.39283 0
M  V30 5553 C 890.545 -4.20027 4.08623 0
M  V30 5554 N 890.595 -2.76189 3.71603 0
M  V30 5555 C 890.515 -1.64862 4.52822 0
M  V30 5556 N 890.595 -0.512671 3.88633 0
M  V30 5557 C 890.735 -0.888083 2.54977 0
M  V30 5558 C 890.865 -0.094668 1.38677 0
M  V30 5559 N 890.985 -0.890102 0.232633 0
M  V30 5560 C 890.985 -2.26958 0.21772 0
M  V30 5561 N 891.115 -2.84626 -0.97925 0
M  V30 5562 N 890.855 -3.0178 1.31033 0
M  V30 5563 C 890.735 -2.26781 2.43843 0
M  V30 5564 H 887.756 -4.797 7.24003 0
M  V30 5565 H 887.486 -3.69856 5.84513 0
M  V30 5566 H 888.353 -6.10356 5.41441 0
M  V30 5567 P 892.315 -7.20834 5.23717 0
M  V30 5568 O 892.535 -8.66104 5.38572 0
M  V30 5569 O 893.105 -6.33544 6.1349 0
M  V30 5570 O 892.565 -6.7751 3.72168 0
M  V30 5571 C 891.625 -7.20825 2.7076 0
M  V30 5572 C 892.355 -7.45864 1.40599 0
M  V30 5573 O 892.565 -6.17651 0.734225 0
M  V30 5574 C 893.755 -8.05808 1.51899 0
M  V30 5575 O 894.145 -8.74358 0.335205 0
M  V30 5576 C 894.635 -6.83093 1.70294 0
M  V30 5577 C 893.925 -5.79992 0.836974 0
M  V30 5578 N 893.975 -4.41864 1.38293 0
M  V30 5579 C 893.895 -3.99538 2.69438 0
M  V30 5580 N 893.975 -2.69909 2.84277 0
M  V30 5581 C 894.115 -2.21719 1.5408 0
M  V30 5582 C 894.245 -0.891712 1.06628 0
M  V30 5583 N 894.365 -0.856846 -0.334985 0
M  V30 5584 C 894.365 -1.9641 -1.15789 0
M  V30 5585 N 894.495 -1.72708 -2.46522 0
M  V30 5586 N 894.235 -3.21165 -0.713741 0
M  V30 5587 C 894.115 -3.26797 0.639748 0
M  V30 5588 H 891.136 -8.13644 3.0377 0
M  V30 5589 H 890.866 -6.42788 2.55485 0
M  V30 5590 H 891.733 -8.12039 0.792769 0
M  V30 5591 P 895.695 -8.91 -6.558e-12 0
M  V30 5592 O 895.915 -10.1726 -0.733694 0
M  V30 5593 O 896.485 -8.73148 1.23936 0
M  V30 5594 O 895.945 -7.66872 -0.971405 0
M  V30 5595 C 895.005 -7.42309 -2.04641 0
M  V30 5596 C 895.735 -6.86059 -3.24661 0
M  V30 5597 O 895.945 -5.42847 -3.03646 0
M  V30 5598 C 897.135 -7.41196 -3.50753 0
M  V30 5599 O 897.525 -7.27073 -4.86816 0
M  V30 5600 C 898.015 -6.5273 -2.63741 0
M  V30 5601 C 897.305 -5.1842 -2.73198 0
M  V30 5602 N 897.355 -4.38762 -1.4784 0
M  V30 5603 H 894.516 -8.36803 -2.32493 0
M  V30 5604 H 894.246 -6.70197 -1.71129 0
M  V30 5605 H 895.113 -7.03551 -4.13168 0
M  V30 5606 P 899.075 -7.20834 -5.23717 0
M  V30 5607 O 899.295 -7.80006 -6.57415 0
M  V30 5608 O 899.865 -7.79416 -4.13051 0
M  V30 5609 O 899.325 -5.63315 -5.29344 0
M  V30 5610 C 898.385 -4.80318 -6.01954 0
M  V30 5611 C 899.115 -3.64202 -6.65911 0
M  V30 5612 O 899.325 -2.60736 -5.64823 0
M  V30 5613 C 900.515 -3.93521 -7.19518 0
M  V30 5614 O 900.905 -3.02071 -8.21205 0
M  V30 5615 C 901.395 -3.73047 -5.97036 0
M  V30 5616 C 900.685 -2.58828 -5.25741 0
M  V30 5617 N 900.735 -2.68068 -3.77503 0
M  V30 5618 C 900.655 -3.80474 -2.99159 0
M  V30 5619 N 900.725 -3.55622 -1.71925 0
M  V30 5620 C 900.875 -2.1832 -1.65733 0
M  V30 5621 C 901.005 -1.28842 -0.572777 0
M  V30 5622 N 901.015 -1.66875 0.70098 0
M  V30 5623 N 901.125 0.016788 -0.859836 0
M  V30 5624 C 901.115 0.398145 -2.13316 0
M  V30 5625 N 900.995 -0.328224 -3.22333 0
M  V30 5626 C 900.875 -1.62992 -2.90383 0
M  V30 5627 H 897.897 -5.40394 -6.8003 0
M  V30 5628 H 897.625 -4.41741 -5.32532 0
M  V30 5629 H 898.493 -3.26371 -7.47889 0
M  V30 5630 H 901.148 -1.64007 -5.56746 0
M  V30 5631 H 901.428 -4.63439 -5.3432 0
M  V30 5632 H 902.419 -3.44776 -6.25925 0
M  V30 5633 H 900.585 -4.96707 -7.57347 0
M  V30 5634 H 900.544 -4.8089 -3.39924 0
M  V30 5635 H 900.925 -2.66547 0.941919 0
M  V30 5636 H 901.114 -0.965341 1.44766 0
M  V30 5637 H 901.222 1.46427 -2.29697 0
M  V30 5638 P 902.455 -2.75334 -8.47391 0
M  V30 5639 O 902.675 -2.44619 -9.90336 0
M  V30 5640 O 903.245 -3.87776 -7.92294 0
M  V30 5641 O 902.705 -1.4459 -7.59357 0
M  V30 5642 C 901.765 -0.347653 -7.69315 0
M  V30 5643 C 902.495 0.96767 -7.52806 0
M  V30 5644 O 902.705 1.21055 -6.10208 0
M  V30 5645 C 903.895 1.04557 -8.13408 0
M  V30 5646 O 904.285 2.38311 -8.41922 0
M  V30 5647 C 904.775 0.491279 -7.02284 0
M  V30 5648 C 904.065 0.996264 -5.77469 0
M  V30 5649 N 904.115 0.0501916 -4.62973 0
M  V30 5650 C 904.035 -1.31969 -4.65661 0
M  V30 5651 N 904.105 -1.86649 -3.48119 0
M  V30 5652 C 904.255 -0.792089 -2.62406 0
M  V30 5653 C 904.385 -0.705684 -1.2207 0
M  V30 5654 N 904.395 -1.76207 -0.413762 0
M  V30 5655 N 904.505 0.518981 -0.685754 0
M  V30 5656 C 904.495 1.57595 -1.49174 0
M  V30 5657 N 904.375 1.62909 -2.80066 0
M  V30 5658 C 904.255 0.388195 -3.3073 0
M  V30 5659 H 901.277 -0.374765 -8.67791 0
M  V30 5660 H 901.005 -0.443613 -6.90476 0
M  V30 5661 H 901.873 1.75559 -7.96891 0
M  V30 5662 H 904.528 1.94563 -5.46818 0
M  V30 5663 H 904.808 -0.608651 -7.04676 0
M  V30 5664 H 905.799 0.889796 -7.09039 0
M  V30 5665 H 903.965 0.433128 -9.04664 0
M  V30 5666 H 903.924 -1.89246 -5.57664 0
M  V30 5667 H 904.305 -2.71005 -0.804694 0
M  V30 5668 H 904.494 -1.63189 0.603768 0
M  V30 5669 H 904.602 2.53475 -0.997614 0
M  V30 5670 P 905.835 2.75334 -8.47391 0
M  V30 5671 O 906.055 3.84128 -9.44797 0
M  V30 5672 O 906.625 1.51947 -8.68712 0
M  V30 5673 O 906.085 3.29363 -6.99321 0
M  V30 5674 C 905.145 4.24011 -6.4274 0
M  V30 5675 C 905.875 5.20775 -5.52155 0
M  V30 5676 O 906.085 4.56534 -4.22446 0
M  V30 5677 C 907.275 5.62629 -5.96531 0
M  V30 5678 O 907.665 6.87667 -5.41053 0
M  V30 5679 C 908.155 4.52537 -5.39283 0
M  V30 5680 C 907.445 4.20027 -4.08623 0
M  V30 5681 N 907.495 2.76189 -3.71603 0
M  V30 5682 C 907.415 1.64862 -4.52822 0
M  V30 5683 N 907.495 0.512671 -3.88633 0
M  V30 5684 C 907.635 0.888083 -2.54977 0
M  V30 5685 C 907.765 0.094668 -1.38677 0
M  V30 5686 N 907.885 0.890102 -0.232633 0
M  V30 5687 C 907.885 2.26958 -0.21772 0
M  V30 5688 N 908.015 2.84626 0.97925 0
M  V30 5689 N 907.755 3.0178 -1.31033 0
M  V30 5690 C 907.635 2.26781 -2.43843 0
M  V30 5691 H 904.656 4.797 -7.24003 0
M  V30 5692 H 904.386 3.69856 -5.84513 0
M  V30 5693 H 905.253 6.10356 -5.41441 0
M  V30 5694 P 909.215 7.20834 -5.23717 0
M  V30 5695 O 909.435 8.66104 -5.38572 0
M  V30 5696 O 910.005 6.33544 -6.1349 0
M  V30 5697 O 909.465 6.7751 -3.72168 0
M  V30 5698 C 908.525 7.20825 -2.7076 0
M  V30 5699 C 909.255 7.45864 -1.40599 0
M  V30 5700 O 909.465 6.17651 -0.734225 0
M  V30 5701 C 910.655 8.05808 -1.51899 0
M  V30 5702 O 911.045 8.74358 -0.335205 0
M  V30 5703 C 911.535 6.83093 -1.70294 0
M  V30 5704 C 910.825 5.79992 -0.836974 0
M  V30 5705 N 910.875 4.41864 -1.38293 0
M  V30 5706 C 910.795 3.99538 -2.69438 0
M  V30 5707 N 910.875 2.69909 -2.84277 0
M  V30 5708 C 911.015 2.21719 -1.5408 0
M  V30 5709 C 911.145 0.891712 -1.06628 0
M  V30 5710 N 911.265 0.856846 0.334985 0
M  V30 5711 C 911.265 1.9641 1.15789 0
M  V30 5712 N 911.395 1.72708 2.46522 0
M  V30 5713 N 911.135 3.21165 0.713741 0
M  V30 5714 C 911.015 3.26797 -0.639748 0
M  V30 5715 H 908.036 8.13644 -3.0377 0
M  V30 5716 H 907.766 6.42788 -2.55485 0
M  V30 5717 H 908.633 8.12039 -0.792769 0
M  V30 5718 P 912.595 8.91 6.71518e-12 0
M  V30 5719 O 912.815 10.1726 0.733694 0
M  V30 5720 O 913.385 8.73148 -1.23936 0
M  V30 5721 O 912.845 7.66872 0.971405 0
M  V30 5722 C 911.905 7.42309 2.04641 0
M  V30 5723 C 912.635 6.86059 3.24661 0
M  V30 5724 O 912.845 5.42847 3.03646 0
M  V30 5725 C 914.035 7.41196 3.50753 0
M  V30 5726 O 914.425 7.27073 4.86816 0
M  V30 5727 C 914.915 6.5273 2.63741 0
M  V30 5728 C 914.205 5.1842 2.73198 0
M  V30 5729 N 914.255 4.38762 1.4784 0
M  V30 5730 H 911.416 8.36803 2.32493 0
M  V30 5731 H 911.146 6.70197 1.71129 0
M  V30 5732 H 912.013 7.03551 4.13168 0
M  V30 5733 P 915.975 7.20834 5.23717 0
M  V30 5734 O 916.195 7.79853 6.57286 0
M  V30 5735 O 916.765 7.79239 4.12957 0
M  V30 5736 O 916.225 5.63315 5.29344 0
M  V30 5737 C 915.285 4.80255 6.01876 0
M  V30 5738 C 916.015 3.64202 6.65911 0
M  V30 5739 O 916.225 2.60694 5.64732 0
M  V30 5740 C 917.415 3.93473 7.1943 0
M  V30 5741 O 917.805 3.02071 8.21205 0
M  V30 5742 C 918.295 3.73047 5.97036 0
M  V30 5743 C 917.585 2.58828 5.25741 0
M  V30 5744 N 917.635 2.68068 3.77503 0
M  V30 5745 C 917.555 3.79715 2.96723 0
M  V30 5746 N 917.635 3.5377 1.68852 0
M  V30 5747 C 917.775 2.15054 1.63254 0
M  V30 5748 C 917.905 1.28964 0.518571 0
M  V30 5749 O 917.925 1.56826 -0.679156 0
M  V30 5750 N 918.025 -0.0538097 0.918425 0
M  V30 5751 C 918.025 -0.494275 2.22578 0
M  V30 5752 N 918.155 -1.81086 2.40434 0
M  V30 5753 N 917.895 0.313645 3.27502 0
M  V30 5754 C 917.775 1.61829 2.91033 0
M  V30 5755 H 914.796 5.40332 6.79951 0
M  V30 5756 H 914.526 4.41613 5.32378 0
M  V30 5757 H 915.393 3.26331 7.47797 0
M  V30 5758 H 918.048 1.63422 5.56814 0
M  V30 5759 H 918.327 4.63374 5.34244 0
M  V30 5760 H 919.319 3.44728 6.25838 0
M  V30 5761 H 917.485 4.96652 7.57263 0
M  V30 5762 H 917.436 4.80617 3.3614 0
M  V30 5763 H 918.118 -0.742702 0.199384 0
M  V30 5764 H 918.155 -2.20598 3.35588 0
M  V30 5765 H 918.256 -2.43518 1.58945 0
M  V30 5766 P 919.355 2.75334 8.47391 0
M  V30 5767 O 919.575 2.44571 9.90142 0
M  V30 5768 O 920.145 3.87688 7.92115 0
M  V30 5769 O 919.605 1.4459 7.59357 0
M  V30 5770 C 918.665 0.347608 7.69215 0
M  V30 5771 C 919.395 -0.96767 7.52806 0
M  V30 5772 O 919.605 -1.21036 6.1011 0
M  V30 5773 C 920.795 -1.04544 8.13308 0
M  V30 5774 O 921.185 -2.38311 8.41922 0
M  V30 5775 C 921.675 -0.491279 7.02284 0
M  V30 5776 C 920.965 -0.996264 5.77469 0
M  V30 5777 N 921.015 -0.0501916 4.62973 0
M  V30 5778 H 918.176 0.374722 8.67691 0
M  V30 5779 H 917.906 0.443485 6.90277 0
M  V30 5780 H 918.773 -1.75537 7.96793 0
M  V30 5781 P 922.735 -2.75334 8.47391 0
M  V30 5782 O 922.955 -3.84128 9.44797 0
M  V30 5783 O 923.525 -1.51947 8.68712 0
M  V30 5784 O 922.985 -3.29363 6.99321 0
M  V30 5785 C 922.045 -4.24011 6.4274 0
M  V30 5786 C 922.775 -5.20775 5.52155 0
M  V30 5787 O 922.985 -4.56534 4.22446 0
M  V30 5788 C 924.175 -5.62629 5.96531 0
M  V30 5789 O 924.565 -6.87667 5.41053 0
M  V30 5790 C 925.055 -4.52537 5.39283 0
M  V30 5791 C 924.345 -4.20027 4.08623 0
M  V30 5792 N 924.395 -2.76189 3.71603 0
M  V30 5793 H 921.556 -4.797 7.24003 0
M  V30 5794 H 921.286 -3.69856 5.84513 0
M  V30 5795 H 922.153 -6.10356 5.41441 0
M  V30 5796 P 926.115 -7.20834 5.23717 0
M  V30 5797 O 926.335 -8.66104 5.38572 0
M  V30 5798 O 926.905 -6.33544 6.1349 0
M  V30 5799 O 926.365 -6.7751 3.72168 0
M  V30 5800 C 925.425 -7.20825 2.7076 0
M  V30 5801 C 926.155 -7.45864 1.40599 0
M  V30 5802 O 926.365 -6.17651 0.734225 0
M  V30 5803 C 927.555 -8.05808 1.51899 0
M  V30 5804 O 927.945 -8.74358 0.335205 0
M  V30 5805 C 928.435 -6.83093 1.70294 0
M  V30 5806 C 927.725 -5.79992 0.836974 0
M  V30 5807 N 927.775 -4.41864 1.38293 0
M  V30 5808 H 924.936 -8.13644 3.0377 0
M  V30 5809 H 924.666 -6.42788 2.55485 0
M  V30 5810 H 925.533 -8.12039 0.792769 0
M  V30 5811 P 929.495 -8.91 -6.87236e-12 0
M  V30 5812 O 929.715 -10.1746 -0.733838 0
M  V30 5813 O 930.285 -8.73346 1.23964 0
M  V30 5814 O 929.745 -7.66872 -0.971405 0
M  V30 5815 C 928.805 -7.42405 -2.04668 0
M  V30 5816 C 929.535 -6.86059 -3.24661 0
M  V30 5817 O 929.745 -5.42934 -3.03695 0
M  V30 5818 C 930.935 -7.41287 -3.50796 0
M  V30 5819 O 931.325 -7.27073 -4.86816 0
M  V30 5820 C 931.815 -6.5273 -2.63741 0
M  V30 5821 C 931.105 -5.1842 -2.73198 0
M  V30 5822 N 931.155 -4.38762 -1.4784 0
M  V30 5823 H 928.317 -8.36899 -2.3252 0
M  V30 5824 H 928.045 -6.70391 -1.71179 0
M  V30 5825 H 928.913 -7.03638 -4.13219 0
M  V30 5826 H 931.568 -4.59931 -3.54016 0
M  V30 5827 H 931.848 -6.88995 -1.59871 0
M  V30 5828 H 932.839 -6.4684 -3.0373 0
M  V30 5829 H 931.005 -8.47002 -3.20749 0
M  V30 5830 P 932.874 -7.20834 -5.23717 0
M  V30 5831 O 933.094 -7.79853 -6.57286 0
M  V30 5832 O 933.664 -7.79239 -4.12957 0
M  V30 5833 O 933.124 -5.63315 -5.29344 0
M  V30 5834 C 932.184 -4.80255 -6.01876 0
M  V30 5835 C 932.914 -3.64202 -6.65911 0
M  V30 5836 O 933.124 -2.60694 -5.64732 0
M  V30 5837 C 934.314 -3.93473 -7.1943 0
M  V30 5838 O 934.704 -3.02071 -8.21205 0
M  V30 5839 C 935.194 -3.73047 -5.97036 0
M  V30 5840 C 934.484 -2.58828 -5.25741 0
M  V30 5841 N 934.534 -2.68068 -3.77503 0
M  V30 5842 H 931.695 -5.40332 -6.79951 0
M  V30 5843 H 931.425 -4.41613 -5.32378 0
M  V30 5844 H 932.292 -3.26331 -7.47797 0
M  V30 5845 P 936.254 -2.75334 -8.47391 0
M  V30 5846 O 936.474 -2.44619 -9.90336 0
M  V30 5847 O 937.044 -3.87776 -7.92294 0
M  V30 5848 O 936.504 -1.4459 -7.59357 0
M  V30 5849 C 935.564 -0.347653 -7.69315 0
M  V30 5850 C 936.294 0.96767 -7.52806 0
M  V30 5851 O 936.504 1.21055 -6.10208 0
M  V30 5852 C 937.694 1.04557 -8.13408 0
M  V30 5853 O 938.084 2.38311 -8.41922 0
M  V30 5854 C 938.574 0.491279 -7.02284 0
M  V30 5855 C 937.864 0.996264 -5.77469 0
M  V30 5856 N 937.914 0.0501916 -4.62973 0
M  V30 5857 H 935.076 -0.374765 -8.67791 0
M  V30 5858 H 934.804 -0.443613 -6.90476 0
M  V30 5859 H 935.672 1.75559 -7.96891 0
M  V30 5860 H 938.327 1.94563 -5.46818 0
M  V30 5861 H 938.607 -0.608651 -7.04676 0
M  V30 5862 H 939.598 0.889796 -7.09039 0
M  V30 5863 H 937.764 0.433128 -9.04664 0
M  V30 5864 P 939.634 2.75334 -8.47391 0
M  V30 5865 O 939.854 3.84128 -9.44797 0
M  V30 5866 O 940.424 1.51947 -8.68712 0
M  V30 5867 O 939.884 3.29363 -6.99321 0
M  V30 5868 C 938.944 4.24011 -6.4274 0
M  V30 5869 C 939.674 5.20775 -5.52155 0
M  V30 5870 O 939.884 4.56534 -4.22446 0
M  V30 5871 C 941.074 5.62629 -5.96531 0
M  V30 5872 O 941.464 6.87667 -5.41053 0
M  V30 5873 C 941.954 4.52537 -5.39283 0
M  V30 5874 C 941.244 4.20027 -4.08623 0
M  V30 5875 N 941.294 2.76189 -3.71603 0
M  V30 5876 C 941.214 1.64862 -4.52822 0
M  V30 5877 N 941.294 0.512671 -3.88633 0
M  V30 5878 C 941.434 0.888083 -2.54977 0
M  V30 5879 C 941.564 0.094668 -1.38677 0
M  V30 5880 O 941.584 -1.13053 -1.28163 0
M  V30 5881 N 941.684 0.890102 -0.232633 0
M  V30 5882 C 941.684 2.26958 -0.21772 0
M  V30 5883 N 941.814 2.84626 0.97925 0
M  V30 5884 N 941.554 3.0178 -1.31033 0
M  V30 5885 C 941.434 2.26781 -2.43843 0
M  V30 5886 H 938.455 4.797 -7.24003 0
M  V30 5887 H 938.185 3.69856 -5.84513 0
M  V30 5888 H 939.052 6.10356 -5.41441 0
M  V30 5889 H 941.707 4.79061 -3.27488 0
M  V30 5890 H 941.986 3.64906 -6.05785 0
M  V30 5891 H 942.978 4.8868 -5.2125 0
M  V30 5892 H 941.144 5.66726 -7.06352 0
M  V30 5893 H 941.095 1.71169 -5.60966 0
M  V30 5894 H 941.777 0.419134 0.644739 0
M  V30 5895 H 941.814 3.87332 1.06098 0
M  V30 5896 H 941.915 2.26417 1.82483 0
M  V30 5897 P 943.014 7.20834 -5.23717 0
M  V30 5898 O 943.234 8.66189 -5.38625 0
M  V30 5899 O 943.804 6.33615 -6.1356 0
M  V30 5900 O 943.264 6.7751 -3.72168 0
M  V30 5901 C 942.324 7.20732 -2.70725 0
M  V30 5902 C 943.054 7.45864 -1.40599 0
M  V30 5903 O 943.264 6.17651 -0.734225 0
M  V30 5904 C 944.454 8.05808 -1.51899 0
M  V30 5905 O 944.844 8.74358 -0.335205 0
M  V30 5906 C 945.334 6.83093 -1.70294 0
M  V30 5907 C 944.624 5.79992 -0.836974 0
M  V30 5908 N 944.674 4.41769 -1.38263 0
M  V30 5909 C 944.824 3.38591 -0.481702 0
M  V30 5910 O 944.914 3.56839 0.718452 0
M  V30 5911 N 944.864 2.1206 -1.03569 0
M  V30 5912 C 944.774 1.80696 -2.36966 0
M  V30 5913 O 944.824 0.630473 -2.74862 0
M  V30 5914 C 944.624 2.94845 -3.23898 0
M  V30 5915 C 944.514 2.65253 -4.70362 0
M  V30 5916 C 944.574 4.19803 -2.73435 0
M  V30 5917 H 941.834 8.13644 -3.0377 0
M  V30 5918 H 941.565 6.42695 -2.55448 0
M  V30 5919 H 942.432 8.12039 -0.792769 0
M  V30 5920 H 945.087 5.79978 0.160587 0
M  V30 5921 H 945.366 6.51379 -2.75643 0
M  V30 5922 H 946.358 7.01734 -1.34462 0
M  V30 5923 H 944.524 8.73674 -2.38337 0
M  V30 5924 H 944.453 5.04492 -3.4095 0
M  V30 5925 H 945.483 2.83924 -5.1913 0
M  V30 5926 H 943.746 3.29824 -5.15163 0
M  V30 5927 H 944.234 1.59723 -4.84449 0
M  V30 5928 H 944.97 1.35644 -0.399345 0
M  V30 5929 P 946.394 8.91 7.02954e-12 0
M  V30 5930 O 946.614 10.1746 0.733838 0
M  V30 5931 O 947.184 8.73346 -1.23964 0
M  V30 5932 O 946.644 7.66872 0.971405 0
M  V30 5933 C 945.704 7.42405 2.04668 0
M  V30 5934 C 946.434 6.86059 3.24661 0
M  V30 5935 O 946.644 5.42934 3.03695 0
M  V30 5936 C 947.834 7.41287 3.50796 0
M  V30 5937 O 948.224 7.27073 4.86816 0
M  V30 5938 C 948.714 6.5273 2.63741 0
M  V30 5939 C 948.004 5.1842 2.73198 0
M  V30 5940 N 948.054 4.38762 1.4784 0
M  V30 5941 H 945.216 8.36899 2.3252 0
M  V30 5942 H 944.944 6.70391 1.71179 0
M  V30 5943 H 945.812 7.03638 4.13219 0
M  V30 5944 H 948.467 4.59931 3.54016 0
M  V30 5945 H 948.747 6.88995 1.59871 0
M  V30 5946 H 949.738 6.4684 3.0373 0
M  V30 5947 H 947.904 8.47002 3.20749 0
M  V30 5948 P 949.774 7.20834 5.23717 0
M  V30 5949 O 949.994 7.80006 6.57415 0
M  V30 5950 O 950.564 7.79416 4.13051 0
M  V30 5951 O 950.024 5.63315 5.29344 0
M  V30 5952 C 949.084 4.80318 6.01954 0
M  V30 5953 C 949.814 3.64202 6.65911 0
M  V30 5954 O 950.024 2.60736 5.64823 0
M  V30 5955 C 951.214 3.93521 7.19518 0
M  V30 5956 O 951.604 3.02071 8.21205 0
M  V30 5957 C 952.094 3.73047 5.97036 0
M  V30 5958 C 951.384 2.58828 5.25741 0
M  V30 5959 N 951.434 2.68068 3.77503 0
M  V30 5960 C 951.354 3.80474 2.99159 0
M  V30 5961 N 951.424 3.55622 1.71925 0
M  V30 5962 C 951.574 2.1832 1.65733 0
M  V30 5963 C 951.704 1.28842 0.572777 0
M  V30 5964 N 951.714 1.66875 -0.70098 0
M  V30 5965 N 951.824 -0.016788 0.859836 0
M  V30 5966 C 951.814 -0.398145 2.13316 0
M  V30 5967 N 951.694 0.328224 3.22333 0
M  V30 5968 C 951.574 1.62992 2.90383 0
M  V30 5969 H 948.596 5.40394 6.8003 0
M  V30 5970 H 948.324 4.41741 5.32532 0
M  V30 5971 H 949.192 3.26371 7.47889 0
M  V30 5972 H 951.847 1.64007 5.56746 0
M  V30 5973 H 952.127 4.63439 5.3432 0
M  V30 5974 H 953.118 3.44776 6.25925 0
M  V30 5975 H 951.284 4.96707 7.57347 0
M  V30 5976 H 951.243 4.8089 3.39924 0
M  V30 5977 H 951.624 2.66547 -0.941919 0
M  V30 5978 H 951.813 0.965341 -1.44766 0
M  V30 5979 H 951.921 -1.46427 2.29697 0
M  V30 5980 P 953.154 2.75334 8.47391 0
M  V30 5981 O 953.374 2.44571 9.90142 0
M  V30 5982 O 953.944 3.87688 7.92115 0
M  V30 5983 O 953.404 1.4459 7.59357 0
M  V30 5984 C 952.464 0.347608 7.69215 0
M  V30 5985 C 953.194 -0.96767 7.52806 0
M  V30 5986 O 953.404 -1.21036 6.1011 0
M  V30 5987 C 954.594 -1.04544 8.13308 0
M  V30 5988 O 954.984 -2.38311 8.41922 0
M  V30 5989 C 955.474 -0.491279 7.02284 0
M  V30 5990 C 954.764 -0.996264 5.77469 0
M  V30 5991 N 954.814 -0.0501916 4.62973 0
M  V30 5992 H 951.975 0.374722 8.67691 0
M  V30 5993 H 951.705 0.443485 6.90277 0
M  V30 5994 H 952.572 -1.75537 7.96793 0
M  V30 5995 P 956.534 -2.75334 8.47391 0
M  V30 5996 O 956.754 -3.84128 9.44797 0
M  V30 5997 O 957.324 -1.51947 8.68712 0
M  V30 5998 O 956.784 -3.29363 6.99321 0
M  V30 5999 C 955.844 -4.24011 6.4274 0
M  V30 6000 C 956.574 -5.20775 5.52155 0
M  V30 6001 O 956.784 -4.56534 4.22446 0
M  V30 6002 C 957.974 -5.62629 5.96531 0
M  V30 6003 O 958.364 -6.87667 5.41053 0
M  V30 6004 C 958.854 -4.52537 5.39283 0
M  V30 6005 C 958.144 -4.20027 4.08623 0
M  V30 6006 N 958.194 -2.76189 3.71603 0
M  V30 6007 H 955.355 -4.797 7.24003 0
M  V30 6008 H 955.085 -3.69856 5.84513 0
M  V30 6009 H 955.952 -6.10356 5.41441 0
M  V30 6010 P 959.914 -7.20834 5.23717 0
M  V30 6011 O 960.134 -8.66274 5.38678 0
M  V30 6012 O 960.704 -6.33687 6.13629 0
M  V30 6013 O 960.164 -6.7751 3.72168 0
M  V30 6014 C 959.224 -7.20919 2.70795 0
M  V30 6015 C 959.954 -7.45864 1.40599 0
M  V30 6016 O 960.164 -6.17751 0.734343 0
M  V30 6017 C 961.354 -8.05906 1.51917 0
M  V30 6018 O 961.744 -8.74358 0.335205 0
M  V30 6019 C 962.234 -6.83093 1.70294 0
M  V30 6020 C 961.524 -5.79992 0.836974 0
M  V30 6021 N 961.574 -4.41864 1.38293 0
M  V30 6022 C 961.494 -4.02089 2.69407 0
M  V30 6023 N 961.564 -2.73403 2.85089 0
M  V30 6024 C 961.714 -2.25086 1.5642 0
M  V30 6025 C 961.844 -0.942887 1.04836 0
M  V30 6026 N 961.854 0.150999 1.80369 0
M  V30 6027 N 961.964 -0.812565 -0.28167 0
M  V30 6028 C 961.954 -1.90572 -1.03784 0
M  V30 6029 N 961.834 -3.167 -0.683905 0
M  V30 6030 C 961.714 -3.26538 0.652815 0
M  V30 6031 H 958.736 -8.13738 3.03804 0
M  V30 6032 H 958.464 -6.42974 2.55559 0
M  V30 6033 H 959.332 -8.12139 0.792866 0
M  V30 6034 H 961.987 -5.80178 -0.160643 0
M  V30 6035 H 962.267 -6.51379 2.75643 0
M  V30 6036 H 963.258 -7.01832 1.3448 0
M  V30 6037 H 961.424 -8.73771 2.38364 0
M  V30 6038 H 961.383 -4.7189 3.52311 0
M  V30 6039 H 961.764 0.0721434 2.82608 0
M  V30 6040 H 961.953 1.0785 1.36544 0
M  V30 6041 H 962.061 -1.73207 -2.10241 0
M  V30 6042 P 963.294 -8.91 -7.18673e-12 0
M  V30 6043 O 963.514 -10.1726 -0.733694 0
M  V30 6044 O 964.084 -8.73148 1.23936 0
M  V30 6045 O 963.544 -7.66872 -0.971405 0
M  V30 6046 C 962.604 -7.42309 -2.04641 0
M  V30 6047 C 963.334 -6.86059 -3.24661 0
M  V30 6048 O 963.544 -5.42847 -3.03646 0
M  V30 6049 C 964.734 -7.41196 -3.50753 0
M  V30 6050 O 965.124 -7.27073 -4.86816 0
M  V30 6051 C 965.614 -6.5273 -2.63741 0
M  V30 6052 C 964.904 -5.1842 -2.73198 0
M  V30 6053 N 964.954 -4.38762 -1.4784 0
M  V30 6054 H 962.115 -8.36803 -2.32493 0
M  V30 6055 H 961.845 -6.70197 -1.71129 0
M  V30 6056 H 962.712 -7.03551 -4.13168 0
M  V30 6057 P 966.674 -7.20834 -5.23717 0
M  V30 6058 O 966.894 -7.79853 -6.57286 0
M  V30 6059 O 967.464 -7.79239 -4.12957 0
M  V30 6060 O 966.924 -5.63315 -5.29344 0
M  V30 6061 C 965.984 -4.80255 -6.01876 0
M  V30 6062 C 966.714 -3.64202 -6.65911 0
M  V30 6063 O 966.924 -2.60694 -5.64732 0
M  V30 6064 C 968.114 -3.93473 -7.1943 0
M  V30 6065 O 968.504 -3.02071 -8.21205 0
M  V30 6066 C 968.994 -3.73047 -5.97036 0
M  V30 6067 C 968.284 -2.58828 -5.25741 0
M  V30 6068 N 968.334 -2.68068 -3.77503 0
M  V30 6069 C 968.254 -3.79715 -2.96723 0
M  V30 6070 N 968.334 -3.5377 -1.68852 0
M  V30 6071 C 968.474 -2.15054 -1.63254 0
M  V30 6072 C 968.604 -1.28964 -0.518571 0
M  V30 6073 N 968.724 0.0538097 -0.918425 0
M  V30 6074 C 968.724 0.494275 -2.22578 0
M  V30 6075 N 968.854 1.81086 -2.40434 0
M  V30 6076 N 968.594 -0.313645 -3.27502 0
M  V30 6077 C 968.474 -1.61829 -2.91033 0
M  V30 6078 H 965.495 -5.40332 -6.79951 0
M  V30 6079 H 965.225 -4.41613 -5.32378 0
M  V30 6080 H 966.092 -3.26331 -7.47797 0
M  V30 6081 P 970.054 -2.75334 -8.47391 0
M  V30 6082 O 970.274 -2.44571 -9.90142 0
M  V30 6083 O 970.844 -3.87688 -7.92115 0
M  V30 6084 O 970.304 -1.4459 -7.59357 0
M  V30 6085 C 969.364 -0.347608 -7.69215 0
M  V30 6086 C 970.094 0.96767 -7.52806 0
M  V30 6087 O 970.304 1.21036 -6.1011 0
M  V30 6088 C 971.494 1.04544 -8.13308 0
M  V30 6089 O 971.884 2.38311 -8.41922 0
M  V30 6090 C 972.374 0.491279 -7.02284 0
M  V30 6091 C 971.664 0.996264 -5.77469 0
M  V30 6092 N 971.714 0.0501916 -4.62973 0
M  V30 6093 H 968.875 -0.374722 -8.67691 0
M  V30 6094 H 968.605 -0.443485 -6.90277 0
M  V30 6095 H 969.472 1.75537 -7.96793 0
M  V30 6096 P 973.434 2.75334 -8.47391 0
M  V30 6097 O 973.654 3.84128 -9.44797 0
M  V30 6098 O 974.224 1.51947 -8.68712 0
M  V30 6099 O 973.684 3.29363 -6.99321 0
M  V30 6100 C 972.744 4.24011 -6.4274 0
M  V30 6101 C 973.474 5.20775 -5.52155 0
M  V30 6102 O 973.684 4.56534 -4.22446 0
M  V30 6103 C 974.874 5.62629 -5.96531 0
M  V30 6104 O 975.264 6.87667 -5.41053 0
M  V30 6105 C 975.754 4.52537 -5.39283 0
M  V30 6106 C 975.044 4.20027 -4.08623 0
M  V30 6107 N 975.094 2.76189 -3.71603 0
M  V30 6108 H 972.255 4.797 -7.24003 0
M  V30 6109 H 971.985 3.69856 -5.84513 0
M  V30 6110 H 972.852 6.10356 -5.41441 0
M  V30 6111 P 976.814 7.20834 -5.23717 0
M  V30 6112 O 977.034 8.66104 -5.38572 0
M  V30 6113 O 977.604 6.33544 -6.1349 0
M  V30 6114 O 977.064 6.7751 -3.72168 0
M  V30 6115 C 976.124 7.20825 -2.7076 0
M  V30 6116 C 976.854 7.45864 -1.40599 0
M  V30 6117 O 977.064 6.17651 -0.734225 0
M  V30 6118 C 978.254 8.05808 -1.51899 0
M  V30 6119 O 978.644 8.74358 -0.335205 0
M  V30 6120 C 979.134 6.83093 -1.70294 0
M  V30 6121 C 978.424 5.79992 -0.836974 0
M  V30 6122 N 978.474 4.41864 -1.38293 0
M  V30 6123 H 975.635 8.13644 -3.0377 0
M  V30 6124 H 975.365 6.42788 -2.55485 0
M  V30 6125 H 976.232 8.12039 -0.792769 0
M  V30 6126 P 980.194 8.91 7.34391e-12 0
M  V30 6127 O 980.414 10.1726 0.733694 0
M  V30 6128 O 980.984 8.73148 -1.23936 0
M  V30 6129 O 980.444 7.66872 0.971405 0
M  V30 6130 C 979.504 7.42309 2.04641 0
M  V30 6131 C 980.234 6.86059 3.24661 0
M  V30 6132 O 980.444 5.42847 3.03646 0
M  V30 6133 C 981.634 7.41196 3.50753 0
M  V30 6134 O 982.024 7.27073 4.86816 0
M  V30 6135 C 982.514 6.5273 2.63741 0
M  V30 6136 C 981.804 5.1842 2.73198 0
M  V30 6137 N 981.854 4.38762 1.4784 0
M  V30 6138 C 981.774 4.81605 0.168631 0
M  V30 6139 N 981.854 3.85454 -0.713363 0
M  V30 6140 C 981.994 2.6994 0.0566958 0
M  V30 6141 C 982.124 1.34815 -0.338502 0
M  V30 6142 N 982.244 0.496304 0.77465 0
M  V30 6143 C 982.244 0.908403 2.09122 0
M  V30 6144 N 982.374 -0.0517805 3.00955 0
M  V30 6145 N 982.114 2.17875 2.46519 0
M  V30 6146 C 981.994 3.01988 1.4033 0
M  V30 6147 H 979.015 8.36803 2.32493 0
M  V30 6148 H 978.745 6.70197 1.71129 0
M  V30 6149 H 979.612 7.03551 4.13168 0
M  V30 6150 P 983.574 7.20834 5.23717 0
M  V30 6151 O 983.794 7.79853 6.57286 0
M  V30 6152 O 984.364 7.79239 4.12957 0
M  V30 6153 O 983.824 5.63315 5.29344 0
M  V30 6154 C 982.884 4.80255 6.01876 0
M  V30 6155 C 983.614 3.64202 6.65911 0
M  V30 6156 O 983.824 2.60694 5.64732 0
M  V30 6157 C 985.014 3.93473 7.1943 0
M  V30 6158 O 985.404 3.02071 8.21205 0
M  V30 6159 C 985.894 3.73047 5.97036 0
M  V30 6160 C 985.184 2.58828 5.25741 0
M  V30 6161 N 985.234 2.68068 3.77503 0
M  V30 6162 H 982.395 5.40332 6.79951 0
M  V30 6163 H 982.125 4.41613 5.32378 0
M  V30 6164 H 982.992 3.26331 7.47797 0
M  V30 6165 P 986.954 2.75334 8.47391 0
M  V30 6166 O 987.174 2.44619 9.90336 0
M  V30 6167 O 987.744 3.87776 7.92294 0
M  V30 6168 O 987.204 1.4459 7.59357 0
M  V30 6169 C 986.264 0.347653 7.69315 0
M  V30 6170 C 986.994 -0.96767 7.52806 0
M  V30 6171 O 987.204 -1.21055 6.10208 0
M  V30 6172 C 988.394 -1.04557 8.13408 0
M  V30 6173 O 988.784 -2.38311 8.41922 0
M  V30 6174 C 989.274 -0.491279 7.02284 0
M  V30 6175 C 988.564 -0.996264 5.77469 0
M  V30 6176 N 988.614 -0.0501916 4.62973 0
M  V30 6177 H 985.776 0.374765 8.67791 0
M  V30 6178 H 985.504 0.443613 6.90476 0
M  V30 6179 H 986.372 -1.75559 7.96891 0
M  V30 6180 H 989.027 -1.94563 5.46818 0
M  V30 6181 H 989.307 0.608651 7.04676 0
M  V30 6182 H 990.298 -0.889796 7.09039 0
M  V30 6183 H 988.464 -0.433128 9.04664 0
M  V30 6184 P 990.334 -2.75334 8.47391 0
M  V30 6185 O 990.554 -3.84166 9.4489 0
M  V30 6186 O 991.124 -1.51964 8.6881 0
M  V30 6187 O 990.584 -3.29363 6.99321 0
M  V30 6188 C 989.644 -4.24011 6.4274 0
M  V30 6189 C 990.374 -5.20775 5.52155 0
M  V30 6190 O 990.584 -4.56534 4.22446 0
M  V30 6191 C 991.774 -5.62629 5.96531 0
M  V30 6192 O 992.164 -6.87667 5.41053 0
M  V30 6193 C 992.654 -4.52537 5.39283 0
M  V30 6194 C 991.944 -4.20027 4.08623 0
M  V30 6195 N 991.994 -2.7613 3.71522 0
M  V30 6196 C 992.144 -2.43702 2.37085 0
M  V30 6197 O 992.234 -3.3531 1.54039 0
M  V30 6198 N 992.194 -0.951103 2.10621 0
M  V30 6199 C 992.094 -0.165021 2.93537 0
M  V30 6200 N 992.144 1.09723 2.53253 0
M  V30 6201 C 991.944 -0.469576 4.32458 0
M  V30 6202 C 991.894 -1.78658 4.65921 0
M  V30 6203 H 989.154 -4.79645 7.23919 0
M  V30 6204 H 988.885 -3.69802 5.84429 0
M  V30 6205 H 989.752 -6.10431 5.41508 0
M  V30 6206 H 992.407 -4.78733 3.27967 0
M  V30 6207 H 992.686 -3.64957 6.05871 0
M  V30 6208 H 993.678 -4.8868 5.2125 0
M  V30 6209 H 991.844 -5.66726 7.06352 0
M  V30 6210 H 991.772 -2.06987 5.70299 0
M  V30 6211 H 991.874 0.314383 5.07728 0
M  V30 6212 H 992.262 1.31363 1.5319 0
M  V30 6213 H 992.065 1.85978 3.21943 0
M  V30 6214 P 993.714 -7.20834 5.23717 0
M  V30 6215 O 993.934 -8.66104 5.38572 0
M  V30 6216 O 994.504 -6.33544 6.1349 0
M  V30 6217 O 993.964 -6.7751 3.72168 0
M  V30 6218 C 993.024 -7.20825 2.7076 0
M  V30 6219 C 993.754 -7.45864 1.40599 0
M  V30 6220 O 993.964 -6.17651 0.734225 0
M  V30 6221 C 995.154 -8.05808 1.51899 0
M  V30 6222 O 995.544 -8.74358 0.335205 0
M  V30 6223 C 996.034 -6.83093 1.70294 0
M  V30 6224 C 995.324 -5.79992 0.836974 0
M  V30 6225 N 995.374 -4.41864 1.38293 0
M  V30 6226 H 992.535 -8.13644 3.0377 0
M  V30 6227 H 992.265 -6.42788 2.55485 0
M  V30 6228 H 993.132 -8.12039 0.792769 0
M  V30 6229 P 997.094 -8.91 -7.50109e-12 0
M  V30 6230 O 997.314 -10.1726 -0.733694 0
M  V30 6231 O 997.884 -8.73148 1.23936 0
M  V30 6232 O 997.344 -7.66872 -0.971405 0
M  V30 6233 C 996.404 -7.42309 -2.04641 0
M  V30 6234 C 997.134 -6.86059 -3.24661 0
M  V30 6235 O 997.344 -5.42847 -3.03646 0
M  V30 6236 C 998.534 -7.41196 -3.50753 0
M  V30 6237 O 998.924 -7.27073 -4.86816 0
M  V30 6238 C 999.414 -6.5273 -2.63741 0
M  V30 6239 C 998.704 -5.1842 -2.73198 0
M  V30 6240 N 998.754 -4.38762 -1.4784 0
M  V30 6241 H 995.915 -8.36803 -2.32493 0
M  V30 6242 H 995.645 -6.70197 -1.71129 0
M  V30 6243 H 996.512 -7.03551 -4.13168 0
M  V30 6244 P 1000.47 -7.20834 -5.23717 0
M  V30 6245 O 1000.69 -7.79853 -6.57286 0
M  V30 6246 O 1001.26 -7.79239 -4.12957 0
M  V30 6247 O 1000.72 -5.63315 -5.29344 0
M  V30 6248 C 999.784 -4.80255 -6.01876 0
M  V30 6249 C 1000.51 -3.64202 -6.65911 0
M  V30 6250 O 1000.72 -2.60694 -5.64732 0
M  V30 6251 C 1001.91 -3.93473 -7.1943 0
M  V30 6252 O 1002.3 -3.02071 -8.21205 0
M  V30 6253 C 1002.79 -3.73047 -5.97036 0
M  V30 6254 C 1002.08 -2.58828 -5.25741 0
M  V30 6255 N 1002.13 -2.68068 -3.77503 0
M  V30 6256 H 999.295 -5.40332 -6.79951 0
M  V30 6257 H 999.025 -4.41613 -5.32378 0
M  V30 6258 H 999.892 -3.26331 -7.47797 0
M  V30 6259 P 1003.85 -2.75334 -8.47391 0
M  V30 6260 O 1004.07 -2.44571 -9.90142 0
M  V30 6261 O 1004.64 -3.87688 -7.92115 0
M  V30 6262 O 1004.1 -1.4459 -7.59357 0
M  V30 6263 C 1003.16 -0.347608 -7.69215 0
M  V30 6264 C 1003.89 0.96767 -7.52806 0
M  V30 6265 O 1004.1 1.21036 -6.1011 0
M  V30 6266 C 1005.29 1.04544 -8.13308 0
M  V30 6267 O 1005.68 2.38311 -8.41922 0
M  V30 6268 C 1006.17 0.491279 -7.02284 0
M  V30 6269 C 1005.46 0.996264 -5.77469 0
M  V30 6270 N 1005.51 0.0501916 -4.62973 0
M  V30 6271 H 1002.68 -0.374722 -8.67691 0
M  V30 6272 H 1002.41 -0.443485 -6.90277 0
M  V30 6273 H 1003.27 1.75537 -7.96793 0
M  V30 6274 P 1007.23 2.75334 -8.47391 0
M  V30 6275 O 1007.45 3.84128 -9.44797 0
M  V30 6276 O 1008.02 1.51947 -8.68712 0
M  V30 6277 O 1007.48 3.29363 -6.99321 0
M  V30 6278 C 1006.54 4.24011 -6.4274 0
M  V30 6279 C 1007.27 5.20775 -5.52155 0
M  V30 6280 O 1007.48 4.56534 -4.22446 0
M  V30 6281 C 1008.67 5.62629 -5.96531 0
M  V30 6282 O 1009.06 6.87667 -5.41053 0
M  V30 6283 C 1009.55 4.52537 -5.39283 0
M  V30 6284 C 1008.84 4.20027 -4.08623 0
M  V30 6285 N 1008.89 2.76189 -3.71603 0
M  V30 6286 H 1006.06 4.797 -7.24003 0
M  V30 6287 H 1005.79 3.69856 -5.84513 0
M  V30 6288 H 1006.65 6.10356 -5.41441 0
M  V30 6289 P 1010.61 7.20834 -5.23717 0
M  V30 6290 O 1010.83 8.66274 -5.38678 0
M  V30 6291 O 1011.4 6.33687 -6.13629 0
M  V30 6292 O 1010.86 6.7751 -3.72168 0
M  V30 6293 C 1009.92 7.20919 -2.70795 0
M  V30 6294 C 1010.65 7.45864 -1.40599 0
M  V30 6295 O 1010.86 6.17751 -0.734343 0
M  V30 6296 C 1012.05 8.05906 -1.51917 0
M  V30 6297 O 1012.44 8.74358 -0.335205 0
M  V30 6298 C 1012.93 6.83093 -1.70294 0
M  V30 6299 C 1012.22 5.79992 -0.836974 0
M  V30 6300 N 1012.27 4.41864 -1.38293 0
M  V30 6301 H 1009.44 8.13738 -3.03804 0
M  V30 6302 H 1009.16 6.42974 -2.55559 0
M  V30 6303 H 1010.03 8.12139 -0.792866 0
M  V30 6304 H 1012.69 5.80178 0.160643 0
M  V30 6305 H 1012.97 6.51379 -2.75643 0
M  V30 6306 H 1013.96 7.01832 -1.3448 0
M  V30 6307 H 1012.12 8.73771 -2.38364 0
M  V30 6308 P 1013.99 8.91 7.65827e-12 0
M  V30 6309 O 1014.21 10.1726 0.733694 0
M  V30 6310 O 1014.78 8.73148 -1.23936 0
M  V30 6311 O 1014.24 7.66872 0.971405 0
M  V30 6312 C 1013.3 7.42309 2.04641 0
M  V30 6313 C 1014.03 6.86059 3.24661 0
M  V30 6314 O 1014.24 5.42847 3.03646 0
M  V30 6315 C 1015.43 7.41196 3.50753 0
M  V30 6316 O 1015.82 7.27073 4.86816 0
M  V30 6317 C 1016.31 6.5273 2.63741 0
M  V30 6318 C 1015.6 5.1842 2.73198 0
M  V30 6319 N 1015.65 4.38762 1.4784 0
M  V30 6320 H 1012.82 8.36803 2.32493 0
M  V30 6321 H 1012.55 6.70197 1.71129 0
M  V30 6322 H 1013.41 7.03551 4.13168 0
M  V30 6323 P 1017.37 7.20834 5.23717 0
M  V30 6324 O 1017.59 7.79853 6.57286 0
M  V30 6325 O 1018.16 7.79239 4.12957 0
M  V30 6326 O 1017.62 5.63315 5.29344 0
M  V30 6327 C 1016.68 4.80255 6.01876 0
M  V30 6328 C 1017.41 3.64202 6.65911 0
M  V30 6329 O 1017.62 2.60694 5.64732 0
M  V30 6330 C 1018.81 3.93473 7.1943 0
M  V30 6331 O 1019.2 3.02071 8.21205 0
M  V30 6332 C 1019.69 3.73047 5.97036 0
M  V30 6333 C 1018.98 2.58828 5.25741 0
M  V30 6334 N 1019.03 2.68068 3.77503 0
M  V30 6335 H 1016.19 5.40332 6.79951 0
M  V30 6336 H 1015.92 4.41613 5.32378 0
M  V30 6337 H 1016.79 3.26331 7.47797 0
M  V30 6338 P 1020.75 2.75334 8.47391 0
M  V30 6339 O 1020.97 2.44571 9.90142 0
M  V30 6340 O 1021.54 3.87688 7.92115 0
M  V30 6341 O 1021 1.4459 7.59357 0
M  V30 6342 C 1020.06 0.347608 7.69215 0
M  V30 6343 C 1020.79 -0.96767 7.52806 0
M  V30 6344 O 1021 -1.21036 6.1011 0
M  V30 6345 C 1022.19 -1.04544 8.13308 0
M  V30 6346 O 1022.58 -2.38311 8.41922 0
M  V30 6347 C 1023.07 -0.491279 7.02284 0
M  V30 6348 C 1022.36 -0.996264 5.77469 0
M  V30 6349 N 1022.41 -0.0501916 4.62973 0
M  V30 6350 H 1019.57 0.374722 8.67691 0
M  V30 6351 H 1019.3 0.443485 6.90277 0
M  V30 6352 H 1020.17 -1.75537 7.96793 0
M  V30 6353 P 1024.13 -2.75334 8.47391 0
M  V30 6354 O 1024.35 -3.84128 9.44797 0
M  V30 6355 O 1024.92 -1.51947 8.68712 0
M  V30 6356 O 1024.38 -3.29363 6.99321 0
M  V30 6357 C 1023.44 -4.24011 6.4274 0
M  V30 6358 C 1024.17 -5.20775 5.52155 0
M  V30 6359 O 1024.38 -4.56534 4.22446 0
M  V30 6360 C 1025.57 -5.62629 5.96531 0
M  V30 6361 O 1025.96 -6.87667 5.41053 0
M  V30 6362 C 1026.45 -4.52537 5.39283 0
M  V30 6363 C 1025.74 -4.20027 4.08623 0
M  V30 6364 N 1025.79 -2.76189 3.71603 0
M  V30 6365 H 1022.95 -4.797 7.24003 0
M  V30 6366 H 1022.68 -3.69856 5.84513 0
M  V30 6367 H 1023.55 -6.10356 5.41441 0
M  V30 6368 P 1027.51 -7.20834 5.23717 0
M  V30 6369 O 1027.73 -8.66104 5.38572 0
M  V30 6370 O 1028.3 -6.33544 6.1349 0
M  V30 6371 O 1027.76 -6.7751 3.72168 0
M  V30 6372 C 1026.82 -7.20825 2.7076 0
M  V30 6373 C 1027.55 -7.45864 1.40599 0
M  V30 6374 O 1027.76 -6.17651 0.734225 0
M  V30 6375 C 1028.95 -8.05808 1.51899 0
M  V30 6376 O 1029.34 -8.74358 0.335205 0
M  V30 6377 C 1029.83 -6.83093 1.70294 0
M  V30 6378 C 1029.12 -5.79992 0.836974 0
M  V30 6379 N 1029.17 -4.41864 1.38293 0
M  V30 6380 H 1026.33 -8.13644 3.0377 0
M  V30 6381 H 1026.06 -6.42788 2.55485 0
M  V30 6382 H 1026.93 -8.12039 0.792769 0
M  V30 6383 P 1030.89 -8.91 -7.81545e-12 0
M  V30 6384 O 1031.11 -10.1726 -0.733694 0
M  V30 6385 O 1031.68 -8.73148 1.23936 0
M  V30 6386 O 1031.14 -7.66872 -0.971405 0
M  V30 6387 C 1030.2 -7.42309 -2.04641 0
M  V30 6388 C 1030.93 -6.86059 -3.24661 0
M  V30 6389 O 1031.14 -5.42847 -3.03646 0
M  V30 6390 C 1032.33 -7.41196 -3.50753 0
M  V30 6391 O 1032.72 -7.27073 -4.86816 0
M  V30 6392 C 1033.21 -6.5273 -2.63741 0
M  V30 6393 C 1032.5 -5.1842 -2.73198 0
M  V30 6394 N 1032.55 -4.38762 -1.4784 0
M  V30 6395 H 1029.71 -8.36803 -2.32493 0
M  V30 6396 H 1029.44 -6.70197 -1.71129 0
M  V30 6397 H 1030.31 -7.03551 -4.13168 0
M  V30 6398 P 1034.27 -7.20834 -5.23717 0
M  V30 6399 O 1034.49 -7.79853 -6.57286 0
M  V30 6400 O 1035.06 -7.79239 -4.12957 0
M  V30 6401 O 1034.52 -5.63315 -5.29344 0
M  V30 6402 C 1033.58 -4.80255 -6.01876 0
M  V30 6403 C 1034.31 -3.64202 -6.65911 0
M  V30 6404 O 1034.52 -2.60694 -5.64732 0
M  V30 6405 C 1035.71 -3.93473 -7.1943 0
M  V30 6406 O 1036.1 -3.02071 -8.21205 0
M  V30 6407 C 1036.59 -3.73047 -5.97036 0
M  V30 6408 C 1035.88 -2.58828 -5.25741 0
M  V30 6409 N 1035.93 -2.68068 -3.77503 0
M  V30 6410 H 1033.09 -5.40332 -6.79951 0
M  V30 6411 H 1032.82 -4.41613 -5.32378 0
M  V30 6412 H 1033.69 -3.26331 -7.47797 0
M  V30 6413 P 1037.65 -2.75334 -8.47391 0
M  V30 6414 O 1037.87 -2.44571 -9.90142 0
M  V30 6415 O 1038.44 -3.87688 -7.92115 0
M  V30 6416 O 1037.9 -1.4459 -7.59357 0
M  V30 6417 C 1036.96 -0.347608 -7.69215 0
M  V30 6418 C 1037.69 0.96767 -7.52806 0
M  V30 6419 O 1037.9 1.21036 -6.1011 0
M  V30 6420 C 1039.09 1.04544 -8.13308 0
M  V30 6421 O 1039.48 2.38311 -8.41922 0
M  V30 6422 C 1039.97 0.491279 -7.02284 0
M  V30 6423 C 1039.26 0.996264 -5.77469 0
M  V30 6424 N 1039.31 0.0501916 -4.62973 0
M  V30 6425 H 1036.47 -0.374722 -8.67691 0
M  V30 6426 H 1036.2 -0.443485 -6.90277 0
M  V30 6427 H 1037.07 1.75537 -7.96793 0
M  V30 6428 P 1041.03 2.75334 -8.47391 0
M  V30 6429 O 1041.25 3.84128 -9.44797 0
M  V30 6430 O 1041.82 1.51947 -8.68712 0
M  V30 6431 O 1041.28 3.29363 -6.99321 0
M  V30 6432 C 1040.34 4.24011 -6.4274 0
M  V30 6433 C 1041.07 5.20775 -5.52155 0
M  V30 6434 O 1041.28 4.56534 -4.22446 0
M  V30 6435 C 1042.47 5.62629 -5.96531 0
M  V30 6436 O 1042.86 6.87667 -5.41053 0
M  V30 6437 C 1043.35 4.52537 -5.39283 0
M  V30 6438 C 1042.64 4.20027 -4.08623 0
M  V30 6439 N 1042.69 2.76189 -3.71603 0
M  V30 6440 H 1039.85 4.797 -7.24003 0
M  V30 6441 H 1039.58 3.69856 -5.84513 0
M  V30 6442 H 1040.45 6.10356 -5.41441 0
M  V30 6443 P 1044.41 7.20834 -5.23717 0
M  V30 6444 O 1044.63 8.66104 -5.38572 0
M  V30 6445 O 1045.2 6.33544 -6.1349 0
M  V30 6446 O 1044.66 6.7751 -3.72168 0
M  V30 6447 C 1043.72 7.20825 -2.7076 0
M  V30 6448 C 1044.45 7.45864 -1.40599 0
M  V30 6449 O 1044.66 6.17651 -0.734225 0
M  V30 6450 C 1045.85 8.05808 -1.51899 0
M  V30 6451 O 1046.24 8.74358 -0.335205 0
M  V30 6452 C 1046.73 6.83093 -1.70294 0
M  V30 6453 C 1046.02 5.79992 -0.836974 0
M  V30 6454 N 1046.07 4.41864 -1.38293 0
M  V30 6455 C 1045.99 3.99538 -2.69438 0
M  V30 6456 N 1046.07 2.69909 -2.84277 0
M  V30 6457 C 1046.21 2.21719 -1.5408 0
M  V30 6458 C 1046.34 0.891712 -1.06628 0
M  V30 6459 O 1046.36 -0.161298 -1.70137 0
M  V30 6460 N 1046.46 0.856846 0.334985 0
M  V30 6461 C 1046.46 1.9641 1.15789 0
M  V30 6462 N 1046.59 1.72708 2.46522 0
M  V30 6463 N 1046.33 3.21165 0.713741 0
M  V30 6464 C 1046.21 3.26797 -0.639748 0
M  V30 6465 H 1043.23 8.13644 -3.0377 0
M  V30 6466 H 1042.96 6.42788 -2.55485 0
M  V30 6467 H 1043.83 8.12039 -0.792769 0
M  V30 6468 H 1046.49 5.80061 0.166416 0
M  V30 6469 H 1046.77 6.51287 -2.75604 0
M  V30 6470 H 1047.76 7.01734 -1.34462 0
M  V30 6471 H 1045.92 8.73674 -2.38337 0
M  V30 6472 H 1045.87 4.68207 -3.53221 0
M  V30 6473 H 1046.56 -0.0398818 0.767965 0
M  V30 6474 H 1046.59 2.50995 3.13503 0
M  V30 6475 H 1046.69 0.759148 2.80716 0
M  V30 6476 P 1047.79 8.91 7.97264e-12 0
M  V30 6477 O 1048.01 10.1736 0.733766 0
M  V30 6478 O 1048.58 8.73247 -1.2395 0
M  V30 6479 O 1048.04 7.66872 0.971405 0
M  V30 6480 C 1047.1 7.42212 2.04614 0
M  V30 6481 C 1047.83 6.86059 3.24661 0
M  V30 6482 O 1048.04 5.42847 3.03646 0
M  V30 6483 C 1049.23 7.41196 3.50753 0
M  V30 6484 O 1049.62 7.27073 4.86816 0
M  V30 6485 C 1050.11 6.5273 2.63741 0
M  V30 6486 C 1049.4 5.1842 2.73198 0
M  V30 6487 N 1049.45 4.38668 1.47808 0
M  V30 6488 C 1049.6 3.02239 1.60048 0
M  V30 6489 O 1049.69 2.46459 2.67869 0
M  V30 6490 N 1049.64 2.32436 0.408571 0
M  V30 6491 C 1049.55 2.85471 -0.854993 0
M  V30 6492 O 1049.6 2.12566 -1.8531 0
M  V30 6493 C 1049.4 4.28918 -0.887335 0
M  V30 6494 C 1049.29 4.91066 -2.24619 0
M  V30 6495 C 1049.35 5.00349 0.255399 0
M  V30 6496 H 1046.61 8.36803 2.32493 0
M  V30 6497 H 1046.34 6.701 1.71105 0
M  V30 6498 H 1047.21 7.03551 4.13168 0
M  V30 6499 H 1049.87 4.59773 3.53894 0
M  V30 6500 H 1050.15 6.88995 1.59871 0
M  V30 6501 H 1051.14 6.46749 3.03687 0
M  V30 6502 H 1049.3 8.46908 3.20714 0
M  V30 6503 H 1049.23 6.08548 0.206986 0
M  V30 6504 H 1050.26 5.34836 -2.53099 0
M  V30 6505 H 1048.53 5.69638 -2.2291 0
M  V30 6506 H 1049.01 4.13971 -2.98044 0
M  V30 6507 H 1049.75 1.33211 0.474216 0
M  V30 6508 P 1051.17 7.20834 5.23717 0
M  V30 6509 O 1051.39 7.7993 6.57351 0
M  V30 6510 O 1051.96 7.79328 4.13004 0
M  V30 6511 O 1051.42 5.63315 5.29344 0
M  V30 6512 C 1050.48 4.80255 6.01876 0
M  V30 6513 C 1051.21 3.64202 6.65911 0
M  V30 6514 O 1051.42 2.60694 5.64732 0
M  V30 6515 C 1052.61 3.93473 7.1943 0
M  V30 6516 O 1053 3.02071 8.21205 0
M  V30 6517 C 1053.49 3.73047 5.97036 0
M  V30 6518 C 1052.78 2.58828 5.25741 0
M  V30 6519 N 1052.83 2.6801 3.77422 0
M  V30 6520 C 1052.98 1.50173 3.05038 0
M  V30 6521 O 1053.07 0.428832 3.665 0
M  V30 6522 N 1053.03 1.70922 1.55541 0
M  V30 6523 C 1052.93 2.7407 1.06402 0
M  V30 6524 N 1052.98 2.74764 -0.260931 0
M  V30 6525 C 1052.78 3.96781 1.78296 0
M  V30 6526 C 1052.73 3.87909 3.13891 0
M  V30 6527 H 1049.99 5.4027 6.79873 0
M  V30 6528 H 1049.72 4.41549 5.32301 0
M  V30 6529 H 1050.59 3.26371 7.47889 0
M  V30 6530 H 1053.25 1.63978 5.5665 0
M  V30 6531 H 1053.53 4.63439 5.3432 0
M  V30 6532 H 1054.52 3.44728 6.25838 0
M  V30 6533 H 1052.68 4.96652 7.57263 0
M  V30 6534 H 1052.61 4.78425 3.73088 0
M  V30 6535 H 1052.71 4.92593 1.26997 0
M  V30 6536 H 1053.1 1.86285 -0.77595 0
M  V30 6537 H 1052.9 3.63657 -0.773896 0
M  V30 6538 P 1054.55 2.75334 8.47391 0
M  V30 6539 O 1054.77 2.44571 9.90142 0
M  V30 6540 O 1055.34 3.87688 7.92115 0
M  V30 6541 O 1054.8 1.4459 7.59357 0
M  V30 6542 C 1053.86 0.347608 7.69215 0
M  V30 6543 C 1054.59 -0.96767 7.52806 0
M  V30 6544 O 1054.8 -1.21036 6.1011 0
M  V30 6545 C 1055.99 -1.04544 8.13308 0
M  V30 6546 O 1056.38 -2.38311 8.41922 0
M  V30 6547 C 1056.87 -0.491279 7.02284 0
M  V30 6548 C 1056.16 -0.996264 5.77469 0
M  V30 6549 N 1056.21 -0.0501916 4.62973 0
M  V30 6550 H 1053.37 0.374722 8.67691 0
M  V30 6551 H 1053.1 0.443485 6.90277 0
M  V30 6552 H 1053.97 -1.75537 7.96793 0
M  V30 6553 P 1057.93 -2.75334 8.47391 0
M  V30 6554 O 1058.15 -3.84204 9.44982 0
M  V30 6555 O 1058.72 -1.51982 8.68909 0
M  V30 6556 O 1058.18 -3.29363 6.99321 0
M  V30 6557 C 1057.24 -4.24066 6.42823 0
M  V30 6558 C 1057.97 -5.20775 5.52155 0
M  V30 6559 O 1058.18 -4.56607 4.22514 0
M  V30 6560 C 1059.37 -5.62697 5.96604 0
M  V30 6561 O 1059.76 -6.87667 5.41053 0
M  V30 6562 C 1060.25 -4.52537 5.39283 0
M  V30 6563 C 1059.54 -4.20027 4.08623 0
M  V30 6564 N 1059.59 -2.76189 3.71603 0
M  V30 6565 H 1056.76 -4.79756 7.24086 0
M  V30 6566 H 1056.48 -3.69963 5.84682 0
M  V30 6567 H 1057.35 -6.10431 5.41508 0
M  V30 6568 H 1060.01 -4.78816 3.28024 0
M  V30 6569 H 1060.29 -3.64957 6.05871 0
M  V30 6570 H 1061.28 -4.88748 5.21323 0
M  V30 6571 H 1059.44 -5.66789 7.0643 0
M  V30 6572 P 1061.31 -7.20834 5.23717 0
M  V30 6573 O 1061.53 -8.66104 5.38572 0
M  V30 6574 O 1062.1 -6.33544 6.1349 0
M  V30 6575 O 1061.56 -6.7751 3.72168 0
M  V30 6576 C 1060.62 -7.20825 2.7076 0
M  V30 6577 C 1061.35 -7.45864 1.40599 0
M  V30 6578 O 1061.56 -6.17651 0.734225 0
M  V30 6579 C 1062.75 -8.05808 1.51899 0
M  V30 6580 O 1063.14 -8.74358 0.335205 0
M  V30 6581 C 1063.63 -6.83093 1.70294 0
M  V30 6582 C 1062.92 -5.79992 0.836974 0
M  V30 6583 N 1062.97 -4.41864 1.38293 0
M  V30 6584 H 1060.13 -8.13644 3.0377 0
M  V30 6585 H 1059.86 -6.42788 2.55485 0
M  V30 6586 H 1060.73 -8.12039 0.792769 0
M  V30 6587 P 1064.69 -8.91 -8.12982e-12 0
M  V30 6588 O 1064.91 -10.1726 -0.733694 0
M  V30 6589 O 1065.48 -8.73148 1.23936 0
M  V30 6590 O 1064.94 -7.66872 -0.971405 0
M  V30 6591 C 1064 -7.42309 -2.04641 0
M  V30 6592 C 1064.73 -6.86059 -3.24661 0
M  V30 6593 O 1064.94 -5.42847 -3.03646 0
M  V30 6594 C 1066.13 -7.41196 -3.50753 0
M  V30 6595 O 1066.52 -7.27073 -4.86816 0
M  V30 6596 C 1067.01 -6.5273 -2.63741 0
M  V30 6597 C 1066.3 -5.1842 -2.73198 0
M  V30 6598 N 1066.35 -4.38762 -1.4784 0
M  V30 6599 H 1063.51 -8.36803 -2.32493 0
M  V30 6600 H 1063.24 -6.70197 -1.71129 0
M  V30 6601 H 1064.11 -7.03551 -4.13168 0
M  V30 6602 P 1068.07 -7.20834 -5.23717 0
M  V30 6603 O 1068.29 -7.79853 -6.57286 0
M  V30 6604 O 1068.86 -7.79239 -4.12957 0
M  V30 6605 O 1068.32 -5.63315 -5.29344 0
M  V30 6606 C 1067.38 -4.80255 -6.01876 0
M  V30 6607 C 1068.11 -3.64202 -6.65911 0
M  V30 6608 O 1068.32 -2.60694 -5.64732 0
M  V30 6609 C 1069.51 -3.93473 -7.1943 0
M  V30 6610 O 1069.9 -3.02071 -8.21205 0
M  V30 6611 C 1070.39 -3.73047 -5.97036 0
M  V30 6612 C 1069.68 -2.58828 -5.25741 0
M  V30 6613 N 1069.73 -2.68068 -3.77503 0
M  V30 6614 H 1066.89 -5.40332 -6.79951 0
M  V30 6615 H 1066.62 -4.41613 -5.32378 0
M  V30 6616 H 1067.49 -3.26331 -7.47797 0
M  V30 6617 P 1071.45 -2.75334 -8.47391 0
M  V30 6618 O 1071.67 -2.44619 -9.90336 0
M  V30 6619 O 1072.24 -3.87776 -7.92294 0
M  V30 6620 O 1071.7 -1.4459 -7.59357 0
M  V30 6621 C 1070.76 -0.347653 -7.69315 0
M  V30 6622 C 1071.49 0.96767 -7.52806 0
M  V30 6623 O 1071.7 1.21055 -6.10208 0
M  V30 6624 C 1072.89 1.04557 -8.13408 0
M  V30 6625 O 1073.28 2.38311 -8.41922 0
M  V30 6626 C 1073.77 0.491279 -7.02284 0
M  V30 6627 C 1073.06 0.996264 -5.77469 0
M  V30 6628 N 1073.11 0.0501916 -4.62973 0
M  V30 6629 C 1073.03 -1.31969 -4.65661 0
M  V30 6630 N 1073.1 -1.86649 -3.48119 0
M  V30 6631 C 1073.25 -0.792089 -2.62406 0
M  V30 6632 C 1073.38 -0.705684 -1.2207 0
M  V30 6633 N 1073.39 -1.76207 -0.413762 0
M  V30 6634 N 1073.5 0.518981 -0.685754 0
M  V30 6635 C 1073.49 1.57595 -1.49174 0
M  V30 6636 N 1073.37 1.62909 -2.80066 0
M  V30 6637 C 1073.25 0.388195 -3.3073 0
M  V30 6638 H 1070.28 -0.374765 -8.67791 0
M  V30 6639 H 1070 -0.443613 -6.90476 0
M  V30 6640 H 1070.87 1.75559 -7.96891 0
M  V30 6641 H 1073.53 1.94563 -5.46818 0
M  V30 6642 H 1073.81 -0.608651 -7.04676 0
M  V30 6643 H 1074.8 0.889796 -7.09039 0
M  V30 6644 H 1072.96 0.433128 -9.04664 0
M  V30 6645 H 1072.92 -1.89246 -5.57664 0
M  V30 6646 H 1073.3 -2.71005 -0.804694 0
M  V30 6647 H 1073.49 -1.63189 0.603768 0
M  V30 6648 H 1073.6 2.53475 -0.997614 0
M  V30 6649 P 1074.83 2.75334 -8.47391 0
M  V30 6650 O 1075.05 3.84128 -9.44797 0
M  V30 6651 O 1075.62 1.51947 -8.68712 0
M  V30 6652 O 1075.08 3.29363 -6.99321 0
M  V30 6653 C 1074.14 4.24011 -6.4274 0
M  V30 6654 C 1074.87 5.20775 -5.52155 0
M  V30 6655 O 1075.08 4.56534 -4.22446 0
M  V30 6656 C 1076.27 5.62629 -5.96531 0
M  V30 6657 O 1076.66 6.87667 -5.41053 0
M  V30 6658 C 1077.15 4.52537 -5.39283 0
M  V30 6659 C 1076.44 4.20027 -4.08623 0
M  V30 6660 N 1076.49 2.76189 -3.71603 0
M  V30 6661 H 1073.65 4.797 -7.24003 0
M  V30 6662 H 1073.38 3.69856 -5.84513 0
M  V30 6663 H 1074.25 6.10356 -5.41441 0
M  V30 6664 P 1078.21 7.20834 -5.23717 0
M  V30 6665 O 1078.43 8.66104 -5.38572 0
M  V30 6666 O 1079 6.33544 -6.1349 0
M  V30 6667 O 1078.46 6.7751 -3.72168 0
M  V30 6668 C 1077.52 7.20825 -2.7076 0
M  V30 6669 C 1078.25 7.45864 -1.40599 0
M  V30 6670 O 1078.46 6.17651 -0.734225 0
M  V30 6671 C 1079.65 8.05808 -1.51899 0
M  V30 6672 O 1080.04 8.74358 -0.335205 0
M  V30 6673 C 1080.53 6.83093 -1.70294 0
M  V30 6674 C 1079.82 5.79992 -0.836974 0
M  V30 6675 N 1079.87 4.41864 -1.38293 0
M  V30 6676 C 1079.79 3.99538 -2.69438 0
M  V30 6677 N 1079.87 2.69909 -2.84277 0
M  V30 6678 C 1080.01 2.21719 -1.5408 0
M  V30 6679 C 1080.14 0.891712 -1.06628 0
M  V30 6680 N 1080.26 0.856846 0.334985 0
M  V30 6681 C 1080.26 1.9641 1.15789 0
M  V30 6682 N 1080.39 1.72708 2.46522 0
M  V30 6683 N 1080.13 3.21165 0.713741 0
M  V30 6684 C 1080.01 3.26797 -0.639748 0
M  V30 6685 H 1077.03 8.13644 -3.0377 0
M  V30 6686 H 1076.76 6.42788 -2.55485 0
M  V30 6687 H 1077.63 8.12039 -0.792769 0
M  V30 6688 P 1081.59 8.91 8.287e-12 0
M  V30 6689 O 1081.81 10.1736 0.733766 0
M  V30 6690 O 1082.38 8.73247 -1.2395 0
M  V30 6691 O 1081.84 7.66872 0.971405 0
M  V30 6692 C 1080.9 7.42212 2.04614 0
M  V30 6693 C 1081.63 6.86059 3.24661 0
M  V30 6694 O 1081.84 5.42847 3.03646 0
M  V30 6695 C 1083.03 7.41196 3.50753 0
M  V30 6696 O 1083.42 7.27073 4.86816 0
M  V30 6697 C 1083.91 6.5273 2.63741 0
M  V30 6698 C 1083.2 5.1842 2.73198 0
M  V30 6699 N 1083.25 4.38668 1.47808 0
M  V30 6700 C 1083.4 3.02239 1.60048 0
M  V30 6701 O 1083.49 2.46459 2.67869 0
M  V30 6702 N 1083.44 2.32436 0.408571 0
M  V30 6703 C 1083.35 2.85471 -0.854993 0
M  V30 6704 C 1083.2 4.28918 -0.887335 0
M  V30 6705 C 1083.15 5.00349 0.255399 0
M  V30 6706 H 1080.41 8.36803 2.32493 0
M  V30 6707 H 1080.14 6.701 1.71105 0
M  V30 6708 H 1081.01 7.03551 4.13168 0
M  V30 6709 H 1083.67 4.59773 3.53894 0
M  V30 6710 H 1083.95 6.88995 1.59871 0
M  V30 6711 H 1084.94 6.46749 3.03687 0
M  V30 6712 H 1083.1 8.46908 3.20714 0
M  V30 6713 H 1083.03 6.08548 0.206986 0
M  V30 6714 P 1084.97 7.20834 5.23717 0
M  V30 6715 O 1085.19 7.79853 6.57286 0
M  V30 6716 O 1085.76 7.79239 4.12957 0
M  V30 6717 O 1085.22 5.63315 5.29344 0
M  V30 6718 C 1084.28 4.80255 6.01876 0
M  V30 6719 C 1085.01 3.64202 6.65911 0
M  V30 6720 O 1085.22 2.60694 5.64732 0
M  V30 6721 C 1086.41 3.93473 7.1943 0
M  V30 6722 O 1086.8 3.02071 8.21205 0
M  V30 6723 C 1087.29 3.73047 5.97036 0
M  V30 6724 C 1086.58 2.58828 5.25741 0
M  V30 6725 N 1086.63 2.68068 3.77503 0
M  V30 6726 H 1083.79 5.40332 6.79951 0
M  V30 6727 H 1083.52 4.41613 5.32378 0
M  V30 6728 H 1084.39 3.26331 7.47797 0
M  V30 6729 P 1088.35 2.75334 8.47391 0
M  V30 6730 O 1088.57 2.44571 9.90142 0
M  V30 6731 O 1089.14 3.87688 7.92115 0
M  V30 6732 O 1088.6 1.4459 7.59357 0
M  V30 6733 C 1087.66 0.347608 7.69215 0
M  V30 6734 C 1088.39 -0.96767 7.52806 0
M  V30 6735 O 1088.6 -1.21036 6.1011 0
M  V30 6736 C 1089.79 -1.04544 8.13308 0
M  V30 6737 O 1090.18 -2.38311 8.41922 0
M  V30 6738 C 1090.67 -0.491279 7.02284 0
M  V30 6739 C 1089.96 -0.996264 5.77469 0
M  V30 6740 N 1090.01 -0.0501916 4.62973 0
M  V30 6741 H 1087.17 0.374722 8.67691 0
M  V30 6742 H 1086.9 0.443485 6.90277 0
M  V30 6743 H 1087.77 -1.75537 7.96793 0
M  V30 6744 P 1091.73 -2.75334 8.47391 0
M  V30 6745 O 1091.95 -3.84166 9.4489 0
M  V30 6746 O 1092.52 -1.51964 8.6881 0
M  V30 6747 O 1091.98 -3.29363 6.99321 0
M  V30 6748 C 1091.04 -4.23956 6.42656 0
M  V30 6749 C 1091.77 -5.20775 5.52155 0
M  V30 6750 O 1091.98 -4.56534 4.22446 0
M  V30 6751 C 1093.17 -5.62629 5.96531 0
M  V30 6752 O 1093.56 -6.87667 5.41053 0
M  V30 6753 C 1094.05 -4.52537 5.39283 0
M  V30 6754 C 1093.34 -4.20027 4.08623 0
M  V30 6755 N 1093.39 -2.7613 3.71522 0
M  V30 6756 C 1093.54 -2.45612 2.37989 0
M  V30 6757 O 1093.63 -3.30919 1.51621 0
M  V30 6758 N 1093.58 -1.10684 2.08435 0
M  V30 6759 C 1093.49 -0.0690084 2.9792 0
M  V30 6760 O 1093.54 1.10553 2.59426 0
M  V30 6761 C 1093.34 -0.481522 4.35345 0
M  V30 6762 C 1093.23 0.618778 5.36443 0
M  V30 6763 C 1093.29 -1.78906 4.67968 0
M  V30 6764 H 1090.55 -4.797 7.24003 0
M  V30 6765 H 1090.28 -3.69802 5.84429 0
M  V30 6766 H 1091.15 -6.10356 5.41441 0
M  V30 6767 H 1093.81 -4.78651 3.27911 0
M  V30 6768 H 1094.09 -3.64957 6.05871 0
M  V30 6769 H 1095.08 -4.8868 5.2125 0
M  V30 6770 H 1093.24 -5.66726 7.06352 0
M  V30 6771 H 1093.17 -2.07737 5.72367 0
M  V30 6772 H 1094.2 0.754375 5.86871 0
M  V30 6773 H 1092.47 0.359721 6.10641 0
M  V30 6774 H 1092.95 1.55533 4.8581 0
M  V30 6775 H 1093.69 -0.862651 1.12037 0
M  V30 6776 P 1095.11 -7.20834 5.23717 0
M  V30 6777 O 1095.33 -8.66104 5.38572 0
M  V30 6778 O 1095.9 -6.33544 6.1349 0
M  V30 6779 O 1095.36 -6.7751 3.72168 0
M  V30 6780 C 1094.42 -7.20825 2.7076 0
M  V30 6781 C 1095.15 -7.45864 1.40599 0
M  V30 6782 O 1095.36 -6.17651 0.734225 0
M  V30 6783 C 1096.55 -8.05808 1.51899 0
M  V30 6784 O 1096.94 -8.74358 0.335205 0
M  V30 6785 C 1097.43 -6.83093 1.70294 0
M  V30 6786 C 1096.72 -5.79992 0.836974 0
M  V30 6787 N 1096.77 -4.41864 1.38293 0
M  V30 6788 C 1096.69 -3.99538 2.69438 0
M  V30 6789 N 1096.77 -2.69909 2.84277 0
M  V30 6790 C 1096.91 -2.21719 1.5408 0
M  V30 6791 C 1097.04 -0.891712 1.06628 0
M  V30 6792 N 1097.16 -0.856846 -0.334985 0
M  V30 6793 C 1097.16 -1.9641 -1.15789 0
M  V30 6794 N 1097.29 -1.72708 -2.46522 0
M  V30 6795 N 1097.03 -3.21165 -0.713741 0
M  V30 6796 C 1096.91 -3.26797 0.639748 0
M  V30 6797 H 1093.93 -8.13644 3.0377 0
M  V30 6798 H 1093.66 -6.42788 2.55485 0
M  V30 6799 H 1094.53 -8.12039 0.792769 0
M  V30 6800 P 1098.49 -8.91 -8.44418e-12 0
M  V30 6801 O 1098.71 -10.1726 -0.733694 0
M  V30 6802 O 1099.28 -8.73148 1.23936 0
M  V30 6803 O 1098.74 -7.66872 -0.971405 0
M  V30 6804 C 1097.8 -7.42309 -2.04641 0
M  V30 6805 C 1098.53 -6.86059 -3.24661 0
M  V30 6806 O 1098.74 -5.42847 -3.03646 0
M  V30 6807 C 1099.93 -7.41196 -3.50753 0
M  V30 6808 O 1100.32 -7.27073 -4.86816 0
M  V30 6809 C 1100.81 -6.5273 -2.63741 0
M  V30 6810 C 1100.1 -5.1842 -2.73198 0
M  V30 6811 N 1100.15 -4.38762 -1.4784 0
M  V30 6812 H 1097.31 -8.36803 -2.32493 0
M  V30 6813 H 1097.04 -6.70197 -1.71129 0
M  V30 6814 H 1097.91 -7.03551 -4.13168 0
M  V30 6815 P 1101.87 -7.20834 -5.23717 0
M  V30 6816 O 1102.09 -7.79853 -6.57286 0
M  V30 6817 O 1102.66 -7.79239 -4.12957 0
M  V30 6818 O 1102.12 -5.63315 -5.29344 0
M  V30 6819 C 1101.18 -4.80255 -6.01876 0
M  V30 6820 C 1101.91 -3.64202 -6.65911 0
M  V30 6821 O 1102.12 -2.60694 -5.64732 0
M  V30 6822 C 1103.31 -3.93473 -7.1943 0
M  V30 6823 O 1103.7 -3.02071 -8.21205 0
M  V30 6824 C 1104.19 -3.73047 -5.97036 0
M  V30 6825 C 1103.48 -2.58828 -5.25741 0
M  V30 6826 N 1103.53 -2.68068 -3.77503 0
M  V30 6827 H 1100.69 -5.40332 -6.79951 0
M  V30 6828 H 1100.42 -4.41613 -5.32378 0
M  V30 6829 H 1101.29 -3.26331 -7.47797 0
M  V30 6830 P 1105.25 -2.75334 -8.47391 0
M  V30 6831 O 1105.47 -2.44571 -9.90142 0
M  V30 6832 O 1106.04 -3.87688 -7.92115 0
M  V30 6833 O 1105.5 -1.4459 -7.59357 0
M  V30 6834 C 1104.56 -0.347608 -7.69215 0
M  V30 6835 C 1105.29 0.96767 -7.52806 0
M  V30 6836 O 1105.5 1.21036 -6.1011 0
M  V30 6837 C 1106.69 1.04544 -8.13308 0
M  V30 6838 O 1107.08 2.38311 -8.41922 0
M  V30 6839 C 1107.57 0.491279 -7.02284 0
M  V30 6840 C 1106.86 0.996264 -5.77469 0
M  V30 6841 N 1106.91 0.0501916 -4.62973 0
M  V30 6842 H 1104.07 -0.374722 -8.67691 0
M  V30 6843 H 1103.8 -0.443485 -6.90277 0
M  V30 6844 H 1104.67 1.75537 -7.96793 0
M  V30 6845 P 1108.63 2.75334 -8.47391 0
M  V30 6846 O 1108.85 3.84128 -9.44797 0
M  V30 6847 O 1109.42 1.51947 -8.68712 0
M  V30 6848 O 1108.88 3.29363 -6.99321 0
M  V30 6849 C 1107.94 4.24011 -6.4274 0
M  V30 6850 C 1108.67 5.20775 -5.52155 0
M  V30 6851 O 1108.88 4.56534 -4.22446 0
M  V30 6852 C 1110.07 5.62629 -5.96531 0
M  V30 6853 O 1110.46 6.87667 -5.41053 0
M  V30 6854 C 1110.95 4.52537 -5.39283 0
M  V30 6855 C 1110.24 4.20027 -4.08623 0
M  V30 6856 N 1110.29 2.76189 -3.71603 0
M  V30 6857 H 1107.45 4.797 -7.24003 0
M  V30 6858 H 1107.18 3.69856 -5.84513 0
M  V30 6859 H 1108.05 6.10356 -5.41441 0
M  V30 6860 P 1112.01 7.20834 -5.23717 0
M  V30 6861 O 1112.23 8.66104 -5.38572 0
M  V30 6862 O 1112.8 6.33544 -6.1349 0
M  V30 6863 O 1112.26 6.7751 -3.72168 0
M  V30 6864 C 1111.32 7.20825 -2.7076 0
M  V30 6865 C 1112.05 7.45864 -1.40599 0
M  V30 6866 O 1112.26 6.17651 -0.734225 0
M  V30 6867 C 1113.45 8.05808 -1.51899 0
M  V30 6868 O 1113.84 8.74358 -0.335205 0
M  V30 6869 C 1114.33 6.83093 -1.70294 0
M  V30 6870 C 1113.62 5.79992 -0.836974 0
M  V30 6871 N 1113.67 4.41864 -1.38293 0
M  V30 6872 H 1110.83 8.13644 -3.0377 0
M  V30 6873 H 1110.56 6.42788 -2.55485 0
M  V30 6874 H 1111.43 8.12039 -0.792769 0
M  V30 6875 P 1115.39 8.91 8.60137e-12 0
M  V30 6876 O 1115.61 10.1726 0.733694 0
M  V30 6877 O 1116.18 8.73148 -1.23936 0
M  V30 6878 O 1115.64 7.66872 0.971405 0
M  V30 6879 C 1114.7 7.42309 2.04641 0
M  V30 6880 C 1115.43 6.86059 3.24661 0
M  V30 6881 O 1115.64 5.42847 3.03646 0
M  V30 6882 C 1116.83 7.41196 3.50753 0
M  V30 6883 O 1117.22 7.27073 4.86816 0
M  V30 6884 C 1117.71 6.5273 2.63741 0
M  V30 6885 C 1117 5.1842 2.73198 0
M  V30 6886 N 1117.05 4.38762 1.4784 0
M  V30 6887 H 1114.21 8.36803 2.32493 0
M  V30 6888 H 1113.94 6.70197 1.71129 0
M  V30 6889 H 1114.81 7.03551 4.13168 0
M  V30 6890 P 1118.77 7.20834 5.23717 0
M  V30 6891 O 1118.99 7.80006 6.57415 0
M  V30 6892 O 1119.56 7.79416 4.13051 0
M  V30 6893 O 1119.02 5.63315 5.29344 0
M  V30 6894 C 1118.08 4.80318 6.01954 0
M  V30 6895 C 1118.81 3.64202 6.65911 0
M  V30 6896 O 1119.02 2.60736 5.64823 0
M  V30 6897 C 1120.21 3.93521 7.19518 0
M  V30 6898 O 1120.6 3.02071 8.21205 0
M  V30 6899 C 1121.09 3.73047 5.97036 0
M  V30 6900 C 1120.38 2.58828 5.25741 0
M  V30 6901 N 1120.43 2.68068 3.77503 0
M  V30 6902 H 1117.6 5.40394 6.8003 0
M  V30 6903 H 1117.32 4.41741 5.32532 0
M  V30 6904 H 1118.19 3.26371 7.47889 0
M  V30 6905 H 1120.85 1.64007 5.56746 0
M  V30 6906 H 1121.13 4.63439 5.3432 0
M  V30 6907 H 1122.12 3.44776 6.25925 0
M  V30 6908 H 1120.28 4.96707 7.57347 0
M  V30 6909 P 1122.15 2.75334 8.47391 0
M  V30 6910 O 1122.37 2.44571 9.90142 0
M  V30 6911 O 1122.94 3.87688 7.92115 0
M  V30 6912 O 1122.4 1.4459 7.59357 0
M  V30 6913 C 1121.46 0.347608 7.69215 0
M  V30 6914 C 1122.19 -0.96767 7.52806 0
M  V30 6915 O 1122.4 -1.21036 6.1011 0
M  V30 6916 C 1123.59 -1.04544 8.13308 0
M  V30 6917 O 1123.98 -2.38311 8.41922 0
M  V30 6918 C 1124.47 -0.491279 7.02284 0
M  V30 6919 C 1123.76 -0.996264 5.77469 0
M  V30 6920 N 1123.81 -0.0501916 4.62973 0
M  V30 6921 H 1120.97 0.374722 8.67691 0
M  V30 6922 H 1120.7 0.443485 6.90277 0
M  V30 6923 H 1121.57 -1.75537 7.96793 0
M  V30 6924 P 1125.53 -2.75334 8.47391 0
M  V30 6925 O 1125.75 -3.84128 9.44797 0
M  V30 6926 O 1126.32 -1.51947 8.68712 0
M  V30 6927 O 1125.78 -3.29363 6.99321 0
M  V30 6928 C 1124.84 -4.24011 6.4274 0
M  V30 6929 C 1125.57 -5.20775 5.52155 0
M  V30 6930 O 1125.78 -4.56534 4.22446 0
M  V30 6931 C 1126.97 -5.62629 5.96531 0
M  V30 6932 O 1127.36 -6.87667 5.41053 0
M  V30 6933 C 1127.85 -4.52537 5.39283 0
M  V30 6934 C 1127.14 -4.20027 4.08623 0
M  V30 6935 N 1127.19 -2.76189 3.71603 0
M  V30 6936 H 1124.35 -4.797 7.24003 0
M  V30 6937 H 1124.08 -3.69856 5.84513 0
M  V30 6938 H 1124.95 -6.10356 5.41441 0
M  V30 6939 H 1127.23 -6.85814 4.46035 0
M  V30 6940 H 1131.25 5.51656 -7.74769 0
M  V30 6941 O 1131.13 4.58361 -7.63359 0
M  V30 6942 P 1129.69 4.23843 -7.83734 0
M  V30 6943 O 1129.47 4.19407 -9.29784 0
M  V30 6944 O 1128.9 5.24426 -7.09156 0
M  V30 6945 O 1129.44 2.7935 -7.20758 0
M  V30 6946 C 1130.38 1.7299 -7.50419 0
M  V30 6947 C 1129.65 0.406376 -7.57911 0
M  V30 6948 O 1129.44 -0.0897726 -6.21935 0
M  V30 6949 C 1128.25 0.447224 -8.1878 0
M  V30 6950 O 1127.86 -0.825065 -8.71101 0
M  V30 6951 C 1127.37 0.783801 -6.99623 0
M  V30 6952 C 1128.08 0.0619192 -5.85967 0
M  V30 6953 N 1128.03 0.7859 -4.56281 0
M  V30 6954 H 1130.87 1.93423 -8.4679 0
M  V30 6955 H 1131.14 1.68181 -6.71046 0
M  V30 6956 H 1130.28 -0.289041 -8.15388 0
M  V30 6957 P 1126.31 -1.17771 -8.83182 0
M  V30 6958 O 1126.09 -2.07206 -9.98732 0
M  V30 6959 O 1125.52 0.0743816 -8.81969 0
M  V30 6960 O 1126.06 -1.97652 -7.47304 0
M  V30 6961 C 1127 -3.01133 -7.08783 0
M  V30 6962 C 1126.27 -4.12613 -6.37049 0
M  V30 6963 O 1126.06 -3.72827 -4.97879 0
M  V30 6964 C 1124.87 -4.45085 -6.88694 0
M  V30 6965 O 1124.48 -5.7877 -6.5624 0
M  V30 6966 C 1123.99 -3.47817 -6.12078 0
M  V30 6967 C 1124.7 -3.39414 -4.77697 0
M  V30 6968 N 1124.65 -2.04199 -4.15538 0
M  V30 6969 H 1127.49 -3.41248 -7.98759 0
M  V30 6970 H 1127.76 -2.57728 -6.42 0
M  V30 6971 H 1126.9 -5.02657 -6.42673 0
M  V30 6972 H 1124.24 -4.11708 -4.08956 0
M  V30 6973 H 1123.96 -2.49626 -6.61679 0
M  V30 6974 H 1122.97 -3.8662 -6.00862 0
M  V30 6975 H 1124.8 -4.29991 -7.97006 0
M  V30 6976 P 1122.93 -6.144 -6.45285 0
M  V30 6977 O 1122.71 -7.54673 -6.86199 0
M  V30 6978 O 1122.14 -5.12391 -7.179 0
M  V30 6979 O 1122.68 -5.99158 -4.88404 0
M  V30 6980 C 1123.62 -6.60234 -3.96415 0
M  V30 6981 C 1122.89 -7.08259 -2.72856 0
M  V30 6982 O 1122.68 -5.9427 -1.83651 0
M  V30 6983 C 1121.49 -7.64886 -2.9555 0
M  V30 6984 O 1121.1 -8.53963 -1.90717 0
M  V30 6985 C 1120.61 -6.4116 -2.90739 0
M  V30 6986 C 1121.32 -5.55375 -1.86963 0
M  V30 6987 N 1121.27 -4.09664 -2.15742 0
M  V30 6988 H 1124.11 -7.45574 -4.45629 0
M  V30 6989 H 1124.38 -5.86232 -3.67314 0
M  V30 6990 H 1123.52 -7.84412 -2.24479 0
M  V30 6991 P 1119.55 -8.7635 -1.60911 0
M  V30 6992 O 1119.33 -10.1388 -1.11561 0
M  V30 6993 O 1118.76 -8.36503 -2.79617 0
M  V30 6994 O 1119.3 -7.71806 -0.42951 0
M  V30 6995 C 1120.24 -7.67148 0.673689 0
M  V30 6996 C 1119.51 -7.33374 1.95559 0
M  V30 6997 O 1119.3 -5.88721 2.00726 0
M  V30 6998 C 1118.11 -7.92526 2.10483 0
M  V30 6999 O 1117.72 -8.02971 3.47653 0
M  V30 7000 C 1117.23 -6.89602 1.41652 0
M  V30 7001 C 1117.94 -5.59201 1.75185 0
M  V30 7002 N 1117.89 -4.58301 0.657969 0
M  V30 7003 H 1120.73 -8.65116 0.777161 0
M  V30 7004 H 1121 -6.9022 0.46725 0
M  V30 7005 H 1120.14 -7.66548 2.79458 0
M  V30 7006 H 1117.48 -5.16165 2.65183 0
M  V30 7007 H 1117.2 -7.06433 0.329384 0
M  V30 7008 H 1116.21 -6.90926 1.82021 0
M  V30 7009 H 1118.04 -8.90873 1.62657 0
M  V30 7010 P 1116.17 -8.03563 3.84925 0
M  V30 7011 O 1115.95 -8.85821 5.0569 0
M  V30 7012 O 1115.38 -8.41101 2.65469 0
M  V30 7013 O 1115.92 -6.4965 4.18908 0
M  V30 7014 C 1116.86 -5.81037 5.05421 0
M  V30 7015 C 1116.13 -4.78366 5.89277 0
M  V30 7016 O 1115.92 -3.58302 5.08433 0
M  V30 7017 C 1114.73 -5.17448 6.36119 0
M  V30 7018 O 1114.34 -4.45271 7.53232 0
M  V30 7019 C 1113.85 -4.74639 5.19936 0
M  V30 7020 C 1114.56 -3.49432 4.70418 0
M  V30 7021 N 1114.51 -3.31776 3.22945 0
M  V30 7022 H 1117.35 -6.54213 5.71376 0
M  V30 7023 H 1117.62 -5.30492 4.44033 0
M  V30 7024 H 1116.76 -4.55889 6.76652 0
M  V30 7025 P 1112.79 -4.23843 7.83734 0
M  V30 7026 O 1112.57 -4.19407 9.29784 0
M  V30 7027 O 1112 -5.24426 7.09156 0
M  V30 7028 O 1112.54 -2.7935 7.20758 0
M  V30 7029 C 1113.48 -1.7299 7.50419 0
M  V30 7030 C 1112.75 -0.406376 7.57911 0
M  V30 7031 O 1112.54 0.0897726 6.21935 0
M  V30 7032 C 1111.35 -0.447224 8.1878 0
M  V30 7033 O 1110.96 0.825065 8.71101 0
M  V30 7034 C 1110.47 -0.783801 6.99623 0
M  V30 7035 C 1111.18 -0.0619192 5.85967 0
M  V30 7036 N 1111.13 -0.7859 4.56281 0
M  V30 7037 H 1113.97 -1.93423 8.4679 0
M  V30 7038 H 1114.24 -1.68181 6.71046 0
M  V30 7039 H 1113.38 0.289041 8.15388 0
M  V30 7040 P 1109.41 1.17771 8.83182 0
M  V30 7041 O 1109.19 2.07206 9.98732 0
M  V30 7042 O 1108.62 -0.0743816 8.81969 0
M  V30 7043 O 1109.16 1.97652 7.47304 0
M  V30 7044 C 1110.1 3.01133 7.08783 0
M  V30 7045 C 1109.37 4.12613 6.37049 0
M  V30 7046 O 1109.16 3.72827 4.97879 0
M  V30 7047 C 1107.97 4.45085 6.88694 0
M  V30 7048 O 1107.58 5.7877 6.5624 0
M  V30 7049 C 1107.09 3.47817 6.12078 0
M  V30 7050 C 1107.8 3.39414 4.77697 0
M  V30 7051 N 1107.75 2.04199 4.15538 0
M  V30 7052 H 1110.59 3.41248 7.98759 0
M  V30 7053 H 1110.86 2.57728 6.42 0
M  V30 7054 H 1110 5.02657 6.42673 0
M  V30 7055 H 1107.34 4.11708 4.08956 0
M  V30 7056 H 1107.06 2.49626 6.61679 0
M  V30 7057 H 1106.07 3.8662 6.00862 0
M  V30 7058 H 1107.9 4.29991 7.97006 0
M  V30 7059 P 1106.03 6.144 6.45285 0
M  V30 7060 O 1105.81 7.54673 6.86199 0
M  V30 7061 O 1105.24 5.12391 7.179 0
M  V30 7062 O 1105.78 5.99158 4.88404 0
M  V30 7063 C 1106.72 6.60234 3.96415 0
M  V30 7064 C 1105.99 7.08259 2.72856 0
M  V30 7065 O 1105.78 5.9427 1.83651 0
M  V30 7066 C 1104.59 7.64886 2.9555 0
M  V30 7067 O 1104.2 8.53963 1.90717 0
M  V30 7068 C 1103.71 6.4116 2.90739 0
M  V30 7069 C 1104.42 5.55375 1.86963 0
M  V30 7070 N 1104.37 4.09664 2.15742 0
M  V30 7071 H 1107.21 7.45574 4.45629 0
M  V30 7072 H 1107.48 5.86232 3.67314 0
M  V30 7073 H 1106.62 7.84412 2.24479 0
M  V30 7074 P 1102.65 8.7635 1.60911 0
M  V30 7075 O 1102.43 10.1388 1.11561 0
M  V30 7076 O 1101.86 8.36503 2.79617 0
M  V30 7077 O 1102.4 7.71806 0.42951 0
M  V30 7078 C 1103.34 7.67148 -0.673689 0
M  V30 7079 C 1102.61 7.33374 -1.95559 0
M  V30 7080 O 1102.4 5.88721 -2.00726 0
M  V30 7081 C 1101.21 7.92526 -2.10483 0
M  V30 7082 O 1100.82 8.02971 -3.47653 0
M  V30 7083 C 1100.33 6.89602 -1.41652 0
M  V30 7084 C 1101.04 5.59201 -1.75185 0
M  V30 7085 N 1100.99 4.58301 -0.657969 0
M  V30 7086 H 1103.83 8.65116 -0.777161 0
M  V30 7087 H 1104.1 6.9022 -0.46725 0
M  V30 7088 H 1103.24 7.66548 -2.79458 0
M  V30 7089 H 1100.58 5.16165 -2.65183 0
M  V30 7090 H 1100.3 7.06433 -0.329384 0
M  V30 7091 H 1099.31 6.90926 -1.82021 0
M  V30 7092 H 1101.14 8.90873 -1.62657 0
M  V30 7093 P 1099.27 8.03563 -3.84925 0
M  V30 7094 O 1099.05 8.85821 -5.0569 0
M  V30 7095 O 1098.48 8.41101 -2.65469 0
M  V30 7096 O 1099.02 6.4965 -4.18908 0
M  V30 7097 C 1099.96 5.80886 -5.05289 0
M  V30 7098 C 1099.23 4.78366 -5.89277 0
M  V30 7099 O 1099.02 3.58302 -5.08433 0
M  V30 7100 C 1097.83 5.16748 -6.36559 0
M  V30 7101 O 1097.44 4.45271 -7.53232 0
M  V30 7102 C 1096.95 4.74572 -5.19863 0
M  V30 7103 C 1097.66 3.49373 -4.70338 0
M  V30 7104 N 1097.61 3.31704 -3.22876 0
M  V30 7105 C 1097.46 2.03326 -2.74871 0
M  V30 7106 O 1097.37 1.06486 -3.48076 0
M  V30 7107 N 1097.42 1.91838 -1.37456 0
M  V30 7108 C 1097.51 2.94295 -0.462035 0
M  V30 7109 C 1097.66 4.25064 -1.05249 0
M  V30 7110 C 1097.71 4.40214 -2.39192 0
M  V30 7111 H 1100.45 6.54063 -5.71245 0
M  V30 7112 H 1100.72 5.30339 -4.43905 0
M  V30 7113 H 1099.86 4.55889 -6.76652 0
M  V30 7114 H 1097.2 2.6167 -5.17842 0
M  V30 7115 H 1096.92 5.52155 -4.41878 0
M  V30 7116 H 1095.93 4.51918 -5.53297 0
M  V30 7117 H 1097.76 6.25055 -6.55162 0
M  V30 7118 H 1097.84 5.39798 -2.81523 0
M  V30 7119 P 1095.89 4.23843 -7.83734 0
M  V30 7120 O 1095.67 4.19407 -9.29784 0
M  V30 7121 O 1095.1 5.24426 -7.09156 0
M  V30 7122 O 1095.64 2.7935 -7.20758 0
M  V30 7123 C 1096.58 1.7299 -7.50419 0
M  V30 7124 C 1095.85 0.406376 -7.57911 0
M  V30 7125 O 1095.64 -0.0897726 -6.21935 0
M  V30 7126 C 1094.45 0.447224 -8.1878 0
M  V30 7127 O 1094.06 -0.825065 -8.71101 0
M  V30 7128 C 1093.57 0.783801 -6.99623 0
M  V30 7129 C 1094.28 0.0619192 -5.85967 0
M  V30 7130 N 1094.23 0.790462 -4.56202 0
M  V30 7131 C 1094.31 2.13895 -4.34171 0
M  V30 7132 N 1094.24 2.46449 -3.08687 0
M  V30 7133 C 1094.09 1.2525 -2.43697 0
M  V30 7134 C 1093.96 0.914535 -1.07318 0
M  V30 7135 N 1093.95 1.80782 -0.0887348 0
M  V30 7136 N 1093.84 -0.386745 -0.768133 0
M  V30 7137 C 1093.85 -1.28096 -1.75159 0
M  V30 7138 N 1093.97 -1.09708 -3.04861 0
M  V30 7139 C 1094.09 0.214857 -3.32306 0
M  V30 7140 H 1097.07 1.93423 -8.4679 0
M  V30 7141 H 1097.34 1.68852 -6.70877 0
M  V30 7142 H 1096.48 -0.289041 -8.15388 0
M  V30 7143 H 1093.82 -0.927006 -5.72848 0
M  V30 7144 H 1093.54 1.86973 -6.82036 0
M  V30 7145 H 1092.55 0.403953 -7.13357 0
M  V30 7146 H 1094.38 1.20599 -8.97534 0
M  V30 7147 H 1094.43 2.86846 -5.14318 0
M  V30 7148 H 1094.04 2.81082 -0.302037 0
M  V30 7149 H 1093.86 1.49688 0.889064 0
M  V30 7150 H 1093.75 -2.31317 -1.43855 0
M  V30 7151 P 1092.51 -1.17771 -8.83182 0
M  V30 7152 O 1092.29 -2.07206 -9.98732 0
M  V30 7153 O 1091.72 0.0743816 -8.81969 0
M  V30 7154 O 1092.26 -1.97652 -7.47304 0
M  V30 7155 C 1093.2 -3.01133 -7.08783 0
M  V30 7156 C 1092.47 -4.12613 -6.37049 0
M  V30 7157 O 1092.26 -3.72827 -4.97879 0
M  V30 7158 C 1091.07 -4.45085 -6.88694 0
M  V30 7159 O 1090.68 -5.7877 -6.5624 0
M  V30 7160 C 1090.19 -3.47817 -6.12078 0
M  V30 7161 C 1090.9 -3.39414 -4.77697 0
M  V30 7162 N 1090.85 -2.04615 -4.15333 0
M  V30 7163 H 1093.69 -3.41248 -7.98759 0
M  V30 7164 H 1093.96 -2.5837 -6.41742 0
M  V30 7165 H 1093.1 -5.02657 -6.42673 0
M  V30 7166 P 1089.13 -6.144 -6.45285 0
M  V30 7167 O 1088.91 -7.54673 -6.86199 0
M  V30 7168 O 1088.34 -5.12391 -7.179 0
M  V30 7169 O 1088.88 -5.99158 -4.88404 0
M  V30 7170 C 1089.82 -6.60234 -3.96415 0
M  V30 7171 C 1089.09 -7.08259 -2.72856 0
M  V30 7172 O 1088.88 -5.9427 -1.83651 0
M  V30 7173 C 1087.69 -7.64886 -2.9555 0
M  V30 7174 O 1087.3 -8.53963 -1.90717 0
M  V30 7175 C 1086.81 -6.4116 -2.90739 0
M  V30 7176 C 1087.52 -5.55375 -1.86963 0
M  V30 7177 N 1087.47 -4.09664 -2.15742 0
M  V30 7178 H 1090.31 -7.45574 -4.45629 0
M  V30 7179 H 1090.58 -5.86232 -3.67314 0
M  V30 7180 H 1089.72 -7.84412 -2.24479 0
M  V30 7181 P 1085.75 -8.7635 -1.60911 0
M  V30 7182 O 1085.53 -10.1388 -1.11561 0
M  V30 7183 O 1084.96 -8.36503 -2.79617 0
M  V30 7184 O 1085.5 -7.71806 -0.42951 0
M  V30 7185 C 1086.44 -7.67148 0.673689 0
M  V30 7186 C 1085.71 -7.33374 1.95559 0
M  V30 7187 O 1085.5 -5.88721 2.00726 0
M  V30 7188 C 1084.31 -7.92526 2.10483 0
M  V30 7189 O 1083.92 -8.02971 3.47653 0
M  V30 7190 C 1083.43 -6.89602 1.41652 0
M  V30 7191 C 1084.14 -5.59201 1.75185 0
M  V30 7192 N 1084.09 -4.58235 0.662552 0
M  V30 7193 C 1084.17 -4.7683 -0.704049 0
M  V30 7194 N 1084.09 -3.66233 -1.39775 0
M  V30 7195 C 1083.95 -2.66526 -0.431739 0
M  V30 7196 C 1083.82 -1.26394 -0.575992 0
M  V30 7197 N 1083.7 -0.62859 0.67177 0
M  V30 7198 C 1083.7 -1.27134 1.89385 0
M  V30 7199 N 1083.57 -0.492035 2.96951 0
M  V30 7200 N 1083.83 -2.58978 2.02907 0
M  V30 7201 C 1083.95 -3.22433 0.832218 0
M  V30 7202 H 1086.93 -8.65116 0.777161 0
M  V30 7203 H 1087.2 -6.90173 0.474152 0
M  V30 7204 H 1086.34 -7.66548 2.79458 0
M  V30 7205 P 1082.37 -8.03563 3.84925 0
M  V30 7206 O 1082.15 -8.85821 5.0569 0
M  V30 7207 O 1081.58 -8.41101 2.65469 0
M  V30 7208 O 1082.12 -6.4965 4.18908 0
M  V30 7209 C 1083.06 -5.80886 5.05289 0
M  V30 7210 C 1082.33 -4.78366 5.89277 0
M  V30 7211 O 1082.12 -3.58302 5.08433 0
M  V30 7212 C 1080.93 -5.16748 6.36559 0
M  V30 7213 O 1080.54 -4.45271 7.53232 0
M  V30 7214 C 1080.05 -4.74572 5.19863 0
M  V30 7215 C 1080.76 -3.49373 4.70338 0
M  V30 7216 N 1080.71 -3.31704 3.22876 0
M  V30 7217 C 1080.56 -2.03326 2.74871 0
M  V30 7218 O 1080.47 -1.06486 3.48076 0
M  V30 7219 N 1080.52 -1.91838 1.37456 0
M  V30 7220 C 1080.61 -2.94295 0.462035 0
M  V30 7221 C 1080.76 -4.25064 1.05249 0
M  V30 7222 C 1080.81 -4.40214 2.39192 0
M  V30 7223 H 1083.55 -6.54063 5.71245 0
M  V30 7224 H 1083.82 -5.30339 4.43905 0
M  V30 7225 H 1082.96 -4.55889 6.76652 0
M  V30 7226 H 1080.3 -2.6167 5.17842 0
M  V30 7227 H 1080.02 -5.52155 4.41878 0
M  V30 7228 H 1079.03 -4.51918 5.53297 0
M  V30 7229 H 1080.86 -6.25055 6.55162 0
M  V30 7230 H 1080.94 -5.39798 2.81523 0
M  V30 7231 P 1078.99 -4.23843 7.83734 0
M  V30 7232 O 1078.77 -4.19407 9.29784 0
M  V30 7233 O 1078.2 -5.24426 7.09156 0
M  V30 7234 O 1078.74 -2.7935 7.20758 0
M  V30 7235 C 1079.68 -1.7299 7.50419 0
M  V30 7236 C 1078.95 -0.406376 7.57911 0
M  V30 7237 O 1078.74 0.0897726 6.21935 0
M  V30 7238 C 1077.55 -0.447224 8.1878 0
M  V30 7239 O 1077.16 0.825065 8.71101 0
M  V30 7240 C 1076.67 -0.783801 6.99623 0
M  V30 7241 C 1077.38 -0.0619192 5.85967 0
M  V30 7242 N 1077.33 -0.7859 4.56281 0
M  V30 7243 H 1080.17 -1.93423 8.4679 0
M  V30 7244 H 1080.44 -1.68181 6.71046 0
M  V30 7245 H 1079.58 0.289041 8.15388 0
M  V30 7246 P 1075.61 1.17771 8.83182 0
M  V30 7247 O 1075.39 2.07206 9.98732 0
M  V30 7248 O 1074.82 -0.0743816 8.81969 0
M  V30 7249 O 1075.36 1.97652 7.47304 0
M  V30 7250 C 1076.3 3.01055 7.08599 0
M  V30 7251 C 1075.57 4.12613 6.37049 0
M  V30 7252 O 1075.36 3.72827 4.97879 0
M  V30 7253 C 1074.17 4.45719 6.88164 0
M  V30 7254 O 1073.78 5.7877 6.5624 0
M  V30 7255 C 1073.29 3.47768 6.11991 0
M  V30 7256 C 1074 3.39356 4.77615 0
M  V30 7257 N 1073.95 2.04571 4.15244 0
M  V30 7258 C 1073.8 1.98587 2.78314 0
M  V30 7259 O 1073.71 2.98134 2.08835 0
M  V30 7260 N 1073.76 0.714467 2.24925 0
M  V30 7261 C 1073.85 -0.470001 2.94169 0
M  V30 7262 O 1073.8 -1.55587 2.35195 0
M  V30 7263 C 1074 -0.312541 4.36783 0
M  V30 7264 C 1074.11 -1.57711 5.16352 0
M  V30 7265 C 1074.05 0.914512 4.92583 0
M  V30 7266 H 1076.79 3.41169 7.98575 0
M  V30 7267 H 1077.06 2.58295 6.41556 0
M  V30 7268 H 1076.2 5.02657 6.42673 0
M  V30 7269 H 1073.54 4.11637 4.08885 0
M  V30 7270 H 1073.26 2.49626 6.61679 0
M  V30 7271 H 1072.27 3.86566 6.00778 0
M  V30 7272 H 1074.1 4.29943 7.96918 0
M  V30 7273 H 1074.18 1.00937 6.00374 0
M  V30 7274 H 1073.15 -1.80153 5.63503 0
M  V30 7275 H 1074.88 -1.4566 5.94104 0
M  V30 7276 H 1074.39 -2.40664 4.49645 0
M  V30 7277 H 1073.66 0.647622 1.25697 0
M  V30 7278 P 1072.23 6.144 6.45285 0
M  V30 7279 O 1072.01 7.54673 6.86199 0
M  V30 7280 O 1071.44 5.12391 7.179 0
M  V30 7281 O 1071.98 5.99158 4.88404 0
M  V30 7282 C 1072.92 6.60234 3.96415 0
M  V30 7283 C 1072.19 7.08259 2.72856 0
M  V30 7284 O 1071.98 5.9427 1.83651 0
M  V30 7285 C 1070.79 7.64886 2.9555 0
M  V30 7286 O 1070.4 8.53963 1.90717 0
M  V30 7287 C 1069.91 6.4116 2.90739 0
M  V30 7288 C 1070.62 5.55375 1.86963 0
M  V30 7289 N 1070.57 4.09664 2.15742 0
M  V30 7290 H 1073.41 7.45574 4.45629 0
M  V30 7291 H 1073.68 5.86232 3.67314 0
M  V30 7292 H 1072.82 7.84412 2.24479 0
M  V30 7293 P 1068.85 8.7635 1.60911 0
M  V30 7294 O 1068.63 10.1388 1.11561 0
M  V30 7295 O 1068.06 8.36503 2.79617 0
M  V30 7296 O 1068.6 7.71806 0.42951 0
M  V30 7297 C 1069.54 7.67148 -0.673689 0
M  V30 7298 C 1068.81 7.33374 -1.95559 0
M  V30 7299 O 1068.6 5.88721 -2.00726 0
M  V30 7300 C 1067.41 7.92526 -2.10483 0
M  V30 7301 O 1067.02 8.02971 -3.47653 0
M  V30 7302 C 1066.53 6.89602 -1.41652 0
M  V30 7303 C 1067.24 5.59201 -1.75185 0
M  V30 7304 N 1067.19 4.58235 -0.662552 0
M  V30 7305 H 1070.03 8.65116 -0.777161 0
M  V30 7306 H 1070.3 6.90173 -0.474152 0
M  V30 7307 H 1069.44 7.66548 -2.79458 0
M  V30 7308 P 1065.47 8.03563 -3.84925 0
M  V30 7309 O 1065.25 8.85821 -5.0569 0
M  V30 7310 O 1064.68 8.41101 -2.65469 0
M  V30 7311 O 1065.22 6.4965 -4.18908 0
M  V30 7312 C 1066.16 5.81037 -5.05421 0
M  V30 7313 C 1065.43 4.78366 -5.89277 0
M  V30 7314 O 1065.22 3.58302 -5.08433 0
M  V30 7315 C 1064.03 5.17448 -6.36119 0
M  V30 7316 O 1063.64 4.45271 -7.53232 0
M  V30 7317 C 1063.15 4.74639 -5.19936 0
M  V30 7318 C 1063.86 3.49432 -4.70418 0
M  V30 7319 N 1063.81 3.31776 -3.22945 0
M  V30 7320 H 1066.65 6.54213 -5.71376 0
M  V30 7321 H 1066.92 5.30492 -4.44033 0
M  V30 7322 H 1066.06 4.55889 -6.76652 0
M  V30 7323 P 1062.09 4.23843 -7.83734 0
M  V30 7324 O 1061.87 4.19407 -9.29784 0
M  V30 7325 O 1061.3 5.24426 -7.09156 0
M  V30 7326 O 1061.84 2.7935 -7.20758 0
M  V30 7327 C 1062.78 1.7299 -7.50419 0
M  V30 7328 C 1062.05 0.406376 -7.57911 0
M  V30 7329 O 1061.84 -0.0897726 -6.21935 0
M  V30 7330 C 1060.65 0.447224 -8.1878 0
M  V30 7331 O 1060.26 -0.825065 -8.71101 0
M  V30 7332 C 1059.77 0.783801 -6.99623 0
M  V30 7333 C 1060.48 0.0619192 -5.85967 0
M  V30 7334 N 1060.43 0.7859 -4.56281 0
M  V30 7335 H 1063.27 1.93423 -8.4679 0
M  V30 7336 H 1063.54 1.68181 -6.71046 0
M  V30 7337 H 1062.68 -0.289041 -8.15388 0
M  V30 7338 P 1058.71 -1.17771 -8.83182 0
M  V30 7339 O 1058.49 -2.07206 -9.98732 0
M  V30 7340 O 1057.92 0.0743816 -8.81969 0
M  V30 7341 O 1058.46 -1.97652 -7.47304 0
M  V30 7342 C 1059.4 -3.01133 -7.08783 0
M  V30 7343 C 1058.67 -4.12613 -6.37049 0
M  V30 7344 O 1058.46 -3.72827 -4.97879 0
M  V30 7345 C 1057.27 -4.45085 -6.88694 0
M  V30 7346 O 1056.88 -5.7877 -6.5624 0
M  V30 7347 C 1056.39 -3.47817 -6.12078 0
M  V30 7348 C 1057.1 -3.39414 -4.77697 0
M  V30 7349 N 1057.05 -2.04615 -4.15333 0
M  V30 7350 H 1059.89 -3.41248 -7.98759 0
M  V30 7351 H 1060.16 -2.5837 -6.41742 0
M  V30 7352 H 1059.3 -5.02657 -6.42673 0
M  V30 7353 P 1055.33 -6.144 -6.45285 0
M  V30 7354 O 1055.11 -7.54673 -6.86199 0
M  V30 7355 O 1054.54 -5.12391 -7.179 0
M  V30 7356 O 1055.08 -5.99158 -4.88404 0
M  V30 7357 C 1056.02 -6.60234 -3.96415 0
M  V30 7358 C 1055.29 -7.08259 -2.72856 0
M  V30 7359 O 1055.08 -5.9427 -1.83651 0
M  V30 7360 C 1053.89 -7.64886 -2.9555 0
M  V30 7361 O 1053.5 -8.53963 -1.90717 0
M  V30 7362 C 1053.01 -6.4116 -2.90739 0
M  V30 7363 C 1053.72 -5.55375 -1.86963 0
M  V30 7364 N 1053.67 -4.09664 -2.15742 0
M  V30 7365 C 1053.75 -3.44381 -3.37233 0
M  V30 7366 N 1053.67 -2.14131 -3.28347 0
M  V30 7367 C 1053.53 -1.90247 -1.91588 0
M  V30 7368 C 1053.4 -0.683992 -1.20892 0
M  V30 7369 O 1053.38 0.46618 -1.64523 0
M  V30 7370 N 1053.28 -0.903396 0.173998 0
M  V30 7371 C 1053.28 -2.14171 0.784879 0
M  V30 7372 N 1053.15 -2.1435 2.11317 0
M  V30 7373 N 1053.41 -3.28784 0.119316 0
M  V30 7374 C 1053.53 -3.0977 -1.22194 0
M  V30 7375 H 1056.51 -7.45574 -4.45629 0
M  V30 7376 H 1056.78 -5.86232 -3.67314 0
M  V30 7377 H 1055.92 -7.84412 -2.24479 0
M  V30 7378 H 1053.26 -5.73556 -0.888715 0
M  V30 7379 H 1052.98 -5.9096 -3.88638 0
M  V30 7380 H 1051.99 -6.66053 -2.58894 0
M  V30 7381 H 1053.82 -8.16429 -3.92093 0
M  V30 7382 H 1053.87 -3.96785 -4.32043 0
M  V30 7383 H 1053.19 -0.0999567 0.761467 0
M  V30 7384 H 1053.15 -3.03436 2.63076 0
M  V30 7385 H 1053.05 -1.25228 2.62233 0
M  V30 7386 P 1051.95 -8.7635 -1.60911 0
M  V30 7387 O 1051.73 -10.1388 -1.11561 0
M  V30 7388 O 1051.16 -8.36503 -2.79617 0
M  V30 7389 O 1051.7 -7.71806 -0.42951 0
M  V30 7390 C 1052.64 -7.67148 0.673689 0
M  V30 7391 C 1051.91 -7.33374 1.95559 0
M  V30 7392 O 1051.7 -5.88721 2.00726 0
M  V30 7393 C 1050.51 -7.92526 2.10483 0
M  V30 7394 O 1050.12 -8.02971 3.47653 0
M  V30 7395 C 1049.63 -6.89602 1.41652 0
M  V30 7396 C 1050.34 -5.59201 1.75185 0
M  V30 7397 N 1050.29 -4.58301 0.657969 0
M  V30 7398 C 1050.37 -4.79019 -0.692603 0
M  V30 7399 N 1050.3 -3.69736 -1.38998 0
M  V30 7400 C 1050.15 -2.70474 -0.438135 0
M  V30 7401 C 1050.02 -1.30327 -0.538142 0
M  V30 7402 N 1050.01 -0.64304 -1.69192 0
M  V30 7403 N 1049.9 -0.611027 0.605183 0
M  V30 7404 C 1049.91 -1.27002 1.75953 0
M  V30 7405 N 1050.03 -2.56038 1.98546 0
M  V30 7406 C 1050.15 -3.22681 0.822541 0
M  V30 7407 H 1053.13 -8.65116 0.777161 0
M  V30 7408 H 1053.4 -6.9022 0.46725 0
M  V30 7409 H 1052.54 -7.66548 2.79458 0
M  V30 7410 H 1049.88 -5.16165 2.65183 0
M  V30 7411 H 1049.6 -7.06433 0.329384 0
M  V30 7412 H 1048.61 -6.90926 1.82021 0
M  V30 7413 H 1050.44 -8.90873 1.62657 0
M  V30 7414 H 1050.49 -5.77785 -1.13874 0
M  V30 7415 H 1050.1 -1.15585 -2.57991 0
M  V30 7416 H 1049.92 0.382989 -1.69835 0
M  V30 7417 H 1049.81 -0.653331 2.64449 0
M  V30 7418 P 1048.57 -8.03563 3.84925 0
M  V30 7419 O 1048.35 -8.85821 5.0569 0
M  V30 7420 O 1047.78 -8.41101 2.65469 0
M  V30 7421 O 1048.32 -6.49734 4.18962 0
M  V30 7422 C 1049.26 -5.81037 5.05421 0
M  V30 7423 C 1048.53 -4.79018 5.88876 0
M  V30 7424 O 1048.32 -3.58359 5.08515 0
M  V30 7425 C 1047.13 -5.17448 6.36119 0
M  V30 7426 O 1046.74 -4.45322 7.53318 0
M  V30 7427 C 1046.25 -4.74639 5.19936 0
M  V30 7428 C 1046.96 -3.49432 4.70418 0
M  V30 7429 N 1046.91 -3.31776 3.22945 0
M  V30 7430 C 1046.76 -2.02742 2.72939 0
M  V30 7431 O 1046.67 -1.08301 3.52749 0
M  V30 7432 N 1046.71 -1.96117 1.22063 0
M  V30 7433 C 1046.81 -2.8878 0.551566 0
M  V30 7434 N 1046.76 -2.65609 -0.750198 0
M  V30 7435 C 1046.96 -4.22457 1.03707 0
M  V30 7436 C 1047.01 -4.37979 2.39113 0
M  V30 7437 H 1049.75 -6.54138 5.7131 0
M  V30 7438 H 1050.02 -5.30492 4.44033 0
M  V30 7439 H 1049.16 -4.55945 6.76735 0
M  V30 7440 H 1046.5 -2.6176 5.18021 0
M  V30 7441 H 1046.22 -5.52233 4.41941 0
M  V30 7442 H 1045.23 -4.52045 5.53452 0
M  V30 7443 H 1047.06 -6.25124 6.55234 0
M  V30 7444 H 1047.14 -5.37936 2.80552 0
M  V30 7445 H 1047.03 -5.07528 0.359553 0
M  V30 7446 H 1046.65 -1.69403 -1.09847 0
M  V30 7447 H 1046.84 -3.43701 -1.41792 0
M  V30 7448 P 1045.19 -4.23843 7.83734 0
M  V30 7449 O 1044.97 -4.19407 9.29784 0
M  V30 7450 O 1044.4 -5.24426 7.09156 0
M  V30 7451 O 1044.94 -2.7935 7.20758 0
M  V30 7452 C 1045.88 -1.7299 7.50419 0
M  V30 7453 C 1045.15 -0.406376 7.57911 0
M  V30 7454 O 1044.94 0.0897726 6.21935 0
M  V30 7455 C 1043.75 -0.447224 8.1878 0
M  V30 7456 O 1043.36 0.825065 8.71101 0
M  V30 7457 C 1042.87 -0.783801 6.99623 0
M  V30 7458 C 1043.58 -0.0619192 5.85967 0
M  V30 7459 N 1043.53 -0.7859 4.56281 0
M  V30 7460 H 1046.37 -1.93423 8.4679 0
M  V30 7461 H 1046.64 -1.68181 6.71046 0
M  V30 7462 H 1045.78 0.289041 8.15388 0
M  V30 7463 P 1041.81 1.17771 8.83182 0
M  V30 7464 O 1041.59 2.07206 9.98732 0
M  V30 7465 O 1041.02 -0.0743816 8.81969 0
M  V30 7466 O 1041.56 1.97652 7.47304 0
M  V30 7467 C 1042.5 3.01133 7.08783 0
M  V30 7468 C 1041.77 4.12613 6.37049 0
M  V30 7469 O 1041.56 3.72827 4.97879 0
M  V30 7470 C 1040.37 4.45085 6.88694 0
M  V30 7471 O 1039.98 5.7877 6.5624 0
M  V30 7472 C 1039.49 3.47817 6.12078 0
M  V30 7473 C 1040.2 3.39414 4.77697 0
M  V30 7474 N 1040.15 2.04615 4.15333 0
M  V30 7475 H 1042.99 3.41248 7.98759 0
M  V30 7476 H 1043.26 2.5837 6.41742 0
M  V30 7477 H 1042.4 5.02657 6.42673 0
M  V30 7478 P 1038.43 6.144 6.45285 0
M  V30 7479 O 1038.21 7.54673 6.86199 0
M  V30 7480 O 1037.64 5.12391 7.179 0
M  V30 7481 O 1038.18 5.99158 4.88404 0
M  V30 7482 C 1039.12 6.60234 3.96415 0
M  V30 7483 C 1038.39 7.08259 2.72856 0
M  V30 7484 O 1038.18 5.9427 1.83651 0
M  V30 7485 C 1036.99 7.64886 2.9555 0
M  V30 7486 O 1036.6 8.53963 1.90717 0
M  V30 7487 C 1036.11 6.4116 2.90739 0
M  V30 7488 C 1036.82 5.55375 1.86963 0
M  V30 7489 N 1036.77 4.09664 2.15742 0
M  V30 7490 H 1039.61 7.45574 4.45629 0
M  V30 7491 H 1039.88 5.86232 3.67314 0
M  V30 7492 H 1039.02 7.84412 2.24479 0
M  V30 7493 P 1035.05 8.7635 1.60911 0
M  V30 7494 O 1034.83 10.1388 1.11561 0
M  V30 7495 O 1034.26 8.36503 2.79617 0
M  V30 7496 O 1034.8 7.71806 0.42951 0
M  V30 7497 C 1035.74 7.67148 -0.673689 0
M  V30 7498 C 1035.01 7.33374 -1.95559 0
M  V30 7499 O 1034.8 5.88721 -2.00726 0
M  V30 7500 C 1033.61 7.92526 -2.10483 0
M  V30 7501 O 1033.22 8.02971 -3.47653 0
M  V30 7502 C 1032.73 6.89602 -1.41652 0
M  V30 7503 C 1033.44 5.59201 -1.75185 0
M  V30 7504 N 1033.39 4.58301 -0.657969 0
M  V30 7505 H 1036.23 8.65116 -0.777161 0
M  V30 7506 H 1036.5 6.9022 -0.46725 0
M  V30 7507 H 1035.64 7.66548 -2.79458 0
M  V30 7508 H 1032.98 5.16165 -2.65183 0
M  V30 7509 H 1032.7 7.06433 -0.329384 0
M  V30 7510 H 1031.71 6.90926 -1.82021 0
M  V30 7511 H 1033.54 8.90873 -1.62657 0
M  V30 7512 P 1031.67 8.03563 -3.84925 0
M  V30 7513 O 1031.45 8.85821 -5.0569 0
M  V30 7514 O 1030.88 8.41101 -2.65469 0
M  V30 7515 O 1031.42 6.4965 -4.18908 0
M  V30 7516 C 1032.36 5.81037 -5.05421 0
M  V30 7517 C 1031.63 4.78366 -5.89277 0
M  V30 7518 O 1031.42 3.58302 -5.08433 0
M  V30 7519 C 1030.23 5.17448 -6.36119 0
M  V30 7520 O 1029.84 4.45271 -7.53232 0
M  V30 7521 C 1029.35 4.74639 -5.19936 0
M  V30 7522 C 1030.06 3.49432 -4.70418 0
M  V30 7523 N 1030.01 3.32099 -3.22613 0
M  V30 7524 H 1032.85 6.54213 -5.71376 0
M  V30 7525 H 1033.12 5.30936 -4.43503 0
M  V30 7526 H 1032.26 4.55889 -6.76652 0
M  V30 7527 H 1029.6 2.61715 -5.17932 0
M  V30 7528 H 1029.32 5.52155 -4.41878 0
M  V30 7529 H 1028.33 4.51981 -5.53374 0
M  V30 7530 H 1030.16 6.25124 -6.55234 0
M  V30 7531 P 1028.29 4.23843 -7.83734 0
M  V30 7532 O 1028.07 4.19407 -9.29784 0
M  V30 7533 O 1027.5 5.24426 -7.09156 0
M  V30 7534 O 1028.04 2.7935 -7.20758 0
M  V30 7535 C 1028.98 1.7299 -7.50419 0
M  V30 7536 C 1028.25 0.406376 -7.57911 0
M  V30 7537 O 1028.04 -0.0897726 -6.21935 0
M  V30 7538 C 1026.85 0.447224 -8.1878 0
M  V30 7539 O 1026.46 -0.825065 -8.71101 0
M  V30 7540 C 1025.97 0.783801 -6.99623 0
M  V30 7541 C 1026.68 0.0619192 -5.85967 0
M  V30 7542 N 1026.63 0.7859 -4.56281 0
M  V30 7543 H 1029.47 1.93423 -8.4679 0
M  V30 7544 H 1029.74 1.68181 -6.71046 0
M  V30 7545 H 1028.88 -0.289041 -8.15388 0
M  V30 7546 P 1024.91 -1.17771 -8.83182 0
M  V30 7547 O 1024.69 -2.07206 -9.98732 0
M  V30 7548 O 1024.12 0.0743816 -8.81969 0
M  V30 7549 O 1024.66 -1.97652 -7.47304 0
M  V30 7550 C 1025.6 -3.01133 -7.08783 0
M  V30 7551 C 1024.87 -4.12613 -6.37049 0
M  V30 7552 O 1024.66 -3.72827 -4.97879 0
M  V30 7553 C 1023.47 -4.45085 -6.88694 0
M  V30 7554 O 1023.08 -5.7877 -6.5624 0
M  V30 7555 C 1022.59 -3.47817 -6.12078 0
M  V30 7556 C 1023.3 -3.39414 -4.77697 0
M  V30 7557 N 1023.25 -2.04615 -4.15333 0
M  V30 7558 H 1026.09 -3.41248 -7.98759 0
M  V30 7559 H 1026.36 -2.5837 -6.41742 0
M  V30 7560 H 1025.5 -5.02657 -6.42673 0
M  V30 7561 P 1021.53 -6.144 -6.45285 0
M  V30 7562 O 1021.31 -7.54673 -6.86199 0
M  V30 7563 O 1020.74 -5.12391 -7.179 0
M  V30 7564 O 1021.28 -5.99158 -4.88404 0
M  V30 7565 C 1022.22 -6.60234 -3.96415 0
M  V30 7566 C 1021.49 -7.08259 -2.72856 0
M  V30 7567 O 1021.28 -5.9427 -1.83651 0
M  V30 7568 C 1020.09 -7.64886 -2.9555 0
M  V30 7569 O 1019.7 -8.53963 -1.90717 0
M  V30 7570 C 1019.21 -6.4116 -2.90739 0
M  V30 7571 C 1019.92 -5.55375 -1.86963 0
M  V30 7572 N 1019.87 -4.09448 -2.16152 0
M  V30 7573 H 1022.71 -7.45574 -4.45629 0
M  V30 7574 H 1022.98 -5.85864 -3.679 0
M  V30 7575 H 1022.12 -7.84412 -2.24479 0
M  V30 7576 H 1019.46 -5.73457 -0.888562 0
M  V30 7577 H 1019.18 -5.90877 -3.88583 0
M  V30 7578 H 1018.19 -6.6596 -2.58858 0
M  V30 7579 H 1020.02 -8.16339 -3.92049 0
M  V30 7580 P 1018.15 -8.7635 -1.60911 0
M  V30 7581 O 1017.93 -10.1388 -1.11561 0
M  V30 7582 O 1017.36 -8.36503 -2.79617 0
M  V30 7583 O 1017.9 -7.71806 -0.42951 0
M  V30 7584 C 1018.84 -7.67148 0.673689 0
M  V30 7585 C 1018.11 -7.33374 1.95559 0
M  V30 7586 O 1017.9 -5.88721 2.00726 0
M  V30 7587 C 1016.71 -7.92526 2.10483 0
M  V30 7588 O 1016.32 -8.02971 3.47653 0
M  V30 7589 C 1015.83 -6.89602 1.41652 0
M  V30 7590 C 1016.54 -5.59201 1.75185 0
M  V30 7591 N 1016.49 -4.58235 0.662552 0
M  V30 7592 H 1019.33 -8.65116 0.777161 0
M  V30 7593 H 1019.61 -6.90173 0.474152 0
M  V30 7594 H 1018.74 -7.66548 2.79458 0
M  V30 7595 P 1014.77 -8.03563 3.84925 0
M  V30 7596 O 1014.55 -8.85821 5.0569 0
M  V30 7597 O 1013.98 -8.41101 2.65469 0
M  V30 7598 O 1014.52 -6.4965 4.18908 0
M  V30 7599 C 1015.46 -5.81037 5.05421 0
M  V30 7600 C 1014.73 -4.78366 5.89277 0
M  V30 7601 O 1014.52 -3.58302 5.08433 0
M  V30 7602 C 1013.33 -5.17448 6.36119 0
M  V30 7603 O 1012.94 -4.45271 7.53232 0
M  V30 7604 C 1012.45 -4.74639 5.19936 0
M  V30 7605 C 1013.16 -3.49432 4.70418 0
M  V30 7606 N 1013.11 -3.31776 3.22945 0
M  V30 7607 H 1015.95 -6.54213 5.71376 0
M  V30 7608 H 1016.23 -5.30492 4.44033 0
M  V30 7609 H 1015.36 -4.55889 6.76652 0
M  V30 7610 P 1011.39 -4.23843 7.83734 0
M  V30 7611 O 1011.17 -4.19407 9.29784 0
M  V30 7612 O 1010.6 -5.24426 7.09156 0
M  V30 7613 O 1011.14 -2.7935 7.20758 0
M  V30 7614 C 1012.08 -1.7299 7.50419 0
M  V30 7615 C 1011.35 -0.406376 7.57911 0
M  V30 7616 O 1011.14 0.0897726 6.21935 0
M  V30 7617 C 1009.95 -0.447224 8.1878 0
M  V30 7618 O 1009.56 0.825065 8.71101 0
M  V30 7619 C 1009.07 -0.783801 6.99623 0
M  V30 7620 C 1009.78 -0.0619192 5.85967 0
M  V30 7621 N 1009.73 -0.790462 4.56202 0
M  V30 7622 H 1012.57 -1.93423 8.4679 0
M  V30 7623 H 1012.85 -1.68852 6.70877 0
M  V30 7624 H 1011.98 0.289041 8.15388 0
M  V30 7625 H 1009.32 0.927006 5.72848 0
M  V30 7626 H 1009.04 -1.86973 6.82036 0
M  V30 7627 H 1008.05 -0.403953 7.13357 0
M  V30 7628 H 1009.89 -1.20599 8.97534 0
M  V30 7629 P 1008.01 1.17771 8.83182 0
M  V30 7630 O 1007.79 2.07206 9.98732 0
M  V30 7631 O 1007.22 -0.0743816 8.81969 0
M  V30 7632 O 1007.76 1.97652 7.47304 0
M  V30 7633 C 1008.7 3.01133 7.08783 0
M  V30 7634 C 1007.97 4.12613 6.37049 0
M  V30 7635 O 1007.76 3.72827 4.97879 0
M  V30 7636 C 1006.57 4.45085 6.88694 0
M  V30 7637 O 1006.18 5.7877 6.5624 0
M  V30 7638 C 1005.69 3.47817 6.12078 0
M  V30 7639 C 1006.4 3.39414 4.77697 0
M  V30 7640 N 1006.35 2.04615 4.15333 0
M  V30 7641 H 1009.19 3.41248 7.98759 0
M  V30 7642 H 1009.47 2.5837 6.41742 0
M  V30 7643 H 1008.6 5.02657 6.42673 0
M  V30 7644 P 1004.63 6.144 6.45285 0
M  V30 7645 O 1004.41 7.54673 6.86199 0
M  V30 7646 O 1003.84 5.12391 7.179 0
M  V30 7647 O 1004.38 5.99158 4.88404 0
M  V30 7648 C 1005.32 6.60234 3.96415 0
M  V30 7649 C 1004.59 7.08259 2.72856 0
M  V30 7650 O 1004.38 5.9427 1.83651 0
M  V30 7651 C 1003.19 7.64886 2.9555 0
M  V30 7652 O 1002.8 8.53963 1.90717 0
M  V30 7653 C 1002.31 6.4116 2.90739 0
M  V30 7654 C 1003.02 5.55375 1.86963 0
M  V30 7655 N 1002.97 4.09448 2.16152 0
M  V30 7656 H 1005.81 7.45574 4.45629 0
M  V30 7657 H 1006.09 5.85864 3.679 0
M  V30 7658 H 1005.22 7.84412 2.24479 0
M  V30 7659 H 1002.56 5.73457 0.888562 0
M  V30 7660 H 1002.28 5.90877 3.88583 0
M  V30 7661 H 1001.29 6.6596 2.58858 0
M  V30 7662 H 1003.13 8.16339 3.92049 0
M  V30 7663 P 1001.25 8.7635 1.60911 0
M  V30 7664 O 1001.03 10.1388 1.11561 0
M  V30 7665 O 1000.46 8.36503 2.79617 0
M  V30 7666 O 1001 7.71806 0.42951 0
M  V30 7667 C 1001.94 7.67148 -0.673689 0
M  V30 7668 C 1001.21 7.33374 -1.95559 0
M  V30 7669 O 1001 5.88721 -2.00726 0
M  V30 7670 C 999.814 7.92526 -2.10483 0
M  V30 7671 O 999.424 8.02971 -3.47653 0
M  V30 7672 C 998.934 6.89602 -1.41652 0
M  V30 7673 C 999.644 5.59201 -1.75185 0
M  V30 7674 N 999.594 4.58235 -0.662552 0
M  V30 7675 H 1002.43 8.65116 -0.777161 0
M  V30 7676 H 1002.71 6.90173 -0.474152 0
M  V30 7677 H 1001.84 7.66548 -2.79458 0
M  V30 7678 P 997.874 8.03563 -3.84925 0
M  V30 7679 O 997.654 8.85821 -5.0569 0
M  V30 7680 O 997.084 8.41101 -2.65469 0
M  V30 7681 O 997.624 6.4965 -4.18908 0
M  V30 7682 C 998.564 5.81037 -5.05421 0
M  V30 7683 C 997.834 4.78366 -5.89277 0
M  V30 7684 O 997.624 3.58302 -5.08433 0
M  V30 7685 C 996.434 5.17448 -6.36119 0
M  V30 7686 O 996.044 4.45271 -7.53232 0
M  V30 7687 C 995.554 4.74639 -5.19936 0
M  V30 7688 C 996.264 3.49432 -4.70418 0
M  V30 7689 N 996.214 3.31776 -3.22945 0
M  V30 7690 H 999.053 6.54213 -5.71376 0
M  V30 7691 H 999.325 5.30492 -4.44033 0
M  V30 7692 H 998.457 4.55889 -6.76652 0
M  V30 7693 P 994.494 4.23843 -7.83734 0
M  V30 7694 O 994.274 4.19407 -9.29784 0
M  V30 7695 O 993.704 5.24426 -7.09156 0
M  V30 7696 O 994.244 2.7935 -7.20758 0
M  V30 7697 C 995.184 1.7299 -7.50419 0
M  V30 7698 C 994.454 0.406376 -7.57911 0
M  V30 7699 O 994.244 -0.0897726 -6.21935 0
M  V30 7700 C 993.054 0.447224 -8.1878 0
M  V30 7701 O 992.664 -0.825065 -8.71101 0
M  V30 7702 C 992.174 0.783801 -6.99623 0
M  V30 7703 C 992.884 0.0619192 -5.85967 0
M  V30 7704 N 992.834 0.7859 -4.56281 0
M  V30 7705 C 992.914 2.14308 -4.31736 0
M  V30 7706 N 992.834 2.46106 -3.05116 0
M  V30 7707 C 992.694 1.23422 -2.4014 0
M  V30 7708 C 992.564 0.938381 -1.02409 0
M  V30 7709 O 992.544 1.70876 -0.0650402 0
M  V30 7710 N 992.444 -0.444647 -0.805413 0
M  V30 7711 C 992.444 -1.40829 -1.79435 0
M  V30 7712 N 992.314 -2.67213 -1.38558 0
M  V30 7713 N 992.574 -1.12947 -3.09005 0
M  V30 7714 C 992.694 0.204887 -3.32369 0
M  V30 7715 H 995.673 1.93423 -8.4679 0
M  V30 7716 H 995.945 1.68181 -6.71046 0
M  V30 7717 H 995.077 -0.289041 -8.15388 0
M  V30 7718 H 992.422 -0.927166 -5.72947 0
M  V30 7719 H 992.142 1.87 -6.82132 0
M  V30 7720 H 991.151 0.404009 -7.13457 0
M  V30 7721 H 992.985 1.20612 -8.97633 0
M  V30 7722 H 993.034 2.88284 -5.10874 0
M  V30 7723 H 992.352 -0.755087 0.140242 0
M  V30 7724 H 992.315 -3.43967 -2.0729 0
M  V30 7725 H 992.214 -2.88096 -0.380644 0
M  V30 7726 P 991.114 -1.17771 -8.83182 0
M  V30 7727 O 990.894 -2.07206 -9.98732 0
M  V30 7728 O 990.324 0.0743816 -8.81969 0
M  V30 7729 O 990.864 -1.97652 -7.47304 0
M  V30 7730 C 991.804 -3.01133 -7.08783 0
M  V30 7731 C 991.074 -4.12613 -6.37049 0
M  V30 7732 O 990.864 -3.72827 -4.97879 0
M  V30 7733 C 989.674 -4.45085 -6.88694 0
M  V30 7734 O 989.284 -5.7877 -6.5624 0
M  V30 7735 C 988.794 -3.47817 -6.12078 0
M  V30 7736 C 989.504 -3.39414 -4.77697 0
M  V30 7737 N 989.454 -2.04615 -4.15333 0
M  V30 7738 H 992.293 -3.41248 -7.98759 0
M  V30 7739 H 992.565 -2.5837 -6.41742 0
M  V30 7740 H 991.697 -5.02657 -6.42673 0
M  V30 7741 P 987.734 -6.144 -6.45285 0
M  V30 7742 O 987.514 -7.54673 -6.86199 0
M  V30 7743 O 986.944 -5.12391 -7.179 0
M  V30 7744 O 987.484 -5.99158 -4.88404 0
M  V30 7745 C 988.424 -6.60234 -3.96415 0
M  V30 7746 C 987.694 -7.08259 -2.72856 0
M  V30 7747 O 987.484 -5.9427 -1.83651 0
M  V30 7748 C 986.294 -7.64886 -2.9555 0
M  V30 7749 O 985.904 -8.53963 -1.90717 0
M  V30 7750 C 985.414 -6.4116 -2.90739 0
M  V30 7751 C 986.124 -5.55375 -1.86963 0
M  V30 7752 N 986.074 -4.09664 -2.15742 0
M  V30 7753 H 988.913 -7.45574 -4.45629 0
M  V30 7754 H 989.185 -5.86232 -3.67314 0
M  V30 7755 H 988.317 -7.84412 -2.24479 0
M  V30 7756 P 984.354 -8.7635 -1.60911 0
M  V30 7757 O 984.134 -10.1388 -1.11561 0
M  V30 7758 O 983.564 -8.36503 -2.79617 0
M  V30 7759 O 984.104 -7.71806 -0.42951 0
M  V30 7760 C 985.044 -7.66948 0.673514 0
M  V30 7761 C 984.314 -7.33374 1.95559 0
M  V30 7762 O 984.104 -5.88721 2.00726 0
M  V30 7763 C 982.914 -7.92218 2.1125 0
M  V30 7764 O 982.524 -8.02971 3.47653 0
M  V30 7765 C 982.034 -6.89504 1.41631 0
M  V30 7766 C 982.744 -5.59106 1.75155 0
M  V30 7767 N 982.694 -4.58136 0.662409 0
M  V30 7768 C 982.544 -3.26059 1.02863 0
M  V30 7769 O 982.454 -2.90743 2.19009 0
M  V30 7770 N 982.504 -2.35995 -0.0155585 0
M  V30 7771 C 982.594 -2.65248 -1.35603 0
M  V30 7772 C 982.744 -4.05747 -1.64698 0
M  V30 7773 C 982.794 -4.96734 -0.652411 0
M  V30 7774 H 985.535 -8.64917 0.776982 0
M  V30 7775 H 985.804 -6.89974 0.474015 0
M  V30 7776 H 984.937 -7.66548 2.79458 0
M  V30 7777 H 982.282 -5.16076 2.65138 0
M  V30 7778 H 982.003 -7.06433 0.329384 0
M  V30 7779 H 981.011 -6.90829 1.81996 0
M  V30 7780 H 982.845 -8.90774 1.62639 0
M  V30 7781 H 982.916 -6.02181 -0.895285 0
M  V30 7782 P 980.974 -8.03563 3.84925 0
M  V30 7783 O 980.754 -8.85821 5.0569 0
M  V30 7784 O 980.184 -8.41101 2.65469 0
M  V30 7785 O 980.724 -6.4965 4.18908 0
M  V30 7786 C 981.664 -5.81037 5.05421 0
M  V30 7787 C 980.934 -4.78366 5.89277 0
M  V30 7788 O 980.724 -3.58302 5.08433 0
M  V30 7789 C 979.534 -5.17448 6.36119 0
M  V30 7790 O 979.144 -4.45271 7.53232 0
M  V30 7791 C 978.654 -4.74639 5.19936 0
M  V30 7792 C 979.364 -3.49432 4.70418 0
M  V30 7793 N 979.314 -3.31776 3.22945 0
M  V30 7794 H 982.153 -6.54213 5.71376 0
M  V30 7795 H 982.425 -5.30492 4.44033 0
M  V30 7796 H 981.557 -4.55889 6.76652 0
M  V30 7797 P 977.594 -4.23843 7.83734 0
M  V30 7798 O 977.374 -4.19407 9.29784 0
M  V30 7799 O 976.804 -5.24426 7.09156 0
M  V30 7800 O 977.344 -2.7935 7.20758 0
M  V30 7801 C 978.284 -1.7299 7.50419 0
M  V30 7802 C 977.554 -0.406376 7.57911 0
M  V30 7803 O 977.344 0.0897726 6.21935 0
M  V30 7804 C 976.154 -0.447224 8.1878 0
M  V30 7805 O 975.764 0.825065 8.71101 0
M  V30 7806 C 975.274 -0.783801 6.99623 0
M  V30 7807 C 975.984 -0.0619192 5.85967 0
M  V30 7808 N 975.934 -0.790462 4.56202 0
M  V30 7809 H 978.773 -1.93423 8.4679 0
M  V30 7810 H 979.045 -1.68852 6.70877 0
M  V30 7811 H 978.177 0.289041 8.15388 0
M  V30 7812 H 975.522 0.927006 5.72848 0
M  V30 7813 H 975.242 -1.86973 6.82036 0
M  V30 7814 H 974.251 -0.403953 7.13357 0
M  V30 7815 H 976.085 -1.20599 8.97534 0
M  V30 7816 P 974.214 1.17771 8.83182 0
M  V30 7817 O 973.994 2.07206 9.98732 0
M  V30 7818 O 973.424 -0.0743816 8.81969 0
M  V30 7819 O 973.964 1.97652 7.47304 0
M  V30 7820 C 974.904 3.01133 7.08783 0
M  V30 7821 C 974.174 4.12613 6.37049 0
M  V30 7822 O 973.964 3.72827 4.97879 0
M  V30 7823 C 972.774 4.45085 6.88694 0
M  V30 7824 O 972.384 5.7877 6.5624 0
M  V30 7825 C 971.894 3.47817 6.12078 0
M  V30 7826 C 972.604 3.39414 4.77697 0
M  V30 7827 N 972.554 2.04615 4.15333 0
M  V30 7828 H 975.393 3.41248 7.98759 0
M  V30 7829 H 975.665 2.5837 6.41742 0
M  V30 7830 H 974.797 5.02657 6.42673 0
M  V30 7831 P 970.834 6.144 6.45285 0
M  V30 7832 O 970.614 7.54673 6.86199 0
M  V30 7833 O 970.044 5.12391 7.179 0
M  V30 7834 O 970.584 5.99158 4.88404 0
M  V30 7835 C 971.524 6.60062 3.96313 0
M  V30 7836 C 970.794 7.08259 2.72856 0
M  V30 7837 O 970.584 5.9427 1.83651 0
M  V30 7838 C 969.394 7.65087 2.94749 0
M  V30 7839 O 969.004 8.53963 1.90717 0
M  V30 7840 C 968.514 6.41069 2.90698 0
M  V30 7841 C 969.224 5.5528 1.86931 0
M  V30 7842 N 969.174 4.09575 2.15696 0
M  V30 7843 C 969.024 3.24249 1.08435 0
M  V30 7844 O 968.934 3.63946 -0.0628747 0
M  V30 7845 N 968.984 1.90009 1.39973 0
M  V30 7846 C 969.074 1.34884 2.65614 0
M  V30 7847 C 969.224 2.3145 3.71736 0
M  V30 7848 C 969.274 3.63518 3.44754 0
M  V30 7849 H 972.015 7.45402 4.45526 0
M  V30 7850 H 972.284 5.86062 3.67208 0
M  V30 7851 H 971.417 7.84412 2.24479 0
M  V30 7852 H 968.762 5.73358 0.888409 0
M  V30 7853 H 968.483 5.90877 3.88583 0
M  V30 7854 H 967.491 6.65867 2.58821 0
M  V30 7855 H 969.325 8.16248 3.92006 0
M  V30 7856 H 969.396 4.34551 4.26383 0
M  V30 7857 P 967.454 8.7635 1.60911 0
M  V30 7858 O 967.234 10.1388 1.11561 0
M  V30 7859 O 966.664 8.36503 2.79617 0
M  V30 7860 O 967.204 7.71806 0.42951 0
M  V30 7861 C 968.144 7.67148 -0.673689 0
M  V30 7862 C 967.414 7.33374 -1.95559 0
M  V30 7863 O 967.204 5.88721 -2.00726 0
M  V30 7864 C 966.014 7.92526 -2.10483 0
M  V30 7865 O 965.624 8.02971 -3.47653 0
M  V30 7866 C 965.134 6.89602 -1.41652 0
M  V30 7867 C 965.844 5.59201 -1.75185 0
M  V30 7868 N 965.794 4.58235 -0.662552 0
M  V30 7869 H 968.633 8.65116 -0.777161 0
M  V30 7870 H 968.905 6.90173 -0.474152 0
M  V30 7871 H 968.037 7.66548 -2.79458 0
M  V30 7872 P 964.074 8.03563 -3.84925 0
M  V30 7873 O 963.854 8.85821 -5.0569 0
M  V30 7874 O 963.284 8.41101 -2.65469 0
M  V30 7875 O 963.824 6.4965 -4.18908 0
M  V30 7876 C 964.764 5.80886 -5.05289 0
M  V30 7877 C 964.034 4.78366 -5.89277 0
M  V30 7878 O 963.824 3.58302 -5.08433 0
M  V30 7879 C 962.634 5.16748 -6.36559 0
M  V30 7880 O 962.244 4.45271 -7.53232 0
M  V30 7881 C 961.754 4.74572 -5.19863 0
M  V30 7882 C 962.464 3.49373 -4.70338 0
M  V30 7883 N 962.414 3.31704 -3.22876 0
M  V30 7884 C 962.264 2.03326 -2.74871 0
M  V30 7885 O 962.174 1.06486 -3.48076 0
M  V30 7886 N 962.224 1.91838 -1.37456 0
M  V30 7887 C 962.314 2.94295 -0.462035 0
M  V30 7888 O 962.264 2.71763 0.752928 0
M  V30 7889 C 962.464 4.25064 -1.05249 0
M  V30 7890 C 962.574 5.39815 -0.095697 0
M  V30 7891 C 962.514 4.40214 -2.39192 0
M  V30 7892 H 965.255 6.54063 -5.71245 0
M  V30 7893 H 965.524 5.30339 -4.43905 0
M  V30 7894 H 964.657 4.55889 -6.76652 0
M  V30 7895 H 962.002 2.6167 -5.17842 0
M  V30 7896 H 961.723 5.52155 -4.41878 0
M  V30 7897 H 960.731 4.51918 -5.53297 0
M  V30 7898 H 962.565 6.25055 -6.55162 0
M  V30 7899 H 962.636 5.39798 -2.81523 0
M  V30 7900 H 961.606 5.91593 -0.0279582 0
M  V30 7901 H 963.343 6.10038 -0.450573 0
M  V30 7902 H 962.855 5.02007 0.89937 0
M  V30 7903 H 962.119 0.995326 -1.00435 0
M  V30 7904 P 960.694 4.23843 -7.83734 0
M  V30 7905 O 960.474 4.19407 -9.29784 0
M  V30 7906 O 959.904 5.24426 -7.09156 0
M  V30 7907 O 960.444 2.7935 -7.20758 0
M  V30 7908 C 961.384 1.7299 -7.50419 0
M  V30 7909 C 960.654 0.406376 -7.57911 0
M  V30 7910 O 960.444 -0.0897726 -6.21935 0
M  V30 7911 C 959.254 0.447224 -8.1878 0
M  V30 7912 O 958.864 -0.825065 -8.71101 0
M  V30 7913 C 958.374 0.783801 -6.99623 0
M  V30 7914 C 959.084 0.0619192 -5.85967 0
M  V30 7915 N 959.034 0.7859 -4.56281 0
M  V30 7916 H 961.873 1.93423 -8.4679 0
M  V30 7917 H 962.145 1.68181 -6.71046 0
M  V30 7918 H 961.277 -0.289041 -8.15388 0
M  V30 7919 P 957.314 -1.17771 -8.83182 0
M  V30 7920 O 957.094 -2.07206 -9.98732 0
M  V30 7921 O 956.524 0.0743816 -8.81969 0
M  V30 7922 O 957.064 -1.97652 -7.47304 0
M  V30 7923 C 958.004 -3.01133 -7.08783 0
M  V30 7924 C 957.274 -4.12613 -6.37049 0
M  V30 7925 O 957.064 -3.72827 -4.97879 0
M  V30 7926 C 955.874 -4.45085 -6.88694 0
M  V30 7927 O 955.484 -5.7877 -6.5624 0
M  V30 7928 C 954.994 -3.47817 -6.12078 0
M  V30 7929 C 955.704 -3.39414 -4.77697 0
M  V30 7930 N 955.654 -2.04615 -4.15333 0
M  V30 7931 H 958.493 -3.41248 -7.98759 0
M  V30 7932 H 958.765 -2.5837 -6.41742 0
M  V30 7933 H 957.897 -5.02657 -6.42673 0
M  V30 7934 P 953.934 -6.144 -6.45285 0
M  V30 7935 O 953.714 -7.54673 -6.86199 0
M  V30 7936 O 953.144 -5.12391 -7.179 0
M  V30 7937 O 953.684 -5.99158 -4.88404 0
M  V30 7938 C 954.624 -6.60062 -3.96313 0
M  V30 7939 C 953.894 -7.08259 -2.72856 0
M  V30 7940 O 953.684 -5.9427 -1.83651 0
M  V30 7941 C 952.494 -7.65087 -2.94749 0
M  V30 7942 O 952.104 -8.53963 -1.90717 0
M  V30 7943 C 951.614 -6.41069 -2.90698 0
M  V30 7944 C 952.324 -5.5528 -1.86931 0
M  V30 7945 N 952.274 -4.09575 -2.15696 0
M  V30 7946 C 952.124 -3.24249 -1.08435 0
M  V30 7947 O 952.034 -3.63946 0.0628747 0
M  V30 7948 N 952.084 -1.90009 -1.39973 0
M  V30 7949 C 952.174 -1.34884 -2.65614 0
M  V30 7950 O 952.124 -0.123716 -2.81728 0
M  V30 7951 C 952.324 -2.3145 -3.71736 0
M  V30 7952 C 952.434 -1.75913 -5.10438 0
M  V30 7953 C 952.374 -3.63518 -3.44754 0
M  V30 7954 H 955.115 -7.45402 -4.45526 0
M  V30 7955 H 955.384 -5.86062 -3.67208 0
M  V30 7956 H 954.517 -7.84412 -2.24479 0
M  V30 7957 H 951.862 -5.73358 -0.888409 0
M  V30 7958 H 951.583 -5.90877 -3.88583 0
M  V30 7959 H 950.591 -6.65867 -2.58821 0
M  V30 7960 H 952.425 -8.16248 -3.92006 0
M  V30 7961 H 952.496 -4.34551 -4.26383 0
M  V30 7962 H 951.466 -1.85471 -5.61775 0
M  V30 7963 H 953.203 -2.31364 -5.66257 0
M  V30 7964 H 952.715 -0.695936 -5.05229 0
M  V30 7965 H 951.979 -1.26277 -0.63625 0
M  V30 7966 P 950.554 -8.7635 -1.60911 0
M  V30 7967 O 950.334 -10.1388 -1.11561 0
M  V30 7968 O 949.764 -8.36503 -2.79617 0
M  V30 7969 O 950.304 -7.71806 -0.42951 0
M  V30 7970 C 951.244 -7.67148 0.673689 0
M  V30 7971 C 950.514 -7.33374 1.95559 0
M  V30 7972 O 950.304 -5.88721 2.00726 0
M  V30 7973 C 949.114 -7.92526 2.10483 0
M  V30 7974 O 948.724 -8.02971 3.47653 0
M  V30 7975 C 948.234 -6.89602 1.41652 0
M  V30 7976 C 948.944 -5.59201 1.75185 0
M  V30 7977 N 948.894 -4.58235 0.662552 0
M  V30 7978 H 951.733 -8.65116 0.777161 0
M  V30 7979 H 952.005 -6.90173 0.474152 0
M  V30 7980 H 951.137 -7.66548 2.79458 0
M  V30 7981 P 947.174 -8.03563 3.84925 0
M  V30 7982 O 946.954 -8.85821 5.0569 0
M  V30 7983 O 946.384 -8.41101 2.65469 0
M  V30 7984 O 946.924 -6.4965 4.18908 0
M  V30 7985 C 947.864 -5.81037 5.05421 0
M  V30 7986 C 947.134 -4.78366 5.89277 0
M  V30 7987 O 946.924 -3.58302 5.08433 0
M  V30 7988 C 945.734 -5.17448 6.36119 0
M  V30 7989 O 945.344 -4.45271 7.53232 0
M  V30 7990 C 944.854 -4.74639 5.19936 0
M  V30 7991 C 945.564 -3.49432 4.70418 0
M  V30 7992 N 945.514 -3.32099 3.22613 0
M  V30 7993 C 945.594 -4.28245 2.25527 0
M  V30 7994 N 945.524 -3.80823 1.04874 0
M  V30 7995 C 945.374 -2.44571 1.23535 0
M  V30 7996 C 945.244 -1.37068 0.330675 0
M  V30 7997 N 945.234 -1.51472 -0.990824 0
M  V30 7998 N 945.124 -0.138614 0.848756 0
M  V30 7999 C 945.134 0.00675923 2.16999 0
M  V30 8000 N 945.254 -0.904372 3.11122 0
M  V30 8001 C 945.374 -2.12707 2.56212 0
M  V30 8002 H 948.353 -6.54213 5.71376 0
M  V30 8003 H 948.625 -5.30936 4.43503 0
M  V30 8004 H 947.757 -4.55889 6.76652 0
M  V30 8005 H 945.102 -2.61715 5.17932 0
M  V30 8006 H 944.822 -5.52155 4.41878 0
M  V30 8007 H 943.831 -4.51981 5.53374 0
M  V30 8008 H 945.665 -6.25124 6.55234 0
M  V30 8009 H 945.706 -5.34372 2.47488 0
M  V30 8010 H 945.325 -2.45153 -1.4078 0
M  V30 8011 H 945.136 -0.688422 -1.59911 0
M  V30 8012 H 945.028 1.02584 2.52346 0
M  V30 8013 P 943.794 -4.23843 7.83734 0
M  V30 8014 O 943.574 -4.19407 9.29784 0
M  V30 8015 O 943.004 -5.24426 7.09156 0
M  V30 8016 O 943.544 -2.79386 7.20852 0
M  V30 8017 C 944.484 -1.7299 7.50419 0
M  V30 8018 C 943.754 -0.41401 7.5797 0
M  V30 8019 O 943.544 0.089787 6.22035 0
M  V30 8020 C 942.354 -0.447224 8.1878 0
M  V30 8021 O 941.964 0.825159 8.71201 0
M  V30 8022 C 941.474 -0.783801 6.99623 0
M  V30 8023 C 942.184 -0.0619192 5.85967 0
M  V30 8024 N 942.134 -0.7859 4.56281 0
M  V30 8025 C 941.984 -0.0359258 3.39981 0
M  V30 8026 O 941.894 1.19723 3.49038 0
M  V30 8027 N 941.934 -0.869151 2.14025 0
M  V30 8028 C 942.034 -2.01207 2.14363 0
M  V30 8029 N 941.984 -2.58978 0.954287 0
M  V30 8030 C 942.184 -2.80817 3.32215 0
M  V30 8031 C 942.234 -2.13785 4.50884 0
M  V30 8032 H 944.974 -1.93401 8.46693 0
M  V30 8033 H 945.244 -1.68181 6.71046 0
M  V30 8034 H 944.377 0.289076 8.15488 0
M  V30 8035 H 941.722 0.927166 5.72947 0
M  V30 8036 H 941.442 -1.87 6.82132 0
M  V30 8037 H 940.451 -0.404009 7.13457 0
M  V30 8038 H 942.285 -1.20599 8.97534 0
M  V30 8039 H 942.357 -2.70295 5.43162 0
M  V30 8040 H 942.255 -3.89465 3.27406 0
M  V30 8041 H 941.867 -2.01616 0.107046 0
M  V30 8042 H 942.063 -3.61403 0.873101 0
M  V30 8043 P 940.414 1.17771 8.83182 0
M  V30 8044 O 940.194 2.07206 9.98732 0
M  V30 8045 O 939.624 -0.0743816 8.81969 0
M  V30 8046 O 940.164 1.97652 7.47304 0
M  V30 8047 C 941.104 3.01133 7.08783 0
M  V30 8048 C 940.374 4.12613 6.37049 0
M  V30 8049 O 940.164 3.72827 4.97879 0
M  V30 8050 C 938.974 4.45085 6.88694 0
M  V30 8051 O 938.584 5.7877 6.5624 0
M  V30 8052 C 938.094 3.47817 6.12078 0
M  V30 8053 C 938.804 3.39414 4.77697 0
M  V30 8054 N 938.754 2.04615 4.15333 0
M  V30 8055 H 941.593 3.41248 7.98759 0
M  V30 8056 H 941.865 2.5837 6.41742 0
M  V30 8057 H 940.997 5.02657 6.42673 0
M  V30 8058 P 937.034 6.144 6.45285 0
M  V30 8059 O 936.814 7.54673 6.86199 0
M  V30 8060 O 936.244 5.12391 7.179 0
M  V30 8061 O 936.784 5.99158 4.88404 0
M  V30 8062 C 937.724 6.60234 3.96415 0
M  V30 8063 C 936.994 7.08259 2.72856 0
M  V30 8064 O 936.784 5.9427 1.83651 0
M  V30 8065 C 935.594 7.64886 2.9555 0
M  V30 8066 O 935.204 8.53963 1.90717 0
M  V30 8067 C 934.714 6.4116 2.90739 0
M  V30 8068 C 935.424 5.55375 1.86963 0
M  V30 8069 N 935.374 4.09664 2.15742 0
M  V30 8070 H 938.213 7.45574 4.45629 0
M  V30 8071 H 938.485 5.86232 3.67314 0
M  V30 8072 H 937.617 7.84412 2.24479 0
M  V30 8073 P 933.655 8.7635 1.60911 0
M  V30 8074 O 933.435 10.1388 1.11561 0
M  V30 8075 O 932.865 8.36503 2.79617 0
M  V30 8076 O 933.405 7.71806 0.42951 0
M  V30 8077 C 934.345 7.67148 -0.673689 0
M  V30 8078 C 933.615 7.33374 -1.95559 0
M  V30 8079 O 933.405 5.88721 -2.00726 0
M  V30 8080 C 932.215 7.92526 -2.10483 0
M  V30 8081 O 931.825 8.02971 -3.47653 0
M  V30 8082 C 931.335 6.89602 -1.41652 0
M  V30 8083 C 932.045 5.59201 -1.75185 0
M  V30 8084 N 931.995 4.58235 -0.662552 0
M  V30 8085 H 934.834 8.65116 -0.777161 0
M  V30 8086 H 935.106 6.90173 -0.474152 0
M  V30 8087 H 934.238 7.66548 -2.79458 0
M  V30 8088 P 930.275 8.03563 -3.84925 0
M  V30 8089 O 930.055 8.85821 -5.0569 0
M  V30 8090 O 929.485 8.41101 -2.65469 0
M  V30 8091 O 930.025 6.4965 -4.18908 0
M  V30 8092 C 930.965 5.81037 -5.05421 0
M  V30 8093 C 930.235 4.78366 -5.89277 0
M  V30 8094 O 930.025 3.58302 -5.08433 0
M  V30 8095 C 928.835 5.17448 -6.36119 0
M  V30 8096 O 928.445 4.45271 -7.53232 0
M  V30 8097 C 927.955 4.74639 -5.19936 0
M  V30 8098 C 928.665 3.49432 -4.70418 0
M  V30 8099 N 928.615 3.31776 -3.22945 0
M  V30 8100 H 931.454 6.54213 -5.71376 0
M  V30 8101 H 931.726 5.30492 -4.44033 0
M  V30 8102 H 930.858 4.55889 -6.76652 0
M  V30 8103 P 926.895 4.23843 -7.83734 0
M  V30 8104 O 926.675 4.19407 -9.29784 0
M  V30 8105 O 926.105 5.24426 -7.09156 0
M  V30 8106 O 926.645 2.7935 -7.20758 0
M  V30 8107 C 927.585 1.7299 -7.50419 0
M  V30 8108 C 926.855 0.406376 -7.57911 0
M  V30 8109 O 926.645 -0.0897726 -6.21935 0
M  V30 8110 C 925.455 0.447224 -8.1878 0
M  V30 8111 O 925.065 -0.825065 -8.71101 0
M  V30 8112 C 924.575 0.783801 -6.99623 0
M  V30 8113 C 925.285 0.0619192 -5.85967 0
M  V30 8114 N 925.235 0.7859 -4.56281 0
M  V30 8115 H 928.074 1.93423 -8.4679 0
M  V30 8116 H 928.346 1.68181 -6.71046 0
M  V30 8117 H 927.478 -0.289041 -8.15388 0
M  V30 8118 P 923.515 -1.17771 -8.83182 0
M  V30 8119 O 923.295 -2.07206 -9.98732 0
M  V30 8120 O 922.725 0.0743816 -8.81969 0
M  V30 8121 O 923.265 -1.97652 -7.47304 0
M  V30 8122 C 924.205 -3.01133 -7.08783 0
M  V30 8123 C 923.475 -4.12613 -6.37049 0
M  V30 8124 O 923.265 -3.72827 -4.97879 0
M  V30 8125 C 922.075 -4.45085 -6.88694 0
M  V30 8126 O 921.685 -5.7877 -6.5624 0
M  V30 8127 C 921.195 -3.47817 -6.12078 0
M  V30 8128 C 921.905 -3.39414 -4.77697 0
M  V30 8129 N 921.855 -2.04615 -4.15333 0
M  V30 8130 H 924.694 -3.41248 -7.98759 0
M  V30 8131 H 924.966 -2.5837 -6.41742 0
M  V30 8132 H 924.098 -5.02657 -6.42673 0
M  V30 8133 P 920.135 -6.144 -6.45285 0
M  V30 8134 O 919.915 -7.54673 -6.86199 0
M  V30 8135 O 919.345 -5.12391 -7.179 0
M  V30 8136 O 919.885 -5.99236 -4.88467 0
M  V30 8137 C 920.825 -6.60234 -3.96415 0
M  V30 8138 C 920.095 -7.08079 -2.736 0
M  V30 8139 O 919.885 -5.94365 -1.8368 0
M  V30 8140 C 918.695 -7.64886 -2.9555 0
M  V30 8141 O 918.305 -8.5406 -1.90739 0
M  V30 8142 C 917.815 -6.4116 -2.90739 0
M  V30 8143 C 918.525 -5.55375 -1.86963 0
M  V30 8144 N 918.475 -4.09664 -2.15742 0
M  V30 8145 C 918.325 -3.22231 -1.08477 0
M  V30 8146 O 918.235 -3.68951 0.0600489 0
M  V30 8147 N 918.275 -1.76692 -1.48799 0
M  V30 8148 C 918.375 -1.41695 -2.57602 0
M  V30 8149 N 918.325 -0.107296 -2.75791 0
M  V30 8150 C 918.525 -2.29178 -3.69733 0
M  V30 8151 C 918.575 -3.62753 -3.42653 0
M  V30 8152 H 921.315 -7.45488 -4.45578 0
M  V30 8153 H 921.585 -5.86232 -3.67314 0
M  V30 8154 H 920.718 -7.84508 -2.24507 0
M  V30 8155 H 918.063 -5.73556 -0.888715 0
M  V30 8156 H 917.783 -5.9096 -3.88638 0
M  V30 8157 H 916.792 -6.66053 -2.58894 0
M  V30 8158 H 918.626 -8.16339 -3.92049 0
M  V30 8159 H 918.698 -4.33052 -4.24913 0
M  V30 8160 H 918.596 -1.9103 -4.71577 0
M  V30 8161 H 918.208 0.521221 -1.95056 0
M  V30 8162 H 918.404 0.286429 -3.70695 0
M  V30 8163 P 916.755 -8.7635 -1.60911 0
M  V30 8164 O 916.535 -10.1388 -1.11561 0
M  V30 8165 O 915.965 -8.36503 -2.79617 0
M  V30 8166 O 916.505 -7.71806 -0.42951 0
M  V30 8167 C 917.445 -7.67148 0.673689 0
M  V30 8168 C 916.715 -7.33374 1.95559 0
M  V30 8169 O 916.505 -5.88721 2.00726 0
M  V30 8170 C 915.315 -7.92526 2.10483 0
M  V30 8171 O 914.925 -8.02971 3.47653 0
M  V30 8172 C 914.435 -6.89602 1.41652 0
M  V30 8173 C 915.145 -5.59201 1.75185 0
M  V30 8174 N 915.095 -4.58235 0.662552 0
M  V30 8175 H 917.934 -8.65116 0.777161 0
M  V30 8176 H 918.206 -6.90173 0.474152 0
M  V30 8177 H 917.338 -7.66548 2.79458 0
M  V30 8178 P 913.375 -8.03563 3.84925 0
M  V30 8179 O 913.155 -8.85821 5.0569 0
M  V30 8180 O 912.585 -8.41101 2.65469 0
M  V30 8181 O 913.125 -6.4965 4.18908 0
M  V30 8182 C 914.065 -5.80886 5.05289 0
M  V30 8183 C 913.335 -4.78366 5.89277 0
M  V30 8184 O 913.125 -3.58302 5.08433 0
M  V30 8185 C 911.935 -5.16748 6.36559 0
M  V30 8186 O 911.545 -4.45271 7.53232 0
M  V30 8187 C 911.055 -4.74572 5.19863 0
M  V30 8188 C 911.765 -3.49373 4.70338 0
M  V30 8189 N 911.715 -3.31704 3.22876 0
M  V30 8190 C 911.565 -2.03326 2.74871 0
M  V30 8191 O 911.475 -1.06486 3.48076 0
M  V30 8192 N 911.525 -1.91838 1.37456 0
M  V30 8193 C 911.615 -2.94295 0.462035 0
M  V30 8194 C 911.765 -4.25064 1.05249 0
M  V30 8195 C 911.815 -4.40214 2.39192 0
M  V30 8196 H 914.556 -6.54063 5.71245 0
M  V30 8197 H 914.825 -5.30339 4.43905 0
M  V30 8198 H 913.958 -4.55889 6.76652 0
M  V30 8199 H 911.303 -2.6167 5.17842 0
M  V30 8200 H 911.024 -5.52155 4.41878 0
M  V30 8201 H 910.032 -4.51918 5.53297 0
M  V30 8202 H 911.866 -6.25055 6.55162 0
M  V30 8203 H 911.937 -5.39798 2.81523 0
M  V30 8204 P 909.995 -4.23843 7.83734 0
M  V30 8205 O 909.775 -4.19407 9.29784 0
M  V30 8206 O 909.205 -5.24426 7.09156 0
M  V30 8207 O 909.745 -2.7935 7.20758 0
M  V30 8208 C 910.685 -1.72945 7.50224 0
M  V30 8209 C 909.955 -0.406376 7.57911 0
M  V30 8210 O 909.745 0.0897726 6.21935 0
M  V30 8211 C 908.555 -0.438983 8.18724 0
M  V30 8212 O 908.165 0.825065 8.71101 0
M  V30 8213 C 907.675 -0.783689 6.99524 0
M  V30 8214 C 908.385 -0.0619086 5.85867 0
M  V30 8215 N 908.335 -0.78573 4.56183 0
M  V30 8216 C 908.185 -0.0292889 3.41887 0
M  V30 8217 O 908.095 1.18445 3.4419 0
M  V30 8218 N 908.145 -0.744061 2.23964 0
M  V30 8219 C 908.235 -2.10932 2.10362 0
M  V30 8220 C 908.385 -2.8202 3.34994 0
M  V30 8221 C 908.435 -2.15547 4.52261 0
M  V30 8222 H 911.176 -1.93379 8.46595 0
M  V30 8223 H 911.445 -1.68132 6.70852 0
M  V30 8224 H 910.578 0.289041 8.15388 0
M  V30 8225 H 907.923 0.926847 5.72749 0
M  V30 8226 H 907.644 -1.86973 6.82036 0
M  V30 8227 H 906.652 -0.403896 7.13257 0
M  V30 8228 H 908.486 -1.20585 8.97435 0
M  V30 8229 H 908.557 -2.71231 5.45042 0
M  V30 8230 P 906.615 1.17771 8.83182 0
M  V30 8231 O 906.395 2.07206 9.98732 0
M  V30 8232 O 905.825 -0.0743816 8.81969 0
M  V30 8233 O 906.365 1.97652 7.47304 0
M  V30 8234 C 907.305 3.01055 7.08599 0
M  V30 8235 C 906.575 4.12613 6.37049 0
M  V30 8236 O 906.365 3.72827 4.97879 0
M  V30 8237 C 905.175 4.45719 6.88164 0
M  V30 8238 O 904.785 5.7877 6.5624 0
M  V30 8239 C 904.295 3.47768 6.11991 0
M  V30 8240 C 905.005 3.39356 4.77615 0
M  V30 8241 N 904.955 2.04571 4.15244 0
M  V30 8242 C 904.805 1.98587 2.78314 0
M  V30 8243 O 904.715 2.98134 2.08835 0
M  V30 8244 N 904.765 0.714467 2.24925 0
M  V30 8245 C 904.855 -0.470001 2.94169 0
M  V30 8246 O 904.805 -1.55587 2.35195 0
M  V30 8247 C 905.005 -0.312541 4.36783 0
M  V30 8248 C 905.115 -1.57711 5.16352 0
M  V30 8249 C 905.055 0.914512 4.92583 0
M  V30 8250 H 907.796 3.41169 7.98575 0
M  V30 8251 H 908.065 2.58295 6.41556 0
M  V30 8252 H 907.198 5.02657 6.42673 0
M  V30 8253 H 904.543 4.11637 4.08885 0
M  V30 8254 H 904.264 2.49626 6.61679 0
M  V30 8255 H 903.272 3.86566 6.00778 0
M  V30 8256 H 905.106 4.29943 7.96918 0
M  V30 8257 H 905.177 1.00937 6.00374 0
M  V30 8258 H 904.147 -1.80153 5.63503 0
M  V30 8259 H 905.884 -1.4566 5.94104 0
M  V30 8260 H 905.396 -2.40664 4.49645 0
M  V30 8261 H 904.66 0.647622 1.25697 0
M  V30 8262 P 903.235 6.144 6.45285 0
M  V30 8263 O 903.015 7.54673 6.86199 0
M  V30 8264 O 902.445 5.12391 7.179 0
M  V30 8265 O 902.985 5.99158 4.88404 0
M  V30 8266 C 903.925 6.60062 3.96313 0
M  V30 8267 C 903.195 7.08259 2.72856 0
M  V30 8268 O 902.985 5.9427 1.83651 0
M  V30 8269 C 901.795 7.65087 2.94749 0
M  V30 8270 O 901.405 8.53963 1.90717 0
M  V30 8271 C 900.915 6.41069 2.90698 0
M  V30 8272 C 901.625 5.5528 1.86931 0
M  V30 8273 N 901.575 4.09575 2.15696 0
M  V30 8274 C 901.425 3.24249 1.08435 0
M  V30 8275 O 901.335 3.63946 -0.0628747 0
M  V30 8276 N 901.385 1.90009 1.39973 0
M  V30 8277 C 901.475 1.34884 2.65614 0
M  V30 8278 O 901.425 0.123716 2.81728 0
M  V30 8279 C 901.625 2.3145 3.71736 0
M  V30 8280 C 901.735 1.75913 5.10438 0
M  V30 8281 C 901.675 3.63518 3.44754 0
M  V30 8282 H 904.416 7.45402 4.45526 0
M  V30 8283 H 904.685 5.86062 3.67208 0
M  V30 8284 H 903.818 7.84412 2.24479 0
M  V30 8285 H 901.163 5.73358 0.888409 0
M  V30 8286 H 900.884 5.90877 3.88583 0
M  V30 8287 H 899.892 6.65867 2.58821 0
M  V30 8288 H 901.726 8.16248 3.92006 0
M  V30 8289 H 901.797 4.34551 4.26383 0
M  V30 8290 H 900.767 1.85471 5.61775 0
M  V30 8291 H 902.504 2.31364 5.66257 0
M  V30 8292 H 902.016 0.695936 5.05229 0
M  V30 8293 H 901.28 1.26277 0.63625 0
M  V30 8294 P 899.855 8.7635 1.60911 0
M  V30 8295 O 899.635 10.1388 1.11561 0
M  V30 8296 O 899.065 8.36503 2.79617 0
M  V30 8297 O 899.605 7.71806 0.42951 0
M  V30 8298 C 900.545 7.67148 -0.673689 0
M  V30 8299 C 899.815 7.33374 -1.95559 0
M  V30 8300 O 899.605 5.88721 -2.00726 0
M  V30 8301 C 898.415 7.92526 -2.10483 0
M  V30 8302 O 898.025 8.02971 -3.47653 0
M  V30 8303 C 897.535 6.89602 -1.41652 0
M  V30 8304 C 898.245 5.59201 -1.75185 0
M  V30 8305 N 898.195 4.58235 -0.662552 0
M  V30 8306 H 901.034 8.65116 -0.777161 0
M  V30 8307 H 901.306 6.90173 -0.474152 0
M  V30 8308 H 900.438 7.66548 -2.79458 0
M  V30 8309 P 896.475 8.03563 -3.84925 0
M  V30 8310 O 896.255 8.85821 -5.0569 0
M  V30 8311 O 895.685 8.41101 -2.65469 0
M  V30 8312 O 896.225 6.4965 -4.18908 0
M  V30 8313 C 897.165 5.80886 -5.05289 0
M  V30 8314 C 896.435 4.78366 -5.89277 0
M  V30 8315 O 896.225 3.58302 -5.08433 0
M  V30 8316 C 895.035 5.16748 -6.36559 0
M  V30 8317 O 894.645 4.45271 -7.53232 0
M  V30 8318 C 894.155 4.74572 -5.19863 0
M  V30 8319 C 894.865 3.49373 -4.70338 0
M  V30 8320 N 894.815 3.31704 -3.22876 0
M  V30 8321 C 894.665 2.03326 -2.74871 0
M  V30 8322 O 894.575 1.06486 -3.48076 0
M  V30 8323 N 894.625 1.91838 -1.37456 0
M  V30 8324 C 894.715 2.94295 -0.462035 0
M  V30 8325 C 894.865 4.25064 -1.05249 0
M  V30 8326 C 894.915 4.40214 -2.39192 0
M  V30 8327 H 897.656 6.54063 -5.71245 0
M  V30 8328 H 897.925 5.30339 -4.43905 0
M  V30 8329 H 897.058 4.55889 -6.76652 0
M  V30 8330 H 894.403 2.6167 -5.17842 0
M  V30 8331 H 894.124 5.52155 -4.41878 0
M  V30 8332 H 893.132 4.51918 -5.53297 0
M  V30 8333 H 894.966 6.25055 -6.55162 0
M  V30 8334 H 895.037 5.39798 -2.81523 0
M  V30 8335 P 893.095 4.23843 -7.83734 0
M  V30 8336 O 892.875 4.19407 -9.29784 0
M  V30 8337 O 892.305 5.24426 -7.09156 0
M  V30 8338 O 892.845 2.7935 -7.20758 0
M  V30 8339 C 893.785 1.72945 -7.50224 0
M  V30 8340 C 893.055 0.406376 -7.57911 0
M  V30 8341 O 892.845 -0.0897726 -6.21935 0
M  V30 8342 C 891.655 0.438983 -8.18724 0
M  V30 8343 O 891.265 -0.825065 -8.71101 0
M  V30 8344 C 890.775 0.783689 -6.99524 0
M  V30 8345 C 891.485 0.0619086 -5.85867 0
M  V30 8346 N 891.435 0.78573 -4.56183 0
M  V30 8347 C 891.285 0.0292889 -3.41887 0
M  V30 8348 O 891.195 -1.18445 -3.4419 0
M  V30 8349 N 891.245 0.744061 -2.23964 0
M  V30 8350 C 891.335 2.10932 -2.10362 0
M  V30 8351 C 891.485 2.8202 -3.34994 0
M  V30 8352 C 891.535 2.15547 -4.52261 0
M  V30 8353 H 894.276 1.93379 -8.46595 0
M  V30 8354 H 894.545 1.68132 -6.70852 0
M  V30 8355 H 893.678 -0.289041 -8.15388 0
M  V30 8356 H 891.023 -0.926847 -5.72749 0
M  V30 8357 H 890.744 1.86973 -6.82036 0
M  V30 8358 H 889.752 0.403896 -7.13257 0
M  V30 8359 H 891.586 1.20585 -8.97435 0
M  V30 8360 H 891.657 2.71231 -5.45042 0
M  V30 8361 P 889.715 -1.17771 -8.83182 0
M  V30 8362 O 889.495 -2.07206 -9.98732 0
M  V30 8363 O 888.925 0.0743816 -8.81969 0
M  V30 8364 O 889.465 -1.97652 -7.47304 0
M  V30 8365 C 890.405 -3.01133 -7.08783 0
M  V30 8366 C 889.675 -4.12613 -6.37049 0
M  V30 8367 O 889.465 -3.72827 -4.97879 0
M  V30 8368 C 888.275 -4.45085 -6.88694 0
M  V30 8369 O 887.885 -5.7877 -6.5624 0
M  V30 8370 C 887.395 -3.47817 -6.12078 0
M  V30 8371 C 888.105 -3.39414 -4.77697 0
M  V30 8372 N 888.055 -2.04615 -4.15333 0
M  V30 8373 H 890.894 -3.41248 -7.98759 0
M  V30 8374 H 891.166 -2.5837 -6.41742 0
M  V30 8375 H 890.298 -5.02657 -6.42673 0
M  V30 8376 P 886.335 -6.144 -6.45285 0
M  V30 8377 O 886.115 -7.54673 -6.86199 0
M  V30 8378 O 885.545 -5.12391 -7.179 0
M  V30 8379 O 886.085 -5.99158 -4.88404 0
M  V30 8380 C 887.025 -6.60234 -3.96415 0
M  V30 8381 C 886.295 -7.08259 -2.72856 0
M  V30 8382 O 886.085 -5.9427 -1.83651 0
M  V30 8383 C 884.895 -7.64886 -2.9555 0
M  V30 8384 O 884.505 -8.53963 -1.90717 0
M  V30 8385 C 884.015 -6.4116 -2.90739 0
M  V30 8386 C 884.725 -5.55375 -1.86963 0
M  V30 8387 N 884.675 -4.09664 -2.15742 0
M  V30 8388 H 887.514 -7.45574 -4.45629 0
M  V30 8389 H 887.786 -5.86232 -3.67314 0
M  V30 8390 H 886.918 -7.84412 -2.24479 0
M  V30 8391 P 882.955 -8.7635 -1.60911 0
M  V30 8392 O 882.735 -10.1388 -1.11561 0
M  V30 8393 O 882.165 -8.36503 -2.79617 0
M  V30 8394 O 882.705 -7.71906 -0.429565 0
M  V30 8395 C 883.645 -7.67148 0.673689 0
M  V30 8396 C 882.915 -7.33666 1.94851 0
M  V30 8397 O 882.705 -5.88816 2.00759 0
M  V30 8398 C 881.515 -7.92526 2.10483 0
M  V30 8399 O 881.125 -8.03063 3.47693 0
M  V30 8400 C 880.635 -6.89602 1.41652 0
M  V30 8401 C 881.345 -5.59201 1.75185 0
M  V30 8402 N 881.295 -4.58235 0.662552 0
M  V30 8403 C 881.145 -3.24451 1.01643 0
M  V30 8404 O 881.055 -2.94958 2.21722 0
M  V30 8405 N 881.095 -2.30408 -0.165238 0
M  V30 8406 C 881.195 -2.66048 -1.25118 0
M  V30 8407 N 881.145 -1.70787 -2.16813 0
M  V30 8408 C 881.345 -4.02732 -1.64413 0
M  V30 8409 C 881.395 -4.9488 -0.63991 0
M  V30 8410 H 884.135 -8.65017 0.777072 0
M  V30 8411 H 884.405 -6.90173 0.474152 0
M  V30 8412 H 883.538 -7.66642 2.79492 0
M  V30 8413 H 880.883 -5.16254 2.65229 0
M  V30 8414 H 880.603 -7.06532 0.329431 0
M  V30 8415 H 879.612 -6.91023 1.82047 0
M  V30 8416 H 881.446 -8.90873 1.62657 0
M  V30 8417 H 881.518 -6.00104 -0.892197 0
M  V30 8418 H 881.416 -4.31733 -2.69229 0
M  V30 8419 H 881.028 -0.724835 -1.8844 0
M  V30 8420 H 881.224 -1.94716 -3.16734 0
M  V30 8421 P 879.575 -8.03563 3.84925 0
M  V30 8422 O 879.355 -8.85821 5.0569 0
M  V30 8423 O 878.785 -8.41101 2.65469 0
M  V30 8424 O 879.325 -6.49734 4.18962 0
M  V30 8425 C 880.265 -5.81037 5.05421 0
M  V30 8426 C 879.535 -4.79018 5.88876 0
M  V30 8427 O 879.325 -3.58359 5.08515 0
M  V30 8428 C 878.135 -5.17448 6.36119 0
M  V30 8429 O 877.745 -4.45322 7.53318 0
M  V30 8430 C 877.255 -4.74639 5.19936 0
M  V30 8431 C 877.965 -3.49432 4.70418 0
M  V30 8432 N 877.915 -3.31776 3.22945 0
M  V30 8433 C 877.765 -2.02742 2.72939 0
M  V30 8434 O 877.675 -1.08301 3.52749 0
M  V30 8435 N 877.715 -1.96117 1.22063 0
M  V30 8436 C 877.815 -2.8878 0.551566 0
M  V30 8437 N 877.765 -2.65609 -0.750198 0
M  V30 8438 C 877.965 -4.22457 1.03707 0
M  V30 8439 C 878.015 -4.37979 2.39113 0
M  V30 8440 H 880.755 -6.54138 5.7131 0
M  V30 8441 H 881.025 -5.30492 4.44033 0
M  V30 8442 H 880.158 -4.55945 6.76735 0
M  V30 8443 H 877.503 -2.6176 5.18021 0
M  V30 8444 H 877.223 -5.52233 4.41941 0
M  V30 8445 H 876.232 -4.52045 5.53452 0
M  V30 8446 H 878.066 -6.25124 6.55234 0
M  V30 8447 H 878.138 -5.37936 2.80552 0
M  V30 8448 H 878.036 -5.07528 0.359553 0
M  V30 8449 H 877.648 -1.69403 -1.09847 0
M  V30 8450 H 877.844 -3.43701 -1.41792 0
M  V30 8451 P 876.195 -4.23843 7.83734 0
M  V30 8452 O 875.975 -4.19407 9.29784 0
M  V30 8453 O 875.405 -5.24426 7.09156 0
M  V30 8454 O 875.945 -2.7935 7.20758 0
M  V30 8455 C 876.885 -1.7299 7.50419 0
M  V30 8456 C 876.155 -0.406376 7.57911 0
M  V30 8457 O 875.945 0.0897726 6.21935 0
M  V30 8458 C 874.755 -0.447224 8.1878 0
M  V30 8459 O 874.365 0.825065 8.71101 0
M  V30 8460 C 873.875 -0.783801 6.99623 0
M  V30 8461 C 874.585 -0.0619192 5.85967 0
M  V30 8462 N 874.535 -0.7859 4.56281 0
M  V30 8463 H 877.374 -1.93423 8.4679 0
M  V30 8464 H 877.646 -1.68181 6.71046 0
M  V30 8465 H 876.778 0.289041 8.15388 0
M  V30 8466 P 872.815 1.17771 8.83182 0
M  V30 8467 O 872.595 2.07206 9.98732 0
M  V30 8468 O 872.025 -0.0743816 8.81969 0
M  V30 8469 O 872.565 1.97652 7.47304 0
M  V30 8470 C 873.505 3.01133 7.08783 0
M  V30 8471 C 872.775 4.12613 6.37049 0
M  V30 8472 O 872.565 3.72827 4.97879 0
M  V30 8473 C 871.375 4.45085 6.88694 0
M  V30 8474 O 870.985 5.7877 6.5624 0
M  V30 8475 C 870.495 3.47817 6.12078 0
M  V30 8476 C 871.205 3.39414 4.77697 0
M  V30 8477 N 871.155 2.04615 4.15333 0
M  V30 8478 H 873.994 3.41248 7.98759 0
M  V30 8479 H 874.266 2.5837 6.41742 0
M  V30 8480 H 873.398 5.02657 6.42673 0
M  V30 8481 P 869.435 6.144 6.45285 0
M  V30 8482 O 869.215 7.54673 6.86199 0
M  V30 8483 O 868.645 5.12391 7.179 0
M  V30 8484 O 869.185 5.99158 4.88404 0
M  V30 8485 C 870.125 6.60062 3.96313 0
M  V30 8486 C 869.395 7.08259 2.72856 0
M  V30 8487 O 869.185 5.9427 1.83651 0
M  V30 8488 C 867.995 7.65087 2.94749 0
M  V30 8489 O 867.605 8.53963 1.90717 0
M  V30 8490 C 867.115 6.41069 2.90698 0
M  V30 8491 C 867.825 5.5528 1.86931 0
M  V30 8492 N 867.775 4.09575 2.15696 0
M  V30 8493 C 867.625 3.24249 1.08435 0
M  V30 8494 O 867.535 3.63946 -0.0628747 0
M  V30 8495 N 867.585 1.90009 1.39973 0
M  V30 8496 C 867.675 1.34884 2.65614 0
M  V30 8497 C 867.825 2.3145 3.71736 0
M  V30 8498 C 867.875 3.63518 3.44754 0
M  V30 8499 H 870.616 7.45402 4.45526 0
M  V30 8500 H 870.885 5.86062 3.67208 0
M  V30 8501 H 870.018 7.84412 2.24479 0
M  V30 8502 H 867.363 5.73358 0.888409 0
M  V30 8503 H 867.084 5.90877 3.88583 0
M  V30 8504 H 866.092 6.65867 2.58821 0
M  V30 8505 H 867.926 8.16248 3.92006 0
M  V30 8506 H 867.997 4.34551 4.26383 0
M  V30 8507 P 866.055 8.7635 1.60911 0
M  V30 8508 O 865.835 10.1388 1.11561 0
M  V30 8509 O 865.265 8.36503 2.79617 0
M  V30 8510 O 865.805 7.71806 0.42951 0
M  V30 8511 C 866.745 7.67148 -0.673689 0
M  V30 8512 C 866.015 7.33374 -1.95559 0
M  V30 8513 O 865.805 5.88721 -2.00726 0
M  V30 8514 C 864.615 7.92526 -2.10483 0
M  V30 8515 O 864.225 8.02971 -3.47653 0
M  V30 8516 C 863.735 6.89602 -1.41652 0
M  V30 8517 C 864.445 5.59201 -1.75185 0
M  V30 8518 N 864.395 4.58301 -0.657969 0
M  V30 8519 H 867.234 8.65116 -0.777161 0
M  V30 8520 H 867.506 6.9022 -0.46725 0
M  V30 8521 H 866.638 7.66548 -2.79458 0
M  V30 8522 H 863.983 5.16165 -2.65183 0
M  V30 8523 H 863.703 7.06433 -0.329384 0
M  V30 8524 H 862.712 6.90926 -1.82021 0
M  V30 8525 H 864.546 8.90873 -1.62657 0
M  V30 8526 P 862.675 8.03563 -3.84925 0
M  V30 8527 O 862.455 8.85821 -5.0569 0
M  V30 8528 O 861.885 8.41101 -2.65469 0
M  V30 8529 O 862.425 6.4965 -4.18908 0
M  V30 8530 C 863.365 5.81037 -5.05421 0
M  V30 8531 C 862.635 4.78366 -5.89277 0
M  V30 8532 O 862.425 3.58302 -5.08433 0
M  V30 8533 C 861.235 5.17448 -6.36119 0
M  V30 8534 O 860.845 4.45271 -7.53232 0
M  V30 8535 C 860.355 4.74639 -5.19936 0
M  V30 8536 C 861.065 3.49432 -4.70418 0
M  V30 8537 N 861.015 3.31776 -3.22945 0
M  V30 8538 H 863.854 6.54213 -5.71376 0
M  V30 8539 H 864.126 5.30492 -4.44033 0
M  V30 8540 H 863.258 4.55889 -6.76652 0
M  V30 8541 P 859.295 4.23843 -7.83734 0
M  V30 8542 O 859.075 4.19407 -9.29784 0
M  V30 8543 O 858.505 5.24426 -7.09156 0
M  V30 8544 O 859.045 2.79386 -7.20852 0
M  V30 8545 C 859.985 1.7299 -7.50419 0
M  V30 8546 C 859.255 0.41401 -7.5797 0
M  V30 8547 O 859.045 -0.089787 -6.22035 0
M  V30 8548 C 857.855 0.447224 -8.1878 0
M  V30 8549 O 857.465 -0.825159 -8.71201 0
M  V30 8550 C 856.975 0.783801 -6.99623 0
M  V30 8551 C 857.685 0.0619192 -5.85967 0
M  V30 8552 N 857.635 0.7859 -4.56281 0
M  V30 8553 C 857.485 0.0359258 -3.39981 0
M  V30 8554 O 857.395 -1.19723 -3.49038 0
M  V30 8555 N 857.435 0.869151 -2.14025 0
M  V30 8556 C 857.535 2.01207 -2.14363 0
M  V30 8557 N 857.485 2.58978 -0.954287 0
M  V30 8558 C 857.685 2.80817 -3.32215 0
M  V30 8559 C 857.735 2.13785 -4.50884 0
M  V30 8560 H 860.475 1.93401 -8.46693 0
M  V30 8561 H 860.745 1.68181 -6.71046 0
M  V30 8562 H 859.878 -0.289076 -8.15488 0
M  V30 8563 H 857.223 -0.927166 -5.72947 0
M  V30 8564 H 856.943 1.87 -6.82132 0
M  V30 8565 H 855.952 0.404009 -7.13457 0
M  V30 8566 H 857.786 1.20599 -8.97534 0
M  V30 8567 H 857.858 2.70295 -5.43162 0
M  V30 8568 H 857.756 3.89465 -3.27406 0
M  V30 8569 H 857.368 2.01616 -0.107046 0
M  V30 8570 H 857.564 3.61403 -0.873101 0
M  V30 8571 P 855.915 -1.17771 -8.83182 0
M  V30 8572 O 855.695 -2.07206 -9.98732 0
M  V30 8573 O 855.125 0.0743816 -8.81969 0
M  V30 8574 O 855.665 -1.97652 -7.47304 0
M  V30 8575 C 856.605 -3.01133 -7.08783 0
M  V30 8576 C 855.875 -4.12613 -6.37049 0
M  V30 8577 O 855.665 -3.72827 -4.97879 0
M  V30 8578 C 854.475 -4.45085 -6.88694 0
M  V30 8579 O 854.085 -5.7877 -6.5624 0
M  V30 8580 C 853.595 -3.47817 -6.12078 0
M  V30 8581 C 854.305 -3.39414 -4.77697 0
M  V30 8582 N 854.255 -2.04615 -4.15333 0
M  V30 8583 H 857.094 -3.41248 -7.98759 0
M  V30 8584 H 857.366 -2.5837 -6.41742 0
M  V30 8585 H 856.498 -5.02657 -6.42673 0
M  V30 8586 P 852.535 -6.144 -6.45285 0
M  V30 8587 O 852.315 -7.54673 -6.86199 0
M  V30 8588 O 851.745 -5.12391 -7.179 0
M  V30 8589 O 852.285 -5.99158 -4.88404 0
M  V30 8590 C 853.225 -6.60062 -3.96313 0
M  V30 8591 C 852.495 -7.08259 -2.72856 0
M  V30 8592 O 852.285 -5.9427 -1.83651 0
M  V30 8593 C 851.095 -7.65087 -2.94749 0
M  V30 8594 O 850.705 -8.53963 -1.90717 0
M  V30 8595 C 850.215 -6.41069 -2.90698 0
M  V30 8596 C 850.925 -5.5528 -1.86931 0
M  V30 8597 N 850.875 -4.09575 -2.15696 0
M  V30 8598 C 850.725 -3.24249 -1.08435 0
M  V30 8599 O 850.635 -3.63946 0.0628747 0
M  V30 8600 N 850.685 -1.90009 -1.39973 0
M  V30 8601 C 850.775 -1.34884 -2.65614 0
M  V30 8602 C 850.925 -2.3145 -3.71736 0
M  V30 8603 C 850.975 -3.63518 -3.44754 0
M  V30 8604 H 853.716 -7.45402 -4.45526 0
M  V30 8605 H 853.985 -5.86062 -3.67208 0
M  V30 8606 H 853.118 -7.84412 -2.24479 0
M  V30 8607 H 850.463 -5.73358 -0.888409 0
M  V30 8608 H 850.184 -5.90877 -3.88583 0
M  V30 8609 H 849.192 -6.65867 -2.58821 0
M  V30 8610 H 851.026 -8.16248 -3.92006 0
M  V30 8611 H 851.097 -4.34551 -4.26383 0
M  V30 8612 P 849.155 -8.7635 -1.60911 0
M  V30 8613 O 848.935 -10.1388 -1.11561 0
M  V30 8614 O 848.365 -8.36503 -2.79617 0
M  V30 8615 O 848.905 -7.71806 -0.42951 0
M  V30 8616 C 849.845 -7.67148 0.673689 0
M  V30 8617 C 849.115 -7.33374 1.95559 0
M  V30 8618 O 848.905 -5.88721 2.00726 0
M  V30 8619 C 847.715 -7.92526 2.10483 0
M  V30 8620 O 847.325 -8.02971 3.47653 0
M  V30 8621 C 846.835 -6.89602 1.41652 0
M  V30 8622 C 847.545 -5.59201 1.75185 0
M  V30 8623 N 847.495 -4.58301 0.657969 0
M  V30 8624 H 850.334 -8.65116 0.777161 0
M  V30 8625 H 850.606 -6.9022 0.46725 0
M  V30 8626 H 849.738 -7.66548 2.79458 0
M  V30 8627 H 847.083 -5.16165 2.65183 0
M  V30 8628 H 846.803 -7.06433 0.329384 0
M  V30 8629 H 845.812 -6.90926 1.82021 0
M  V30 8630 H 847.646 -8.90873 1.62657 0
M  V30 8631 P 845.775 -8.03563 3.84925 0
M  V30 8632 O 845.555 -8.85821 5.0569 0
M  V30 8633 O 844.985 -8.41101 2.65469 0
M  V30 8634 O 845.525 -6.4965 4.18908 0
M  V30 8635 C 846.465 -5.81037 5.05421 0
M  V30 8636 C 845.735 -4.78366 5.89277 0
M  V30 8637 O 845.525 -3.58302 5.08433 0
M  V30 8638 C 844.335 -5.17448 6.36119 0
M  V30 8639 O 843.945 -4.45271 7.53232 0
M  V30 8640 C 843.455 -4.74639 5.19936 0
M  V30 8641 C 844.165 -3.49432 4.70418 0
M  V30 8642 N 844.115 -3.31776 3.22945 0
M  V30 8643 H 846.954 -6.54213 5.71376 0
M  V30 8644 H 847.226 -5.30492 4.44033 0
M  V30 8645 H 846.358 -4.55889 6.76652 0
M  V30 8646 P 842.395 -4.23843 7.83734 0
M  V30 8647 O 842.175 -4.19407 9.29784 0
M  V30 8648 O 841.605 -5.24426 7.09156 0
M  V30 8649 O 842.145 -2.7935 7.20758 0
M  V30 8650 C 843.085 -1.7299 7.50419 0
M  V30 8651 C 842.355 -0.406376 7.57911 0
M  V30 8652 O 842.145 0.0897726 6.21935 0
M  V30 8653 C 840.955 -0.447224 8.1878 0
M  V30 8654 O 840.565 0.825065 8.71101 0
M  V30 8655 C 840.075 -0.783801 6.99623 0
M  V30 8656 C 840.785 -0.0619192 5.85967 0
M  V30 8657 N 840.735 -0.790462 4.56202 0
M  V30 8658 H 843.574 -1.93423 8.4679 0
M  V30 8659 H 843.846 -1.68852 6.70877 0
M  V30 8660 H 842.978 0.289041 8.15388 0
M  V30 8661 H 840.323 0.927006 5.72848 0
M  V30 8662 H 840.043 -1.86973 6.82036 0
M  V30 8663 H 839.052 -0.403953 7.13357 0
M  V30 8664 H 840.886 -1.20599 8.97534 0
M  V30 8665 P 839.015 1.17771 8.83182 0
M  V30 8666 O 838.795 2.07206 9.98732 0
M  V30 8667 O 838.225 -0.0743816 8.81969 0
M  V30 8668 O 838.765 1.97652 7.47304 0
M  V30 8669 C 839.705 3.01055 7.08599 0
M  V30 8670 C 838.975 4.12613 6.37049 0
M  V30 8671 O 838.765 3.72827 4.97879 0
M  V30 8672 C 837.575 4.45719 6.88164 0
M  V30 8673 O 837.185 5.7877 6.5624 0
M  V30 8674 C 836.695 3.47768 6.11991 0
M  V30 8675 C 837.405 3.39356 4.77615 0
M  V30 8676 N 837.355 2.04571 4.15244 0
M  V30 8677 C 837.205 1.98587 2.78314 0
M  V30 8678 O 837.115 2.98134 2.08835 0
M  V30 8679 N 837.165 0.714467 2.24925 0
M  V30 8680 C 837.255 -0.470001 2.94169 0
M  V30 8681 O 837.205 -1.55587 2.35195 0
M  V30 8682 C 837.405 -0.312541 4.36783 0
M  V30 8683 C 837.515 -1.57711 5.16352 0
M  V30 8684 C 837.455 0.914512 4.92583 0
M  V30 8685 H 840.196 3.41169 7.98575 0
M  V30 8686 H 840.465 2.58295 6.41556 0
M  V30 8687 H 839.598 5.02657 6.42673 0
M  V30 8688 H 836.943 4.11637 4.08885 0
M  V30 8689 H 836.664 2.49626 6.61679 0
M  V30 8690 H 835.672 3.86566 6.00778 0
M  V30 8691 H 837.506 4.29943 7.96918 0
M  V30 8692 H 837.577 1.00937 6.00374 0
M  V30 8693 H 836.547 -1.80153 5.63503 0
M  V30 8694 H 838.284 -1.4566 5.94104 0
M  V30 8695 H 837.796 -2.40664 4.49645 0
M  V30 8696 H 837.06 0.647622 1.25697 0
M  V30 8697 P 835.635 6.144 6.45285 0
M  V30 8698 O 835.415 7.54673 6.86199 0
M  V30 8699 O 834.845 5.12391 7.179 0
M  V30 8700 O 835.385 5.99158 4.88404 0
M  V30 8701 C 836.325 6.60062 3.96313 0
M  V30 8702 C 835.595 7.08259 2.72856 0
M  V30 8703 O 835.385 5.9427 1.83651 0
M  V30 8704 C 834.195 7.65087 2.94749 0
M  V30 8705 O 833.805 8.53963 1.90717 0
M  V30 8706 C 833.315 6.41069 2.90698 0
M  V30 8707 C 834.025 5.5528 1.86931 0
M  V30 8708 N 833.975 4.09575 2.15696 0
M  V30 8709 C 833.825 3.24249 1.08435 0
M  V30 8710 O 833.735 3.63946 -0.0628747 0
M  V30 8711 N 833.785 1.90009 1.39973 0
M  V30 8712 C 833.875 1.34884 2.65614 0
M  V30 8713 O 833.825 0.123716 2.81728 0
M  V30 8714 C 834.025 2.3145 3.71736 0
M  V30 8715 C 834.135 1.75913 5.10438 0
M  V30 8716 C 834.075 3.63518 3.44754 0
M  V30 8717 H 836.816 7.45402 4.45526 0
M  V30 8718 H 837.085 5.86062 3.67208 0
M  V30 8719 H 836.218 7.84412 2.24479 0
M  V30 8720 H 833.563 5.73358 0.888409 0
M  V30 8721 H 833.284 5.90877 3.88583 0
M  V30 8722 H 832.292 6.65867 2.58821 0
M  V30 8723 H 834.126 8.16248 3.92006 0
M  V30 8724 H 834.197 4.34551 4.26383 0
M  V30 8725 H 833.167 1.85471 5.61775 0
M  V30 8726 H 834.904 2.31364 5.66257 0
M  V30 8727 H 834.416 0.695936 5.05229 0
M  V30 8728 H 833.68 1.26277 0.63625 0
M  V30 8729 P 832.255 8.7635 1.60911 0
M  V30 8730 O 832.035 10.1388 1.11561 0
M  V30 8731 O 831.465 8.36503 2.79617 0
M  V30 8732 O 832.005 7.71806 0.42951 0
M  V30 8733 C 832.945 7.66948 -0.673514 0
M  V30 8734 C 832.215 7.33374 -1.95559 0
M  V30 8735 O 832.005 5.88721 -2.00726 0
M  V30 8736 C 830.815 7.92218 -2.1125 0
M  V30 8737 O 830.425 8.02971 -3.47653 0
M  V30 8738 C 829.935 6.89504 -1.41631 0
M  V30 8739 C 830.645 5.59106 -1.75155 0
M  V30 8740 N 830.595 4.58136 -0.662409 0
M  V30 8741 C 830.445 3.26059 -1.02863 0
M  V30 8742 O 830.355 2.90743 -2.19009 0
M  V30 8743 N 830.405 2.35995 0.0155585 0
M  V30 8744 C 830.495 2.65248 1.35603 0
M  V30 8745 O 830.445 1.75605 2.20651 0
M  V30 8746 C 830.645 4.05747 1.64698 0
M  V30 8747 C 830.755 4.42345 3.09553 0
M  V30 8748 C 830.695 4.96734 0.652411 0
M  V30 8749 H 833.436 8.64917 -0.776982 0
M  V30 8750 H 833.705 6.89974 -0.474015 0
M  V30 8751 H 832.838 7.66548 -2.79458 0
M  V30 8752 H 830.183 5.16076 -2.65138 0
M  V30 8753 H 829.904 7.06433 -0.329384 0
M  V30 8754 H 828.912 6.90829 -1.81996 0
M  V30 8755 H 830.746 8.90774 -1.62639 0
M  V30 8756 H 830.817 6.02181 0.895285 0
M  V30 8757 H 829.787 4.80252 3.45468 0
M  V30 8758 H 831.524 5.20015 3.22119 0
M  V30 8759 H 831.036 3.53269 3.67833 0
M  V30 8760 H 830.3 1.39558 -0.227499 0
M  V30 8761 P 828.875 8.03563 -3.84925 0
M  V30 8762 O 828.655 8.85821 -5.0569 0
M  V30 8763 O 828.085 8.41101 -2.65469 0
M  V30 8764 O 828.625 6.49734 -4.18962 0
M  V30 8765 C 829.565 5.81037 -5.05421 0
M  V30 8766 C 828.835 4.79018 -5.88876 0
M  V30 8767 O 828.625 3.58359 -5.08515 0
M  V30 8768 C 827.435 5.17448 -6.36119 0
M  V30 8769 O 827.045 4.45322 -7.53318 0
M  V30 8770 C 826.555 4.74639 -5.19936 0
M  V30 8771 C 827.265 3.49432 -4.70418 0
M  V30 8772 N 827.215 3.31776 -3.22945 0
M  V30 8773 C 827.065 2.02742 -2.72939 0
M  V30 8774 O 826.975 1.08301 -3.52749 0
M  V30 8775 N 827.015 1.96117 -1.22063 0
M  V30 8776 C 827.115 2.8878 -0.551566 0
M  V30 8777 N 827.065 2.65609 0.750198 0
M  V30 8778 C 827.265 4.22457 -1.03707 0
M  V30 8779 C 827.315 4.37979 -2.39113 0
M  V30 8780 H 830.055 6.54138 -5.7131 0
M  V30 8781 H 830.325 5.30492 -4.44033 0
M  V30 8782 H 829.458 4.55945 -6.76735 0
M  V30 8783 H 826.803 2.6176 -5.18021 0
M  V30 8784 H 826.523 5.52233 -4.41941 0
M  V30 8785 H 825.532 4.52045 -5.53452 0
M  V30 8786 H 827.366 6.25124 -6.55234 0
M  V30 8787 H 827.438 5.37936 -2.80552 0
M  V30 8788 H 827.336 5.07528 -0.359553 0
M  V30 8789 H 826.948 1.69403 1.09847 0
M  V30 8790 H 827.144 3.43701 1.41792 0
M  V30 8791 P 825.495 4.23843 -7.83734 0
M  V30 8792 O 825.275 4.19407 -9.29784 0
M  V30 8793 O 824.705 5.24426 -7.09156 0
M  V30 8794 O 825.245 2.7935 -7.20758 0
M  V30 8795 C 826.185 1.72945 -7.50224 0
M  V30 8796 C 825.455 0.406376 -7.57911 0
M  V30 8797 O 825.245 -0.0897726 -6.21935 0
M  V30 8798 C 824.055 0.438983 -8.18724 0
M  V30 8799 O 823.665 -0.825065 -8.71101 0
M  V30 8800 C 823.175 0.783689 -6.99524 0
M  V30 8801 C 823.885 0.0619086 -5.85867 0
M  V30 8802 N 823.835 0.78573 -4.56183 0
M  V30 8803 C 823.685 0.0292889 -3.41887 0
M  V30 8804 O 823.595 -1.18445 -3.4419 0
M  V30 8805 N 823.645 0.744061 -2.23964 0
M  V30 8806 C 823.735 2.10932 -2.10362 0
M  V30 8807 C 823.885 2.8202 -3.34994 0
M  V30 8808 C 823.935 2.15547 -4.52261 0
M  V30 8809 H 826.676 1.93379 -8.46595 0
M  V30 8810 H 826.945 1.68132 -6.70852 0
M  V30 8811 H 826.078 -0.289041 -8.15388 0
M  V30 8812 H 823.423 -0.926847 -5.72749 0
M  V30 8813 H 823.144 1.86973 -6.82036 0
M  V30 8814 H 822.152 0.403896 -7.13257 0
M  V30 8815 H 823.986 1.20585 -8.97435 0
M  V30 8816 H 824.057 2.71231 -5.45042 0
M  V30 8817 P 822.115 -1.17771 -8.83182 0
M  V30 8818 O 821.895 -2.07206 -9.98732 0
M  V30 8819 O 821.325 0.0743816 -8.81969 0
M  V30 8820 O 821.865 -1.97652 -7.47304 0
M  V30 8821 C 822.805 -3.01133 -7.08783 0
M  V30 8822 C 822.075 -4.12613 -6.37049 0
M  V30 8823 O 821.865 -3.72827 -4.97879 0
M  V30 8824 C 820.675 -4.45085 -6.88694 0
M  V30 8825 O 820.285 -5.7877 -6.5624 0
M  V30 8826 C 819.795 -3.47817 -6.12078 0
M  V30 8827 C 820.505 -3.39414 -4.77697 0
M  V30 8828 N 820.455 -2.04199 -4.15538 0
M  V30 8829 H 823.294 -3.41248 -7.98759 0
M  V30 8830 H 823.566 -2.57728 -6.42 0
M  V30 8831 H 822.698 -5.02657 -6.42673 0
M  V30 8832 H 820.043 -4.11708 -4.08956 0
M  V30 8833 H 819.763 -2.49626 -6.61679 0
M  V30 8834 H 818.772 -3.8662 -6.00862 0
M  V30 8835 H 820.606 -4.29991 -7.97006 0
M  V30 8836 P 818.735 -6.144 -6.45285 0
M  V30 8837 O 818.515 -7.54673 -6.86199 0
M  V30 8838 O 817.945 -5.12391 -7.179 0
M  V30 8839 O 818.485 -5.99158 -4.88404 0
M  V30 8840 C 819.425 -6.60234 -3.96415 0
M  V30 8841 C 818.695 -7.08259 -2.72856 0
M  V30 8842 O 818.485 -5.9427 -1.83651 0
M  V30 8843 C 817.295 -7.64886 -2.9555 0
M  V30 8844 O 816.905 -8.53963 -1.90717 0
M  V30 8845 C 816.415 -6.4116 -2.90739 0
M  V30 8846 C 817.125 -5.55375 -1.86963 0
M  V30 8847 N 817.075 -4.09664 -2.15742 0
M  V30 8848 H 819.914 -7.45574 -4.45629 0
M  V30 8849 H 820.186 -5.86232 -3.67314 0
M  V30 8850 H 819.318 -7.84412 -2.24479 0
M  V30 8851 P 815.355 -8.7635 -1.60911 0
M  V30 8852 O 815.135 -10.1388 -1.11561 0
M  V30 8853 O 814.565 -8.36503 -2.79617 0
M  V30 8854 O 815.105 -7.71806 -0.42951 0
M  V30 8855 C 816.045 -7.67148 0.673689 0
M  V30 8856 C 815.315 -7.33374 1.95559 0
M  V30 8857 O 815.105 -5.88721 2.00726 0
M  V30 8858 C 813.915 -7.92526 2.10483 0
M  V30 8859 O 813.525 -8.02971 3.47653 0
M  V30 8860 C 813.035 -6.89602 1.41652 0
M  V30 8861 C 813.745 -5.59201 1.75185 0
M  V30 8862 N 813.695 -4.58301 0.657969 0
M  V30 8863 C 813.775 -4.79019 -0.692603 0
M  V30 8864 N 813.705 -3.69736 -1.38998 0
M  V30 8865 C 813.555 -2.70474 -0.438135 0
M  V30 8866 C 813.425 -1.30327 -0.538142 0
M  V30 8867 N 813.415 -0.64304 -1.69192 0
M  V30 8868 N 813.305 -0.611027 0.605183 0
M  V30 8869 C 813.315 -1.27002 1.75953 0
M  V30 8870 N 813.435 -2.56038 1.98546 0
M  V30 8871 C 813.555 -3.22681 0.822541 0
M  V30 8872 H 816.534 -8.65116 0.777161 0
M  V30 8873 H 816.806 -6.9022 0.46725 0
M  V30 8874 H 815.938 -7.66548 2.79458 0
M  V30 8875 H 813.283 -5.16165 2.65183 0
M  V30 8876 H 813.003 -7.06433 0.329384 0
M  V30 8877 H 812.012 -6.90926 1.82021 0
M  V30 8878 H 813.846 -8.90873 1.62657 0
M  V30 8879 H 813.887 -5.77785 -1.13874 0
M  V30 8880 H 813.506 -1.15585 -2.57991 0
M  V30 8881 H 813.317 0.382989 -1.69835 0
M  V30 8882 H 813.209 -0.653331 2.64449 0
M  V30 8883 P 811.975 -8.03563 3.84925 0
M  V30 8884 O 811.755 -8.85821 5.0569 0
M  V30 8885 O 811.185 -8.41101 2.65469 0
M  V30 8886 O 811.725 -6.4965 4.18908 0
M  V30 8887 C 812.665 -5.81037 5.05421 0
M  V30 8888 C 811.935 -4.78366 5.89277 0
M  V30 8889 O 811.725 -3.58302 5.08433 0
M  V30 8890 C 810.535 -5.17448 6.36119 0
M  V30 8891 O 810.145 -4.45271 7.53232 0
M  V30 8892 C 809.655 -4.74639 5.19936 0
M  V30 8893 C 810.365 -3.49432 4.70418 0
M  V30 8894 N 810.315 -3.31776 3.22945 0
M  V30 8895 H 813.154 -6.54213 5.71376 0
M  V30 8896 H 813.426 -5.30492 4.44033 0
M  V30 8897 H 812.558 -4.55889 6.76652 0
M  V30 8898 P 808.595 -4.23843 7.83734 0
M  V30 8899 O 808.375 -4.19407 9.29784 0
M  V30 8900 O 807.805 -5.24426 7.09156 0
M  V30 8901 O 808.345 -2.7935 7.20758 0
M  V30 8902 C 809.285 -1.7299 7.50419 0
M  V30 8903 C 808.555 -0.406376 7.57911 0
M  V30 8904 O 808.345 0.0897726 6.21935 0
M  V30 8905 C 807.155 -0.447224 8.1878 0
M  V30 8906 O 806.765 0.825065 8.71101 0
M  V30 8907 C 806.275 -0.783801 6.99623 0
M  V30 8908 C 806.985 -0.0619192 5.85967 0
M  V30 8909 N 806.935 -0.790462 4.56202 0
M  V30 8910 C 807.015 -2.13895 4.34171 0
M  V30 8911 N 806.945 -2.46449 3.08687 0
M  V30 8912 C 806.795 -1.2525 2.43697 0
M  V30 8913 C 806.665 -0.914535 1.07318 0
M  V30 8914 N 806.655 -1.80782 0.0887348 0
M  V30 8915 N 806.545 0.386745 0.768133 0
M  V30 8916 C 806.555 1.28096 1.75159 0
M  V30 8917 N 806.675 1.09708 3.04861 0
M  V30 8918 C 806.795 -0.214857 3.32306 0
M  V30 8919 H 809.774 -1.93423 8.4679 0
M  V30 8920 H 810.046 -1.68852 6.70877 0
M  V30 8921 H 809.178 0.289041 8.15388 0
M  V30 8922 H 806.523 0.927006 5.72848 0
M  V30 8923 H 806.243 -1.86973 6.82036 0
M  V30 8924 H 805.252 -0.403953 7.13357 0
M  V30 8925 H 807.086 -1.20599 8.97534 0
M  V30 8926 H 807.127 -2.86846 5.14318 0
M  V30 8927 H 806.746 -2.81082 0.302037 0
M  V30 8928 H 806.557 -1.49688 -0.889064 0
M  V30 8929 H 806.449 2.31317 1.43855 0
M  V30 8930 P 805.215 1.17771 8.83182 0
M  V30 8931 O 804.995 2.07206 9.98732 0
M  V30 8932 O 804.425 -0.0743816 8.81969 0
M  V30 8933 O 804.965 1.97652 7.47304 0
M  V30 8934 C 805.905 3.01133 7.08783 0
M  V30 8935 C 805.175 4.12613 6.37049 0
M  V30 8936 O 804.965 3.72827 4.97879 0
M  V30 8937 C 803.775 4.45085 6.88694 0
M  V30 8938 O 803.385 5.7877 6.5624 0
M  V30 8939 C 802.895 3.47817 6.12078 0
M  V30 8940 C 803.605 3.39414 4.77697 0
M  V30 8941 N 803.555 2.04199 4.15538 0
M  V30 8942 C 803.635 0.821545 4.76977 0
M  V30 8943 N 803.565 -0.1794 3.94592 0
M  V30 8944 C 803.415 0.419121 2.70776 0
M  V30 8945 C 803.285 -0.109072 1.40577 0
M  V30 8946 N 803.275 -1.4104 1.1344 0
M  V30 8947 N 803.165 0.764381 0.39411 0
M  V30 8948 C 803.175 2.06587 0.664135 0
M  V30 8949 N 803.295 2.67948 1.82153 0
M  V30 8950 C 803.415 1.77942 2.8147 0
M  V30 8951 H 806.394 3.41248 7.98759 0
M  V30 8952 H 806.666 2.57728 6.42 0
M  V30 8953 H 805.798 5.02657 6.42673 0
M  V30 8954 H 803.143 4.11708 4.08956 0
M  V30 8955 H 802.863 2.49626 6.61679 0
M  V30 8956 H 801.872 3.8662 6.00862 0
M  V30 8957 H 803.706 4.29991 7.97006 0
M  V30 8958 H 803.747 0.702451 5.84696 0
M  V30 8959 H 803.366 -2.09647 1.89651 0
M  V30 8960 H 803.177 -1.73358 0.160575 0
M  V30 8961 H 803.069 2.71695 -0.195838 0
M  V30 8962 P 801.835 6.144 6.45285 0
M  V30 8963 O 801.615 7.54673 6.86199 0
M  V30 8964 O 801.045 5.12391 7.179 0
M  V30 8965 O 801.585 5.99158 4.88404 0
M  V30 8966 C 802.525 6.60234 3.96415 0
M  V30 8967 C 801.795 7.08259 2.72856 0
M  V30 8968 O 801.585 5.9427 1.83651 0
M  V30 8969 C 800.395 7.64886 2.9555 0
M  V30 8970 O 800.005 8.53963 1.90717 0
M  V30 8971 C 799.515 6.4116 2.90739 0
M  V30 8972 C 800.225 5.55375 1.86963 0
M  V30 8973 N 800.175 4.09664 2.15742 0
M  V30 8974 H 803.014 7.45574 4.45629 0
M  V30 8975 H 803.286 5.86232 3.67314 0
M  V30 8976 H 802.418 7.84412 2.24479 0
M  V30 8977 P 798.455 8.7635 1.60911 0
M  V30 8978 O 798.235 10.1388 1.11561 0
M  V30 8979 O 797.665 8.36503 2.79617 0
M  V30 8980 O 798.205 7.71806 0.42951 0
M  V30 8981 C 799.145 7.67148 -0.673689 0
M  V30 8982 C 798.415 7.33374 -1.95559 0
M  V30 8983 O 798.205 5.88721 -2.00726 0
M  V30 8984 C 797.015 7.92526 -2.10483 0
M  V30 8985 O 796.625 8.02971 -3.47653 0
M  V30 8986 C 796.135 6.89602 -1.41652 0
M  V30 8987 C 796.845 5.59201 -1.75185 0
M  V30 8988 N 796.795 4.58235 -0.662552 0
M  V30 8989 H 799.634 8.65116 -0.777161 0
M  V30 8990 H 799.906 6.90173 -0.474152 0
M  V30 8991 H 799.038 7.66548 -2.79458 0
M  V30 8992 P 795.075 8.03563 -3.84925 0
M  V30 8993 O 794.855 8.85821 -5.0569 0
M  V30 8994 O 794.285 8.41101 -2.65469 0
M  V30 8995 O 794.825 6.4965 -4.18908 0
M  V30 8996 C 795.765 5.81037 -5.05421 0
M  V30 8997 C 795.035 4.78366 -5.89277 0
M  V30 8998 O 794.825 3.58302 -5.08433 0
M  V30 8999 C 793.635 5.17448 -6.36119 0
M  V30 9000 O 793.245 4.45271 -7.53232 0
M  V30 9001 C 792.755 4.74639 -5.19936 0
M  V30 9002 C 793.465 3.49432 -4.70418 0
M  V30 9003 N 793.415 3.31776 -3.22945 0
M  V30 9004 H 796.254 6.54213 -5.71376 0
M  V30 9005 H 796.526 5.30492 -4.44033 0
M  V30 9006 H 795.658 4.55889 -6.76652 0
M  V30 9007 P 791.695 4.23843 -7.83734 0
M  V30 9008 O 791.475 4.19407 -9.29784 0
M  V30 9009 O 790.905 5.24426 -7.09156 0
M  V30 9010 O 791.445 2.7935 -7.20758 0
M  V30 9011 C 792.385 1.7299 -7.50419 0
M  V30 9012 C 791.655 0.406376 -7.57911 0
M  V30 9013 O 791.445 -0.0897726 -6.21935 0
M  V30 9014 C 790.255 0.447224 -8.1878 0
M  V30 9015 O 789.865 -0.825065 -8.71101 0
M  V30 9016 C 789.375 0.783801 -6.99623 0
M  V30 9017 C 790.085 0.0619192 -5.85967 0
M  V30 9018 N 790.035 0.7859 -4.56281 0
M  V30 9019 H 792.874 1.93423 -8.4679 0
M  V30 9020 H 793.146 1.68181 -6.71046 0
M  V30 9021 H 792.278 -0.289041 -8.15388 0
M  V30 9022 P 788.315 -1.17771 -8.83182 0
M  V30 9023 O 788.095 -2.07206 -9.98732 0
M  V30 9024 O 787.525 0.0743816 -8.81969 0
M  V30 9025 O 788.065 -1.97652 -7.47304 0
M  V30 9026 C 789.005 -3.01133 -7.08783 0
M  V30 9027 C 788.275 -4.12613 -6.37049 0
M  V30 9028 O 788.065 -3.72827 -4.97879 0
M  V30 9029 C 786.875 -4.45085 -6.88694 0
M  V30 9030 O 786.485 -5.7877 -6.5624 0
M  V30 9031 C 785.995 -3.47817 -6.12078 0
M  V30 9032 C 786.705 -3.39414 -4.77697 0
M  V30 9033 N 786.655 -2.04615 -4.15333 0
M  V30 9034 H 789.494 -3.41248 -7.98759 0
M  V30 9035 H 789.766 -2.5837 -6.41742 0
M  V30 9036 H 788.898 -5.02657 -6.42673 0
M  V30 9037 P 784.935 -6.144 -6.45285 0
M  V30 9038 O 784.715 -7.54673 -6.86199 0
M  V30 9039 O 784.145 -5.12391 -7.179 0
M  V30 9040 O 784.685 -5.99236 -4.88467 0
M  V30 9041 C 785.625 -6.60234 -3.96415 0
M  V30 9042 C 784.895 -7.08079 -2.736 0
M  V30 9043 O 784.685 -5.94365 -1.8368 0
M  V30 9044 C 783.495 -7.64886 -2.9555 0
M  V30 9045 O 783.105 -8.5406 -1.90739 0
M  V30 9046 C 782.615 -6.4116 -2.90739 0
M  V30 9047 C 783.325 -5.55375 -1.86963 0
M  V30 9048 N 783.275 -4.09664 -2.15742 0
M  V30 9049 C 783.125 -3.22231 -1.08477 0
M  V30 9050 O 783.035 -3.68951 0.0600489 0
M  V30 9051 N 783.075 -1.76692 -1.48799 0
M  V30 9052 C 783.175 -1.41695 -2.57602 0
M  V30 9053 N 783.125 -0.107296 -2.75791 0
M  V30 9054 C 783.325 -2.29178 -3.69733 0
M  V30 9055 C 783.375 -3.62753 -3.42653 0
M  V30 9056 H 786.115 -7.45488 -4.45578 0
M  V30 9057 H 786.385 -5.86232 -3.67314 0
M  V30 9058 H 785.518 -7.84508 -2.24507 0
M  V30 9059 H 782.863 -5.73556 -0.888715 0
M  V30 9060 H 782.583 -5.9096 -3.88638 0
M  V30 9061 H 781.592 -6.66053 -2.58894 0
M  V30 9062 H 783.426 -8.16339 -3.92049 0
M  V30 9063 H 783.498 -4.33052 -4.24913 0
M  V30 9064 H 783.396 -1.9103 -4.71577 0
M  V30 9065 H 783.008 0.521221 -1.95056 0
M  V30 9066 H 783.204 0.286429 -3.70695 0
M  V30 9067 P 781.555 -8.7635 -1.60911 0
M  V30 9068 O 781.335 -10.1388 -1.11561 0
M  V30 9069 O 780.765 -8.36503 -2.79617 0
M  V30 9070 O 781.305 -7.71806 -0.42951 0
M  V30 9071 C 782.245 -7.67148 0.673689 0
M  V30 9072 C 781.515 -7.33374 1.95559 0
M  V30 9073 O 781.305 -5.88721 2.00726 0
M  V30 9074 C 780.115 -7.92526 2.10483 0
M  V30 9075 O 779.725 -8.02971 3.47653 0
M  V30 9076 C 779.235 -6.89602 1.41652 0
M  V30 9077 C 779.945 -5.59201 1.75185 0
M  V30 9078 N 779.895 -4.58301 0.657969 0
M  V30 9079 H 782.734 -8.65116 0.777161 0
M  V30 9080 H 783.006 -6.9022 0.46725 0
M  V30 9081 H 782.138 -7.66548 2.79458 0
M  V30 9082 H 779.483 -5.16165 2.65183 0
M  V30 9083 H 779.203 -7.06433 0.329384 0
M  V30 9084 H 778.212 -6.90926 1.82021 0
M  V30 9085 H 780.046 -8.90873 1.62657 0
M  V30 9086 P 778.175 -8.03563 3.84925 0
M  V30 9087 O 777.955 -8.85821 5.0569 0
M  V30 9088 O 777.385 -8.41101 2.65469 0
M  V30 9089 O 777.925 -6.4965 4.18908 0
M  V30 9090 C 778.865 -5.80886 5.05289 0
M  V30 9091 C 778.135 -4.78366 5.89277 0
M  V30 9092 O 777.925 -3.58302 5.08433 0
M  V30 9093 C 776.735 -5.16748 6.36559 0
M  V30 9094 O 776.345 -4.45271 7.53232 0
M  V30 9095 C 775.855 -4.74572 5.19863 0
M  V30 9096 C 776.565 -3.49373 4.70338 0
M  V30 9097 N 776.515 -3.31704 3.22876 0
M  V30 9098 C 776.365 -2.03326 2.74871 0
M  V30 9099 O 776.275 -1.06486 3.48076 0
M  V30 9100 N 776.325 -1.91838 1.37456 0
M  V30 9101 C 776.415 -2.94295 0.462035 0
M  V30 9102 C 776.565 -4.25064 1.05249 0
M  V30 9103 C 776.615 -4.40214 2.39192 0
M  V30 9104 H 779.356 -6.54063 5.71245 0
M  V30 9105 H 779.625 -5.30339 4.43905 0
M  V30 9106 H 778.758 -4.55889 6.76652 0
M  V30 9107 H 776.103 -2.6167 5.17842 0
M  V30 9108 H 775.824 -5.52155 4.41878 0
M  V30 9109 H 774.832 -4.51918 5.53297 0
M  V30 9110 H 776.666 -6.25055 6.55162 0
M  V30 9111 H 776.737 -5.39798 2.81523 0
M  V30 9112 P 774.795 -4.23843 7.83734 0
M  V30 9113 O 774.575 -4.19407 9.29784 0
M  V30 9114 O 774.005 -5.24426 7.09156 0
M  V30 9115 O 774.545 -2.7935 7.20758 0
M  V30 9116 C 775.485 -1.72945 7.50224 0
M  V30 9117 C 774.755 -0.406376 7.57911 0
M  V30 9118 O 774.545 0.0897726 6.21935 0
M  V30 9119 C 773.355 -0.438983 8.18724 0
M  V30 9120 O 772.965 0.825065 8.71101 0
M  V30 9121 C 772.475 -0.783689 6.99524 0
M  V30 9122 C 773.185 -0.0619086 5.85867 0
M  V30 9123 N 773.135 -0.78573 4.56183 0
M  V30 9124 C 772.985 -0.0292889 3.41887 0
M  V30 9125 O 772.895 1.18445 3.4419 0
M  V30 9126 N 772.945 -0.744061 2.23964 0
M  V30 9127 C 773.035 -2.10932 2.10362 0
M  V30 9128 O 772.985 -2.64117 0.98825 0
M  V30 9129 C 773.185 -2.8202 3.34994 0
M  V30 9130 C 773.295 -4.31095 3.25037 0
M  V30 9131 C 773.235 -2.15547 4.52261 0
M  V30 9132 H 775.976 -1.93379 8.46595 0
M  V30 9133 H 776.245 -1.68132 6.70852 0
M  V30 9134 H 775.378 0.289041 8.15388 0
M  V30 9135 H 772.723 0.926847 5.72749 0
M  V30 9136 H 772.444 -1.86973 6.82036 0
M  V30 9137 H 771.452 -0.403896 7.13257 0
M  V30 9138 H 773.286 -1.20585 8.97435 0
M  V30 9139 H 773.357 -2.71231 5.45042 0
M  V30 9140 H 772.327 -4.76966 3.49992 0
M  V30 9141 H 774.064 -4.67047 3.95024 0
M  V30 9142 H 773.576 -4.58996 2.22312 0
M  V30 9143 H 772.84 -0.214893 1.39758 0
M  V30 9144 P 771.415 1.17771 8.83182 0
M  V30 9145 O 771.195 2.07206 9.98732 0
M  V30 9146 O 770.625 -0.0743816 8.81969 0
M  V30 9147 O 771.165 1.97652 7.47304 0
M  V30 9148 C 772.105 3.01133 7.08783 0
M  V30 9149 C 771.375 4.12613 6.37049 0
M  V30 9150 O 771.165 3.72827 4.97879 0
M  V30 9151 C 769.975 4.45085 6.88694 0
M  V30 9152 O 769.585 5.7877 6.5624 0
M  V30 9153 C 769.095 3.47817 6.12078 0
M  V30 9154 C 769.805 3.39414 4.77697 0
M  V30 9155 N 769.755 2.04615 4.15333 0
M  V30 9156 H 772.594 3.41248 7.98759 0
M  V30 9157 H 772.866 2.5837 6.41742 0
M  V30 9158 H 771.998 5.02657 6.42673 0
M  V30 9159 P 768.035 6.144 6.45285 0
M  V30 9160 O 767.815 7.54673 6.86199 0
M  V30 9161 O 767.245 5.12391 7.179 0
M  V30 9162 O 767.785 5.99158 4.88404 0
M  V30 9163 C 768.725 6.60234 3.96415 0
M  V30 9164 C 767.995 7.08259 2.72856 0
M  V30 9165 O 767.785 5.9427 1.83651 0
M  V30 9166 C 766.595 7.64886 2.9555 0
M  V30 9167 O 766.205 8.53963 1.90717 0
M  V30 9168 C 765.715 6.4116 2.90739 0
M  V30 9169 C 766.425 5.55375 1.86963 0
M  V30 9170 N 766.375 4.09448 2.16152 0
M  V30 9171 H 769.214 7.45574 4.45629 0
M  V30 9172 H 769.486 5.85864 3.679 0
M  V30 9173 H 768.618 7.84412 2.24479 0
M  V30 9174 H 765.963 5.73457 0.888562 0
M  V30 9175 H 765.683 5.90877 3.88583 0
M  V30 9176 H 764.692 6.6596 2.58858 0
M  V30 9177 H 766.526 8.16339 3.92049 0
M  V30 9178 P 764.656 8.7635 1.60911 0
M  V30 9179 O 764.436 10.1388 1.11561 0
M  V30 9180 O 763.866 8.36503 2.79617 0
M  V30 9181 O 764.406 7.71806 0.42951 0
M  V30 9182 C 765.346 7.67148 -0.673689 0
M  V30 9183 C 764.616 7.33374 -1.95559 0
M  V30 9184 O 764.406 5.88721 -2.00726 0
M  V30 9185 C 763.216 7.92526 -2.10483 0
M  V30 9186 O 762.826 8.02971 -3.47653 0
M  V30 9187 C 762.336 6.89602 -1.41652 0
M  V30 9188 C 763.046 5.59201 -1.75185 0
M  V30 9189 N 762.996 4.58235 -0.662552 0
M  V30 9190 H 765.835 8.65116 -0.777161 0
M  V30 9191 H 766.107 6.90173 -0.474152 0
M  V30 9192 H 765.239 7.66548 -2.79458 0
M  V30 9193 P 761.276 8.03563 -3.84925 0
M  V30 9194 O 761.056 8.85821 -5.0569 0
M  V30 9195 O 760.486 8.41101 -2.65469 0
M  V30 9196 O 761.026 6.4965 -4.18908 0
M  V30 9197 C 761.966 5.81037 -5.05421 0
M  V30 9198 C 761.236 4.78366 -5.89277 0
M  V30 9199 O 761.026 3.58302 -5.08433 0
M  V30 9200 C 759.836 5.17448 -6.36119 0
M  V30 9201 O 759.446 4.45271 -7.53232 0
M  V30 9202 C 758.956 4.74639 -5.19936 0
M  V30 9203 C 759.666 3.49432 -4.70418 0
M  V30 9204 N 759.616 3.31776 -3.22945 0
M  V30 9205 H 762.455 6.54213 -5.71376 0
M  V30 9206 H 762.727 5.30492 -4.44033 0
M  V30 9207 H 761.859 4.55889 -6.76652 0
M  V30 9208 P 757.896 4.23843 -7.83734 0
M  V30 9209 O 757.676 4.19407 -9.29784 0
M  V30 9210 O 757.106 5.24426 -7.09156 0
M  V30 9211 O 757.646 2.7935 -7.20758 0
M  V30 9212 C 758.586 1.7299 -7.50419 0
M  V30 9213 C 757.856 0.406376 -7.57911 0
M  V30 9214 O 757.646 -0.0897726 -6.21935 0
M  V30 9215 C 756.456 0.447224 -8.1878 0
M  V30 9216 O 756.066 -0.825065 -8.71101 0
M  V30 9217 C 755.576 0.783801 -6.99623 0
M  V30 9218 C 756.286 0.0619192 -5.85967 0
M  V30 9219 N 756.236 0.7859 -4.56281 0
M  V30 9220 C 756.316 2.14308 -4.31736 0
M  V30 9221 N 756.236 2.46106 -3.05116 0
M  V30 9222 C 756.096 1.23422 -2.4014 0
M  V30 9223 C 755.966 0.938381 -1.02409 0
M  V30 9224 O 755.946 1.70876 -0.0650402 0
M  V30 9225 N 755.846 -0.444647 -0.805413 0
M  V30 9226 C 755.846 -1.40829 -1.79435 0
M  V30 9227 N 755.716 -2.67213 -1.38558 0
M  V30 9228 N 755.976 -1.12947 -3.09005 0
M  V30 9229 C 756.096 0.204887 -3.32369 0
M  V30 9230 H 759.075 1.93423 -8.4679 0
M  V30 9231 H 759.347 1.68181 -6.71046 0
M  V30 9232 H 758.479 -0.289041 -8.15388 0
M  V30 9233 H 755.824 -0.927166 -5.72947 0
M  V30 9234 H 755.544 1.87 -6.82132 0
M  V30 9235 H 754.553 0.404009 -7.13457 0
M  V30 9236 H 756.387 1.20612 -8.97633 0
M  V30 9237 H 756.436 2.88284 -5.10874 0
M  V30 9238 H 755.754 -0.755087 0.140242 0
M  V30 9239 H 755.717 -3.43967 -2.0729 0
M  V30 9240 H 755.616 -2.88096 -0.380644 0
M  V30 9241 P 754.516 -1.17771 -8.83182 0
M  V30 9242 O 754.296 -2.07206 -9.98732 0
M  V30 9243 O 753.726 0.0743816 -8.81969 0
M  V30 9244 O 754.266 -1.97678 -7.474 0
M  V30 9245 C 755.206 -3.01133 -7.08783 0
M  V30 9246 C 754.476 -4.1203 -6.37546 0
M  V30 9247 O 754.266 -3.72887 -4.9796 0
M  V30 9248 C 753.076 -4.45085 -6.88694 0
M  V30 9249 O 752.686 -5.78836 -6.56315 0
M  V30 9250 C 752.196 -3.47817 -6.12078 0
M  V30 9251 C 752.906 -3.39414 -4.77697 0
M  V30 9252 N 752.856 -2.04615 -4.15333 0
M  V30 9253 C 752.706 -1.96929 -2.77162 0
M  V30 9254 O 752.616 -3.02017 -2.12006 0
M  V30 9255 N 752.656 -0.55485 -2.24237 0
M  V30 9256 C 752.756 0.367808 -2.9169 0
M  V30 9257 N 752.706 1.53426 -2.29427 0
M  V30 9258 C 752.906 0.319148 -4.33828 0
M  V30 9259 C 752.956 -0.920672 -4.90433 0
M  V30 9260 H 755.696 -3.41209 -7.98667 0
M  V30 9261 H 755.966 -2.5837 -6.41742 0
M  V30 9262 H 755.099 -5.02718 -6.42752 0
M  V30 9263 H 752.444 -4.11779 -4.09026 0
M  V30 9264 H 752.164 -2.49661 -6.61772 0
M  V30 9265 H 751.173 -3.86674 -6.00946 0
M  V30 9266 H 753.007 -4.29991 -7.97006 0
M  V30 9267 H 753.079 -1.00589 -5.98303 0
M  V30 9268 H 752.977 1.22639 -4.93799 0
M  V30 9269 H 752.589 1.56819 -1.27167 0
M  V30 9270 H 752.785 2.41062 -2.83063 0
M  V30 9271 P 751.136 -6.144 -6.45285 0
M  V30 9272 O 750.916 -7.54673 -6.86199 0
M  V30 9273 O 750.346 -5.12391 -7.179 0
M  V30 9274 O 750.886 -5.99158 -4.88404 0
M  V30 9275 C 751.826 -6.60234 -3.96415 0
M  V30 9276 C 751.096 -7.08259 -2.72856 0
M  V30 9277 O 750.886 -5.9427 -1.83651 0
M  V30 9278 C 749.696 -7.64886 -2.9555 0
M  V30 9279 O 749.306 -8.53963 -1.90717 0
M  V30 9280 C 748.816 -6.4116 -2.90739 0
M  V30 9281 C 749.526 -5.55375 -1.86963 0
M  V30 9282 N 749.476 -4.09664 -2.15742 0
M  V30 9283 H 752.315 -7.45574 -4.45629 0
M  V30 9284 H 752.587 -5.86232 -3.67314 0
M  V30 9285 H 751.719 -7.84412 -2.24479 0
M  V30 9286 P 747.756 -8.7635 -1.60911 0
M  V30 9287 O 747.536 -10.1388 -1.11561 0
M  V30 9288 O 746.966 -8.36503 -2.79617 0
M  V30 9289 O 747.506 -7.71906 -0.429565 0
M  V30 9290 C 748.446 -7.67148 0.673689 0
M  V30 9291 C 747.716 -7.33666 1.94851 0
M  V30 9292 O 747.506 -5.88816 2.00759 0
M  V30 9293 C 746.316 -7.92526 2.10483 0
M  V30 9294 O 745.926 -8.03063 3.47693 0
M  V30 9295 C 745.436 -6.89602 1.41652 0
M  V30 9296 C 746.146 -5.59201 1.75185 0
M  V30 9297 N 746.096 -4.58235 0.662552 0
M  V30 9298 C 745.946 -3.24451 1.01643 0
M  V30 9299 O 745.856 -2.94958 2.21722 0
M  V30 9300 N 745.896 -2.30408 -0.165238 0
M  V30 9301 C 745.996 -2.66048 -1.25118 0
M  V30 9302 N 745.946 -1.70787 -2.16813 0
M  V30 9303 C 746.146 -4.02732 -1.64413 0
M  V30 9304 C 746.196 -4.9488 -0.63991 0
M  V30 9305 H 748.936 -8.65017 0.777072 0
M  V30 9306 H 749.206 -6.90173 0.474152 0
M  V30 9307 H 748.339 -7.66642 2.79492 0
M  V30 9308 H 745.684 -5.16254 2.65229 0
M  V30 9309 H 745.404 -7.06532 0.329431 0
M  V30 9310 H 744.413 -6.91023 1.82047 0
M  V30 9311 H 746.247 -8.90873 1.62657 0
M  V30 9312 H 746.319 -6.00104 -0.892197 0
M  V30 9313 H 746.217 -4.31733 -2.69229 0
M  V30 9314 H 745.829 -0.724835 -1.8844 0
M  V30 9315 H 746.025 -1.94716 -3.16734 0
M  V30 9316 P 744.376 -8.03563 3.84925 0
M  V30 9317 O 744.156 -8.85821 5.0569 0
M  V30 9318 O 743.586 -8.41101 2.65469 0
M  V30 9319 O 744.126 -6.4965 4.18908 0
M  V30 9320 C 745.066 -5.81037 5.05421 0
M  V30 9321 C 744.336 -4.78366 5.89277 0
M  V30 9322 O 744.126 -3.58302 5.08433 0
M  V30 9323 C 742.936 -5.17448 6.36119 0
M  V30 9324 O 742.546 -4.45271 7.53232 0
M  V30 9325 C 742.056 -4.74639 5.19936 0
M  V30 9326 C 742.766 -3.49432 4.70418 0
M  V30 9327 N 742.716 -3.32099 3.22613 0
M  V30 9328 H 745.555 -6.54213 5.71376 0
M  V30 9329 H 745.827 -5.30936 4.43503 0
M  V30 9330 H 744.959 -4.55889 6.76652 0
M  V30 9331 H 742.304 -2.61715 5.17932 0
M  V30 9332 H 742.024 -5.52155 4.41878 0
M  V30 9333 H 741.033 -4.51981 5.53374 0
M  V30 9334 H 742.867 -6.25124 6.55234 0
M  V30 9335 P 740.996 -4.23843 7.83734 0
M  V30 9336 O 740.776 -4.19407 9.29784 0
M  V30 9337 O 740.206 -5.24426 7.09156 0
M  V30 9338 O 740.746 -2.7935 7.20758 0
M  V30 9339 C 741.686 -1.7299 7.50419 0
M  V30 9340 C 740.956 -0.406376 7.57911 0
M  V30 9341 O 740.746 0.0897726 6.21935 0
M  V30 9342 C 739.556 -0.447224 8.1878 0
M  V30 9343 O 739.166 0.825065 8.71101 0
M  V30 9344 C 738.676 -0.783801 6.99623 0
M  V30 9345 C 739.386 -0.0619192 5.85967 0
M  V30 9346 N 739.336 -0.7859 4.56281 0
M  V30 9347 H 742.175 -1.93423 8.4679 0
M  V30 9348 H 742.447 -1.68181 6.71046 0
M  V30 9349 H 741.579 0.289041 8.15388 0
M  V30 9350 P 737.616 1.17771 8.83182 0
M  V30 9351 O 737.396 2.07206 9.98732 0
M  V30 9352 O 736.826 -0.0743816 8.81969 0
M  V30 9353 O 737.366 1.97652 7.47304 0
M  V30 9354 C 738.306 3.01055 7.08599 0
M  V30 9355 C 737.576 4.12613 6.37049 0
M  V30 9356 O 737.366 3.72827 4.97879 0
M  V30 9357 C 736.176 4.45719 6.88164 0
M  V30 9358 O 735.786 5.7877 6.5624 0
M  V30 9359 C 735.296 3.47768 6.11991 0
M  V30 9360 C 736.006 3.39356 4.77615 0
M  V30 9361 N 735.956 2.04571 4.15244 0
M  V30 9362 C 735.806 1.98587 2.78314 0
M  V30 9363 O 735.716 2.98134 2.08835 0
M  V30 9364 N 735.766 0.714467 2.24925 0
M  V30 9365 C 735.856 -0.470001 2.94169 0
M  V30 9366 C 736.006 -0.312541 4.36783 0
M  V30 9367 C 736.056 0.914512 4.92583 0
M  V30 9368 H 738.797 3.41169 7.98575 0
M  V30 9369 H 739.066 2.58295 6.41556 0
M  V30 9370 H 738.199 5.02657 6.42673 0
M  V30 9371 H 735.544 4.11637 4.08885 0
M  V30 9372 H 735.265 2.49626 6.61679 0
M  V30 9373 H 734.273 3.86566 6.00778 0
M  V30 9374 H 736.107 4.29943 7.96918 0
M  V30 9375 H 736.178 1.00937 6.00374 0
M  V30 9376 P 734.236 6.144 6.45285 0
M  V30 9377 O 734.016 7.54673 6.86199 0
M  V30 9378 O 733.446 5.12391 7.179 0
M  V30 9379 O 733.986 5.99158 4.88404 0
M  V30 9380 C 734.926 6.60062 3.96313 0
M  V30 9381 C 734.196 7.08259 2.72856 0
M  V30 9382 O 733.986 5.9427 1.83651 0
M  V30 9383 C 732.796 7.65087 2.94749 0
M  V30 9384 O 732.406 8.53963 1.90717 0
M  V30 9385 C 731.916 6.41069 2.90698 0
M  V30 9386 C 732.626 5.5528 1.86931 0
M  V30 9387 N 732.576 4.09575 2.15696 0
M  V30 9388 C 732.426 3.24249 1.08435 0
M  V30 9389 O 732.336 3.63946 -0.0628747 0
M  V30 9390 N 732.386 1.90009 1.39973 0
M  V30 9391 C 732.476 1.34884 2.65614 0
M  V30 9392 O 732.426 0.123716 2.81728 0
M  V30 9393 C 732.626 2.3145 3.71736 0
M  V30 9394 C 732.736 1.75913 5.10438 0
M  V30 9395 C 732.676 3.63518 3.44754 0
M  V30 9396 H 735.417 7.45402 4.45526 0
M  V30 9397 H 735.686 5.86062 3.67208 0
M  V30 9398 H 734.819 7.84412 2.24479 0
M  V30 9399 H 732.164 5.73358 0.888409 0
M  V30 9400 H 731.885 5.90877 3.88583 0
M  V30 9401 H 730.893 6.65867 2.58821 0
M  V30 9402 H 732.727 8.16248 3.92006 0
M  V30 9403 H 732.798 4.34551 4.26383 0
M  V30 9404 H 731.768 1.85471 5.61775 0
M  V30 9405 H 733.505 2.31364 5.66257 0
M  V30 9406 H 733.017 0.695936 5.05229 0
M  V30 9407 H 732.281 1.26277 0.63625 0
M  V30 9408 P 730.856 8.7635 1.60911 0
M  V30 9409 O 730.636 10.1388 1.11561 0
M  V30 9410 O 730.066 8.36503 2.79617 0
M  V30 9411 O 730.606 7.71806 0.42951 0
M  V30 9412 C 731.546 7.67148 -0.673689 0
M  V30 9413 C 730.816 7.33374 -1.95559 0
M  V30 9414 O 730.606 5.88721 -2.00726 0
M  V30 9415 C 729.416 7.92526 -2.10483 0
M  V30 9416 O 729.026 8.02971 -3.47653 0
M  V30 9417 C 728.536 6.89602 -1.41652 0
M  V30 9418 C 729.246 5.59201 -1.75185 0
M  V30 9419 N 729.196 4.58235 -0.662552 0
M  V30 9420 H 732.035 8.65116 -0.777161 0
M  V30 9421 H 732.307 6.90173 -0.474152 0
M  V30 9422 H 731.439 7.66548 -2.79458 0
M  V30 9423 P 727.476 8.03563 -3.84925 0
M  V30 9424 O 727.256 8.85821 -5.0569 0
M  V30 9425 O 726.686 8.41101 -2.65469 0
M  V30 9426 O 727.226 6.4965 -4.18908 0
M  V30 9427 C 728.166 5.81037 -5.05421 0
M  V30 9428 C 727.436 4.78366 -5.89277 0
M  V30 9429 O 727.226 3.58302 -5.08433 0
M  V30 9430 C 726.036 5.17448 -6.36119 0
M  V30 9431 O 725.646 4.45271 -7.53232 0
M  V30 9432 C 725.156 4.74639 -5.19936 0
M  V30 9433 C 725.866 3.49432 -4.70418 0
M  V30 9434 N 725.816 3.31776 -3.22945 0
M  V30 9435 H 728.655 6.54213 -5.71376 0
M  V30 9436 H 728.927 5.30492 -4.44033 0
M  V30 9437 H 728.059 4.55889 -6.76652 0
M  V30 9438 P 724.096 4.23843 -7.83734 0
M  V30 9439 O 723.876 4.19407 -9.29784 0
M  V30 9440 O 723.306 5.24426 -7.09156 0
M  V30 9441 O 723.846 2.7935 -7.20758 0
M  V30 9442 C 724.786 1.7299 -7.50419 0
M  V30 9443 C 724.056 0.406376 -7.57911 0
M  V30 9444 O 723.846 -0.0897726 -6.21935 0
M  V30 9445 C 722.656 0.447224 -8.1878 0
M  V30 9446 O 722.266 -0.825065 -8.71101 0
M  V30 9447 C 721.776 0.783801 -6.99623 0
M  V30 9448 C 722.486 0.0619192 -5.85967 0
M  V30 9449 N 722.436 0.7859 -4.56281 0
M  V30 9450 C 722.516 2.14308 -4.31736 0
M  V30 9451 N 722.436 2.46106 -3.05116 0
M  V30 9452 C 722.296 1.23422 -2.4014 0
M  V30 9453 C 722.166 0.938381 -1.02409 0
M  V30 9454 N 722.046 -0.444647 -0.805413 0
M  V30 9455 C 722.046 -1.40829 -1.79435 0
M  V30 9456 N 721.916 -2.67213 -1.38558 0
M  V30 9457 N 722.176 -1.12947 -3.09005 0
M  V30 9458 C 722.296 0.204887 -3.32369 0
M  V30 9459 H 725.275 1.93423 -8.4679 0
M  V30 9460 H 725.547 1.68181 -6.71046 0
M  V30 9461 H 724.679 -0.289041 -8.15388 0
M  V30 9462 P 720.716 -1.17771 -8.83182 0
M  V30 9463 O 720.496 -2.07206 -9.98732 0
M  V30 9464 O 719.926 0.0743816 -8.81969 0
M  V30 9465 O 720.466 -1.97652 -7.47304 0
M  V30 9466 C 721.406 -3.01133 -7.08783 0
M  V30 9467 C 720.676 -4.12613 -6.37049 0
M  V30 9468 O 720.466 -3.72827 -4.97879 0
M  V30 9469 C 719.276 -4.45085 -6.88694 0
M  V30 9470 O 718.886 -5.7877 -6.5624 0
M  V30 9471 C 718.396 -3.47817 -6.12078 0
M  V30 9472 C 719.106 -3.39414 -4.77697 0
M  V30 9473 N 719.056 -2.04615 -4.15333 0
M  V30 9474 C 719.136 -0.803897 -4.75249 0
M  V30 9475 N 719.056 0.197615 -3.91502 0
M  V30 9476 C 718.916 -0.413002 -2.66823 0
M  V30 9477 C 718.786 0.157221 -1.38007 0
M  V30 9478 O 718.766 1.34419 -1.057 0
M  V30 9479 N 718.666 -0.833136 -0.390236 0
M  V30 9480 C 718.666 -2.19402 -0.623885 0
M  V30 9481 N 718.536 -2.97622 0.449677 0
M  V30 9482 N 718.796 -2.73005 -1.83601 0
M  V30 9483 C 718.916 -1.78786 -2.80935 0
M  V30 9484 H 721.895 -3.41248 -7.98759 0
M  V30 9485 H 722.167 -2.5837 -6.41742 0
M  V30 9486 H 721.299 -5.02657 -6.42673 0
M  V30 9487 H 718.644 -4.11779 -4.09026 0
M  V30 9488 H 718.364 -2.49661 -6.61772 0
M  V30 9489 H 717.373 -3.86674 -6.00946 0
M  V30 9490 H 719.207 -4.30038 -7.97094 0
M  V30 9491 H 719.256 -0.670579 -5.82754 0
M  V30 9492 H 718.574 -0.528446 0.557287 0
M  V30 9493 H 718.537 -4.00117 0.344773 0
M  V30 9494 H 718.436 -2.55448 1.38544 0
M  V30 9495 P 717.336 -6.144 -6.45285 0
M  V30 9496 O 717.116 -7.54673 -6.86199 0
M  V30 9497 O 716.546 -5.12391 -7.179 0
M  V30 9498 O 717.086 -5.99158 -4.88404 0
M  V30 9499 C 718.026 -6.60234 -3.96415 0
M  V30 9500 C 717.296 -7.08259 -2.72856 0
M  V30 9501 O 717.086 -5.9427 -1.83651 0
M  V30 9502 C 715.896 -7.64886 -2.9555 0
M  V30 9503 O 715.506 -8.53963 -1.90717 0
M  V30 9504 C 715.016 -6.4116 -2.90739 0
M  V30 9505 C 715.726 -5.55375 -1.86963 0
M  V30 9506 N 715.676 -4.09664 -2.15742 0
M  V30 9507 H 718.515 -7.45574 -4.45629 0
M  V30 9508 H 718.787 -5.86232 -3.67314 0
M  V30 9509 H 717.919 -7.84412 -2.24479 0
M  V30 9510 P 713.956 -8.7635 -1.60911 0
M  V30 9511 O 713.736 -10.1388 -1.11561 0
M  V30 9512 O 713.166 -8.36503 -2.79617 0
M  V30 9513 O 713.706 -7.71806 -0.42951 0
M  V30 9514 C 714.646 -7.67148 0.673689 0
M  V30 9515 C 713.916 -7.33374 1.95559 0
M  V30 9516 O 713.706 -5.88721 2.00726 0
M  V30 9517 C 712.516 -7.92526 2.10483 0
M  V30 9518 O 712.126 -8.02971 3.47653 0
M  V30 9519 C 711.636 -6.89602 1.41652 0
M  V30 9520 C 712.346 -5.59201 1.75185 0
M  V30 9521 N 712.296 -4.58301 0.657969 0
M  V30 9522 H 715.135 -8.65116 0.777161 0
M  V30 9523 H 715.407 -6.9022 0.46725 0
M  V30 9524 H 714.539 -7.66548 2.79458 0
M  V30 9525 H 711.884 -5.16165 2.65183 0
M  V30 9526 H 711.604 -7.06433 0.329384 0
M  V30 9527 H 710.613 -6.90926 1.82021 0
M  V30 9528 H 712.447 -8.90873 1.62657 0
M  V30 9529 P 710.576 -8.03563 3.84925 0
M  V30 9530 O 710.356 -8.85821 5.0569 0
M  V30 9531 O 709.786 -8.41101 2.65469 0
M  V30 9532 O 710.326 -6.4965 4.18908 0
M  V30 9533 C 711.266 -5.81037 5.05421 0
M  V30 9534 C 710.536 -4.78366 5.89277 0
M  V30 9535 O 710.326 -3.58302 5.08433 0
M  V30 9536 C 709.136 -5.17448 6.36119 0
M  V30 9537 O 708.746 -4.45271 7.53232 0
M  V30 9538 C 708.256 -4.74639 5.19936 0
M  V30 9539 C 708.966 -3.49432 4.70418 0
M  V30 9540 N 708.916 -3.31776 3.22945 0
M  V30 9541 H 711.755 -6.54213 5.71376 0
M  V30 9542 H 712.027 -5.30492 4.44033 0
M  V30 9543 H 711.159 -4.55889 6.76652 0
M  V30 9544 P 707.196 -4.23843 7.83734 0
M  V30 9545 O 706.976 -4.19407 9.29784 0
M  V30 9546 O 706.406 -5.24426 7.09156 0
M  V30 9547 O 706.946 -2.7935 7.20758 0
M  V30 9548 C 707.886 -1.72945 7.50224 0
M  V30 9549 C 707.156 -0.406376 7.57911 0
M  V30 9550 O 706.946 0.0897726 6.21935 0
M  V30 9551 C 705.756 -0.438983 8.18724 0
M  V30 9552 O 705.366 0.825065 8.71101 0
M  V30 9553 C 704.876 -0.783689 6.99524 0
M  V30 9554 C 705.586 -0.0619086 5.85867 0
M  V30 9555 N 705.536 -0.78573 4.56183 0
M  V30 9556 C 705.386 -0.0292889 3.41887 0
M  V30 9557 O 705.296 1.18445 3.4419 0
M  V30 9558 N 705.346 -0.744061 2.23964 0
M  V30 9559 C 705.436 -2.10932 2.10362 0
M  V30 9560 O 705.386 -2.64117 0.98825 0
M  V30 9561 C 705.586 -2.8202 3.34994 0
M  V30 9562 C 705.696 -4.31095 3.25037 0
M  V30 9563 C 705.636 -2.15547 4.52261 0
M  V30 9564 H 708.377 -1.93379 8.46595 0
M  V30 9565 H 708.646 -1.68132 6.70852 0
M  V30 9566 H 707.779 0.289041 8.15388 0
M  V30 9567 H 705.124 0.926847 5.72749 0
M  V30 9568 H 704.845 -1.86973 6.82036 0
M  V30 9569 H 703.853 -0.403896 7.13257 0
M  V30 9570 H 705.687 -1.20585 8.97435 0
M  V30 9571 H 705.758 -2.71231 5.45042 0
M  V30 9572 H 704.728 -4.76966 3.49992 0
M  V30 9573 H 706.465 -4.67047 3.95024 0
M  V30 9574 H 705.977 -4.58996 2.22312 0
M  V30 9575 H 705.241 -0.214893 1.39758 0
M  V30 9576 P 703.816 1.17771 8.83182 0
M  V30 9577 O 703.596 2.07206 9.98732 0
M  V30 9578 O 703.026 -0.0743816 8.81969 0
M  V30 9579 O 703.566 1.97652 7.47304 0
M  V30 9580 C 704.506 3.01055 7.08599 0
M  V30 9581 C 703.776 4.12613 6.37049 0
M  V30 9582 O 703.566 3.72827 4.97879 0
M  V30 9583 C 702.376 4.45719 6.88164 0
M  V30 9584 O 701.986 5.7877 6.5624 0
M  V30 9585 C 701.496 3.47768 6.11991 0
M  V30 9586 C 702.206 3.39356 4.77615 0
M  V30 9587 N 702.156 2.04571 4.15244 0
M  V30 9588 C 702.006 1.98587 2.78314 0
M  V30 9589 O 701.916 2.98134 2.08835 0
M  V30 9590 N 701.966 0.714467 2.24925 0
M  V30 9591 C 702.056 -0.470001 2.94169 0
M  V30 9592 O 702.006 -1.55587 2.35195 0
M  V30 9593 C 702.206 -0.312541 4.36783 0
M  V30 9594 C 702.316 -1.57711 5.16352 0
M  V30 9595 C 702.256 0.914512 4.92583 0
M  V30 9596 H 704.997 3.41169 7.98575 0
M  V30 9597 H 705.266 2.58295 6.41556 0
M  V30 9598 H 704.399 5.02657 6.42673 0
M  V30 9599 H 701.744 4.11637 4.08885 0
M  V30 9600 H 701.465 2.49626 6.61679 0
M  V30 9601 H 700.473 3.86566 6.00778 0
M  V30 9602 H 702.307 4.29943 7.96918 0
M  V30 9603 H 702.378 1.00937 6.00374 0
M  V30 9604 H 701.348 -1.80153 5.63503 0
M  V30 9605 H 703.085 -1.4566 5.94104 0
M  V30 9606 H 702.597 -2.40664 4.49645 0
M  V30 9607 H 701.861 0.647622 1.25697 0
M  V30 9608 P 700.436 6.144 6.45285 0
M  V30 9609 O 700.216 7.54673 6.86199 0
M  V30 9610 O 699.646 5.12391 7.179 0
M  V30 9611 O 700.186 5.99158 4.88404 0
M  V30 9612 C 701.126 6.60234 3.96415 0
M  V30 9613 C 700.396 7.08259 2.72856 0
M  V30 9614 O 700.186 5.9427 1.83651 0
M  V30 9615 C 698.996 7.64886 2.9555 0
M  V30 9616 O 698.606 8.53963 1.90717 0
M  V30 9617 C 698.116 6.4116 2.90739 0
M  V30 9618 C 698.826 5.55375 1.86963 0
M  V30 9619 N 698.776 4.09664 2.15742 0
M  V30 9620 H 701.615 7.45574 4.45629 0
M  V30 9621 H 701.887 5.86232 3.67314 0
M  V30 9622 H 701.019 7.84412 2.24479 0
M  V30 9623 P 697.056 8.7635 1.60911 0
M  V30 9624 O 696.836 10.1388 1.11561 0
M  V30 9625 O 696.266 8.36503 2.79617 0
M  V30 9626 O 696.806 7.71806 0.42951 0
M  V30 9627 C 697.746 7.67148 -0.673689 0
M  V30 9628 C 697.016 7.33374 -1.95559 0
M  V30 9629 O 696.806 5.88721 -2.00726 0
M  V30 9630 C 695.616 7.92526 -2.10483 0
M  V30 9631 O 695.226 8.02971 -3.47653 0
M  V30 9632 C 694.736 6.89602 -1.41652 0
M  V30 9633 C 695.446 5.59201 -1.75185 0
M  V30 9634 N 695.396 4.58235 -0.662552 0
M  V30 9635 H 698.235 8.65116 -0.777161 0
M  V30 9636 H 698.507 6.90173 -0.474152 0
M  V30 9637 H 697.639 7.66548 -2.79458 0
M  V30 9638 P 693.676 8.03563 -3.84925 0
M  V30 9639 O 693.456 8.85821 -5.0569 0
M  V30 9640 O 692.886 8.41101 -2.65469 0
M  V30 9641 O 693.426 6.4965 -4.18908 0
M  V30 9642 C 694.366 5.81037 -5.05421 0
M  V30 9643 C 693.636 4.78366 -5.89277 0
M  V30 9644 O 693.426 3.58302 -5.08433 0
M  V30 9645 C 692.236 5.17448 -6.36119 0
M  V30 9646 O 691.846 4.45271 -7.53232 0
M  V30 9647 C 691.356 4.74639 -5.19936 0
M  V30 9648 C 692.066 3.49432 -4.70418 0
M  V30 9649 N 692.016 3.31776 -3.22945 0
M  V30 9650 H 694.855 6.54213 -5.71376 0
M  V30 9651 H 695.127 5.30492 -4.44033 0
M  V30 9652 H 694.259 4.55889 -6.76652 0
M  V30 9653 P 690.296 4.23843 -7.83734 0
M  V30 9654 O 690.076 4.19407 -9.29784 0
M  V30 9655 O 689.506 5.24426 -7.09156 0
M  V30 9656 O 690.046 2.7935 -7.20758 0
M  V30 9657 C 690.986 1.72945 -7.50224 0
M  V30 9658 C 690.256 0.406376 -7.57911 0
M  V30 9659 O 690.046 -0.0897726 -6.21935 0
M  V30 9660 C 688.856 0.438983 -8.18724 0
M  V30 9661 O 688.466 -0.825065 -8.71101 0
M  V30 9662 C 687.976 0.783689 -6.99524 0
M  V30 9663 C 688.686 0.0619086 -5.85867 0
M  V30 9664 N 688.636 0.78573 -4.56183 0
M  V30 9665 C 688.486 0.0292889 -3.41887 0
M  V30 9666 O 688.396 -1.18445 -3.4419 0
M  V30 9667 N 688.446 0.744061 -2.23964 0
M  V30 9668 C 688.536 2.10932 -2.10362 0
M  V30 9669 C 688.686 2.8202 -3.34994 0
M  V30 9670 C 688.736 2.15547 -4.52261 0
M  V30 9671 H 691.477 1.93379 -8.46595 0
M  V30 9672 H 691.746 1.68132 -6.70852 0
M  V30 9673 H 690.879 -0.289041 -8.15388 0
M  V30 9674 H 688.224 -0.926847 -5.72749 0
M  V30 9675 H 687.945 1.86973 -6.82036 0
M  V30 9676 H 686.953 0.403896 -7.13257 0
M  V30 9677 H 688.787 1.20585 -8.97435 0
M  V30 9678 H 688.858 2.71231 -5.45042 0
M  V30 9679 P 686.916 -1.17771 -8.83182 0
M  V30 9680 O 686.696 -2.07206 -9.98732 0
M  V30 9681 O 686.126 0.0743816 -8.81969 0
M  V30 9682 O 686.666 -1.97652 -7.47304 0
M  V30 9683 C 687.606 -3.01133 -7.08783 0
M  V30 9684 C 686.876 -4.12613 -6.37049 0
M  V30 9685 O 686.666 -3.72827 -4.97879 0
M  V30 9686 C 685.476 -4.45085 -6.88694 0
M  V30 9687 O 685.086 -5.7877 -6.5624 0
M  V30 9688 C 684.596 -3.47817 -6.12078 0
M  V30 9689 C 685.306 -3.39414 -4.77697 0
M  V30 9690 N 685.256 -2.04615 -4.15333 0
M  V30 9691 H 688.095 -3.41248 -7.98759 0
M  V30 9692 H 688.367 -2.5837 -6.41742 0
M  V30 9693 H 687.499 -5.02657 -6.42673 0
M  V30 9694 P 683.536 -6.144 -6.45285 0
M  V30 9695 O 683.316 -7.54673 -6.86199 0
M  V30 9696 O 682.746 -5.12391 -7.179 0
M  V30 9697 O 683.286 -5.99158 -4.88404 0
M  V30 9698 C 684.226 -6.60234 -3.96415 0
M  V30 9699 C 683.496 -7.08259 -2.72856 0
M  V30 9700 O 683.286 -5.9427 -1.83651 0
M  V30 9701 C 682.096 -7.64886 -2.9555 0
M  V30 9702 O 681.706 -8.53963 -1.90717 0
M  V30 9703 C 681.216 -6.4116 -2.90739 0
M  V30 9704 C 681.926 -5.55375 -1.86963 0
M  V30 9705 N 681.876 -4.09448 -2.16152 0
M  V30 9706 H 684.715 -7.45574 -4.45629 0
M  V30 9707 H 684.987 -5.85864 -3.679 0
M  V30 9708 H 684.119 -7.84412 -2.24479 0
M  V30 9709 H 681.464 -5.73457 -0.888562 0
M  V30 9710 H 681.184 -5.90877 -3.88583 0
M  V30 9711 H 680.193 -6.6596 -2.58858 0
M  V30 9712 H 682.027 -8.16339 -3.92049 0
M  V30 9713 P 680.156 -8.7635 -1.60911 0
M  V30 9714 O 679.936 -10.1388 -1.11561 0
M  V30 9715 O 679.366 -8.36503 -2.79617 0
M  V30 9716 O 679.906 -7.71806 -0.42951 0
M  V30 9717 C 680.846 -7.67148 0.673689 0
M  V30 9718 C 680.116 -7.33374 1.95559 0
M  V30 9719 O 679.906 -5.88721 2.00726 0
M  V30 9720 C 678.716 -7.92526 2.10483 0
M  V30 9721 O 678.326 -8.02971 3.47653 0
M  V30 9722 C 677.836 -6.89602 1.41652 0
M  V30 9723 C 678.546 -5.59201 1.75185 0
M  V30 9724 N 678.496 -4.58235 0.662552 0
M  V30 9725 H 681.335 -8.65116 0.777161 0
M  V30 9726 H 681.607 -6.90173 0.474152 0
M  V30 9727 H 680.739 -7.66548 2.79458 0
M  V30 9728 P 676.776 -8.03563 3.84925 0
M  V30 9729 O 676.556 -8.85821 5.0569 0
M  V30 9730 O 675.986 -8.41101 2.65469 0
M  V30 9731 O 676.526 -6.4965 4.18908 0
M  V30 9732 C 677.466 -5.81037 5.05421 0
M  V30 9733 C 676.736 -4.78366 5.89277 0
M  V30 9734 O 676.526 -3.58302 5.08433 0
M  V30 9735 C 675.336 -5.17448 6.36119 0
M  V30 9736 O 674.946 -4.45271 7.53232 0
M  V30 9737 C 674.456 -4.74639 5.19936 0
M  V30 9738 C 675.166 -3.49432 4.70418 0
M  V30 9739 N 675.116 -3.31776 3.22945 0
M  V30 9740 H 677.955 -6.54213 5.71376 0
M  V30 9741 H 678.227 -5.30492 4.44033 0
M  V30 9742 H 677.359 -4.55889 6.76652 0
M  V30 9743 P 673.396 -4.23843 7.83734 0
M  V30 9744 O 673.176 -4.19407 9.29784 0
M  V30 9745 O 672.606 -5.24426 7.09156 0
M  V30 9746 O 673.146 -2.7935 7.20758 0
M  V30 9747 C 674.086 -1.7299 7.50419 0
M  V30 9748 C 673.356 -0.406376 7.57911 0
M  V30 9749 O 673.146 0.0897726 6.21935 0
M  V30 9750 C 671.956 -0.447224 8.1878 0
M  V30 9751 O 671.566 0.825065 8.71101 0
M  V30 9752 C 671.076 -0.783801 6.99623 0
M  V30 9753 C 671.786 -0.0619192 5.85967 0
M  V30 9754 N 671.736 -0.7859 4.56281 0
M  V30 9755 H 674.575 -1.93423 8.4679 0
M  V30 9756 H 674.847 -1.68181 6.71046 0
M  V30 9757 H 673.979 0.289041 8.15388 0
M  V30 9758 P 670.016 1.17771 8.83182 0
M  V30 9759 O 669.796 2.07206 9.98732 0
M  V30 9760 O 669.226 -0.0743816 8.81969 0
M  V30 9761 O 669.766 1.97652 7.47304 0
M  V30 9762 C 670.706 3.01133 7.08783 0
M  V30 9763 C 669.976 4.12613 6.37049 0
M  V30 9764 O 669.766 3.72827 4.97879 0
M  V30 9765 C 668.576 4.45085 6.88694 0
M  V30 9766 O 668.186 5.7877 6.5624 0
M  V30 9767 C 667.696 3.47817 6.12078 0
M  V30 9768 C 668.406 3.39414 4.77697 0
M  V30 9769 N 668.356 2.04615 4.15333 0
M  V30 9770 H 671.195 3.41248 7.98759 0
M  V30 9771 H 671.467 2.5837 6.41742 0
M  V30 9772 H 670.599 5.02657 6.42673 0
M  V30 9773 P 666.636 6.144 6.45285 0
M  V30 9774 O 666.416 7.54673 6.86199 0
M  V30 9775 O 665.846 5.12391 7.179 0
M  V30 9776 O 666.386 5.99158 4.88404 0
M  V30 9777 C 667.326 6.60234 3.96415 0
M  V30 9778 C 666.596 7.08259 2.72856 0
M  V30 9779 O 666.386 5.9427 1.83651 0
M  V30 9780 C 665.196 7.64886 2.9555 0
M  V30 9781 O 664.806 8.53963 1.90717 0
M  V30 9782 C 664.316 6.4116 2.90739 0
M  V30 9783 C 665.026 5.55375 1.86963 0
M  V30 9784 N 664.976 4.09664 2.15742 0
M  V30 9785 H 667.815 7.45574 4.45629 0
M  V30 9786 H 668.087 5.86232 3.67314 0
M  V30 9787 H 667.219 7.84412 2.24479 0
M  V30 9788 P 663.256 8.7635 1.60911 0
M  V30 9789 O 663.036 10.1388 1.11561 0
M  V30 9790 O 662.466 8.36503 2.79617 0
M  V30 9791 O 663.006 7.71806 0.42951 0
M  V30 9792 C 663.946 7.67148 -0.673689 0
M  V30 9793 C 663.216 7.33374 -1.95559 0
M  V30 9794 O 663.006 5.88721 -2.00726 0
M  V30 9795 C 661.816 7.92526 -2.10483 0
M  V30 9796 O 661.426 8.02971 -3.47653 0
M  V30 9797 C 660.936 6.89602 -1.41652 0
M  V30 9798 C 661.646 5.59201 -1.75185 0
M  V30 9799 N 661.596 4.58235 -0.662552 0
M  V30 9800 H 664.435 8.65116 -0.777161 0
M  V30 9801 H 664.707 6.90173 -0.474152 0
M  V30 9802 H 663.839 7.66548 -2.79458 0
M  V30 9803 P 659.876 8.03563 -3.84925 0
M  V30 9804 O 659.656 8.85821 -5.0569 0
M  V30 9805 O 659.086 8.41101 -2.65469 0
M  V30 9806 O 659.626 6.4965 -4.18908 0
M  V30 9807 C 660.566 5.80886 -5.05289 0
M  V30 9808 C 659.836 4.78366 -5.89277 0
M  V30 9809 O 659.626 3.58302 -5.08433 0
M  V30 9810 C 658.436 5.16748 -6.36559 0
M  V30 9811 O 658.046 4.45271 -7.53232 0
M  V30 9812 C 657.556 4.74572 -5.19863 0
M  V30 9813 C 658.266 3.49373 -4.70338 0
M  V30 9814 N 658.216 3.31704 -3.22876 0
M  V30 9815 C 658.066 2.03326 -2.74871 0
M  V30 9816 O 657.976 1.06486 -3.48076 0
M  V30 9817 N 658.026 1.91838 -1.37456 0
M  V30 9818 C 658.116 2.94295 -0.462035 0
M  V30 9819 O 658.066 2.71763 0.752928 0
M  V30 9820 C 658.266 4.25064 -1.05249 0
M  V30 9821 C 658.376 5.39815 -0.095697 0
M  V30 9822 C 658.316 4.40214 -2.39192 0
M  V30 9823 H 661.057 6.54063 -5.71245 0
M  V30 9824 H 661.326 5.30339 -4.43905 0
M  V30 9825 H 660.459 4.55889 -6.76652 0
M  V30 9826 H 657.804 2.6167 -5.17842 0
M  V30 9827 H 657.525 5.52155 -4.41878 0
M  V30 9828 H 656.533 4.51918 -5.53297 0
M  V30 9829 H 658.367 6.25055 -6.55162 0
M  V30 9830 H 658.438 5.39798 -2.81523 0
M  V30 9831 H 657.408 5.91593 -0.0279582 0
M  V30 9832 H 659.145 6.10038 -0.450573 0
M  V30 9833 H 658.657 5.02007 0.89937 0
M  V30 9834 H 657.921 0.995326 -1.00435 0
M  V30 9835 P 656.496 4.23843 -7.83734 0
M  V30 9836 O 656.276 4.19407 -9.29784 0
M  V30 9837 O 655.706 5.24426 -7.09156 0
M  V30 9838 O 656.246 2.7935 -7.20758 0
M  V30 9839 C 657.186 1.72945 -7.50224 0
M  V30 9840 C 656.456 0.406376 -7.57911 0
M  V30 9841 O 656.246 -0.0897726 -6.21935 0
M  V30 9842 C 655.056 0.438983 -8.18724 0
M  V30 9843 O 654.666 -0.825065 -8.71101 0
M  V30 9844 C 654.176 0.783689 -6.99524 0
M  V30 9845 C 654.886 0.0619086 -5.85867 0
M  V30 9846 N 654.836 0.78573 -4.56183 0
M  V30 9847 C 654.686 0.0292889 -3.41887 0
M  V30 9848 O 654.596 -1.18445 -3.4419 0
M  V30 9849 N 654.646 0.744061 -2.23964 0
M  V30 9850 C 654.736 2.10932 -2.10362 0
M  V30 9851 C 654.886 2.8202 -3.34994 0
M  V30 9852 C 654.936 2.15547 -4.52261 0
M  V30 9853 H 657.677 1.93379 -8.46595 0
M  V30 9854 H 657.946 1.68132 -6.70852 0
M  V30 9855 H 657.079 -0.289041 -8.15388 0
M  V30 9856 H 654.424 -0.926847 -5.72749 0
M  V30 9857 H 654.145 1.86973 -6.82036 0
M  V30 9858 H 653.153 0.403896 -7.13257 0
M  V30 9859 H 654.987 1.20585 -8.97435 0
M  V30 9860 H 655.058 2.71231 -5.45042 0
M  V30 9861 P 653.116 -1.17771 -8.83182 0
M  V30 9862 O 652.896 -2.07206 -9.98732 0
M  V30 9863 O 652.326 0.0743816 -8.81969 0
M  V30 9864 O 652.866 -1.97652 -7.47304 0
M  V30 9865 C 653.806 -3.01133 -7.08783 0
M  V30 9866 C 653.076 -4.12613 -6.37049 0
M  V30 9867 O 652.866 -3.72827 -4.97879 0
M  V30 9868 C 651.676 -4.45085 -6.88694 0
M  V30 9869 O 651.286 -5.7877 -6.5624 0
M  V30 9870 C 650.796 -3.47817 -6.12078 0
M  V30 9871 C 651.506 -3.39414 -4.77697 0
M  V30 9872 N 651.456 -2.04615 -4.15333 0
M  V30 9873 H 654.295 -3.41248 -7.98759 0
M  V30 9874 H 654.567 -2.5837 -6.41742 0
M  V30 9875 H 653.699 -5.02657 -6.42673 0
M  V30 9876 P 649.736 -6.144 -6.45285 0
M  V30 9877 O 649.516 -7.54673 -6.86199 0
M  V30 9878 O 648.946 -5.12391 -7.179 0
M  V30 9879 O 649.486 -5.99158 -4.88404 0
M  V30 9880 C 650.426 -6.60234 -3.96415 0
M  V30 9881 C 649.696 -7.08259 -2.72856 0
M  V30 9882 O 649.486 -5.9427 -1.83651 0
M  V30 9883 C 648.296 -7.64886 -2.9555 0
M  V30 9884 O 647.906 -8.53963 -1.90717 0
M  V30 9885 C 647.416 -6.4116 -2.90739 0
M  V30 9886 C 648.126 -5.55375 -1.86963 0
M  V30 9887 N 648.076 -4.09448 -2.16152 0
M  V30 9888 H 650.915 -7.45574 -4.45629 0
M  V30 9889 H 651.187 -5.85864 -3.679 0
M  V30 9890 H 650.319 -7.84412 -2.24479 0
M  V30 9891 H 647.664 -5.73457 -0.888562 0
M  V30 9892 H 647.384 -5.90877 -3.88583 0
M  V30 9893 H 646.393 -6.6596 -2.58858 0
M  V30 9894 H 648.227 -8.16339 -3.92049 0
M  V30 9895 P 646.356 -8.7635 -1.60911 0
M  V30 9896 O 646.136 -10.1388 -1.11561 0
M  V30 9897 O 645.566 -8.36503 -2.79617 0
M  V30 9898 O 646.106 -7.71806 -0.42951 0
M  V30 9899 C 647.046 -7.67148 0.673689 0
M  V30 9900 C 646.316 -7.33374 1.95559 0
M  V30 9901 O 646.106 -5.88721 2.00726 0
M  V30 9902 C 644.916 -7.92526 2.10483 0
M  V30 9903 O 644.526 -8.02971 3.47653 0
M  V30 9904 C 644.036 -6.89602 1.41652 0
M  V30 9905 C 644.746 -5.59201 1.75185 0
M  V30 9906 N 644.696 -4.58235 0.662552 0
M  V30 9907 H 647.535 -8.65116 0.777161 0
M  V30 9908 H 647.807 -6.90173 0.474152 0
M  V30 9909 H 646.939 -7.66548 2.79458 0
M  V30 9910 P 642.976 -8.03563 3.84925 0
M  V30 9911 O 642.756 -8.85821 5.0569 0
M  V30 9912 O 642.186 -8.41101 2.65469 0
M  V30 9913 O 642.726 -6.4965 4.18908 0
M  V30 9914 C 643.666 -5.80886 5.05289 0
M  V30 9915 C 642.936 -4.78366 5.89277 0
M  V30 9916 O 642.726 -3.58302 5.08433 0
M  V30 9917 C 641.536 -5.16748 6.36559 0
M  V30 9918 O 641.146 -4.45271 7.53232 0
M  V30 9919 C 640.656 -4.74572 5.19863 0
M  V30 9920 C 641.366 -3.49373 4.70338 0
M  V30 9921 N 641.316 -3.31704 3.22876 0
M  V30 9922 C 641.166 -2.03326 2.74871 0
M  V30 9923 O 641.076 -1.06486 3.48076 0
M  V30 9924 N 641.126 -1.91838 1.37456 0
M  V30 9925 C 641.216 -2.94295 0.462035 0
M  V30 9926 O 641.166 -2.71763 -0.752928 0
M  V30 9927 C 641.366 -4.25064 1.05249 0
M  V30 9928 C 641.476 -5.39815 0.095697 0
M  V30 9929 C 641.416 -4.40214 2.39192 0
M  V30 9930 H 644.157 -6.54063 5.71245 0
M  V30 9931 H 644.426 -5.30339 4.43905 0
M  V30 9932 H 643.559 -4.55889 6.76652 0
M  V30 9933 H 640.904 -2.6167 5.17842 0
M  V30 9934 H 640.625 -5.52155 4.41878 0
M  V30 9935 H 639.633 -4.51918 5.53297 0
M  V30 9936 H 641.467 -6.25055 6.55162 0
M  V30 9937 H 641.538 -5.39798 2.81523 0
M  V30 9938 H 640.508 -5.91593 0.0279582 0
M  V30 9939 H 642.245 -6.10038 0.450573 0
M  V30 9940 H 641.757 -5.02007 -0.89937 0
M  V30 9941 H 641.021 -0.995326 1.00435 0
M  V30 9942 P 639.596 -4.23843 7.83734 0
M  V30 9943 O 639.376 -4.19407 9.29784 0
M  V30 9944 O 638.806 -5.24426 7.09156 0
M  V30 9945 O 639.346 -2.7935 7.20758 0
M  V30 9946 C 640.286 -1.7299 7.50419 0
M  V30 9947 C 639.556 -0.406376 7.57911 0
M  V30 9948 O 639.346 0.0897726 6.21935 0
M  V30 9949 C 638.156 -0.447224 8.1878 0
M  V30 9950 O 637.766 0.825065 8.71101 0
M  V30 9951 C 637.276 -0.783801 6.99623 0
M  V30 9952 C 637.986 -0.0619192 5.85967 0
M  V30 9953 N 637.936 -0.7859 4.56281 0
M  V30 9954 H 640.775 -1.93423 8.4679 0
M  V30 9955 H 641.047 -1.68181 6.71046 0
M  V30 9956 H 640.179 0.289041 8.15388 0
M  V30 9957 P 636.216 1.17771 8.83182 0
M  V30 9958 O 635.996 2.07206 9.98732 0
M  V30 9959 O 635.426 -0.0743816 8.81969 0
M  V30 9960 O 635.966 1.97678 7.474 0
M  V30 9961 C 636.906 3.01133 7.08783 0
M  V30 9962 C 636.176 4.1203 6.37546 0
M  V30 9963 O 635.966 3.72887 4.9796 0
M  V30 9964 C 634.776 4.45085 6.88694 0
M  V30 9965 O 634.386 5.78836 6.56315 0
M  V30 9966 C 633.896 3.47817 6.12078 0
M  V30 9967 C 634.606 3.39414 4.77697 0
M  V30 9968 N 634.556 2.04615 4.15333 0
M  V30 9969 C 634.406 1.96929 2.77162 0
M  V30 9970 O 634.316 3.02017 2.12006 0
M  V30 9971 N 634.356 0.55485 2.24237 0
M  V30 9972 C 634.456 -0.367808 2.9169 0
M  V30 9973 N 634.406 -1.53426 2.29427 0
M  V30 9974 C 634.606 -0.319148 4.33828 0
M  V30 9975 C 634.656 0.920672 4.90433 0
M  V30 9976 H 637.396 3.41209 7.98667 0
M  V30 9977 H 637.666 2.5837 6.41742 0
M  V30 9978 H 636.799 5.02718 6.42752 0
M  V30 9979 H 634.144 4.11779 4.09026 0
M  V30 9980 H 633.864 2.49661 6.61772 0
M  V30 9981 H 632.873 3.86674 6.00946 0
M  V30 9982 H 634.707 4.29991 7.97006 0
M  V30 9983 H 634.779 1.00589 5.98303 0
M  V30 9984 H 634.677 -1.22639 4.93799 0
M  V30 9985 H 634.289 -1.56819 1.27167 0
M  V30 9986 H 634.485 -2.41062 2.83063 0
M  V30 9987 P 632.836 6.144 6.45285 0
M  V30 9988 O 632.616 7.54673 6.86199 0
M  V30 9989 O 632.046 5.12391 7.179 0
M  V30 9990 O 632.586 5.99158 4.88404 0
M  V30 9991 C 633.526 6.60234 3.96415 0
M  V30 9992 C 632.796 7.08259 2.72856 0
M  V30 9993 O 632.586 5.9427 1.83651 0
M  V30 9994 C 631.396 7.64886 2.9555 0
M  V30 9995 O 631.006 8.53963 1.90717 0
M  V30 9996 C 630.516 6.4116 2.90739 0
M  V30 9997 C 631.226 5.55375 1.86963 0
M  V30 9998 N 631.176 4.09664 2.15742 0
M  V30 9999 H 634.015 7.45574 4.45629 0
M  V30 10000 H 634.287 5.86232 3.67314 0
M  V30 10001 H 633.419 7.84412 2.24479 0
M  V30 10002 P 629.456 8.7635 1.60911 0
M  V30 10003 O 629.236 10.1388 1.11561 0
M  V30 10004 O 628.666 8.36503 2.79617 0
M  V30 10005 O 629.206 7.71806 0.42951 0
M  V30 10006 C 630.146 7.66948 -0.673514 0
M  V30 10007 C 629.416 7.33374 -1.95559 0
M  V30 10008 O 629.206 5.88721 -2.00726 0
M  V30 10009 C 628.016 7.92218 -2.1125 0
M  V30 10010 O 627.626 8.02971 -3.47653 0
M  V30 10011 C 627.136 6.89504 -1.41631 0
M  V30 10012 C 627.846 5.59106 -1.75155 0
M  V30 10013 N 627.796 4.58136 -0.662409 0
M  V30 10014 C 627.646 3.26059 -1.02863 0
M  V30 10015 O 627.556 2.90743 -2.19009 0
M  V30 10016 N 627.606 2.35995 0.0155585 0
M  V30 10017 C 627.696 2.65248 1.35603 0
M  V30 10018 O 627.646 1.75605 2.20651 0
M  V30 10019 C 627.846 4.05747 1.64698 0
M  V30 10020 C 627.956 4.42345 3.09553 0
M  V30 10021 C 627.896 4.96734 0.652411 0
M  V30 10022 H 630.637 8.64917 -0.776982 0
M  V30 10023 H 630.906 6.89974 -0.474015 0
M  V30 10024 H 630.039 7.66548 -2.79458 0
M  V30 10025 H 627.384 5.16076 -2.65138 0
M  V30 10026 H 627.105 7.06433 -0.329384 0
M  V30 10027 H 626.113 6.90829 -1.81996 0
M  V30 10028 H 627.947 8.90774 -1.62639 0
M  V30 10029 H 628.018 6.02181 0.895285 0
M  V30 10030 H 626.988 4.80252 3.45468 0
M  V30 10031 H 628.725 5.20015 3.22119 0
M  V30 10032 H 628.237 3.53269 3.67833 0
M  V30 10033 H 627.501 1.39558 -0.227499 0
M  V30 10034 P 626.076 8.03563 -3.84925 0
M  V30 10035 O 625.856 8.85821 -5.0569 0
M  V30 10036 O 625.286 8.41101 -2.65469 0
M  V30 10037 O 625.826 6.4965 -4.18908 0
M  V30 10038 C 626.766 5.81037 -5.05421 0
M  V30 10039 C 626.036 4.78366 -5.89277 0
M  V30 10040 O 625.826 3.58302 -5.08433 0
M  V30 10041 C 624.636 5.17448 -6.36119 0
M  V30 10042 O 624.246 4.45271 -7.53232 0
M  V30 10043 C 623.756 4.74639 -5.19936 0
M  V30 10044 C 624.466 3.49432 -4.70418 0
M  V30 10045 N 624.416 3.31776 -3.22945 0
M  V30 10046 H 627.255 6.54213 -5.71376 0
M  V30 10047 H 627.527 5.30492 -4.44033 0
M  V30 10048 H 626.659 4.55889 -6.76652 0
M  V30 10049 P 622.696 4.23843 -7.83734 0
M  V30 10050 O 622.476 4.19407 -9.29784 0
M  V30 10051 O 621.906 5.24426 -7.09156 0
M  V30 10052 O 622.446 2.79386 -7.20852 0
M  V30 10053 C 623.386 1.7299 -7.50419 0
M  V30 10054 C 622.656 0.41401 -7.5797 0
M  V30 10055 O 622.446 -0.089787 -6.22035 0
M  V30 10056 C 621.256 0.447224 -8.1878 0
M  V30 10057 O 620.866 -0.825159 -8.71201 0
M  V30 10058 C 620.376 0.783801 -6.99623 0
M  V30 10059 C 621.086 0.0619192 -5.85967 0
M  V30 10060 N 621.036 0.7859 -4.56281 0
M  V30 10061 C 620.886 0.0359258 -3.39981 0
M  V30 10062 O 620.796 -1.19723 -3.49038 0
M  V30 10063 N 620.836 0.869151 -2.14025 0
M  V30 10064 C 620.936 2.01207 -2.14363 0
M  V30 10065 N 620.886 2.58978 -0.954287 0
M  V30 10066 C 621.086 2.80817 -3.32215 0
M  V30 10067 C 621.136 2.13785 -4.50884 0
M  V30 10068 H 623.876 1.93401 -8.46693 0
M  V30 10069 H 624.146 1.68181 -6.71046 0
M  V30 10070 H 623.279 -0.289076 -8.15488 0
M  V30 10071 H 620.624 -0.927166 -5.72947 0
M  V30 10072 H 620.344 1.87 -6.82132 0
M  V30 10073 H 619.353 0.404009 -7.13457 0
M  V30 10074 H 621.187 1.20599 -8.97534 0
M  V30 10075 H 621.259 2.70295 -5.43162 0
M  V30 10076 H 621.157 3.89465 -3.27406 0
M  V30 10077 H 620.769 2.01616 -0.107046 0
M  V30 10078 H 620.965 3.61403 -0.873101 0
M  V30 10079 P 619.316 -1.17771 -8.83182 0
M  V30 10080 O 619.096 -2.07206 -9.98732 0
M  V30 10081 O 618.526 0.0743816 -8.81969 0
M  V30 10082 O 619.066 -1.97652 -7.47304 0
M  V30 10083 C 620.006 -3.01133 -7.08783 0
M  V30 10084 C 619.276 -4.12613 -6.37049 0
M  V30 10085 O 619.066 -3.72827 -4.97879 0
M  V30 10086 C 617.876 -4.45085 -6.88694 0
M  V30 10087 O 617.486 -5.7877 -6.5624 0
M  V30 10088 C 616.996 -3.47817 -6.12078 0
M  V30 10089 C 617.706 -3.39414 -4.77697 0
M  V30 10090 N 617.656 -2.04615 -4.15333 0
M  V30 10091 H 620.495 -3.41248 -7.98759 0
M  V30 10092 H 620.767 -2.5837 -6.41742 0
M  V30 10093 H 619.899 -5.02657 -6.42673 0
M  V30 10094 P 615.936 -6.144 -6.45285 0
M  V30 10095 O 615.716 -7.54673 -6.86199 0
M  V30 10096 O 615.146 -5.12391 -7.179 0
M  V30 10097 O 615.686 -5.99158 -4.88404 0
M  V30 10098 C 616.626 -6.60234 -3.96415 0
M  V30 10099 C 615.896 -7.08259 -2.72856 0
M  V30 10100 O 615.686 -5.9427 -1.83651 0
M  V30 10101 C 614.496 -7.64886 -2.9555 0
M  V30 10102 O 614.106 -8.53963 -1.90717 0
M  V30 10103 C 613.616 -6.4116 -2.90739 0
M  V30 10104 C 614.326 -5.55375 -1.86963 0
M  V30 10105 N 614.276 -4.09664 -2.15742 0
M  V30 10106 H 617.115 -7.45574 -4.45629 0
M  V30 10107 H 617.387 -5.86232 -3.67314 0
M  V30 10108 H 616.519 -7.84412 -2.24479 0
M  V30 10109 P 612.556 -8.7635 -1.60911 0
M  V30 10110 O 612.336 -10.1388 -1.11561 0
M  V30 10111 O 611.766 -8.36503 -2.79617 0
M  V30 10112 O 612.306 -7.71806 -0.42951 0
M  V30 10113 C 613.246 -7.67148 0.673689 0
M  V30 10114 C 612.516 -7.33374 1.95559 0
M  V30 10115 O 612.306 -5.88721 2.00726 0
M  V30 10116 C 611.116 -7.92526 2.10483 0
M  V30 10117 O 610.726 -8.02971 3.47653 0
M  V30 10118 C 610.236 -6.89602 1.41652 0
M  V30 10119 C 610.946 -5.59201 1.75185 0
M  V30 10120 N 610.896 -4.58235 0.662552 0
M  V30 10121 H 613.735 -8.65116 0.777161 0
M  V30 10122 H 614.007 -6.90173 0.474152 0
M  V30 10123 H 613.139 -7.66548 2.79458 0
M  V30 10124 P 609.176 -8.03563 3.84925 0
M  V30 10125 O 608.956 -8.85821 5.0569 0
M  V30 10126 O 608.386 -8.41101 2.65469 0
M  V30 10127 O 608.926 -6.4965 4.18908 0
M  V30 10128 C 609.866 -5.81037 5.05421 0
M  V30 10129 C 609.136 -4.78366 5.89277 0
M  V30 10130 O 608.926 -3.58302 5.08433 0
M  V30 10131 C 607.736 -5.17448 6.36119 0
M  V30 10132 O 607.346 -4.45271 7.53232 0
M  V30 10133 C 606.856 -4.74639 5.19936 0
M  V30 10134 C 607.566 -3.49432 4.70418 0
M  V30 10135 N 607.516 -3.31776 3.22945 0
M  V30 10136 C 607.596 -4.27147 2.23315 0
M  V30 10137 N 607.516 -3.78447 1.02186 0
M  V30 10138 C 607.376 -2.41001 1.21732 0
M  V30 10139 C 607.246 -1.36111 0.27694 0
M  V30 10140 N 607.126 -0.113683 0.912949 0
M  V30 10141 C 607.126 0.0846396 2.27943 0
M  V30 10142 N 606.996 1.34737 2.6916 0
M  V30 10143 N 607.256 -0.902521 3.16379 0
M  V30 10144 C 607.376 -2.11937 2.56849 0
M  V30 10145 H 610.355 -6.54213 5.71376 0
M  V30 10146 H 610.627 -5.30492 4.44033 0
M  V30 10147 H 609.759 -4.55889 6.76652 0
M  V30 10148 P 605.796 -4.23843 7.83734 0
M  V30 10149 O 605.576 -4.19407 9.29784 0
M  V30 10150 O 605.006 -5.24426 7.09156 0
M  V30 10151 O 605.546 -2.7935 7.20758 0
M  V30 10152 C 606.486 -1.7299 7.50419 0
M  V30 10153 C 605.756 -0.406376 7.57911 0
M  V30 10154 O 605.546 0.0897726 6.21935 0
M  V30 10155 C 604.356 -0.447224 8.1878 0
M  V30 10156 O 603.966 0.825065 8.71101 0
M  V30 10157 C 603.476 -0.783801 6.99623 0
M  V30 10158 C 604.186 -0.0619192 5.85967 0
M  V30 10159 N 604.136 -0.7859 4.56281 0
M  V30 10160 H 606.975 -1.93423 8.4679 0
M  V30 10161 H 607.247 -1.68181 6.71046 0
M  V30 10162 H 606.379 0.289041 8.15388 0
M  V30 10163 P 602.416 1.17771 8.83182 0
M  V30 10164 O 602.196 2.07206 9.98732 0
M  V30 10165 O 601.626 -0.0743816 8.81969 0
M  V30 10166 O 602.166 1.97652 7.47304 0
M  V30 10167 C 603.106 3.01133 7.08783 0
M  V30 10168 C 602.376 4.12613 6.37049 0
M  V30 10169 O 602.166 3.72827 4.97879 0
M  V30 10170 C 600.976 4.45085 6.88694 0
M  V30 10171 O 600.586 5.7877 6.5624 0
M  V30 10172 C 600.096 3.47817 6.12078 0
M  V30 10173 C 600.806 3.39414 4.77697 0
M  V30 10174 N 600.756 2.04199 4.15538 0
M  V30 10175 H 603.595 3.41248 7.98759 0
M  V30 10176 H 603.867 2.57728 6.42 0
M  V30 10177 H 602.999 5.02657 6.42673 0
M  V30 10178 H 600.344 4.11708 4.08956 0
M  V30 10179 H 600.064 2.49626 6.61679 0
M  V30 10180 H 599.073 3.8662 6.00862 0
M  V30 10181 H 600.907 4.29991 7.97006 0
M  V30 10182 P 599.036 6.144 6.45285 0
M  V30 10183 O 598.816 7.54673 6.86199 0
M  V30 10184 O 598.246 5.12391 7.179 0
M  V30 10185 O 598.786 5.99158 4.88404 0
M  V30 10186 C 599.726 6.60234 3.96415 0
M  V30 10187 C 598.996 7.08259 2.72856 0
M  V30 10188 O 598.786 5.9427 1.83651 0
M  V30 10189 C 597.596 7.64886 2.9555 0
M  V30 10190 O 597.206 8.53963 1.90717 0
M  V30 10191 C 596.716 6.4116 2.90739 0
M  V30 10192 C 597.426 5.55375 1.86963 0
M  V30 10193 N 597.376 4.09664 2.15742 0
M  V30 10194 H 600.215 7.45574 4.45629 0
M  V30 10195 H 600.487 5.86232 3.67314 0
M  V30 10196 H 599.619 7.84412 2.24479 0
M  V30 10197 P 595.656 8.7635 1.60911 0
M  V30 10198 O 595.437 10.1388 1.11561 0
M  V30 10199 O 594.866 8.36503 2.79617 0
M  V30 10200 O 595.406 7.71906 0.429565 0
M  V30 10201 C 596.346 7.67148 -0.673689 0
M  V30 10202 C 595.616 7.33666 -1.94851 0
M  V30 10203 O 595.406 5.88816 -2.00759 0
M  V30 10204 C 594.216 7.92526 -2.10483 0
M  V30 10205 O 593.827 8.03063 -3.47693 0
M  V30 10206 C 593.337 6.89602 -1.41652 0
M  V30 10207 C 594.046 5.59201 -1.75185 0
M  V30 10208 N 593.996 4.58235 -0.662552 0
M  V30 10209 C 593.846 3.24451 -1.01643 0
M  V30 10210 O 593.756 2.94958 -2.21722 0
M  V30 10211 N 593.796 2.30408 0.165238 0
M  V30 10212 C 593.896 2.66048 1.25118 0
M  V30 10213 N 593.846 1.70787 2.16813 0
M  V30 10214 C 594.046 4.02732 1.64413 0
M  V30 10215 C 594.096 4.9488 0.63991 0
M  V30 10216 H 596.837 8.65017 -0.777072 0
M  V30 10217 H 597.106 6.90173 -0.474152 0
M  V30 10218 H 596.24 7.66642 -2.79492 0
M  V30 10219 H 593.584 5.16254 -2.65229 0
M  V30 10220 H 593.304 7.06532 -0.329431 0
M  V30 10221 H 592.313 6.91023 -1.82047 0
M  V30 10222 H 594.147 8.90873 -1.62657 0
M  V30 10223 H 594.219 6.00104 0.892197 0
M  V30 10224 H 594.117 4.31733 2.69229 0
M  V30 10225 H 593.729 0.724835 1.8844 0
M  V30 10226 H 593.925 1.94716 3.16734 0
M  V30 10227 P 592.277 8.03563 -3.84925 0
M  V30 10228 O 592.057 8.85821 -5.0569 0
M  V30 10229 O 591.487 8.41101 -2.65469 0
M  V30 10230 O 592.027 6.4965 -4.18908 0
M  V30 10231 C 592.967 5.81037 -5.05421 0
M  V30 10232 C 592.237 4.78366 -5.89277 0
M  V30 10233 O 592.027 3.58302 -5.08433 0
M  V30 10234 C 590.837 5.17448 -6.36119 0
M  V30 10235 O 590.447 4.45271 -7.53232 0
M  V30 10236 C 589.957 4.74639 -5.19936 0
M  V30 10237 C 590.667 3.49432 -4.70418 0
M  V30 10238 N 590.617 3.31776 -3.22945 0
M  V30 10239 H 593.456 6.54213 -5.71376 0
M  V30 10240 H 593.728 5.30492 -4.44033 0
M  V30 10241 H 592.86 4.55889 -6.76652 0
M  V30 10242 P 588.897 4.23843 -7.83734 0
M  V30 10243 O 588.677 4.19407 -9.29784 0
M  V30 10244 O 588.107 5.24426 -7.09156 0
M  V30 10245 O 588.647 2.7935 -7.20758 0
M  V30 10246 C 589.587 1.7299 -7.50419 0
M  V30 10247 C 588.857 0.406376 -7.57911 0
M  V30 10248 O 588.647 -0.0897726 -6.21935 0
M  V30 10249 C 587.457 0.447224 -8.1878 0
M  V30 10250 O 587.067 -0.825065 -8.71101 0
M  V30 10251 C 586.577 0.783801 -6.99623 0
M  V30 10252 C 587.287 0.0619192 -5.85967 0
M  V30 10253 N 587.237 0.7859 -4.56281 0
M  V30 10254 H 590.076 1.93423 -8.4679 0
M  V30 10255 H 590.348 1.68181 -6.71046 0
M  V30 10256 H 589.48 -0.289041 -8.15388 0
M  V30 10257 P 585.517 -1.17771 -8.83182 0
M  V30 10258 O 585.297 -2.07206 -9.98732 0
M  V30 10259 O 584.727 0.0743816 -8.81969 0
M  V30 10260 O 585.267 -1.97652 -7.47304 0
M  V30 10261 C 586.207 -3.01133 -7.08783 0
M  V30 10262 C 585.477 -4.12613 -6.37049 0
M  V30 10263 O 585.267 -3.72827 -4.97879 0
M  V30 10264 C 584.077 -4.45085 -6.88694 0
M  V30 10265 O 583.687 -5.7877 -6.5624 0
M  V30 10266 C 583.197 -3.47817 -6.12078 0
M  V30 10267 C 583.907 -3.39414 -4.77697 0
M  V30 10268 N 583.857 -2.04615 -4.15333 0
M  V30 10269 H 586.696 -3.41248 -7.98759 0
M  V30 10270 H 586.968 -2.5837 -6.41742 0
M  V30 10271 H 586.1 -5.02657 -6.42673 0
M  V30 10272 P 582.137 -6.144 -6.45285 0
M  V30 10273 O 581.917 -7.54673 -6.86199 0
M  V30 10274 O 581.347 -5.12391 -7.179 0
M  V30 10275 O 581.887 -5.99158 -4.88404 0
M  V30 10276 C 582.827 -6.60234 -3.96415 0
M  V30 10277 C 582.097 -7.08259 -2.72856 0
M  V30 10278 O 581.887 -5.9427 -1.83651 0
M  V30 10279 C 580.697 -7.64886 -2.9555 0
M  V30 10280 O 580.307 -8.53963 -1.90717 0
M  V30 10281 C 579.817 -6.4116 -2.90739 0
M  V30 10282 C 580.527 -5.55375 -1.86963 0
M  V30 10283 N 580.477 -4.09664 -2.15742 0
M  V30 10284 H 583.316 -7.45574 -4.45629 0
M  V30 10285 H 583.588 -5.86232 -3.67314 0
M  V30 10286 H 582.72 -7.84412 -2.24479 0
M  V30 10287 P 578.757 -8.7635 -1.60911 0
M  V30 10288 O 578.537 -10.1388 -1.11561 0
M  V30 10289 O 577.967 -8.36503 -2.79617 0
M  V30 10290 O 578.507 -7.71806 -0.42951 0
M  V30 10291 C 579.447 -7.66948 0.673514 0
M  V30 10292 C 578.717 -7.33374 1.95559 0
M  V30 10293 O 578.507 -5.88721 2.00726 0
M  V30 10294 C 577.317 -7.92218 2.1125 0
M  V30 10295 O 576.927 -8.02971 3.47653 0
M  V30 10296 C 576.437 -6.89504 1.41631 0
M  V30 10297 C 577.147 -5.59106 1.75155 0
M  V30 10298 N 577.097 -4.58136 0.662409 0
M  V30 10299 C 576.947 -3.26059 1.02863 0
M  V30 10300 O 576.857 -2.90743 2.19009 0
M  V30 10301 N 576.907 -2.35995 -0.0155585 0
M  V30 10302 C 576.997 -2.65248 -1.35603 0
M  V30 10303 C 577.147 -4.05747 -1.64698 0
M  V30 10304 C 577.197 -4.96734 -0.652411 0
M  V30 10305 H 579.938 -8.64917 0.776982 0
M  V30 10306 H 580.207 -6.89974 0.474015 0
M  V30 10307 H 579.34 -7.66548 2.79458 0
M  V30 10308 H 576.685 -5.16076 2.65138 0
M  V30 10309 H 576.406 -7.06433 0.329384 0
M  V30 10310 H 575.414 -6.90829 1.81996 0
M  V30 10311 H 577.248 -8.90774 1.62639 0
M  V30 10312 H 577.319 -6.02181 -0.895285 0
M  V30 10313 P 575.377 -8.03563 3.84925 0
M  V30 10314 O 575.157 -8.85821 5.0569 0
M  V30 10315 O 574.587 -8.41101 2.65469 0
M  V30 10316 O 575.127 -6.4965 4.18908 0
M  V30 10317 C 576.067 -5.81037 5.05421 0
M  V30 10318 C 575.337 -4.78366 5.89277 0
M  V30 10319 O 575.127 -3.58302 5.08433 0
M  V30 10320 C 573.937 -5.17448 6.36119 0
M  V30 10321 O 573.547 -4.45271 7.53232 0
M  V30 10322 C 573.057 -4.74639 5.19936 0
M  V30 10323 C 573.767 -3.49432 4.70418 0
M  V30 10324 N 573.717 -3.31776 3.22945 0
M  V30 10325 H 576.556 -6.54213 5.71376 0
M  V30 10326 H 576.828 -5.30492 4.44033 0
M  V30 10327 H 575.96 -4.55889 6.76652 0
M  V30 10328 P 571.997 -4.23843 7.83734 0
M  V30 10329 O 571.777 -4.19407 9.29784 0
M  V30 10330 O 571.207 -5.24426 7.09156 0
M  V30 10331 O 571.747 -2.7935 7.20758 0
M  V30 10332 C 572.687 -1.7299 7.50419 0
M  V30 10333 C 571.957 -0.406376 7.57911 0
M  V30 10334 O 571.747 0.0897726 6.21935 0
M  V30 10335 C 570.557 -0.447224 8.1878 0
M  V30 10336 O 570.167 0.825065 8.71101 0
M  V30 10337 C 569.677 -0.783801 6.99623 0
M  V30 10338 C 570.387 -0.0619192 5.85967 0
M  V30 10339 N 570.337 -0.7859 4.56281 0
M  V30 10340 H 573.176 -1.93423 8.4679 0
M  V30 10341 H 573.448 -1.68181 6.71046 0
M  V30 10342 H 572.58 0.289041 8.15388 0
M  V30 10343 P 568.617 1.17771 8.83182 0
M  V30 10344 O 568.397 2.07206 9.98732 0
M  V30 10345 O 567.827 -0.0743816 8.81969 0
M  V30 10346 O 568.367 1.97652 7.47304 0
M  V30 10347 C 569.307 3.01133 7.08783 0
M  V30 10348 C 568.577 4.12613 6.37049 0
M  V30 10349 O 568.367 3.72827 4.97879 0
M  V30 10350 C 567.177 4.45085 6.88694 0
M  V30 10351 O 566.787 5.7877 6.5624 0
M  V30 10352 C 566.297 3.47817 6.12078 0
M  V30 10353 C 567.007 3.39414 4.77697 0
M  V30 10354 N 566.957 2.04199 4.15538 0
M  V30 10355 H 569.796 3.41248 7.98759 0
M  V30 10356 H 570.068 2.57728 6.42 0
M  V30 10357 H 569.2 5.02657 6.42673 0
M  V30 10358 H 566.545 4.11708 4.08956 0
M  V30 10359 H 566.265 2.49626 6.61679 0
M  V30 10360 H 565.274 3.8662 6.00862 0
M  V30 10361 H 567.108 4.29991 7.97006 0
M  V30 10362 P 565.237 6.144 6.45285 0
M  V30 10363 O 565.017 7.54673 6.86199 0
M  V30 10364 O 564.447 5.12391 7.179 0
M  V30 10365 O 564.987 5.99158 4.88404 0
M  V30 10366 C 565.927 6.60234 3.96415 0
M  V30 10367 C 565.197 7.08259 2.72856 0
M  V30 10368 O 564.987 5.9427 1.83651 0
M  V30 10369 C 563.797 7.64886 2.9555 0
M  V30 10370 O 563.407 8.53963 1.90717 0
M  V30 10371 C 562.917 6.4116 2.90739 0
M  V30 10372 C 563.627 5.55375 1.86963 0
M  V30 10373 N 563.577 4.09664 2.15742 0
M  V30 10374 H 566.416 7.45574 4.45629 0
M  V30 10375 H 566.688 5.86232 3.67314 0
M  V30 10376 H 565.82 7.84412 2.24479 0
M  V30 10377 P 561.857 8.7635 1.60911 0
M  V30 10378 O 561.637 10.1388 1.11561 0
M  V30 10379 O 561.067 8.36503 2.79617 0
M  V30 10380 O 561.607 7.71806 0.42951 0
M  V30 10381 C 562.547 7.67148 -0.673689 0
M  V30 10382 C 561.817 7.33374 -1.95559 0
M  V30 10383 O 561.607 5.88721 -2.00726 0
M  V30 10384 C 560.417 7.92526 -2.10483 0
M  V30 10385 O 560.027 8.02971 -3.47653 0
M  V30 10386 C 559.537 6.89602 -1.41652 0
M  V30 10387 C 560.247 5.59201 -1.75185 0
M  V30 10388 N 560.197 4.58301 -0.657969 0
M  V30 10389 C 560.277 4.79019 0.692603 0
M  V30 10390 N 560.207 3.69736 1.38998 0
M  V30 10391 C 560.057 2.70474 0.438135 0
M  V30 10392 C 559.927 1.30327 0.538142 0
M  V30 10393 N 559.917 0.64304 1.69192 0
M  V30 10394 N 559.807 0.611027 -0.605183 0
M  V30 10395 C 559.817 1.27002 -1.75953 0
M  V30 10396 N 559.937 2.56038 -1.98546 0
M  V30 10397 C 560.057 3.22681 -0.822541 0
M  V30 10398 H 563.036 8.65116 -0.777161 0
M  V30 10399 H 563.308 6.9022 -0.46725 0
M  V30 10400 H 562.44 7.66548 -2.79458 0
M  V30 10401 H 559.785 5.16165 -2.65183 0
M  V30 10402 H 559.505 7.06433 -0.329384 0
M  V30 10403 H 558.514 6.90926 -1.82021 0
M  V30 10404 H 560.348 8.90873 -1.62657 0
M  V30 10405 H 560.389 5.77785 1.13874 0
M  V30 10406 H 560.008 1.15585 2.57991 0
M  V30 10407 H 559.819 -0.382989 1.69835 0
M  V30 10408 H 559.711 0.653331 -2.64449 0
M  V30 10409 P 558.477 8.03563 -3.84925 0
M  V30 10410 O 558.257 8.85821 -5.0569 0
M  V30 10411 O 557.687 8.41101 -2.65469 0
M  V30 10412 O 558.227 6.4965 -4.18908 0
M  V30 10413 C 559.167 5.81037 -5.05421 0
M  V30 10414 C 558.437 4.78366 -5.89277 0
M  V30 10415 O 558.227 3.58302 -5.08433 0
M  V30 10416 C 557.037 5.17448 -6.36119 0
M  V30 10417 O 556.647 4.45271 -7.53232 0
M  V30 10418 C 556.157 4.74639 -5.19936 0
M  V30 10419 C 556.867 3.49432 -4.70418 0
M  V30 10420 N 556.817 3.31776 -3.22945 0
M  V30 10421 C 556.897 4.27147 -2.23315 0
M  V30 10422 N 556.817 3.78447 -1.02186 0
M  V30 10423 C 556.677 2.41001 -1.21732 0
M  V30 10424 C 556.547 1.36111 -0.27694 0
M  V30 10425 O 556.527 1.42065 0.951767 0
M  V30 10426 N 556.427 0.113683 -0.912949 0
M  V30 10427 C 556.427 -0.0846396 -2.27943 0
M  V30 10428 N 556.297 -1.34737 -2.6916 0
M  V30 10429 N 556.557 0.902521 -3.16379 0
M  V30 10430 C 556.677 2.11937 -2.56849 0
M  V30 10431 H 559.656 6.54213 -5.71376 0
M  V30 10432 H 559.928 5.30492 -4.44033 0
M  V30 10433 H 559.06 4.55889 -6.76652 0
M  V30 10434 H 556.405 2.6176 -5.18021 0
M  V30 10435 H 556.125 5.52233 -4.41941 0
M  V30 10436 H 555.134 4.52045 -5.53452 0
M  V30 10437 H 556.968 6.25193 -6.55307 0
M  V30 10438 H 557.017 5.3351 -2.43857 0
M  V30 10439 H 556.335 -0.69331 -0.330371 0
M  V30 10440 H 556.298 -1.56433 -3.6988 0
M  V30 10441 H 556.197 -2.10701 -2.00133 0
M  V30 10442 P 555.097 4.23843 -7.83734 0
M  V30 10443 O 554.877 4.19407 -9.29784 0
M  V30 10444 O 554.307 5.24426 -7.09156 0
M  V30 10445 O 554.847 2.7935 -7.20758 0
M  V30 10446 C 555.787 1.7299 -7.50419 0
M  V30 10447 C 555.057 0.406376 -7.57911 0
M  V30 10448 O 554.847 -0.0897726 -6.21935 0
M  V30 10449 C 553.657 0.447224 -8.1878 0
M  V30 10450 O 553.267 -0.825065 -8.71101 0
M  V30 10451 C 552.777 0.783801 -6.99623 0
M  V30 10452 C 553.487 0.0619192 -5.85967 0
M  V30 10453 N 553.437 0.7859 -4.56281 0
M  V30 10454 C 553.517 2.14308 -4.31736 0
M  V30 10455 N 553.437 2.46106 -3.05116 0
M  V30 10456 C 553.297 1.23422 -2.4014 0
M  V30 10457 C 553.167 0.938381 -1.02409 0
M  V30 10458 N 553.047 -0.444647 -0.805413 0
M  V30 10459 C 553.047 -1.40829 -1.79435 0
M  V30 10460 N 552.917 -2.67213 -1.38558 0
M  V30 10461 N 553.177 -1.12947 -3.09005 0
M  V30 10462 C 553.297 0.204887 -3.32369 0
M  V30 10463 H 556.276 1.93423 -8.4679 0
M  V30 10464 H 556.548 1.68181 -6.71046 0
M  V30 10465 H 555.68 -0.289041 -8.15388 0
M  V30 10466 P 551.717 -1.17771 -8.83182 0
M  V30 10467 O 551.497 -2.07206 -9.98732 0
M  V30 10468 O 550.927 0.0743816 -8.81969 0
M  V30 10469 O 551.467 -1.97652 -7.47304 0
M  V30 10470 C 552.407 -3.01055 -7.08599 0
M  V30 10471 C 551.677 -4.12613 -6.37049 0
M  V30 10472 O 551.467 -3.72827 -4.97879 0
M  V30 10473 C 550.277 -4.45719 -6.88164 0
M  V30 10474 O 549.887 -5.7877 -6.5624 0
M  V30 10475 C 549.397 -3.47768 -6.11991 0
M  V30 10476 C 550.107 -3.39356 -4.77615 0
M  V30 10477 N 550.057 -2.04571 -4.15244 0
M  V30 10478 C 549.907 -1.98587 -2.78314 0
M  V30 10479 O 549.817 -2.98134 -2.08835 0
M  V30 10480 N 549.867 -0.714467 -2.24925 0
M  V30 10481 C 549.957 0.470001 -2.94169 0
M  V30 10482 C 550.107 0.312541 -4.36783 0
M  V30 10483 C 550.157 -0.914512 -4.92583 0
M  V30 10484 H 552.898 -3.41169 -7.98575 0
M  V30 10485 H 553.167 -2.58295 -6.41556 0
M  V30 10486 H 552.3 -5.02657 -6.42673 0
M  V30 10487 H 549.645 -4.11637 -4.08885 0
M  V30 10488 H 549.366 -2.49626 -6.61679 0
M  V30 10489 H 548.374 -3.86566 -6.00778 0
M  V30 10490 H 550.208 -4.29943 -7.96918 0
M  V30 10491 H 550.279 -1.00937 -6.00374 0
M  V30 10492 P 548.337 -6.144 -6.45285 0
M  V30 10493 O 548.117 -7.54673 -6.86199 0
M  V30 10494 O 547.547 -5.12391 -7.179 0
M  V30 10495 O 548.087 -5.99158 -4.88404 0
M  V30 10496 C 549.027 -6.60234 -3.96415 0
M  V30 10497 C 548.297 -7.08259 -2.72856 0
M  V30 10498 O 548.087 -5.9427 -1.83651 0
M  V30 10499 C 546.897 -7.64886 -2.9555 0
M  V30 10500 O 546.507 -8.53963 -1.90717 0
M  V30 10501 C 546.017 -6.4116 -2.90739 0
M  V30 10502 C 546.727 -5.55375 -1.86963 0
M  V30 10503 N 546.677 -4.09448 -2.16152 0
M  V30 10504 C 546.757 -3.46824 -3.37593 0
M  V30 10505 N 546.687 -2.17422 -3.29777 0
M  V30 10506 C 546.537 -1.93065 -1.94427 0
M  V30 10507 C 546.407 -0.738053 -1.20141 0
M  V30 10508 N 546.397 0.474256 -1.74676 0
M  V30 10509 N 546.287 -0.850049 0.13045 0
M  V30 10510 C 546.297 -2.06169 0.676992 0
M  V30 10511 N 546.417 -3.23842 0.101312 0
M  V30 10512 C 546.537 -3.09402 -1.23122 0
M  V30 10513 H 549.516 -7.45574 -4.45629 0
M  V30 10514 H 549.788 -5.85864 -3.679 0
M  V30 10515 H 548.92 -7.84412 -2.24479 0
M  V30 10516 H 546.265 -5.73457 -0.888562 0
M  V30 10517 H 545.985 -5.90877 -3.88583 0
M  V30 10518 H 544.994 -6.6596 -2.58858 0
M  V30 10519 H 546.828 -8.16339 -3.92049 0
M  V30 10520 H 546.869 -4.00505 -4.3174 0
M  V30 10521 H 546.488 0.581337 -2.76658 0
M  V30 10522 H 546.299 1.30811 -1.14888 0
M  V30 10523 H 546.191 -2.08295 1.75542 0
M  V30 10524 P 544.957 -8.7635 -1.60911 0
M  V30 10525 O 544.737 -10.1388 -1.11561 0
M  V30 10526 O 544.167 -8.36503 -2.79617 0
M  V30 10527 O 544.707 -7.71806 -0.42951 0
M  V30 10528 C 545.647 -7.67148 0.673689 0
M  V30 10529 C 544.917 -7.33374 1.95559 0
M  V30 10530 O 544.707 -5.88721 2.00726 0
M  V30 10531 C 543.517 -7.92526 2.10483 0
M  V30 10532 O 543.127 -8.02971 3.47653 0
M  V30 10533 C 542.637 -6.89602 1.41652 0
M  V30 10534 C 543.347 -5.59201 1.75185 0
M  V30 10535 N 543.297 -4.58235 0.662552 0
M  V30 10536 H 546.136 -8.65116 0.777161 0
M  V30 10537 H 546.408 -6.90173 0.474152 0
M  V30 10538 H 545.54 -7.66548 2.79458 0
M  V30 10539 P 541.577 -8.03563 3.84925 0
M  V30 10540 O 541.357 -8.85821 5.0569 0
M  V30 10541 O 540.787 -8.41101 2.65469 0
M  V30 10542 O 541.327 -6.4965 4.18908 0
M  V30 10543 C 542.267 -5.81037 5.05421 0
M  V30 10544 C 541.537 -4.78366 5.89277 0
M  V30 10545 O 541.327 -3.58302 5.08433 0
M  V30 10546 C 540.137 -5.17448 6.36119 0
M  V30 10547 O 539.747 -4.45271 7.53232 0
M  V30 10548 C 539.257 -4.74639 5.19936 0
M  V30 10549 C 539.967 -3.49432 4.70418 0
M  V30 10550 N 539.917 -3.32099 3.22613 0
M  V30 10551 H 542.756 -6.54213 5.71376 0
M  V30 10552 H 543.028 -5.30936 4.43503 0
M  V30 10553 H 542.16 -4.55889 6.76652 0
M  V30 10554 H 539.505 -2.61715 5.17932 0
M  V30 10555 H 539.225 -5.52155 4.41878 0
M  V30 10556 H 538.234 -4.51981 5.53374 0
M  V30 10557 H 540.068 -6.25124 6.55234 0
M  V30 10558 P 538.197 -4.23843 7.83734 0
M  V30 10559 O 537.977 -4.19407 9.29784 0
M  V30 10560 O 537.407 -5.24426 7.09156 0
M  V30 10561 O 537.947 -2.7935 7.20758 0
M  V30 10562 C 538.887 -1.7299 7.50419 0
M  V30 10563 C 538.157 -0.406376 7.57911 0
M  V30 10564 O 537.947 0.0897726 6.21935 0
M  V30 10565 C 536.757 -0.447224 8.1878 0
M  V30 10566 O 536.367 0.825065 8.71101 0
M  V30 10567 C 535.877 -0.783801 6.99623 0
M  V30 10568 C 536.587 -0.0619192 5.85967 0
M  V30 10569 N 536.537 -0.7859 4.56281 0
M  V30 10570 H 539.376 -1.93423 8.4679 0
M  V30 10571 H 539.648 -1.68181 6.71046 0
M  V30 10572 H 538.78 0.289041 8.15388 0
M  V30 10573 P 534.817 1.17771 8.83182 0
M  V30 10574 O 534.597 2.07206 9.98732 0
M  V30 10575 O 534.027 -0.0743816 8.81969 0
M  V30 10576 O 534.567 1.97652 7.47304 0
M  V30 10577 C 535.507 3.01133 7.08783 0
M  V30 10578 C 534.777 4.12613 6.37049 0
M  V30 10579 O 534.567 3.72827 4.97879 0
M  V30 10580 C 533.377 4.45085 6.88694 0
M  V30 10581 O 532.987 5.7877 6.5624 0
M  V30 10582 C 532.497 3.47817 6.12078 0
M  V30 10583 C 533.207 3.39414 4.77697 0
M  V30 10584 N 533.157 2.04615 4.15333 0
M  V30 10585 H 535.996 3.41248 7.98759 0
M  V30 10586 H 536.268 2.5837 6.41742 0
M  V30 10587 H 535.4 5.02657 6.42673 0
M  V30 10588 P 531.437 6.144 6.45285 0
M  V30 10589 O 531.217 7.54673 6.86199 0
M  V30 10590 O 530.647 5.12391 7.179 0
M  V30 10591 O 531.187 5.99158 4.88404 0
M  V30 10592 C 532.127 6.60234 3.96415 0
M  V30 10593 C 531.397 7.08259 2.72856 0
M  V30 10594 O 531.187 5.9427 1.83651 0
M  V30 10595 C 529.997 7.64886 2.9555 0
M  V30 10596 O 529.607 8.53963 1.90717 0
M  V30 10597 C 529.117 6.4116 2.90739 0
M  V30 10598 C 529.827 5.55375 1.86963 0
M  V30 10599 N 529.777 4.09448 2.16152 0
M  V30 10600 H 532.616 7.45574 4.45629 0
M  V30 10601 H 532.888 5.85864 3.679 0
M  V30 10602 H 532.02 7.84412 2.24479 0
M  V30 10603 H 529.365 5.73457 0.888562 0
M  V30 10604 H 529.085 5.90877 3.88583 0
M  V30 10605 H 528.094 6.6596 2.58858 0
M  V30 10606 H 529.928 8.16339 3.92049 0
M  V30 10607 P 528.057 8.7635 1.60911 0
M  V30 10608 O 527.837 10.1388 1.11561 0
M  V30 10609 O 527.267 8.36503 2.79617 0
M  V30 10610 O 527.807 7.71806 0.42951 0
M  V30 10611 C 528.747 7.67148 -0.673689 0
M  V30 10612 C 528.017 7.33374 -1.95559 0
M  V30 10613 O 527.807 5.88721 -2.00726 0
M  V30 10614 C 526.617 7.92526 -2.10483 0
M  V30 10615 O 526.227 8.02971 -3.47653 0
M  V30 10616 C 525.737 6.89602 -1.41652 0
M  V30 10617 C 526.447 5.59201 -1.75185 0
M  V30 10618 N 526.397 4.58235 -0.662552 0
M  V30 10619 H 529.236 8.65116 -0.777161 0
M  V30 10620 H 529.508 6.90173 -0.474152 0
M  V30 10621 H 528.64 7.66548 -2.79458 0
M  V30 10622 P 524.677 8.03563 -3.84925 0
M  V30 10623 O 524.457 8.85821 -5.0569 0
M  V30 10624 O 523.887 8.41101 -2.65469 0
M  V30 10625 O 524.427 6.4965 -4.18908 0
M  V30 10626 C 525.367 5.80886 -5.05289 0
M  V30 10627 C 524.637 4.78366 -5.89277 0
M  V30 10628 O 524.427 3.58302 -5.08433 0
M  V30 10629 C 523.237 5.16748 -6.36559 0
M  V30 10630 O 522.847 4.45271 -7.53232 0
M  V30 10631 C 522.357 4.74572 -5.19863 0
M  V30 10632 C 523.067 3.49373 -4.70338 0
M  V30 10633 N 523.017 3.31704 -3.22876 0
M  V30 10634 C 522.867 2.03326 -2.74871 0
M  V30 10635 O 522.777 1.06486 -3.48076 0
M  V30 10636 N 522.827 1.91838 -1.37456 0
M  V30 10637 C 522.917 2.94295 -0.462035 0
M  V30 10638 C 523.067 4.25064 -1.05249 0
M  V30 10639 C 523.117 4.40214 -2.39192 0
M  V30 10640 H 525.858 6.54063 -5.71245 0
M  V30 10641 H 526.127 5.30339 -4.43905 0
M  V30 10642 H 525.26 4.55889 -6.76652 0
M  V30 10643 H 522.605 2.6167 -5.17842 0
M  V30 10644 H 522.326 5.52155 -4.41878 0
M  V30 10645 H 521.334 4.51918 -5.53297 0
M  V30 10646 H 523.168 6.25055 -6.55162 0
M  V30 10647 H 523.239 5.39798 -2.81523 0
M  V30 10648 P 521.297 4.23843 -7.83734 0
M  V30 10649 O 521.077 4.19407 -9.29784 0
M  V30 10650 O 520.507 5.24426 -7.09156 0
M  V30 10651 O 521.047 2.7935 -7.20758 0
M  V30 10652 C 521.987 1.7299 -7.50419 0
M  V30 10653 C 521.257 0.406376 -7.57911 0
M  V30 10654 O 521.047 -0.0897726 -6.21935 0
M  V30 10655 C 519.857 0.447224 -8.1878 0
M  V30 10656 O 519.467 -0.825065 -8.71101 0
M  V30 10657 C 518.977 0.783801 -6.99623 0
M  V30 10658 C 519.687 0.0619192 -5.85967 0
M  V30 10659 N 519.637 0.7859 -4.56281 0
M  V30 10660 H 522.476 1.93423 -8.4679 0
M  V30 10661 H 522.748 1.68181 -6.71046 0
M  V30 10662 H 521.88 -0.289041 -8.15388 0
M  V30 10663 P 517.917 -1.17771 -8.83182 0
M  V30 10664 O 517.697 -2.07206 -9.98732 0
M  V30 10665 O 517.127 0.0743816 -8.81969 0
M  V30 10666 O 517.667 -1.97652 -7.47304 0
M  V30 10667 C 518.607 -3.01133 -7.08783 0
M  V30 10668 C 517.877 -4.12613 -6.37049 0
M  V30 10669 O 517.667 -3.72827 -4.97879 0
M  V30 10670 C 516.477 -4.45085 -6.88694 0
M  V30 10671 O 516.087 -5.7877 -6.5624 0
M  V30 10672 C 515.597 -3.47817 -6.12078 0
M  V30 10673 C 516.307 -3.39414 -4.77697 0
M  V30 10674 N 516.257 -2.04615 -4.15333 0
M  V30 10675 H 519.096 -3.41248 -7.98759 0
M  V30 10676 H 519.368 -2.5837 -6.41742 0
M  V30 10677 H 518.5 -5.02657 -6.42673 0
M  V30 10678 P 514.537 -6.144 -6.45285 0
M  V30 10679 O 514.317 -7.54673 -6.86199 0
M  V30 10680 O 513.747 -5.12391 -7.179 0
M  V30 10681 O 514.287 -5.99158 -4.88404 0
M  V30 10682 C 515.227 -6.60234 -3.96415 0
M  V30 10683 C 514.497 -7.08259 -2.72856 0
M  V30 10684 O 514.287 -5.9427 -1.83651 0
M  V30 10685 C 513.097 -7.64886 -2.9555 0
M  V30 10686 O 512.707 -8.53963 -1.90717 0
M  V30 10687 C 512.217 -6.4116 -2.90739 0
M  V30 10688 C 512.927 -5.55375 -1.86963 0
M  V30 10689 N 512.877 -4.09664 -2.15742 0
M  V30 10690 H 515.716 -7.45574 -4.45629 0
M  V30 10691 H 515.988 -5.86232 -3.67314 0
M  V30 10692 H 515.12 -7.84412 -2.24479 0
M  V30 10693 P 511.157 -8.7635 -1.60911 0
M  V30 10694 O 510.937 -10.1388 -1.11561 0
M  V30 10695 O 510.367 -8.36503 -2.79617 0
M  V30 10696 O 510.907 -7.71806 -0.42951 0
M  V30 10697 C 511.847 -7.67148 0.673689 0
M  V30 10698 C 511.117 -7.33374 1.95559 0
M  V30 10699 O 510.907 -5.88721 2.00726 0
M  V30 10700 C 509.717 -7.92526 2.10483 0
M  V30 10701 O 509.327 -8.02971 3.47653 0
M  V30 10702 C 508.837 -6.89602 1.41652 0
M  V30 10703 C 509.547 -5.59201 1.75185 0
M  V30 10704 N 509.497 -4.58235 0.662552 0
M  V30 10705 H 512.336 -8.65116 0.777161 0
M  V30 10706 H 512.608 -6.90173 0.474152 0
M  V30 10707 H 511.74 -7.66548 2.79458 0
M  V30 10708 P 507.777 -8.03563 3.84925 0
M  V30 10709 O 507.557 -8.85821 5.0569 0
M  V30 10710 O 506.987 -8.41101 2.65469 0
M  V30 10711 O 507.527 -6.4965 4.18908 0
M  V30 10712 C 508.467 -5.81037 5.05421 0
M  V30 10713 C 507.737 -4.78366 5.89277 0
M  V30 10714 O 507.527 -3.58302 5.08433 0
M  V30 10715 C 506.337 -5.17448 6.36119 0
M  V30 10716 O 505.947 -4.45271 7.53232 0
M  V30 10717 C 505.457 -4.74639 5.19936 0
M  V30 10718 C 506.167 -3.49432 4.70418 0
M  V30 10719 N 506.117 -3.31776 3.22945 0
M  V30 10720 H 508.956 -6.54213 5.71376 0
M  V30 10721 H 509.228 -5.30492 4.44033 0
M  V30 10722 H 508.36 -4.55889 6.76652 0
M  V30 10723 P 504.397 -4.23843 7.83734 0
M  V30 10724 O 504.177 -4.19407 9.29784 0
M  V30 10725 O 503.607 -5.24426 7.09156 0
M  V30 10726 O 504.147 -2.7935 7.20758 0
M  V30 10727 C 505.087 -1.7299 7.50419 0
M  V30 10728 C 504.357 -0.406376 7.57911 0
M  V30 10729 O 504.147 0.0897726 6.21935 0
M  V30 10730 C 502.957 -0.447224 8.1878 0
M  V30 10731 O 502.567 0.825065 8.71101 0
M  V30 10732 C 502.077 -0.783801 6.99623 0
M  V30 10733 C 502.787 -0.0619192 5.85967 0
M  V30 10734 N 502.737 -0.7859 4.56281 0
M  V30 10735 H 505.576 -1.93423 8.4679 0
M  V30 10736 H 505.848 -1.68181 6.71046 0
M  V30 10737 H 504.98 0.289041 8.15388 0
M  V30 10738 P 501.017 1.17771 8.83182 0
M  V30 10739 O 500.797 2.07206 9.98732 0
M  V30 10740 O 500.227 -0.0743816 8.81969 0
M  V30 10741 O 500.767 1.97652 7.47304 0
M  V30 10742 C 501.707 3.01133 7.08783 0
M  V30 10743 C 500.977 4.12613 6.37049 0
M  V30 10744 O 500.767 3.72827 4.97879 0
M  V30 10745 C 499.577 4.45085 6.88694 0
M  V30 10746 O 499.187 5.7877 6.5624 0
M  V30 10747 C 498.697 3.47817 6.12078 0
M  V30 10748 C 499.407 3.39414 4.77697 0
M  V30 10749 N 499.357 2.04199 4.15538 0
M  V30 10750 C 499.437 0.821545 4.76977 0
M  V30 10751 N 499.367 -0.1794 3.94592 0
M  V30 10752 C 499.217 0.419121 2.70776 0
M  V30 10753 C 499.087 -0.109072 1.40577 0
M  V30 10754 N 499.077 -1.4104 1.1344 0
M  V30 10755 N 498.967 0.764381 0.39411 0
M  V30 10756 C 498.977 2.06587 0.664135 0
M  V30 10757 N 499.097 2.67948 1.82153 0
M  V30 10758 C 499.217 1.77942 2.8147 0
M  V30 10759 H 502.196 3.41248 7.98759 0
M  V30 10760 H 502.468 2.57728 6.42 0
M  V30 10761 H 501.6 5.02657 6.42673 0
M  V30 10762 H 498.945 4.11708 4.08956 0
M  V30 10763 H 498.665 2.49626 6.61679 0
M  V30 10764 H 497.674 3.8662 6.00862 0
M  V30 10765 H 499.508 4.29991 7.97006 0
M  V30 10766 H 499.549 0.702451 5.84696 0
M  V30 10767 H 499.168 -2.09647 1.89651 0
M  V30 10768 H 498.979 -1.73358 0.160575 0
M  V30 10769 H 498.871 2.71695 -0.195838 0
M  V30 10770 P 497.637 6.144 6.45285 0
M  V30 10771 O 497.417 7.54673 6.86199 0
M  V30 10772 O 496.847 5.12391 7.179 0
M  V30 10773 O 497.387 5.99158 4.88404 0
M  V30 10774 C 498.327 6.60234 3.96415 0
M  V30 10775 C 497.597 7.08259 2.72856 0
M  V30 10776 O 497.387 5.9427 1.83651 0
M  V30 10777 C 496.197 7.64886 2.9555 0
M  V30 10778 O 495.807 8.53963 1.90717 0
M  V30 10779 C 495.317 6.4116 2.90739 0
M  V30 10780 C 496.027 5.55375 1.86963 0
M  V30 10781 N 495.977 4.09664 2.15742 0
M  V30 10782 H 498.816 7.45574 4.45629 0
M  V30 10783 H 499.088 5.86232 3.67314 0
M  V30 10784 H 498.22 7.84412 2.24479 0
M  V30 10785 P 494.257 8.7635 1.60911 0
M  V30 10786 O 494.037 10.1388 1.11561 0
M  V30 10787 O 493.467 8.36503 2.79617 0
M  V30 10788 O 494.007 7.71806 0.42951 0
M  V30 10789 C 494.947 7.67148 -0.673689 0
M  V30 10790 C 494.217 7.33374 -1.95559 0
M  V30 10791 O 494.007 5.88721 -2.00726 0
M  V30 10792 C 492.817 7.92526 -2.10483 0
M  V30 10793 O 492.427 8.02971 -3.47653 0
M  V30 10794 C 491.937 6.89602 -1.41652 0
M  V30 10795 C 492.647 5.59201 -1.75185 0
M  V30 10796 N 492.597 4.58235 -0.662552 0
M  V30 10797 C 492.677 4.7683 0.704049 0
M  V30 10798 N 492.597 3.66233 1.39775 0
M  V30 10799 C 492.457 2.66526 0.431739 0
M  V30 10800 C 492.327 1.26394 0.575992 0
M  V30 10801 O 492.307 0.589894 1.60503 0
M  V30 10802 N 492.207 0.62859 -0.67177 0
M  V30 10803 C 492.207 1.27134 -1.89385 0
M  V30 10804 N 492.077 0.492035 -2.96951 0
M  V30 10805 N 492.337 2.58978 -2.02907 0
M  V30 10806 C 492.457 3.22433 -0.832218 0
M  V30 10807 H 495.436 8.65116 -0.777161 0
M  V30 10808 H 495.708 6.90173 -0.474152 0
M  V30 10809 H 494.84 7.66548 -2.79458 0
M  V30 10810 H 492.185 5.16254 -2.65229 0
M  V30 10811 H 491.905 7.06532 -0.329431 0
M  V30 10812 H 490.914 6.91023 -1.82047 0
M  V30 10813 H 492.748 8.90971 -1.62675 0
M  V30 10814 H 492.797 5.74954 1.16305 0
M  V30 10815 H 492.115 -0.366713 -0.674793 0
M  V30 10816 H 492.078 0.908532 -3.91188 0
M  V30 10817 H 491.977 -0.528253 -2.85758 0
M  V30 10818 P 490.877 8.03563 -3.84925 0
M  V30 10819 O 490.657 8.85821 -5.0569 0
M  V30 10820 O 490.087 8.41101 -2.65469 0
M  V30 10821 O 490.627 6.4965 -4.18908 0
M  V30 10822 C 491.567 5.80886 -5.05289 0
M  V30 10823 C 490.837 4.78366 -5.89277 0
M  V30 10824 O 490.627 3.58302 -5.08433 0
M  V30 10825 C 489.437 5.16748 -6.36559 0
M  V30 10826 O 489.047 4.45271 -7.53232 0
M  V30 10827 C 488.557 4.74572 -5.19863 0
M  V30 10828 C 489.267 3.49373 -4.70338 0
M  V30 10829 N 489.217 3.31704 -3.22876 0
M  V30 10830 C 489.067 2.03326 -2.74871 0
M  V30 10831 O 488.977 1.06486 -3.48076 0
M  V30 10832 N 489.027 1.91838 -1.37456 0
M  V30 10833 C 489.117 2.94295 -0.462035 0
M  V30 10834 C 489.267 4.25064 -1.05249 0
M  V30 10835 C 489.317 4.40214 -2.39192 0
M  V30 10836 H 492.058 6.54063 -5.71245 0
M  V30 10837 H 492.327 5.30339 -4.43905 0
M  V30 10838 H 491.46 4.55889 -6.76652 0
M  V30 10839 H 488.805 2.6167 -5.17842 0
M  V30 10840 H 488.526 5.52155 -4.41878 0
M  V30 10841 H 487.534 4.51918 -5.53297 0
M  V30 10842 H 489.368 6.25055 -6.55162 0
M  V30 10843 H 489.439 5.39798 -2.81523 0
M  V30 10844 P 487.497 4.23843 -7.83734 0
M  V30 10845 O 487.277 4.19407 -9.29784 0
M  V30 10846 O 486.707 5.24426 -7.09156 0
M  V30 10847 O 487.247 2.7935 -7.20758 0
M  V30 10848 C 488.187 1.72945 -7.50224 0
M  V30 10849 C 487.457 0.406376 -7.57911 0
M  V30 10850 O 487.247 -0.0897726 -6.21935 0
M  V30 10851 C 486.057 0.438983 -8.18724 0
M  V30 10852 O 485.667 -0.825065 -8.71101 0
M  V30 10853 C 485.177 0.783689 -6.99524 0
M  V30 10854 C 485.887 0.0619086 -5.85867 0
M  V30 10855 N 485.837 0.78573 -4.56183 0
M  V30 10856 C 485.687 0.0292889 -3.41887 0
M  V30 10857 O 485.597 -1.18445 -3.4419 0
M  V30 10858 N 485.647 0.744061 -2.23964 0
M  V30 10859 C 485.737 2.10932 -2.10362 0
M  V30 10860 C 485.887 2.8202 -3.34994 0
M  V30 10861 C 485.937 2.15547 -4.52261 0
M  V30 10862 H 488.678 1.93379 -8.46595 0
M  V30 10863 H 488.947 1.68132 -6.70852 0
M  V30 10864 H 488.08 -0.289041 -8.15388 0
M  V30 10865 H 485.425 -0.926847 -5.72749 0
M  V30 10866 H 485.146 1.86973 -6.82036 0
M  V30 10867 H 484.154 0.403896 -7.13257 0
M  V30 10868 H 485.988 1.20585 -8.97435 0
M  V30 10869 H 486.059 2.71231 -5.45042 0
M  V30 10870 P 484.117 -1.17771 -8.83182 0
M  V30 10871 O 483.897 -2.07206 -9.98732 0
M  V30 10872 O 483.327 0.0743816 -8.81969 0
M  V30 10873 O 483.867 -1.97652 -7.47304 0
M  V30 10874 C 484.807 -3.01133 -7.08783 0
M  V30 10875 C 484.077 -4.12613 -6.37049 0
M  V30 10876 O 483.867 -3.72827 -4.97879 0
M  V30 10877 C 482.677 -4.45085 -6.88694 0
M  V30 10878 O 482.287 -5.7877 -6.5624 0
M  V30 10879 C 481.797 -3.47817 -6.12078 0
M  V30 10880 C 482.507 -3.39414 -4.77697 0
M  V30 10881 N 482.457 -2.04615 -4.15333 0
M  V30 10882 H 485.296 -3.41248 -7.98759 0
M  V30 10883 H 485.568 -2.5837 -6.41742 0
M  V30 10884 H 484.7 -5.02657 -6.42673 0
M  V30 10885 P 480.737 -6.144 -6.45285 0
M  V30 10886 O 480.517 -7.54673 -6.86199 0
M  V30 10887 O 479.947 -5.12391 -7.179 0
M  V30 10888 O 480.487 -5.99158 -4.88404 0
M  V30 10889 C 481.427 -6.60234 -3.96415 0
M  V30 10890 C 480.697 -7.08259 -2.72856 0
M  V30 10891 O 480.487 -5.9427 -1.83651 0
M  V30 10892 C 479.297 -7.64886 -2.9555 0
M  V30 10893 O 478.907 -8.53963 -1.90717 0
M  V30 10894 C 478.417 -6.4116 -2.90739 0
M  V30 10895 C 479.127 -5.55375 -1.86963 0
M  V30 10896 N 479.077 -4.09664 -2.15742 0
M  V30 10897 C 479.157 -3.44381 -3.37233 0
M  V30 10898 N 479.077 -2.14131 -3.28347 0
M  V30 10899 C 478.937 -1.90247 -1.91588 0
M  V30 10900 C 478.807 -0.683992 -1.20892 0
M  V30 10901 N 478.687 -0.903396 0.173998 0
M  V30 10902 C 478.687 -2.14171 0.784879 0
M  V30 10903 N 478.557 -2.1435 2.11317 0
M  V30 10904 N 478.817 -3.28784 0.119316 0
M  V30 10905 C 478.937 -3.0977 -1.22194 0
M  V30 10906 H 481.916 -7.45574 -4.45629 0
M  V30 10907 H 482.188 -5.86232 -3.67314 0
M  V30 10908 H 481.32 -7.84412 -2.24479 0
M  V30 10909 P 477.357 -8.7635 -1.60911 0
M  V30 10910 O 477.137 -10.1388 -1.11561 0
M  V30 10911 O 476.567 -8.36503 -2.79617 0
M  V30 10912 O 477.107 -7.71806 -0.42951 0
M  V30 10913 C 478.047 -7.67148 0.673689 0
M  V30 10914 C 477.317 -7.33374 1.95559 0
M  V30 10915 O 477.107 -5.88721 2.00726 0
M  V30 10916 C 475.917 -7.92526 2.10483 0
M  V30 10917 O 475.527 -8.02971 3.47653 0
M  V30 10918 C 475.037 -6.89602 1.41652 0
M  V30 10919 C 475.747 -5.59201 1.75185 0
M  V30 10920 N 475.697 -4.58235 0.662552 0
M  V30 10921 H 478.536 -8.65116 0.777161 0
M  V30 10922 H 478.808 -6.90173 0.474152 0
M  V30 10923 H 477.94 -7.66548 2.79458 0
M  V30 10924 P 473.977 -8.03563 3.84925 0
M  V30 10925 O 473.757 -8.85821 5.0569 0
M  V30 10926 O 473.187 -8.41101 2.65469 0
M  V30 10927 O 473.727 -6.4965 4.18908 0
M  V30 10928 C 474.667 -5.80886 5.05289 0
M  V30 10929 C 473.937 -4.78366 5.89277 0
M  V30 10930 O 473.727 -3.58302 5.08433 0
M  V30 10931 C 472.537 -5.16748 6.36559 0
M  V30 10932 O 472.147 -4.45271 7.53232 0
M  V30 10933 C 471.657 -4.74572 5.19863 0
M  V30 10934 C 472.367 -3.49373 4.70338 0
M  V30 10935 N 472.317 -3.31704 3.22876 0
M  V30 10936 C 472.167 -2.03326 2.74871 0
M  V30 10937 O 472.077 -1.06486 3.48076 0
M  V30 10938 N 472.127 -1.91838 1.37456 0
M  V30 10939 C 472.217 -2.94295 0.462035 0
M  V30 10940 O 472.167 -2.71763 -0.752928 0
M  V30 10941 C 472.367 -4.25064 1.05249 0
M  V30 10942 C 472.477 -5.39815 0.095697 0
M  V30 10943 C 472.417 -4.40214 2.39192 0
M  V30 10944 H 475.158 -6.54063 5.71245 0
M  V30 10945 H 475.427 -5.30339 4.43905 0
M  V30 10946 H 474.56 -4.55889 6.76652 0
M  V30 10947 H 471.905 -2.6167 5.17842 0
M  V30 10948 H 471.626 -5.52155 4.41878 0
M  V30 10949 H 470.634 -4.51918 5.53297 0
M  V30 10950 H 472.468 -6.25055 6.55162 0
M  V30 10951 H 472.539 -5.39798 2.81523 0
M  V30 10952 H 471.509 -5.91593 0.0279582 0
M  V30 10953 H 473.246 -6.10038 0.450573 0
M  V30 10954 H 472.758 -5.02007 -0.89937 0
M  V30 10955 H 472.022 -0.995326 1.00435 0
M  V30 10956 P 470.597 -4.23843 7.83734 0
M  V30 10957 O 470.377 -4.19407 9.29784 0
M  V30 10958 O 469.807 -5.24426 7.09156 0
M  V30 10959 O 470.347 -2.7935 7.20758 0
M  V30 10960 C 471.287 -1.7299 7.50419 0
M  V30 10961 C 470.557 -0.406376 7.57911 0
M  V30 10962 O 470.347 0.0897726 6.21935 0
M  V30 10963 C 469.157 -0.447224 8.1878 0
M  V30 10964 O 468.767 0.825065 8.71101 0
M  V30 10965 C 468.277 -0.783801 6.99623 0
M  V30 10966 C 468.987 -0.0619192 5.85967 0
M  V30 10967 N 468.937 -0.7859 4.56281 0
M  V30 10968 H 471.776 -1.93423 8.4679 0
M  V30 10969 H 472.048 -1.68181 6.71046 0
M  V30 10970 H 471.18 0.289041 8.15388 0
M  V30 10971 P 467.217 1.17771 8.83182 0
M  V30 10972 O 466.997 2.07206 9.98732 0
M  V30 10973 O 466.427 -0.0743816 8.81969 0
M  V30 10974 O 466.967 1.97652 7.47304 0
M  V30 10975 C 467.907 3.01133 7.08783 0
M  V30 10976 C 467.177 4.12613 6.37049 0
M  V30 10977 O 466.967 3.72827 4.97879 0
M  V30 10978 C 465.777 4.45085 6.88694 0
M  V30 10979 O 465.387 5.7877 6.5624 0
M  V30 10980 C 464.897 3.47817 6.12078 0
M  V30 10981 C 465.607 3.39414 4.77697 0
M  V30 10982 N 465.557 2.04615 4.15333 0
M  V30 10983 H 468.396 3.41248 7.98759 0
M  V30 10984 H 468.668 2.5837 6.41742 0
M  V30 10985 H 467.8 5.02657 6.42673 0
M  V30 10986 P 463.837 6.144 6.45285 0
M  V30 10987 O 463.617 7.54673 6.86199 0
M  V30 10988 O 463.047 5.12391 7.179 0
M  V30 10989 O 463.587 5.99158 4.88404 0
M  V30 10990 C 464.527 6.60234 3.96415 0
M  V30 10991 C 463.797 7.08259 2.72856 0
M  V30 10992 O 463.587 5.9427 1.83651 0
M  V30 10993 C 462.397 7.64886 2.9555 0
M  V30 10994 O 462.007 8.53963 1.90717 0
M  V30 10995 C 461.517 6.4116 2.90739 0
M  V30 10996 C 462.227 5.55375 1.86963 0
M  V30 10997 N 462.177 4.09664 2.15742 0
M  V30 10998 H 465.016 7.45574 4.45629 0
M  V30 10999 H 465.288 5.86232 3.67314 0
M  V30 11000 H 464.42 7.84412 2.24479 0
M  V30 11001 P 460.457 8.7635 1.60911 0
M  V30 11002 O 460.237 10.1388 1.11561 0
M  V30 11003 O 459.667 8.36503 2.79617 0
M  V30 11004 O 460.207 7.71806 0.42951 0
M  V30 11005 C 461.147 7.66948 -0.673514 0
M  V30 11006 C 460.417 7.33374 -1.95559 0
M  V30 11007 O 460.207 5.88721 -2.00726 0
M  V30 11008 C 459.017 7.92218 -2.1125 0
M  V30 11009 O 458.627 8.02971 -3.47653 0
M  V30 11010 C 458.137 6.89504 -1.41631 0
M  V30 11011 C 458.847 5.59106 -1.75155 0
M  V30 11012 N 458.797 4.58136 -0.662409 0
M  V30 11013 C 458.647 3.26059 -1.02863 0
M  V30 11014 O 458.557 2.90743 -2.19009 0
M  V30 11015 N 458.607 2.35995 0.0155585 0
M  V30 11016 C 458.697 2.65248 1.35603 0
M  V30 11017 O 458.647 1.75605 2.20651 0
M  V30 11018 C 458.847 4.05747 1.64698 0
M  V30 11019 C 458.957 4.42345 3.09553 0
M  V30 11020 C 458.897 4.96734 0.652411 0
M  V30 11021 H 461.638 8.64917 -0.776982 0
M  V30 11022 H 461.907 6.89974 -0.474015 0
M  V30 11023 H 461.04 7.66548 -2.79458 0
M  V30 11024 H 458.385 5.16076 -2.65138 0
M  V30 11025 H 458.106 7.06433 -0.329384 0
M  V30 11026 H 457.114 6.90829 -1.81996 0
M  V30 11027 H 458.948 8.90774 -1.62639 0
M  V30 11028 H 459.019 6.02181 0.895285 0
M  V30 11029 H 457.989 4.80252 3.45468 0
M  V30 11030 H 459.726 5.20015 3.22119 0
M  V30 11031 H 459.238 3.53269 3.67833 0
M  V30 11032 H 458.502 1.39558 -0.227499 0
M  V30 11033 P 457.077 8.03563 -3.84925 0
M  V30 11034 O 456.857 8.85821 -5.0569 0
M  V30 11035 O 456.287 8.41101 -2.65469 0
M  V30 11036 O 456.827 6.4965 -4.18908 0
M  V30 11037 C 457.767 5.81037 -5.05421 0
M  V30 11038 C 457.037 4.78366 -5.89277 0
M  V30 11039 O 456.827 3.58302 -5.08433 0
M  V30 11040 C 455.637 5.17448 -6.36119 0
M  V30 11041 O 455.247 4.45271 -7.53232 0
M  V30 11042 C 454.757 4.74639 -5.19936 0
M  V30 11043 C 455.467 3.49432 -4.70418 0
M  V30 11044 N 455.417 3.32099 -3.22613 0
M  V30 11045 C 455.497 4.28245 -2.25527 0
M  V30 11046 N 455.427 3.80823 -1.04874 0
M  V30 11047 C 455.277 2.44571 -1.23535 0
M  V30 11048 C 455.147 1.37068 -0.330675 0
M  V30 11049 N 455.137 1.51472 0.990824 0
M  V30 11050 N 455.027 0.138614 -0.848756 0
M  V30 11051 C 455.037 -0.00675923 -2.16999 0
M  V30 11052 N 455.157 0.904372 -3.11122 0
M  V30 11053 C 455.277 2.12707 -2.56212 0
M  V30 11054 H 458.256 6.54213 -5.71376 0
M  V30 11055 H 458.528 5.30936 -4.43503 0
M  V30 11056 H 457.66 4.55889 -6.76652 0
M  V30 11057 H 455.005 2.61715 -5.17932 0
M  V30 11058 H 454.725 5.52155 -4.41878 0
M  V30 11059 H 453.734 4.51981 -5.53374 0
M  V30 11060 H 455.568 6.25124 -6.55234 0
M  V30 11061 H 455.609 5.34372 -2.47488 0
M  V30 11062 H 455.228 2.45153 1.4078 0
M  V30 11063 H 455.039 0.688422 1.59911 0
M  V30 11064 H 454.931 -1.02584 -2.52346 0
M  V30 11065 P 453.697 4.23843 -7.83734 0
M  V30 11066 O 453.477 4.19407 -9.29784 0
M  V30 11067 O 452.907 5.24426 -7.09156 0
M  V30 11068 O 453.447 2.7935 -7.20758 0
M  V30 11069 C 454.387 1.7299 -7.50419 0
M  V30 11070 C 453.657 0.406376 -7.57911 0
M  V30 11071 O 453.447 -0.0897726 -6.21935 0
M  V30 11072 C 452.257 0.447224 -8.1878 0
M  V30 11073 O 451.867 -0.825065 -8.71101 0
M  V30 11074 C 451.377 0.783801 -6.99623 0
M  V30 11075 C 452.087 0.0619192 -5.85967 0
M  V30 11076 N 452.037 0.7859 -4.56281 0
M  V30 11077 H 454.876 1.93423 -8.4679 0
M  V30 11078 H 455.148 1.68181 -6.71046 0
M  V30 11079 H 454.28 -0.289041 -8.15388 0
M  V30 11080 P 450.317 -1.17771 -8.83182 0
M  V30 11081 O 450.097 -2.07206 -9.98732 0
M  V30 11082 O 449.527 0.0743816 -8.81969 0
M  V30 11083 O 450.067 -1.97652 -7.47304 0
M  V30 11084 C 451.007 -3.01133 -7.08783 0
M  V30 11085 C 450.277 -4.12613 -6.37049 0
M  V30 11086 O 450.067 -3.72827 -4.97879 0
M  V30 11087 C 448.877 -4.45085 -6.88694 0
M  V30 11088 O 448.487 -5.7877 -6.5624 0
M  V30 11089 C 447.997 -3.47817 -6.12078 0
M  V30 11090 C 448.707 -3.39414 -4.77697 0
M  V30 11091 N 448.657 -2.04615 -4.15333 0
M  V30 11092 H 451.496 -3.41248 -7.98759 0
M  V30 11093 H 451.768 -2.5837 -6.41742 0
M  V30 11094 H 450.9 -5.02657 -6.42673 0
M  V30 11095 P 446.937 -6.144 -6.45285 0
M  V30 11096 O 446.717 -7.54673 -6.86199 0
M  V30 11097 O 446.147 -5.12391 -7.179 0
M  V30 11098 O 446.687 -5.99158 -4.88404 0
M  V30 11099 C 447.627 -6.60234 -3.96415 0
M  V30 11100 C 446.897 -7.08259 -2.72856 0
M  V30 11101 O 446.687 -5.9427 -1.83651 0
M  V30 11102 C 445.497 -7.64886 -2.9555 0
M  V30 11103 O 445.107 -8.53963 -1.90717 0
M  V30 11104 C 444.617 -6.4116 -2.90739 0
M  V30 11105 C 445.327 -5.55375 -1.86963 0
M  V30 11106 N 445.277 -4.09664 -2.15742 0
M  V30 11107 H 448.116 -7.45574 -4.45629 0
M  V30 11108 H 448.388 -5.86232 -3.67314 0
M  V30 11109 H 447.52 -7.84412 -2.24479 0
M  V30 11110 P 443.557 -8.7635 -1.60911 0
M  V30 11111 O 443.337 -10.1388 -1.11561 0
M  V30 11112 O 442.767 -8.36503 -2.79617 0
M  V30 11113 O 443.307 -7.71806 -0.42951 0
M  V30 11114 C 444.247 -7.66948 0.673514 0
M  V30 11115 C 443.517 -7.33374 1.95559 0
M  V30 11116 O 443.307 -5.88721 2.00726 0
M  V30 11117 C 442.117 -7.92218 2.1125 0
M  V30 11118 O 441.727 -8.02971 3.47653 0
M  V30 11119 C 441.237 -6.89504 1.41631 0
M  V30 11120 C 441.947 -5.59106 1.75155 0
M  V30 11121 N 441.897 -4.58136 0.662409 0
M  V30 11122 C 441.747 -3.26059 1.02863 0
M  V30 11123 O 441.657 -2.90743 2.19009 0
M  V30 11124 N 441.707 -2.35995 -0.0155585 0
M  V30 11125 C 441.797 -2.65248 -1.35603 0
M  V30 11126 O 441.747 -1.75605 -2.20651 0
M  V30 11127 C 441.947 -4.05747 -1.64698 0
M  V30 11128 C 442.057 -4.42345 -3.09553 0
M  V30 11129 C 441.997 -4.96734 -0.652411 0
M  V30 11130 H 444.738 -8.64917 0.776982 0
M  V30 11131 H 445.007 -6.89974 0.474015 0
M  V30 11132 H 444.14 -7.66548 2.79458 0
M  V30 11133 H 441.485 -5.16076 2.65138 0
M  V30 11134 H 441.206 -7.06433 0.329384 0
M  V30 11135 H 440.214 -6.90829 1.81996 0
M  V30 11136 H 442.048 -8.90774 1.62639 0
M  V30 11137 H 442.119 -6.02181 -0.895285 0
M  V30 11138 H 441.089 -4.80252 -3.45468 0
M  V30 11139 H 442.826 -5.20015 -3.22119 0
M  V30 11140 H 442.338 -3.53269 -3.67833 0
M  V30 11141 H 441.602 -1.39558 0.227499 0
M  V30 11142 P 440.177 -8.03563 3.84925 0
M  V30 11143 O 439.957 -8.85821 5.0569 0
M  V30 11144 O 439.387 -8.41101 2.65469 0
M  V30 11145 O 439.927 -6.4965 4.18908 0
M  V30 11146 C 440.867 -5.81037 5.05421 0
M  V30 11147 C 440.137 -4.78366 5.89277 0
M  V30 11148 O 439.927 -3.58302 5.08433 0
M  V30 11149 C 438.737 -5.17448 6.36119 0
M  V30 11150 O 438.347 -4.45271 7.53232 0
M  V30 11151 C 437.857 -4.74639 5.19936 0
M  V30 11152 C 438.567 -3.49432 4.70418 0
M  V30 11153 N 438.517 -3.31776 3.22945 0
M  V30 11154 H 441.356 -6.54213 5.71376 0
M  V30 11155 H 441.628 -5.30492 4.44033 0
M  V30 11156 H 440.76 -4.55889 6.76652 0
M  V30 11157 P 436.797 -4.23843 7.83734 0
M  V30 11158 O 436.577 -4.19407 9.29784 0
M  V30 11159 O 436.007 -5.24426 7.09156 0
M  V30 11160 O 436.547 -2.7935 7.20758 0
M  V30 11161 C 437.487 -1.7299 7.50419 0
M  V30 11162 C 436.757 -0.406376 7.57911 0
M  V30 11163 O 436.547 0.0897726 6.21935 0
M  V30 11164 C 435.357 -0.447224 8.1878 0
M  V30 11165 O 434.967 0.825065 8.71101 0
M  V30 11166 C 434.477 -0.783801 6.99623 0
M  V30 11167 C 435.187 -0.0619192 5.85967 0
M  V30 11168 N 435.137 -0.7859 4.56281 0
M  V30 11169 H 437.976 -1.93423 8.4679 0
M  V30 11170 H 438.248 -1.68181 6.71046 0
M  V30 11171 H 437.38 0.289041 8.15388 0
M  V30 11172 P 433.417 1.17771 8.83182 0
M  V30 11173 O 433.197 2.07206 9.98732 0
M  V30 11174 O 432.627 -0.0743816 8.81969 0
M  V30 11175 O 433.167 1.97652 7.47304 0
M  V30 11176 C 434.107 3.01133 7.08783 0
M  V30 11177 C 433.377 4.12613 6.37049 0
M  V30 11178 O 433.167 3.72827 4.97879 0
M  V30 11179 C 431.977 4.45085 6.88694 0
M  V30 11180 O 431.587 5.7877 6.5624 0
M  V30 11181 C 431.097 3.47817 6.12078 0
M  V30 11182 C 431.807 3.39414 4.77697 0
M  V30 11183 N 431.757 2.04615 4.15333 0
M  V30 11184 H 434.596 3.41248 7.98759 0
M  V30 11185 H 434.868 2.5837 6.41742 0
M  V30 11186 H 434 5.02657 6.42673 0
M  V30 11187 P 430.037 6.144 6.45285 0
M  V30 11188 O 429.817 7.54673 6.86199 0
M  V30 11189 O 429.247 5.12391 7.179 0
M  V30 11190 O 429.787 5.99158 4.88404 0
M  V30 11191 C 430.727 6.60234 3.96415 0
M  V30 11192 C 429.997 7.08259 2.72856 0
M  V30 11193 O 429.787 5.9427 1.83651 0
M  V30 11194 C 428.597 7.64886 2.9555 0
M  V30 11195 O 428.207 8.53963 1.90717 0
M  V30 11196 C 427.717 6.4116 2.90739 0
M  V30 11197 C 428.427 5.55375 1.86963 0
M  V30 11198 N 428.377 4.09664 2.15742 0
M  V30 11199 H 431.216 7.45574 4.45629 0
M  V30 11200 H 431.488 5.86232 3.67314 0
M  V30 11201 H 430.62 7.84412 2.24479 0
M  V30 11202 P 426.657 8.7635 1.60911 0
M  V30 11203 O 426.437 10.1388 1.11561 0
M  V30 11204 O 425.867 8.36503 2.79617 0
M  V30 11205 O 426.407 7.71806 0.42951 0
M  V30 11206 C 427.347 7.67148 -0.673689 0
M  V30 11207 C 426.617 7.33374 -1.95559 0
M  V30 11208 O 426.407 5.88721 -2.00726 0
M  V30 11209 C 425.217 7.92526 -2.10483 0
M  V30 11210 O 424.827 8.02971 -3.47653 0
M  V30 11211 C 424.337 6.89602 -1.41652 0
M  V30 11212 C 425.047 5.59201 -1.75185 0
M  V30 11213 N 424.997 4.58235 -0.662552 0
M  V30 11214 H 427.836 8.65116 -0.777161 0
M  V30 11215 H 428.108 6.90173 -0.474152 0
M  V30 11216 H 427.24 7.66548 -2.79458 0
M  V30 11217 P 423.278 8.03563 -3.84925 0
M  V30 11218 O 423.058 8.85821 -5.0569 0
M  V30 11219 O 422.488 8.41101 -2.65469 0
M  V30 11220 O 423.028 6.4965 -4.18908 0
M  V30 11221 C 423.968 5.81037 -5.05421 0
M  V30 11222 C 423.238 4.78366 -5.89277 0
M  V30 11223 O 423.028 3.58302 -5.08433 0
M  V30 11224 C 421.838 5.17448 -6.36119 0
M  V30 11225 O 421.448 4.45271 -7.53232 0
M  V30 11226 C 420.958 4.74639 -5.19936 0
M  V30 11227 C 421.668 3.49432 -4.70418 0
M  V30 11228 N 421.618 3.31776 -3.22945 0
M  V30 11229 H 424.457 6.54213 -5.71376 0
M  V30 11230 H 424.729 5.30492 -4.44033 0
M  V30 11231 H 423.861 4.55889 -6.76652 0
M  V30 11232 P 419.898 4.23843 -7.83734 0
M  V30 11233 O 419.678 4.19407 -9.29784 0
M  V30 11234 O 419.108 5.24426 -7.09156 0
M  V30 11235 O 419.648 2.7935 -7.20758 0
M  V30 11236 C 420.588 1.7299 -7.50419 0
M  V30 11237 C 419.858 0.406376 -7.57911 0
M  V30 11238 O 419.648 -0.0897726 -6.21935 0
M  V30 11239 C 418.458 0.447224 -8.1878 0
M  V30 11240 O 418.068 -0.825065 -8.71101 0
M  V30 11241 C 417.578 0.783801 -6.99623 0
M  V30 11242 C 418.288 0.0619192 -5.85967 0
M  V30 11243 N 418.238 0.7859 -4.56281 0
M  V30 11244 H 421.077 1.93423 -8.4679 0
M  V30 11245 H 421.349 1.68181 -6.71046 0
M  V30 11246 H 420.481 -0.289041 -8.15388 0
M  V30 11247 P 416.518 -1.17771 -8.83182 0
M  V30 11248 O 416.298 -2.07206 -9.98732 0
M  V30 11249 O 415.728 0.0743816 -8.81969 0
M  V30 11250 O 416.268 -1.97652 -7.47304 0
M  V30 11251 C 417.208 -3.01055 -7.08599 0
M  V30 11252 C 416.478 -4.12613 -6.37049 0
M  V30 11253 O 416.268 -3.72827 -4.97879 0
M  V30 11254 C 415.078 -4.45719 -6.88164 0
M  V30 11255 O 414.688 -5.7877 -6.5624 0
M  V30 11256 C 414.198 -3.47768 -6.11991 0
M  V30 11257 C 414.908 -3.39356 -4.77615 0
M  V30 11258 N 414.858 -2.04571 -4.15244 0
M  V30 11259 C 414.708 -1.98587 -2.78314 0
M  V30 11260 O 414.618 -2.98134 -2.08835 0
M  V30 11261 N 414.668 -0.714467 -2.24925 0
M  V30 11262 C 414.758 0.470001 -2.94169 0
M  V30 11263 C 414.908 0.312541 -4.36783 0
M  V30 11264 C 414.958 -0.914512 -4.92583 0
M  V30 11265 H 417.699 -3.41169 -7.98575 0
M  V30 11266 H 417.968 -2.58295 -6.41556 0
M  V30 11267 H 417.101 -5.02657 -6.42673 0
M  V30 11268 H 414.446 -4.11637 -4.08885 0
M  V30 11269 H 414.167 -2.49626 -6.61679 0
M  V30 11270 H 413.175 -3.86566 -6.00778 0
M  V30 11271 H 415.009 -4.29943 -7.96918 0
M  V30 11272 H 415.08 -1.00937 -6.00374 0
M  V30 11273 P 413.138 -6.144 -6.45285 0
M  V30 11274 O 412.918 -7.54673 -6.86199 0
M  V30 11275 O 412.348 -5.12391 -7.179 0
M  V30 11276 O 412.888 -5.99158 -4.88404 0
M  V30 11277 C 413.828 -6.60234 -3.96415 0
M  V30 11278 C 413.098 -7.08259 -2.72856 0
M  V30 11279 O 412.888 -5.9427 -1.83651 0
M  V30 11280 C 411.698 -7.64886 -2.9555 0
M  V30 11281 O 411.308 -8.53963 -1.90717 0
M  V30 11282 C 410.818 -6.4116 -2.90739 0
M  V30 11283 C 411.528 -5.55375 -1.86963 0
M  V30 11284 N 411.478 -4.09664 -2.15742 0
M  V30 11285 H 414.317 -7.45574 -4.45629 0
M  V30 11286 H 414.589 -5.86232 -3.67314 0
M  V30 11287 H 413.721 -7.84412 -2.24479 0
M  V30 11288 P 409.758 -8.7635 -1.60911 0
M  V30 11289 O 409.538 -10.1388 -1.11561 0
M  V30 11290 O 408.968 -8.36503 -2.79617 0
M  V30 11291 O 409.508 -7.71806 -0.42951 0
M  V30 11292 C 410.448 -7.66948 0.673514 0
M  V30 11293 C 409.718 -7.33374 1.95559 0
M  V30 11294 O 409.508 -5.88721 2.00726 0
M  V30 11295 C 408.318 -7.92218 2.1125 0
M  V30 11296 O 407.928 -8.02971 3.47653 0
M  V30 11297 C 407.438 -6.89504 1.41631 0
M  V30 11298 C 408.148 -5.59106 1.75155 0
M  V30 11299 N 408.098 -4.58136 0.662409 0
M  V30 11300 C 407.948 -3.26059 1.02863 0
M  V30 11301 O 407.858 -2.90743 2.19009 0
M  V30 11302 N 407.908 -2.35995 -0.0155585 0
M  V30 11303 C 407.998 -2.65248 -1.35603 0
M  V30 11304 O 407.948 -1.75605 -2.20651 0
M  V30 11305 C 408.148 -4.05747 -1.64698 0
M  V30 11306 C 408.258 -4.42345 -3.09553 0
M  V30 11307 C 408.198 -4.96734 -0.652411 0
M  V30 11308 H 410.939 -8.64917 0.776982 0
M  V30 11309 H 411.208 -6.89974 0.474015 0
M  V30 11310 H 410.341 -7.66548 2.79458 0
M  V30 11311 H 407.686 -5.16076 2.65138 0
M  V30 11312 H 407.407 -7.06433 0.329384 0
M  V30 11313 H 406.415 -6.90829 1.81996 0
M  V30 11314 H 408.249 -8.90774 1.62639 0
M  V30 11315 H 408.32 -6.02181 -0.895285 0
M  V30 11316 H 407.29 -4.80252 -3.45468 0
M  V30 11317 H 409.027 -5.20015 -3.22119 0
M  V30 11318 H 408.539 -3.53269 -3.67833 0
M  V30 11319 H 407.803 -1.39558 0.227499 0
M  V30 11320 P 406.378 -8.03563 3.84925 0
M  V30 11321 O 406.158 -8.85821 5.0569 0
M  V30 11322 O 405.588 -8.41101 2.65469 0
M  V30 11323 O 406.128 -6.4965 4.18908 0
M  V30 11324 C 407.068 -5.81037 5.05421 0
M  V30 11325 C 406.338 -4.78366 5.89277 0
M  V30 11326 O 406.128 -3.58302 5.08433 0
M  V30 11327 C 404.938 -5.17448 6.36119 0
M  V30 11328 O 404.548 -4.45271 7.53232 0
M  V30 11329 C 404.058 -4.74639 5.19936 0
M  V30 11330 C 404.768 -3.49432 4.70418 0
M  V30 11331 N 404.718 -3.32099 3.22613 0
M  V30 11332 H 407.557 -6.54213 5.71376 0
M  V30 11333 H 407.829 -5.30936 4.43503 0
M  V30 11334 H 406.961 -4.55889 6.76652 0
M  V30 11335 H 404.306 -2.61715 5.17932 0
M  V30 11336 H 404.026 -5.52155 4.41878 0
M  V30 11337 H 403.035 -4.51981 5.53374 0
M  V30 11338 H 404.869 -6.25124 6.55234 0
M  V30 11339 P 402.998 -4.23843 7.83734 0
M  V30 11340 O 402.778 -4.19407 9.29784 0
M  V30 11341 O 402.208 -5.24426 7.09156 0
M  V30 11342 O 402.748 -2.7935 7.20758 0
M  V30 11343 C 403.688 -1.7299 7.50419 0
M  V30 11344 C 402.958 -0.406376 7.57911 0
M  V30 11345 O 402.748 0.0897726 6.21935 0
M  V30 11346 C 401.558 -0.447224 8.1878 0
M  V30 11347 O 401.168 0.825065 8.71101 0
M  V30 11348 C 400.678 -0.783801 6.99623 0
M  V30 11349 C 401.388 -0.0619192 5.85967 0
M  V30 11350 N 401.338 -0.790462 4.56202 0
M  V30 11351 H 404.177 -1.93423 8.4679 0
M  V30 11352 H 404.449 -1.68852 6.70877 0
M  V30 11353 H 403.581 0.289041 8.15388 0
M  V30 11354 H 400.926 0.927006 5.72848 0
M  V30 11355 H 400.646 -1.86973 6.82036 0
M  V30 11356 H 399.655 -0.403953 7.13357 0
M  V30 11357 H 401.489 -1.20599 8.97534 0
M  V30 11358 P 399.618 1.17771 8.83182 0
M  V30 11359 O 399.398 2.07206 9.98732 0
M  V30 11360 O 398.828 -0.0743816 8.81969 0
M  V30 11361 O 399.368 1.97652 7.47304 0
M  V30 11362 C 400.308 3.01133 7.08783 0
M  V30 11363 C 399.578 4.12613 6.37049 0
M  V30 11364 O 399.368 3.72827 4.97879 0
M  V30 11365 C 398.178 4.45085 6.88694 0
M  V30 11366 O 397.788 5.7877 6.5624 0
M  V30 11367 C 397.298 3.47817 6.12078 0
M  V30 11368 C 398.008 3.39414 4.77697 0
M  V30 11369 N 397.958 2.04615 4.15333 0
M  V30 11370 H 400.797 3.41248 7.98759 0
M  V30 11371 H 401.069 2.5837 6.41742 0
M  V30 11372 H 400.201 5.02657 6.42673 0
M  V30 11373 P 396.238 6.144 6.45285 0
M  V30 11374 O 396.018 7.54673 6.86199 0
M  V30 11375 O 395.448 5.12391 7.179 0
M  V30 11376 O 395.988 5.99158 4.88404 0
M  V30 11377 C 396.928 6.60234 3.96415 0
M  V30 11378 C 396.198 7.08259 2.72856 0
M  V30 11379 O 395.988 5.9427 1.83651 0
M  V30 11380 C 394.798 7.64886 2.9555 0
M  V30 11381 O 394.408 8.53963 1.90717 0
M  V30 11382 C 393.918 6.4116 2.90739 0
M  V30 11383 C 394.628 5.55375 1.86963 0
M  V30 11384 N 394.578 4.09664 2.15742 0
M  V30 11385 H 397.417 7.45574 4.45629 0
M  V30 11386 H 397.689 5.86232 3.67314 0
M  V30 11387 H 396.821 7.84412 2.24479 0
M  V30 11388 P 392.858 8.7635 1.60911 0
M  V30 11389 O 392.638 10.1388 1.11561 0
M  V30 11390 O 392.068 8.36503 2.79617 0
M  V30 11391 O 392.608 7.71806 0.42951 0
M  V30 11392 C 393.548 7.67148 -0.673689 0
M  V30 11393 C 392.818 7.33374 -1.95559 0
M  V30 11394 O 392.608 5.88721 -2.00726 0
M  V30 11395 C 391.418 7.92526 -2.10483 0
M  V30 11396 O 391.028 8.02971 -3.47653 0
M  V30 11397 C 390.538 6.89602 -1.41652 0
M  V30 11398 C 391.248 5.59201 -1.75185 0
M  V30 11399 N 391.198 4.58235 -0.662552 0
M  V30 11400 H 394.037 8.65116 -0.777161 0
M  V30 11401 H 394.309 6.90173 -0.474152 0
M  V30 11402 H 393.441 7.66548 -2.79458 0
M  V30 11403 P 389.478 8.03563 -3.84925 0
M  V30 11404 O 389.258 8.85821 -5.0569 0
M  V30 11405 O 388.688 8.41101 -2.65469 0
M  V30 11406 O 389.228 6.4965 -4.18908 0
M  V30 11407 C 390.168 5.81037 -5.05421 0
M  V30 11408 C 389.438 4.78366 -5.89277 0
M  V30 11409 O 389.228 3.58302 -5.08433 0
M  V30 11410 C 388.038 5.17448 -6.36119 0
M  V30 11411 O 387.648 4.45271 -7.53232 0
M  V30 11412 C 387.158 4.74639 -5.19936 0
M  V30 11413 C 387.868 3.49432 -4.70418 0
M  V30 11414 N 387.818 3.31776 -3.22945 0
M  V30 11415 H 390.657 6.54213 -5.71376 0
M  V30 11416 H 390.929 5.30492 -4.44033 0
M  V30 11417 H 390.061 4.55889 -6.76652 0
M  V30 11418 P 386.098 4.23843 -7.83734 0
M  V30 11419 O 385.878 4.19407 -9.29784 0
M  V30 11420 O 385.308 5.24426 -7.09156 0
M  V30 11421 O 385.848 2.7935 -7.20758 0
M  V30 11422 C 386.788 1.72945 -7.50224 0
M  V30 11423 C 386.058 0.406376 -7.57911 0
M  V30 11424 O 385.848 -0.0897726 -6.21935 0
M  V30 11425 C 384.658 0.438983 -8.18724 0
M  V30 11426 O 384.268 -0.825065 -8.71101 0
M  V30 11427 C 383.778 0.783689 -6.99524 0
M  V30 11428 C 384.488 0.0619086 -5.85867 0
M  V30 11429 N 384.438 0.78573 -4.56183 0
M  V30 11430 C 384.288 0.0292889 -3.41887 0
M  V30 11431 O 384.198 -1.18445 -3.4419 0
M  V30 11432 N 384.248 0.744061 -2.23964 0
M  V30 11433 C 384.338 2.10932 -2.10362 0
M  V30 11434 C 384.488 2.8202 -3.34994 0
M  V30 11435 C 384.538 2.15547 -4.52261 0
M  V30 11436 H 387.279 1.93379 -8.46595 0
M  V30 11437 H 387.548 1.68132 -6.70852 0
M  V30 11438 H 386.681 -0.289041 -8.15388 0
M  V30 11439 H 384.026 -0.926847 -5.72749 0
M  V30 11440 H 383.747 1.86973 -6.82036 0
M  V30 11441 H 382.755 0.403896 -7.13257 0
M  V30 11442 H 384.589 1.20585 -8.97435 0
M  V30 11443 H 384.66 2.71231 -5.45042 0
M  V30 11444 P 382.718 -1.17771 -8.83182 0
M  V30 11445 O 382.498 -2.07206 -9.98732 0
M  V30 11446 O 381.928 0.0743816 -8.81969 0
M  V30 11447 O 382.468 -1.97652 -7.47304 0
M  V30 11448 C 383.408 -3.01055 -7.08599 0
M  V30 11449 C 382.678 -4.12613 -6.37049 0
M  V30 11450 O 382.468 -3.72827 -4.97879 0
M  V30 11451 C 381.278 -4.45719 -6.88164 0
M  V30 11452 O 380.888 -5.7877 -6.5624 0
M  V30 11453 C 380.398 -3.47768 -6.11991 0
M  V30 11454 C 381.108 -3.39356 -4.77615 0
M  V30 11455 N 381.058 -2.04571 -4.15244 0
M  V30 11456 C 380.908 -1.98587 -2.78314 0
M  V30 11457 O 380.818 -2.98134 -2.08835 0
M  V30 11458 N 380.868 -0.714467 -2.24925 0
M  V30 11459 C 380.958 0.470001 -2.94169 0
M  V30 11460 C 381.108 0.312541 -4.36783 0
M  V30 11461 C 381.158 -0.914512 -4.92583 0
M  V30 11462 H 383.899 -3.41169 -7.98575 0
M  V30 11463 H 384.168 -2.58295 -6.41556 0
M  V30 11464 H 383.301 -5.02657 -6.42673 0
M  V30 11465 H 380.646 -4.11637 -4.08885 0
M  V30 11466 H 380.367 -2.49626 -6.61679 0
M  V30 11467 H 379.375 -3.86566 -6.00778 0
M  V30 11468 H 381.209 -4.29943 -7.96918 0
M  V30 11469 H 381.28 -1.00937 -6.00374 0
M  V30 11470 P 379.338 -6.144 -6.45285 0
M  V30 11471 O 379.118 -7.54673 -6.86199 0
M  V30 11472 O 378.548 -5.12391 -7.179 0
M  V30 11473 O 379.088 -5.99158 -4.88404 0
M  V30 11474 C 380.028 -6.60234 -3.96415 0
M  V30 11475 C 379.298 -7.08259 -2.72856 0
M  V30 11476 O 379.088 -5.9427 -1.83651 0
M  V30 11477 C 377.898 -7.64886 -2.9555 0
M  V30 11478 O 377.508 -8.53963 -1.90717 0
M  V30 11479 C 377.018 -6.4116 -2.90739 0
M  V30 11480 C 377.728 -5.55375 -1.86963 0
M  V30 11481 N 377.678 -4.09664 -2.15742 0
M  V30 11482 H 380.517 -7.45574 -4.45629 0
M  V30 11483 H 380.789 -5.86232 -3.67314 0
M  V30 11484 H 379.921 -7.84412 -2.24479 0
M  V30 11485 P 375.958 -8.7635 -1.60911 0
M  V30 11486 O 375.738 -10.1388 -1.11561 0
M  V30 11487 O 375.168 -8.36503 -2.79617 0
M  V30 11488 O 375.708 -7.71806 -0.42951 0
M  V30 11489 C 376.648 -7.67148 0.673689 0
M  V30 11490 C 375.918 -7.33374 1.95559 0
M  V30 11491 O 375.708 -5.88721 2.00726 0
M  V30 11492 C 374.518 -7.92526 2.10483 0
M  V30 11493 O 374.128 -8.02971 3.47653 0
M  V30 11494 C 373.638 -6.89602 1.41652 0
M  V30 11495 C 374.348 -5.59201 1.75185 0
M  V30 11496 N 374.298 -4.58301 0.657969 0
M  V30 11497 C 374.378 -4.79019 -0.692603 0
M  V30 11498 N 374.308 -3.69736 -1.38998 0
M  V30 11499 C 374.158 -2.70474 -0.438135 0
M  V30 11500 C 374.028 -1.30327 -0.538142 0
M  V30 11501 N 374.018 -0.64304 -1.69192 0
M  V30 11502 N 373.908 -0.611027 0.605183 0
M  V30 11503 C 373.918 -1.27002 1.75953 0
M  V30 11504 N 374.038 -2.56038 1.98546 0
M  V30 11505 C 374.158 -3.22681 0.822541 0
M  V30 11506 H 377.137 -8.65116 0.777161 0
M  V30 11507 H 377.409 -6.9022 0.46725 0
M  V30 11508 H 376.541 -7.66548 2.79458 0
M  V30 11509 H 373.886 -5.16165 2.65183 0
M  V30 11510 H 373.606 -7.06433 0.329384 0
M  V30 11511 H 372.615 -6.90926 1.82021 0
M  V30 11512 H 374.449 -8.90873 1.62657 0
M  V30 11513 H 374.49 -5.77785 -1.13874 0
M  V30 11514 H 374.109 -1.15585 -2.57991 0
M  V30 11515 H 373.92 0.382989 -1.69835 0
M  V30 11516 H 373.812 -0.653331 2.64449 0
M  V30 11517 P 372.578 -8.03563 3.84925 0
M  V30 11518 O 372.358 -8.85821 5.0569 0
M  V30 11519 O 371.788 -8.41101 2.65469 0
M  V30 11520 O 372.328 -6.4965 4.18908 0
M  V30 11521 C 373.268 -5.81037 5.05421 0
M  V30 11522 C 372.538 -4.78366 5.89277 0
M  V30 11523 O 372.328 -3.58302 5.08433 0
M  V30 11524 C 371.138 -5.17448 6.36119 0
M  V30 11525 O 370.748 -4.45271 7.53232 0
M  V30 11526 C 370.258 -4.74639 5.19936 0
M  V30 11527 C 370.968 -3.49432 4.70418 0
M  V30 11528 N 370.918 -3.32099 3.22613 0
M  V30 11529 C 370.998 -4.28245 2.25527 0
M  V30 11530 N 370.928 -3.80823 1.04874 0
M  V30 11531 C 370.778 -2.44571 1.23535 0
M  V30 11532 C 370.648 -1.37068 0.330675 0
M  V30 11533 N 370.638 -1.51472 -0.990824 0
M  V30 11534 N 370.528 -0.138614 0.848756 0
M  V30 11535 C 370.538 0.00675923 2.16999 0
M  V30 11536 N 370.658 -0.904372 3.11122 0
M  V30 11537 C 370.778 -2.12707 2.56212 0
M  V30 11538 H 373.757 -6.54213 5.71376 0
M  V30 11539 H 374.029 -5.30936 4.43503 0
M  V30 11540 H 373.161 -4.55889 6.76652 0
M  V30 11541 H 370.506 -2.61715 5.17932 0
M  V30 11542 H 370.226 -5.52155 4.41878 0
M  V30 11543 H 369.235 -4.51981 5.53374 0
M  V30 11544 H 371.069 -6.25124 6.55234 0
M  V30 11545 H 371.11 -5.34372 2.47488 0
M  V30 11546 H 370.729 -2.45153 -1.4078 0
M  V30 11547 H 370.54 -0.688422 -1.59911 0
M  V30 11548 H 370.432 1.02584 2.52346 0
M  V30 11549 P 369.198 -4.23843 7.83734 0
M  V30 11550 O 368.978 -4.19407 9.29784 0
M  V30 11551 O 368.408 -5.24426 7.09156 0
M  V30 11552 O 368.948 -2.7935 7.20758 0
M  V30 11553 C 369.888 -1.7299 7.50419 0
M  V30 11554 C 369.158 -0.406376 7.57911 0
M  V30 11555 O 368.948 0.0897726 6.21935 0
M  V30 11556 C 367.758 -0.447224 8.1878 0
M  V30 11557 O 367.368 0.825065 8.71101 0
M  V30 11558 C 366.878 -0.783801 6.99623 0
M  V30 11559 C 367.588 -0.0619192 5.85967 0
M  V30 11560 N 367.538 -0.7859 4.56281 0
M  V30 11561 H 370.377 -1.93423 8.4679 0
M  V30 11562 H 370.649 -1.68181 6.71046 0
M  V30 11563 H 369.781 0.289041 8.15388 0
M  V30 11564 P 365.818 1.17771 8.83182 0
M  V30 11565 O 365.598 2.07206 9.98732 0
M  V30 11566 O 365.028 -0.0743816 8.81969 0
M  V30 11567 O 365.568 1.97652 7.47304 0
M  V30 11568 C 366.508 3.01133 7.08783 0
M  V30 11569 C 365.778 4.12613 6.37049 0
M  V30 11570 O 365.568 3.72827 4.97879 0
M  V30 11571 C 364.378 4.45085 6.88694 0
M  V30 11572 O 363.988 5.7877 6.5624 0
M  V30 11573 C 363.498 3.47817 6.12078 0
M  V30 11574 C 364.208 3.39414 4.77697 0
M  V30 11575 N 364.158 2.04199 4.15538 0
M  V30 11576 H 366.997 3.41248 7.98759 0
M  V30 11577 H 367.269 2.57728 6.42 0
M  V30 11578 H 366.401 5.02657 6.42673 0
M  V30 11579 H 363.746 4.11708 4.08956 0
M  V30 11580 H 363.466 2.49626 6.61679 0
M  V30 11581 H 362.475 3.8662 6.00862 0
M  V30 11582 H 364.309 4.29991 7.97006 0
M  V30 11583 P 362.438 6.144 6.45285 0
M  V30 11584 O 362.218 7.54673 6.86199 0
M  V30 11585 O 361.648 5.12391 7.179 0
M  V30 11586 O 362.188 5.99158 4.88404 0
M  V30 11587 C 363.128 6.60234 3.96415 0
M  V30 11588 C 362.398 7.08259 2.72856 0
M  V30 11589 O 362.188 5.9427 1.83651 0
M  V30 11590 C 360.998 7.64886 2.9555 0
M  V30 11591 O 360.608 8.53963 1.90717 0
M  V30 11592 C 360.118 6.4116 2.90739 0
M  V30 11593 C 360.828 5.55375 1.86963 0
M  V30 11594 N 360.778 4.09664 2.15742 0
M  V30 11595 H 363.617 7.45574 4.45629 0
M  V30 11596 H 363.889 5.86232 3.67314 0
M  V30 11597 H 363.021 7.84412 2.24479 0
M  V30 11598 P 359.058 8.7635 1.60911 0
M  V30 11599 O 358.838 10.1388 1.11561 0
M  V30 11600 O 358.268 8.36503 2.79617 0
M  V30 11601 O 358.808 7.71806 0.42951 0
M  V30 11602 C 359.748 7.67148 -0.673689 0
M  V30 11603 C 359.018 7.33374 -1.95559 0
M  V30 11604 O 358.808 5.88721 -2.00726 0
M  V30 11605 C 357.618 7.92526 -2.10483 0
M  V30 11606 O 357.228 8.02971 -3.47653 0
M  V30 11607 C 356.738 6.89602 -1.41652 0
M  V30 11608 C 357.448 5.59201 -1.75185 0
M  V30 11609 N 357.398 4.58235 -0.662552 0
M  V30 11610 H 360.237 8.65116 -0.777161 0
M  V30 11611 H 360.509 6.90173 -0.474152 0
M  V30 11612 H 359.641 7.66548 -2.79458 0
M  V30 11613 P 355.678 8.03563 -3.84925 0
M  V30 11614 O 355.458 8.85821 -5.0569 0
M  V30 11615 O 354.888 8.41101 -2.65469 0
M  V30 11616 O 355.428 6.4965 -4.18908 0
M  V30 11617 C 356.368 5.80886 -5.05289 0
M  V30 11618 C 355.638 4.78366 -5.89277 0
M  V30 11619 O 355.428 3.58302 -5.08433 0
M  V30 11620 C 354.238 5.16748 -6.36559 0
M  V30 11621 O 353.848 4.45271 -7.53232 0
M  V30 11622 C 353.358 4.74572 -5.19863 0
M  V30 11623 C 354.068 3.49373 -4.70338 0
M  V30 11624 N 354.018 3.31704 -3.22876 0
M  V30 11625 C 353.868 2.03326 -2.74871 0
M  V30 11626 O 353.778 1.06486 -3.48076 0
M  V30 11627 N 353.828 1.91838 -1.37456 0
M  V30 11628 C 353.918 2.94295 -0.462035 0
M  V30 11629 O 353.868 2.71763 0.752928 0
M  V30 11630 C 354.068 4.25064 -1.05249 0
M  V30 11631 C 354.178 5.39815 -0.095697 0
M  V30 11632 C 354.118 4.40214 -2.39192 0
M  V30 11633 H 356.859 6.54063 -5.71245 0
M  V30 11634 H 357.128 5.30339 -4.43905 0
M  V30 11635 H 356.261 4.55889 -6.76652 0
M  V30 11636 H 353.606 2.6167 -5.17842 0
M  V30 11637 H 353.327 5.52155 -4.41878 0
M  V30 11638 H 352.335 4.51918 -5.53297 0
M  V30 11639 H 354.169 6.25055 -6.55162 0
M  V30 11640 H 354.24 5.39798 -2.81523 0
M  V30 11641 H 353.21 5.91593 -0.0279582 0
M  V30 11642 H 354.947 6.10038 -0.450573 0
M  V30 11643 H 354.459 5.02007 0.89937 0
M  V30 11644 H 353.723 0.995326 -1.00435 0
M  V30 11645 P 352.298 4.23843 -7.83734 0
M  V30 11646 O 352.078 4.19407 -9.29784 0
M  V30 11647 O 351.508 5.24426 -7.09156 0
M  V30 11648 O 352.048 2.7935 -7.20758 0
M  V30 11649 C 352.988 1.7299 -7.50419 0
M  V30 11650 C 352.258 0.406376 -7.57911 0
M  V30 11651 O 352.048 -0.0897726 -6.21935 0
M  V30 11652 C 350.858 0.447224 -8.1878 0
M  V30 11653 O 350.468 -0.825065 -8.71101 0
M  V30 11654 C 349.978 0.783801 -6.99623 0
M  V30 11655 C 350.688 0.0619192 -5.85967 0
M  V30 11656 N 350.638 0.790462 -4.56202 0
M  V30 11657 H 353.477 1.93423 -8.4679 0
M  V30 11658 H 353.749 1.68852 -6.70877 0
M  V30 11659 H 352.881 -0.289041 -8.15388 0
M  V30 11660 H 350.226 -0.927006 -5.72848 0
M  V30 11661 H 349.946 1.86973 -6.82036 0
M  V30 11662 H 348.955 0.403953 -7.13357 0
M  V30 11663 H 350.789 1.20599 -8.97534 0
M  V30 11664 P 348.918 -1.17771 -8.83182 0
M  V30 11665 O 348.698 -2.07206 -9.98732 0
M  V30 11666 O 348.128 0.0743816 -8.81969 0
M  V30 11667 O 348.668 -1.97652 -7.47304 0
M  V30 11668 C 349.608 -3.01133 -7.08783 0
M  V30 11669 C 348.878 -4.12613 -6.37049 0
M  V30 11670 O 348.668 -3.72827 -4.97879 0
M  V30 11671 C 347.478 -4.45085 -6.88694 0
M  V30 11672 O 347.088 -5.7877 -6.5624 0
M  V30 11673 C 346.598 -3.47817 -6.12078 0
M  V30 11674 C 347.308 -3.39414 -4.77697 0
M  V30 11675 N 347.258 -2.04199 -4.15538 0
M  V30 11676 C 347.338 -0.821545 -4.76977 0
M  V30 11677 N 347.268 0.1794 -3.94592 0
M  V30 11678 C 347.118 -0.419121 -2.70776 0
M  V30 11679 C 346.988 0.109072 -1.40577 0
M  V30 11680 N 346.978 1.4104 -1.1344 0
M  V30 11681 N 346.868 -0.764381 -0.39411 0
M  V30 11682 C 346.878 -2.06587 -0.664135 0
M  V30 11683 N 346.998 -2.67948 -1.82153 0
M  V30 11684 C 347.118 -1.77942 -2.8147 0
M  V30 11685 H 350.097 -3.41248 -7.98759 0
M  V30 11686 H 350.369 -2.57728 -6.42 0
M  V30 11687 H 349.501 -5.02657 -6.42673 0
M  V30 11688 H 346.846 -4.11708 -4.08956 0
M  V30 11689 H 346.566 -2.49626 -6.61679 0
M  V30 11690 H 345.575 -3.8662 -6.00862 0
M  V30 11691 H 347.409 -4.29991 -7.97006 0
M  V30 11692 H 347.45 -0.702451 -5.84696 0
M  V30 11693 H 347.069 2.09647 -1.89651 0
M  V30 11694 H 346.88 1.73358 -0.160575 0
M  V30 11695 H 346.772 -2.71695 0.195838 0
M  V30 11696 P 345.538 -6.144 -6.45285 0
M  V30 11697 O 345.318 -7.54673 -6.86199 0
M  V30 11698 O 344.748 -5.12391 -7.179 0
M  V30 11699 O 345.288 -5.99158 -4.88404 0
M  V30 11700 C 346.228 -6.60062 -3.96313 0
M  V30 11701 C 345.498 -7.08259 -2.72856 0
M  V30 11702 O 345.288 -5.9427 -1.83651 0
M  V30 11703 C 344.098 -7.65087 -2.94749 0
M  V30 11704 O 343.708 -8.53963 -1.90717 0
M  V30 11705 C 343.218 -6.41069 -2.90698 0
M  V30 11706 C 343.928 -5.5528 -1.86931 0
M  V30 11707 N 343.878 -4.09575 -2.15696 0
M  V30 11708 C 343.728 -3.24249 -1.08435 0
M  V30 11709 O 343.638 -3.63946 0.0628747 0
M  V30 11710 N 343.688 -1.90009 -1.39973 0
M  V30 11711 C 343.778 -1.34884 -2.65614 0
M  V30 11712 O 343.728 -0.123716 -2.81728 0
M  V30 11713 C 343.928 -2.3145 -3.71736 0
M  V30 11714 C 344.038 -1.75913 -5.10438 0
M  V30 11715 C 343.978 -3.63518 -3.44754 0
M  V30 11716 H 346.719 -7.45402 -4.45526 0
M  V30 11717 H 346.988 -5.86062 -3.67208 0
M  V30 11718 H 346.121 -7.84412 -2.24479 0
M  V30 11719 H 343.466 -5.73358 -0.888409 0
M  V30 11720 H 343.187 -5.90877 -3.88583 0
M  V30 11721 H 342.195 -6.65867 -2.58821 0
M  V30 11722 H 344.029 -8.16248 -3.92006 0
M  V30 11723 H 344.1 -4.34551 -4.26383 0
M  V30 11724 H 343.07 -1.85471 -5.61775 0
M  V30 11725 H 344.807 -2.31364 -5.66257 0
M  V30 11726 H 344.319 -0.695936 -5.05229 0
M  V30 11727 H 343.583 -1.26277 -0.63625 0
M  V30 11728 P 342.158 -8.7635 -1.60911 0
M  V30 11729 O 341.938 -10.1388 -1.11561 0
M  V30 11730 O 341.368 -8.36503 -2.79617 0
M  V30 11731 O 341.908 -7.71806 -0.42951 0
M  V30 11732 C 342.848 -7.66948 0.673514 0
M  V30 11733 C 342.118 -7.33374 1.95559 0
M  V30 11734 O 341.908 -5.88721 2.00726 0
M  V30 11735 C 340.718 -7.92218 2.1125 0
M  V30 11736 O 340.328 -8.02971 3.47653 0
M  V30 11737 C 339.838 -6.89504 1.41631 0
M  V30 11738 C 340.548 -5.59106 1.75155 0
M  V30 11739 N 340.498 -4.58136 0.662409 0
M  V30 11740 C 340.348 -3.26059 1.02863 0
M  V30 11741 O 340.258 -2.90743 2.19009 0
M  V30 11742 N 340.308 -2.35995 -0.0155585 0
M  V30 11743 C 340.398 -2.65248 -1.35603 0
M  V30 11744 O 340.348 -1.75605 -2.20651 0
M  V30 11745 C 340.548 -4.05747 -1.64698 0
M  V30 11746 C 340.658 -4.42345 -3.09553 0
M  V30 11747 C 340.598 -4.96734 -0.652411 0
M  V30 11748 H 343.339 -8.64917 0.776982 0
M  V30 11749 H 343.608 -6.89974 0.474015 0
M  V30 11750 H 342.741 -7.66548 2.79458 0
M  V30 11751 H 340.086 -5.16076 2.65138 0
M  V30 11752 H 339.807 -7.06433 0.329384 0
M  V30 11753 H 338.815 -6.90829 1.81996 0
M  V30 11754 H 340.649 -8.90774 1.62639 0
M  V30 11755 H 340.72 -6.02181 -0.895285 0
M  V30 11756 H 339.69 -4.80252 -3.45468 0
M  V30 11757 H 341.427 -5.20015 -3.22119 0
M  V30 11758 H 340.939 -3.53269 -3.67833 0
M  V30 11759 H 340.203 -1.39558 0.227499 0
M  V30 11760 P 338.778 -8.03563 3.84925 0
M  V30 11761 O 338.558 -8.85821 5.0569 0
M  V30 11762 O 337.988 -8.41101 2.65469 0
M  V30 11763 O 338.528 -6.4965 4.18908 0
M  V30 11764 C 339.468 -5.81037 5.05421 0
M  V30 11765 C 338.738 -4.78366 5.89277 0
M  V30 11766 O 338.528 -3.58302 5.08433 0
M  V30 11767 C 337.338 -5.17448 6.36119 0
M  V30 11768 O 336.948 -4.45271 7.53232 0
M  V30 11769 C 336.458 -4.74639 5.19936 0
M  V30 11770 C 337.168 -3.49432 4.70418 0
M  V30 11771 N 337.118 -3.31776 3.22945 0
M  V30 11772 H 339.957 -6.54213 5.71376 0
M  V30 11773 H 340.229 -5.30492 4.44033 0
M  V30 11774 H 339.361 -4.55889 6.76652 0
M  V30 11775 P 335.398 -4.23843 7.83734 0
M  V30 11776 O 335.178 -4.19407 9.29784 0
M  V30 11777 O 334.608 -5.24426 7.09156 0
M  V30 11778 O 335.148 -2.7935 7.20758 0
M  V30 11779 C 336.088 -1.7299 7.50419 0
M  V30 11780 C 335.358 -0.406376 7.57911 0
M  V30 11781 O 335.148 0.0897726 6.21935 0
M  V30 11782 C 333.958 -0.447224 8.1878 0
M  V30 11783 O 333.568 0.825065 8.71101 0
M  V30 11784 C 333.078 -0.783801 6.99623 0
M  V30 11785 C 333.788 -0.0619192 5.85967 0
M  V30 11786 N 333.738 -0.790462 4.56202 0
M  V30 11787 H 336.577 -1.93423 8.4679 0
M  V30 11788 H 336.849 -1.68852 6.70877 0
M  V30 11789 H 335.981 0.289041 8.15388 0
M  V30 11790 H 333.326 0.927006 5.72848 0
M  V30 11791 H 333.046 -1.86973 6.82036 0
M  V30 11792 H 332.055 -0.403953 7.13357 0
M  V30 11793 H 333.889 -1.20599 8.97534 0
M  V30 11794 P 332.018 1.17771 8.83182 0
M  V30 11795 O 331.798 2.07206 9.98732 0
M  V30 11796 O 331.228 -0.0743816 8.81969 0
M  V30 11797 O 331.768 1.97652 7.47304 0
M  V30 11798 C 332.708 3.01133 7.08783 0
M  V30 11799 C 331.978 4.12613 6.37049 0
M  V30 11800 O 331.768 3.72827 4.97879 0
M  V30 11801 C 330.578 4.45085 6.88694 0
M  V30 11802 O 330.188 5.7877 6.5624 0
M  V30 11803 C 329.698 3.47817 6.12078 0
M  V30 11804 C 330.408 3.39414 4.77697 0
M  V30 11805 N 330.358 2.04615 4.15333 0
M  V30 11806 H 333.197 3.41248 7.98759 0
M  V30 11807 H 333.469 2.5837 6.41742 0
M  V30 11808 H 332.601 5.02657 6.42673 0
M  V30 11809 P 328.638 6.144 6.45285 0
M  V30 11810 O 328.418 7.54673 6.86199 0
M  V30 11811 O 327.848 5.12391 7.179 0
M  V30 11812 O 328.388 5.99236 4.88467 0
M  V30 11813 C 329.328 6.60234 3.96415 0
M  V30 11814 C 328.598 7.08079 2.736 0
M  V30 11815 O 328.388 5.94365 1.8368 0
M  V30 11816 C 327.198 7.64886 2.9555 0
M  V30 11817 O 326.808 8.5406 1.90739 0
M  V30 11818 C 326.318 6.4116 2.90739 0
M  V30 11819 C 327.028 5.55375 1.86963 0
M  V30 11820 N 326.978 4.09664 2.15742 0
M  V30 11821 C 326.828 3.22231 1.08477 0
M  V30 11822 O 326.738 3.68951 -0.0600489 0
M  V30 11823 N 326.778 1.76692 1.48799 0
M  V30 11824 C 326.878 1.41695 2.57602 0
M  V30 11825 N 326.828 0.107296 2.75791 0
M  V30 11826 C 327.028 2.29178 3.69733 0
M  V30 11827 C 327.078 3.62753 3.42653 0
M  V30 11828 H 329.818 7.45488 4.45578 0
M  V30 11829 H 330.088 5.86232 3.67314 0
M  V30 11830 H 329.221 7.84508 2.24507 0
M  V30 11831 H 326.566 5.73556 0.888715 0
M  V30 11832 H 326.286 5.9096 3.88638 0
M  V30 11833 H 325.295 6.66053 2.58894 0
M  V30 11834 H 327.129 8.16339 3.92049 0
M  V30 11835 H 327.201 4.33052 4.24913 0
M  V30 11836 H 327.099 1.9103 4.71577 0
M  V30 11837 H 326.711 -0.521221 1.95056 0
M  V30 11838 H 326.907 -0.286429 3.70695 0
M  V30 11839 P 325.258 8.7635 1.60911 0
M  V30 11840 O 325.038 10.1388 1.11561 0
M  V30 11841 O 324.468 8.36503 2.79617 0
M  V30 11842 O 325.008 7.71906 0.429565 0
M  V30 11843 C 325.948 7.67148 -0.673689 0
M  V30 11844 C 325.218 7.33666 -1.94851 0
M  V30 11845 O 325.008 5.88816 -2.00759 0
M  V30 11846 C 323.818 7.92526 -2.10483 0
M  V30 11847 O 323.428 8.03063 -3.47693 0
M  V30 11848 C 322.938 6.89602 -1.41652 0
M  V30 11849 C 323.648 5.59201 -1.75185 0
M  V30 11850 N 323.598 4.58235 -0.662552 0
M  V30 11851 C 323.448 3.24451 -1.01643 0
M  V30 11852 O 323.358 2.94958 -2.21722 0
M  V30 11853 N 323.398 2.30408 0.165238 0
M  V30 11854 C 323.498 2.66048 1.25118 0
M  V30 11855 N 323.448 1.70787 2.16813 0
M  V30 11856 C 323.648 4.02732 1.64413 0
M  V30 11857 C 323.698 4.9488 0.63991 0
M  V30 11858 H 326.438 8.65017 -0.777072 0
M  V30 11859 H 326.708 6.90173 -0.474152 0
M  V30 11860 H 325.841 7.66642 -2.79492 0
M  V30 11861 H 323.186 5.16254 -2.65229 0
M  V30 11862 H 322.906 7.06532 -0.329431 0
M  V30 11863 H 321.915 6.91023 -1.82047 0
M  V30 11864 H 323.749 8.90873 -1.62657 0
M  V30 11865 H 323.821 6.00104 0.892197 0
M  V30 11866 H 323.719 4.31733 2.69229 0
M  V30 11867 H 323.331 0.724835 1.8844 0
M  V30 11868 H 323.527 1.94716 3.16734 0
M  V30 11869 P 321.878 8.03563 -3.84925 0
M  V30 11870 O 321.658 8.85821 -5.0569 0
M  V30 11871 O 321.088 8.41101 -2.65469 0
M  V30 11872 O 321.628 6.4965 -4.18908 0
M  V30 11873 C 322.568 5.81037 -5.05421 0
M  V30 11874 C 321.838 4.78366 -5.89277 0
M  V30 11875 O 321.628 3.58302 -5.08433 0
M  V30 11876 C 320.438 5.17448 -6.36119 0
M  V30 11877 O 320.048 4.45271 -7.53232 0
M  V30 11878 C 319.558 4.74639 -5.19936 0
M  V30 11879 C 320.268 3.49432 -4.70418 0
M  V30 11880 N 320.218 3.31776 -3.22945 0
M  V30 11881 H 323.057 6.54213 -5.71376 0
M  V30 11882 H 323.329 5.30492 -4.44033 0
M  V30 11883 H 322.461 4.55889 -6.76652 0
M  V30 11884 P 318.498 4.23843 -7.83734 0
M  V30 11885 O 318.278 4.19407 -9.29784 0
M  V30 11886 O 317.708 5.24426 -7.09156 0
M  V30 11887 O 318.248 2.7935 -7.20758 0
M  V30 11888 C 319.188 1.7299 -7.50419 0
M  V30 11889 C 318.458 0.406376 -7.57911 0
M  V30 11890 O 318.248 -0.0897726 -6.21935 0
M  V30 11891 C 317.058 0.447224 -8.1878 0
M  V30 11892 O 316.668 -0.825065 -8.71101 0
M  V30 11893 C 316.178 0.783801 -6.99623 0
M  V30 11894 C 316.888 0.0619192 -5.85967 0
M  V30 11895 N 316.838 0.790462 -4.56202 0
M  V30 11896 C 316.918 2.13895 -4.34171 0
M  V30 11897 N 316.848 2.46449 -3.08687 0
M  V30 11898 C 316.698 1.2525 -2.43697 0
M  V30 11899 C 316.568 0.914535 -1.07318 0
M  V30 11900 N 316.558 1.80782 -0.0887348 0
M  V30 11901 N 316.448 -0.386745 -0.768133 0
M  V30 11902 C 316.458 -1.28096 -1.75159 0
M  V30 11903 N 316.578 -1.09708 -3.04861 0
M  V30 11904 C 316.698 0.214857 -3.32306 0
M  V30 11905 H 319.677 1.93423 -8.4679 0
M  V30 11906 H 319.949 1.68852 -6.70877 0
M  V30 11907 H 319.081 -0.289041 -8.15388 0
M  V30 11908 H 316.426 -0.927006 -5.72848 0
M  V30 11909 H 316.146 1.86973 -6.82036 0
M  V30 11910 H 315.155 0.403953 -7.13357 0
M  V30 11911 H 316.989 1.20599 -8.97534 0
M  V30 11912 H 317.03 2.86846 -5.14318 0
M  V30 11913 H 316.649 2.81082 -0.302037 0
M  V30 11914 H 316.46 1.49688 0.889064 0
M  V30 11915 H 316.352 -2.31317 -1.43855 0
M  V30 11916 P 315.118 -1.17771 -8.83182 0
M  V30 11917 O 314.898 -2.07206 -9.98732 0
M  V30 11918 O 314.328 0.0743816 -8.81969 0
M  V30 11919 O 314.868 -1.97652 -7.47304 0
M  V30 11920 C 315.808 -3.01133 -7.08783 0
M  V30 11921 C 315.078 -4.12613 -6.37049 0
M  V30 11922 O 314.868 -3.72827 -4.97879 0
M  V30 11923 C 313.678 -4.45085 -6.88694 0
M  V30 11924 O 313.288 -5.7877 -6.5624 0
M  V30 11925 C 312.798 -3.47817 -6.12078 0
M  V30 11926 C 313.508 -3.39414 -4.77697 0
M  V30 11927 N 313.458 -2.04615 -4.15333 0
M  V30 11928 H 316.297 -3.41248 -7.98759 0
M  V30 11929 H 316.569 -2.5837 -6.41742 0
M  V30 11930 H 315.701 -5.02657 -6.42673 0
M  V30 11931 P 311.738 -6.144 -6.45285 0
M  V30 11932 O 311.518 -7.54673 -6.86199 0
M  V30 11933 O 310.948 -5.12391 -7.179 0
M  V30 11934 O 311.488 -5.99158 -4.88404 0
M  V30 11935 C 312.428 -6.60234 -3.96415 0
M  V30 11936 C 311.698 -7.08259 -2.72856 0
M  V30 11937 O 311.488 -5.9427 -1.83651 0
M  V30 11938 C 310.298 -7.64886 -2.9555 0
M  V30 11939 O 309.908 -8.53963 -1.90717 0
M  V30 11940 C 309.418 -6.4116 -2.90739 0
M  V30 11941 C 310.128 -5.55375 -1.86963 0
M  V30 11942 N 310.078 -4.09448 -2.16152 0
M  V30 11943 H 312.917 -7.45574 -4.45629 0
M  V30 11944 H 313.189 -5.85864 -3.679 0
M  V30 11945 H 312.321 -7.84412 -2.24479 0
M  V30 11946 H 309.666 -5.73457 -0.888562 0
M  V30 11947 H 309.386 -5.90877 -3.88583 0
M  V30 11948 H 308.395 -6.6596 -2.58858 0
M  V30 11949 H 310.229 -8.16339 -3.92049 0
M  V30 11950 P 308.358 -8.7635 -1.60911 0
M  V30 11951 O 308.138 -10.1388 -1.11561 0
M  V30 11952 O 307.568 -8.36503 -2.79617 0
M  V30 11953 O 308.108 -7.71806 -0.42951 0
M  V30 11954 C 309.048 -7.67148 0.673689 0
M  V30 11955 C 308.318 -7.33374 1.95559 0
M  V30 11956 O 308.108 -5.88721 2.00726 0
M  V30 11957 C 306.918 -7.92526 2.10483 0
M  V30 11958 O 306.528 -8.02971 3.47653 0
M  V30 11959 C 306.038 -6.89602 1.41652 0
M  V30 11960 C 306.748 -5.59201 1.75185 0
M  V30 11961 N 306.698 -4.58235 0.662552 0
M  V30 11962 H 309.537 -8.65116 0.777161 0
M  V30 11963 H 309.809 -6.90173 0.474152 0
M  V30 11964 H 308.941 -7.66548 2.79458 0
M  V30 11965 P 304.978 -8.03563 3.84925 0
M  V30 11966 O 304.758 -8.85821 5.0569 0
M  V30 11967 O 304.188 -8.41101 2.65469 0
M  V30 11968 O 304.728 -6.4965 4.18908 0
M  V30 11969 C 305.668 -5.81037 5.05421 0
M  V30 11970 C 304.938 -4.78366 5.89277 0
M  V30 11971 O 304.728 -3.58302 5.08433 0
M  V30 11972 C 303.538 -5.17448 6.36119 0
M  V30 11973 O 303.148 -4.45271 7.53232 0
M  V30 11974 C 302.658 -4.74639 5.19936 0
M  V30 11975 C 303.368 -3.49432 4.70418 0
M  V30 11976 N 303.318 -3.31776 3.22945 0
M  V30 11977 H 306.157 -6.54213 5.71376 0
M  V30 11978 H 306.429 -5.30492 4.44033 0
M  V30 11979 H 305.561 -4.55889 6.76652 0
M  V30 11980 P 301.598 -4.23843 7.83734 0
M  V30 11981 O 301.378 -4.19407 9.29784 0
M  V30 11982 O 300.808 -5.24426 7.09156 0
M  V30 11983 O 301.348 -2.7935 7.20758 0
M  V30 11984 C 302.288 -1.7299 7.50419 0
M  V30 11985 C 301.558 -0.406376 7.57911 0
M  V30 11986 O 301.348 0.0897726 6.21935 0
M  V30 11987 C 300.158 -0.447224 8.1878 0
M  V30 11988 O 299.768 0.825065 8.71101 0
M  V30 11989 C 299.278 -0.783801 6.99623 0
M  V30 11990 C 299.988 -0.0619192 5.85967 0
M  V30 11991 N 299.938 -0.7859 4.56281 0
M  V30 11992 H 302.777 -1.93423 8.4679 0
M  V30 11993 H 303.049 -1.68181 6.71046 0
M  V30 11994 H 302.181 0.289041 8.15388 0
M  V30 11995 P 298.218 1.17771 8.83182 0
M  V30 11996 O 297.998 2.07206 9.98732 0
M  V30 11997 O 297.428 -0.0743816 8.81969 0
M  V30 11998 O 297.968 1.97652 7.47304 0
M  V30 11999 C 298.908 3.01133 7.08783 0
M  V30 12000 C 298.178 4.12613 6.37049 0
M  V30 12001 O 297.968 3.72827 4.97879 0
M  V30 12002 C 296.778 4.45085 6.88694 0
M  V30 12003 O 296.388 5.7877 6.5624 0
M  V30 12004 C 295.898 3.47817 6.12078 0
M  V30 12005 C 296.608 3.39414 4.77697 0
M  V30 12006 N 296.558 2.04199 4.15538 0
M  V30 12007 H 299.397 3.41248 7.98759 0
M  V30 12008 H 299.669 2.57728 6.42 0
M  V30 12009 H 298.801 5.02657 6.42673 0
M  V30 12010 H 296.146 4.11708 4.08956 0
M  V30 12011 H 295.866 2.49626 6.61679 0
M  V30 12012 H 294.875 3.8662 6.00862 0
M  V30 12013 H 296.709 4.29991 7.97006 0
M  V30 12014 P 294.838 6.144 6.45285 0
M  V30 12015 O 294.618 7.54673 6.86199 0
M  V30 12016 O 294.048 5.12391 7.179 0
M  V30 12017 O 294.588 5.99158 4.88404 0
M  V30 12018 C 295.528 6.60234 3.96415 0
M  V30 12019 C 294.798 7.08259 2.72856 0
M  V30 12020 O 294.588 5.9427 1.83651 0
M  V30 12021 C 293.398 7.64886 2.9555 0
M  V30 12022 O 293.008 8.53963 1.90717 0
M  V30 12023 C 292.518 6.4116 2.90739 0
M  V30 12024 C 293.228 5.55375 1.86963 0
M  V30 12025 N 293.178 4.09664 2.15742 0
M  V30 12026 H 296.017 7.45574 4.45629 0
M  V30 12027 H 296.289 5.86232 3.67314 0
M  V30 12028 H 295.421 7.84412 2.24479 0
M  V30 12029 P 291.458 8.7635 1.60911 0
M  V30 12030 O 291.238 10.1388 1.11561 0
M  V30 12031 O 290.668 8.36503 2.79617 0
M  V30 12032 O 291.208 7.71806 0.42951 0
M  V30 12033 C 292.148 7.67148 -0.673689 0
M  V30 12034 C 291.418 7.33374 -1.95559 0
M  V30 12035 O 291.208 5.88721 -2.00726 0
M  V30 12036 C 290.018 7.92526 -2.10483 0
M  V30 12037 O 289.628 8.02971 -3.47653 0
M  V30 12038 C 289.138 6.89602 -1.41652 0
M  V30 12039 C 289.848 5.59201 -1.75185 0
M  V30 12040 N 289.798 4.58235 -0.662552 0
M  V30 12041 H 292.637 8.65116 -0.777161 0
M  V30 12042 H 292.909 6.90173 -0.474152 0
M  V30 12043 H 292.041 7.66548 -2.79458 0
M  V30 12044 P 288.078 8.03563 -3.84925 0
M  V30 12045 O 287.858 8.85821 -5.0569 0
M  V30 12046 O 287.288 8.41101 -2.65469 0
M  V30 12047 O 287.828 6.4965 -4.18908 0
M  V30 12048 C 288.768 5.80886 -5.05289 0
M  V30 12049 C 288.038 4.78366 -5.89277 0
M  V30 12050 O 287.828 3.58302 -5.08433 0
M  V30 12051 C 286.638 5.16748 -6.36559 0
M  V30 12052 O 286.248 4.45271 -7.53232 0
M  V30 12053 C 285.758 4.74572 -5.19863 0
M  V30 12054 C 286.468 3.49373 -4.70338 0
M  V30 12055 N 286.418 3.31704 -3.22876 0
M  V30 12056 C 286.268 2.03326 -2.74871 0
M  V30 12057 O 286.178 1.06486 -3.48076 0
M  V30 12058 N 286.228 1.91838 -1.37456 0
M  V30 12059 C 286.318 2.94295 -0.462035 0
M  V30 12060 O 286.268 2.71763 0.752928 0
M  V30 12061 C 286.468 4.25064 -1.05249 0
M  V30 12062 C 286.578 5.39815 -0.095697 0
M  V30 12063 C 286.518 4.40214 -2.39192 0
M  V30 12064 H 289.259 6.54063 -5.71245 0
M  V30 12065 H 289.528 5.30339 -4.43905 0
M  V30 12066 H 288.661 4.55889 -6.76652 0
M  V30 12067 H 286.006 2.6167 -5.17842 0
M  V30 12068 H 285.727 5.52155 -4.41878 0
M  V30 12069 H 284.735 4.51918 -5.53297 0
M  V30 12070 H 286.569 6.25055 -6.55162 0
M  V30 12071 H 286.64 5.39798 -2.81523 0
M  V30 12072 H 285.61 5.91593 -0.0279582 0
M  V30 12073 H 287.347 6.10038 -0.450573 0
M  V30 12074 H 286.859 5.02007 0.89937 0
M  V30 12075 H 286.123 0.995326 -1.00435 0
M  V30 12076 P 284.698 4.23843 -7.83734 0
M  V30 12077 O 284.478 4.19407 -9.29784 0
M  V30 12078 O 283.908 5.24426 -7.09156 0
M  V30 12079 O 284.448 2.7935 -7.20758 0
M  V30 12080 C 285.388 1.7299 -7.50419 0
M  V30 12081 C 284.658 0.406376 -7.57911 0
M  V30 12082 O 284.448 -0.0897726 -6.21935 0
M  V30 12083 C 283.258 0.447224 -8.1878 0
M  V30 12084 O 282.868 -0.825065 -8.71101 0
M  V30 12085 C 282.378 0.783801 -6.99623 0
M  V30 12086 C 283.088 0.0619192 -5.85967 0
M  V30 12087 N 283.038 0.790462 -4.56202 0
M  V30 12088 H 285.877 1.93423 -8.4679 0
M  V30 12089 H 286.149 1.68852 -6.70877 0
M  V30 12090 H 285.281 -0.289041 -8.15388 0
M  V30 12091 H 282.626 -0.927006 -5.72848 0
M  V30 12092 H 282.346 1.86973 -6.82036 0
M  V30 12093 H 281.355 0.403953 -7.13357 0
M  V30 12094 H 283.189 1.20599 -8.97534 0
M  V30 12095 P 281.318 -1.17771 -8.83182 0
M  V30 12096 O 281.098 -2.07206 -9.98732 0
M  V30 12097 O 280.528 0.0743816 -8.81969 0
M  V30 12098 O 281.068 -1.97652 -7.47304 0
M  V30 12099 C 282.008 -3.01133 -7.08783 0
M  V30 12100 C 281.278 -4.12613 -6.37049 0
M  V30 12101 O 281.068 -3.72827 -4.97879 0
M  V30 12102 C 279.878 -4.45085 -6.88694 0
M  V30 12103 O 279.488 -5.7877 -6.5624 0
M  V30 12104 C 278.998 -3.47817 -6.12078 0
M  V30 12105 C 279.708 -3.39414 -4.77697 0
M  V30 12106 N 279.658 -2.04199 -4.15538 0
M  V30 12107 H 282.497 -3.41248 -7.98759 0
M  V30 12108 H 282.769 -2.57728 -6.42 0
M  V30 12109 H 281.901 -5.02657 -6.42673 0
M  V30 12110 H 279.246 -4.11708 -4.08956 0
M  V30 12111 H 278.966 -2.49626 -6.61679 0
M  V30 12112 H 277.975 -3.8662 -6.00862 0
M  V30 12113 H 279.809 -4.29991 -7.97006 0
M  V30 12114 P 277.938 -6.144 -6.45285 0
M  V30 12115 O 277.718 -7.54673 -6.86199 0
M  V30 12116 O 277.148 -5.12391 -7.179 0
M  V30 12117 O 277.688 -5.99158 -4.88404 0
M  V30 12118 C 278.628 -6.60234 -3.96415 0
M  V30 12119 C 277.898 -7.08259 -2.72856 0
M  V30 12120 O 277.688 -5.9427 -1.83651 0
M  V30 12121 C 276.498 -7.64886 -2.9555 0
M  V30 12122 O 276.108 -8.53963 -1.90717 0
M  V30 12123 C 275.618 -6.4116 -2.90739 0
M  V30 12124 C 276.328 -5.55375 -1.86963 0
M  V30 12125 N 276.278 -4.09448 -2.16152 0
M  V30 12126 H 279.117 -7.45574 -4.45629 0
M  V30 12127 H 279.389 -5.85864 -3.679 0
M  V30 12128 H 278.521 -7.84412 -2.24479 0
M  V30 12129 H 275.866 -5.73457 -0.888562 0
M  V30 12130 H 275.586 -5.90877 -3.88583 0
M  V30 12131 H 274.595 -6.6596 -2.58858 0
M  V30 12132 H 276.429 -8.16339 -3.92049 0
M  V30 12133 P 274.558 -8.7635 -1.60911 0
M  V30 12134 O 274.338 -10.1388 -1.11561 0
M  V30 12135 O 273.768 -8.36503 -2.79617 0
M  V30 12136 O 274.308 -7.71806 -0.42951 0
M  V30 12137 C 275.248 -7.67148 0.673689 0
M  V30 12138 C 274.518 -7.33374 1.95559 0
M  V30 12139 O 274.308 -5.88721 2.00726 0
M  V30 12140 C 273.118 -7.92526 2.10483 0
M  V30 12141 O 272.728 -8.02971 3.47653 0
M  V30 12142 C 272.238 -6.89602 1.41652 0
M  V30 12143 C 272.948 -5.59201 1.75185 0
M  V30 12144 N 272.898 -4.58235 0.662552 0
M  V30 12145 H 275.737 -8.65116 0.777161 0
M  V30 12146 H 276.009 -6.90173 0.474152 0
M  V30 12147 H 275.141 -7.66548 2.79458 0
M  V30 12148 P 271.178 -8.03563 3.84925 0
M  V30 12149 O 270.958 -8.85821 5.0569 0
M  V30 12150 O 270.388 -8.41101 2.65469 0
M  V30 12151 O 270.928 -6.4965 4.18908 0
M  V30 12152 C 271.868 -5.81037 5.05421 0
M  V30 12153 C 271.138 -4.78366 5.89277 0
M  V30 12154 O 270.928 -3.58302 5.08433 0
M  V30 12155 C 269.738 -5.17448 6.36119 0
M  V30 12156 O 269.348 -4.45271 7.53232 0
M  V30 12157 C 268.858 -4.74639 5.19936 0
M  V30 12158 C 269.568 -3.49432 4.70418 0
M  V30 12159 N 269.518 -3.32099 3.22613 0
M  V30 12160 C 269.598 -4.28245 2.25527 0
M  V30 12161 N 269.528 -3.80823 1.04874 0
M  V30 12162 C 269.378 -2.44571 1.23535 0
M  V30 12163 C 269.248 -1.37068 0.330675 0
M  V30 12164 N 269.238 -1.51472 -0.990824 0
M  V30 12165 N 269.128 -0.138614 0.848756 0
M  V30 12166 C 269.138 0.00675923 2.16999 0
M  V30 12167 N 269.258 -0.904372 3.11122 0
M  V30 12168 C 269.378 -2.12707 2.56212 0
M  V30 12169 H 272.357 -6.54213 5.71376 0
M  V30 12170 H 272.629 -5.30936 4.43503 0
M  V30 12171 H 271.761 -4.55889 6.76652 0
M  V30 12172 H 269.106 -2.61715 5.17932 0
M  V30 12173 H 268.826 -5.52155 4.41878 0
M  V30 12174 H 267.835 -4.51981 5.53374 0
M  V30 12175 H 269.669 -6.25124 6.55234 0
M  V30 12176 H 269.71 -5.34372 2.47488 0
M  V30 12177 H 269.329 -2.45153 -1.4078 0
M  V30 12178 H 269.14 -0.688422 -1.59911 0
M  V30 12179 H 269.032 1.02584 2.52346 0
M  V30 12180 P 267.798 -4.23843 7.83734 0
M  V30 12181 O 267.578 -4.19407 9.29784 0
M  V30 12182 O 267.008 -5.24426 7.09156 0
M  V30 12183 O 267.548 -2.7935 7.20758 0
M  V30 12184 C 268.488 -1.7299 7.50419 0
M  V30 12185 C 267.758 -0.406376 7.57911 0
M  V30 12186 O 267.548 0.0897726 6.21935 0
M  V30 12187 C 266.358 -0.447224 8.1878 0
M  V30 12188 O 265.968 0.825065 8.71101 0
M  V30 12189 C 265.478 -0.783801 6.99623 0
M  V30 12190 C 266.188 -0.0619192 5.85967 0
M  V30 12191 N 266.138 -0.7859 4.56281 0
M  V30 12192 H 268.977 -1.93423 8.4679 0
M  V30 12193 H 269.249 -1.68181 6.71046 0
M  V30 12194 H 268.381 0.289041 8.15388 0
M  V30 12195 P 264.418 1.17771 8.83182 0
M  V30 12196 O 264.198 2.07206 9.98732 0
M  V30 12197 O 263.628 -0.0743816 8.81969 0
M  V30 12198 O 264.168 1.97678 7.474 0
M  V30 12199 C 265.108 3.01133 7.08783 0
M  V30 12200 C 264.378 4.1203 6.37546 0
M  V30 12201 O 264.168 3.72887 4.9796 0
M  V30 12202 C 262.978 4.45085 6.88694 0
M  V30 12203 O 262.588 5.78836 6.56315 0
M  V30 12204 C 262.098 3.47817 6.12078 0
M  V30 12205 C 262.808 3.39414 4.77697 0
M  V30 12206 N 262.758 2.04615 4.15333 0
M  V30 12207 C 262.608 1.96929 2.77162 0
M  V30 12208 O 262.518 3.02017 2.12006 0
M  V30 12209 N 262.558 0.55485 2.24237 0
M  V30 12210 C 262.658 -0.367808 2.9169 0
M  V30 12211 N 262.608 -1.53426 2.29427 0
M  V30 12212 C 262.808 -0.319148 4.33828 0
M  V30 12213 C 262.858 0.920672 4.90433 0
M  V30 12214 H 265.598 3.41209 7.98667 0
M  V30 12215 H 265.868 2.5837 6.41742 0
M  V30 12216 H 265.001 5.02718 6.42752 0
M  V30 12217 H 262.346 4.11779 4.09026 0
M  V30 12218 H 262.066 2.49661 6.61772 0
M  V30 12219 H 261.075 3.86674 6.00946 0
M  V30 12220 H 262.909 4.29991 7.97006 0
M  V30 12221 H 262.981 1.00589 5.98303 0
M  V30 12222 H 262.879 -1.22639 4.93799 0
M  V30 12223 H 262.491 -1.56819 1.27167 0
M  V30 12224 H 262.687 -2.41062 2.83063 0
M  V30 12225 P 261.038 6.144 6.45285 0
M  V30 12226 O 260.818 7.54673 6.86199 0
M  V30 12227 O 260.248 5.12391 7.179 0
M  V30 12228 O 260.788 5.99158 4.88404 0
M  V30 12229 C 261.728 6.60062 3.96313 0
M  V30 12230 C 260.998 7.08259 2.72856 0
M  V30 12231 O 260.788 5.9427 1.83651 0
M  V30 12232 C 259.598 7.65087 2.94749 0
M  V30 12233 O 259.208 8.53963 1.90717 0
M  V30 12234 C 258.718 6.41069 2.90698 0
M  V30 12235 C 259.428 5.5528 1.86931 0
M  V30 12236 N 259.378 4.09575 2.15696 0
M  V30 12237 C 259.228 3.24249 1.08435 0
M  V30 12238 O 259.138 3.63946 -0.0628747 0
M  V30 12239 N 259.188 1.90009 1.39973 0
M  V30 12240 C 259.278 1.34884 2.65614 0
M  V30 12241 O 259.228 0.123716 2.81728 0
M  V30 12242 C 259.428 2.3145 3.71736 0
M  V30 12243 C 259.538 1.75913 5.10438 0
M  V30 12244 C 259.478 3.63518 3.44754 0
M  V30 12245 H 262.219 7.45402 4.45526 0
M  V30 12246 H 262.488 5.86062 3.67208 0
M  V30 12247 H 261.621 7.84412 2.24479 0
M  V30 12248 H 258.966 5.73358 0.888409 0
M  V30 12249 H 258.687 5.90877 3.88583 0
M  V30 12250 H 257.695 6.65867 2.58821 0
M  V30 12251 H 259.529 8.16248 3.92006 0
M  V30 12252 H 259.6 4.34551 4.26383 0
M  V30 12253 H 258.57 1.85471 5.61775 0
M  V30 12254 H 260.307 2.31364 5.66257 0
M  V30 12255 H 259.819 0.695936 5.05229 0
M  V30 12256 H 259.083 1.26277 0.63625 0
M  V30 12257 P 257.658 8.7635 1.60911 0
M  V30 12258 O 257.438 10.1388 1.11561 0
M  V30 12259 O 256.868 8.36503 2.79617 0
M  V30 12260 O 257.408 7.71806 0.42951 0
M  V30 12261 C 258.348 7.67148 -0.673689 0
M  V30 12262 C 257.618 7.33374 -1.95559 0
M  V30 12263 O 257.408 5.88721 -2.00726 0
M  V30 12264 C 256.218 7.92526 -2.10483 0
M  V30 12265 O 255.828 8.02971 -3.47653 0
M  V30 12266 C 255.338 6.89602 -1.41652 0
M  V30 12267 C 256.048 5.59201 -1.75185 0
M  V30 12268 N 255.998 4.58235 -0.662552 0
M  V30 12269 H 258.837 8.65116 -0.777161 0
M  V30 12270 H 259.109 6.90173 -0.474152 0
M  V30 12271 H 258.241 7.66548 -2.79458 0
M  V30 12272 P 254.279 8.03563 -3.84925 0
M  V30 12273 O 254.059 8.85821 -5.0569 0
M  V30 12274 O 253.489 8.41101 -2.65469 0
M  V30 12275 O 254.029 6.49734 -4.18962 0
M  V30 12276 C 254.969 5.81037 -5.05421 0
M  V30 12277 C 254.239 4.79018 -5.88876 0
M  V30 12278 O 254.029 3.58359 -5.08515 0
M  V30 12279 C 252.839 5.17448 -6.36119 0
M  V30 12280 O 252.449 4.45322 -7.53318 0
M  V30 12281 C 251.959 4.74639 -5.19936 0
M  V30 12282 C 252.669 3.49432 -4.70418 0
M  V30 12283 N 252.619 3.31776 -3.22945 0
M  V30 12284 C 252.469 2.02742 -2.72939 0
M  V30 12285 O 252.379 1.08301 -3.52749 0
M  V30 12286 N 252.419 1.96117 -1.22063 0
M  V30 12287 C 252.519 2.8878 -0.551566 0
M  V30 12288 N 252.469 2.65609 0.750198 0
M  V30 12289 C 252.669 4.22457 -1.03707 0
M  V30 12290 C 252.719 4.37979 -2.39113 0
M  V30 12291 H 255.459 6.54138 -5.7131 0
M  V30 12292 H 255.729 5.30492 -4.44033 0
M  V30 12293 H 254.862 4.55945 -6.76735 0
M  V30 12294 H 252.207 2.6176 -5.18021 0
M  V30 12295 H 251.927 5.52233 -4.41941 0
M  V30 12296 H 250.936 4.52045 -5.53452 0
M  V30 12297 H 252.77 6.25124 -6.55234 0
M  V30 12298 H 252.842 5.37936 -2.80552 0
M  V30 12299 H 252.74 5.07528 -0.359553 0
M  V30 12300 H 252.352 1.69403 1.09847 0
M  V30 12301 H 252.548 3.43701 1.41792 0
M  V30 12302 P 250.899 4.23843 -7.83734 0
M  V30 12303 O 250.679 4.19407 -9.29784 0
M  V30 12304 O 250.109 5.24426 -7.09156 0
M  V30 12305 O 250.649 2.7935 -7.20758 0
M  V30 12306 C 251.589 1.72945 -7.50224 0
M  V30 12307 C 250.859 0.406376 -7.57911 0
M  V30 12308 O 250.649 -0.0897726 -6.21935 0
M  V30 12309 C 249.459 0.438983 -8.18724 0
M  V30 12310 O 249.069 -0.825065 -8.71101 0
M  V30 12311 C 248.579 0.783689 -6.99524 0
M  V30 12312 C 249.289 0.0619086 -5.85867 0
M  V30 12313 N 249.239 0.78573 -4.56183 0
M  V30 12314 C 249.089 0.0292889 -3.41887 0
M  V30 12315 O 248.999 -1.18445 -3.4419 0
M  V30 12316 N 249.049 0.744061 -2.23964 0
M  V30 12317 C 249.139 2.10932 -2.10362 0
M  V30 12318 O 249.089 2.64117 -0.98825 0
M  V30 12319 C 249.289 2.8202 -3.34994 0
M  V30 12320 C 249.399 4.31095 -3.25037 0
M  V30 12321 C 249.339 2.15547 -4.52261 0
M  V30 12322 H 252.08 1.93379 -8.46595 0
M  V30 12323 H 252.349 1.68132 -6.70852 0
M  V30 12324 H 251.482 -0.289041 -8.15388 0
M  V30 12325 H 248.827 -0.926847 -5.72749 0
M  V30 12326 H 248.548 1.86973 -6.82036 0
M  V30 12327 H 247.556 0.403896 -7.13257 0
M  V30 12328 H 249.39 1.20585 -8.97435 0
M  V30 12329 H 249.461 2.71231 -5.45042 0
M  V30 12330 H 248.431 4.76966 -3.49992 0
M  V30 12331 H 250.168 4.67047 -3.95024 0
M  V30 12332 H 249.68 4.58996 -2.22312 0
M  V30 12333 H 248.944 0.214893 -1.39758 0
M  V30 12334 P 247.519 -1.17771 -8.83182 0
M  V30 12335 O 247.299 -2.07206 -9.98732 0
M  V30 12336 O 246.729 0.0743816 -8.81969 0
M  V30 12337 O 247.269 -1.97652 -7.47304 0
M  V30 12338 C 248.209 -3.01133 -7.08783 0
M  V30 12339 C 247.479 -4.12613 -6.37049 0
M  V30 12340 O 247.269 -3.72827 -4.97879 0
M  V30 12341 C 246.079 -4.45085 -6.88694 0
M  V30 12342 O 245.689 -5.7877 -6.5624 0
M  V30 12343 C 245.199 -3.47817 -6.12078 0
M  V30 12344 C 245.909 -3.39414 -4.77697 0
M  V30 12345 N 245.859 -2.04615 -4.15333 0
M  V30 12346 H 248.698 -3.41248 -7.98759 0
M  V30 12347 H 248.97 -2.5837 -6.41742 0
M  V30 12348 H 248.102 -5.02657 -6.42673 0
M  V30 12349 P 244.139 -6.144 -6.45285 0
M  V30 12350 O 243.919 -7.54673 -6.86199 0
M  V30 12351 O 243.349 -5.12391 -7.179 0
M  V30 12352 O 243.889 -5.99158 -4.88404 0
M  V30 12353 C 244.829 -6.60234 -3.96415 0
M  V30 12354 C 244.099 -7.08259 -2.72856 0
M  V30 12355 O 243.889 -5.9427 -1.83651 0
M  V30 12356 C 242.699 -7.64886 -2.9555 0
M  V30 12357 O 242.309 -8.53963 -1.90717 0
M  V30 12358 C 241.819 -6.4116 -2.90739 0
M  V30 12359 C 242.529 -5.55375 -1.86963 0
M  V30 12360 N 242.479 -4.09664 -2.15742 0
M  V30 12361 H 245.318 -7.45574 -4.45629 0
M  V30 12362 H 245.59 -5.86232 -3.67314 0
M  V30 12363 H 244.722 -7.84412 -2.24479 0
M  V30 12364 P 240.759 -8.7635 -1.60911 0
M  V30 12365 O 240.539 -10.1388 -1.11561 0
M  V30 12366 O 239.969 -8.36503 -2.79617 0
M  V30 12367 O 240.509 -7.71806 -0.42951 0
M  V30 12368 C 241.449 -7.66948 0.673514 0
M  V30 12369 C 240.719 -7.33374 1.95559 0
M  V30 12370 O 240.509 -5.88721 2.00726 0
M  V30 12371 C 239.319 -7.92218 2.1125 0
M  V30 12372 O 238.929 -8.02971 3.47653 0
M  V30 12373 C 238.439 -6.89504 1.41631 0
M  V30 12374 C 239.149 -5.59106 1.75155 0
M  V30 12375 N 239.099 -4.58136 0.662409 0
M  V30 12376 C 238.949 -3.26059 1.02863 0
M  V30 12377 O 238.859 -2.90743 2.19009 0
M  V30 12378 N 238.909 -2.35995 -0.0155585 0
M  V30 12379 C 238.999 -2.65248 -1.35603 0
M  V30 12380 O 238.949 -1.75605 -2.20651 0
M  V30 12381 C 239.149 -4.05747 -1.64698 0
M  V30 12382 C 239.259 -4.42345 -3.09553 0
M  V30 12383 C 239.199 -4.96734 -0.652411 0
M  V30 12384 H 241.94 -8.64917 0.776982 0
M  V30 12385 H 242.209 -6.89974 0.474015 0
M  V30 12386 H 241.342 -7.66548 2.79458 0
M  V30 12387 H 238.687 -5.16076 2.65138 0
M  V30 12388 H 238.408 -7.06433 0.329384 0
M  V30 12389 H 237.416 -6.90829 1.81996 0
M  V30 12390 H 239.25 -8.90774 1.62639 0
M  V30 12391 H 239.321 -6.02181 -0.895285 0
M  V30 12392 H 238.291 -4.80252 -3.45468 0
M  V30 12393 H 240.028 -5.20015 -3.22119 0
M  V30 12394 H 239.54 -3.53269 -3.67833 0
M  V30 12395 H 238.804 -1.39558 0.227499 0
M  V30 12396 P 237.379 -8.03563 3.84925 0
M  V30 12397 O 237.159 -8.85821 5.0569 0
M  V30 12398 O 236.589 -8.41101 2.65469 0
M  V30 12399 O 237.129 -6.4965 4.18908 0
M  V30 12400 C 238.069 -5.80886 5.05289 0
M  V30 12401 C 237.339 -4.78366 5.89277 0
M  V30 12402 O 237.129 -3.58302 5.08433 0
M  V30 12403 C 235.939 -5.16748 6.36559 0
M  V30 12404 O 235.549 -4.45271 7.53232 0
M  V30 12405 C 235.059 -4.74572 5.19863 0
M  V30 12406 C 235.769 -3.49373 4.70338 0
M  V30 12407 N 235.719 -3.31704 3.22876 0
M  V30 12408 C 235.569 -2.03326 2.74871 0
M  V30 12409 O 235.479 -1.06486 3.48076 0
M  V30 12410 N 235.529 -1.91838 1.37456 0
M  V30 12411 C 235.619 -2.94295 0.462035 0
M  V30 12412 O 235.569 -2.71763 -0.752928 0
M  V30 12413 C 235.769 -4.25064 1.05249 0
M  V30 12414 C 235.879 -5.39815 0.095697 0
M  V30 12415 C 235.819 -4.40214 2.39192 0
M  V30 12416 H 238.56 -6.54063 5.71245 0
M  V30 12417 H 238.829 -5.30339 4.43905 0
M  V30 12418 H 237.962 -4.55889 6.76652 0
M  V30 12419 H 235.307 -2.6167 5.17842 0
M  V30 12420 H 235.028 -5.52155 4.41878 0
M  V30 12421 H 234.036 -4.51918 5.53297 0
M  V30 12422 H 235.87 -6.25055 6.55162 0
M  V30 12423 H 235.941 -5.39798 2.81523 0
M  V30 12424 H 234.911 -5.91593 0.0279582 0
M  V30 12425 H 236.648 -6.10038 0.450573 0
M  V30 12426 H 236.16 -5.02007 -0.89937 0
M  V30 12427 H 235.424 -0.995326 1.00435 0
M  V30 12428 P 233.999 -4.23843 7.83734 0
M  V30 12429 O 233.779 -4.19407 9.29784 0
M  V30 12430 O 233.209 -5.24426 7.09156 0
M  V30 12431 O 233.749 -2.7935 7.20758 0
M  V30 12432 C 234.689 -1.7299 7.50419 0
M  V30 12433 C 233.959 -0.406376 7.57911 0
M  V30 12434 O 233.749 0.0897726 6.21935 0
M  V30 12435 C 232.559 -0.447224 8.1878 0
M  V30 12436 O 232.169 0.825065 8.71101 0
M  V30 12437 C 231.679 -0.783801 6.99623 0
M  V30 12438 C 232.389 -0.0619192 5.85967 0
M  V30 12439 N 232.339 -0.7859 4.56281 0
M  V30 12440 H 235.178 -1.93423 8.4679 0
M  V30 12441 H 235.45 -1.68181 6.71046 0
M  V30 12442 H 234.582 0.289041 8.15388 0
M  V30 12443 P 230.619 1.17771 8.83182 0
M  V30 12444 O 230.399 2.07206 9.98732 0
M  V30 12445 O 229.829 -0.0743816 8.81969 0
M  V30 12446 O 230.369 1.97652 7.47304 0
M  V30 12447 C 231.309 3.01133 7.08783 0
M  V30 12448 C 230.579 4.12613 6.37049 0
M  V30 12449 O 230.369 3.72827 4.97879 0
M  V30 12450 C 229.179 4.45085 6.88694 0
M  V30 12451 O 228.789 5.7877 6.5624 0
M  V30 12452 C 228.299 3.47817 6.12078 0
M  V30 12453 C 229.009 3.39414 4.77697 0
M  V30 12454 N 228.959 2.04615 4.15333 0
M  V30 12455 H 231.798 3.41248 7.98759 0
M  V30 12456 H 232.07 2.5837 6.41742 0
M  V30 12457 H 231.202 5.02657 6.42673 0
M  V30 12458 P 227.239 6.144 6.45285 0
M  V30 12459 O 227.019 7.54673 6.86199 0
M  V30 12460 O 226.449 5.12391 7.179 0
M  V30 12461 O 226.989 5.99158 4.88404 0
M  V30 12462 C 227.929 6.60062 3.96313 0
M  V30 12463 C 227.199 7.08259 2.72856 0
M  V30 12464 O 226.989 5.9427 1.83651 0
M  V30 12465 C 225.799 7.65087 2.94749 0
M  V30 12466 O 225.409 8.53963 1.90717 0
M  V30 12467 C 224.919 6.41069 2.90698 0
M  V30 12468 C 225.629 5.5528 1.86931 0
M  V30 12469 N 225.579 4.09575 2.15696 0
M  V30 12470 C 225.429 3.24249 1.08435 0
M  V30 12471 O 225.339 3.63946 -0.0628747 0
M  V30 12472 N 225.389 1.90009 1.39973 0
M  V30 12473 C 225.479 1.34884 2.65614 0
M  V30 12474 O 225.429 0.123716 2.81728 0
M  V30 12475 C 225.629 2.3145 3.71736 0
M  V30 12476 C 225.739 1.75913 5.10438 0
M  V30 12477 C 225.679 3.63518 3.44754 0
M  V30 12478 H 228.42 7.45402 4.45526 0
M  V30 12479 H 228.689 5.86062 3.67208 0
M  V30 12480 H 227.822 7.84412 2.24479 0
M  V30 12481 H 225.167 5.73358 0.888409 0
M  V30 12482 H 224.888 5.90877 3.88583 0
M  V30 12483 H 223.896 6.65867 2.58821 0
M  V30 12484 H 225.73 8.16248 3.92006 0
M  V30 12485 H 225.801 4.34551 4.26383 0
M  V30 12486 H 224.771 1.85471 5.61775 0
M  V30 12487 H 226.508 2.31364 5.66257 0
M  V30 12488 H 226.02 0.695936 5.05229 0
M  V30 12489 H 225.284 1.26277 0.63625 0
M  V30 12490 P 223.859 8.7635 1.60911 0
M  V30 12491 O 223.639 10.1388 1.11561 0
M  V30 12492 O 223.069 8.36503 2.79617 0
M  V30 12493 O 223.609 7.71806 0.42951 0
M  V30 12494 C 224.549 7.66948 -0.673514 0
M  V30 12495 C 223.819 7.33374 -1.95559 0
M  V30 12496 O 223.609 5.88721 -2.00726 0
M  V30 12497 C 222.419 7.92218 -2.1125 0
M  V30 12498 O 222.029 8.02971 -3.47653 0
M  V30 12499 C 221.539 6.89504 -1.41631 0
M  V30 12500 C 222.249 5.59106 -1.75155 0
M  V30 12501 N 222.199 4.58136 -0.662409 0
M  V30 12502 C 222.049 3.26059 -1.02863 0
M  V30 12503 O 221.959 2.90743 -2.19009 0
M  V30 12504 N 222.009 2.35995 0.0155585 0
M  V30 12505 C 222.099 2.65248 1.35603 0
M  V30 12506 O 222.049 1.75605 2.20651 0
M  V30 12507 C 222.249 4.05747 1.64698 0
M  V30 12508 C 222.359 4.42345 3.09553 0
M  V30 12509 C 222.299 4.96734 0.652411 0
M  V30 12510 H 225.04 8.64917 -0.776982 0
M  V30 12511 H 225.309 6.89974 -0.474015 0
M  V30 12512 H 224.442 7.66548 -2.79458 0
M  V30 12513 H 221.787 5.16076 -2.65138 0
M  V30 12514 H 221.508 7.06433 -0.329384 0
M  V30 12515 H 220.516 6.90829 -1.81996 0
M  V30 12516 H 222.35 8.90774 -1.62639 0
M  V30 12517 H 222.421 6.02181 0.895285 0
M  V30 12518 H 221.391 4.80252 3.45468 0
M  V30 12519 H 223.128 5.20015 3.22119 0
M  V30 12520 H 222.64 3.53269 3.67833 0
M  V30 12521 H 221.904 1.39558 -0.227499 0
M  V30 12522 P 220.479 8.03563 -3.84925 0
M  V30 12523 O 220.259 8.85821 -5.0569 0
M  V30 12524 O 219.689 8.41101 -2.65469 0
M  V30 12525 O 220.229 6.4965 -4.18908 0
M  V30 12526 C 221.169 5.81037 -5.05421 0
M  V30 12527 C 220.439 4.78366 -5.89277 0
M  V30 12528 O 220.229 3.58302 -5.08433 0
M  V30 12529 C 219.039 5.17448 -6.36119 0
M  V30 12530 O 218.649 4.45271 -7.53232 0
M  V30 12531 C 218.159 4.74639 -5.19936 0
M  V30 12532 C 218.869 3.49432 -4.70418 0
M  V30 12533 N 218.819 3.31776 -3.22945 0
M  V30 12534 H 221.658 6.54213 -5.71376 0
M  V30 12535 H 221.93 5.30492 -4.44033 0
M  V30 12536 H 221.062 4.55889 -6.76652 0
M  V30 12537 P 217.099 4.23843 -7.83734 0
M  V30 12538 O 216.879 4.19407 -9.29784 0
M  V30 12539 O 216.309 5.24426 -7.09156 0
M  V30 12540 O 216.849 2.79386 -7.20852 0
M  V30 12541 C 217.789 1.7299 -7.50419 0
M  V30 12542 C 217.059 0.41401 -7.5797 0
M  V30 12543 O 216.849 -0.089787 -6.22035 0
M  V30 12544 C 215.659 0.447224 -8.1878 0
M  V30 12545 O 215.269 -0.825159 -8.71201 0
M  V30 12546 C 214.779 0.783801 -6.99623 0
M  V30 12547 C 215.489 0.0619192 -5.85967 0
M  V30 12548 N 215.439 0.7859 -4.56281 0
M  V30 12549 C 215.289 0.0359258 -3.39981 0
M  V30 12550 O 215.199 -1.19723 -3.49038 0
M  V30 12551 N 215.239 0.869151 -2.14025 0
M  V30 12552 C 215.339 2.01207 -2.14363 0
M  V30 12553 N 215.289 2.58978 -0.954287 0
M  V30 12554 C 215.489 2.80817 -3.32215 0
M  V30 12555 C 215.539 2.13785 -4.50884 0
M  V30 12556 H 218.279 1.93401 -8.46693 0
M  V30 12557 H 218.549 1.68181 -6.71046 0
M  V30 12558 H 217.682 -0.289076 -8.15488 0
M  V30 12559 H 215.027 -0.927166 -5.72947 0
M  V30 12560 H 214.747 1.87 -6.82132 0
M  V30 12561 H 213.756 0.404009 -7.13457 0
M  V30 12562 H 215.59 1.20599 -8.97534 0
M  V30 12563 H 215.662 2.70295 -5.43162 0
M  V30 12564 H 215.56 3.89465 -3.27406 0
M  V30 12565 H 215.172 2.01616 -0.107046 0
M  V30 12566 H 215.368 3.61403 -0.873101 0
M  V30 12567 P 213.719 -1.17771 -8.83182 0
M  V30 12568 O 213.499 -2.07206 -9.98732 0
M  V30 12569 O 212.929 0.0743816 -8.81969 0
M  V30 12570 O 213.469 -1.97652 -7.47304 0
M  V30 12571 C 214.409 -3.01133 -7.08783 0
M  V30 12572 C 213.679 -4.12613 -6.37049 0
M  V30 12573 O 213.469 -3.72827 -4.97879 0
M  V30 12574 C 212.279 -4.45085 -6.88694 0
M  V30 12575 O 211.889 -5.7877 -6.5624 0
M  V30 12576 C 211.399 -3.47817 -6.12078 0
M  V30 12577 C 212.109 -3.39414 -4.77697 0
M  V30 12578 N 212.059 -2.04199 -4.15538 0
M  V30 12579 H 214.898 -3.41248 -7.98759 0
M  V30 12580 H 215.17 -2.57728 -6.42 0
M  V30 12581 H 214.302 -5.02657 -6.42673 0
M  V30 12582 H 211.647 -4.11708 -4.08956 0
M  V30 12583 H 211.367 -2.49626 -6.61679 0
M  V30 12584 H 210.376 -3.8662 -6.00862 0
M  V30 12585 H 212.21 -4.29991 -7.97006 0
M  V30 12586 P 210.339 -6.144 -6.45285 0
M  V30 12587 O 210.119 -7.54673 -6.86199 0
M  V30 12588 O 209.549 -5.12391 -7.179 0
M  V30 12589 O 210.089 -5.99158 -4.88404 0
M  V30 12590 C 211.029 -6.60234 -3.96415 0
M  V30 12591 C 210.299 -7.08259 -2.72856 0
M  V30 12592 O 210.089 -5.9427 -1.83651 0
M  V30 12593 C 208.899 -7.64886 -2.9555 0
M  V30 12594 O 208.509 -8.53963 -1.90717 0
M  V30 12595 C 208.019 -6.4116 -2.90739 0
M  V30 12596 C 208.729 -5.55375 -1.86963 0
M  V30 12597 N 208.679 -4.09448 -2.16152 0
M  V30 12598 H 211.518 -7.45574 -4.45629 0
M  V30 12599 H 211.79 -5.85864 -3.679 0
M  V30 12600 H 210.922 -7.84412 -2.24479 0
M  V30 12601 H 208.267 -5.73457 -0.888562 0
M  V30 12602 H 207.987 -5.90877 -3.88583 0
M  V30 12603 H 206.996 -6.6596 -2.58858 0
M  V30 12604 H 208.83 -8.16339 -3.92049 0
M  V30 12605 P 206.959 -8.7635 -1.60911 0
M  V30 12606 O 206.739 -10.1388 -1.11561 0
M  V30 12607 O 206.169 -8.36503 -2.79617 0
M  V30 12608 O 206.709 -7.71806 -0.42951 0
M  V30 12609 C 207.649 -7.66948 0.673514 0
M  V30 12610 C 206.919 -7.33374 1.95559 0
M  V30 12611 O 206.709 -5.88721 2.00726 0
M  V30 12612 C 205.519 -7.92218 2.1125 0
M  V30 12613 O 205.129 -8.02971 3.47653 0
M  V30 12614 C 204.639 -6.89504 1.41631 0
M  V30 12615 C 205.349 -5.59106 1.75155 0
M  V30 12616 N 205.299 -4.58136 0.662409 0
M  V30 12617 C 205.149 -3.26059 1.02863 0
M  V30 12618 O 205.059 -2.90743 2.19009 0
M  V30 12619 N 205.109 -2.35995 -0.0155585 0
M  V30 12620 C 205.199 -2.65248 -1.35603 0
M  V30 12621 C 205.349 -4.05747 -1.64698 0
M  V30 12622 C 205.399 -4.96734 -0.652411 0
M  V30 12623 H 208.14 -8.64917 0.776982 0
M  V30 12624 H 208.409 -6.89974 0.474015 0
M  V30 12625 H 207.542 -7.66548 2.79458 0
M  V30 12626 H 204.887 -5.16076 2.65138 0
M  V30 12627 H 204.608 -7.06433 0.329384 0
M  V30 12628 H 203.616 -6.90829 1.81996 0
M  V30 12629 H 205.45 -8.90774 1.62639 0
M  V30 12630 H 205.521 -6.02181 -0.895285 0
M  V30 12631 P 203.579 -8.03563 3.84925 0
M  V30 12632 O 203.359 -8.85821 5.0569 0
M  V30 12633 O 202.789 -8.41101 2.65469 0
M  V30 12634 O 203.329 -6.4965 4.18908 0
M  V30 12635 C 204.269 -5.81037 5.05421 0
M  V30 12636 C 203.539 -4.78366 5.89277 0
M  V30 12637 O 203.329 -3.58302 5.08433 0
M  V30 12638 C 202.139 -5.17448 6.36119 0
M  V30 12639 O 201.749 -4.45271 7.53232 0
M  V30 12640 C 201.259 -4.74639 5.19936 0
M  V30 12641 C 201.969 -3.49432 4.70418 0
M  V30 12642 N 201.919 -3.31776 3.22945 0
M  V30 12643 C 201.999 -4.27147 2.23315 0
M  V30 12644 N 201.919 -3.78447 1.02186 0
M  V30 12645 C 201.779 -2.41001 1.21732 0
M  V30 12646 C 201.649 -1.36111 0.27694 0
M  V30 12647 O 201.629 -1.42065 -0.951767 0
M  V30 12648 N 201.529 -0.113683 0.912949 0
M  V30 12649 C 201.529 0.0846396 2.27943 0
M  V30 12650 N 201.399 1.34737 2.6916 0
M  V30 12651 N 201.659 -0.902521 3.16379 0
M  V30 12652 C 201.779 -2.11937 2.56849 0
M  V30 12653 H 204.758 -6.54213 5.71376 0
M  V30 12654 H 205.03 -5.30492 4.44033 0
M  V30 12655 H 204.162 -4.55889 6.76652 0
M  V30 12656 H 201.507 -2.6176 5.18021 0
M  V30 12657 H 201.227 -5.52233 4.41941 0
M  V30 12658 H 200.236 -4.52045 5.53452 0
M  V30 12659 H 202.07 -6.25193 6.55307 0
M  V30 12660 H 202.119 -5.3351 2.43857 0
M  V30 12661 H 201.437 0.69331 0.330371 0
M  V30 12662 H 201.4 1.56433 3.6988 0
M  V30 12663 H 201.299 2.10701 2.00133 0
M  V30 12664 P 200.199 -4.23843 7.83734 0
M  V30 12665 O 199.979 -4.19407 9.29784 0
M  V30 12666 O 199.409 -5.24426 7.09156 0
M  V30 12667 O 199.949 -2.7935 7.20758 0
M  V30 12668 C 200.889 -1.72945 7.50224 0
M  V30 12669 C 200.159 -0.406376 7.57911 0
M  V30 12670 O 199.949 0.0897726 6.21935 0
M  V30 12671 C 198.759 -0.438983 8.18724 0
M  V30 12672 O 198.369 0.825065 8.71101 0
M  V30 12673 C 197.879 -0.783689 6.99524 0
M  V30 12674 C 198.589 -0.0619086 5.85867 0
M  V30 12675 N 198.539 -0.78573 4.56183 0
M  V30 12676 C 198.389 -0.0292889 3.41887 0
M  V30 12677 O 198.299 1.18445 3.4419 0
M  V30 12678 N 198.349 -0.744061 2.23964 0
M  V30 12679 C 198.439 -2.10932 2.10362 0
M  V30 12680 O 198.389 -2.64117 0.98825 0
M  V30 12681 C 198.589 -2.8202 3.34994 0
M  V30 12682 C 198.699 -4.31095 3.25037 0
M  V30 12683 C 198.639 -2.15547 4.52261 0
M  V30 12684 H 201.38 -1.93379 8.46595 0
M  V30 12685 H 201.649 -1.68132 6.70852 0
M  V30 12686 H 200.782 0.289041 8.15388 0
M  V30 12687 H 198.127 0.926847 5.72749 0
M  V30 12688 H 197.848 -1.86973 6.82036 0
M  V30 12689 H 196.856 -0.403896 7.13257 0
M  V30 12690 H 198.69 -1.20585 8.97435 0
M  V30 12691 H 198.761 -2.71231 5.45042 0
M  V30 12692 H 197.731 -4.76966 3.49992 0
M  V30 12693 H 199.468 -4.67047 3.95024 0
M  V30 12694 H 198.98 -4.58996 2.22312 0
M  V30 12695 H 198.244 -0.214893 1.39758 0
M  V30 12696 P 196.819 1.17771 8.83182 0
M  V30 12697 O 196.599 2.07206 9.98732 0
M  V30 12698 O 196.029 -0.0743816 8.81969 0
M  V30 12699 O 196.569 1.97652 7.47304 0
M  V30 12700 C 197.509 3.01055 7.08599 0
M  V30 12701 C 196.779 4.12613 6.37049 0
M  V30 12702 O 196.569 3.72827 4.97879 0
M  V30 12703 C 195.379 4.45719 6.88164 0
M  V30 12704 O 194.989 5.7877 6.5624 0
M  V30 12705 C 194.499 3.47768 6.11991 0
M  V30 12706 C 195.209 3.39356 4.77615 0
M  V30 12707 N 195.159 2.04571 4.15244 0
M  V30 12708 C 195.009 1.98587 2.78314 0
M  V30 12709 O 194.919 2.98134 2.08835 0
M  V30 12710 N 194.969 0.714467 2.24925 0
M  V30 12711 C 195.059 -0.470001 2.94169 0
M  V30 12712 O 195.009 -1.55587 2.35195 0
M  V30 12713 C 195.209 -0.312541 4.36783 0
M  V30 12714 C 195.319 -1.57711 5.16352 0
M  V30 12715 C 195.259 0.914512 4.92583 0
M  V30 12716 H 198 3.41169 7.98575 0
M  V30 12717 H 198.269 2.58295 6.41556 0
M  V30 12718 H 197.402 5.02657 6.42673 0
M  V30 12719 H 194.747 4.11637 4.08885 0
M  V30 12720 H 194.468 2.49626 6.61679 0
M  V30 12721 H 193.476 3.86566 6.00778 0
M  V30 12722 H 195.31 4.29943 7.96918 0
M  V30 12723 H 195.381 1.00937 6.00374 0
M  V30 12724 H 194.351 -1.80153 5.63503 0
M  V30 12725 H 196.088 -1.4566 5.94104 0
M  V30 12726 H 195.6 -2.40664 4.49645 0
M  V30 12727 H 194.864 0.647622 1.25697 0
M  V30 12728 P 193.439 6.144 6.45285 0
M  V30 12729 O 193.219 7.54673 6.86199 0
M  V30 12730 O 192.649 5.12391 7.179 0
M  V30 12731 O 193.189 5.99158 4.88404 0
M  V30 12732 C 194.129 6.60234 3.96415 0
M  V30 12733 C 193.399 7.08259 2.72856 0
M  V30 12734 O 193.189 5.9427 1.83651 0
M  V30 12735 C 191.999 7.64886 2.9555 0
M  V30 12736 O 191.609 8.53963 1.90717 0
M  V30 12737 C 191.119 6.4116 2.90739 0
M  V30 12738 C 191.829 5.55375 1.86963 0
M  V30 12739 N 191.779 4.09664 2.15742 0
M  V30 12740 H 194.618 7.45574 4.45629 0
M  V30 12741 H 194.89 5.86232 3.67314 0
M  V30 12742 H 194.022 7.84412 2.24479 0
M  V30 12743 P 190.059 8.7635 1.60911 0
M  V30 12744 O 189.839 10.1388 1.11561 0
M  V30 12745 O 189.269 8.36503 2.79617 0
M  V30 12746 O 189.809 7.71806 0.42951 0
M  V30 12747 C 190.749 7.67148 -0.673689 0
M  V30 12748 C 190.019 7.33374 -1.95559 0
M  V30 12749 O 189.809 5.88721 -2.00726 0
M  V30 12750 C 188.619 7.92526 -2.10483 0
M  V30 12751 O 188.229 8.02971 -3.47653 0
M  V30 12752 C 187.739 6.89602 -1.41652 0
M  V30 12753 C 188.449 5.59201 -1.75185 0
M  V30 12754 N 188.399 4.58235 -0.662552 0
M  V30 12755 H 191.238 8.65116 -0.777161 0
M  V30 12756 H 191.51 6.90173 -0.474152 0
M  V30 12757 H 190.642 7.66548 -2.79458 0
M  V30 12758 P 186.679 8.03563 -3.84925 0
M  V30 12759 O 186.459 8.85821 -5.0569 0
M  V30 12760 O 185.889 8.41101 -2.65469 0
M  V30 12761 O 186.429 6.49734 -4.18962 0
M  V30 12762 C 187.369 5.81037 -5.05421 0
M  V30 12763 C 186.639 4.79018 -5.88876 0
M  V30 12764 O 186.429 3.58359 -5.08515 0
M  V30 12765 C 185.239 5.17448 -6.36119 0
M  V30 12766 O 184.849 4.45322 -7.53318 0
M  V30 12767 C 184.359 4.74639 -5.19936 0
M  V30 12768 C 185.069 3.49432 -4.70418 0
M  V30 12769 N 185.019 3.31776 -3.22945 0
M  V30 12770 C 184.869 2.02742 -2.72939 0
M  V30 12771 O 184.779 1.08301 -3.52749 0
M  V30 12772 N 184.819 1.96117 -1.22063 0
M  V30 12773 C 184.919 2.8878 -0.551566 0
M  V30 12774 N 184.869 2.65609 0.750198 0
M  V30 12775 C 185.069 4.22457 -1.03707 0
M  V30 12776 C 185.119 4.37979 -2.39113 0
M  V30 12777 H 187.859 6.54138 -5.7131 0
M  V30 12778 H 188.129 5.30492 -4.44033 0
M  V30 12779 H 187.262 4.55945 -6.76735 0
M  V30 12780 H 184.607 2.6176 -5.18021 0
M  V30 12781 H 184.327 5.52233 -4.41941 0
M  V30 12782 H 183.336 4.52045 -5.53452 0
M  V30 12783 H 185.17 6.25124 -6.55234 0
M  V30 12784 H 185.242 5.37936 -2.80552 0
M  V30 12785 H 185.14 5.07528 -0.359553 0
M  V30 12786 H 184.752 1.69403 1.09847 0
M  V30 12787 H 184.948 3.43701 1.41792 0
M  V30 12788 P 183.299 4.23843 -7.83734 0
M  V30 12789 O 183.079 4.19407 -9.29784 0
M  V30 12790 O 182.509 5.24426 -7.09156 0
M  V30 12791 O 183.049 2.79386 -7.20852 0
M  V30 12792 C 183.989 1.7299 -7.50419 0
M  V30 12793 C 183.259 0.41401 -7.5797 0
M  V30 12794 O 183.049 -0.089787 -6.22035 0
M  V30 12795 C 181.859 0.447224 -8.1878 0
M  V30 12796 O 181.469 -0.825159 -8.71201 0
M  V30 12797 C 180.979 0.783801 -6.99623 0
M  V30 12798 C 181.689 0.0619192 -5.85967 0
M  V30 12799 N 181.639 0.7859 -4.56281 0
M  V30 12800 C 181.489 0.0359258 -3.39981 0
M  V30 12801 O 181.399 -1.19723 -3.49038 0
M  V30 12802 N 181.439 0.869151 -2.14025 0
M  V30 12803 C 181.539 2.01207 -2.14363 0
M  V30 12804 N 181.489 2.58978 -0.954287 0
M  V30 12805 C 181.689 2.80817 -3.32215 0
M  V30 12806 C 181.739 2.13785 -4.50884 0
M  V30 12807 H 184.479 1.93401 -8.46693 0
M  V30 12808 H 184.749 1.68181 -6.71046 0
M  V30 12809 H 183.882 -0.289076 -8.15488 0
M  V30 12810 H 181.227 -0.927166 -5.72947 0
M  V30 12811 H 180.947 1.87 -6.82132 0
M  V30 12812 H 179.956 0.404009 -7.13457 0
M  V30 12813 H 181.79 1.20599 -8.97534 0
M  V30 12814 H 181.862 2.70295 -5.43162 0
M  V30 12815 H 181.76 3.89465 -3.27406 0
M  V30 12816 H 181.372 2.01616 -0.107046 0
M  V30 12817 H 181.568 3.61403 -0.873101 0
M  V30 12818 P 179.919 -1.17771 -8.83182 0
M  V30 12819 O 179.699 -2.07206 -9.98732 0
M  V30 12820 O 179.129 0.0743816 -8.81969 0
M  V30 12821 O 179.669 -1.97652 -7.47304 0
M  V30 12822 C 180.609 -3.01133 -7.08783 0
M  V30 12823 C 179.879 -4.12613 -6.37049 0
M  V30 12824 O 179.669 -3.72827 -4.97879 0
M  V30 12825 C 178.479 -4.45085 -6.88694 0
M  V30 12826 O 178.089 -5.7877 -6.5624 0
M  V30 12827 C 177.599 -3.47817 -6.12078 0
M  V30 12828 C 178.309 -3.39414 -4.77697 0
M  V30 12829 N 178.259 -2.04199 -4.15538 0
M  V30 12830 H 181.098 -3.41248 -7.98759 0
M  V30 12831 H 181.37 -2.57728 -6.42 0
M  V30 12832 H 180.502 -5.02657 -6.42673 0
M  V30 12833 H 177.847 -4.11708 -4.08956 0
M  V30 12834 H 177.567 -2.49626 -6.61679 0
M  V30 12835 H 176.576 -3.8662 -6.00862 0
M  V30 12836 H 178.41 -4.29991 -7.97006 0
M  V30 12837 P 176.539 -6.144 -6.45285 0
M  V30 12838 O 176.319 -7.54673 -6.86199 0
M  V30 12839 O 175.749 -5.12391 -7.179 0
M  V30 12840 O 176.289 -5.99236 -4.88467 0
M  V30 12841 C 177.229 -6.60234 -3.96415 0
M  V30 12842 C 176.499 -7.08079 -2.736 0
M  V30 12843 O 176.289 -5.94365 -1.8368 0
M  V30 12844 C 175.099 -7.64886 -2.9555 0
M  V30 12845 O 174.709 -8.5406 -1.90739 0
M  V30 12846 C 174.219 -6.4116 -2.90739 0
M  V30 12847 C 174.929 -5.55375 -1.86963 0
M  V30 12848 N 174.879 -4.09664 -2.15742 0
M  V30 12849 C 174.729 -3.22231 -1.08477 0
M  V30 12850 O 174.639 -3.68951 0.0600489 0
M  V30 12851 N 174.679 -1.76692 -1.48799 0
M  V30 12852 C 174.779 -1.41695 -2.57602 0
M  V30 12853 N 174.729 -0.107296 -2.75791 0
M  V30 12854 C 174.929 -2.29178 -3.69733 0
M  V30 12855 C 174.979 -3.62753 -3.42653 0
M  V30 12856 H 177.719 -7.45488 -4.45578 0
M  V30 12857 H 177.989 -5.86232 -3.67314 0
M  V30 12858 H 177.122 -7.84508 -2.24507 0
M  V30 12859 H 174.467 -5.73556 -0.888715 0
M  V30 12860 H 174.187 -5.9096 -3.88638 0
M  V30 12861 H 173.196 -6.66053 -2.58894 0
M  V30 12862 H 175.03 -8.16339 -3.92049 0
M  V30 12863 H 175.102 -4.33052 -4.24913 0
M  V30 12864 H 175 -1.9103 -4.71577 0
M  V30 12865 H 174.612 0.521221 -1.95056 0
M  V30 12866 H 174.808 0.286429 -3.70695 0
M  V30 12867 P 173.159 -8.7635 -1.60911 0
M  V30 12868 O 172.939 -10.1388 -1.11561 0
M  V30 12869 O 172.369 -8.36503 -2.79617 0
M  V30 12870 O 172.909 -7.71806 -0.42951 0
M  V30 12871 C 173.849 -7.67148 0.673689 0
M  V30 12872 C 173.119 -7.33374 1.95559 0
M  V30 12873 O 172.909 -5.88721 2.00726 0
M  V30 12874 C 171.719 -7.92526 2.10483 0
M  V30 12875 O 171.329 -8.02971 3.47653 0
M  V30 12876 C 170.839 -6.89602 1.41652 0
M  V30 12877 C 171.549 -5.59201 1.75185 0
M  V30 12878 N 171.499 -4.58235 0.662552 0
M  V30 12879 H 174.338 -8.65116 0.777161 0
M  V30 12880 H 174.61 -6.90173 0.474152 0
M  V30 12881 H 173.742 -7.66548 2.79458 0
M  V30 12882 P 169.779 -8.03563 3.84925 0
M  V30 12883 O 169.559 -8.85821 5.0569 0
M  V30 12884 O 168.989 -8.41101 2.65469 0
M  V30 12885 O 169.529 -6.4965 4.18908 0
M  V30 12886 C 170.469 -5.80886 5.05289 0
M  V30 12887 C 169.739 -4.78366 5.89277 0
M  V30 12888 O 169.529 -3.58302 5.08433 0
M  V30 12889 C 168.339 -5.16748 6.36559 0
M  V30 12890 O 167.949 -4.45271 7.53232 0
M  V30 12891 C 167.459 -4.74572 5.19863 0
M  V30 12892 C 168.169 -3.49373 4.70338 0
M  V30 12893 N 168.119 -3.31704 3.22876 0
M  V30 12894 C 167.969 -2.03326 2.74871 0
M  V30 12895 O 167.879 -1.06486 3.48076 0
M  V30 12896 N 167.929 -1.91838 1.37456 0
M  V30 12897 C 168.019 -2.94295 0.462035 0
M  V30 12898 C 168.169 -4.25064 1.05249 0
M  V30 12899 C 168.219 -4.40214 2.39192 0
M  V30 12900 H 170.96 -6.54063 5.71245 0
M  V30 12901 H 171.229 -5.30339 4.43905 0
M  V30 12902 H 170.362 -4.55889 6.76652 0
M  V30 12903 H 167.707 -2.6167 5.17842 0
M  V30 12904 H 167.428 -5.52155 4.41878 0
M  V30 12905 H 166.436 -4.51918 5.53297 0
M  V30 12906 H 168.27 -6.25055 6.55162 0
M  V30 12907 H 168.341 -5.39798 2.81523 0
M  V30 12908 P 166.399 -4.23843 7.83734 0
M  V30 12909 O 166.179 -4.19407 9.29784 0
M  V30 12910 O 165.609 -5.24426 7.09156 0
M  V30 12911 O 166.149 -2.7935 7.20758 0
M  V30 12912 C 167.089 -1.7299 7.50419 0
M  V30 12913 C 166.359 -0.406376 7.57911 0
M  V30 12914 O 166.149 0.0897726 6.21935 0
M  V30 12915 C 164.959 -0.447224 8.1878 0
M  V30 12916 O 164.569 0.825065 8.71101 0
M  V30 12917 C 164.079 -0.783801 6.99623 0
M  V30 12918 C 164.789 -0.0619192 5.85967 0
M  V30 12919 N 164.739 -0.790462 4.56202 0
M  V30 12920 C 164.819 -2.13895 4.34171 0
M  V30 12921 N 164.749 -2.46449 3.08687 0
M  V30 12922 C 164.599 -1.2525 2.43697 0
M  V30 12923 C 164.469 -0.914535 1.07318 0
M  V30 12924 N 164.459 -1.80782 0.0887348 0
M  V30 12925 N 164.349 0.386745 0.768133 0
M  V30 12926 C 164.359 1.28096 1.75159 0
M  V30 12927 N 164.479 1.09708 3.04861 0
M  V30 12928 C 164.599 -0.214857 3.32306 0
M  V30 12929 H 167.578 -1.93423 8.4679 0
M  V30 12930 H 167.85 -1.68852 6.70877 0
M  V30 12931 H 166.982 0.289041 8.15388 0
M  V30 12932 H 164.327 0.927006 5.72848 0
M  V30 12933 H 164.047 -1.86973 6.82036 0
M  V30 12934 H 163.056 -0.403953 7.13357 0
M  V30 12935 H 164.89 -1.20599 8.97534 0
M  V30 12936 H 164.931 -2.86846 5.14318 0
M  V30 12937 H 164.55 -2.81082 0.302037 0
M  V30 12938 H 164.361 -1.49688 -0.889064 0
M  V30 12939 H 164.253 2.31317 1.43855 0
M  V30 12940 P 163.019 1.17771 8.83182 0
M  V30 12941 O 162.799 2.07206 9.98732 0
M  V30 12942 O 162.229 -0.0743816 8.81969 0
M  V30 12943 O 162.769 1.97652 7.47304 0
M  V30 12944 C 163.709 3.01133 7.08783 0
M  V30 12945 C 162.979 4.12613 6.37049 0
M  V30 12946 O 162.769 3.72827 4.97879 0
M  V30 12947 C 161.579 4.45085 6.88694 0
M  V30 12948 O 161.189 5.7877 6.5624 0
M  V30 12949 C 160.699 3.47817 6.12078 0
M  V30 12950 C 161.409 3.39414 4.77697 0
M  V30 12951 N 161.359 2.04615 4.15333 0
M  V30 12952 H 164.198 3.41248 7.98759 0
M  V30 12953 H 164.47 2.5837 6.41742 0
M  V30 12954 H 163.602 5.02657 6.42673 0
M  V30 12955 P 159.639 6.144 6.45285 0
M  V30 12956 O 159.419 7.54673 6.86199 0
M  V30 12957 O 158.849 5.12391 7.179 0
M  V30 12958 O 159.389 5.99158 4.88404 0
M  V30 12959 C 160.329 6.60234 3.96415 0
M  V30 12960 C 159.599 7.08259 2.72856 0
M  V30 12961 O 159.389 5.9427 1.83651 0
M  V30 12962 C 158.199 7.64886 2.9555 0
M  V30 12963 O 157.809 8.53963 1.90717 0
M  V30 12964 C 157.319 6.4116 2.90739 0
M  V30 12965 C 158.029 5.55375 1.86963 0
M  V30 12966 N 157.979 4.09448 2.16152 0
M  V30 12967 C 158.059 3.46824 3.37593 0
M  V30 12968 N 157.989 2.17422 3.29777 0
M  V30 12969 C 157.839 1.93065 1.94427 0
M  V30 12970 C 157.709 0.738053 1.20141 0
M  V30 12971 N 157.699 -0.474256 1.74676 0
M  V30 12972 N 157.589 0.850049 -0.13045 0
M  V30 12973 C 157.599 2.06169 -0.676992 0
M  V30 12974 N 157.719 3.23842 -0.101312 0
M  V30 12975 C 157.839 3.09402 1.23122 0
M  V30 12976 H 160.818 7.45574 4.45629 0
M  V30 12977 H 161.09 5.85864 3.679 0
M  V30 12978 H 160.222 7.84412 2.24479 0
M  V30 12979 H 157.567 5.73457 0.888562 0
M  V30 12980 H 157.287 5.90877 3.88583 0
M  V30 12981 H 156.296 6.6596 2.58858 0
M  V30 12982 H 158.13 8.16339 3.92049 0
M  V30 12983 H 158.171 4.00505 4.3174 0
M  V30 12984 H 157.79 -0.581337 2.76658 0
M  V30 12985 H 157.601 -1.30811 1.14888 0
M  V30 12986 H 157.493 2.08295 -1.75542 0
M  V30 12987 P 156.259 8.7635 1.60911 0
M  V30 12988 O 156.039 10.1388 1.11561 0
M  V30 12989 O 155.469 8.36503 2.79617 0
M  V30 12990 O 156.009 7.71806 0.42951 0
M  V30 12991 C 156.949 7.67148 -0.673689 0
M  V30 12992 C 156.219 7.33374 -1.95559 0
M  V30 12993 O 156.009 5.88721 -2.00726 0
M  V30 12994 C 154.819 7.92526 -2.10483 0
M  V30 12995 O 154.429 8.02971 -3.47653 0
M  V30 12996 C 153.939 6.89602 -1.41652 0
M  V30 12997 C 154.649 5.59201 -1.75185 0
M  V30 12998 N 154.599 4.58301 -0.657969 0
M  V30 12999 H 157.438 8.65116 -0.777161 0
M  V30 13000 H 157.71 6.9022 -0.46725 0
M  V30 13001 H 156.842 7.66548 -2.79458 0
M  V30 13002 H 154.187 5.16165 -2.65183 0
M  V30 13003 H 153.907 7.06433 -0.329384 0
M  V30 13004 H 152.916 6.90926 -1.82021 0
M  V30 13005 H 154.75 8.90873 -1.62657 0
M  V30 13006 P 152.879 8.03563 -3.84925 0
M  V30 13007 O 152.659 8.85821 -5.0569 0
M  V30 13008 O 152.089 8.41101 -2.65469 0
M  V30 13009 O 152.629 6.4965 -4.18908 0
M  V30 13010 C 153.569 5.80886 -5.05289 0
M  V30 13011 C 152.839 4.78366 -5.89277 0
M  V30 13012 O 152.629 3.58302 -5.08433 0
M  V30 13013 C 151.439 5.16748 -6.36559 0
M  V30 13014 O 151.049 4.45271 -7.53232 0
M  V30 13015 C 150.559 4.74572 -5.19863 0
M  V30 13016 C 151.269 3.49373 -4.70338 0
M  V30 13017 N 151.219 3.31704 -3.22876 0
M  V30 13018 C 151.069 2.03326 -2.74871 0
M  V30 13019 O 150.979 1.06486 -3.48076 0
M  V30 13020 N 151.029 1.91838 -1.37456 0
M  V30 13021 C 151.119 2.94295 -0.462035 0
M  V30 13022 O 151.069 2.71763 0.752928 0
M  V30 13023 C 151.269 4.25064 -1.05249 0
M  V30 13024 C 151.379 5.39815 -0.095697 0
M  V30 13025 C 151.319 4.40214 -2.39192 0
M  V30 13026 H 154.06 6.54063 -5.71245 0
M  V30 13027 H 154.329 5.30339 -4.43905 0
M  V30 13028 H 153.462 4.55889 -6.76652 0
M  V30 13029 H 150.807 2.6167 -5.17842 0
M  V30 13030 H 150.528 5.52155 -4.41878 0
M  V30 13031 H 149.536 4.51918 -5.53297 0
M  V30 13032 H 151.37 6.25055 -6.55162 0
M  V30 13033 H 151.441 5.39798 -2.81523 0
M  V30 13034 H 150.411 5.91593 -0.0279582 0
M  V30 13035 H 152.148 6.10038 -0.450573 0
M  V30 13036 H 151.66 5.02007 0.89937 0
M  V30 13037 H 150.924 0.995326 -1.00435 0
M  V30 13038 P 149.499 4.23843 -7.83734 0
M  V30 13039 O 149.279 4.19407 -9.29784 0
M  V30 13040 O 148.709 5.24426 -7.09156 0
M  V30 13041 O 149.249 2.7935 -7.20758 0
M  V30 13042 C 150.189 1.7299 -7.50419 0
M  V30 13043 C 149.459 0.406376 -7.57911 0
M  V30 13044 O 149.249 -0.0897726 -6.21935 0
M  V30 13045 C 148.059 0.447224 -8.1878 0
M  V30 13046 O 147.669 -0.825065 -8.71101 0
M  V30 13047 C 147.179 0.783801 -6.99623 0
M  V30 13048 C 147.889 0.0619192 -5.85967 0
M  V30 13049 N 147.839 0.790462 -4.56202 0
M  V30 13050 H 150.678 1.93423 -8.4679 0
M  V30 13051 H 150.95 1.68852 -6.70877 0
M  V30 13052 H 150.082 -0.289041 -8.15388 0
M  V30 13053 H 147.427 -0.927006 -5.72848 0
M  V30 13054 H 147.147 1.86973 -6.82036 0
M  V30 13055 H 146.156 0.403953 -7.13357 0
M  V30 13056 H 147.99 1.20599 -8.97534 0
M  V30 13057 P 146.119 -1.17771 -8.83182 0
M  V30 13058 O 145.899 -2.07206 -9.98732 0
M  V30 13059 O 145.329 0.0743816 -8.81969 0
M  V30 13060 O 145.869 -1.97652 -7.47304 0
M  V30 13061 C 146.809 -3.01133 -7.08783 0
M  V30 13062 C 146.079 -4.12613 -6.37049 0
M  V30 13063 O 145.869 -3.72827 -4.97879 0
M  V30 13064 C 144.679 -4.45085 -6.88694 0
M  V30 13065 O 144.289 -5.7877 -6.5624 0
M  V30 13066 C 143.799 -3.47817 -6.12078 0
M  V30 13067 C 144.509 -3.39414 -4.77697 0
M  V30 13068 N 144.459 -2.04615 -4.15333 0
M  V30 13069 H 147.298 -3.41248 -7.98759 0
M  V30 13070 H 147.57 -2.5837 -6.41742 0
M  V30 13071 H 146.702 -5.02657 -6.42673 0
M  V30 13072 P 142.739 -6.144 -6.45285 0
M  V30 13073 O 142.519 -7.54673 -6.86199 0
M  V30 13074 O 141.949 -5.12391 -7.179 0
M  V30 13075 O 142.489 -5.99158 -4.88404 0
M  V30 13076 C 143.429 -6.60234 -3.96415 0
M  V30 13077 C 142.699 -7.08259 -2.72856 0
M  V30 13078 O 142.489 -5.9427 -1.83651 0
M  V30 13079 C 141.299 -7.64886 -2.9555 0
M  V30 13080 O 140.909 -8.53963 -1.90717 0
M  V30 13081 C 140.419 -6.4116 -2.90739 0
M  V30 13082 C 141.129 -5.55375 -1.86963 0
M  V30 13083 N 141.079 -4.09448 -2.16152 0
M  V30 13084 H 143.918 -7.45574 -4.45629 0
M  V30 13085 H 144.19 -5.85864 -3.679 0
M  V30 13086 H 143.322 -7.84412 -2.24479 0
M  V30 13087 H 140.667 -5.73457 -0.888562 0
M  V30 13088 H 140.387 -5.90877 -3.88583 0
M  V30 13089 H 139.396 -6.6596 -2.58858 0
M  V30 13090 H 141.23 -8.16339 -3.92049 0
M  V30 13091 P 139.359 -8.7635 -1.60911 0
M  V30 13092 O 139.139 -10.1388 -1.11561 0
M  V30 13093 O 138.569 -8.36503 -2.79617 0
M  V30 13094 O 139.109 -7.71806 -0.42951 0
M  V30 13095 C 140.049 -7.66948 0.673514 0
M  V30 13096 C 139.319 -7.33374 1.95559 0
M  V30 13097 O 139.109 -5.88721 2.00726 0
M  V30 13098 C 137.919 -7.92218 2.1125 0
M  V30 13099 O 137.529 -8.02971 3.47653 0
M  V30 13100 C 137.039 -6.89504 1.41631 0
M  V30 13101 C 137.749 -5.59106 1.75155 0
M  V30 13102 N 137.699 -4.58136 0.662409 0
M  V30 13103 C 137.549 -3.26059 1.02863 0
M  V30 13104 O 137.459 -2.90743 2.19009 0
M  V30 13105 N 137.509 -2.35995 -0.0155585 0
M  V30 13106 C 137.599 -2.65248 -1.35603 0
M  V30 13107 O 137.549 -1.75605 -2.20651 0
M  V30 13108 C 137.749 -4.05747 -1.64698 0
M  V30 13109 C 137.859 -4.42345 -3.09553 0
M  V30 13110 C 137.799 -4.96734 -0.652411 0
M  V30 13111 H 140.54 -8.64917 0.776982 0
M  V30 13112 H 140.809 -6.89974 0.474015 0
M  V30 13113 H 139.942 -7.66548 2.79458 0
M  V30 13114 H 137.287 -5.16076 2.65138 0
M  V30 13115 H 137.008 -7.06433 0.329384 0
M  V30 13116 H 136.016 -6.90829 1.81996 0
M  V30 13117 H 137.85 -8.90774 1.62639 0
M  V30 13118 H 137.921 -6.02181 -0.895285 0
M  V30 13119 H 136.891 -4.80252 -3.45468 0
M  V30 13120 H 138.628 -5.20015 -3.22119 0
M  V30 13121 H 138.14 -3.53269 -3.67833 0
M  V30 13122 H 137.404 -1.39558 0.227499 0
M  V30 13123 P 135.979 -8.03563 3.84925 0
M  V30 13124 O 135.759 -8.85821 5.0569 0
M  V30 13125 O 135.189 -8.41101 2.65469 0
M  V30 13126 O 135.729 -6.49734 4.18962 0
M  V30 13127 C 136.669 -5.81037 5.05421 0
M  V30 13128 C 135.939 -4.79018 5.88876 0
M  V30 13129 O 135.729 -3.58359 5.08515 0
M  V30 13130 C 134.539 -5.17448 6.36119 0
M  V30 13131 O 134.149 -4.45322 7.53318 0
M  V30 13132 C 133.659 -4.74639 5.19936 0
M  V30 13133 C 134.369 -3.49432 4.70418 0
M  V30 13134 N 134.319 -3.31776 3.22945 0
M  V30 13135 C 134.169 -2.02742 2.72939 0
M  V30 13136 O 134.079 -1.08301 3.52749 0
M  V30 13137 N 134.119 -1.96117 1.22063 0
M  V30 13138 C 134.219 -2.8878 0.551566 0
M  V30 13139 N 134.169 -2.65609 -0.750198 0
M  V30 13140 C 134.369 -4.22457 1.03707 0
M  V30 13141 C 134.419 -4.37979 2.39113 0
M  V30 13142 H 137.159 -6.54138 5.7131 0
M  V30 13143 H 137.429 -5.30492 4.44033 0
M  V30 13144 H 136.562 -4.55945 6.76735 0
M  V30 13145 H 133.907 -2.6176 5.18021 0
M  V30 13146 H 133.627 -5.52233 4.41941 0
M  V30 13147 H 132.636 -4.52045 5.53452 0
M  V30 13148 H 134.47 -6.25124 6.55234 0
M  V30 13149 H 134.542 -5.37936 2.80552 0
M  V30 13150 H 134.44 -5.07528 0.359553 0
M  V30 13151 H 134.052 -1.69403 -1.09847 0
M  V30 13152 H 134.248 -3.43701 -1.41792 0
M  V30 13153 P 132.599 -4.23843 7.83734 0
M  V30 13154 O 132.379 -4.19407 9.29784 0
M  V30 13155 O 131.809 -5.24426 7.09156 0
M  V30 13156 O 132.349 -2.7935 7.20758 0
M  V30 13157 C 133.289 -1.7299 7.50419 0
M  V30 13158 C 132.559 -0.406376 7.57911 0
M  V30 13159 O 132.349 0.0897726 6.21935 0
M  V30 13160 C 131.159 -0.447224 8.1878 0
M  V30 13161 O 130.769 0.825065 8.71101 0
M  V30 13162 C 130.279 -0.783801 6.99623 0
M  V30 13163 C 130.989 -0.0619192 5.85967 0
M  V30 13164 N 130.939 -0.7859 4.56281 0
M  V30 13165 H 133.778 -1.93423 8.4679 0
M  V30 13166 H 134.05 -1.68181 6.71046 0
M  V30 13167 H 133.182 0.289041 8.15388 0
M  V30 13168 P 129.219 1.17771 8.83182 0
M  V30 13169 O 128.999 2.07206 9.98732 0
M  V30 13170 O 128.429 -0.0743816 8.81969 0
M  V30 13171 O 128.969 1.97652 7.47304 0
M  V30 13172 C 129.909 3.01133 7.08783 0
M  V30 13173 C 129.179 4.12613 6.37049 0
M  V30 13174 O 128.969 3.72827 4.97879 0
M  V30 13175 C 127.779 4.45085 6.88694 0
M  V30 13176 O 127.389 5.7877 6.5624 0
M  V30 13177 C 126.899 3.47817 6.12078 0
M  V30 13178 C 127.609 3.39414 4.77697 0
M  V30 13179 N 127.559 2.04199 4.15538 0
M  V30 13180 C 127.639 0.821545 4.76977 0
M  V30 13181 N 127.569 -0.1794 3.94592 0
M  V30 13182 C 127.419 0.419121 2.70776 0
M  V30 13183 C 127.289 -0.109072 1.40577 0
M  V30 13184 N 127.279 -1.4104 1.1344 0
M  V30 13185 N 127.169 0.764381 0.39411 0
M  V30 13186 C 127.179 2.06587 0.664135 0
M  V30 13187 N 127.299 2.67948 1.82153 0
M  V30 13188 C 127.419 1.77942 2.8147 0
M  V30 13189 H 130.398 3.41248 7.98759 0
M  V30 13190 H 130.67 2.57728 6.42 0
M  V30 13191 H 129.802 5.02657 6.42673 0
M  V30 13192 H 127.147 4.11708 4.08956 0
M  V30 13193 H 126.867 2.49626 6.61679 0
M  V30 13194 H 125.876 3.8662 6.00862 0
M  V30 13195 H 127.71 4.29991 7.97006 0
M  V30 13196 H 127.751 0.702451 5.84696 0
M  V30 13197 H 127.37 -2.09647 1.89651 0
M  V30 13198 H 127.181 -1.73358 0.160575 0
M  V30 13199 H 127.073 2.71695 -0.195838 0
M  V30 13200 P 125.839 6.144 6.45285 0
M  V30 13201 O 125.619 7.54673 6.86199 0
M  V30 13202 O 125.049 5.12391 7.179 0
M  V30 13203 O 125.589 5.99158 4.88404 0
M  V30 13204 C 126.529 6.60234 3.96415 0
M  V30 13205 C 125.799 7.08259 2.72856 0
M  V30 13206 O 125.589 5.9427 1.83651 0
M  V30 13207 C 124.399 7.64886 2.9555 0
M  V30 13208 O 124.009 8.53963 1.90717 0
M  V30 13209 C 123.519 6.4116 2.90739 0
M  V30 13210 C 124.229 5.55375 1.86963 0
M  V30 13211 N 124.179 4.09664 2.15742 0
M  V30 13212 H 127.018 7.45574 4.45629 0
M  V30 13213 H 127.29 5.86232 3.67314 0
M  V30 13214 H 126.422 7.84412 2.24479 0
M  V30 13215 P 122.459 8.7635 1.60911 0
M  V30 13216 O 122.239 10.1388 1.11561 0
M  V30 13217 O 121.669 8.36503 2.79617 0
M  V30 13218 O 122.209 7.71806 0.42951 0
M  V30 13219 C 123.149 7.67148 -0.673689 0
M  V30 13220 C 122.419 7.33374 -1.95559 0
M  V30 13221 O 122.209 5.88721 -2.00726 0
M  V30 13222 C 121.019 7.92526 -2.10483 0
M  V30 13223 O 120.629 8.02971 -3.47653 0
M  V30 13224 C 120.139 6.89602 -1.41652 0
M  V30 13225 C 120.849 5.59201 -1.75185 0
M  V30 13226 N 120.799 4.58301 -0.657969 0
M  V30 13227 H 123.638 8.65116 -0.777161 0
M  V30 13228 H 123.91 6.9022 -0.46725 0
M  V30 13229 H 123.042 7.66548 -2.79458 0
M  V30 13230 H 120.387 5.16165 -2.65183 0
M  V30 13231 H 120.107 7.06433 -0.329384 0
M  V30 13232 H 119.116 6.90926 -1.82021 0
M  V30 13233 H 120.95 8.90873 -1.62657 0
M  V30 13234 P 119.079 8.03563 -3.84925 0
M  V30 13235 O 118.859 8.85821 -5.0569 0
M  V30 13236 O 118.289 8.41101 -2.65469 0
M  V30 13237 O 118.829 6.4965 -4.18908 0
M  V30 13238 C 119.769 5.81037 -5.05421 0
M  V30 13239 C 119.039 4.78366 -5.89277 0
M  V30 13240 O 118.829 3.58302 -5.08433 0
M  V30 13241 C 117.639 5.17448 -6.36119 0
M  V30 13242 O 117.249 4.45271 -7.53232 0
M  V30 13243 C 116.759 4.74639 -5.19936 0
M  V30 13244 C 117.469 3.49432 -4.70418 0
M  V30 13245 N 117.419 3.32099 -3.22613 0
M  V30 13246 H 120.258 6.54213 -5.71376 0
M  V30 13247 H 120.53 5.30936 -4.43503 0
M  V30 13248 H 119.662 4.55889 -6.76652 0
M  V30 13249 H 117.007 2.61715 -5.17932 0
M  V30 13250 H 116.727 5.52155 -4.41878 0
M  V30 13251 H 115.736 4.51981 -5.53374 0
M  V30 13252 H 117.57 6.25124 -6.55234 0
M  V30 13253 P 115.699 4.23843 -7.83734 0
M  V30 13254 O 115.479 4.19407 -9.29784 0
M  V30 13255 O 114.909 5.24426 -7.09156 0
M  V30 13256 O 115.449 2.7935 -7.20758 0
M  V30 13257 C 116.389 1.72945 -7.50224 0
M  V30 13258 C 115.659 0.406376 -7.57911 0
M  V30 13259 O 115.449 -0.0897726 -6.21935 0
M  V30 13260 C 114.259 0.438983 -8.18724 0
M  V30 13261 O 113.869 -0.825065 -8.71101 0
M  V30 13262 C 113.379 0.783689 -6.99524 0
M  V30 13263 C 114.089 0.0619086 -5.85867 0
M  V30 13264 N 114.039 0.78573 -4.56183 0
M  V30 13265 C 113.889 0.0292889 -3.41887 0
M  V30 13266 O 113.799 -1.18445 -3.4419 0
M  V30 13267 N 113.849 0.744061 -2.23964 0
M  V30 13268 C 113.939 2.10932 -2.10362 0
M  V30 13269 O 113.889 2.64117 -0.98825 0
M  V30 13270 C 114.089 2.8202 -3.34994 0
M  V30 13271 C 114.199 4.31095 -3.25037 0
M  V30 13272 C 114.139 2.15547 -4.52261 0
M  V30 13273 H 116.88 1.93379 -8.46595 0
M  V30 13274 H 117.149 1.68132 -6.70852 0
M  V30 13275 H 116.282 -0.289041 -8.15388 0
M  V30 13276 H 113.627 -0.926847 -5.72749 0
M  V30 13277 H 113.348 1.86973 -6.82036 0
M  V30 13278 H 112.356 0.403896 -7.13257 0
M  V30 13279 H 114.19 1.20585 -8.97435 0
M  V30 13280 H 114.261 2.71231 -5.45042 0
M  V30 13281 H 113.231 4.76966 -3.49992 0
M  V30 13282 H 114.968 4.67047 -3.95024 0
M  V30 13283 H 114.48 4.58996 -2.22312 0
M  V30 13284 H 113.744 0.214893 -1.39758 0
M  V30 13285 P 112.319 -1.17771 -8.83182 0
M  V30 13286 O 112.099 -2.07206 -9.98732 0
M  V30 13287 O 111.529 0.0743816 -8.81969 0
M  V30 13288 O 112.069 -1.97652 -7.47304 0
M  V30 13289 C 113.009 -3.01133 -7.08783 0
M  V30 13290 C 112.279 -4.12613 -6.37049 0
M  V30 13291 O 112.069 -3.72827 -4.97879 0
M  V30 13292 C 110.879 -4.45085 -6.88694 0
M  V30 13293 O 110.489 -5.7877 -6.5624 0
M  V30 13294 C 109.999 -3.47817 -6.12078 0
M  V30 13295 C 110.709 -3.39414 -4.77697 0
M  V30 13296 N 110.659 -2.04199 -4.15538 0
M  V30 13297 H 113.498 -3.41248 -7.98759 0
M  V30 13298 H 113.77 -2.57728 -6.42 0
M  V30 13299 H 112.902 -5.02657 -6.42673 0
M  V30 13300 H 110.247 -4.11708 -4.08956 0
M  V30 13301 H 109.967 -2.49626 -6.61679 0
M  V30 13302 H 108.976 -3.8662 -6.00862 0
M  V30 13303 H 110.81 -4.29991 -7.97006 0
M  V30 13304 P 108.939 -6.144 -6.45285 0
M  V30 13305 O 108.719 -7.54673 -6.86199 0
M  V30 13306 O 108.149 -5.12391 -7.179 0
M  V30 13307 O 108.689 -5.99158 -4.88404 0
M  V30 13308 C 109.629 -6.60062 -3.96313 0
M  V30 13309 C 108.899 -7.08259 -2.72856 0
M  V30 13310 O 108.689 -5.9427 -1.83651 0
M  V30 13311 C 107.499 -7.65087 -2.94749 0
M  V30 13312 O 107.109 -8.53963 -1.90717 0
M  V30 13313 C 106.619 -6.41069 -2.90698 0
M  V30 13314 C 107.329 -5.5528 -1.86931 0
M  V30 13315 N 107.279 -4.09575 -2.15696 0
M  V30 13316 C 107.129 -3.24249 -1.08435 0
M  V30 13317 O 107.039 -3.63946 0.0628747 0
M  V30 13318 N 107.089 -1.90009 -1.39973 0
M  V30 13319 C 107.179 -1.34884 -2.65614 0
M  V30 13320 O 107.129 -0.123716 -2.81728 0
M  V30 13321 C 107.329 -2.3145 -3.71736 0
M  V30 13322 C 107.439 -1.75913 -5.10438 0
M  V30 13323 C 107.379 -3.63518 -3.44754 0
M  V30 13324 H 110.12 -7.45402 -4.45526 0
M  V30 13325 H 110.389 -5.86062 -3.67208 0
M  V30 13326 H 109.522 -7.84412 -2.24479 0
M  V30 13327 H 106.867 -5.73358 -0.888409 0
M  V30 13328 H 106.588 -5.90877 -3.88583 0
M  V30 13329 H 105.596 -6.65867 -2.58821 0
M  V30 13330 H 107.43 -8.16248 -3.92006 0
M  V30 13331 H 107.501 -4.34551 -4.26383 0
M  V30 13332 H 106.471 -1.85471 -5.61775 0
M  V30 13333 H 108.208 -2.31364 -5.66257 0
M  V30 13334 H 107.72 -0.695936 -5.05229 0
M  V30 13335 H 106.984 -1.26277 -0.63625 0
M  V30 13336 P 105.559 -8.7635 -1.60911 0
M  V30 13337 O 105.339 -10.1388 -1.11561 0
M  V30 13338 O 104.769 -8.36503 -2.79617 0
M  V30 13339 O 105.309 -7.71806 -0.42951 0
M  V30 13340 C 106.249 -7.67148 0.673689 0
M  V30 13341 C 105.519 -7.33374 1.95559 0
M  V30 13342 O 105.309 -5.88721 2.00726 0
M  V30 13343 C 104.119 -7.92526 2.10483 0
M  V30 13344 O 103.729 -8.02971 3.47653 0
M  V30 13345 C 103.239 -6.89602 1.41652 0
M  V30 13346 C 103.949 -5.59201 1.75185 0
M  V30 13347 N 103.899 -4.58301 0.657969 0
M  V30 13348 H 106.738 -8.65116 0.777161 0
M  V30 13349 H 107.01 -6.9022 0.46725 0
M  V30 13350 H 106.142 -7.66548 2.79458 0
M  V30 13351 H 103.487 -5.16165 2.65183 0
M  V30 13352 H 103.207 -7.06433 0.329384 0
M  V30 13353 H 102.216 -6.90926 1.82021 0
M  V30 13354 H 104.05 -8.90873 1.62657 0
M  V30 13355 P 102.179 -8.03563 3.84925 0
M  V30 13356 O 101.959 -8.85821 5.0569 0
M  V30 13357 O 101.389 -8.41101 2.65469 0
M  V30 13358 O 101.929 -6.4965 4.18908 0
M  V30 13359 C 102.869 -5.81037 5.05421 0
M  V30 13360 C 102.139 -4.78366 5.89277 0
M  V30 13361 O 101.929 -3.58302 5.08433 0
M  V30 13362 C 100.739 -5.17448 6.36119 0
M  V30 13363 O 100.349 -4.45271 7.53232 0
M  V30 13364 C 99.8594 -4.74639 5.19936 0
M  V30 13365 C 100.569 -3.49432 4.70418 0
M  V30 13366 N 100.519 -3.31776 3.22945 0
M  V30 13367 H 103.358 -6.54213 5.71376 0
M  V30 13368 H 103.63 -5.30492 4.44033 0
M  V30 13369 H 102.762 -4.55889 6.76652 0
M  V30 13370 P 98.7994 -4.23843 7.83734 0
M  V30 13371 O 98.5794 -4.19407 9.29784 0
M  V30 13372 O 98.0094 -5.24426 7.09156 0
M  V30 13373 O 98.5494 -2.7935 7.20758 0
M  V30 13374 C 99.4894 -1.7299 7.50419 0
M  V30 13375 C 98.7594 -0.406376 7.57911 0
M  V30 13376 O 98.5494 0.0897726 6.21935 0
M  V30 13377 C 97.3594 -0.447224 8.1878 0
M  V30 13378 O 96.9694 0.825065 8.71101 0
M  V30 13379 C 96.4794 -0.783801 6.99623 0
M  V30 13380 C 97.1894 -0.0619192 5.85967 0
M  V30 13381 N 97.1394 -0.7859 4.56281 0
M  V30 13382 H 99.9784 -1.93423 8.4679 0
M  V30 13383 H 100.25 -1.68181 6.71046 0
M  V30 13384 H 99.3824 0.289041 8.15388 0
M  V30 13385 P 95.4195 1.17771 8.83182 0
M  V30 13386 O 95.1995 2.07206 9.98732 0
M  V30 13387 O 94.6295 -0.0743816 8.81969 0
M  V30 13388 O 95.1695 1.97652 7.47304 0
M  V30 13389 C 96.1095 3.01133 7.08783 0
M  V30 13390 C 95.3795 4.12613 6.37049 0
M  V30 13391 O 95.1695 3.72827 4.97879 0
M  V30 13392 C 93.9795 4.45085 6.88694 0
M  V30 13393 O 93.5895 5.7877 6.5624 0
M  V30 13394 C 93.0995 3.47817 6.12078 0
M  V30 13395 C 93.8095 3.39414 4.77697 0
M  V30 13396 N 93.7595 2.04615 4.15333 0
M  V30 13397 H 96.5985 3.41248 7.98759 0
M  V30 13398 H 96.8705 2.5837 6.41742 0
M  V30 13399 H 96.0025 5.02657 6.42673 0
M  V30 13400 P 92.0395 6.144 6.45285 0
M  V30 13401 O 91.8195 7.54673 6.86199 0
M  V30 13402 O 91.2495 5.12391 7.179 0
M  V30 13403 O 91.7895 5.99158 4.88404 0
M  V30 13404 C 92.7295 6.60234 3.96415 0
M  V30 13405 C 91.9995 7.08259 2.72856 0
M  V30 13406 O 91.7895 5.9427 1.83651 0
M  V30 13407 C 90.5995 7.64886 2.9555 0
M  V30 13408 O 90.2095 8.53963 1.90717 0
M  V30 13409 C 89.7195 6.4116 2.90739 0
M  V30 13410 C 90.4295 5.55375 1.86963 0
M  V30 13411 N 90.3795 4.09448 2.16152 0
M  V30 13412 C 90.4595 3.46824 3.37593 0
M  V30 13413 N 90.3895 2.17422 3.29777 0
M  V30 13414 C 90.2395 1.93065 1.94427 0
M  V30 13415 C 90.1095 0.738053 1.20141 0
M  V30 13416 N 90.0995 -0.474256 1.74676 0
M  V30 13417 N 89.9895 0.850049 -0.13045 0
M  V30 13418 C 89.9995 2.06169 -0.676992 0
M  V30 13419 N 90.1195 3.23842 -0.101312 0
M  V30 13420 C 90.2395 3.09402 1.23122 0
M  V30 13421 H 93.2185 7.45574 4.45629 0
M  V30 13422 H 93.4905 5.85864 3.679 0
M  V30 13423 H 92.6225 7.84412 2.24479 0
M  V30 13424 H 89.9675 5.73457 0.888562 0
M  V30 13425 H 89.6875 5.90877 3.88583 0
M  V30 13426 H 88.6965 6.6596 2.58858 0
M  V30 13427 H 90.5305 8.16339 3.92049 0
M  V30 13428 H 90.5715 4.00505 4.3174 0
M  V30 13429 H 90.1905 -0.581337 2.76658 0
M  V30 13430 H 90.0015 -1.30811 1.14888 0
M  V30 13431 H 89.8935 2.08295 -1.75542 0
M  V30 13432 P 88.6595 8.7635 1.60911 0
M  V30 13433 O 88.4395 10.1388 1.11561 0
M  V30 13434 O 87.8695 8.36503 2.79617 0
M  V30 13435 O 88.4095 7.71906 0.429565 0
M  V30 13436 C 89.3495 7.67148 -0.673689 0
M  V30 13437 C 88.6195 7.33666 -1.94851 0
M  V30 13438 O 88.4095 5.88816 -2.00759 0
M  V30 13439 C 87.2195 7.92526 -2.10483 0
M  V30 13440 O 86.8295 8.03063 -3.47693 0
M  V30 13441 C 86.3395 6.89602 -1.41652 0
M  V30 13442 C 87.0495 5.59201 -1.75185 0
M  V30 13443 N 86.9995 4.58235 -0.662552 0
M  V30 13444 C 86.8495 3.24451 -1.01643 0
M  V30 13445 O 86.7595 2.94958 -2.21722 0
M  V30 13446 N 86.7995 2.30408 0.165238 0
M  V30 13447 C 86.8995 2.66048 1.25118 0
M  V30 13448 N 86.8495 1.70787 2.16813 0
M  V30 13449 C 87.0495 4.02732 1.64413 0
M  V30 13450 C 87.0995 4.9488 0.63991 0
M  V30 13451 H 89.8395 8.65017 -0.777072 0
M  V30 13452 H 90.1095 6.90173 -0.474152 0
M  V30 13453 H 89.2425 7.66642 -2.79492 0
M  V30 13454 H 86.5875 5.16254 -2.65229 0
M  V30 13455 H 86.3075 7.06532 -0.329431 0
M  V30 13456 H 85.3165 6.91023 -1.82047 0
M  V30 13457 H 87.1505 8.90873 -1.62657 0
M  V30 13458 H 87.2225 6.00104 0.892197 0
M  V30 13459 H 87.1205 4.31733 2.69229 0
M  V30 13460 H 86.7325 0.724835 1.8844 0
M  V30 13461 H 86.9285 1.94716 3.16734 0
M  V30 13462 P 85.2795 8.03563 -3.84925 0
M  V30 13463 O 85.0595 8.85821 -5.0569 0
M  V30 13464 O 84.4895 8.41101 -2.65469 0
M  V30 13465 O 85.0295 6.4965 -4.18908 0
M  V30 13466 C 85.9695 5.81037 -5.05421 0
M  V30 13467 C 85.2395 4.78366 -5.89277 0
M  V30 13468 O 85.0295 3.58302 -5.08433 0
M  V30 13469 C 83.8395 5.17448 -6.36119 0
M  V30 13470 O 83.4495 4.45271 -7.53232 0
M  V30 13471 C 82.9595 4.74639 -5.19936 0
M  V30 13472 C 83.6695 3.49432 -4.70418 0
M  V30 13473 N 83.6195 3.32099 -3.22613 0
M  V30 13474 H 86.4585 6.54213 -5.71376 0
M  V30 13475 H 86.7305 5.30936 -4.43503 0
M  V30 13476 H 85.8625 4.55889 -6.76652 0
M  V30 13477 H 83.2075 2.61715 -5.17932 0
M  V30 13478 H 82.9275 5.52155 -4.41878 0
M  V30 13479 H 81.9365 4.51981 -5.53374 0
M  V30 13480 H 83.7705 6.25124 -6.55234 0
M  V30 13481 P 81.8995 4.23843 -7.83734 0
M  V30 13482 O 81.6795 4.19407 -9.29784 0
M  V30 13483 O 81.1095 5.24426 -7.09156 0
M  V30 13484 O 81.6495 2.7935 -7.20758 0
M  V30 13485 C 82.5895 1.72945 -7.50224 0
M  V30 13486 C 81.8595 0.406376 -7.57911 0
M  V30 13487 O 81.6495 -0.0897726 -6.21935 0
M  V30 13488 C 80.4595 0.438983 -8.18724 0
M  V30 13489 O 80.0695 -0.825065 -8.71101 0
M  V30 13490 C 79.5795 0.783689 -6.99524 0
M  V30 13491 C 80.2895 0.0619086 -5.85867 0
M  V30 13492 N 80.2395 0.78573 -4.56183 0
M  V30 13493 C 80.0895 0.0292889 -3.41887 0
M  V30 13494 O 79.9995 -1.18445 -3.4419 0
M  V30 13495 N 80.0495 0.744061 -2.23964 0
M  V30 13496 C 80.1395 2.10932 -2.10362 0
M  V30 13497 C 80.2895 2.8202 -3.34994 0
M  V30 13498 C 80.3395 2.15547 -4.52261 0
M  V30 13499 H 83.0805 1.93379 -8.46595 0
M  V30 13500 H 83.3495 1.68132 -6.70852 0
M  V30 13501 H 82.4825 -0.289041 -8.15388 0
M  V30 13502 H 79.8275 -0.926847 -5.72749 0
M  V30 13503 H 79.5485 1.86973 -6.82036 0
M  V30 13504 H 78.5565 0.403896 -7.13257 0
M  V30 13505 H 80.3905 1.20585 -8.97435 0
M  V30 13506 H 80.4615 2.71231 -5.45042 0
M  V30 13507 P 78.5196 -1.17771 -8.83182 0
M  V30 13508 O 78.2996 -2.07206 -9.98732 0
M  V30 13509 O 77.7296 0.0743816 -8.81969 0
M  V30 13510 O 78.2696 -1.97652 -7.47304 0
M  V30 13511 C 79.2096 -3.01133 -7.08783 0
M  V30 13512 C 78.4796 -4.12613 -6.37049 0
M  V30 13513 O 78.2696 -3.72827 -4.97879 0
M  V30 13514 C 77.0796 -4.45085 -6.88694 0
M  V30 13515 O 76.6896 -5.7877 -6.5624 0
M  V30 13516 C 76.1996 -3.47817 -6.12078 0
M  V30 13517 C 76.9096 -3.39414 -4.77697 0
M  V30 13518 N 76.8596 -2.04615 -4.15333 0
M  V30 13519 H 79.6986 -3.41248 -7.98759 0
M  V30 13520 H 79.9706 -2.5837 -6.41742 0
M  V30 13521 H 79.1026 -5.02657 -6.42673 0
M  V30 13522 P 75.1396 -6.144 -6.45285 0
M  V30 13523 O 74.9196 -7.54673 -6.86199 0
M  V30 13524 O 74.3496 -5.12391 -7.179 0
M  V30 13525 O 74.8896 -5.99158 -4.88404 0
M  V30 13526 C 75.8296 -6.60234 -3.96415 0
M  V30 13527 C 75.0996 -7.08259 -2.72856 0
M  V30 13528 O 74.8896 -5.9427 -1.83651 0
M  V30 13529 C 73.6996 -7.64886 -2.9555 0
M  V30 13530 O 73.3096 -8.53963 -1.90717 0
M  V30 13531 C 72.8196 -6.4116 -2.90739 0
M  V30 13532 C 73.5296 -5.55375 -1.86963 0
M  V30 13533 N 73.4796 -4.09664 -2.15742 0
M  V30 13534 H 76.3186 -7.45574 -4.45629 0
M  V30 13535 H 76.5906 -5.86232 -3.67314 0
M  V30 13536 H 75.7226 -7.84412 -2.24479 0
M  V30 13537 P 71.7596 -8.7635 -1.60911 0
M  V30 13538 O 71.5396 -10.1388 -1.11561 0
M  V30 13539 O 70.9696 -8.36503 -2.79617 0
M  V30 13540 O 71.5096 -7.71806 -0.42951 0
M  V30 13541 C 72.4496 -7.67148 0.673689 0
M  V30 13542 C 71.7196 -7.33374 1.95559 0
M  V30 13543 O 71.5096 -5.88721 2.00726 0
M  V30 13544 C 70.3196 -7.92526 2.10483 0
M  V30 13545 O 69.9296 -8.02971 3.47653 0
M  V30 13546 C 69.4396 -6.89602 1.41652 0
M  V30 13547 C 70.1496 -5.59201 1.75185 0
M  V30 13548 N 70.0996 -4.58301 0.657969 0
M  V30 13549 C 70.1796 -4.79019 -0.692603 0
M  V30 13550 N 70.1096 -3.69736 -1.38998 0
M  V30 13551 C 69.9596 -2.70474 -0.438135 0
M  V30 13552 C 69.8296 -1.30327 -0.538142 0
M  V30 13553 N 69.8196 -0.64304 -1.69192 0
M  V30 13554 N 69.7096 -0.611027 0.605183 0
M  V30 13555 C 69.7196 -1.27002 1.75953 0
M  V30 13556 N 69.8396 -2.56038 1.98546 0
M  V30 13557 C 69.9596 -3.22681 0.822541 0
M  V30 13558 H 72.9386 -8.65116 0.777161 0
M  V30 13559 H 73.2106 -6.9022 0.46725 0
M  V30 13560 H 72.3426 -7.66548 2.79458 0
M  V30 13561 H 69.6876 -5.16165 2.65183 0
M  V30 13562 H 69.4076 -7.06433 0.329384 0
M  V30 13563 H 68.4166 -6.90926 1.82021 0
M  V30 13564 H 70.2506 -8.90873 1.62657 0
M  V30 13565 H 70.2916 -5.77785 -1.13874 0
M  V30 13566 H 69.9106 -1.15585 -2.57991 0
M  V30 13567 H 69.7216 0.382989 -1.69835 0
M  V30 13568 H 69.6136 -0.653331 2.64449 0
M  V30 13569 P 68.3796 -8.03563 3.84925 0
M  V30 13570 O 68.1596 -8.85821 5.0569 0
M  V30 13571 O 67.5896 -8.41101 2.65469 0
M  V30 13572 O 68.1296 -6.4965 4.18908 0
M  V30 13573 C 69.0696 -5.80886 5.05289 0
M  V30 13574 C 68.3396 -4.78366 5.89277 0
M  V30 13575 O 68.1296 -3.58302 5.08433 0
M  V30 13576 C 66.9396 -5.16748 6.36559 0
M  V30 13577 O 66.5496 -4.45271 7.53232 0
M  V30 13578 C 66.0596 -4.74572 5.19863 0
M  V30 13579 C 66.7696 -3.49373 4.70338 0
M  V30 13580 N 66.7196 -3.31704 3.22876 0
M  V30 13581 C 66.5696 -2.03326 2.74871 0
M  V30 13582 O 66.4796 -1.06486 3.48076 0
M  V30 13583 N 66.5296 -1.91838 1.37456 0
M  V30 13584 C 66.6196 -2.94295 0.462035 0
M  V30 13585 C 66.7696 -4.25064 1.05249 0
M  V30 13586 C 66.8196 -4.40214 2.39192 0
M  V30 13587 H 69.5606 -6.54063 5.71245 0
M  V30 13588 H 69.8296 -5.30339 4.43905 0
M  V30 13589 H 68.9626 -4.55889 6.76652 0
M  V30 13590 H 66.3076 -2.6167 5.17842 0
M  V30 13591 H 66.0286 -5.52155 4.41878 0
M  V30 13592 H 65.0366 -4.51918 5.53297 0
M  V30 13593 H 66.8706 -6.25055 6.55162 0
M  V30 13594 H 66.9416 -5.39798 2.81523 0
M  V30 13595 P 64.9996 -4.23843 7.83734 0
M  V30 13596 O 64.7796 -4.19407 9.29784 0
M  V30 13597 O 64.2096 -5.24426 7.09156 0
M  V30 13598 O 64.7496 -2.7935 7.20758 0
M  V30 13599 C 65.6896 -1.72945 7.50224 0
M  V30 13600 C 64.9596 -0.406376 7.57911 0
M  V30 13601 O 64.7496 0.0897726 6.21935 0
M  V30 13602 C 63.5596 -0.438983 8.18724 0
M  V30 13603 O 63.1696 0.825065 8.71101 0
M  V30 13604 C 62.6796 -0.783689 6.99524 0
M  V30 13605 C 63.3896 -0.0619086 5.85867 0
M  V30 13606 N 63.3396 -0.78573 4.56183 0
M  V30 13607 C 63.1896 -0.0292889 3.41887 0
M  V30 13608 O 63.0996 1.18445 3.4419 0
M  V30 13609 N 63.1496 -0.744061 2.23964 0
M  V30 13610 C 63.2396 -2.10932 2.10362 0
M  V30 13611 C 63.3896 -2.8202 3.34994 0
M  V30 13612 C 63.4396 -2.15547 4.52261 0
M  V30 13613 H 66.1806 -1.93379 8.46595 0
M  V30 13614 H 66.4496 -1.68132 6.70852 0
M  V30 13615 H 65.5826 0.289041 8.15388 0
M  V30 13616 H 62.9276 0.926847 5.72749 0
M  V30 13617 H 62.6486 -1.86973 6.82036 0
M  V30 13618 H 61.6566 -0.403896 7.13257 0
M  V30 13619 H 63.4906 -1.20585 8.97435 0
M  V30 13620 H 63.5616 -2.71231 5.45042 0
M  V30 13621 P 61.6197 1.17771 8.83182 0
M  V30 13622 O 61.3997 2.07206 9.98732 0
M  V30 13623 O 60.8297 -0.0743816 8.81969 0
M  V30 13624 O 61.3697 1.97652 7.47304 0
M  V30 13625 C 62.3097 3.01133 7.08783 0
M  V30 13626 C 61.5797 4.12613 6.37049 0
M  V30 13627 O 61.3697 3.72827 4.97879 0
M  V30 13628 C 60.1797 4.45085 6.88694 0
M  V30 13629 O 59.7897 5.7877 6.5624 0
M  V30 13630 C 59.2997 3.47817 6.12078 0
M  V30 13631 C 60.0097 3.39414 4.77697 0
M  V30 13632 N 59.9597 2.04615 4.15333 0
M  V30 13633 H 62.7987 3.41248 7.98759 0
M  V30 13634 H 63.0707 2.5837 6.41742 0
M  V30 13635 H 62.2027 5.02657 6.42673 0
M  V30 13636 P 58.2397 6.144 6.45285 0
M  V30 13637 O 58.0197 7.54673 6.86199 0
M  V30 13638 O 57.4497 5.12391 7.179 0
M  V30 13639 O 57.9897 5.99158 4.88404 0
M  V30 13640 C 58.9297 6.60234 3.96415 0
M  V30 13641 C 58.1997 7.08259 2.72856 0
M  V30 13642 O 57.9897 5.9427 1.83651 0
M  V30 13643 C 56.7997 7.64886 2.9555 0
M  V30 13644 O 56.4097 8.53963 1.90717 0
M  V30 13645 C 55.9197 6.4116 2.90739 0
M  V30 13646 C 56.6297 5.55375 1.86963 0
M  V30 13647 N 56.5797 4.09448 2.16152 0
M  V30 13648 H 59.4187 7.45574 4.45629 0
M  V30 13649 H 59.6907 5.85864 3.679 0
M  V30 13650 H 58.8227 7.84412 2.24479 0
M  V30 13651 H 56.1677 5.73457 0.888562 0
M  V30 13652 H 55.8877 5.90877 3.88583 0
M  V30 13653 H 54.8967 6.6596 2.58858 0
M  V30 13654 H 56.7307 8.16339 3.92049 0
M  V30 13655 P 54.8597 8.7635 1.60911 0
M  V30 13656 O 54.6397 10.1388 1.11561 0
M  V30 13657 O 54.0697 8.36503 2.79617 0
M  V30 13658 O 54.6097 7.71806 0.42951 0
M  V30 13659 C 55.5497 7.67148 -0.673689 0
M  V30 13660 C 54.8197 7.33374 -1.95559 0
M  V30 13661 O 54.6097 5.88721 -2.00726 0
M  V30 13662 C 53.4197 7.92526 -2.10483 0
M  V30 13663 O 53.0297 8.02971 -3.47653 0
M  V30 13664 C 52.5397 6.89602 -1.41652 0
M  V30 13665 C 53.2497 5.59201 -1.75185 0
M  V30 13666 N 53.1997 4.58301 -0.657969 0
M  V30 13667 H 56.0387 8.65116 -0.777161 0
M  V30 13668 H 56.3107 6.9022 -0.46725 0
M  V30 13669 H 55.4427 7.66548 -2.79458 0
M  V30 13670 H 52.7877 5.16165 -2.65183 0
M  V30 13671 H 52.5077 7.06433 -0.329384 0
M  V30 13672 H 51.5167 6.90926 -1.82021 0
M  V30 13673 H 53.3507 8.90873 -1.62657 0
M  V30 13674 P 51.4797 8.03563 -3.84925 0
M  V30 13675 O 51.2597 8.85821 -5.0569 0
M  V30 13676 O 50.6897 8.41101 -2.65469 0
M  V30 13677 O 51.2297 6.4965 -4.18908 0
M  V30 13678 C 52.1697 5.81037 -5.05421 0
M  V30 13679 C 51.4397 4.78366 -5.89277 0
M  V30 13680 O 51.2297 3.58302 -5.08433 0
M  V30 13681 C 50.0397 5.17448 -6.36119 0
M  V30 13682 O 49.6497 4.45271 -7.53232 0
M  V30 13683 C 49.1597 4.74639 -5.19936 0
M  V30 13684 C 49.8697 3.49432 -4.70418 0
M  V30 13685 N 49.8197 3.31776 -3.22945 0
M  V30 13686 H 52.6587 6.54213 -5.71376 0
M  V30 13687 H 52.9307 5.30492 -4.44033 0
M  V30 13688 H 52.0627 4.55889 -6.76652 0
M  V30 13689 P 48.0997 4.23843 -7.83734 0
M  V30 13690 O 47.8797 4.19407 -9.29784 0
M  V30 13691 O 47.3097 5.24426 -7.09156 0
M  V30 13692 O 47.8497 2.7935 -7.20758 0
M  V30 13693 C 48.7897 1.72945 -7.50224 0
M  V30 13694 C 48.0597 0.406376 -7.57911 0
M  V30 13695 O 47.8497 -0.0897726 -6.21935 0
M  V30 13696 C 46.6597 0.438983 -8.18724 0
M  V30 13697 O 46.2697 -0.825065 -8.71101 0
M  V30 13698 C 45.7797 0.783689 -6.99524 0
M  V30 13699 C 46.4897 0.0619086 -5.85867 0
M  V30 13700 N 46.4397 0.78573 -4.56183 0
M  V30 13701 C 46.2897 0.0292889 -3.41887 0
M  V30 13702 O 46.1997 -1.18445 -3.4419 0
M  V30 13703 N 46.2497 0.744061 -2.23964 0
M  V30 13704 C 46.3397 2.10932 -2.10362 0
M  V30 13705 C 46.4897 2.8202 -3.34994 0
M  V30 13706 C 46.5397 2.15547 -4.52261 0
M  V30 13707 H 49.2807 1.93379 -8.46595 0
M  V30 13708 H 49.5497 1.68132 -6.70852 0
M  V30 13709 H 48.6827 -0.289041 -8.15388 0
M  V30 13710 H 46.0277 -0.926847 -5.72749 0
M  V30 13711 H 45.7487 1.86973 -6.82036 0
M  V30 13712 H 44.7567 0.403896 -7.13257 0
M  V30 13713 H 46.5907 1.20585 -8.97435 0
M  V30 13714 H 46.6617 2.71231 -5.45042 0
M  V30 13715 P 44.7198 -1.17771 -8.83182 0
M  V30 13716 O 44.4998 -2.07206 -9.98732 0
M  V30 13717 O 43.9298 0.0743816 -8.81969 0
M  V30 13718 O 44.4698 -1.97652 -7.47304 0
M  V30 13719 C 45.4098 -3.01055 -7.08599 0
M  V30 13720 C 44.6798 -4.12613 -6.37049 0
M  V30 13721 O 44.4698 -3.72827 -4.97879 0
M  V30 13722 C 43.2798 -4.45719 -6.88164 0
M  V30 13723 O 42.8898 -5.7877 -6.5624 0
M  V30 13724 C 42.3998 -3.47768 -6.11991 0
M  V30 13725 C 43.1098 -3.39356 -4.77615 0
M  V30 13726 N 43.0598 -2.04571 -4.15244 0
M  V30 13727 C 42.9098 -1.98587 -2.78314 0
M  V30 13728 O 42.8198 -2.98134 -2.08835 0
M  V30 13729 N 42.8698 -0.714467 -2.24925 0
M  V30 13730 C 42.9598 0.470001 -2.94169 0
M  V30 13731 C 43.1098 0.312541 -4.36783 0
M  V30 13732 C 43.1598 -0.914512 -4.92583 0
M  V30 13733 H 45.9008 -3.41169 -7.98575 0
M  V30 13734 H 46.1698 -2.58295 -6.41556 0
M  V30 13735 H 45.3028 -5.02657 -6.42673 0
M  V30 13736 H 42.6478 -4.11637 -4.08885 0
M  V30 13737 H 42.3688 -2.49626 -6.61679 0
M  V30 13738 H 41.3768 -3.86566 -6.00778 0
M  V30 13739 H 43.2108 -4.29943 -7.96918 0
M  V30 13740 H 43.2818 -1.00937 -6.00374 0
M  V30 13741 P 41.3398 -6.144 -6.45285 0
M  V30 13742 O 41.1198 -7.54673 -6.86199 0
M  V30 13743 O 40.5498 -5.12391 -7.179 0
M  V30 13744 O 41.0898 -5.99158 -4.88404 0
M  V30 13745 C 42.0298 -6.60062 -3.96313 0
M  V30 13746 C 41.2998 -7.08259 -2.72856 0
M  V30 13747 O 41.0898 -5.9427 -1.83651 0
M  V30 13748 C 39.8998 -7.65087 -2.94749 0
M  V30 13749 O 39.5098 -8.53963 -1.90717 0
M  V30 13750 C 39.0198 -6.41069 -2.90698 0
M  V30 13751 C 39.7298 -5.5528 -1.86931 0
M  V30 13752 N 39.6798 -4.09575 -2.15696 0
M  V30 13753 C 39.5298 -3.24249 -1.08435 0
M  V30 13754 O 39.4398 -3.63946 0.0628747 0
M  V30 13755 N 39.4898 -1.90009 -1.39973 0
M  V30 13756 C 39.5798 -1.34884 -2.65614 0
M  V30 13757 C 39.7298 -2.3145 -3.71736 0
M  V30 13758 C 39.7798 -3.63518 -3.44754 0
M  V30 13759 H 42.5208 -7.45402 -4.45526 0
M  V30 13760 H 42.7898 -5.86062 -3.67208 0
M  V30 13761 H 41.9228 -7.84412 -2.24479 0
M  V30 13762 H 39.2678 -5.73358 -0.888409 0
M  V30 13763 H 38.9888 -5.90877 -3.88583 0
M  V30 13764 H 37.9968 -6.65867 -2.58821 0
M  V30 13765 H 39.8308 -8.16248 -3.92006 0
M  V30 13766 H 39.9018 -4.34551 -4.26383 0
M  V30 13767 P 37.9598 -8.7635 -1.60911 0
M  V30 13768 O 37.7398 -10.1388 -1.11561 0
M  V30 13769 O 37.1698 -8.36503 -2.79617 0
M  V30 13770 O 37.7098 -7.71806 -0.42951 0
M  V30 13771 C 38.6498 -7.67148 0.673689 0
M  V30 13772 C 37.9198 -7.33374 1.95559 0
M  V30 13773 O 37.7098 -5.88721 2.00726 0
M  V30 13774 C 36.5198 -7.92526 2.10483 0
M  V30 13775 O 36.1298 -8.02971 3.47653 0
M  V30 13776 C 35.6398 -6.89602 1.41652 0
M  V30 13777 C 36.3498 -5.59201 1.75185 0
M  V30 13778 N 36.2998 -4.58235 0.662552 0
M  V30 13779 H 39.1388 -8.65116 0.777161 0
M  V30 13780 H 39.4108 -6.90173 0.474152 0
M  V30 13781 H 38.5428 -7.66548 2.79458 0
M  V30 13782 P 34.5798 -8.03563 3.84925 0
M  V30 13783 O 34.3598 -8.85821 5.0569 0
M  V30 13784 O 33.7898 -8.41101 2.65469 0
M  V30 13785 O 34.3298 -6.4965 4.18908 0
M  V30 13786 C 35.2698 -5.81037 5.05421 0
M  V30 13787 C 34.5398 -4.78366 5.89277 0
M  V30 13788 O 34.3298 -3.58302 5.08433 0
M  V30 13789 C 33.1398 -5.17448 6.36119 0
M  V30 13790 O 32.7498 -4.45271 7.53232 0
M  V30 13791 C 32.2598 -4.74639 5.19936 0
M  V30 13792 C 32.9698 -3.49432 4.70418 0
M  V30 13793 N 32.9198 -3.32099 3.22613 0
M  V30 13794 H 35.7588 -6.54213 5.71376 0
M  V30 13795 H 36.0308 -5.30936 4.43503 0
M  V30 13796 H 35.1628 -4.55889 6.76652 0
M  V30 13797 H 32.5078 -2.61715 5.17932 0
M  V30 13798 H 32.2278 -5.52155 4.41878 0
M  V30 13799 H 31.2368 -4.51981 5.53374 0
M  V30 13800 H 33.0708 -6.25124 6.55234 0
M  V30 13801 P 31.1998 -4.23843 7.83734 0
M  V30 13802 O 30.9798 -4.19407 9.29784 0
M  V30 13803 O 30.4098 -5.24426 7.09156 0
M  V30 13804 O 30.9498 -2.7935 7.20758 0
M  V30 13805 C 31.8898 -1.7299 7.50419 0
M  V30 13806 C 31.1598 -0.406376 7.57911 0
M  V30 13807 O 30.9498 0.0897726 6.21935 0
M  V30 13808 C 29.7598 -0.447224 8.1878 0
M  V30 13809 O 29.3698 0.825065 8.71101 0
M  V30 13810 C 28.8798 -0.783801 6.99623 0
M  V30 13811 C 29.5898 -0.0619192 5.85967 0
M  V30 13812 N 29.5398 -0.7859 4.56281 0
M  V30 13813 H 32.3788 -1.93423 8.4679 0
M  V30 13814 H 32.6508 -1.68181 6.71046 0
M  V30 13815 H 31.7828 0.289041 8.15388 0
M  V30 13816 P 27.8199 1.17771 8.83182 0
M  V30 13817 O 27.5999 2.07206 9.98732 0
M  V30 13818 O 27.0299 -0.0743816 8.81969 0
M  V30 13819 O 27.5699 1.97652 7.47304 0
M  V30 13820 C 28.5099 3.01133 7.08783 0
M  V30 13821 C 27.7799 4.12613 6.37049 0
M  V30 13822 O 27.5699 3.72827 4.97879 0
M  V30 13823 C 26.3799 4.45085 6.88694 0
M  V30 13824 O 25.9899 5.7877 6.5624 0
M  V30 13825 C 25.4999 3.47817 6.12078 0
M  V30 13826 C 26.2099 3.39414 4.77697 0
M  V30 13827 N 26.1599 2.04199 4.15538 0
M  V30 13828 H 28.9989 3.41248 7.98759 0
M  V30 13829 H 29.2709 2.57728 6.42 0
M  V30 13830 H 28.4029 5.02657 6.42673 0
M  V30 13831 H 25.7479 4.11708 4.08956 0
M  V30 13832 H 25.4679 2.49626 6.61679 0
M  V30 13833 H 24.4769 3.8662 6.00862 0
M  V30 13834 H 26.3109 4.29991 7.97006 0
M  V30 13835 P 24.4399 6.144 6.45285 0
M  V30 13836 O 24.2199 7.54673 6.86199 0
M  V30 13837 O 23.6499 5.12391 7.179 0
M  V30 13838 O 24.1899 5.99158 4.88404 0
M  V30 13839 C 25.1299 6.60062 3.96313 0
M  V30 13840 C 24.3999 7.08259 2.72856 0
M  V30 13841 O 24.1899 5.9427 1.83651 0
M  V30 13842 C 22.9999 7.65087 2.94749 0
M  V30 13843 O 22.6099 8.53963 1.90717 0
M  V30 13844 C 22.1199 6.41069 2.90698 0
M  V30 13845 C 22.8299 5.5528 1.86931 0
M  V30 13846 N 22.7799 4.09575 2.15696 0
M  V30 13847 C 22.6299 3.24249 1.08435 0
M  V30 13848 O 22.5399 3.63946 -0.0628747 0
M  V30 13849 N 22.5899 1.90009 1.39973 0
M  V30 13850 C 22.6799 1.34884 2.65614 0
M  V30 13851 C 22.8299 2.3145 3.71736 0
M  V30 13852 C 22.8799 3.63518 3.44754 0
M  V30 13853 H 25.6209 7.45402 4.45526 0
M  V30 13854 H 25.8899 5.86062 3.67208 0
M  V30 13855 H 25.0229 7.84412 2.24479 0
M  V30 13856 H 22.3679 5.73358 0.888409 0
M  V30 13857 H 22.0889 5.90877 3.88583 0
M  V30 13858 H 21.0969 6.65867 2.58821 0
M  V30 13859 H 22.9309 8.16248 3.92006 0
M  V30 13860 H 23.0019 4.34551 4.26383 0
M  V30 13861 P 21.0599 8.7635 1.60911 0
M  V30 13862 O 20.8399 10.1388 1.11561 0
M  V30 13863 O 20.2699 8.36503 2.79617 0
M  V30 13864 O 20.8099 7.71806 0.42951 0
M  V30 13865 C 21.7499 7.67148 -0.673689 0
M  V30 13866 C 21.0199 7.33374 -1.95559 0
M  V30 13867 O 20.8099 5.88721 -2.00726 0
M  V30 13868 C 19.6199 7.92526 -2.10483 0
M  V30 13869 O 19.2299 8.02971 -3.47653 0
M  V30 13870 C 18.7399 6.89602 -1.41652 0
M  V30 13871 C 19.4499 5.59201 -1.75185 0
M  V30 13872 N 19.3999 4.58301 -0.657969 0
M  V30 13873 H 22.2389 8.65116 -0.777161 0
M  V30 13874 H 22.5109 6.9022 -0.46725 0
M  V30 13875 H 21.6429 7.66548 -2.79458 0
M  V30 13876 H 18.9879 5.16165 -2.65183 0
M  V30 13877 H 18.7079 7.06433 -0.329384 0
M  V30 13878 H 17.7169 6.90926 -1.82021 0
M  V30 13879 H 19.5509 8.90873 -1.62657 0
M  V30 13880 P 17.6799 8.03563 -3.84925 0
M  V30 13881 O 17.4599 8.85821 -5.0569 0
M  V30 13882 O 16.8899 8.41101 -2.65469 0
M  V30 13883 O 17.4299 6.4965 -4.18908 0
M  V30 13884 C 18.3699 5.81037 -5.05421 0
M  V30 13885 C 17.6399 4.78366 -5.89277 0
M  V30 13886 O 17.4299 3.58302 -5.08433 0
M  V30 13887 C 16.2399 5.17448 -6.36119 0
M  V30 13888 O 15.8499 4.45271 -7.53232 0
M  V30 13889 C 15.3599 4.74639 -5.19936 0
M  V30 13890 C 16.0699 3.49432 -4.70418 0
M  V30 13891 N 16.0199 3.31776 -3.22945 0
M  V30 13892 C 16.0999 4.27147 -2.23315 0
M  V30 13893 N 16.0199 3.78447 -1.02186 0
M  V30 13894 C 15.8799 2.41001 -1.21732 0
M  V30 13895 C 15.7499 1.36111 -0.27694 0
M  V30 13896 O 15.7299 1.42065 0.951767 0
M  V30 13897 N 15.6299 0.113683 -0.912949 0
M  V30 13898 C 15.6299 -0.0846396 -2.27943 0
M  V30 13899 N 15.4999 -1.34737 -2.6916 0
M  V30 13900 N 15.7599 0.902521 -3.16379 0
M  V30 13901 C 15.8799 2.11937 -2.56849 0
M  V30 13902 H 18.8589 6.54213 -5.71376 0
M  V30 13903 H 19.1309 5.30492 -4.44033 0
M  V30 13904 H 18.2629 4.55889 -6.76652 0
M  V30 13905 H 15.6079 2.6176 -5.18021 0
M  V30 13906 H 15.3279 5.52233 -4.41941 0
M  V30 13907 H 14.3369 4.52045 -5.53452 0
M  V30 13908 H 16.1709 6.25193 -6.55307 0
M  V30 13909 H 16.2199 5.3351 -2.43857 0
M  V30 13910 H 15.5379 -0.69331 -0.330371 0
M  V30 13911 H 15.5009 -1.56433 -3.6988 0
M  V30 13912 H 15.3999 -2.10701 -2.00133 0
M  V30 13913 P 14.2999 4.23843 -7.83734 0
M  V30 13914 O 14.0799 4.19407 -9.29784 0
M  V30 13915 O 13.5099 5.24426 -7.09156 0
M  V30 13916 O 14.0499 2.7935 -7.20758 0
M  V30 13917 C 14.9899 1.72945 -7.50224 0
M  V30 13918 C 14.2599 0.406376 -7.57911 0
M  V30 13919 O 14.0499 -0.0897726 -6.21935 0
M  V30 13920 C 12.8599 0.438983 -8.18724 0
M  V30 13921 O 12.4699 -0.825065 -8.71101 0
M  V30 13922 C 11.9799 0.783689 -6.99524 0
M  V30 13923 C 12.6899 0.0619086 -5.85867 0
M  V30 13924 N 12.6399 0.78573 -4.56183 0
M  V30 13925 C 12.4899 0.0292889 -3.41887 0
M  V30 13926 O 12.3999 -1.18445 -3.4419 0
M  V30 13927 N 12.4499 0.744061 -2.23964 0
M  V30 13928 C 12.5399 2.10932 -2.10362 0
M  V30 13929 O 12.4899 2.64117 -0.98825 0
M  V30 13930 C 12.6899 2.8202 -3.34994 0
M  V30 13931 C 12.7999 4.31095 -3.25037 0
M  V30 13932 C 12.7399 2.15547 -4.52261 0
M  V30 13933 H 15.4809 1.93379 -8.46595 0
M  V30 13934 H 15.7499 1.68132 -6.70852 0
M  V30 13935 H 14.8829 -0.289041 -8.15388 0
M  V30 13936 H 12.2279 -0.926847 -5.72749 0
M  V30 13937 H 11.9489 1.86973 -6.82036 0
M  V30 13938 H 10.9569 0.403896 -7.13257 0
M  V30 13939 H 12.7909 1.20585 -8.97435 0
M  V30 13940 H 12.8619 2.71231 -5.45042 0
M  V30 13941 H 11.8319 4.76966 -3.49992 0
M  V30 13942 H 13.5689 4.67047 -3.95024 0
M  V30 13943 H 13.0809 4.58996 -2.22312 0
M  V30 13944 H 12.3449 0.214893 -1.39758 0
M  V30 13945 P 10.92 -1.17771 -8.83182 0
M  V30 13946 O 10.7 -2.07206 -9.98732 0
M  V30 13947 O 10.13 0.0743816 -8.81969 0
M  V30 13948 O 10.67 -1.97652 -7.47304 0
M  V30 13949 C 11.61 -3.01055 -7.08599 0
M  V30 13950 C 10.88 -4.12613 -6.37049 0
M  V30 13951 O 10.67 -3.72827 -4.97879 0
M  V30 13952 C 9.47996 -4.45719 -6.88164 0
M  V30 13953 O 9.08996 -5.7877 -6.5624 0
M  V30 13954 C 8.59996 -3.47768 -6.11991 0
M  V30 13955 C 9.30996 -3.39356 -4.77615 0
M  V30 13956 N 9.25996 -2.04571 -4.15244 0
M  V30 13957 C 9.10996 -1.98587 -2.78314 0
M  V30 13958 O 9.01996 -2.98134 -2.08835 0
M  V30 13959 N 9.06996 -0.714467 -2.24925 0
M  V30 13960 C 9.15996 0.470001 -2.94169 0
M  V30 13961 C 9.30996 0.312541 -4.36783 0
M  V30 13962 C 9.35996 -0.914512 -4.92583 0
M  V30 13963 H 12.101 -3.41169 -7.98575 0
M  V30 13964 H 12.37 -2.58295 -6.41556 0
M  V30 13965 H 11.503 -5.02657 -6.42673 0
M  V30 13966 H 8.84796 -4.11637 -4.08885 0
M  V30 13967 H 8.56896 -2.49626 -6.61679 0
M  V30 13968 H 7.57696 -3.86566 -6.00778 0
M  V30 13969 H 9.41096 -4.29943 -7.96918 0
M  V30 13970 H 9.48196 -1.00937 -6.00374 0
M  V30 13971 P 7.53998 -6.144 -6.45285 0
M  V30 13972 O 7.31998 -7.54673 -6.86199 0
M  V30 13973 O 6.74998 -5.12391 -7.179 0
M  V30 13974 O 7.28998 -5.99158 -4.88404 0
M  V30 13975 C 8.22998 -6.60234 -3.96415 0
M  V30 13976 C 7.49998 -7.08259 -2.72856 0
M  V30 13977 O 7.28998 -5.9427 -1.83651 0
M  V30 13978 C 6.09998 -7.64886 -2.9555 0
M  V30 13979 O 5.70998 -8.53963 -1.90717 0
M  V30 13980 C 5.21998 -6.4116 -2.90739 0
M  V30 13981 C 5.92998 -5.55375 -1.86963 0
M  V30 13982 N 5.87998 -4.09448 -2.16152 0
M  V30 13983 H 8.71898 -7.45574 -4.45629 0
M  V30 13984 H 8.99098 -5.85864 -3.679 0
M  V30 13985 H 8.12298 -7.84412 -2.24479 0
M  V30 13986 H 5.46798 -5.73457 -0.888562 0
M  V30 13987 H 5.18798 -5.90877 -3.88583 0
M  V30 13988 H 4.19698 -6.6596 -2.58858 0
M  V30 13989 H 6.03098 -8.16339 -3.92049 0
M  V30 13990 P 4.16 -8.7635 -1.60911 0
M  V30 13991 O 3.94 -10.1388 -1.11561 0
M  V30 13992 O 3.37 -8.36503 -2.79617 0
M  V30 13993 O 3.91 -7.71806 -0.42951 0
M  V30 13994 C 4.85 -7.67148 0.673689 0
M  V30 13995 C 4.12 -7.33374 1.95559 0
M  V30 13996 O 3.91 -5.88721 2.00726 0
M  V30 13997 C 2.72 -7.92526 2.10483 0
M  V30 13998 O 2.33 -8.02971 3.47653 0
M  V30 13999 C 1.84 -6.89602 1.41652 0
M  V30 14000 C 2.55 -5.59201 1.75185 0
M  V30 14001 N 2.5 -4.58235 0.662552 0
M  V30 14002 H 5.339 -8.65116 0.777161 0
M  V30 14003 H 5.611 -6.90173 0.474152 0
M  V30 14004 H 4.743 -7.66548 2.79458 0
M  V30 14005 H 1.613 -8.66322 3.55694 0
M  V30 END ATOM
M  V30 BEGIN BOND
M  V30 END BOND
M  V30 END CTAB
M  END
$$$$
