drugbank_target|P10114 Ras-related protein Rap-2a (DB04137; DB04315)
 OpenBabel12092120013D

  0  0  0     0  0            999 V3000
M  V30 BEGIN CTAB
M  V30 COUNTS 2876 2899 0 0 0
M  V30 BEGIN ATOM
M  V30 1 H -0.908 1.98254 -0.117106 0
M  V30 2 N 0 1.576 0 0
M  V30 3 C 0.933 2.03868 1.02534 0
M  V30 4 C 1.911 0.928543 1.3348 0
M  V30 5 O 3.095 1.19667 1.45644 0
M  V30 6 C 0.222 2.43627 2.35294 0
M  V30 7 C -0.732 3.65373 2.2001 0
M  V30 8 S 0.101 5.13292 1.52614 0
M  V30 9 C 1.257 5.56322 2.86805 0
M  V30 10 H 1.49 2.90518 0.631377 0
M  V30 11 H -0.977 1.52953 0.210867 0
M  V30 12 H 0.981 2.67203 3.11629 0
M  V30 13 H -0.358 1.57376 2.7183 0
M  V30 14 H -1.165 3.90944 3.18086 0
M  V30 15 H -1.563 3.418 1.51819 0
M  V30 16 H 0.729 5.58782 3.83104 0
M  V30 17 H 1.672 6.56266 2.65933 0
M  V30 18 H 2.08 4.83886 2.90714 0
M  V30 19 N 1.4781 -0.272755 1.55222 0
M  V30 20 C 2.8941 -0.619959 1.47067 0
M  V30 21 C 3.0941 -1.895 0.684978 0
M  V30 22 O 2.1501 -2.51675 0.203931 0
M  V30 23 C 3.4631 -0.746693 2.91282 0
M  V30 24 C 5.0111 -0.840731 3.01497 0
M  V30 25 C 5.4861 -0.99924 4.46967 0
M  V30 26 N 6.9771 -1.06476 4.50796 0
M  V30 27 C 7.7121 -1.20621 5.6057 0
M  V30 28 N 7.2081 -1.31483 6.80209 0
M  V30 29 N 9.0011 -1.23733 5.48312 0
M  V30 30 H 1.1521 0.564606 2.04758 0
M  V30 31 H 3.4151 0.191177 0.928523 0
M  V30 32 H 3.1211 0.119753 3.51496 0
M  V30 33 H 2.9951 -1.6269 3.40311 0
M  V30 34 H 5.3821 -1.69764 2.41379 0
M  V30 35 H 5.4631 0.0640874 2.5572 0
M  V30 36 H 5.1071 -0.146984 5.07687 0
M  V30 37 H 5.0371 -1.91871 4.90401 0
M  V30 38 H 7.5281 -0.993196 3.64615 0
M  V30 39 H 7.8411 -1.42111 7.59621 0
M  V30 40 H 6.1861 -1.28487 6.8302 0
M  V30 41 H 9.3771 -1.14877 4.53785 0
M  V30 42 H 9.5501 -1.34412 6.33906 0
M  V30 43 N 2.9562 -1.48159 -0.537278 0
M  V30 44 C 3.8662 -1.64807 -1.6696 0
M  V30 45 C 4.8822 -0.530651 -1.65711 0
M  V30 46 O 6.0582 -0.800784 -1.84796 0
M  V30 47 C 3.1232 -1.67708 -3.03438 0
M  V30 48 C 2.1842 -2.91025 -3.156 0
M  V30 49 C 1.4172 -2.93778 -4.45567 0
M  V30 50 O 1.6402 -2.05153 -5.3223 0
M  V30 51 O 0.5742 -3.85868 -4.61941 0
M  V30 52 H 4.4002 -2.6066 -1.55853 0
M  V30 53 H 1.9852 -1.31475 -0.709549 0
M  V30 54 H 3.8672 -1.7218 -3.84619 0
M  V30 55 H 2.5422 -0.750278 -3.14885 0
M  V30 56 H 1.4492 -2.92089 -2.33741 0
M  V30 57 H 2.7822 -3.83065 -3.09066 0
M  V30 58 N 4.4343 0.785586 -1.36625 0
M  V30 59 C 5.6643 1.5722 -1.34036 0
M  V30 60 C 6.0723 1.89033 0.0795062 0
M  V30 61 O 5.4153 1.50881 1.04789 0
M  V30 62 C 5.4773 2.91759 -2.10041 0
M  V30 63 C 5.1413 2.82654 -3.59104 0
M  V30 64 C 6.1383 2.54634 -4.53274 0
M  V30 65 C 3.8233 3.01111 -4.02042 0
M  V30 66 C 5.8173 2.45177 -5.88359 0
M  V30 67 C 3.5043 2.91276 -5.37216 0
M  V30 68 C 4.5023 2.63348 -6.30188 0
M  V30 69 O 4.1903 2.53514 -7.6288 0
M  V30 70 H 3.9223 0.494177 -0.461265 0
M  V30 71 H 6.4763 0.982632 -1.8037 0
M  V30 72 H 4.7063 3.52781 -1.58375 0
M  V30 73 H 6.3953 3.53059 -2.00261 0
M  V30 74 H 7.1613 2.40073 -4.21414 0
M  V30 75 H 3.0403 3.21854 -3.30047 0
M  V30 76 H 6.5843 2.23299 -6.60896 0
M  V30 77 H 2.4813 3.054 -5.68684 0
M  V30 78 H 3.2493 2.68967 -7.73045 0
M  V30 79 N 5.9124 1.20967 1.01018 0
M  V30 80 C 6.8594 0.964281 2.09691 0
M  V30 81 C 7.8294 -0.107853 1.65749 0
M  V30 82 O 9.0144 0.0381987 1.90762 0
M  V30 83 C 6.1544 0.52943 3.41015 0
M  V30 84 C 5.2674 1.67043 3.98398 0
M  V30 85 C 4.4024 1.18525 5.17808 0
M  V30 86 C 3.4414 2.29892 5.67288 0
M  V30 87 N 2.5784 1.82546 6.77954 0
M  V30 88 H 7.4184 1.89463 2.30017 0
M  V30 89 H 4.9554 0.944289 1.1279 0
M  V30 90 H 6.9134 0.258588 4.16398 0
M  V30 91 H 5.5434 -0.363919 3.20742 0
M  V30 92 H 4.5954 2.05603 3.20049 0
M  V30 93 H 5.9074 2.50877 4.31117 0
M  V30 94 H 5.0614 0.870762 6.00419 0
M  V30 95 H 3.8004 0.316887 4.86669 0
M  V30 96 H 2.8054 2.6215 4.83278 0
M  V30 97 H 4.0304 3.17216 6.00459 0
M  V30 98 H 1.9764 0.980454 6.48632 0
M  V30 99 H 1.8934 2.59956 7.09901 0
M  V30 100 H 3.1614 1.54115 7.64113 0
M  V30 101 N 7.3905 -1.2043 1.01659 0
M  V30 102 C 8.6365 -1.90079 0.706963 0
M  V30 103 C 8.9695 -1.78648 -0.761474 0
M  V30 104 O 8.2445 -1.17069 -1.55323 0
M  V30 105 C 8.5275 -3.41469 1.14327 0
M  V30 106 C 8.3805 -3.61833 2.67201 0
M  V30 107 C 9.6995 -4.34261 0.714529 0
M  V30 108 H 6.8185 -0.690254 0.2583 0
M  V30 109 H 9.4605 -1.41826 1.26433 0
M  V30 110 H 7.6105 -3.82696 0.669056 0
M  V30 111 H 9.2825 -3.2986 3.22475 0
M  V30 112 H 7.5255 -3.05304 3.08175 0
M  V30 113 H 8.1965 -4.67955 2.92783 0
M  V30 114 H 10.6725 -4.00682 1.12221 0
M  V30 115 H 9.5485 -5.38806 1.04784 0
M  V30 116 H 9.8095 -4.40431 -0.383799 0
M  V30 117 N 8.8686 -0.792821 -1.36206 0
M  V30 118 C 10.1146 -0.36733 -1.99446 0
M  V30 119 C 10.4476 1.05917 -1.62774 0
M  V30 120 O 9.7226 1.7324 -0.88421 0
M  V30 121 C 10.0056 -0.535044 -3.56103 0
M  V30 122 C 9.8586 -2.00548 -4.02617 0
M  V30 123 C 11.1776 0.0478191 -4.40074 0
M  V30 124 H 8.2966 -0.134941 -0.724541 0
M  V30 125 H 10.9386 -0.999794 -1.61568 0
M  V30 126 H 9.0886 0.00336329 -3.885 0
M  V30 127 H 10.7606 -2.60521 -3.80692 0
M  V30 128 H 9.0036 -2.50686 -3.54032 0
M  V30 129 H 9.6746 -2.07377 -5.11565 0
M  V30 130 H 12.1506 -0.411822 -4.14057 0
M  V30 131 H 11.0266 -0.0995336 -5.4881 0
M  V30 132 H 11.2876 1.14025 -4.27142 0
M  V30 133 N 10.3467 1.47872 -0.545128 0
M  V30 134 C 11.5927 2.02793 -0.0166104 0
M  V30 135 C 11.9257 1.41987 1.32489 0
M  V30 136 O 11.2007 0.571045 1.85928 0
M  V30 137 C 11.4837 3.59989 0.0893294 0
M  V30 138 C 11.3367 4.3125 -1.27841 0
M  V30 139 C 12.6557 4.32606 0.808724 0
M  V30 140 H 9.7747 0.736962 -0.00751035 0
M  V30 141 H 12.4167 1.76433 -0.705085 0
M  V30 142 H 10.5667 3.82579 0.675681 0
M  V30 143 H 12.2387 4.20035 -1.90704 0
M  V30 144 H 10.4817 3.92076 -1.85632 0
M  V30 145 H 11.1527 5.39736 -1.15713 0
M  V30 146 H 13.6287 4.14936 0.310992 0
M  V30 147 H 12.5047 5.42251 0.851782 0
M  V30 148 H 12.7657 4.00963 1.86229 0
M  V30 149 N 11.8248 0.280983 1.55075 0
M  V30 150 C 12.7548 -0.597469 2.25727 0
M  V30 151 C 13.7358 -1.15417 1.24952 0
M  V30 152 O 14.9208 -1.18722 1.53684 0
M  V30 153 C 12.0508 -1.7789 2.98283 0
M  V30 154 C 11.0048 -1.35347 4.06036 0
M  V30 155 C 10.3308 -2.61846 4.66198 0
M  V30 156 C 11.6308 -0.499354 5.19907 0
M  V30 157 H 13.3248 -0.00824265 2.99399 0
M  V30 158 H 10.8708 -0.0025244 1.44 0
M  V30 159 H 12.8238 -2.39937 3.46422 0
M  V30 160 H 11.5478 -2.39405 2.22155 0
M  V30 161 H 10.2068 -0.756156 3.58717 0
M  V30 162 H 9.8548 -3.21632 3.86732 0
M  V30 163 H 9.5548 -2.3409 5.38958 0
M  V30 164 H 11.0788 -3.24732 5.1709 0
M  V30 165 H 12.4928 -1.02498 5.64063 0
M  V30 166 H 10.8898 -0.316424 5.99265 0
M  V30 167 H 11.9598 0.480459 4.82514 0
M  V30 168 N 13.3029 -1.57598 0.00835791 0
M  V30 169 C 14.5509 -1.90551 -0.6734 0
M  V30 170 C 14.8719 -0.883301 -1.73847 0
M  V30 171 O 14.1419 0.0781442 -1.95744 0
M  V30 172 H 12.7219 -0.703312 -0.251717 0
M  V30 173 H 15.3839 -1.94833 0.0512592 0
M  V30 174 H 14.4799 -2.9056 -1.13935 0
M  V30 175 N 14.781 0.264519 -1.55364 0
M  V30 176 C 16.006 1.01726 -1.80739 0
M  V30 177 C 16.431 1.78836 -0.583044 0
M  V30 178 O 15.789 1.75167 0.467566 0
M  V30 179 C 15.837 1.94482 -3.03659 0
M  V30 180 O 14.941 3.03386 -2.7934 0
M  V30 181 H 14.282 0.290395 -0.597132 0
M  V30 182 H 16.812 0.290854 -2.02522 0
M  V30 183 H 16.822 2.36278 -3.32621 0
M  V30 184 H 15.497 1.37772 -3.92418 0
M  V30 185 H 14.074 2.65844 -2.61498 0
M  V30 186 N 16.2591 1.48442 0.529413 0
M  V30 187 C 17.5071 1.56179 1.28267 0
M  V30 188 C 17.8281 0.237721 1.93546 0
M  V30 189 O 17.0981 -0.740779 1.81354 0
M  V30 190 H 15.6781 0.575367 0.476405 0
M  V30 191 H 18.3401 1.84909 0.61602 0
M  V30 192 H 17.4361 2.34312 2.06165 0
M  V30 193 N 17.7372 -0.778329 1.37039 0
M  V30 194 C 18.9852 -1.53361 1.31623 0
M  V30 195 C 19.3062 -1.94739 -0.100831 0
M  V30 196 O 18.5762 -1.65797 -1.04347 0
M  V30 197 H 17.1562 -0.568794 0.484234 0
M  V30 198 H 19.8182 -0.926742 1.71457 0
M  V30 199 H 18.9142 -2.43606 1.95096 0
M  V30 200 N 19.2153 -1.21501 -1.00376 0
M  V30 201 C 20.4613 -1.03452 -1.74429 0
M  V30 202 C 20.7943 0.430764 -1.89362 0
M  V30 203 O 20.0693 1.31962 -1.42886 0
M  V30 204 C 20.3523 -1.73375 -3.15615 0
M  V30 205 C 20.2053 -3.27431 -3.08397 0
M  V30 206 C 21.5243 -1.47732 -4.14564 0
M  V30 207 H 18.6433 -0.377226 -0.633143 0
M  V30 208 H 21.2853 -1.49693 -1.17013 0
M  V30 209 H 19.4353 -1.34064 -3.64636 0
M  V30 210 H 21.1073 -3.76119 -2.67081 0
M  V30 211 H 19.3503 -3.5767 -2.45468 0
M  V30 212 H 20.0213 -3.71524 -4.08258 0
M  V30 213 H 22.4973 -1.8186 -3.74254 0
M  V30 214 H 21.3733 -1.99169 -5.11491 0
M  V30 215 H 21.6343 -0.407589 -4.40217 0
M  V30 216 N 20.6934 1.19889 -1.02296 0
M  V30 217 C 21.9414 1.89046 -0.714558 0
M  V30 218 C 22.2624 1.79636 0.758681 0
M  V30 219 O 21.5324 1.20292 1.54618 0
M  V30 220 H 20.1124 0.699802 -0.261317 0
M  V30 221 H 22.7744 1.45574 -1.29592 0
M  V30 222 H 21.8704 2.95524 -1.0036 0
M  V30 223 N 22.1715 0.800033 1.35784 0
M  V30 224 C 23.1185 0.203848 2.29898 0
M  V30 225 C 24.0885 -0.658375 1.52495 0
M  V30 226 O 25.2735 -0.604832 1.8096 0
M  V30 227 C 22.4135 -0.64688 3.38983 0
M  V30 228 C 21.5265 0.235054 4.3136 0
M  V30 229 C 20.6615 -0.623054 5.27533 0
M  V30 230 C 19.7005 0.259682 6.11549 0
M  V30 231 N 18.8375 -0.558019 6.99879 0
M  V30 232 H 23.6775 1.01186 2.80295 0
M  V30 233 H 21.2145 0.51053 1.37957 0
M  V30 234 H 23.1725 -1.15521 4.00887 0
M  V30 235 H 21.8025 -1.42021 2.89879 0
M  V30 236 H 20.8545 0.861438 3.70518 0
M  V30 237 H 22.1665 0.914768 4.9034 0
M  V30 238 H 21.3205 -1.19678 5.94779 0
M  V30 239 H 20.0595 -1.33636 4.69034 0
M  V30 240 H 19.0645 0.845726 5.43256 0
M  V30 241 H 20.2895 0.970748 6.72126 0
M  V30 242 H 18.2355 -1.25542 6.43875 0
M  V30 243 H 18.1525 0.0637872 7.55973 0
M  V30 244 H 19.4205 -1.11523 7.71481 0
M  V30 245 N 23.6496 -1.47581 0.552962 0
M  V30 246 C 24.8746 -2.07378 0.0300593 0
M  V30 247 C 25.2996 -1.40355 -1.25229 0
M  V30 248 O 24.6576 -0.477099 -1.7491 0
M  V30 249 C 24.7056 -3.60274 -0.153231 0
M  V30 250 O 23.8096 -3.94041 -1.21678 0
M  V30 251 H 23.1506 -0.662158 0.0494182 0
M  V30 252 H 25.6806 -1.89662 0.767434 0
M  V30 253 H 25.6906 -4.0633 -0.368761 0
M  V30 254 H 24.3656 -4.08455 0.783397 0
M  V30 255 H 22.9426 -3.59735 -0.982079 0
M  V30 256 N 25.1277 -0.289203 -1.54924 0
M  V30 257 C 26.0907 0.579144 -2.21762 0
M  V30 258 C 27.0907 1.07047 -1.1999 0
M  V30 259 O 28.2807 0.968384 -1.44803 0
M  V30 260 C 25.4127 1.80055 -2.8947 0
M  V30 261 H 26.6057 -0.00464908 -2.999 0
M  V30 262 H 24.1587 -0.0399306 -1.56249 0
M  V30 263 H 24.8937 2.42449 -2.15381 0
M  V30 264 H 24.6787 1.45602 -3.64064 0
M  V30 265 H 26.1687 2.41773 -3.40493 0
M  V30 266 N 26.6058 1.57591 -0.0167156 0
M  V30 267 C 27.5358 2.12496 0.967858 0
M  V30 268 C 28.5168 1.03807 1.34752 0
M  V30 269 O 29.7018 1.31577 1.42833 0
M  V30 270 C 26.8318 2.64194 2.25431 0
M  V30 271 C 25.7858 3.77559 2.01576 0
M  V30 272 C 25.1118 4.15636 3.36379 0
M  V30 273 C 26.4118 5.04151 1.36489 0
M  V30 274 H 28.1058 2.95013 0.510643 0
M  V30 275 H 25.6518 1.41915 0.244181 0
M  V30 276 H 27.6048 3.01236 2.94678 0
M  V30 277 H 26.3288 1.78821 2.73296 0
M  V30 278 H 24.9878 3.40937 1.34751 0
M  V30 279 H 24.6358 3.27263 3.81979 0
M  V30 280 H 24.3358 4.92022 3.21229 0
M  V30 281 H 25.8598 4.5525 4.06915 0
M  V30 282 H 27.2738 5.38857 1.95718 0
M  V30 283 H 25.6708 5.85453 1.31776 0
M  V30 284 H 26.7408 4.83733 0.336219 0
M  V30 285 N 28.0839 -0.256276 1.55502 0
M  V30 286 C 29.3119 -1.00342 1.8094 0
M  V30 287 C 29.7269 -1.79307 0.59114 0
M  V30 288 O 29.0839 -1.77114 -0.440081 0
M  V30 289 C 29.1349 -1.94875 3.04476 0
M  V30 290 O 28.8559 -1.19107 4.21598 0
M  V30 291 C 30.3569 -2.81266 3.42644 0
M  V30 292 H 27.5769 -0.295685 0.602338 0
M  V30 293 H 30.1209 -0.281998 2.02546 0
M  V30 294 H 28.2759 -2.62457 2.84947 0
M  V30 295 H 28.6899 -1.82969 4.91551 0
M  V30 296 H 30.1639 -3.43362 4.32211 0
M  V30 297 H 30.6409 -3.51897 2.62802 0
M  V30 298 H 31.2469 -2.1915 3.64491 0
M  V30 299 N 29.562 -1.4872 -0.521534 0
M  V30 300 C 30.808 -1.574 -1.27879 0
M  V30 301 C 31.141 -0.250817 -1.92573 0
M  V30 302 O 30.416 0.743934 -1.79711 0
M  V30 303 C 30.699 -2.71843 -2.36164 0
M  V30 304 C 30.552 -4.13893 -1.76105 0
M  V30 305 C 31.871 -2.82008 -3.37875 0
M  V30 306 H 28.99 -0.572941 -0.463581 0
M  V30 307 H 31.632 -1.80927 -0.580119 0
M  V30 308 H 29.782 -2.51914 -2.95756 0
M  V30 309 H 31.454 -4.45284 -1.20499 0
M  V30 310 H 29.697 -4.20498 -1.06601 0
M  V30 311 H 30.368 -4.89804 -2.5455 0
M  V30 312 H 32.844 -3.00086 -2.88249 0
M  V30 313 H 31.72 -3.63796 -4.11028 0
M  V30 314 H 31.981 -1.90511 -3.98946 0
M  V30 315 N 31.0401 0.771051 -1.3745 0
M  V30 316 C 31.9721 1.89352 -1.29146 0
M  V30 317 C 32.9851 1.61477 -0.207124 0
M  V30 318 O 34.1741 1.72382 -0.463324 0
M  V30 319 C 31.2741 3.24596 -0.974195 0
M  V30 320 C 30.4471 3.80111 -2.16413 0
M  V30 321 C 29.5061 4.93832 -1.81703 0
M  V30 322 O 28.5321 5.09382 -2.54006 0
M  V30 323 N 29.7341 5.75483 -0.761573 0
M  V30 324 H 32.4991 1.96991 -2.25864 0
M  V30 325 H 30.0601 0.950191 -1.31084 0
M  V30 326 H 32.0521 3.98193 -0.722828 0
M  V30 327 H 30.6221 3.12454 -0.0955527 0
M  V30 328 H 29.8421 2.98284 -2.57721 0
M  V30 329 H 31.1301 4.13932 -2.95867 0
M  V30 330 H 30.5281 5.65469 -0.161609 0
M  V30 331 H 29.0851 6.49302 -0.570064 0
M  V30 332 N 32.5182 1.22032 0.997298 0
M  V30 333 C 33.7652 1.04222 1.73621 0
M  V30 334 C 34.0932 -0.423264 1.89839 0
M  V30 335 O 33.3482 -1.3302 1.43542 0
M  V30 336 C 33.6472 1.69345 3.14733 0
M  V30 337 C 33.3132 3.19226 3.18442 0
M  V30 338 C 31.9752 3.60124 3.19161 0
M  V30 339 C 34.3272 4.15181 3.15078 0
M  V30 340 C 31.6552 4.95467 3.14212 0
M  V30 341 C 34.0072 5.50495 3.1167 0
M  V30 342 C 32.6712 5.90779 3.10703 0
M  V30 343 H 31.9412 0.381374 0.635323 0
M  V30 344 H 34.5882 1.51732 1.16831 0
M  V30 345 H 32.8932 1.14147 3.74803 0
M  V30 346 H 34.5902 1.53059 3.7064 0
M  V30 347 H 31.1802 2.86659 3.18629 0
M  V30 348 H 35.3642 3.84605 3.13676 0
M  V30 349 H 30.6202 5.25916 3.11805 0
M  V30 350 H 34.7942 6.24576 3.08022 0
M  V30 351 H 32.4212 6.9562 3.06622 0
M  V30 352 N 33.9963 -1.19345 1.0293 0
M  V30 353 C 35.2423 -1.89318 0.727083 0
M  V30 354 C 35.5753 -1.79446 -0.742483 0
M  V30 355 O 34.8503 -1.1871 -1.54072 0
M  V30 356 C 35.1333 -3.40238 1.17942 0
M  V30 357 C 34.9863 -3.58979 2.71024 0
M  V30 358 C 36.3053 -4.33479 0.760548 0
M  V30 359 H 33.4243 -0.687475 0.265606 0
M  V30 360 H 36.0663 -1.40477 1.2793 0
M  V30 361 H 34.2163 -3.81964 0.709608 0
M  V30 362 H 35.8883 -3.26421 3.25955 0
M  V30 363 H 34.1313 -3.02018 3.11396 0
M  V30 364 H 34.8023 -4.64823 2.9773 0
M  V30 365 H 37.2783 -3.99469 1.16464 0
M  V30 366 H 36.1543 -5.37664 1.10493 0
M  V30 367 H 36.4153 -4.40813 -0.337063 0
M  V30 368 N 35.4744 -0.807222 -1.35358 0
M  V30 369 C 36.7024 -0.400377 -2.02989 0
M  V30 370 C 37.1174 0.988859 -1.60832 0
M  V30 371 O 36.4744 1.63729 -0.806175 0
M  V30 372 C 36.5254 -0.474867 -3.58368 0
M  V30 373 O 36.2464 -1.80933 -3.98992 0
M  V30 374 C 37.7474 -0.0609112 -4.43258 0
M  V30 375 H 34.9674 -0.162587 -0.651004 0
M  V30 376 H 37.5114 -1.09102 -1.72965 0
M  V30 377 H 35.6664 0.167534 -3.87038 0
M  V30 378 H 36.0804 -1.77256 -4.9364 0
M  V30 379 H 37.5544 -0.164145 -5.51756 0
M  V30 380 H 38.0314 0.993831 -4.27808 0
M  V30 381 H 38.6374 -0.676492 -4.19885 0
M  V30 382 N 36.9525 1.47285 -0.560781 0
M  V30 383 C 38.2005 2.02064 -0.0379868 0
M  V30 384 C 38.5215 1.43711 1.31803 0
M  V30 385 O 37.7915 0.61362 1.86042 0
M  V30 386 H 36.3715 0.746918 -0.0110531 0
M  V30 387 H 39.0335 1.80648 -0.731598 0
M  V30 388 H 38.1295 3.12064 0.0474463 0
M  V30 389 N 38.4306 0.297415 1.54768 0
M  V30 390 C 39.6586 -0.315623 2.04478 0
M  V30 391 C 40.0736 -1.47792 1.17486 0
M  V30 392 O 39.4306 -1.81404 0.19971 0
M  V30 393 C 39.4816 -0.7753 3.53088 0
M  V30 394 O 39.2026 0.340732 4.36773 0
M  V30 395 C 40.7036 -1.45386 4.18781 0
M  V30 396 H 37.9236 -0.0690887 0.667434 0
M  V30 397 H 40.4676 0.436003 1.99798 0
M  V30 398 H 38.6226 -1.47696 3.58141 0
M  V30 399 H 39.0366 -0.0165035 5.24497 0
M  V30 400 H 40.5106 -1.72669 5.24299 0
M  V30 401 H 40.9876 -2.39275 3.68299 0
M  V30 402 H 41.5936 -0.795475 4.17795 0
M  V30 403 N 39.9087 -1.5758 0.0250728 0
M  V30 404 C 41.1557 -1.91633 -0.654444 0
M  V30 405 C 41.4837 -0.901103 -1.72367 0
M  V30 406 O 40.7387 0.0905647 -1.9549 0
M  V30 407 C 41.0377 -3.32421 -1.31268 0
M  V30 408 C 40.7037 -4.49344 -0.374223 0
M  V30 409 C 39.3657 -4.8106 -0.115911 0
M  V30 410 C 41.7177 -5.20498 0.270432 0
M  V30 411 C 39.0457 -5.8129 0.79493 0
M  V30 412 C 41.3977 -6.21699 1.1693 0
M  V30 413 C 40.0617 -6.51859 1.43655 0
M  V30 414 H 39.3317 -0.701236 -0.239478 0
M  V30 415 H 41.9787 -1.91307 0.0859734 0
M  V30 416 H 40.2837 -3.28989 -2.12775 0
M  V30 417 H 41.9807 -3.56038 -1.84494 0
M  V30 418 H 38.5707 -4.24579 -0.58573 0
M  V30 419 H 42.7547 -4.96229 0.0839194 0
M  V30 420 H 38.0107 -6.03005 1.00973 0
M  V30 421 H 42.1847 -6.75955 1.67504 0
M  V30 422 H 39.8117 -7.2934 2.144 0
M  V30 423 N 41.3868 0.248026 -1.55636 0
M  V30 424 C 42.6358 0.974134 -1.76617 0
M  V30 425 C 42.9488 1.86528 -0.588796 0
M  V30 426 O 44.1548 2.62805 -0.681594 0
M  V30 427 C 42.6108 1.78213 -3.12679 0
M  V30 428 C 42.2188 0.93843 -4.38061 0
M  V30 429 C 43.9628 2.50104 -3.42999 0
M  V30 430 C 41.8698 1.74225 -5.65155 0
M  V30 431 H 40.7998 0.36745 -0.658405 0
M  V30 432 H 43.4508 0.22884 -1.82067 0
M  V30 433 H 41.8328 2.56933 -3.01333 0
M  V30 434 H 43.0068 0.193635 -4.60393 0
M  V30 435 H 41.3218 0.332905 -4.15067 0
M  V30 436 H 43.9188 3.10694 -4.3517 0
M  V30 437 H 44.2618 3.21662 -2.64271 0
M  V30 438 H 44.7948 1.78395 -3.55556 0
M  V30 439 H 41.5338 1.07043 -6.46701 0
M  V30 440 H 41.0538 2.46235 -5.46926 0
M  V30 441 H 42.7328 2.30967 -6.0437 0
M  V30 442 N 42.8649 1.48995 0.513639 0
M  V30 443 C 43.7749 1.67443 1.64317 0
M  V30 444 C 44.7909 0.556947 1.64846 0
M  V30 445 O 45.9669 0.830082 1.83498 0
M  V30 446 C 43.0319 1.72515 3.00732 0
M  V30 447 C 42.0929 2.96009 3.1093 0
M  V30 448 C 41.3259 3.00829 4.40837 0
M  V30 449 O 41.5489 2.13594 5.28898 0
M  V30 450 O 40.4829 3.93168 4.55744 0
M  V30 451 H 44.3089 2.63106 1.51687 0
M  V30 452 H 41.8939 1.32588 0.688543 0
M  V30 453 H 43.7759 1.78277 3.81831 0
M  V30 454 H 42.4509 0.800278 3.13651 0
M  V30 455 H 41.3579 2.9577 2.29065 0
M  V30 456 H 42.6909 3.87934 3.02933 0
M  V30 457 N 44.343 -0.763751 1.37857 0
M  V30 458 C 45.29 -1.87726 1.34267 0
M  V30 459 C 46.26 -1.64807 0.206879 0
M  V30 460 O 47.445 -1.86613 0.397508 0
M  V30 461 C 44.585 -3.24896 1.16346 0
M  V30 462 C 43.698 -3.59716 2.39225 0
M  V30 463 C 42.833 -4.86137 2.14114 0
M  V30 464 C 41.872 -5.13711 3.32817 0
M  V30 465 N 41.009 -6.31323 3.07206 0
M  V30 466 H 45.849 -1.90129 2.29466 0
M  V30 467 H 43.386 -0.929433 1.14017 0
M  V30 468 H 45.344 -4.04036 1.03975 0
M  V30 469 H 43.974 -3.21847 0.247909 0
M  V30 470 H 43.026 -2.75498 2.62307 0
M  V30 471 H 44.338 -3.76027 3.27728 0
M  V30 472 H 43.492 -5.73198 1.9882 0
M  V30 473 H 42.231 -4.71945 1.22961 0
M  V30 474 H 41.236 -4.25123 3.48641 0
M  V30 475 H 42.461 -5.29807 4.24832 0
M  V30 476 H 40.407 -6.18474 2.1869 0
M  V30 477 H 40.324 -6.48087 3.89254 0
M  V30 478 H 41.592 -7.213 2.95546 0
M  V30 479 N 45.8211 -1.22559 -0.990812 0
M  V30 480 C 47.0511 -1.07623 -1.76355 0
M  V30 481 C 47.4591 0.37601 -1.85426 0
M  V30 482 O 46.8021 1.27228 -1.32509 0
M  V30 483 C 46.8641 -1.61507 -3.21179 0
M  V30 484 C 46.5281 -3.10146 -3.35646 0
M  V30 485 C 47.5251 -4.07553 -3.22796 0
M  V30 486 C 45.2101 -3.49644 -3.60631 0
M  V30 487 C 47.2041 -5.42442 -3.34716 0
M  V30 488 C 44.8911 -4.84682 -3.72192 0
M  V30 489 C 45.8891 -5.8089 -3.59243 0
M  V30 490 O 45.5771 -7.13476 -3.70415 0
M  V30 491 H 45.3091 -0.377745 -0.560611 0
M  V30 492 H 47.8631 -1.62658 -1.25425 0
M  V30 493 H 46.0931 -1.00881 -3.73309 0
M  V30 494 H 47.7821 -1.42202 -3.80175 0
M  V30 495 H 48.5481 -3.78381 -3.03403 0
M  V30 496 H 44.4271 -2.75282 -3.69785 0
M  V30 497 H 47.9711 -6.17518 -3.24526 0
M  V30 498 H 43.8681 -5.13534 -3.91092 0
M  V30 499 H 44.6361 -7.21083 -3.87275 0
M  V30 500 N 47.2992 1.18797 -1.03562 0
M  V30 501 C 48.5762 1.84469 -0.650434 0
M  V30 502 C 48.9562 1.92319 0.870433 0
M  V30 503 O 48.3042 1.44528 1.76986 0
M  V30 504 C 48.5142 3.2306 -1.32036 0
M  V30 505 C 49.8622 3.9915 -1.44792 0
M  V30 506 O 50.8862 3.32481 -1.27806 0
M  V30 507 O 49.7452 5.18587 -1.72423 0
M  V30 508 H 46.8392 0.795251 -0.226946 0
M  V30 509 H 49.3852 1.26231 -1.13419 0
M  V30 510 H 48.1572 3.1222 -2.3587 0
M  V30 511 H 47.7802 3.88949 -0.8249 0
M  V30 512 N 48.7773 0.814389 1.34928 0
M  V30 513 C 50.1883 0.458364 1.80986 0
M  V30 514 C 50.5393 -1.02042 1.67577 0
M  V30 515 O 49.6643 -1.79352 1.21086 0
M  V30 516 C 50.2593 0.825212 3.28597 0
M  V30 517 C 48.8183 0.521677 3.72767 0
M  V30 518 C 47.9653 1.04668 2.56788 0
M  V30 519 H 50.9163 1.00533 1.22795 0
M  V30 520 H 50.9373 0.12571 3.80292 0
M  V30 521 H 50.4493 1.90154 3.38324 0
M  V30 522 H 48.5503 -0.545589 3.68584 0
M  V30 523 H 48.6633 1.05977 4.67232 0
M  V30 524 H 47.0273 0.468622 2.50352 0
M  V30 525 H 47.8103 2.12927 2.6929 0
M  V30 526 N 50.2554 -1.46986 0.568584 0
M  V30 527 C 51.4834 -2.0683 0.0539956 0
M  V30 528 C 51.8984 -1.41953 -1.24478 0
M  V30 529 O 51.2554 -0.519933 -1.74937 0
M  V30 530 C 51.3064 -3.61254 -0.133362 0
M  V30 531 O 51.0274 -4.237 1.11399 0
M  V30 532 C 52.5284 -4.37992 -0.683927 0
M  V30 533 H 49.7484 -0.669058 0.0510141 0
M  V30 534 H 52.2924 -1.88824 0.785234 0
M  V30 535 H 50.4474 -3.78735 -0.81477 0
M  V30 536 H 50.8614 -5.16388 0.91888 0
M  V30 537 H 52.3354 -5.46684 -0.764263 0
M  V30 538 H 52.8124 -4.05058 -1.69778 0
M  V30 539 H 53.4184 -4.25283 -0.0378494 0
M  V30 540 N 51.7335 -0.305618 -1.54608 0
M  V30 541 C 52.9825 0.303098 -1.9941 0
M  V30 542 C 53.2955 1.54648 -1.19764 0
M  V30 543 O 54.5015 2.23007 -1.54855 0
M  V30 544 C 52.9575 0.590588 -3.55021 0
M  V30 545 C 52.5655 -0.634719 -4.43481 0
M  V30 546 C 54.3095 1.16025 -4.08336 0
M  V30 547 C 52.2165 -0.320126 -5.90533 0
M  V30 548 H 51.1465 0.117031 -0.744862 0
M  V30 549 H 53.7975 -0.415045 -1.78745 0
M  V30 550 H 52.1795 1.36845 -3.71604 0
M  V30 551 H 53.3535 -1.41079 -4.38672 0
M  V30 552 H 51.6685 -1.12333 -4.00962 0
M  V30 553 H 54.2655 1.40994 -5.15776 0
M  V30 554 H 54.6085 2.10397 -3.5922 0
M  V30 555 H 55.1415 0.443985 -3.95315 0
M  V30 556 H 51.8805 -1.23254 -6.43808 0
M  V30 557 H 51.4005 0.418579 -5.98338 0
M  V30 558 H 53.0795 0.0766241 -6.46955 0
M  V30 559 N 53.2116 1.57565 -0.0334293 0
M  V30 560 C 54.1216 2.13943 0.962572 0
M  V30 561 C 55.1376 1.09276 1.35406 0
M  V30 562 O 56.3136 1.41355 1.4346 0
M  V30 563 C 53.3786 2.65887 2.22497 0
M  V30 564 C 52.4396 3.85286 1.8935 0
M  V30 565 C 51.6726 4.34743 3.09571 0
M  V30 566 O 51.8956 3.83352 4.22371 0
M  V30 567 O 50.8296 5.26538 2.91618 0
M  V30 568 H 54.6556 2.99333 0.513169 0
M  V30 569 H 52.2406 1.4822 0.18743 0
M  V30 570 H 54.1226 2.99346 2.96598 0
M  V30 571 H 52.7976 1.83578 2.6661 0
M  V30 572 H 51.7046 3.56746 1.1262 0
M  V30 573 H 53.0376 4.68771 1.5005 0
M  V30 574 N 54.6897 -0.239769 1.55765 0
M  V30 575 C 55.9667 -0.990056 1.68693 0
M  V30 576 C 56.3467 -2.03107 0.5754 0
M  V30 577 O 55.6947 -2.24604 -0.42017 0
M  V30 578 C 55.9047 -1.61696 3.09282 0
M  V30 579 C 57.2527 -2.11613 3.6811 0
M  V30 580 O 58.2767 -1.71624 3.12127 0
M  V30 581 O 57.1357 -2.85057 4.66267 0
M  V30 582 H 54.2297 -0.461299 0.686391 0
M  V30 583 H 56.7757 -0.232991 1.68093 0
M  V30 584 H 55.5477 -0.864357 3.81634 0
M  V30 585 H 55.1707 -2.44005 3.13923 0
M  V30 586 N 56.1678 -1.49265 -0.50573 0
M  V30 587 C 57.4148 -1.58513 -1.26015 0
M  V30 588 C 57.7428 -0.26972 -1.92621 0
M  V30 589 O 56.9978 0.741997 -1.81088 0
M  V30 590 C 57.2968 -2.69008 -2.35308 0
M  V30 591 C 56.9628 -4.10662 -1.86192 0
M  V30 592 C 55.6248 -4.49212 -1.72516 0
M  V30 593 C 57.9768 -4.99336 -1.49375 0
M  V30 594 C 55.3048 -5.74214 -1.20394 0
M  V30 595 C 57.6568 -6.24852 -0.987072 0
M  V30 596 C 56.3208 -6.62236 -0.836669 0
M  V30 597 H 55.5908 -0.580041 -0.461122 0
M  V30 598 H 58.2378 -1.83078 -0.561665 0
M  V30 599 H 56.5428 -2.38396 -3.10926 0
M  V30 600 H 58.2398 -2.73373 -2.93374 0
M  V30 601 H 54.8298 -3.8023 -1.97795 0
M  V30 602 H 59.0138 -4.70212 -1.5879 0
M  V30 603 H 54.2698 -6.01883 -1.07458 0
M  V30 604 H 58.4438 -6.92944 -0.692983 0
M  V30 605 H 56.0708 -7.58979 -0.430607 0
M  V30 606 N 57.6459 0.756429 -1.3826 0
M  V30 607 C 58.8759 1.54341 -1.3734 0
M  V30 608 C 59.2839 1.89159 0.0393917 0
M  V30 609 O 58.6269 1.5307 1.01565 0
M  V30 610 C 58.6889 2.87238 -2.16182 0
M  V30 611 C 58.3529 2.74973 -3.65019 0
M  V30 612 C 59.3499 2.44962 -4.58574 0
M  V30 613 C 57.0349 2.92515 -4.08338 0
M  V30 614 C 59.0289 2.32642 -5.93428 0
M  V30 615 C 56.7159 2.79815 -5.43274 0
M  V30 616 C 57.7139 2.49921 -6.35632 0
M  V30 617 O 57.4019 2.37275 -7.68086 0
M  V30 618 H 57.1339 0.484281 -0.471643 0
M  V30 619 H 59.6879 0.944152 -1.82414 0
M  V30 620 H 57.9179 3.49342 -1.65822 0
M  V30 621 H 59.6069 3.48731 -2.07705 0
M  V30 622 H 60.3729 2.31081 -4.26412 0
M  V30 623 H 56.2519 3.14781 -3.368 0
M  V30 624 H 59.7959 2.0923 -6.65484 0
M  V30 625 H 55.6929 2.93269 -5.75034 0
M  V30 626 H 56.4609 2.52509 -7.78577 0
M  V30 627 N 59.124 1.23083 0.984299 0
M  V30 628 C 60.54 0.992637 1.24975 0
M  V30 629 C 60.74 -0.308618 1.99123 0
M  V30 630 O 59.796 -1.02905 2.30579 0
M  V30 631 C 61.109 2.19698 2.05312 0
M  V30 632 C 62.657 2.24147 2.18465 0
M  V30 633 C 63.132 3.44157 3.02192 0
M  V30 634 N 64.623 3.44372 3.09777 0
M  V30 635 C 65.358 4.33886 3.74874 0
M  V30 636 N 64.854 5.3363 4.41827 0
M  V30 637 N 66.647 4.21639 3.71721 0
M  V30 638 H 58.798 2.06731 0.487453 0
M  V30 639 H 61.061 0.906339 0.277944 0
M  V30 640 H 60.767 3.1411 1.58201 0
M  V30 641 H 60.641 2.20465 3.06064 0
M  V30 642 H 63.028 1.30277 2.64786 0
M  V30 643 H 63.109 2.27415 1.17115 0
M  V30 644 H 62.753 4.38332 2.56568 0
M  V30 645 H 62.683 3.3813 4.03702 0
M  V30 646 H 65.174 2.72201 2.62135 0
M  V30 647 H 65.487 5.98196 4.89266 0
M  V30 648 H 63.832 5.37534 4.40548 0
M  V30 649 H 67.023 3.42962 3.18582 0
M  V30 650 H 67.196 4.91604 4.22173 0
M  V30 651 N 60.6021 -1.18246 1.0419 0
M  V30 652 C 61.5491 -2.2192 0.634037 0
M  V30 653 C 62.5191 -1.62179 -0.358765 0
M  V30 654 O 63.7041 -1.89122 -0.252466 0
M  V30 655 C 60.8441 -3.451 0.00445535 0
M  V30 656 C 59.9571 -4.19174 1.04487 0
M  V30 657 C 59.0921 -5.29813 0.383676 0
M  V30 658 C 58.1311 -5.9566 1.4091 0
M  V30 659 N 57.2681 -6.97834 0.772784 0
M  V30 660 H 62.1081 -2.56164 1.52263 0
M  V30 661 H 59.6451 -1.25843 0.761701 0
M  V30 662 H 61.6031 -4.15485 -0.377919 0
M  V30 663 H 60.2331 -3.11472 -0.847652 0
M  V30 664 H 59.2851 -3.47604 1.54518 0
M  V30 665 H 60.5971 -4.64267 1.82368 0
M  V30 666 H 59.7511 -6.06677 -0.0528366 0
M  V30 667 H 58.4901 -4.85825 -0.427208 0
M  V30 668 H 57.4951 -5.17535 1.85574 0
M  V30 669 H 58.7201 -6.4173 2.22171 0
M  V30 670 H 56.6661 -6.55998 -0.0177708 0
M  V30 671 H 56.5831 -7.41186 1.48928 0
M  V30 672 H 57.8511 -7.78665 0.36071 0
M  V30 673 N 62.0802 -0.821533 -1.34494 0
M  V30 674 C 62.9902 -0.244355 -2.33324 0
M  V30 675 C 64.0062 0.620527 -1.62559 0
M  V30 676 O 65.1822 0.528754 -1.94335 0
M  V30 677 C 62.2472 0.585368 -3.41723 0
M  V30 678 C 61.3082 -0.301752 -4.28238 0
M  V30 679 C 60.5412 0.488466 -5.3146 0
M  V30 680 O 60.7642 1.72186 -5.4379 0
M  V30 681 O 59.6982 -0.12848 -6.01763 0
M  V30 682 H 63.5242 -1.06231 -2.84515 0
M  V30 683 H 61.1092 -0.583645 -1.37528 0
M  V30 684 H 62.9912 1.05747 -4.07916 0
M  V30 685 H 61.6662 1.38068 -2.92778 0
M  V30 686 H 60.5732 -0.821315 -3.64973 0
M  V30 687 H 61.9062 -1.06138 -4.8062 0
M  V30 688 N 63.5583 1.46682 -0.576371 0
M  V30 689 C 64.8073 2.01619 -0.0572825 0
M  V30 690 C 65.1203 1.45417 1.30818 0
M  V30 691 O 66.3263 1.92133 1.91825 0
M  V30 692 C 64.7823 3.59863 -0.0518371 0
M  V30 693 C 64.3903 4.25059 -1.41523 0
M  V30 694 C 66.1343 4.2248 0.413639 0
M  V30 695 C 64.0413 5.75364 -1.36785 0
M  V30 696 H 62.9713 0.753794 -0.0176448 0
M  V30 697 H 65.6223 1.68481 -0.727076 0
M  V30 698 H 64.0043 3.90048 0.683994 0
M  V30 699 H 65.1783 4.06491 -2.17029 0
M  V30 700 H 63.4933 3.7451 -1.8202 0
M  V30 701 H 66.0903 5.3265 0.467779 0
M  V30 702 H 66.4333 3.90976 1.42982 0
M  V30 703 H 66.9663 3.96897 -0.267929 0
M  V30 704 H 63.7053 6.11518 -2.36063 0
M  V30 705 H 63.2253 5.96214 -0.654895 0
M  V30 706 H 64.9043 6.37955 -1.07805 0
M  V30 707 N 65.0364 0.313813 1.54444 0
M  V30 708 C 65.9464 -0.565714 2.27677 0
M  V30 709 C 66.9624 -1.13754 1.31666 0
M  V30 710 O 68.1384 -1.15959 1.64668 0
M  V30 711 C 65.2034 -1.71528 3.01296 0
M  V30 712 C 64.2644 -1.17624 4.12872 0
M  V30 713 C 63.4974 -2.27102 4.8297 0
M  V30 714 O 63.7204 -3.47256 4.52514 0
M  V30 715 O 62.6544 -1.9307 5.70094 0
M  V30 716 H 66.4804 0.0287296 3.03686 0
M  V30 717 H 64.0654 0.0798312 1.49187 0
M  V30 718 H 65.9474 -2.38476 3.4743 0
M  V30 719 H 64.6224 -2.29608 2.2817 0
M  V30 720 H 63.5294 -0.472124 3.71109 0
M  V30 721 H 64.8624 -0.640695 4.88012 0
M  V30 722 N 66.5145 -1.57545 0.0417849 0
M  V30 723 C 67.7605 -1.92601 -0.635021 0
M  V30 724 C 68.0935 -0.919627 -1.71045 0
M  V30 725 O 67.3685 0.0557892 -1.9442 0
M  V30 726 C 67.6515 -3.38085 -1.23979 0
M  V30 727 C 67.5045 -4.49467 -0.173057 0
M  V30 728 C 68.8235 -3.83776 -2.15416 0
M  V30 729 H 65.9425 -0.700397 -0.229374 0
M  V30 730 H 68.5845 -1.89728 0.101633 0
M  V30 731 H 66.7345 -3.40664 -1.86762 0
M  V30 732 H 68.4065 -4.59018 0.458312 0
M  V30 733 H 66.6495 -4.30909 0.499996 0
M  V30 734 H 67.3205 -5.48323 -0.636054 0
M  V30 735 H 69.7965 -3.83013 -1.62605 0
M  V30 736 H 68.6725 -4.8624 -2.54679 0
M  V30 737 H 68.9335 -3.19998 -3.05047 0
M  V30 738 N 67.9926 0.231505 -1.5589 0
M  V30 739 C 69.2696 0.981096 -1.69215 0
M  V30 740 C 69.6496 2.02799 -0.586164 0
M  V30 741 O 68.9976 2.24823 0.408253 0
M  V30 742 C 69.2076 1.60054 -3.10135 0
M  V30 743 C 70.5556 2.09658 -3.69227 0
M  V30 744 O 71.5796 1.69967 -3.13033 0
M  V30 745 O 70.4386 2.8258 -4.67772 0
M  V30 746 H 67.5326 0.457653 -0.688827 0
M  V30 747 H 70.0786 0.224073 -1.68214 0
M  V30 748 H 68.8506 0.844105 -3.82087 0
M  V30 749 H 68.4736 2.42336 -3.15212 0
M  V30 750 N 69.4707 1.49531 0.497807 0
M  V30 751 C 70.6957 1.63159 1.28039 0
M  V30 752 C 71.1207 0.30418 1.85624 0
M  V30 753 O 70.4787 -0.728618 1.66015 0
M  V30 754 C 70.5267 2.70537 2.38416 0
M  V30 755 O 69.6307 2.29931 3.42353 0
M  V30 756 H 68.9717 0.546001 0.377861 0
M  V30 757 H 71.5017 1.9574 0.59558 0
M  V30 758 H 71.5117 2.92802 2.84132 0
M  V30 759 H 70.1867 3.6689 1.95869 0
M  V30 760 H 68.7637 2.18009 3.02533 0
M  V30 761 N 70.9488 -0.749086 1.3866 0
M  V30 762 C 72.1738 -1.54344 1.38538 0
M  V30 763 C 72.5988 -1.88088 -0.0216655 0
M  V30 764 O 71.9568 -1.50899 -1.00494 0
M  V30 765 C 72.0048 -2.8164 2.25192 0
M  V30 766 O 71.1088 -3.7698 1.67212 0
M  V30 767 H 70.4498 -0.466654 0.472367 0
M  V30 768 H 72.9798 -0.925355 1.82478 0
M  V30 769 H 72.9898 -3.30519 2.3921 0
M  V30 770 H 71.6648 -2.56411 3.27454 0
M  V30 771 H 70.2418 -3.35699 1.6236 0
M  V30 772 N 72.4269 -1.23603 -0.977757 0
M  V30 773 C 73.8379 -1.06424 -1.53398 0
M  V30 774 C 74.1889 0.367578 -1.92726 0
M  V30 775 O 73.3139 1.25465 -1.76316 0
M  V30 776 C 73.9089 -1.92568 -2.78753 0
M  V30 777 C 72.4679 -1.79642 -3.30765 0
M  V30 778 C 71.6149 -1.88111 -2.03739 0
M  V30 779 H 74.5659 -1.37227 -0.797152 0
M  V30 780 H 74.5869 -1.45203 -3.51705 0
M  V30 781 H 74.0989 -2.96771 -2.50098 0
M  V30 782 H 72.1999 -0.782325 -3.64294 0
M  V30 783 H 72.3129 -2.63174 -4.00345 0
M  V30 784 H 70.6769 -1.31723 -2.17994 0
M  V30 785 H 71.4599 -2.93875 -1.77461 0
M  V30 786 N 73.905 1.17692 -1.04816 0
M  V30 787 C 75.13 1.92327 -0.776207 0
M  V30 788 C 75.555 1.76082 0.661581 0
M  V30 789 O 74.913 1.076 1.45917 0
M  V30 790 C 74.961 3.41539 -1.15687 0
M  V30 791 O 74.065 4.11402 -0.286775 0
M  V30 792 H 73.406 0.599735 -0.284981 0
M  V30 793 H 75.936 1.49201 -1.4 0
M  V30 794 H 75.946 3.92269 -1.12202 0
M  V30 795 H 74.621 3.52684 -2.20425 0
M  V30 796 H 73.198 3.70939 -0.381903 0
M  V30 797 N 75.3831 0.828654 1.34056 0
M  V30 798 C 76.6291 0.42008 1.98402 0
M  V30 799 C 76.9621 -1.01564 1.65525 0
M  V30 800 O 76.2371 -1.70834 0.929831 0
M  V30 801 C 76.5201 0.62927 3.54559 0
M  V30 802 C 76.3731 2.11152 3.97159 0
M  V30 803 C 77.6921 0.0688756 4.40046 0
M  V30 804 H 74.8111 0.154104 0.720709 0
M  V30 805 H 77.4531 1.04228 1.5886 0
M  V30 806 H 75.6031 0.0996418 3.88372 0
M  V30 807 H 77.2751 2.70522 3.73651 0
M  V30 808 H 75.5181 2.59985 3.47261 0
M  V30 809 H 76.1891 2.20868 5.05887 0
M  V30 810 H 78.6651 0.521458 4.1282 0
M  V30 811 H 77.5411 0.245006 5.48353 0
M  V30 812 H 77.8021 -1.0266 4.30015 0
M  V30 813 N 76.8612 -1.46375 0.584142 0
M  V30 814 C 77.7912 -2.33103 -0.136037 0
M  V30 815 C 78.7722 -1.45431 -0.882255 0
M  V30 816 O 79.9572 -1.74246 -0.857434 0
M  V30 817 C 77.0872 -3.27731 -1.14933 0
M  V30 818 C 76.0412 -4.24855 -0.517862 0
M  V30 819 C 75.3672 -5.09001 -1.63773 0
M  V30 820 C 76.6672 -5.19439 0.545886 0
M  V30 821 H 78.3612 -2.93568 0.588086 0
M  V30 822 H 75.9072 -1.41166 0.284259 0
M  V30 823 H 77.8602 -3.87261 -1.66153 0
M  V30 824 H 76.5842 -2.65377 -1.90375 0
M  V30 825 H 75.2432 -3.6659 -0.0267361 0
M  V30 826 H 74.8912 -4.43031 -2.38185 0
M  V30 827 H 74.5912 -5.74777 -1.22085 0
M  V30 828 H 76.1152 -5.71396 -2.15266 0
M  V30 829 H 77.5292 -5.73177 0.118704 0
M  V30 830 H 75.9262 -5.93566 0.88317 0
M  V30 831 H 76.9962 -4.63285 1.43162 0
M  V30 832 N 78.3393 -0.321999 -1.54275 0
M  V30 833 C 79.2493 0.553631 -2.27974 0
M  V30 834 C 80.2653 1.13054 -1.32268 0
M  V30 835 O 81.4413 1.15084 -1.6528 0
M  V30 836 C 78.5063 1.69927 -3.02201 0
M  V30 837 C 77.5673 1.15433 -4.1349 0
M  V30 838 C 76.8003 2.24537 -4.84168 0
M  V30 839 O 77.0233 3.44852 -4.5435 0
M  V30 840 O 75.9573 1.90044 -5.7111 0
M  V30 841 H 79.7833 -0.0448345 -3.03667 0
M  V30 842 H 77.3683 -0.0877418 -1.49142 0
M  V30 843 H 79.2503 2.3663 -3.48689 0
M  V30 844 H 77.9253 2.28395 -2.29385 0
M  V30 845 H 76.8323 0.452436 -3.71354 0
M  V30 846 H 78.1653 0.614805 -4.88345 0
M  V30 847 N 79.8174 1.5752 -0.0501392 0
M  V30 848 C 81.0664 1.91827 0.623328 0
M  V30 849 C 81.3794 0.930222 1.72065 0
M  V30 850 O 82.5854 1.1653 2.4522 0
M  V30 851 C 81.0414 3.40692 1.16003 0
M  V30 852 C 80.6494 4.479 0.0948811 0
M  V30 853 C 82.3934 3.84034 1.80881 0
M  V30 854 C 80.3004 5.87879 0.644411 0
M  V30 855 H 79.2304 0.715918 0.236596 0
M  V30 856 H 81.8814 1.83115 -0.118861 0
M  V30 857 H 80.2634 3.44405 1.9545 0
M  V30 858 H 81.4374 4.55775 -0.678675 0
M  V30 859 H 79.7524 4.13892 -0.45637 0
M  V30 860 H 82.3494 4.85984 2.22988 0
M  V30 861 H 82.6924 3.20225 2.6601 0
M  V30 862 H 83.2254 3.82833 1.0809 0
M  V30 863 H 79.9644 6.55282 -0.169229 0
M  V30 864 H 79.4844 5.83567 1.38598 0
M  V30 865 H 81.1634 6.37098 1.12763 0
M  V30 866 N 81.2955 -0.223234 1.56011 0
M  V30 867 C 82.2255 -1.27988 1.95298 0
M  V30 868 C 83.2065 -1.48976 0.820979 0
M  V30 869 O 84.3915 -1.61188 1.08315 0
M  V30 870 C 81.5215 -2.63 2.26822 0
M  V30 871 C 80.4755 -2.56671 3.42497 0
M  V30 872 C 79.8015 -3.95697 3.59622 0
M  V30 873 C 81.1015 -2.11601 4.77517 0
M  V30 874 H 82.7955 -0.953525 2.8381 0
M  V30 875 H 80.3415 -0.457244 1.36548 0
M  V30 876 H 82.2945 -3.37077 2.52898 0
M  V30 877 H 81.0185 -2.9732 1.35161 0
M  V30 878 H 79.6775 -1.85051 3.16467 0
M  V30 879 H 79.3255 -4.27322 2.6534 0
M  V30 880 H 79.0255 -3.92345 4.37424 0
M  V30 881 H 80.5495 -4.71438 3.88044 0
M  V30 882 H 81.9635 -2.7542 5.02809 0
M  V30 883 H 80.3605 -2.19311 5.5859 0
M  V30 884 H 81.4305 -1.06824 4.72987 0
M  V30 885 N 82.7736 -1.49793 -0.48987 0
M  V30 886 C 84.0506 -1.50348 -1.25119 0
M  V30 887 C 84.4306 -0.237466 -2.0976 0
M  V30 888 O 83.7786 0.77981 -2.14782 0
M  V30 889 C 83.9886 -2.78872 -2.09837 0
M  V30 890 C 85.3366 -3.288 -2.68655 0
M  V30 891 O 86.3606 -2.80065 -2.20096 0
M  V30 892 O 85.2196 -4.13707 -3.57083 0
M  V30 893 H 82.3136 -0.602242 -0.566775 0
M  V30 894 H 84.8596 -1.62067 -0.503229 0
M  V30 895 H 83.6316 -3.62499 -1.47343 0
M  V30 896 H 83.2546 -2.70066 -2.91805 0
M  V30 897 N 84.2517 0.741722 -1.39055 0
M  V30 898 C 85.4797 1.53098 -1.39171 0
M  V30 899 C 85.8947 1.88794 0.0155099 0
M  V30 900 O 85.2517 1.53626 0.985159 0
M  V30 901 C 85.3027 2.82274 -2.2584 0
M  V30 902 O 85.0237 2.48097 -3.61081 0
M  V30 903 C 86.5247 3.76343 -2.34266 0
M  V30 904 H 83.7447 0.473335 -0.4756 0
M  V30 905 H 86.2887 0.917045 -1.82785 0
M  V30 906 H 84.4437 3.40015 -1.85656 0
M  V30 907 H 84.8577 3.31029 -4.06842 0
M  V30 908 H 86.3317 4.63898 -2.9917 0
M  V30 909 H 86.8087 4.17619 -1.35982 0
M  V30 910 H 87.4147 3.24523 -2.74891 0
M  V30 911 N 85.7298 1.2412 0.971189 0
M  V30 912 C 86.6928 1.03156 2.04674 0
M  V30 913 C 87.6928 -0.00990322 1.60797 0
M  V30 914 O 88.8828 0.230729 1.72665 0
M  V30 915 C 86.0148 0.562765 3.36223 0
M  V30 916 H 87.2078 1.98614 2.24705 0
M  V30 917 H 84.7608 1.06293 1.14593 0
M  V30 918 H 85.4958 -0.395176 3.21883 0
M  V30 919 H 85.2808 1.31441 3.69413 0
M  V30 920 H 86.7708 0.437015 4.15307 0
M  V30 921 N 87.2079 -1.17134 1.05439 0
M  V30 922 C 88.4559 -1.87085 0.764429 0
M  V30 923 C 88.7769 -1.81584 -0.710787 0
M  V30 924 O 88.0469 -1.24349 -1.51374 0
M  V30 925 H 86.6269 -0.692627 0.279779 0
M  V30 926 H 89.2889 -1.42087 1.33406 0
M  V30 927 H 88.3849 -2.92759 1.0816 0
M  V30 928 N 88.686 -0.835752 -1.33615 0
M  V30 929 C 89.914 -0.443344 -2.02094 0
M  V30 930 C 90.329 0.954522 -1.62894 0
M  V30 931 O 89.686 1.61982 -0.840723 0
M  V30 932 C 89.737 -0.550775 -3.5728 0
M  V30 933 O 89.458 -1.89356 -3.95065 0
M  V30 934 C 90.959 -0.154919 -4.43029 0
M  V30 935 H 88.179 -0.176359 -0.647409 0
M  V30 936 H 90.723 -1.12746 -1.70612 0
M  V30 937 H 88.878 0.0853997 -3.87306 0
M  V30 938 H 89.292 -1.87687 -4.89769 0
M  V30 939 H 90.766 -0.281144 -5.51284 0
M  V30 940 H 91.243 0.902863 -4.2982 0
M  V30 941 H 91.849 -0.765404 -4.18356 0
M  V30 942 N 90.1641 1.46063 -0.591896 0
M  V30 943 C 91.0741 2.34192 0.13831 0
M  V30 944 C 92.0901 1.50305 0.876608 0
M  V30 945 O 93.2661 1.8315 0.837728 0
M  V30 946 C 90.3311 3.27656 1.13326 0
M  V30 947 C 89.3921 4.27445 0.39863 0
M  V30 948 C 88.6251 5.16443 1.34618 0
M  V30 949 O 88.8481 5.08553 2.58321 0
M  V30 950 O 87.7821 5.95843 0.851768 0
M  V30 951 H 91.6081 2.98002 -0.58552 0
M  V30 952 H 89.1931 1.45188 -0.352239 0
M  V30 953 H 91.0751 3.85291 1.70671 0
M  V30 954 H 89.7501 2.6643 1.83839 0
M  V30 955 H 88.6571 3.73471 -0.216895 0
M  V30 956 H 89.9901 4.91482 -0.265709 0
M  V30 957 N 91.6422 0.330177 1.54103 0
M  V30 958 C 92.5742 -0.566902 2.22079 0
M  V30 959 C 93.5872 -1.07462 1.22294 0
M  V30 960 O 94.7762 -0.987065 1.48726 0
M  V30 961 C 91.8762 -1.79138 2.87685 0
M  V30 962 C 91.0492 -1.42123 4.13666 0
M  V30 963 C 90.1082 -2.50394 4.62806 0
M  V30 964 O 89.1342 -2.14261 5.27334 0
M  V30 965 N 90.3362 -3.81433 4.37595 0
M  V30 966 H 93.1012 0.0151844 2.99696 0
M  V30 967 H 90.6622 0.153681 1.61169 0
M  V30 968 H 92.6542 -2.50975 3.1748 0
M  V30 969 H 91.2242 -2.28115 2.13734 0
M  V30 970 H 90.4442 -0.534201 3.90564 0
M  V30 971 H 91.7322 -1.14971 4.9564 0
M  V30 972 H 91.1302 -4.13584 3.8596 0
M  V30 973 H 89.6872 -4.4948 4.72029 0
M  V30 974 N 93.1203 -1.57491 0.0584922 0
M  V30 975 C 94.3673 -1.92978 -0.613648 0
M  V30 976 C 94.6953 -0.937461 -1.70417 0
M  V30 977 O 93.9503 0.049078 -1.95638 0
M  V30 978 C 94.2493 -3.3513 -1.24188 0
M  V30 979 C 93.9153 -4.50037 -0.278826 0
M  V30 980 C 92.5773 -4.81198 -0.0138447 0
M  V30 981 C 94.9293 -5.19807 0.380777 0
M  V30 982 C 92.2573 -5.79473 0.918052 0
M  V30 983 C 94.6093 -6.19079 1.30091 0
M  V30 984 C 93.2733 -6.48665 1.57449 0
M  V30 985 H 92.5433 -0.706157 -0.22455 0
M  V30 986 H 95.1903 -1.91082 0.126533 0
M  V30 987 H 93.4953 -3.33429 -2.05749 0
M  V30 988 H 95.1923 -3.59871 -1.769 0
M  V30 989 H 91.7823 -4.25726 -0.495539 0
M  V30 990 H 95.9663 -4.95939 0.189158 0
M  V30 991 H 91.2223 -6.00727 1.1374 0
M  V30 992 H 95.3963 -6.7225 1.81804 0
M  V30 993 H 93.0233 -7.24628 2.29822 0
M  V30 994 N 94.5984 0.214957 -1.56127 0
M  V30 995 C 95.5614 1.24997 -1.92116 0
M  V30 996 C 96.5614 1.39467 -0.800344 0
M  V30 997 O 97.7514 1.37619 -1.06802 0
M  V30 998 C 94.8834 2.62271 -2.17777 0
M  V30 999 H 96.0764 0.942875 -2.84693 0
M  V30 1000 H 93.6294 0.455654 -1.49511 0
M  V30 1001 H 94.3644 2.98068 -1.27773 0
M  V30 1002 H 94.1494 2.53143 -2.99434 0
M  V30 1003 H 95.6394 3.36946 -2.46693 0
M  V30 1004 N 96.0765 1.50051 0.48192 0
M  V30 1005 C 97.3015 1.64508 1.26301 0
M  V30 1006 C 97.7265 0.323851 1.85291 0
M  V30 1007 O 97.0845 -0.710969 1.66778 0
M  V30 1008 C 97.1325 2.7305 2.35533 0
M  V30 1009 O 96.2365 2.3355 3.39895 0
M  V30 1010 H 95.5775 0.549978 0.372048 0
M  V30 1011 H 98.1075 1.9636 0.574786 0
M  V30 1012 H 98.1175 2.95799 2.8101 0
M  V30 1013 H 96.7925 3.68946 1.91967 0
M  V30 1014 H 95.3695 2.21205 3.00204 0
M  V30 1015 N 97.5546 -0.734337 1.39446 0
M  V30 1016 C 98.4876 -1.85715 1.32609 0
M  V30 1017 C 99.4656 -1.6137 0.199636 0
M  V30 1018 O 100.65 -1.84626 0.380195 0
M  V30 1019 C 97.7766 -3.21709 1.05929 0
M  V30 1020 C 96.8226 -3.64913 2.20773 0
M  V30 1021 S 97.6556 -3.74203 3.83056 0
M  V30 1022 C 98.8116 -5.12986 3.58603 0
M  V30 1023 H 99.0446 -1.91232 2.27635 0
M  V30 1024 H 96.5776 -0.899263 1.25509 0
M  V30 1025 H 98.5356 -4.00236 0.912203 0
M  V30 1026 H 97.1966 -3.13848 0.125883 0
M  V30 1027 H 96.3896 -4.63606 1.97699 0
M  V30 1028 H 95.9916 -2.93593 2.31688 0
M  V30 1029 H 98.2836 -5.99339 3.15909 0
M  V30 1030 H 99.2266 -5.41088 4.5676 0
M  V30 1031 H 99.6346 -4.82694 2.9269 0
M  V30 1032 N 99.0327 -1.24633 -0.964593 0
M  V30 1033 C 100.449 -1.01239 -1.2338 0
M  V30 1034 C 100.649 0.2769 -1.99588 0
M  V30 1035 O 99.7047 0.992241 -2.32187 0
M  V30 1036 C 101.018 -2.22937 -2.01791 0
M  V30 1037 C 102.566 -2.27594 -2.14872 0
M  V30 1038 C 103.041 -3.48921 -2.96678 0
M  V30 1039 N 104.532 -3.49257 -3.04259 0
M  V30 1040 C 105.267 -4.39795 -3.67924 0
M  V30 1041 N 104.763 -5.40591 -4.33281 0
M  V30 1042 N 106.556 -4.275 -3.64966 0
M  V30 1043 H 98.7067 -2.0748 -0.454502 0
M  V30 1044 H 100.97 -0.910647 -0.26349 0
M  V30 1045 H 100.676 -3.16587 -1.53184 0
M  V30 1046 H 100.55 -2.25306 -3.02518 0
M  V30 1047 H 102.937 -1.34473 -2.6268 0
M  V30 1048 H 103.018 -2.2925 -1.13482 0
M  V30 1049 H 102.662 -4.42359 -2.49562 0
M  V30 1050 H 102.592 -3.4451 -3.98272 0
M  V30 1051 H 105.083 -2.76337 -2.57771 0
M  V30 1052 H 105.396 -6.05904 -4.79687 0
M  V30 1053 H 103.741 -5.44475 -4.3194 0
M  V30 1054 H 106.932 -3.47987 -3.13086 0
M  V30 1055 H 107.105 -4.98258 -4.14298 0
M  V30 1056 N 100.511 1.16574 -1.06058 0
M  V30 1057 C 101.788 1.83048 -0.689416 0
M  V30 1058 C 102.168 1.94122 0.829443 0
M  V30 1059 O 101.516 1.48249 1.7388 0
M  V30 1060 C 101.726 3.20186 -1.38859 0
M  V30 1061 C 103.074 3.95989 -1.53226 0
M  V30 1062 O 104.098 3.29696 -1.3483 0
M  V30 1063 O 102.957 5.14813 -1.83384 0
M  V30 1064 H 100.051 0.790258 -0.243764 0
M  V30 1065 H 102.597 1.23797 -1.16071 0
M  V30 1066 H 101.369 3.07146 -2.4244 0
M  V30 1067 H 100.992 3.87112 -0.907216 0
M  V30 1068 N 101.989 0.842826 1.3317 0
M  V30 1069 C 102.919 0.294028 2.31641 0
M  V30 1070 C 103.9 -0.600401 1.59151 0
M  V30 1071 O 105.085 -0.523124 1.87022 0
M  V30 1072 C 102.215 -0.528416 3.43257 0
M  V30 1073 C 101.169 0.27056 4.27144 0
M  V30 1074 C 100.495 -0.675881 5.30411 0
M  V30 1075 C 101.795 1.48981 5.00602 0
M  V30 1076 H 103.489 1.11681 2.77791 0
M  V30 1077 H 101.035 0.538478 1.33553 0
M  V30 1078 H 102.988 -0.922674 4.11175 0
M  V30 1079 H 101.712 -1.38445 2.95805 0
M  V30 1080 H 100.371 0.646427 3.60856 0
M  V30 1081 H 100.019 -1.52842 4.79216 0
M  V30 1082 H 99.7189 -0.145374 5.8742 0
M  V30 1083 H 101.243 -1.06757 6.01195 0
M  V30 1084 H 102.657 1.16849 5.61266 0
M  V30 1085 H 101.054 1.95739 5.6728 0
M  V30 1086 H 102.124 2.25746 4.29147 0
M  V30 1087 N 103.467 -1.45747 0.599634 0
M  V30 1088 C 104.697 -2.06369 0.0977132 0
M  V30 1089 C 105.105 -1.44624 -1.21985 0
M  V30 1090 O 104.448 -0.551831 -1.75216 0
M  V30 1091 C 104.51 -3.59284 -0.124673 0
M  V30 1092 C 104.174 -4.43318 1.10987 0
M  V30 1093 C 105.171 -4.78796 2.02609 0
M  V30 1094 C 102.856 -4.84194 1.33647 0
M  V30 1095 C 104.85 -5.53997 3.15224 0
M  V30 1096 C 102.537 -5.5915 2.46565 0
M  V30 1097 C 103.535 -5.93968 3.37182 0
M  V30 1098 O 103.223 -6.67405 4.48136 0
M  V30 1099 H 102.955 -0.673122 0.0623153 0
M  V30 1100 H 105.509 -1.88104 0.824981 0
M  V30 1101 H 103.739 -3.75919 -0.906745 0
M  V30 1102 H 105.428 -4.01775 -0.577201 0
M  V30 1103 H 106.194 -4.47781 1.86325 0
M  V30 1104 H 102.073 -4.56534 0.64016 0
M  V30 1105 H 105.617 -5.81091 3.85978 0
M  V30 1106 H 101.514 -5.89579 2.62805 0
M  V30 1107 H 102.282 -6.85847 4.46717 0
M  V30 1108 N 104.945 -0.338344 -1.53925 0
M  V30 1109 C 106.194 0.260732 -2.00008 0
M  V30 1110 C 106.507 1.52073 -1.23017 0
M  V30 1111 O 107.713 2.19672 -1.5955 0
M  V30 1112 C 106.169 0.51515 -3.56194 0
M  V30 1113 C 105.777 -0.728645 -4.42035 0
M  V30 1114 C 107.521 1.07337 -4.10706 0
M  V30 1115 C 105.428 -0.445315 -5.89721 0
M  V30 1116 H 104.358 0.101205 -0.747177 0
M  V30 1117 H 107.009 -0.452866 -1.77824 0
M  V30 1118 H 105.391 1.28932 -3.74423 0
M  V30 1119 H 106.565 -1.50352 -4.35581 0
M  V30 1120 H 104.88 -1.20813 -3.98489 0
M  V30 1121 H 107.477 1.30022 -5.18651 0
M  V30 1122 H 107.82 2.0273 -3.63602 0
M  V30 1123 H 108.353 0.360034 -3.96167 0
M  V30 1124 H 105.092 -1.36883 -6.41049 0
M  V30 1125 H 104.612 0.291569 -5.99091 0
M  V30 1126 H 106.291 -0.0606218 -6.46972 0
M  V30 1127 N 106.423 1.57458 -0.0668435 0
M  V30 1128 C 107.37 2.12439 0.902122 0
M  V30 1129 C 108.34 1.03565 1.2986 0
M  V30 1130 O 109.525 1.312 1.38532 0
M  V30 1131 C 106.665 2.6865 2.16614 0
M  V30 1132 C 105.778 3.91663 1.82274 0
M  V30 1133 C 104.913 4.36134 3.0325 0
M  V30 1134 C 103.952 5.51808 2.64904 0
M  V30 1135 N 103.089 5.9126 3.78624 0
M  V30 1136 H 107.929 2.94934 0.426382 0
M  V30 1137 H 105.466 1.4575 0.198819 0
M  V30 1138 H 107.424 2.99346 2.90599 0
M  V30 1139 H 106.054 1.88928 2.61737 0
M  V30 1140 H 105.106 3.6746 0.983719 0
M  V30 1141 H 106.418 4.75693 1.50059 0
M  V30 1142 H 105.572 4.68465 3.85519 0
M  V30 1143 H 104.311 3.50948 3.38655 0
M  V30 1144 H 103.316 5.19133 1.81055 0
M  V30 1145 H 104.541 6.38722 2.30675 0
M  V30 1146 H 102.487 5.09024 4.138 0
M  V30 1147 H 102.404 6.70018 3.5016 0
M  V30 1148 H 103.672 6.28212 4.61486 0
M  V30 1149 N 107.901 -0.206675 1.56239 0
M  V30 1150 C 108.849 -1.27571 1.94495 0
M  V30 1151 C 109.843 -1.47737 0.828862 0
M  V30 1152 O 111.049 -1.48735 1.0138 0
M  V30 1153 H 107.424 -0.428029 0.6183 0
M  V30 1154 H 109.395 -0.925961 2.8367 0
M  V30 1155 C 108.144 -2.61568 2.29079 0
M  V30 1156 H 107.467 -2.46863 3.14482 0
M  V30 1157 H 108.907 -3.35144 2.5972 0
M  V30 1158 C 107.366 -3.17695 1.12123 0
M  V30 1159 O 107.896 -3.99801 0.390153 0
M  V30 1160 N 106.102 -2.76276 0.901097 0
M  V30 1161 H 105.649 -2.09613 1.49733 0
M  V30 1162 H 105.607 -3.1417 0.120319 0
M  V30 1163 N 109.379 -1.50304 -0.473955 0
M  V30 1164 C 110.627 -1.60832 -1.22382 0
M  V30 1165 C 110.948 -0.30939 -1.9253 0
M  V30 1166 O 110.218 0.67296 -1.83978 0
M  V30 1167 H 108.798 -0.592652 -0.454723 0
M  V30 1168 H 111.46 -1.87068 -0.546968 0
M  V30 1169 H 110.556 -2.41803 -1.97327 0
M  V30 1170 N 110.857 0.726932 -1.39834 0
M  V30 1171 C 111.789 1.85147 -1.35104 0
M  V30 1172 C 112.802 1.60736 -0.258392 0
M  V30 1173 O 113.991 1.70821 -0.517931 0
M  V30 1174 C 111.091 3.21332 -1.07697 0
M  V30 1175 C 110.264 3.73033 -2.28396 0
M  V30 1176 C 109.323 4.87802 -1.97322 0
M  V30 1177 O 108.349 5.01043 -2.70083 0
M  V30 1178 N 109.551 5.72768 -0.944273 0
M  V30 1179 H 112.316 1.89706 -2.32017 0
M  V30 1180 H 109.877 0.908006 -1.3404 0
M  V30 1181 H 111.869 3.95691 -0.849144 0
M  V30 1182 H 110.439 3.11992 -0.194909 0
M  V30 1183 H 109.659 2.89934 -2.6708 0
M  V30 1184 H 110.947 4.0431 -3.08887 0
M  V30 1185 H 110.345 5.64669 -0.341427 0
M  V30 1186 H 108.902 6.4716 -0.776346 0
M  V30 1187 N 112.336 1.25143 0.95797 0
M  V30 1188 C 113.584 1.09476 1.69881 0
M  V30 1189 C 113.905 -0.365502 1.91544 0
M  V30 1190 O 113.175 -1.25985 1.50015 0
M  V30 1191 H 111.755 0.402128 0.629525 0
M  V30 1192 H 114.417 1.57214 1.15194 0
M  V30 1193 H 113.513 1.60046 2.6794 0
M  V30 1194 N 113.814 -1.1601 1.06675 0
M  V30 1195 C 115.061 -1.86633 0.785781 0
M  V30 1196 C 115.389 -1.81929 -0.687896 0
M  V30 1197 O 114.644 -1.23253 -1.52011 0
M  V30 1198 C 114.943 -3.35547 1.23057 0
M  V30 1199 C 114.609 -3.60448 2.70902 0
M  V30 1200 C 113.271 -3.66954 3.11285 0
M  V30 1201 C 115.623 -3.7071 3.66365 0
M  V30 1202 C 112.951 -3.81225 4.45965 0
M  V30 1203 C 115.303 -3.86503 5.00797 0
M  V30 1204 C 113.967 -3.91252 5.40813 0
M  V30 1205 H 113.237 -0.682937 0.287538 0
M  V30 1206 H 115.884 -1.37146 1.33654 0
M  V30 1207 H 114.189 -3.87193 0.59907 0
M  V30 1208 H 115.886 -3.88583 0.990163 0
M  V30 1209 H 112.476 -3.56021 2.38636 0
M  V30 1210 H 116.66 -3.64991 3.36296 0
M  V30 1211 H 111.916 -3.83155 4.76447 0
M  V30 1212 H 116.09 -3.93385 5.74649 0
M  V30 1213 H 113.717 -4.02062 6.45174 0
M  V30 1214 N 115.292 -0.849877 -1.32721 0
M  V30 1215 C 116.541 -0.447175 -1.96681 0
M  V30 1216 C 116.854 1.00135 -1.68025 0
M  V30 1217 O 118.06 1.50926 -2.25685 0
M  V30 1218 C 116.516 -0.7487 -3.52026 0
M  V30 1219 C 116.124 -2.21264 -3.89546 0
M  V30 1220 C 117.868 -0.413487 -4.22481 0
M  V30 1221 C 115.775 -2.45763 -5.37917 0
M  V30 1222 H 114.705 -0.163486 -0.736063 0
M  V30 1223 H 117.356 -1.03999 -1.51183 0
M  V30 1224 H 115.738 -0.0853727 -3.95908 0
M  V30 1225 H 116.912 -2.91736 -3.56689 0
M  V30 1226 H 115.227 -2.5119 -3.32103 0
M  V30 1227 H 117.824 -0.574017 -5.3161 0
M  V30 1228 H 118.167 0.644492 -4.11281 0
M  V30 1229 H 118.7 -1.03251 -3.84167 0
M  V30 1230 H 115.439 -3.50168 -5.54132 0
M  V30 1231 H 114.959 -1.79864 -5.72197 0
M  V30 1232 H 116.638 -2.29471 -6.0494 0
M  V30 1233 N 116.77 1.45427 -0.607355 0
M  V30 1234 C 117.7 2.3329 0.0989352 0
M  V30 1235 C 118.681 1.46816 0.859007 0
M  V30 1236 O 119.866 1.75588 0.829604 0
M  V30 1237 C 116.996 3.29518 1.09705 0
M  V30 1238 C 115.95 4.25626 0.450206 0
M  V30 1239 C 115.276 5.11542 1.55655 0
M  V30 1240 C 116.576 5.18505 -0.628455 0
M  V30 1241 H 118.27 2.92595 -0.634716 0
M  V30 1242 H 115.816 1.40696 -0.306681 0
M  V30 1243 H 117.769 3.89855 1.59971 0
M  V30 1244 H 116.493 2.68372 1.86129 0
M  V30 1245 H 115.152 3.66586 -0.0315886 0
M  V30 1246 H 114.8 4.46765 2.31107 0
M  V30 1247 H 114.5 5.76647 1.12925 0
M  V30 1248 H 116.024 5.74748 2.06148 0
M  V30 1249 H 117.438 5.72916 -0.209877 0
M  V30 1250 H 115.835 5.92085 -0.977489 0
M  V30 1251 H 116.905 4.60948 -1.50514 0
M  V30 1252 N 118.248 0.346503 1.53744 0
M  V30 1253 C 119.494 -0.249473 2.0126 0
M  V30 1254 C 119.827 -1.49965 1.23386 0
M  V30 1255 O 119.102 -1.91811 0.32229 0
M  V30 1256 C 119.385 -0.560643 3.55709 0
M  V30 1257 C 119.238 0.701836 4.44291 0
M  V30 1258 C 120.557 -1.36905 4.18264 0
M  V30 1259 H 117.676 -0.0891987 0.731582 0
M  V30 1260 H 120.318 0.467624 1.84156 0
M  V30 1261 H 118.468 -1.17156 3.70414 0
M  V30 1262 H 120.14 1.33974 4.41417 0
M  V30 1263 H 118.383 1.32612 4.13033 0
M  V30 1264 H 119.054 0.43933 5.50249 0
M  V30 1265 H 121.53 -0.852448 4.07275 0
M  V30 1266 H 120.406 -1.55553 5.26398 0
M  V30 1267 H 120.667 -2.37203 3.73078 0
M  V30 1268 N 119.726 -1.57421 0.075193 0
M  V30 1269 C 120.956 -1.97659 -0.601203 0
M  V30 1270 C 121.364 -0.952427 -1.63479 0
M  V30 1271 O 120.707 0.0688241 -1.83571 0
M  V30 1272 C 120.769 -3.34218 -1.32434 0
M  V30 1273 C 120.433 -4.5484 -0.443826 0
M  V30 1274 C 121.43 -5.19034 0.299969 0
M  V30 1275 C 119.115 -5.00952 -0.367709 0
M  V30 1276 C 121.109 -6.27695 1.10807 0
M  V30 1277 C 118.796 -6.09484 0.444058 0
M  V30 1278 C 119.794 -6.72719 1.18061 0
M  V30 1279 O 119.482 -7.79161 1.97898 0
M  V30 1280 H 119.214 -0.65494 -0.167422 0
M  V30 1281 H 121.768 -2.04886 0.145157 0
M  V30 1282 H 119.998 -3.23615 -2.11685 0
M  V30 1283 H 121.687 -3.59038 -1.89331 0
M  V30 1284 H 122.453 -4.84351 0.250776 0
M  V30 1285 H 118.332 -4.51509 -0.930638 0
M  V30 1286 H 121.876 -6.76982 1.68347 0
M  V30 1287 H 117.773 -6.43601 0.494803 0
M  V30 1288 H 118.541 -7.96055 1.90367 0
M  V30 1289 N 121.204 0.198386 -1.56346 0
M  V30 1290 C 122.429 0.939682 -1.84891 0
M  V30 1291 C 122.854 1.76202 -0.658369 0
M  V30 1292 O 122.212 1.76993 0.392851 0
M  V30 1293 C 122.26 1.81428 -3.11635 0
M  V30 1294 O 121.364 2.91265 -2.91956 0
M  V30 1295 H 120.705 0.264807 -0.608912 0
M  V30 1296 H 123.235 0.204695 -2.03573 0
M  V30 1297 H 123.245 2.21958 -3.42343 0
M  V30 1298 H 121.92 1.21004 -3.97908 0
M  V30 1299 H 120.497 2.54514 -2.72538 0
M  V30 1300 N 122.682 1.50554 0.465978 0
M  V30 1301 C 123.612 1.72722 1.57128 0
M  V30 1302 C 124.593 0.576294 1.6004 0
M  V30 1303 O 125.778 0.81598 1.76225 0
M  V30 1304 C 122.908 1.82605 2.95419 0
M  V30 1305 C 121.862 2.97835 3.07373 0
M  V30 1306 C 121.188 2.92867 4.47363 0
M  V30 1307 C 122.488 4.38265 2.84114 0
M  V30 1308 H 124.182 2.65267 1.38829 0
M  V30 1309 H 121.728 1.2765 0.666441 0
M  V30 1310 H 123.681 1.96698 3.72677 0
M  V30 1311 H 122.405 0.866858 3.14886 0
M  V30 1312 H 121.064 2.83401 2.3255 0
M  V30 1313 H 120.712 1.94783 4.63755 0
M  V30 1314 H 120.412 3.70227 4.56296 0
M  V30 1315 H 121.936 3.09015 5.26633 0
M  V30 1316 H 123.35 4.53198 3.51118 0
M  V30 1317 H 121.747 5.17115 3.04487 0
M  V30 1318 H 122.817 4.50281 1.7993 0
M  V30 1319 N 124.16 -0.719506 1.40217 0
M  V30 1320 C 125.406 -1.48152 1.38488 0
M  V30 1321 C 125.739 -1.94195 -0.0141867 0
M  V30 1322 O 125.014 -1.67884 -0.982096 0
M  V30 1323 C 125.297 -2.71035 2.37091 0
M  V30 1324 C 125.15 -2.30912 3.86005 0
M  V30 1325 C 126.469 -3.73182 2.33288 0
M  V30 1326 H 123.588 -0.537395 0.504357 0
M  V30 1327 H 126.23 -0.821472 1.71324 0
M  V30 1328 H 124.38 -3.27352 2.0922 0
M  V30 1329 H 126.052 -1.80107 4.24687 0
M  V30 1330 H 124.295 -1.62958 4.02029 0
M  V30 1331 H 124.966 -3.18978 4.50508 0
M  V30 1332 H 127.442 -3.26485 2.57966 0
M  V30 1333 H 126.318 -4.56806 3.04334 0
M  V30 1334 H 126.579 -4.21202 1.34317 0
M  V30 1335 N 125.638 -1.25649 -0.95132 0
M  V30 1336 C 126.586 -1.06118 -2.06982 0
M  V30 1337 C 127.58 0.00889169 -1.69398 0
M  V30 1338 O 128.786 -0.146988 -1.79399 0
M  V30 1339 H 125.161 -0.326248 -0.677544 0
M  V30 1340 H 127.132 -2.00932 -2.2061 0
M  V30 1341 C 125.881 -0.700145 -3.40578 0
M  V30 1342 H 125.204 -1.51537 -3.69968 0
M  V30 1343 H 126.644 -0.603211 -4.19687 0
M  V30 1344 C 125.103 0.59403 -3.31622 0
M  V30 1345 O 125.633 1.63522 -3.66911 0
M  V30 1346 N 123.839 0.58089 -2.84735 0
M  V30 1347 H 123.386 -0.266783 -2.56215 0
M  V30 1348 H 123.344 1.44695 -2.79125 0
M  V30 1349 N 127.117 1.15442 -1.07289 0
M  V30 1350 C 128.049 2.19773 -0.650585 0
M  V30 1351 C 129.062 1.60076 0.296572 0
M  V30 1352 O 130.251 1.78293 0.0859905 0
M  V30 1353 C 127.351 3.38838 0.0650398 0
M  V30 1354 C 126.524 4.2808 -0.898141 0
M  V30 1355 C 125.583 5.2574 -0.219926 0
M  V30 1356 O 124.609 5.62654 -0.860773 0
M  V30 1357 N 125.811 5.71205 1.03466 0
M  V30 1358 H 128.576 2.56622 -1.54808 0
M  V30 1359 H 126.137 1.30551 -0.957494 0
M  V30 1360 H 128.129 4.01222 0.529415 0
M  V30 1361 H 126.699 3.00409 0.864466 0
M  V30 1362 H 125.919 3.62804 -1.54165 0
M  V30 1363 H 127.207 4.84577 -1.5512 0
M  V30 1364 H 126.605 5.43325 1.57526 0
M  V30 1365 H 125.162 6.35633 1.44272 0
M  V30 1366 N 128.595 0.856903 1.32268 0
M  V30 1367 C 129.527 0.260412 2.27716 0
M  V30 1368 C 130.54 -0.569137 1.52528 0
M  V30 1369 O 131.729 -0.39326 1.74114 0
M  V30 1370 C 128.829 -0.650477 3.32599 0
M  V30 1371 C 128.002 0.14372 4.37164 0
M  V30 1372 C 127.061 -0.69328 5.21613 0
M  V30 1373 O 126.087 -0.12599 5.69061 0
M  V30 1374 N 127.289 -2.00761 5.44679 0
M  V30 1375 H 130.054 1.08059 2.79541 0
M  V30 1376 H 127.615 0.717103 1.45152 0
M  V30 1377 H 129.607 -1.21581 3.86005 0
M  V30 1378 H 128.177 -1.37133 2.80915 0
M  V30 1379 H 127.397 0.890486 3.8401 0
M  V30 1380 H 128.685 0.68915 5.04111 0
M  V30 1381 H 128.083 -2.49181 5.07863 0
M  V30 1382 H 126.64 -2.52103 6.01072 0
M  V30 1383 N 130.073 -1.45103 0.615059 0
M  V30 1384 C 131.298 -2.07064 0.117988 0
M  V30 1385 C 131.723 -1.4554 -1.19163 0
M  V30 1386 O 131.081 -0.550855 -1.72729 0
M  V30 1387 C 131.129 -3.606 -0.000288387 0
M  V30 1388 O 130.233 -3.98847 -1.04856 0
M  V30 1389 H 129.574 -0.659467 0.0774581 0
M  V30 1390 H 132.104 -1.86236 0.847186 0
M  V30 1391 H 132.114 -4.07529 -0.196091 0
M  V30 1392 H 130.789 -4.04765 0.955932 0
M  V30 1393 H 129.366 -3.63577 -0.828619 0
M  V30 1394 N 131.551 -0.354651 -1.53558 0
M  V30 1395 C 132.798 0.238443 -2.01091 0
M  V30 1396 C 133.126 1.49663 -1.24222 0
M  V30 1397 O 132.381 1.93049 -0.321003 0
M  V30 1398 C 132.68 0.587121 -3.52545 0
M  V30 1399 C 132.346 -0.575472 -4.47213 0
M  V30 1400 C 131.008 -0.894497 -4.72813 0
M  V30 1401 C 133.36 -1.35489 -5.03281 0
M  V30 1402 C 130.688 -1.99511 -5.51736 0
M  V30 1403 C 133.04 -2.44583 -5.83405 0
M  V30 1404 C 131.704 -2.77033 -6.07296 0
M  V30 1405 H 130.974 0.0872526 -0.735845 0
M  V30 1406 H 133.621 -0.484859 -1.8526 0
M  V30 1407 H 131.926 1.39129 -3.66265 0
M  V30 1408 H 133.623 1.05809 -3.86789 0
M  V30 1409 H 130.213 -0.316774 -4.27428 0
M  V30 1410 H 134.397 -1.12167 -4.83459 0
M  V30 1411 H 129.653 -2.25063 -5.68469 0
M  V30 1412 H 133.827 -3.05401 -6.25862 0
M  V30 1413 H 131.454 -3.6244 -6.68237 0
M  V30 1414 N 133.029 1.57378 -0.0835403 0
M  V30 1415 C 133.961 2.10389 0.909338 0
M  V30 1416 C 134.974 1.03858 1.25369 0
M  V30 1417 O 136.163 1.31338 1.20882 0
M  V30 1418 C 133.263 2.55908 2.2218 0
M  V30 1419 C 132.436 3.86145 2.05453 0
M  V30 1420 C 131.495 4.17633 3.20108 0
M  V30 1421 O 130.521 4.87043 2.94581 0
M  V30 1422 N 131.723 3.72113 4.45547 0
M  V30 1423 H 134.488 2.962 0.456657 0
M  V30 1424 H 132.049 1.61579 0.101877 0
M  V30 1425 H 134.041 2.74027 2.97811 0
M  V30 1426 H 132.611 1.75171 2.58909 0
M  V30 1427 H 131.831 3.7729 1.1422 0
M  V30 1428 H 133.119 4.7137 1.91541 0
M  V30 1429 H 132.517 3.16062 4.69171 0
M  V30 1430 H 131.074 3.95409 5.18165 0
M  V30 1431 N 134.507 -0.190092 1.56449 0
M  V30 1432 C 135.784 -0.935886 1.71757 0
M  V30 1433 C 136.164 -2.01173 0.639726 0
M  V30 1434 O 135.512 -2.25827 -0.348502 0
M  V30 1435 C 135.722 -1.51775 3.1427 0
M  V30 1436 C 137.07 -1.99794 3.74656 0
M  V30 1437 O 138.094 -1.61607 3.1743 0
M  V30 1438 O 136.953 -2.70079 4.751 0
M  V30 1439 H 134.047 -0.439229 0.700719 0
M  V30 1440 H 136.593 -0.179395 1.68749 0
M  V30 1441 H 135.365 -0.742505 3.84191 0
M  V30 1442 H 134.988 -2.33894 3.21527 0
M  V30 1443 N 135.985 -1.50799 -0.457987 0
M  V30 1444 C 137.234 -1.6168 -1.20593 0
M  V30 1445 C 137.547 -0.32888 -1.92815 0
M  V30 1446 O 138.753 -0.316773 -2.69646 0
M  V30 1447 C 137.209 -2.8545 -2.19195 0
M  V30 1448 C 136.817 -4.21168 -1.52715 0
M  V30 1449 C 138.561 -3.05681 -2.94549 0
M  V30 1450 C 136.468 -5.3611 -2.4968 0
M  V30 1451 H 135.398 -0.602134 -0.453818 0
M  V30 1452 H 138.049 -1.77245 -0.475031 0
M  V30 1453 H 136.431 -2.63472 -2.95632 0
M  V30 1454 H 137.605 -4.53449 -0.819775 0
M  V30 1455 H 135.92 -4.06648 -0.895922 0
M  V30 1456 H 138.517 -3.88727 -3.67145 0
M  V30 1457 H 138.86 -2.17929 -3.54701 0
M  V30 1458 H 139.393 -3.27901 -2.25223 0
M  V30 1459 H 136.132 -6.26057 -1.94249 0
M  V30 1460 H 135.652 -5.0823 -3.18532 0
M  V30 1461 H 137.331 -5.6722 -3.11241 0
M  V30 1462 N 137.463 0.71206 -1.40597 0
M  V30 1463 C 138.41 1.82613 -1.41142 0
M  V30 1464 C 139.38 1.63925 -0.267903 0
M  V30 1465 O 140.565 1.85009 -0.466495 0
M  V30 1466 C 137.705 3.20354 -1.28324 0
M  V30 1467 C 136.818 3.50589 -2.52411 0
M  V30 1468 C 135.953 4.77855 -2.32009 0
M  V30 1469 C 134.992 5.01005 -3.51654 0
M  V30 1470 N 134.129 6.19487 -3.30425 0
M  V30 1471 H 138.969 1.81482 -2.36365 0
M  V30 1472 H 136.506 0.886475 -1.17388 0
M  V30 1473 H 138.464 3.99899 -1.18899 0
M  V30 1474 H 137.094 3.20705 -0.367189 0
M  V30 1475 H 136.146 2.65573 -2.72351 0
M  V30 1476 H 137.458 3.63604 -3.41458 0
M  V30 1477 H 136.612 5.65424 -2.19956 0
M  V30 1478 H 135.351 4.67056 -1.40392 0
M  V30 1479 H 134.356 4.1189 -3.64179 0
M  V30 1480 H 135.581 5.13674 -4.44202 0
M  V30 1481 H 133.527 6.09932 -2.41494 0
M  V30 1482 H 133.444 6.33194 -4.13039 0
M  V30 1483 H 134.712 7.09834 -3.22113 0
M  V30 1484 N 138.941 1.26152 0.944643 0
M  V30 1485 C 140.352 1.10454 1.50522 0
M  V30 1486 C 140.703 -0.31635 1.93633 0
M  V30 1487 O 139.828 -1.20746 1.79581 0
M  V30 1488 C 140.423 1.99891 2.73549 0
M  V30 1489 C 138.982 1.88348 3.25886 0
M  V30 1490 C 138.129 1.93447 1.9868 0
M  V30 1491 H 141.08 1.39292 0.760489 0
M  V30 1492 H 141.101 1.54477 3.47732 0
M  V30 1493 H 140.613 3.03297 2.42141 0
M  V30 1494 H 138.714 0.878636 3.62092 0
M  V30 1495 H 138.827 2.73696 3.93227 0
M  V30 1496 H 137.191 1.37456 2.14425 0
M  V30 1497 H 137.974 2.98476 1.69607 0
M  V30 1498 N 140.419 -1.14872 1.07899 0
M  V30 1499 C 141.352 -2.18794 0.64841 0
M  V30 1500 C 142.33 -1.59065 -0.337189 0
M  V30 1501 O 143.514 -1.86936 -0.242284 0
M  V30 1502 C 140.641 -3.38667 -0.0470417 0
M  V30 1503 C 139.687 -4.16942 0.897884 0
M  V30 1504 S 140.52 -4.78615 2.40183 0
M  V30 1505 C 141.676 -6.0185 1.71834 0
M  V30 1506 H 141.909 -2.5498 1.52881 0
M  V30 1507 H 139.442 -1.25922 0.893484 0
M  V30 1508 H 141.4 -4.08113 -0.442027 0
M  V30 1509 H 140.061 -3.00814 -0.903861 0
M  V30 1510 H 139.254 -5.02726 0.358096 0
M  V30 1511 H 138.856 -3.53073 1.23352 0
M  V30 1512 H 141.148 -6.69574 1.03328 0
M  V30 1513 H 142.091 -6.60408 2.55473 0
M  V30 1514 H 142.499 -5.5173 1.19392 0
M  V30 1515 N 141.898 -0.863906 -1.31812 0
M  V30 1516 C 143.314 -0.555004 -1.49639 0
M  V30 1517 C 143.514 0.912266 -1.79666 0
M  V30 1518 O 142.57 1.69479 -1.87171 0
M  V30 1519 C 143.883 -1.44998 -2.63431 0
M  V30 1520 C 145.431 -1.45138 -2.77316 0
M  V30 1521 C 145.906 -2.33179 -3.94197 0
M  V30 1522 N 147.397 -2.31025 -4.01474 0
M  V30 1523 C 148.132 -2.95871 -4.9117 0
M  V30 1524 N 147.628 -3.69863 -5.8581 0
M  V30 1525 N 149.421 -2.85211 -4.84367 0
M  V30 1526 H 141.572 -1.81339 -1.10589 0
M  V30 1527 H 143.835 -0.77505 -0.545895 0
M  V30 1528 H 143.541 -2.49377 -2.48 0
M  V30 1529 H 143.415 -1.14409 -3.59431 0
M  V30 1530 H 145.802 -0.415201 -2.92164 0
M  V30 1531 H 145.883 -1.79747 -1.82001 0
M  V30 1532 H 145.527 -3.3687 -3.80107 0
M  V30 1533 H 145.457 -1.95897 -4.88807 0
M  V30 1534 H 147.948 -1.77238 -3.33759 0
M  V30 1535 H 148.261 -4.16486 -6.50968 0
M  V30 1536 H 146.606 -3.73971 -5.85808 0
M  V30 1537 H 149.797 -2.26948 -4.09405 0
M  V30 1538 H 149.97 -3.36027 -5.54066 0
M  V30 1539 N 143.376 1.44774 -0.622745 0
M  V30 1540 C 144.653 1.95522 -0.0551974 0
M  V30 1541 C 145.033 1.5649 1.41683 0
M  V30 1542 O 144.381 0.834848 2.12703 0
M  V30 1543 C 144.591 3.4796 -0.269242 0
M  V30 1544 C 145.939 4.24306 -0.158014 0
M  V30 1545 O 146.963 3.55637 -0.200162 0
M  V30 1546 O 145.822 5.46471 -0.0558693 0
M  V30 1547 H 142.916 0.826556 0.0271015 0
M  V30 1548 H 145.462 1.54866 -0.693864 0
M  V30 1549 H 144.234 3.6939 -1.29099 0
M  V30 1550 H 143.857 3.95543 0.403966 0
M  V30 1551 N 144.854 0.36279 1.53368 0
M  V30 1552 C 145.786 -0.519668 2.23231 0
M  V30 1553 C 146.799 -1.04844 1.24546 0
M  V30 1554 O 147.988 -0.955296 1.50786 0
M  V30 1555 C 145.088 -1.72995 2.9142 0
M  V30 1556 C 144.261 -1.33316 4.16588 0
M  V30 1557 C 143.32 -2.40521 4.68013 0
M  V30 1558 O 142.346 -2.03027 5.3176 0
M  V30 1559 N 143.548 -3.72065 4.45587 0
M  V30 1560 H 146.313 0.078751 2.99597 0
M  V30 1561 H 143.874 0.187833 1.60807 0
M  V30 1562 H 145.866 -2.44184 3.22733 0
M  V30 1563 H 144.436 -2.2353 2.18525 0
M  V30 1564 H 143.656 -0.451236 3.91609 0
M  V30 1565 H 144.944 -1.04432 4.97967 0
M  V30 1566 H 144.342 -4.05304 3.94646 0
M  V30 1567 H 142.899 -4.39366 4.81457 0
M  V30 1568 N 146.332 -1.57332 0.0918853 0
M  V30 1569 C 147.581 -1.93412 -0.572249 0
M  V30 1570 C 147.894 -0.975515 -1.69538 0
M  V30 1571 O 149.1 -1.22991 -2.42045 0
M  V30 1572 C 147.556 -3.43648 -1.0693 0
M  V30 1573 C 147.164 -4.47994 0.0239049 0
M  V30 1574 C 148.908 -3.88695 -1.70635 0
M  V30 1575 C 146.815 -5.89381 -0.488319 0
M  V30 1576 H 145.745 -0.721939 -0.217532 0
M  V30 1577 H 148.396 -1.82735 0.167369 0
M  V30 1578 H 146.778 -3.49466 -1.8625 0
M  V30 1579 H 147.952 -4.53815 0.799277 0
M  V30 1580 H 146.267 -4.12536 0.565946 0
M  V30 1581 H 148.864 -4.91725 -2.10025 0
M  V30 1582 H 149.207 -3.27166 -2.57426 0
M  V30 1583 H 149.74 -3.85564 -0.979023 0
M  V30 1584 H 146.479 -6.54602 0.342906 0
M  V30 1585 H 145.999 -5.87037 -1.23077 0
M  V30 1586 H 147.678 -6.39863 -0.958317 0
M  V30 1587 N 147.81 0.181792 -1.56548 0
M  V30 1588 C 149.059 0.898348 -1.8059 0
M  V30 1589 C 149.372 1.83862 -0.667379 0
M  V30 1590 O 150.578 2.59678 -0.792446 0
M  V30 1591 C 149.034 1.64791 -3.19956 0
M  V30 1592 C 148.642 0.751789 -4.41647 0
M  V30 1593 C 150.386 2.35331 -3.53298 0
M  V30 1594 C 148.293 1.50098 -5.72035 0
M  V30 1595 H 147.223 0.339194 -0.673397 0
M  V30 1596 H 149.874 0.151413 -1.82874 0
M  V30 1597 H 148.256 2.43921 -3.11959 0
M  V30 1598 H 149.43 -0.0018076 -4.608 0
M  V30 1599 H 147.745 0.156562 -4.16106 0
M  V30 1600 H 150.342 2.91958 -4.47956 0
M  V30 1601 H 150.685 3.10164 -2.77676 0
M  V30 1602 H 151.218 1.63154 -3.62803 0
M  V30 1603 H 147.957 0.795175 -6.50659 0
M  V30 1604 H 147.477 2.22817 -5.56878 0
M  V30 1605 H 149.156 2.05125 -6.13622 0
M  V30 1606 N 149.288 1.51039 0.449983 0
M  V30 1607 C 150.704 1.38934 0.785462 0
M  V30 1608 C 150.904 0.461817 1.96136 0
M  V30 1609 O 149.96 -0.0877389 2.52348 0
M  V30 1610 C 151.273 2.80724 1.0777 0
M  V30 1611 C 152.821 2.89787 1.1829 0
M  V30 1612 C 153.296 4.32457 1.50815 0
M  V30 1613 N 154.787 4.35505 1.57764 0
M  V30 1614 C 155.522 5.42914 1.84477 0
M  V30 1615 N 155.018 6.60502 2.09068 0
M  V30 1616 N 156.811 5.3038 1.86155 0
M  V30 1617 H 148.962 2.09904 -0.324647 0
M  V30 1618 H 151.225 0.944378 -0.0827957 0
M  V30 1619 H 150.931 3.50531 0.286498 0
M  V30 1620 H 150.805 3.19273 2.00859 0
M  V30 1621 H 153.192 2.20186 1.96474 0
M  V30 1622 H 153.273 2.54752 0.231314 0
M  V30 1623 H 152.917 5.02603 0.731622 0
M  V30 1624 H 152.847 4.64995 2.47158 0
M  V30 1625 H 155.338 3.50724 1.40715 0
M  V30 1626 H 155.651 7.38158 2.28785 0
M  V30 1627 H 153.996 6.63639 2.06416 0
M  V30 1628 H 157.187 4.37505 1.66454 0
M  V30 1629 H 157.36 6.1417 2.06637 0
M  V30 1630 N 150.766 -0.704594 1.40972 0
M  V30 1631 C 152.012 -1.46675 1.40051 0
M  V30 1632 C 152.345 -1.94199 0.00641102 0
M  V30 1633 O 151.62 -1.68916 -0.964235 0
M  V30 1634 C 151.903 -2.68505 2.39952 0
M  V30 1635 C 151.756 -2.26805 3.88432 0
M  V30 1636 C 153.075 -3.70686 2.37233 0
M  V30 1637 H 150.194 -0.532015 0.510028 0
M  V30 1638 H 152.836 -0.803255 1.72185 0
M  V30 1639 H 150.986 -3.25114 2.1268 0
M  V30 1640 H 152.658 -1.75592 4.26574 0
M  V30 1641 H 150.901 -1.58685 4.03734 0
M  V30 1642 H 151.572 -3.14181 4.53866 0
M  V30 1643 H 154.048 -3.23731 2.61415 0
M  V30 1644 H 152.924 -4.53553 3.09162 0
M  V30 1645 H 153.185 -4.19754 1.38777 0
M  V30 1646 N 152.244 -1.26651 -0.937939 0
M  V30 1647 C 153.191 -1.0849 -2.03712 0
M  V30 1648 C 154.161 0.011033 -1.66096 0
M  V30 1649 O 155.346 -0.149353 -1.90215 0
M  V30 1650 C 152.486 -0.72735 -3.37348 0
M  V30 1651 C 151.599 -1.89986 -3.87981 0
M  V30 1652 C 150.734 -1.48513 -5.10017 0
M  V30 1653 C 149.773 -2.62575 -5.5292 0
M  V30 1654 N 148.91 -2.21762 -6.66158 0
M  V30 1655 H 153.75 -2.02551 -2.18579 0
M  V30 1656 H 151.287 -1.00844 -1.07093 0
M  V30 1657 H 153.245 -0.50092 -4.14182 0
M  V30 1658 H 151.875 0.176298 -3.22318 0
M  V30 1659 H 150.927 -2.23913 -3.07518 0
M  V30 1660 H 152.239 -2.75586 -4.15757 0
M  V30 1661 H 151.393 -1.21934 -5.94321 0
M  V30 1662 H 150.132 -0.60009 -4.83994 0
M  V30 1663 H 149.137 -2.8988 -4.67172 0
M  V30 1664 H 150.362 -3.51685 -5.80943 0
M  V30 1665 H 148.308 -1.35696 -6.41812 0
M  V30 1666 H 148.225 -3.00903 -6.93537 0
M  V30 1667 H 149.493 -1.98403 -7.53828 0
M  V30 1668 N 153.722 1.14298 -1.08507 0
M  V30 1669 C 155.138 1.37347 -0.812901 0
M  V30 1670 C 155.338 1.93052 0.577325 0
M  V30 1671 O 154.394 2.14389 1.33393 0
M  V30 1672 C 155.707 2.33359 -1.89642 0
M  V30 1673 C 157.255 2.46996 -1.92255 0
M  V30 1674 C 157.73 3.46309 -2.99724 0
M  V30 1675 N 159.221 3.53853 -2.98902 0
M  V30 1676 C 159.956 4.3055 -3.787 0
M  V30 1677 N 159.452 5.10482 -4.6838 0
M  V30 1678 N 161.245 4.25757 -3.66998 0
M  V30 1679 H 153.396 0.764867 -1.9815 0
M  V30 1680 H 155.659 0.398966 -0.859959 0
M  V30 1681 H 155.365 1.99565 -2.89597 0
M  V30 1682 H 155.239 3.33274 -1.76659 0
M  V30 1683 H 157.626 2.80081 -0.929445 0
M  V30 1684 H 157.707 1.47039 -2.09316 0
M  V30 1685 H 157.351 3.13957 -3.99241 0
M  V30 1686 H 157.281 4.46049 -2.79907 0
M  V30 1687 H 159.772 2.96812 -2.33904 0
M  V30 1688 H 160.085 5.66284 -5.25873 0
M  V30 1689 H 158.43 5.09747 -4.72422 0
M  V30 1690 H 161.621 3.62383 -2.96304 0
M  V30 1691 H 161.794 4.85279 -4.29427 0
M  V30 1692 N 155.201 0.870884 1.31352 0
M  V30 1693 C 156.431 0.496049 2.00557 0
M  V30 1694 C 156.839 -0.916241 1.65534 0
M  V30 1695 O 156.182 -1.61188 0.881134 0
M  V30 1696 C 156.244 0.574418 3.54881 0
M  V30 1697 C 155.908 1.94849 4.1338 0
M  V30 1698 C 156.905 2.91611 4.30417 0
M  V30 1699 C 154.59 2.25005 4.49086 0
M  V30 1700 C 156.584 4.16672 4.82352 0
M  V30 1701 C 154.271 3.50315 5.00722 0
M  V30 1702 C 155.269 4.45964 5.17306 0
M  V30 1703 O 154.957 5.69052 5.67833 0
M  V30 1704 H 154.689 0.191664 0.64826 0
M  V30 1705 H 157.243 1.17409 1.68536 0
M  V30 1706 H 155.473 -0.160549 3.86367 0
M  V30 1707 H 157.162 0.212879 4.05341 0
M  V30 1708 H 157.928 2.69622 4.03149 0
M  V30 1709 H 153.807 1.51332 4.35453 0
M  V30 1710 H 157.351 4.91336 4.95211 0
M  V30 1711 H 153.248 3.72147 5.27424 0
M  V30 1712 H 154.016 5.71236 5.86201 0
M  V30 1713 N 156.679 -1.44442 0.630414 0
M  V30 1714 C 157.589 -2.34476 -0.0761693 0
M  V30 1715 C 158.605 -1.52576 -0.836449 0
M  V30 1716 O 159.781 -1.85307 -0.788874 0
M  V30 1717 C 156.846 -3.30545 -1.04599 0
M  V30 1718 C 155.907 -4.28352 -0.28516 0
M  V30 1719 C 155.14 -5.19831 -1.20878 0
M  V30 1720 O 155.363 -5.15223 -2.44747 0
M  V30 1721 O 154.297 -5.97892 -0.693491 0
M  V30 1722 H 158.123 -2.96345 0.664324 0
M  V30 1723 H 155.708 -1.44203 0.39061 0
M  V30 1724 H 157.59 -3.89681 -1.60396 0
M  V30 1725 H 156.265 -2.7121 -1.76711 0
M  V30 1726 H 155.172 -3.72764 0.315837 0
M  V30 1727 H 156.505 -4.90605 0.395924 0
M  V30 1728 N 158.157 -0.370918 -1.53173 0
M  V30 1729 C 159.104 0.473035 -2.259 0
M  V30 1730 C 160.074 1.07311 -1.26781 0
M  V30 1731 O 161.259 1.1046 -1.55574 0
M  V30 1732 C 158.399 1.60405 -3.05556 0
M  V30 1733 C 157.512 1.02863 -4.19575 0
M  V30 1734 C 156.647 2.12918 -4.86661 0
M  V30 1735 C 155.686 1.52869 -5.92704 0
M  V30 1736 N 154.823 2.56779 -6.53459 0
M  V30 1737 H 159.663 -0.153649 -2.97604 0
M  V30 1738 H 157.2 -0.0875946 -1.46839 0
M  V30 1739 H 159.158 2.27034 -3.50016 0
M  V30 1740 H 157.788 2.20131 -2.36097 0
M  V30 1741 H 156.84 0.252465 -3.79561 0
M  V30 1742 H 158.152 0.549642 -4.95762 0
M  V30 1743 H 157.306 2.87356 -5.34333 0
M  V30 1744 H 156.045 2.6417 -4.09958 0
M  V30 1745 H 155.05 0.769479 -5.44389 0
M  V30 1746 H 156.275 1.02435 -6.7133 0
M  V30 1747 H 154.221 3.07235 -5.79606 0
M  V30 1748 H 154.138 2.13583 -7.25202 0
M  V30 1749 H 155.406 3.30903 -7.05779 0
M  V30 1750 N 159.635 1.57281 -0.100228 0
M  V30 1751 C 160.881 1.94826 0.563101 0
M  V30 1752 C 161.214 0.982475 1.67514 0
M  V30 1753 O 160.489 0.0164069 1.94493 0
M  V30 1754 C 160.772 3.42453 1.11346 0
M  V30 1755 C 160.625 4.498 0.00612081 0
M  V30 1756 C 161.944 3.91506 2.01024 0
M  V30 1757 H 159.063 0.708428 0.203221 0
M  V30 1758 H 161.705 1.8922 -0.171979 0
M  V30 1759 H 159.855 3.47361 1.7399 0
M  V30 1760 H 161.527 4.57 -0.628357 0
M  V30 1761 H 159.77 4.28756 -0.659581 0
M  V30 1762 H 160.441 5.50306 0.432109 0
M  V30 1763 H 162.917 3.88784 1.48278 0
M  V30 1764 H 161.793 4.95358 2.36457 0
M  V30 1765 H 162.054 3.31099 2.92961 0
M  V30 1766 N 161.113 -0.173488 1.56642 0
M  V30 1767 C 162.524 -0.736155 1.71574 0
M  V30 1768 C 162.875 -1.82888 0.710389 0
M  V30 1769 O 162 -2.16017 -0.1287 0
M  V30 1770 C 162.595 -1.34211 3.11083 0
M  V30 1771 C 161.154 -1.85162 3.27707 0
M  V30 1772 C 160.301 -0.729765 2.67525 0
M  V30 1773 H 163.252 0.0518786 1.58615 0
M  V30 1774 H 163.273 -2.21178 3.09613 0
M  V30 1775 H 162.785 -0.546579 3.84232 0
M  V30 1776 H 160.886 -2.67366 2.59512 0
M  V30 1777 H 160.999 -1.99855 4.35425 0
M  V30 1778 H 159.363 -1.14965 2.27278 0
M  V30 1779 H 160.146 0.0538806 3.43258 0
M  V30 1780 N 162.591 -1.51276 -0.441967 0
M  V30 1781 C 163.837 -1.63958 -1.19355 0
M  V30 1782 C 164.17 -0.352543 -1.90973 0
M  V30 1783 O 163.445 0.647627 -1.83401 0
M  V30 1784 C 163.728 -2.83979 -2.21422 0
M  V30 1785 C 163.581 -4.22646 -1.53918 0
M  V30 1786 C 164.9 -2.99521 -3.22451 0
M  V30 1787 H 162.019 -0.596709 -0.432559 0
M  V30 1788 H 164.661 -1.83748 -0.483398 0
M  V30 1789 H 162.811 -2.67237 -2.81987 0
M  V30 1790 H 164.483 -4.51045 -0.967256 0
M  V30 1791 H 162.726 -4.25558 -0.841615 0
M  V30 1792 H 163.397 -5.02609 -2.28229 0
M  V30 1793 H 165.873 -3.14944 -2.71937 0
M  V30 1794 H 164.749 -3.85072 -3.91166 0
M  V30 1795 H 165.01 -2.11391 -3.88287 0
M  V30 1796 N 164.069 0.697108 -1.41344 0
M  V30 1797 C 165.318 1.45279 -1.39918 0
M  V30 1798 C 165.631 1.95597 -0.0109624 0
M  V30 1799 O 166.837 2.71208 0.125919 0
M  V30 1800 C 165.293 2.62695 -2.46007 0
M  V30 1801 C 164.901 2.19169 -3.90729 0
M  V30 1802 C 166.645 3.40336 -2.53715 0
M  V30 1803 C 164.552 3.33535 -4.88373 0
M  V30 1804 H 163.482 0.545692 -0.520323 0
M  V30 1805 H 166.133 0.756929 -1.67161 0
M  V30 1806 H 164.515 3.34541 -2.11892 0
M  V30 1807 H 165.689 1.54623 -4.34083 0
M  V30 1808 H 164.004 1.54525 -3.86666 0
M  V30 1809 H 166.601 4.2547 -3.2385 0
M  V30 1810 H 166.944 3.85418 -1.5735 0
M  V30 1811 H 167.477 2.75546 -2.86913 0
M  V30 1812 H 164.216 2.93468 -5.86137 0
M  V30 1813 H 163.736 3.96936 -4.49668 0
M  V30 1814 H 165.415 3.99335 -5.09059 0
M  V30 1815 N 165.547 1.27147 0.931209 0
M  V30 1816 C 166.477 1.12081 2.04842 0
M  V30 1817 C 167.458 0.0232364 1.70084 0
M  V30 1818 O 168.643 0.197085 1.93197 0
M  V30 1819 C 165.773 0.76354 3.38803 0
M  V30 1820 C 164.727 1.81396 3.87659 0
M  V30 1821 C 164.053 1.31075 5.18385 0
M  V30 1822 C 165.353 3.21739 4.11438 0
M  V30 1823 H 167.047 2.05537 2.17703 0
M  V30 1824 H 164.593 0.989603 1.04608 0
M  V30 1825 H 166.546 0.644982 4.16435 0
M  V30 1826 H 165.27 -0.206727 3.25945 0
M  V30 1827 H 163.929 1.92136 3.12217 0
M  V30 1828 H 163.577 0.330037 5.01916 0
M  V30 1829 H 163.277 2.013 5.52044 0
M  V30 1830 H 164.801 1.20506 5.98591 0
M  V30 1831 H 166.215 3.14019 4.79651 0
M  V30 1832 H 164.612 3.89644 4.56397 0
M  V30 1833 H 165.682 3.67054 3.16859 0
M  V30 1834 N 167.025 -1.13721 1.09112 0
M  V30 1835 C 168.271 -1.85198 0.826414 0
M  V30 1836 C 168.604 -1.83129 -0.646319 0
M  V30 1837 O 167.879 -1.2671 -1.47563 0
M  V30 1838 C 168.162 -3.33507 1.35812 0
M  V30 1839 C 168.015 -3.44108 2.89672 0
M  V30 1840 C 169.334 -4.28838 0.989256 0
M  V30 1841 H 166.453 -0.67243 0.301675 0
M  V30 1842 H 169.095 -1.33499 1.35197 0
M  V30 1843 H 167.245 -3.77666 0.911082 0
M  V30 1844 H 168.917 -3.08684 3.428 0
M  V30 1845 H 167.16 -2.85087 3.26967 0
M  V30 1846 H 167.831 -4.48388 3.21951 0
M  V30 1847 H 170.307 -3.92734 1.37475 0
M  V30 1848 H 169.183 -5.31051 1.38838 0
M  V30 1849 H 169.444 -4.4198 -0.102924 0
M  V30 1850 N 168.503 -0.877838 -1.30888 0
M  V30 1851 C 169.751 -0.491723 -1.96027 0
M  V30 1852 C 170.072 0.960827 -1.69685 0
M  V30 1853 O 169.342 1.67462 -1.01654 0
M  V30 1854 H 167.922 -0.17885 -0.725273 0
M  V30 1855 H 170.584 -1.11935 -1.59551 0
M  V30 1856 H 169.68 -0.656016 -3.05128 0
M  V30 1857 N 169.982 1.44106 -0.638065 0
M  V30 1858 C 170.93 2.3248 0.0748149 0
M  V30 1859 C 171.924 1.47746 0.828702 0
M  V30 1860 O 173.13 1.64049 0.740816 0
M  V30 1861 H 169.505 0.750771 0.0429686 0
M  V30 1862 H 171.476 2.90348 -0.688504 0
M  V30 1863 C 170.225 3.31843 1.03805 0
M  V30 1864 H 169.548 3.97059 0.467375 0
M  V30 1865 H 170.988 3.96345 1.50622 0
M  V30 1866 C 169.447 2.61291 2.1267 0
M  V30 1867 O 169.977 2.41702 3.20847 0
M  V30 1868 N 168.183 2.20915 1.88798 0
M  V30 1869 H 167.73 2.37047 1.00829 0
M  V30 1870 H 167.688 1.74038 2.61836 0
M  V30 1871 N 171.46 0.379036 1.52974 0
M  V30 1872 C 172.407 -0.461048 2.26148 0
M  V30 1873 C 173.377 -1.06637 1.27349 0
M  V30 1874 O 174.562 -1.09633 1.56157 0
M  V30 1875 C 171.702 -1.58782 3.06402 0
M  V30 1876 C 170.815 -1.00636 4.20115 0
M  V30 1877 C 169.95 -2.10334 4.87784 0
M  V30 1878 C 168.989 -1.49724 5.93506 0
M  V30 1879 N 168.126 -2.5331 6.54812 0
M  V30 1880 H 172.966 0.169429 2.97518 0
M  V30 1881 H 170.503 0.0953806 1.4679 0
M  V30 1882 H 172.461 -2.25174 3.51215 0
M  V30 1883 H 171.091 -2.18876 2.37261 0
M  V30 1884 H 170.143 -0.232332 3.7969 0
M  V30 1885 H 171.455 -0.523343 4.96047 0
M  V30 1886 H 170.609 -2.84519 5.35849 0
M  V30 1887 H 169.348 -2.61992 4.11353 0
M  V30 1888 H 168.353 -0.740598 5.44789 0
M  V30 1889 H 169.578 -0.988732 6.71864 0
M  V30 1890 H 167.524 -3.04156 5.81227 0
M  V30 1891 H 167.441 -2.09734 7.26325 0
M  V30 1892 H 168.709 -3.27155 7.07524 0
M  V30 1893 N 172.938 -1.57226 0.108567 0
M  V30 1894 C 174.184 -1.95121 -0.552761 0
M  V30 1895 C 174.517 -0.991345 -1.66991 0
M  V30 1896 O 173.792 -0.0267211 -1.94482 0
M  V30 1897 C 174.075 -3.43039 -1.09528 0
M  V30 1898 C 173.928 -4.49797 0.0177332 0
M  V30 1899 C 175.247 -3.92567 -1.98945 0
M  V30 1900 H 172.366 -0.709496 -0.199461 0
M  V30 1901 H 175.008 -1.89126 0.182011 0
M  V30 1902 H 173.158 -3.48279 -1.72146 0
M  V30 1903 H 174.83 -4.56661 0.652584 0
M  V30 1904 H 173.073 -4.284 0.682309 0
M  V30 1905 H 173.744 -5.50528 -0.402919 0
M  V30 1906 H 176.22 -3.89565 -1.46214 0
M  V30 1907 H 175.096 -4.96605 -2.33827 0
M  V30 1908 H 175.357 -3.32648 -2.91201 0
M  V30 1909 N 174.416 0.165178 -1.56732 0
M  V30 1910 C 175.693 0.908443 -1.73224 0
M  V30 1911 C 176.073 2.0013 -0.67165 0
M  V30 1912 O 175.421 2.26353 0.31253 0
M  V30 1913 C 175.631 1.46756 -3.16644 0
M  V30 1914 C 176.979 1.93809 -3.77787 0
M  V30 1915 O 178.003 1.56537 -3.1996 0
M  V30 1916 O 176.862 2.62486 -4.79336 0
M  V30 1917 H 173.956 0.428025 -0.707618 0
M  V30 1918 H 176.502 0.152526 -1.69013 0
M  V30 1919 H 175.274 0.68129 -3.85323 0
M  V30 1920 H 174.897 2.28749 -3.25207 0
M  V30 1921 N 175.894 1.51508 0.433938 0
M  V30 1922 C 176.824 1.76016 1.53429 0
M  V30 1923 C 177.805 0.610112 1.58782 0
M  V30 1924 O 178.99 0.853177 1.74455 0
M  V30 1925 C 176.12 1.88831 2.9148 0
M  V30 1926 C 175.074 3.04288 3.00987 0
M  V30 1927 C 174.4 3.0229 4.4105 0
M  V30 1928 C 175.7 4.44193 2.74754 0
M  V30 1929 H 177.394 2.68152 1.33171 0
M  V30 1930 H 174.94 1.29035 0.639214 0
M  V30 1931 H 176.893 2.04559 3.6842 0
M  V30 1932 H 175.617 0.933455 3.12976 0
M  V30 1933 H 174.276 2.8827 2.26486 0
M  V30 1934 H 173.924 2.04576 4.59519 0
M  V30 1935 H 173.624 3.79822 4.4834 0
M  V30 1936 H 175.148 3.20116 5.1996 0
M  V30 1937 H 176.562 4.60544 3.41426 0
M  V30 1938 H 174.959 5.23457 2.9345 0
M  V30 1939 H 176.029 4.53996 1.70339 0
M  V30 1940 N 177.372 -0.689602 1.41712 0
M  V30 1941 C 178.282 -1.83314 1.46401 0
M  V30 1942 C 179.298 -1.7036 0.35405 0
M  V30 1943 O 180.474 -1.92171 0.602692 0
M  V30 1944 C 177.539 -3.19344 1.34982 0
M  V30 1945 C 176.6 -3.44363 2.56344 0
M  V30 1946 C 175.833 -4.73904 2.45461 0
M  V30 1947 O 176.056 -5.508 1.48241 0
M  V30 1948 O 174.99 -4.99839 3.35328 0
M  V30 1949 H 178.816 -1.82314 2.42889 0
M  V30 1950 H 176.401 -0.843438 1.23315 0
M  V30 1951 H 178.283 -4.00547 1.3092 0
M  V30 1952 H 176.958 -3.21014 0.41612 0
M  V30 1953 H 175.865 -2.63067 2.65982 0
M  V30 1954 H 177.198 -3.47512 3.48563 0
M  V30 1955 N 178.85 -1.27639 -0.924453 0
M  V30 1956 C 180.075 -1.17101 -1.71179 0
M  V30 1957 C 180.5 0.268134 -1.86179 0
M  V30 1958 O 179.858 1.19415 -1.36418 0
M  V30 1959 C 179.906 -1.86313 -3.08739 0
M  V30 1960 O 179.01 -1.16331 -3.95652 0
M  V30 1961 H 178.351 -0.407091 -0.524569 0
M  V30 1962 H 180.881 -1.68767 -1.15666 0
M  V30 1963 H 180.891 -1.938 -3.59034 0
M  V30 1964 H 179.566 -2.91001 -2.97138 0
M  V30 1965 H 178.143 -1.16935 -3.54091 0
M  V30 1966 N 180.328 1.1314 -1.09713 0
M  V30 1967 C 181.238 2.22242 -0.751367 0
M  V30 1968 C 182.254 1.72224 0.247938 0
M  V30 1969 O 183.43 2.01205 0.0885463 0
M  V30 1970 C 180.495 3.46231 -0.180274 0
M  V30 1971 C 179.556 4.11125 -1.2359 0
M  V30 1972 C 178.789 5.29195 -0.691966 0
M  V30 1973 O 179.012 5.68342 0.48414 0
M  V30 1974 O 177.946 5.84214 -1.44838 0
M  V30 1975 H 181.772 2.54197 -1.66186 0
M  V30 1976 H 179.357 1.21331 -0.871735 0
M  V30 1977 H 181.239 4.21185 0.134739 0
M  V30 1978 H 179.914 3.1597 0.703185 0
M  V30 1979 H 178.821 3.37985 -1.60366 0
M  V30 1980 H 180.154 4.45524 -2.09211 0
M  V30 1981 N 181.806 0.884767 1.30421 0
M  V30 1982 C 183.222 0.57874 1.48737 0
M  V30 1983 C 183.422 -0.883567 1.81095 0
M  V30 1984 O 182.478 -1.6648 1.89844 0
M  V30 1985 C 183.791 1.49171 2.61091 0
M  V30 1986 C 185.339 1.49532 2.74971 0
M  V30 1987 C 185.814 2.39421 3.90438 0
M  V30 1988 N 187.305 2.37383 3.97748 0
M  V30 1989 C 188.04 3.03647 4.86401 0
M  V30 1990 N 187.536 3.79136 5.79852 0
M  V30 1991 N 189.329 2.9288 4.79768 0
M  V30 1992 H 181.48 1.83075 1.0769 0
M  V30 1993 H 183.743 0.783637 0.533495 0
M  V30 1994 H 183.449 2.53291 2.44001 0
M  V30 1995 H 183.323 1.20113 3.57565 0
M  V30 1996 H 185.71 0.46163 2.91467 0
M  V30 1997 H 185.791 1.8262 1.79119 0
M  V30 1998 H 185.435 3.42874 3.74699 0
M  V30 1999 H 185.365 2.03649 4.85628 0
M  V30 2000 H 187.856 1.82525 3.30897 0
M  V30 2001 H 188.169 4.26789 6.4426 0
M  V30 2002 H 186.514 3.83243 5.79784 0
M  V30 2003 H 189.705 2.33433 4.05742 0
M  V30 2004 H 189.878 3.448 5.4865 0
M  V30 2005 N 183.284 -1.43765 0.645699 0
M  V30 2006 C 184.194 -2.34544 -0.0512957 0
M  V30 2007 C 185.21 -1.53455 -0.82022 0
M  V30 2008 O 186.386 -1.86133 -0.769176 0
M  V30 2009 C 183.451 -3.31636 -1.01087 0
M  V30 2010 C 182.512 -4.2863 -0.239712 0
M  V30 2011 C 181.745 -5.21084 -1.15358 0
M  V30 2012 O 181.968 -5.1779 -2.39269 0
M  V30 2013 O 180.902 -5.98593 -0.630038 0
M  V30 2014 H 184.728 -2.95624 0.695718 0
M  V30 2015 H 182.313 -1.43781 0.405882 0
M  V30 2016 H 184.195 -3.9136 -1.56254 0
M  V30 2017 H 182.87 -2.73069 -1.73824 0
M  V30 2018 H 181.777 -3.72408 0.355356 0
M  V30 2019 H 183.11 -4.90157 0.447936 0
M  V30 2020 N 184.763 -0.387143 -1.52771 0
M  V30 2021 C 186.009 0.196025 -2.0185 0
M  V30 2022 C 186.342 1.46641 -1.27319 0
M  V30 2023 O 185.617 1.90889 -0.373032 0
M  V30 2024 C 185.9 0.466136 -3.5707 0
M  V30 2025 C 185.753 -0.819385 -4.42274 0
M  V30 2026 C 187.072 1.25768 -4.21747 0
M  V30 2027 H 184.191 0.0697708 -0.73369 0
M  V30 2028 H 186.833 -0.516286 -1.82851 0
M  V30 2029 H 184.983 1.07293 -3.7339 0
M  V30 2030 H 186.655 -1.4563 -4.37709 0
M  V30 2031 H 184.898 -1.43517 -4.09372 0
M  V30 2032 H 185.569 -0.585065 -5.48891 0
M  V30 2033 H 188.045 0.744167 -4.09391 0
M  V30 2034 H 186.921 1.41541 -5.30337 0
M  V30 2035 H 187.182 2.27228 -3.79236 0
M  V30 2036 N 186.241 1.57166 -0.116904 0
M  V30 2037 C 187.466 1.999 0.55271 0
M  V30 2038 C 187.891 0.996039 1.59564 0
M  V30 2039 O 187.249 -0.032556 1.81271 0
M  V30 2040 C 187.297 3.4152 1.15742 0
M  V30 2041 O 186.401 3.44106 2.27299 0
M  V30 2042 H 185.742 0.649447 0.138258 0
M  V30 2043 H 188.272 2.03573 -0.204759 0
M  V30 2044 H 188.282 3.79684 1.49346 0
M  V30 2045 H 186.957 4.14034 0.393493 0
M  V30 2046 H 185.534 3.17759 1.9515 0
M  V30 2047 N 187.719 -0.156864 1.56817 0
M  V30 2048 C 188.944 -0.890331 1.87318 0
M  V30 2049 C 189.369 -1.74394 0.704855 0
M  V30 2050 O 188.727 -1.77972 -0.345786 0
M  V30 2051 C 188.775 -1.73102 3.16336 0
M  V30 2052 O 187.879 -2.83422 2.99576 0
M  V30 2053 H 187.22 -0.24857 0.615718 0
M  V30 2054 H 189.75 -0.150649 2.04045 0
M  V30 2055 H 189.76 -2.12803 3.48107 0
M  V30 2056 H 188.435 -1.10412 4.00976 0
M  V30 2057 H 187.012 -2.47199 2.7919 0
M  V30 2058 N 189.197 -1.51736 -0.425897 0
M  V30 2059 C 190.422 -1.69082 -1.20108 0
M  V30 2060 C 190.847 -0.392398 -1.83962 0
M  V30 2061 O 190.205 0.64858 -1.69302 0
M  V30 2062 C 190.253 -2.81604 -2.25237 0
M  V30 2063 O 189.357 -2.46004 -3.30992 0
M  V30 2064 H 188.698 -0.563408 -0.35138 0
M  V30 2065 H 191.228 -1.98358 -0.501512 0
M  V30 2066 H 191.238 -3.06025 -2.69838 0
M  V30 2067 H 189.913 -3.75817 -1.78142 0
M  V30 2068 H 188.49 -2.32195 -2.91787 0
M  V30 2069 N 190.675 0.682077 -1.42076 0
M  V30 2070 C 191.585 1.82535 -1.47371 0
M  V30 2071 C 192.601 1.7017 -0.363079 0
M  V30 2072 O 193.777 1.91848 -0.612875 0
M  V30 2073 C 190.842 3.18624 -1.36674 0
M  V30 2074 C 189.903 3.42999 -2.58167 0
M  V30 2075 C 189.136 4.72595 -2.4797 0
M  V30 2076 O 189.359 5.50006 -1.5116 0
M  V30 2077 O 188.293 4.98054 -3.37974 0
M  V30 2078 H 192.119 1.81023 -2.43853 0
M  V30 2079 H 189.704 0.836887 -1.2376 0
M  V30 2080 H 191.586 3.99847 -1.33043 0
M  V30 2081 H 190.261 3.20789 -0.433138 0
M  V30 2082 H 189.168 2.61653 -2.67373 0
M  V30 2083 H 190.501 3.45659 -3.50401 0
M  V30 2084 N 192.153 1.28127 0.917671 0
M  V30 2085 C 193.401 1.14825 1.66312 0
M  V30 2086 C 193.722 -0.304379 1.9261 0
M  V30 2087 O 192.992 -1.21149 1.53947 0
M  V30 2088 H 191.572 0.421953 0.616413 0
M  V30 2089 H 194.234 1.608 1.10134 0
M  V30 2090 H 193.33 1.68489 2.62712 0
M  V30 2091 N 193.631 -1.12557 1.10312 0
M  V30 2092 C 195.047 -1.36036 0.834649 0
M  V30 2093 C 195.247 -1.93946 -0.546539 0
M  V30 2094 O 194.303 -2.16484 -1.29966 0
M  V30 2095 C 195.616 -2.30312 1.9333 0
M  V30 2096 C 197.164 -2.43906 1.9616 0
M  V30 2097 C 197.639 -3.41496 3.05195 0
M  V30 2098 N 199.13 -3.49053 3.04494 0
M  V30 2099 C 199.865 -4.24471 3.85502 0
M  V30 2100 N 199.361 -5.02966 4.76442 0
M  V30 2101 N 201.154 -4.19864 3.73725 0
M  V30 2102 H 193.305 -0.733246 1.99342 0
M  V30 2103 H 195.568 -0.385234 0.866198 0
M  V30 2104 H 195.274 -1.94933 2.92735 0
M  V30 2105 H 195.148 -3.30421 1.81939 0
M  V30 2106 H 197.535 -2.78567 0.973886 0
M  V30 2107 H 197.616 -1.4369 2.11629 0
M  V30 2108 H 197.26 -3.07565 4.04186 0
M  V30 2109 H 197.19 -4.41539 2.86968 0
M  V30 2110 H 199.681 -2.93053 2.38596 0
M  V30 2111 H 199.994 -5.57846 5.34815 0
M  V30 2112 H 198.339 -5.02167 4.80472 0
M  V30 2113 H 201.53 -3.57623 3.02032 0
M  V30 2114 H 201.703 -4.78386 4.37093 0
M  V30 2115 N 195.109 -0.891671 -1.2995 0
M  V30 2116 C 196.072 -0.36828 -2.26222 0
M  V30 2117 C 197.072 0.493014 -1.53056 0
M  V30 2118 O 198.262 0.299213 -1.71611 0
M  V30 2119 C 195.394 0.47442 -3.37583 0
M  V30 2120 H 196.587 -1.21844 -2.74033 0
M  V30 2121 H 194.14 -0.669107 -1.41254 0
M  V30 2122 H 194.875 1.34489 -2.95099 0
M  V30 2123 H 194.66 -0.142615 -3.91841 0
M  V30 2124 H 196.15 0.83218 -4.09224 0
M  V30 2125 N 196.587 1.43421 -0.653314 0
M  V30 2126 C 197.517 2.33487 0.0246656 0
M  V30 2127 C 198.498 1.49475 0.811863 0
M  V30 2128 O 199.683 1.78139 0.773322 0
M  V30 2129 C 196.813 3.32841 0.99166 0
M  V30 2130 C 195.767 4.26842 0.314568 0
M  V30 2131 C 195.093 5.16236 1.39302 0
M  V30 2132 C 196.393 5.16243 -0.793095 0
M  V30 2133 H 198.087 2.90427 -0.727481 0
M  V30 2134 H 195.633 1.39649 -0.351287 0
M  V30 2135 H 197.586 3.94747 1.47487 0
M  V30 2136 H 196.31 2.74158 1.77497 0
M  V30 2137 H 194.969 3.663 -0.148199 0
M  V30 2138 H 194.617 4.53891 2.16776 0
M  V30 2139 H 194.317 5.79948 0.945223 0
M  V30 2140 H 195.841 5.81015 1.87759 0
M  V30 2141 H 197.255 5.71958 -0.392039 0
M  V30 2142 H 195.652 5.88676 -1.16536 0
M  V30 2143 H 196.722 4.55927 -1.65103 0
M  V30 2144 N 198.065 0.39524 1.52563 0
M  V30 2145 C 199.028 -0.425001 2.25225 0
M  V30 2146 C 200.028 -0.985266 1.27079 0
M  V30 2147 O 201.218 -0.866332 1.5113 0
M  V30 2148 C 198.35 -1.59686 3.01186 0
M  V30 2149 H 199.543 0.211233 2.99155 0
M  V30 2150 H 197.096 0.147472 1.55603 0
M  V30 2151 H 197.831 -2.27035 2.31572 0
M  V30 2152 H 197.616 -1.20176 3.73229 0
M  V30 2153 H 199.106 -2.17743 3.5634 0
M  V30 2154 N 199.544 -1.57102 0.125237 0
M  V30 2155 C 200.454 -2.19191 -0.8362 0
M  V30 2156 C 201.47 -1.16985 -1.28805 0
M  V30 2157 O 202.646 -1.49479 -1.34974 0
M  V30 2158 C 199.711 -2.78407 -2.06617 0
M  V30 2159 C 198.772 -3.9567 -1.66565 0
M  V30 2160 C 198.005 -4.52052 -2.83698 0
M  V30 2161 O 198.228 -4.07326 -3.99302 0
M  V30 2162 O 197.162 -5.42645 -2.60423 0
M  V30 2163 H 200.988 -3.01816 -0.337776 0
M  V30 2164 H 198.573 -1.4906 -0.100695 0
M  V30 2165 H 200.455 -3.16129 -2.7864 0
M  V30 2166 H 199.13 -1.9881 -2.55453 0
M  V30 2167 H 198.037 -3.62705 -0.916296 0
M  V30 2168 H 199.37 -4.76722 -1.22464 0
M  V30 2169 N 201.022 0.148545 -1.56898 0
M  V30 2170 C 201.932 1.20293 -2.01412 0
M  V30 2171 C 202.948 1.47107 -0.929273 0
M  V30 2172 O 204.124 1.58807 -1.23863 0
M  V30 2173 C 201.189 2.51682 -2.38447 0
M  V30 2174 C 200.25 2.32529 -3.60872 0
M  V30 2175 C 199.483 3.57653 -3.96132 0
M  V30 2176 O 199.706 4.63771 -3.32073 0
M  V30 2177 O 198.64 3.50408 -4.89385 0
M  V30 2178 H 202.466 0.855025 -2.91416 0
M  V30 2179 H 200.051 0.357151 -1.45068 0
M  V30 2180 H 201.933 3.29147 -2.63135 0
M  V30 2181 H 200.608 2.86006 -1.51599 0
M  V30 2182 H 199.515 1.53019 -3.41373 0
M  V30 2183 H 200.848 2.03121 -4.48333 0
M  V30 2184 N 202.5 1.5196 0.417844 0
M  V30 2185 C 203.746 1.66793 1.16411 0
M  V30 2186 C 204.101 0.388758 1.88432 0
M  V30 2187 O 203.394 -0.616409 1.81414 0
M  V30 2188 C 203.588 2.82269 2.19223 0
M  V30 2189 C 203.417 4.21293 1.57297 0
M  V30 2190 C 202.187 4.86948 1.34944 0
M  V30 2191 C 204.385 5.03704 1.03858 0
M  V30 2192 N 202.367 6.1003 0.688195 0
M  V30 2193 C 203.738 6.1795 0.503742 0
M  V30 2194 C 205.793 4.89095 0.932203 0
M  V30 2195 C 204.496 7.19188 -0.127034 0
M  V30 2196 C 206.522 5.90559 0.315293 0
M  V30 2197 C 205.884 7.0409 -0.208906 0
M  V30 2198 H 201.983 0.66407 0.412959 0
M  V30 2199 H 204.567 1.89242 0.457772 0
M  V30 2200 H 202.738 2.61451 2.87225 0
M  V30 2201 H 204.47 2.86183 2.86149 0
M  V30 2202 H 201.225 4.45156 1.61657 0
M  V30 2203 H 201.649 6.75964 0.374449 0
M  V30 2204 H 206.291 4.01557 1.32332 0
M  V30 2205 H 204.009 8.06359 -0.530231 0
M  V30 2206 H 207.595 5.81327 0.234625 0
M  V30 2207 H 206.475 7.81257 -0.67875 0
M  V30 2208 N 203.978 -0.674533 1.42435 0
M  V30 2209 C 205.226 -1.43175 1.42637 0
M  V30 2210 C 205.547 -1.94951 0.0438992 0
M  V30 2211 O 204.817 -1.7308 -0.917607 0
M  V30 2212 H 203.397 -0.531307 0.525092 0
M  V30 2213 H 206.059 -0.797006 1.77859 0
M  V30 2214 H 205.155 -2.28463 2.12629 0
M  V30 2215 N 205.456 -1.28612 -0.910864 0
M  V30 2216 C 206.696 -1.1719 -1.67469 0
M  V30 2217 C 207.06 0.274441 -1.90028 0
M  V30 2218 O 208.261 0.511425 -2.6389 0
M  V30 2219 C 206.532 -1.95137 -2.99427 0
M  V30 2220 S 208.091 -2.00122 -3.90508 0
M  V30 2221 H 204.909 -0.41806 -0.575106 0
M  V30 2222 H 207.511 -1.6275 -1.08317 0
M  V30 2223 H 206.215 -2.99381 -2.80712 0
M  V30 2224 H 205.746 -1.50137 -3.63624 0
M  V30 2225 H 207.761 -1.10981 -4.8363 0
M  V30 2226 N 206.934 1.1197 -1.10907 0
M  V30 2227 C 208.345 1.65114 -0.871446 0
M  V30 2228 C 208.696 1.86885 0.597353 0
M  V30 2229 O 207.821 1.59896 1.45816 0
M  V30 2230 C 208.416 2.99944 -1.5754 0
M  V30 2231 C 206.975 3.50018 -1.38435 0
M  V30 2232 C 206.122 2.24941 -1.62164 0
M  V30 2233 H 209.073 0.956851 -1.2661 0
M  V30 2234 H 209.094 3.66651 -1.01721 0
M  V30 2235 H 208.606 2.84067 -2.64438 0
M  V30 2236 H 206.707 3.71071 -0.337214 0
M  V30 2237 H 206.82 4.29165 -2.12965 0
M  V30 2238 H 205.184 2.3229 -1.04467 0
M  V30 2239 H 205.967 2.11612 -2.70324 0
M  V30 2240 N 208.412 0.89855 1.29475 0
M  V30 2241 C 209.659 0.523882 1.95606 0
M  V30 2242 C 209.987 -0.929608 1.70847 0
M  V30 2243 O 209.242 -1.67401 1.01367 0
M  V30 2244 C 209.541 0.761398 3.49195 0
M  V30 2245 C 209.207 2.19207 3.94029 0
M  V30 2246 C 207.869 2.58326 4.05982 0
M  V30 2247 C 210.221 3.12379 4.17216 0
M  V30 2248 C 207.549 3.898 4.38489 0
M  V30 2249 C 209.901 4.43401 4.51197 0
M  V30 2250 C 208.565 4.82394 4.61359 0
M  V30 2251 H 207.835 0.191702 0.715773 0
M  V30 2252 H 210.482 1.13699 1.54094 0
M  V30 2253 H 208.787 0.0653622 3.91745 0
M  V30 2254 H 210.484 0.450904 3.98457 0
M  V30 2255 H 207.074 1.87846 3.85242 0
M  V30 2256 H 211.258 2.83371 4.07449 0
M  V30 2257 H 206.514 4.19734 4.44559 0
M  V30 2258 H 210.688 5.15623 4.68087 0
M  V30 2259 H 208.315 5.84306 4.86303 0
M  V30 2260 N 209.89 -1.43072 0.660911 0
M  V30 2261 C 210.823 -2.28074 -0.0758862 0
M  V30 2262 C 211.801 -1.40271 -0.822362 0
M  V30 2263 O 212.985 -1.69713 -0.820352 0
M  V30 2264 C 210.112 -3.19843 -1.11437 0
M  V30 2265 C 209.158 -4.23957 -0.465069 0
M  V30 2266 S 209.991 -5.29978 0.767078 0
M  V30 2267 C 211.147 -6.25314 -0.270682 0
M  V30 2268 H 211.38 -2.90216 0.645139 0
M  V30 2269 H 208.913 -1.47697 0.449995 0
M  V30 2270 H 210.871 -3.73257 -1.70849 0
M  V30 2271 H 209.532 -2.56863 -1.80776 0
M  V30 2272 H 208.725 -4.88299 -1.24819 0
M  V30 2273 H 208.327 -3.73959 0.0551242 0
M  V30 2274 H 210.619 -6.67932 -1.13459 0
M  V30 2275 H 211.562 -7.07293 0.337916 0
M  V30 2276 H 211.97 -5.61195 -0.609937 0
M  V30 2277 N 211.368 -0.403325 -1.52352 0
M  V30 2278 C 212.278 0.432009 -2.30588 0
M  V30 2279 C 213.294 1.05884 -1.38075 0
M  V30 2280 O 214.47 1.06161 -1.71148 0
M  V30 2281 C 211.535 1.53669 -3.10784 0
M  V30 2282 C 210.596 0.933525 -4.19027 0
M  V30 2283 C 209.829 1.98557 -4.9539 0
M  V30 2284 O 210.052 3.20283 -4.71991 0
M  V30 2285 O 208.986 1.59504 -5.80381 0
M  V30 2286 H 212.812 -0.205739 -3.03002 0
M  V30 2287 H 210.397 -0.166675 -1.48467 0
M  V30 2288 H 212.279 2.17814 -3.60742 0
M  V30 2289 H 210.954 2.15915 -2.41169 0
M  V30 2290 H 209.861 0.254954 -3.7323 0
M  V30 2291 H 211.194 0.35508 -4.90918 0
M  V30 2292 N 212.846 1.57033 -0.133567 0
M  V30 2293 C 214.074 2.00044 0.528195 0
M  V30 2294 C 214.489 1.01349 1.59291 0
M  V30 2295 O 213.846 0.00848369 1.82498 0
M  V30 2296 C 213.897 3.43018 1.1411 0
M  V30 2297 O 213.618 4.37939 0.11892 0
M  V30 2298 C 215.119 4.01237 1.88477 0
M  V30 2299 H 212.339 0.656517 0.138661 0
M  V30 2300 H 214.883 2.03267 -0.224196 0
M  V30 2301 H 213.038 3.40688 1.84418 0
M  V30 2302 H 213.452 5.21436 0.56613 0
M  V30 2303 H 214.926 5.03314 2.26669 0
M  V30 2304 H 215.403 3.41193 2.76558 0
M  V30 2305 H 216.009 4.07156 1.22898 0
M  V30 2306 N 214.325 -0.140222 1.56975 0
M  V30 2307 C 215.55 -0.870414 1.88251 0
M  V30 2308 C 215.975 -1.73637 0.723312 0
M  V30 2309 O 215.333 -1.78329 -0.32689 0
M  V30 2310 C 215.381 -1.69737 3.18154 0
M  V30 2311 O 214.485 -2.80229 3.02565 0
M  V30 2312 H 213.826 -0.242025 0.61832 0
M  V30 2313 H 216.356 -0.128999 2.04193 0
M  V30 2314 H 216.366 -2.09099 3.50345 0
M  V30 2315 H 215.041 -1.06152 4.02125 0
M  V30 2316 H 213.618 -2.44224 2.81796 0
M  V30 2317 N 215.803 -1.52179 -0.40978 0
M  V30 2318 C 216.766 -1.74853 -1.48186 0
M  V30 2319 C 217.766 -0.618417 -1.48433 0
M  V30 2320 O 218.956 -0.886286 -1.49969 0
M  V30 2321 C 216.088 -1.8303 -2.87598 0
M  V30 2322 H 217.281 -2.70559 -1.29374 0
M  V30 2323 H 214.834 -1.42586 -0.640233 0
M  V30 2324 H 215.569 -0.89236 -3.11781 0
M  V30 2325 H 215.354 -2.65187 -2.88822 0
M  V30 2326 H 216.844 -2.02316 -3.65319 0
M  V30 2327 N 217.281 0.66697 -1.42791 0
M  V30 2328 C 218.228 1.7803 -1.4688 0
M  V30 2329 C 219.198 1.6299 -0.319919 0
M  V30 2330 O 220.383 1.83432 -0.525118 0
M  V30 2331 C 217.523 3.1611 -1.38451 0
M  V30 2332 C 216.636 3.42381 -2.63437 0
M  V30 2333 C 215.771 4.70232 -2.47094 0
M  V30 2334 C 214.81 4.89564 -3.67415 0
M  V30 2335 N 213.947 6.08661 -3.49966 0
M  V30 2336 H 218.787 1.7387 -2.42019 0
M  V30 2337 H 216.324 0.84868 -1.20149 0
M  V30 2338 H 218.282 3.95914 -1.31561 0
M  V30 2339 H 216.912 3.19374 -0.469033 0
M  V30 2340 H 215.964 2.56774 -2.80662 0
M  V30 2341 H 217.276 3.52557 -3.52853 0
M  V30 2342 H 216.43 5.5814 -2.37834 0
M  V30 2343 H 215.169 4.62353 -1.5518 0
M  V30 2344 H 214.174 4.00096 -3.77099 0
M  V30 2345 H 215.399 4.99282 -4.6032 0
M  V30 2346 H 213.345 6.0194 -2.60776 0
M  V30 2347 H 213.262 6.19733 -4.32975 0
M  V30 2348 H 214.53 6.99226 -3.44532 0
M  V30 2349 N 218.759 1.29093 0.90403 0
M  V30 2350 C 219.984 1.19809 1.69294 0
M  V30 2351 C 220.409 -0.238481 1.86582 0
M  V30 2352 O 219.767 -1.1723 1.383 0
M  V30 2353 C 219.815 1.91202 3.05736 0
M  V30 2354 O 218.919 1.22611 3.93752 0
M  V30 2355 H 218.26 0.415385 0.518027 0
M  V30 2356 H 220.79 1.70586 1.12967 0
M  V30 2357 H 220.8 1.99487 3.55906 0
M  V30 2358 H 219.475 2.95692 2.92471 0
M  V30 2359 H 218.052 1.22554 3.52186 0
M  V30 2360 N 220.237 -1.11381 1.11499 0
M  V30 2361 C 221.184 -2.17439 0.773887 0
M  V30 2362 C 222.154 -1.64132 -0.254899 0
M  V30 2363 O 223.339 -1.90345 -0.13168 0
M  V30 2364 C 220.479 -3.44373 0.223917 0
M  V30 2365 C 219.592 -4.1168 1.30934 0
M  V30 2366 C 218.727 -5.263 0.71984 0
M  V30 2367 C 217.766 -5.85493 1.78507 0
M  V30 2368 N 216.903 -6.91507 1.21502 0
M  V30 2369 H 221.743 -2.45962 1.68246 0
M  V30 2370 H 219.28 -1.20744 0.840191 0
M  V30 2371 H 221.238 -4.17047 -0.112921 0
M  V30 2372 H 219.868 -3.16232 -0.647851 0
M  V30 2373 H 218.92 -3.37073 1.76312 0
M  V30 2374 H 220.232 -4.51729 2.11524 0
M  V30 2375 H 219.386 -6.05785 0.333094 0
M  V30 2376 H 218.125 -4.87559 -0.117377 0
M  V30 2377 H 217.13 -5.04686 2.18111 0
M  V30 2378 H 218.355 -6.26301 2.62533 0
M  V30 2379 H 216.301 -6.54783 0.399455 0
M  V30 2380 H 216.218 -7.30214 1.95763 0
M  V30 2381 H 217.486 -7.74795 0.855181 0
M  V30 2382 N 221.715 -0.905404 -1.28997 0
M  V30 2383 C 222.943 -0.549846 -1.9946 0
M  V30 2384 C 223.358 0.866834 -1.67724 0
M  V30 2385 O 222.715 1.57298 -0.925404 0
M  V30 2386 C 222.766 -0.739387 -3.53858 0
M  V30 2387 O 222.487 -2.10031 -3.84472 0
M  V30 2388 C 223.988 -0.389541 -4.41585 0
M  V30 2389 H 221.208 -0.210429 -0.637151 0
M  V30 2390 H 223.752 -1.21632 -1.64396 0
M  V30 2391 H 221.907 -0.120023 -3.87214 0
M  V30 2392 H 222.321 -2.13385 -4.79132 0
M  V30 2393 H 223.795 -0.572972 -5.49018 0
M  V30 2394 H 224.272 0.673756 -4.34001 0
M  V30 2395 H 224.878 -0.986089 -4.1371 0
M  V30 2396 N 223.193 1.4272 -0.668489 0
M  V30 2397 C 224.126 2.28111 0.0637898 0
M  V30 2398 C 225.104 1.40705 0.814912 0
M  V30 2399 O 226.288 1.70146 0.81134 0
M  V30 2400 C 223.415 3.20429 1.0974 0
M  V30 2401 C 222.461 4.24197 0.442579 0
M  V30 2402 S 223.294 5.29563 -0.795173 0
M  V30 2403 C 224.45 6.25449 0.237516 0
M  V30 2404 H 224.683 2.8987 -0.660521 0
M  V30 2405 H 222.216 1.47456 -0.457821 0
M  V30 2406 H 224.174 3.74158 1.68868 0
M  V30 2407 H 222.835 2.57818 1.79411 0
M  V30 2408 H 222.028 4.88954 1.22227 0
M  V30 2409 H 221.63 3.73925 -0.0749554 0
M  V30 2410 H 223.922 6.68524 1.09915 0
M  V30 2411 H 224.865 7.07104 -0.375421 0
M  V30 2412 H 225.273 5.61511 0.580167 0
M  V30 2413 N 224.671 0.411399 1.52136 0
M  V30 2414 C 225.917 -0.163888 2.02137 0
M  V30 2415 C 226.25 -1.44597 1.29636 0
M  V30 2416 O 225.525 -1.90272 0.403353 0
M  V30 2417 C 225.808 -0.40927 3.57767 0
M  V30 2418 C 225.661 0.889643 4.40914 0
M  V30 2419 C 226.98 -1.19042 4.23694 0
M  V30 2420 H 224.099 -0.0580896 0.734707 0
M  V30 2421 H 226.741 0.54531 1.82007 0
M  V30 2422 H 224.891 -1.0134 3.7505 0
M  V30 2423 H 226.563 1.52575 4.35337 0
M  V30 2424 H 224.806 1.50011 4.07037 0
M  V30 2425 H 225.477 0.672314 5.4789 0
M  V30 2426 H 227.953 -0.678942 4.10524 0
M  V30 2427 H 226.829 -1.33086 5.32522 0
M  V30 2428 H 227.09 -2.21166 3.82803 0
M  V30 2429 N 226.149 -1.5696 0.141893 0
M  V30 2430 C 227.426 -1.87553 -0.555281 0
M  V30 2431 C 227.806 -1.04699 -1.83306 0
M  V30 2432 O 227.154 -0.132346 -2.28116 0
M  V30 2433 C 227.364 -3.39093 -0.825664 0
M  V30 2434 C 228.712 -4.08199 -1.16869 0
M  V30 2435 O 229.736 -3.44242 -0.915185 0
M  V30 2436 O 228.595 -5.21139 -1.6455 0
M  V30 2437 H 225.689 -0.777188 -0.282679 0
M  V30 2438 H 228.235 -1.68763 0.17812 0
M  V30 2439 H 227.007 -3.91221 0.0788633 0
M  V30 2440 H 226.63 -3.63393 -1.61343 0
M  V30 2441 N 227.627 0.131896 -1.57047 0
M  V30 2442 C 228.537 1.1815 -2.02676 0
M  V30 2443 C 229.553 1.46113 -0.944824 0
M  V30 2444 O 230.729 1.57485 -1.25541 0
M  V30 2445 C 227.794 2.49139 -2.41103 0
M  V30 2446 C 226.855 2.28688 -3.63318 0
M  V30 2447 C 226.088 3.53431 -3.99903 0
M  V30 2448 O 226.311 4.60223 -3.36973 0
M  V30 2449 O 225.245 3.45198 -4.93074 0
M  V30 2450 H 229.071 0.824069 -2.92306 0
M  V30 2451 H 226.656 0.341745 -1.45439 0
M  V30 2452 H 228.538 3.26338 -2.66611 0
M  V30 2453 H 227.213 2.84382 -1.54624 0
M  V30 2454 H 226.12 1.4939 -3.42977 0
M  V30 2455 H 227.453 1.98355 -4.50462 0
M  V30 2456 N 229.106 1.52395 0.401703 0
M  V30 2457 C 230.036 1.79231 1.49661 0
M  V30 2458 C 231.017 0.643654 1.57452 0
M  V30 2459 O 232.202 0.889989 1.72606 0
M  V30 2460 C 229.332 1.94971 2.87409 0
M  V30 2461 C 228.286 3.10604 2.94465 0
M  V30 2462 C 227.612 3.11577 4.34538 0
M  V30 2463 C 228.912 4.49921 2.6527 0
M  V30 2464 H 230.606 2.70917 1.27454 0
M  V30 2465 H 228.152 1.30362 0.6117 0
M  V30 2466 H 230.105 2.12328 3.63999 0
M  V30 2467 H 228.829 0.999632 3.10926 0
M  V30 2468 H 227.488 2.93009 2.20321 0
M  V30 2469 H 227.136 2.14277 4.55076 0
M  V30 2470 H 226.836 3.89247 4.40183 0
M  V30 2471 H 228.36 3.31073 5.13053 0
M  V30 2472 H 229.774 4.67683 3.31581 0
M  V30 2473 H 228.171 5.29564 2.82281 0
M  V30 2474 H 229.241 4.57507 1.60671 0
M  V30 2475 N 230.584 -0.659388 1.43143 0
M  V30 2476 C 231.831 -1.41935 1.44433 0
M  V30 2477 C 232.159 -1.94387 0.0663522 0
M  V30 2478 O 231.414 -1.72314 -0.927706 0
M  V30 2479 C 231.713 -2.62206 2.42864 0
M  V30 2480 C 231.379 -2.28208 3.88886 0
M  V30 2481 C 230.041 -2.18647 4.28657 0
M  V30 2482 C 232.393 -2.00887 4.8093 0
M  V30 2483 C 229.721 -1.79914 5.58433 0
M  V30 2484 C 232.073 -1.63653 6.11065 0
M  V30 2485 C 230.737 -1.52614 6.49819 0
M  V30 2486 H 230.007 -0.519376 0.528517 0
M  V30 2487 H 232.654 -0.750453 1.76183 0
M  V30 2488 H 230.959 -3.34199 2.04495 0
M  V30 2489 H 232.656 -3.2041 2.41119 0
M  V30 2490 H 229.246 -2.36557 3.57406 0
M  V30 2491 H 233.43 -2.07198 4.5098 0
M  V30 2492 H 228.686 -1.69948 5.87305 0
M  V30 2493 H 232.86 -1.41543 6.81864 0
M  V30 2494 H 230.487 -1.22371 7.50286 0
M  V30 2495 N 232.062 -1.29571 -0.897171 0
M  V30 2496 C 233.025 -1.14913 -1.98312 0
M  V30 2497 C 234.025 -0.0838629 -1.60581 0
M  V30 2498 O 235.215 -0.331006 -1.71026 0
M  V30 2499 C 232.347 -0.757835 -3.3237 0
M  V30 2500 H 233.54 -2.11377 -2.12743 0
M  V30 2501 H 231.093 -1.12793 -1.08201 0
M  V30 2502 H 231.828 0.206837 -3.2364 0
M  V30 2503 H 231.613 -1.52755 -3.61121 0
M  V30 2504 H 233.103 -0.678408 -4.12053 0
M  V30 2505 N 233.54 1.10788 -1.12088 0
M  V30 2506 C 234.45 2.20599 -0.798338 0
M  V30 2507 C 235.466 1.72712 0.21135 0
M  V30 2508 O 236.642 2.01348 0.0458477 0
M  V30 2509 C 233.707 3.45771 -0.253674 0
M  V30 2510 C 232.768 4.08411 -1.32283 0
M  V30 2511 C 232.001 5.27608 -0.80406 0
M  V30 2512 O 232.224 5.69241 0.363478 0
M  V30 2513 O 231.158 5.8101 -1.57198 0
M  V30 2514 H 234.984 2.50614 -1.7154 0
M  V30 2515 H 232.569 1.19454 -0.897275 0
M  V30 2516 H 234.451 4.21376 0.0453691 0
M  V30 2517 H 233.126 3.1739 0.636005 0
M  V30 2518 H 232.033 3.34507 -1.67499 0
M  V30 2519 H 233.366 4.40986 -2.18614 0
M  V30 2520 N 235.018 0.912232 1.28515 0
M  V30 2521 C 236.267 0.540504 1.94323 0
M  V30 2522 C 236.58 -0.920044 1.72611 0
M  V30 2523 O 237.786 -1.39986 2.32629 0
M  V30 2524 C 236.242 0.915803 3.48053 0
M  V30 2525 C 235.85 2.39598 3.78546 0
M  V30 2526 C 237.594 0.614588 4.20027 0
M  V30 2527 C 235.501 2.71148 5.25578 0
M  V30 2528 H 234.431 0.198418 0.727424 0
M  V30 2529 H 237.082 1.11094 1.46049 0
M  V30 2530 H 235.464 0.274168 3.9505 0
M  V30 2531 H 236.638 3.08422 3.42364 0
M  V30 2532 H 234.953 2.66749 3.1974 0
M  V30 2533 H 237.55 0.827002 5.28266 0
M  V30 2534 H 237.893 -0.447531 4.13887 0
M  V30 2535 H 238.426 1.21462 3.78803 0
M  V30 2536 H 235.165 3.76207 5.36794 0
M  V30 2537 H 234.685 2.0696 5.62963 0
M  V30 2538 H 236.364 2.58072 5.93302 0
M  V30 2539 N 236.496 -1.42363 0.676048 0
M  V30 2540 C 237.742 -2.0182 0.199125 0
M  V30 2541 C 238.075 -1.53339 -1.19168 0
M  V30 2542 O 237.35 -0.736124 -1.80032 0
M  V30 2543 C 237.633 -3.59331 0.235144 0
M  V30 2544 C 237.486 -4.17989 1.66149 0
M  V30 2545 C 238.805 -4.3813 -0.41595 0
M  V30 2546 H 235.924 -0.733293 0.0738311 0
M  V30 2547 H 238.566 -1.69368 0.86107 0
M  V30 2548 H 236.716 -3.87109 -0.328487 0
M  V30 2549 H 238.388 -4.0116 2.27747 0
M  V30 2550 H 236.631 -3.7377 2.20178 0
M  V30 2551 H 237.302 -5.27126 1.63837 0
M  V30 2552 H 239.778 -4.16051 0.0638529 0
M  V30 2553 H 238.654 -5.47717 -0.360115 0
M  V30 2554 H 238.915 -4.16101 -1.49373 0
M  V30 2555 N 237.974 -0.419461 -1.51915 0
M  V30 2556 C 239.39 -0.0708431 -1.59443 0
M  V30 2557 C 239.59 1.41796 -1.43164 0
M  V30 2558 O 238.646 2.18596 -1.26381 0
M  V30 2559 C 239.959 -0.574991 -2.95151 0
M  V30 2560 C 241.507 -0.533867 -3.08413 0
M  V30 2561 C 241.982 -1.01469 -4.46618 0
M  V30 2562 N 243.473 -0.971939 -4.52888 0
M  V30 2563 C 244.208 -1.31505 -5.58116 0
M  V30 2564 N 243.704 -1.73014 -6.70849 0
M  V30 2565 N 245.497 -1.23436 -5.48379 0
M  V30 2566 H 237.648 -1.38836 -1.60743 0
M  V30 2567 H 239.911 -0.570998 -0.756747 0
M  V30 2568 H 239.617 -1.61597 -3.12377 0
M  V30 2569 H 239.491 0.00979777 -3.77199 0
M  V30 2570 H 241.878 0.498086 -2.90866 0
M  V30 2571 H 241.959 -1.15484 -2.28248 0
M  V30 2572 H 241.603 -2.04502 -4.6491 0
M  V30 2573 H 241.533 -0.370433 -5.25295 0
M  V30 2574 H 244.024 -0.666893 -3.71969 0
M  V30 2575 H 244.337 -1.97479 -7.47143 0
M  V30 2576 H 242.682 -1.76926 -6.72103 0
M  V30 2577 H 245.873 -0.908869 -4.59192 0
M  V30 2578 H 246.046 -1.50506 -6.30279 0
M  V30 2579 N 239.452 1.56882 -0.150215 0
M  V30 2580 C 240.384 2.14057 0.819286 0
M  V30 2581 C 241.397 1.09082 1.20851 0
M  V30 2582 O 242.586 1.36347 1.15203 0
M  V30 2583 C 239.686 2.65102 2.11127 0
M  V30 2584 C 238.859 3.94511 1.88891 0
M  V30 2585 C 237.918 4.30834 3.02107 0
M  V30 2586 O 236.944 4.99099 2.73659 0
M  V30 2587 N 238.146 3.90676 4.29363 0
M  V30 2588 H 240.911 2.97871 0.330618 0
M  V30 2589 H 238.472 1.61866 0.0332538 0
M  V30 2590 H 240.464 2.86411 2.85921 0
M  V30 2591 H 239.034 1.85994 2.51247 0
M  V30 2592 H 238.254 3.81795 0.981152 0
M  V30 2593 H 239.542 4.7907 1.71376 0
M  V30 2594 H 238.94 3.35677 4.55343 0
M  V30 2595 H 237.497 4.1703 5.00928 0
M  V30 2596 N 240.93 -0.123565 1.57115 0
M  V30 2597 C 241.863 -1.18202 1.95201 0
M  V30 2598 C 242.841 -1.40349 0.821031 0
M  V30 2599 O 244.025 -1.54578 1.07879 0
M  V30 2600 C 241.152 -2.53671 2.24429 0
M  V30 2601 C 240.198 -2.4798 3.46999 0
M  V30 2602 S 241.031 -1.92389 4.99747 0
M  V30 2603 C 242.187 -3.2954 5.32123 0
M  V30 2604 H 242.42 -0.857212 2.84674 0
M  V30 2605 H 239.953 -0.33014 1.50829 0
M  V30 2606 H 241.911 -3.3162 2.41947 0
M  V30 2607 H 240.572 -2.83332 1.35579 0
M  V30 2608 H 239.765 -3.47758 3.64801 0
M  V30 2609 H 239.367 -1.7815 3.28844 0
M  V30 2610 H 241.659 -4.25736 5.27025 0
M  V30 2611 H 242.602 -3.16569 6.33395 0
M  V30 2612 H 243.01 -3.27758 4.59603 0
M  V30 2613 N 242.408 -1.52605 -0.393616 0
M  V30 2614 C 243.356 -1.77688 -1.50099 0
M  V30 2615 C 244.35 -0.644615 -1.56656 0
M  V30 2616 O 245.556 -0.826997 -1.59877 0
M  V30 2617 H 241.931 -0.562159 -0.499481 0
M  V30 2618 H 243.902 -2.7043 -1.26135 0
M  V30 2619 C 242.651 -1.95858 -2.87289 0
M  V30 2620 H 241.974 -2.8241 -2.82992 0
M  V30 2621 H 243.414 -2.174 -3.64024 0
M  V30 2622 C 241.873 -0.729848 -3.28899 0
M  V30 2623 O 242.403 0.0949217 -4.01588 0
M  V30 2624 N 240.609 -0.561283 -2.85128 0
M  V30 2625 H 240.156 -1.23357 -2.26143 0
M  V30 2626 H 240.114 0.2595 -3.13327 0
M  V30 2627 N 243.887 0.651787 -1.4349 0
M  V30 2628 C 245.117 1.43728 -1.48411 0
M  V30 2629 C 245.525 1.8893 -0.10103 0
M  V30 2630 O 244.868 1.60182 0.899307 0
M  V30 2631 C 244.93 2.70411 -2.36893 0
M  V30 2632 C 244.594 2.4714 -3.8441 0
M  V30 2633 C 245.591 2.10271 -4.75481 0
M  V30 2634 C 243.276 2.6142 -4.28912 0
M  V30 2635 C 245.27 1.87982 -6.0905 0
M  V30 2636 C 242.957 2.38746 -5.62533 0
M  V30 2637 C 243.955 2.02083 -6.5242 0
M  V30 2638 O 243.643 1.79647 -7.8357 0
M  V30 2639 H 243.375 0.447962 -0.506267 0
M  V30 2640 H 245.929 0.80624 -1.88915 0
M  V30 2641 H 244.159 3.36079 -1.91278 0
M  V30 2642 H 245.848 3.32364 -2.33 0
M  V30 2643 H 246.614 1.98814 -4.42378 0
M  V30 2644 H 242.493 2.88931 -3.59222 0
M  V30 2645 H 246.037 1.5929 -6.7917 0
M  V30 2646 H 241.934 2.49806 -5.95203 0
M  V30 2647 H 242.702 1.9406 -7.95162 0
M  V30 2648 N 245.365 1.30045 0.890287 0
M  V30 2649 C 246.328 1.15963 1.977 0
M  V30 2650 C 247.328 0.0923777 1.60534 0
M  V30 2651 O 248.518 0.340071 1.70848 0
M  V30 2652 C 245.65 0.775451 3.31963 0
M  V30 2653 H 246.843 2.12502 2.11619 0
M  V30 2654 H 244.396 1.13366 1.07601 0
M  V30 2655 H 245.131 -0.189671 3.23745 0
M  V30 2656 H 244.916 1.54668 3.60306 0
M  V30 2657 H 246.406 0.700251 4.11687 0
M  V30 2658 N 246.843 -1.10192 1.12674 0
M  V30 2659 C 247.806 -2.14786 0.799979 0
M  V30 2660 C 248.806 -1.59711 -0.18685 0
M  V30 2661 O 249.996 -1.74156 0.0392558 0
M  V30 2662 C 247.128 -3.40374 0.189228 0
M  V30 2663 H 248.321 -2.45203 1.72671 0
M  V30 2664 H 245.874 -1.25597 0.930326 0
M  V30 2665 H 246.609 -3.15577 -0.747107 0
M  V30 2666 H 246.394 -3.81637 0.899766 0
M  V30 2667 H 247.884 -4.17594 -0.0228143 0
M  V30 2668 N 248.321 -0.919034 -1.28029 0
M  V30 2669 C 249.253 -0.368762 -2.26214 0
M  V30 2670 C 250.266 0.495716 -1.55069 0
M  V30 2671 O 251.455 0.30974 -1.75792 0
M  V30 2672 C 248.555 0.491049 -3.35324 0
M  V30 2673 C 247.728 -0.352133 -4.3598 0
M  V30 2674 C 246.787 0.443622 -5.24327 0
M  V30 2675 O 245.813 -0.14566 -5.69014 0
M  V30 2676 N 247.015 1.74545 -5.53637 0
M  V30 2677 H 249.78 -1.21273 -2.74068 0
M  V30 2678 H 247.341 -0.785541 -1.41566 0
M  V30 2679 H 249.333 1.03026 -3.91366 0
M  V30 2680 H 247.903 1.23574 -2.87138 0
M  V30 2681 H 247.123 -1.07269 -3.79324 0
M  V30 2682 H 248.411 -0.928883 -5.00249 0
M  V30 2683 H 247.809 2.24666 -5.19174 0
M  V30 2684 H 246.366 2.23138 -6.12416 0
M  V30 2685 N 249.799 1.42003 -0.683588 0
M  V30 2686 C 251.21 1.84501 -0.285736 0
M  V30 2687 C 251.561 1.57213 1.17382 0
M  V30 2688 O 250.686 1.03642 1.89966 0
M  V30 2689 C 251.281 3.34912 -0.511821 0
M  V30 2690 C 249.84 3.76025 -0.168005 0
M  V30 2691 C 248.987 2.6551 -0.799983 0
M  V30 2692 H 251.938 1.31724 -0.885119 0
M  V30 2693 H 251.959 3.79784 0.233292 0
M  V30 2694 H 251.471 3.54741 -1.57418 0
M  V30 2695 H 249.572 3.61801 0.890567 0
M  V30 2696 H 249.685 4.75141 -0.614661 0
M  V30 2697 H 248.049 2.53654 -0.230568 0
M  V30 2698 H 248.832 2.8816 -1.86597 0
M  V30 2699 N 251.277 0.427512 1.51691 0
M  V30 2700 C 252.554 -0.201684 1.94557 0
M  V30 2701 C 252.934 -1.60981 1.36559 0
M  V30 2702 O 252.282 -2.21814 0.548702 0
M  V30 2703 C 252.492 -0.189394 3.48486 0
M  V30 2704 C 253.84 -0.39978 4.22714 0
M  V30 2705 O 254.864 -0.267945 3.55191 0
M  V30 2706 O 253.723 -0.661249 5.42485 0
M  V30 2707 H 250.817 -0.135261 0.815864 0
M  V30 2708 H 253.363 0.484782 1.62628 0
M  V30 2709 H 252.135 0.795431 3.8313 0
M  V30 2710 H 251.758 -0.919187 3.86829 0
M  V30 2711 N 252.755 -1.56801 0.158532 0
M  V30 2712 C 253.702 -2.17337 -0.776729 0
M  V30 2713 C 254.672 -1.1096 -1.23601 0
M  V30 2714 O 255.857 -1.39054 -1.30647 0
M  V30 2715 C 252.997 -2.80822 -2.00582 0
M  V30 2716 C 252.11 -4.01624 -1.59129 0
M  V30 2717 C 251.245 -4.53072 -2.77306 0
M  V30 2718 C 250.284 -5.66314 -2.32282 0
M  V30 2719 N 249.421 -6.12329 -3.43508 0
M  V30 2720 H 254.261 -2.96918 -0.253701 0
M  V30 2721 H 251.798 -1.46661 -0.113504 0
M  V30 2722 H 253.756 -3.15779 -2.72652 0
M  V30 2723 H 252.386 -2.03866 -2.50277 0
M  V30 2724 H 251.438 -3.72571 -0.767806 0
M  V30 2725 H 252.75 -4.83633 -1.2207 0
M  V30 2726 H 251.904 -4.90145 -3.57551 0
M  V30 2727 H 250.643 -3.70095 -3.17617 0
M  V30 2728 H 249.648 -5.28806 -1.5048 0
M  V30 2729 H 250.873 -6.51085 -1.93043 0
M  V30 2730 H 248.819 -5.32284 -3.83418 0
M  V30 2731 H 248.736 -6.89293 -3.105 0
M  V30 2732 H 250.004 -6.5405 -4.24075 0
M  V30 2733 N 254.233 0.115231 -1.57178 0
M  V30 2734 C 255.51 0.852873 -1.76027 0
M  V30 2735 C 255.89 1.97892 -0.73498 0
M  V30 2736 O 255.238 2.27232 0.24036 0
M  V30 2737 C 255.448 1.36608 -3.21153 0
M  V30 2738 C 256.796 1.81692 -3.83762 0
M  V30 2739 O 257.82 1.46278 -3.24779 0
M  V30 2740 O 256.679 2.47104 -4.87444 0
M  V30 2741 H 253.773 0.405296 -0.720877 0
M  V30 2742 H 256.319 0.0986785 -1.69413 0
M  V30 2743 H 255.091 0.558357 -3.87296 0
M  V30 2744 H 254.714 2.18287 -3.3232 0
M  V30 2745 N 255.711 1.52812 0.385517 0
M  V30 2746 C 256.988 1.5861 1.14465 0
M  V30 2747 C 257.368 0.381402 2.07626 0
M  V30 2748 O 256.716 -0.629999 2.19643 0
M  V30 2749 C 256.926 2.92664 1.90128 0
M  V30 2750 C 258.274 3.46526 2.45367 0
M  V30 2751 O 259.298 2.94562 2.0028 0
M  V30 2752 O 258.157 4.37323 3.27736 0
M  V30 2753 H 255.251 0.639855 0.523941 0
M  V30 2754 H 257.797 1.65149 0.390389 0
M  V30 2755 H 256.569 3.71788 1.22022 0
M  V30 2756 H 256.192 2.89527 2.72507 0
M  V30 2757 N 257.189 -0.644168 1.43834 0
M  V30 2758 C 258.6 -1.22554 1.40845 0
M  V30 2759 C 258.951 -1.9585 0.117115 0
M  V30 2760 O 258.076 -2.01734 -0.783086 0
M  V30 2761 C 258.671 -2.22907 2.55143 0
M  V30 2762 C 257.23 -2.76501 2.5539 0
M  V30 2763 C 256.377 -1.51287 2.32396 0
M  V30 2764 H 259.328 -0.43563 1.52604 0
M  V30 2765 H 259.349 -3.05259 2.2715 0
M  V30 2766 H 258.861 -1.69533 3.49114 0
M  V30 2767 H 256.962 -3.33914 1.65324 0
M  V30 2768 H 257.075 -3.23429 3.53455 0
M  V30 2769 H 255.439 -1.78957 1.81236 0
M  V30 2770 H 256.222 -0.998336 3.28463 0
M  V30 2771 N 258.668 -1.30515 -0.883378 0
M  V30 2772 C 259.908 -1.20716 -1.64946 0
M  V30 2773 C 260.272 0.234072 -1.90568 0
M  V30 2774 O 261.473 0.455335 -2.64915 0
M  V30 2775 C 259.744 -2.01444 -2.9522 0
M  V30 2776 S 261.303 -2.0836 -3.86175 0
M  V30 2777 H 258.121 -0.430165 -0.566109 0
M  V30 2778 H 260.723 -1.65011 -1.04841 0
M  V30 2779 H 259.427 -3.05268 -2.74298 0
M  V30 2780 H 258.958 -1.57817 -3.60357 0
M  V30 2781 H 260.973 -1.21215 -4.81167 0
M  V30 2782 N 260.146 1.09593 -1.13257 0
M  V30 2783 C 261.386 1.83349 -0.903472 0
M  V30 2784 C 261.75 1.83641 0.560351 0
M  V30 2785 O 262.951 2.53037 0.906947 0
M  V30 2786 C 261.222 3.25629 -1.47311 0
M  V30 2787 S 262.781 4.16408 -1.38382 0
M  V30 2788 H 259.599 0.632014 -0.325699 0
M  V30 2789 H 262.201 1.31817 -1.44376 0
M  V30 2790 H 260.905 3.22991 -2.53189 0
M  V30 2791 H 260.436 3.82233 -0.930689 0
M  V30 2792 H 262.451 4.94884 -0.361113 0
M  V30 2793 N 261.624 0.925811 1.2754 0
M  V30 2794 C 262.849 0.580924 1.99098 0
M  V30 2795 C 263.274 -0.833555 1.68622 0
M  V30 2796 O 262.632 -1.55903 0.925422 0
M  V30 2797 C 262.68 0.811186 3.51358 0
M  V30 2798 O 261.784 -0.124129 4.12213 0
M  V30 2799 H 261.125 0.223873 0.625122 0
M  V30 2800 H 263.655 1.24455 1.62395 0
M  V30 2801 H 263.665 0.72601 4.01489 0
M  V30 2802 H 262.34 1.84227 3.72872 0
M  V30 2803 H 260.917 0.0108006 3.72898 0
M  V30 2804 N 263.102 -1.41638 0.69111 0
M  V30 2805 C 264.065 -2.29178 0.0319786 0
M  V30 2806 C 265.065 -1.44153 -0.712496 0
M  V30 2807 O 266.255 -1.65354 -0.548053 0
M  V30 2808 C 263.387 -3.26952 -0.965161 0
M  V30 2809 H 264.58 -2.88959 0.802681 0
M  V30 2810 H 262.133 -1.4955 0.454356 0
M  V30 2811 H 262.868 -2.72142 -1.76378 0
M  V30 2812 H 262.653 -3.89685 -0.434522 0
M  V30 2813 H 264.143 -3.92561 -1.42428 0
M  V30 2814 N 264.58 -0.43555 -1.51462 0
M  V30 2815 C 265.82 0.130708 -2.03982 0
M  V30 2816 C 266.184 1.40117 -1.31268 0
M  V30 2817 O 267.385 2.04755 -1.74152 0
M  V30 2818 C 265.656 0.346102 -3.5572 0
M  V30 2819 S 267.215 0.876022 -4.29967 0
M  V30 2820 H 264.033 0.0326881 -0.710248 0
M  V30 2821 H 266.635 -0.594544 -1.8624 0
M  V30 2822 H 265.339 -0.584911 -4.0621 0
M  V30 2823 H 264.87 1.09849 -3.77752 0
M  V30 2824 H 266.885 2.15379 -4.47019 0
M  V30 2825 N 266.058 1.56714 -0.166846 0
M  V30 2826 C 267.006 2.19056 0.782123 0
M  V30 2827 C 268 1.15328 1.24079 0
M  V30 2828 O 269.206 1.33537 1.20697 0
M  V30 2829 H 265.581 0.70167 0.270486 0
M  V30 2830 H 267.552 2.97494 0.232322 0
M  V30 2831 C 266.301 2.84206 2.00306 0
M  V30 2832 H 265.624 3.63748 1.65914 0
M  V30 2833 H 267.064 3.31302 2.64604 0
M  V30 2834 C 265.523 1.83744 2.82382 0
M  V30 2835 O 266.053 1.32014 3.79388 0
M  V30 2836 N 264.259 1.52601 2.47308 0
M  V30 2837 H 263.806 1.9486 1.68485 0
M  V30 2838 H 263.764 0.856351 3.02513 0
M  V30 2839 N 267.536 -0.106894 1.57237 0
M  V30 2840 C 268.785 -0.811163 1.8467 0
M  V30 2841 C 269.098 -1.80469 0.754342 0
M  V30 2842 O 270.304 -2.55601 0.915439 0
M  V30 2843 C 268.76 -1.49337 3.27454 0
M  V30 2844 C 268.368 -0.540217 4.44731 0
M  V30 2845 C 270.112 -2.18206 3.64124 0
M  V30 2846 C 268.019 -1.22634 5.78545 0
M  V30 2847 H 266.949 -0.306679 0.688813 0
M  V30 2848 H 269.6 -0.0639887 1.83388 0
M  V30 2849 H 267.982 -2.2876 3.23241 0
M  V30 2850 H 269.156 0.221659 4.60267 0
M  V30 2851 H 267.471 0.042146 4.16379 0
M  V30 2852 H 270.068 -2.70253 4.61376 0
M  V30 2853 H 270.411 -2.96562 2.92158 0
M  V30 2854 H 270.944 -1.45658 3.70174 0
M  V30 2855 H 267.683 -0.483832 6.53712 0
M  V30 2856 H 267.203 -1.95993 5.66874 0
M  V30 2857 H 268.882 -1.75615 6.2271 0
M  V30 2858 N 269.014 -1.53014 -0.377408 0
M  V30 2859 C 269.946 -1.74884 -1.48149 0
M  V30 2860 C 270.959 -0.629433 -1.5014 0
M  V30 2861 O 272.148 -0.905416 -1.53833 0
M  V30 2862 C 269.248 -1.80299 -2.86959 0
M  V30 2863 C 268.421 -3.09776 -3.08801 0
M  V30 2864 C 267.48 -3.06586 -4.27658 0
M  V30 2865 O 266.506 -3.80419 -4.23403 0
M  V30 2866 N 267.708 -2.26578 -5.34455 0
M  V30 2867 H 270.473 -2.70147 -1.29771 0
M  V30 2868 H 268.034 -1.51646 -0.56703 0
M  V30 2869 H 270.026 -1.75657 -3.64591 0
M  V30 2870 H 268.596 -0.92372 -2.98641 0
M  V30 2871 H 267.816 -3.27815 -2.18931 0
M  V30 2872 H 269.104 -3.95366 -3.20255 0
M  V30 2873 H 268.502 -1.66081 -5.40771 0
M  V30 2874 H 267.059 -2.27766 -6.10709 0
M  V30 2875 O 270.531 0.523369 -1.52784 0
M  V30 2876 H 271.222 1.17844 -1.53728 0
M  V30 END ATOM
M  V30 BEGIN BOND
M  V30 END BOND
M  V30 END CTAB
M  END
$$$$
