drugbank_target|P10147 C-C motif chemokine 3 (DB05364)
 OpenBabel12092120223D

  0  0  0     0  0            999 V3000
M  V30 BEGIN CTAB
M  V30 COUNTS 1391 1404 0 0 0
M  V30 BEGIN ATOM
M  V30 1 H -0.908 1.98254 -0.117106 0
M  V30 2 N 0 1.576 0 0
M  V30 3 C 0.933 2.03868 1.02534 0
M  V30 4 C 1.911 0.928543 1.3348 0
M  V30 5 O 3.095 1.19667 1.45644 0
M  V30 6 C 0.222 2.43627 2.35294 0
M  V30 7 C -0.732 3.65373 2.2001 0
M  V30 8 S 0.101 5.13292 1.52614 0
M  V30 9 C 1.257 5.56322 2.86805 0
M  V30 10 H 1.49 2.90518 0.631377 0
M  V30 11 H -0.977 1.52953 0.210867 0
M  V30 12 H 0.981 2.67203 3.11629 0
M  V30 13 H -0.358 1.57376 2.7183 0
M  V30 14 H -1.165 3.90944 3.18086 0
M  V30 15 H -1.563 3.418 1.51819 0
M  V30 16 H 0.729 5.58782 3.83104 0
M  V30 17 H 1.672 6.56266 2.65933 0
M  V30 18 H 2.08 4.83886 2.90714 0
M  V30 19 N 1.4781 -0.272755 1.55222 0
M  V30 20 C 2.4101 -1.35946 1.8453 0
M  V30 21 C 3.4231 -1.45525 0.729818 0
M  V30 22 O 4.6121 -1.47337 1.00767 0
M  V30 23 C 1.7121 -2.74069 1.99347 0
M  V30 24 C 0.8851 -2.87079 3.30007 0
M  V30 25 C -0.0559 -4.05879 3.34886 0
M  V30 26 O -1.0299 -3.96626 4.08261 0
M  V30 27 N 0.1721 -5.17857 2.62307 0
M  V30 28 H 2.9371 -1.11149 2.78327 0
M  V30 29 H 0.4981 -0.462869 1.55142 0
M  V30 30 H 2.4901 -3.51838 1.99981 0
M  V30 31 H 1.0601 -2.91688 1.12415 0
M  V30 32 H 0.2801 -1.96193 3.41909 0
M  V30 33 H 1.5681 -2.92701 4.16177 0
M  V30 34 H 0.9661 -5.28261 2.02377 0
M  V30 35 H -0.4769 -5.93855 2.68663 0
M  V30 36 N 2.9562 -1.48159 -0.537278 0
M  V30 37 C 4.2022 -1.56035 -1.29541 0
M  V30 38 C 4.5352 -0.230377 -1.92829 0
M  V30 39 O 3.8102 0.762952 -1.78911 0
M  V30 40 C 4.0932 -2.69323 -2.39034 0
M  V30 41 C 3.9462 -4.12002 -1.80485 0
M  V30 42 C 5.2652 -2.78408 -3.40847 0
M  V30 43 H 2.3842 -0.567992 -0.469632 0
M  V30 44 H 5.0262 -1.80302 -0.599277 0
M  V30 45 H 3.1762 -2.48763 -2.98412 0
M  V30 46 H 4.8482 -4.43981 -1.25215 0
M  V30 47 H 3.0912 -4.19344 -1.11055 0
M  V30 48 H 3.7622 -4.87077 -2.59731 0
M  V30 49 H 6.2382 -2.97012 -2.91416 0
M  V30 50 H 5.1142 -3.59416 -4.14863 0
M  V30 51 H 5.3752 -1.86269 -4.00944 0
M  V30 52 N 4.4343 0.785586 -1.36625 0
M  V30 53 C 5.6593 1.57963 -1.34397 0
M  V30 54 C 6.0843 1.87964 0.071526 0
M  V30 55 O 5.4423 1.48182 1.0446 0
M  V30 56 C 5.4903 2.87511 -2.17646 0
M  V30 57 O 4.5943 3.81281 -1.57158 0
M  V30 58 H 3.9353 0.479014 -0.459828 0
M  V30 59 H 6.4653 0.973411 -1.79961 0
M  V30 60 H 6.4753 3.36745 -2.30362 0
M  V30 61 H 5.1503 2.65002 -3.20541 0
M  V30 62 H 3.7273 3.39885 -1.53403 0
M  V30 63 N 5.9124 1.20967 1.01018 0
M  V30 64 C 7.1404 1.04956 1.78303 0
M  V30 65 C 7.5554 -0.400915 1.84494 0
M  V30 66 O 6.9124 -1.27826 1.30257 0
M  V30 67 C 6.9634 1.63403 3.22462 0
M  V30 68 O 6.6844 3.02775 3.16637 0
M  V30 69 C 8.1854 1.52432 4.16268 0
M  V30 70 H 5.4054 0.368858 0.560522 0
M  V30 71 H 7.9494 1.60193 1.27116 0
M  V30 72 H 6.1044 1.1227 3.70775 0
M  V30 73 H 6.5184 3.30626 4.07169 0
M  V30 74 H 7.9924 1.98078 5.15237 0
M  V30 75 H 8.4694 0.477875 4.36592 0
M  V30 76 H 9.0754 2.02787 3.73841 0
M  V30 77 N 7.3905 -1.2043 1.01659 0
M  V30 78 C 8.3535 -2.21433 0.591616 0
M  V30 79 C 9.3535 -1.57203 -0.338226 0
M  V30 80 O 10.5435 -1.73737 -0.126918 0
M  V30 81 C 7.6755 -3.40628 -0.136058 0
M  V30 82 H 8.8685 -2.60545 1.48514 0
M  V30 83 H 6.4215 -1.33893 0.806379 0
M  V30 84 H 7.1565 -3.07019 -1.04449 0
M  V30 85 H 6.9415 -3.88475 0.531917 0
M  V30 86 H 8.4315 -4.15475 -0.420735 0
M  V30 87 N 8.8686 -0.792821 -1.36206 0
M  V30 88 C 9.8316 -0.199459 -2.2833 0
M  V30 89 C 10.8316 0.605189 -1.48977 0
M  V30 90 O 12.0216 0.425685 -1.68919 0
M  V30 91 C 9.1536 0.723523 -3.33134 0
M  V30 92 H 10.3466 -1.01181 -2.82316 0
M  V30 93 H 7.8996 -0.562485 -1.45828 0
M  V30 94 H 8.6346 1.56008 -2.84309 0
M  V30 95 H 8.4196 0.148436 -3.91819 0
M  V30 96 H 9.9096 1.13344 -4.01924 0
M  V30 97 N 10.3467 1.47872 -0.545128 0
M  V30 98 C 11.2767 2.32661 0.197793 0
M  V30 99 C 12.2577 1.43041 0.920504 0
M  V30 100 O 13.4427 1.71912 0.90333 0
M  V30 101 C 10.5727 3.24569 1.23582 0
M  V30 102 C 9.5267 4.23333 0.630323 0
M  V30 103 C 8.8527 5.0448 1.77211 0
M  V30 104 C 10.1527 5.20704 -0.407974 0
M  V30 105 H 11.8467 2.95024 -0.510045 0
M  V30 106 H 9.3927 1.4187 -0.246731 0
M  V30 107 H 11.3457 3.8272 1.76362 0
M  V30 108 H 10.0697 2.60236 1.97344 0
M  V30 109 H 8.7287 3.6639 0.123922 0
M  V30 110 H 8.3767 4.36561 2.49847 0
M  V30 111 H 8.0767 5.71339 1.37281 0
M  V30 112 H 9.6007 5.65487 2.3034 0
M  V30 113 H 11.0147 5.7329 0.033305 0
M  V30 114 H 9.4117 5.95699 -0.725486 0
M  V30 115 H 10.4817 4.66917 -1.30828 0
M  V30 116 N 11.8248 0.280983 1.55075 0
M  V30 117 C 12.7878 -0.590896 2.21452 0
M  V30 118 C 13.7878 -1.07682 1.19421 0
M  V30 119 O 14.9778 -0.97605 1.44288 0
M  V30 120 C 12.1098 -1.81587 2.88511 0
M  V30 121 H 13.3028 -0.0112554 2.99898 0
M  V30 122 H 10.8558 0.0316438 1.56268 0
M  V30 123 H 11.5908 -2.43587 2.14093 0
M  V30 124 H 11.3758 -1.4753 3.63287 0
M  V30 125 H 12.8658 -2.43575 3.39206 0
M  V30 126 N 13.3029 -1.57598 0.00835791 0
M  V30 127 C 14.5489 -1.91211 -0.675732 0
M  V30 128 C 14.8819 -0.883139 -1.72958 0
M  V30 129 O 14.1569 0.097016 -1.94258 0
M  V30 130 C 14.4399 -3.35379 -1.31123 0
M  V30 131 C 14.2929 -4.48999 -0.268356 0
M  V30 132 C 15.6119 -3.7912 -2.23508 0
M  V30 133 H 12.7309 -0.695374 -0.244179 0
M  V30 134 H 15.3729 -1.89901 0.0613655 0
M  V30 135 H 13.5229 -3.36626 -1.93946 0
M  V30 136 H 15.1949 -4.59887 0.360844 0
M  V30 137 H 13.4379 -4.31873 0.408482 0
M  V30 138 H 14.1089 -5.46851 -0.752218 0
M  V30 139 H 16.5849 -3.79477 -1.70693 0
M  V30 140 H 15.4609 -4.80729 -2.64936 0
M  V30 141 H 15.7219 -3.13455 -3.11766 0
M  V30 142 N 14.781 0.264519 -1.55364 0
M  V30 143 C 15.711 1.33121 -1.91836 0
M  V30 144 C 16.692 1.51101 -0.781192 0
M  V30 145 O 17.877 1.64003 -1.04003 0
M  V30 146 C 15.007 2.68921 -2.19769 0
M  V30 147 C 13.961 2.65661 -3.35571 0
M  V30 148 C 13.287 4.05093 -3.49004 0
M  V30 149 C 14.587 2.24187 -4.71739 0
M  V30 150 H 16.281 1.02844 -2.81182 0
M  V30 151 H 13.827 0.493286 -1.35287 0
M  V30 152 H 15.78 3.43663 -2.43872 0
M  V30 153 H 14.504 3.00799 -1.27231 0
M  V30 154 H 13.163 1.93377 -3.1145 0
M  V30 155 H 12.811 4.34206 -2.53917 0
M  V30 156 H 12.511 4.03804 -4.26868 0
M  V30 157 H 14.035 4.81561 -3.75408 0
M  V30 158 H 15.449 2.88654 -4.9533 0
M  V30 159 H 13.846 2.34044 -5.52579 0
M  V30 160 H 14.916 1.19327 -4.69988 0
M  V30 161 N 16.2591 1.48442 0.529413 0
M  V30 162 C 17.1891 1.65902 1.64313 0
M  V30 163 C 18.1701 0.507897 1.6234 0
M  V30 164 O 19.3551 0.740503 1.79528 0
M  V30 165 C 16.4851 1.69911 3.02898 0
M  V30 166 C 15.4391 2.8453 3.19729 0
M  V30 167 C 14.7651 2.73629 4.59381 0
M  V30 168 C 16.0651 4.25821 3.02447 0
M  V30 169 H 17.7591 2.5914 1.49955 0
M  V30 170 H 15.3051 1.24709 0.719982 0
M  V30 171 H 17.2581 1.80715 3.80684 0
M  V30 172 H 15.9821 0.732524 3.18279 0
M  V30 173 H 14.6411 2.73283 2.44361 0
M  V30 174 H 14.2891 1.74938 4.71599 0
M  V30 175 H 13.9891 3.50541 4.71588 0
M  V30 176 H 15.5131 2.86401 5.39265 0
M  V30 177 H 16.9271 4.37898 3.70024 0
M  V30 178 H 15.3241 5.03735 3.26146 0
M  V30 179 H 16.3941 4.42244 1.98867 0
M  V30 180 N 17.7372 -0.778329 1.37039 0
M  V30 181 C 18.9772 -1.54973 1.33276 0
M  V30 182 C 19.3412 -1.91816 -0.0839376 0
M  V30 183 O 20.5422 -2.6767 -0.246228 0
M  V30 184 C 18.8132 -2.78517 2.23971 0
M  V30 185 S 20.3722 -3.6865 2.37997 0
M  V30 186 H 17.1902 -0.530639 0.473226 0
M  V30 187 H 19.7922 -0.915806 1.72723 0
M  V30 188 H 18.4962 -2.4952 3.25835 0
M  V30 189 H 18.0272 -3.46875 1.85584 0
M  V30 190 H 20.0422 -4.70182 1.58567 0
M  V30 191 N 19.2153 -1.21501 -1.00376 0
M  V30 192 C 20.4433 -1.059 -1.77744 0
M  V30 193 C 20.8583 0.391125 -1.84704 0
M  V30 194 O 20.2153 1.27133 -1.30933 0
M  V30 195 C 20.2663 -1.65111 -3.21591 0
M  V30 196 O 19.9873 -3.0445 -3.15027 0
M  V30 197 C 21.4883 -1.54637 -4.15454 0
M  V30 198 H 18.7083 -0.371825 -0.558558 0
M  V30 199 H 21.2523 -1.60865 -1.26264 0
M  V30 200 H 19.4073 -1.14235 -3.70175 0
M  V30 201 H 19.8213 -3.3278 -4.0541 0
M  V30 202 H 21.2953 -2.00808 -5.14179 0
M  V30 203 H 21.7723 -0.501022 -4.36333 0
M  V30 204 H 22.3783 -2.04767 -3.72761 0
M  V30 205 N 20.6934 1.19889 -1.02296 0
M  V30 206 C 21.6264 2.21639 -0.543282 0
M  V30 207 C 22.6044 1.57275 0.412698 0
M  V30 208 O 23.7884 1.85568 0.331198 0
M  V30 209 C 20.9154 3.38057 0.208571 0
M  V30 210 C 19.9614 4.20751 -0.697933 0
M  V30 211 S 20.7944 4.89529 -2.17075 0
M  V30 212 C 21.9504 6.09363 -1.42923 0
M  V30 213 H 22.1834 2.61984 -1.40541 0
M  V30 214 H 19.7164 1.30041 -0.832387 0
M  V30 215 H 21.6744 4.05539 0.63624 0
M  V30 216 H 20.3354 2.96159 1.04635 0
M  V30 217 H 19.5284 5.03862 -0.117831 0
M  V30 218 H 19.1304 3.58556 -1.06366 0
M  V30 219 H 21.4224 6.73742 -0.712637 0
M  V30 220 H 22.3654 6.71845 -2.23673 0
M  V30 221 H 22.7734 5.56798 -0.929327 0
M  V30 222 N 22.1715 0.800033 1.35784 0
M  V30 223 C 23.1345 0.211565 2.28221 0
M  V30 224 C 24.1345 -0.59728 1.49296 0
M  V30 225 O 25.3245 -0.416721 1.69142 0
M  V30 226 C 22.4565 -0.705846 3.33513 0
M  V30 227 H 23.6495 1.02677 2.81776 0
M  V30 228 H 21.2025 0.570211 1.45528 0
M  V30 229 H 21.9375 -1.54498 2.85133 0
M  V30 230 H 21.7225 -0.127655 3.91892 0
M  V30 231 H 23.2125 -1.11211 4.02519 0
M  V30 232 N 23.6496 -1.47581 0.552962 0
M  V30 233 C 24.5796 -2.32762 -0.185451 0
M  V30 234 C 25.5606 -1.43527 -0.912905 0
M  V30 235 O 26.7456 -1.72388 -0.894201 0
M  V30 236 C 23.8756 -3.25219 -1.21859 0
M  V30 237 C 22.8296 -4.23661 -0.607864 0
M  V30 238 C 22.1556 -5.05413 -1.74533 0
M  V30 239 C 23.4556 -5.20481 0.435582 0
M  V30 240 H 25.1496 -2.94749 0.525684 0
M  V30 241 H 22.6956 -1.41738 0.254251 0
M  V30 242 H 24.6486 -3.8365 -1.7433 0
M  V30 243 H 23.3726 -2.61279 -1.95961 0
M  V30 244 H 22.0316 -3.66451 -0.104489 0
M  V30 245 H 21.6796 -4.3788 -2.47529 0
M  V30 246 H 21.3796 -5.72059 -1.34249 0
M  V30 247 H 22.9036 -5.66701 -2.27338 0
M  V30 248 H 24.3176 -5.733 -0.00290157 0
M  V30 249 H 22.7146 -5.95305 0.757067 0
M  V30 250 H 23.7846 -4.66217 1.33303 0
M  V30 251 N 25.1277 -0.289203 -1.54924 0
M  V30 252 C 26.3677 0.324536 -2.01807 0
M  V30 253 C 26.7317 1.5199 -1.17316 0
M  V30 254 O 27.9327 2.20422 -1.53843 0
M  V30 255 C 26.2037 0.683578 -3.50802 0
M  V30 256 S 27.7627 1.28185 -4.19659 0
M  V30 257 H 24.5807 0.100236 -0.703899 0
M  V30 258 H 27.1827 -0.414325 -1.91059 0
M  V30 259 H 25.8867 -0.195073 -4.09936 0
M  V30 260 H 25.4177 1.45354 -3.65562 0
M  V30 261 H 27.4327 2.57006 -4.24456 0
M  V30 262 N 26.6058 1.57591 -0.0167156 0
M  V30 263 C 27.5538 2.10604 0.987353 0
M  V30 264 C 28.5478 1.02977 1.34507 0
M  V30 265 O 29.7538 1.21425 1.32875 0
M  V30 266 H 26.1288 0.672695 0.336134 0
M  V30 267 H 28.0998 2.93925 0.514817 0
M  V30 268 C 26.8488 2.6382 2.26483 0
M  V30 269 H 26.1718 3.46278 1.99829 0
M  V30 270 H 27.6118 3.04573 2.94977 0
M  V30 271 C 26.0708 1.55992 2.9861 0
M  V30 272 O 26.6008 0.952521 3.90243 0
M  V30 273 N 24.8068 1.28335 2.60727 0
M  V30 274 H 24.3538 1.77914 1.86291 0
M  V30 275 H 24.3118 0.564115 3.09298 0
M  V30 276 N 28.0839 -0.256276 1.55502 0
M  V30 277 C 29.0159 -1.33981 1.85962 0
M  V30 278 C 30.0289 -1.44743 0.745212 0
M  V30 279 O 31.2179 -1.4626 1.02324 0
M  V30 280 C 28.3179 -2.7194 2.02242 0
M  V30 281 C 27.4909 -2.83562 3.33033 0
M  V30 282 C 26.5499 -4.02304 3.39172 0
M  V30 283 O 25.5759 -3.92273 4.12444 0
M  V30 284 N 26.7779 -5.15045 2.67784 0
M  V30 285 H 29.5429 -1.08191 2.7949 0
M  V30 286 H 27.1039 -0.446388 1.55624 0
M  V30 287 H 29.0959 -3.49697 2.03701 0
M  V30 288 H 27.6659 -2.90479 1.15502 0
M  V30 289 H 26.8859 -1.92555 3.43971 0
M  V30 290 H 28.1739 -2.88271 4.19258 0
M  V30 291 H 27.5719 -5.26085 2.07968 0
M  V30 292 H 26.1289 -5.90972 2.74947 0
M  V30 293 N 29.562 -1.4872 -0.521534 0
M  V30 294 C 30.809 -1.57168 -1.27689 0
M  V30 295 C 31.137 -0.249275 -1.92896 0
M  V30 296 O 30.392 0.761162 -1.80291 0
M  V30 297 C 30.691 -2.66497 -2.38148 0
M  V30 298 C 30.357 -4.08664 -1.90538 0
M  V30 299 C 29.019 -4.47357 -1.77271 0
M  V30 300 C 31.371 -4.97724 -1.54663 0
M  V30 301 C 28.699 -5.72905 -1.26478 0
M  V30 302 C 31.051 -6.2377 -1.05329 0
M  V30 303 C 29.715 -6.61311 -0.906861 0
M  V30 304 H 28.985 -0.575117 -0.467249 0
M  V30 305 H 31.632 -1.82472 -0.581051 0
M  V30 306 H 29.937 -2.35085 -3.13437 0
M  V30 307 H 31.634 -2.70246 -2.96257 0
M  V30 308 H 28.224 -3.78111 -2.01816 0
M  V30 309 H 32.408 -4.68501 -1.63768 0
M  V30 310 H 27.664 -6.00709 -1.13835 0
M  V30 311 H 31.838 -6.9217 -0.76644 0
M  V30 312 H 29.465 -7.5848 -0.511083 0
M  V30 313 N 31.0401 0.771051 -1.3745 0
M  V30 314 C 32.2651 1.56529 -1.36065 0
M  V30 315 C 32.6901 1.88029 0.0515859 0
M  V30 316 O 32.0481 1.49282 1.02882 0
M  V30 317 C 32.0961 2.85187 -2.20683 0
M  V30 318 O 31.2001 3.79593 -1.61193 0
M  V30 319 H 30.5411 0.47411 -0.464883 0
M  V30 320 H 33.0711 0.954269 -1.80983 0
M  V30 321 H 33.0811 3.34283 -2.33921 0
M  V30 322 H 31.7561 2.61588 -3.23334 0
M  V30 323 H 30.3331 3.38239 -1.56999 0
M  V30 324 N 32.5182 1.22032 0.997298 0
M  V30 325 C 33.4812 0.987909 2.06816 0
M  V30 326 C 34.4812 -0.0440084 1.6074 0
M  V30 327 O 35.6712 0.194053 1.73116 0
M  V30 328 C 32.8032 0.49132 3.37341 0
M  V30 329 H 33.9962 1.93803 2.28868 0
M  V30 330 H 31.5492 1.03838 1.16822 0
M  V30 331 H 32.2842 -0.463364 3.20973 0
M  V30 332 H 32.0692 1.23575 3.72118 0
M  V30 333 H 33.5592 0.348824 4.16141 0
M  V30 334 N 33.9963 -1.19345 1.0293 0
M  V30 335 C 35.2213 -1.93538 0.745511 0
M  V30 336 C 35.6463 -1.75007 -0.689511 0
M  V30 337 O 35.0043 -1.05265 -1.47611 0
M  V30 338 C 35.0523 -3.43336 1.10239 0
M  V30 339 O 34.1563 -4.11806 0.221289 0
M  V30 340 H 33.4973 -0.604193 0.275404 0
M  V30 341 H 36.0273 -1.5141 1.37609 0
M  V30 342 H 36.0373 -3.94004 1.05947 0
M  V30 343 H 34.7123 -3.56146 2.14786 0
M  V30 344 H 33.2893 -3.715 0.322842 0
M  V30 345 N 35.4744 -0.807222 -1.35358 0
M  V30 346 C 36.4044 -0.232509 -2.3234 0
M  V30 347 C 37.3854 0.642386 -1.57504 0
M  V30 348 O 38.5704 0.572526 -1.85569 0
M  V30 349 C 35.7004 0.619238 -3.41735 0
M  V30 350 C 34.6544 -0.157215 -4.27711 0
M  V30 351 C 33.9804 0.816273 -5.28433 0
M  V30 352 C 35.2804 -1.35656 -5.04376 0
M  V30 353 H 36.9744 -1.04276 -2.80654 0
M  V30 354 H 34.5204 -0.50288 -1.34934 0
M  V30 355 H 36.4734 1.03137 -4.08584 0
M  V30 356 H 35.1974 1.46239 -2.92031 0
M  V30 357 H 33.8564 -0.550525 -3.62443 0
M  V30 358 H 33.5044 1.65494 -4.74996 0
M  V30 359 H 33.2044 0.301067 -5.86828 0
M  V30 360 H 34.7284 1.22659 -5.98153 0
M  V30 361 H 36.1424 -1.01927 -5.64166 0
M  V30 362 H 34.5394 -1.8063 -5.7227 0
M  V30 363 H 35.6094 -2.14288 -4.34981 0
M  V30 364 N 36.9525 1.47285 -0.560781 0
M  V30 365 C 37.9155 2.28535 0.174488 0
M  V30 366 C 38.9155 1.37153 0.839388 0
M  V30 367 O 40.1055 1.59748 0.694702 0
M  V30 368 C 37.2375 3.16934 1.25561 0
M  V30 369 H 38.4305 2.95012 -0.539262 0
M  V30 370 H 35.9835 1.53034 -0.317865 0
M  V30 371 H 36.7185 2.55157 2.00164 0
M  V30 372 H 36.5035 3.8419 0.783604 0
M  V30 373 H 37.9935 3.78143 1.77193 0
M  V30 374 N 38.4306 0.297415 1.54768 0
M  V30 375 C 39.3936 -0.567375 2.22066 0
M  V30 376 C 40.3936 -1.06409 1.20556 0
M  V30 377 O 41.5836 -0.960691 1.45315 0
M  V30 378 C 38.7156 -1.78517 2.90421 0
M  V30 379 H 39.9086 0.0205534 2.99893 0
M  V30 380 H 37.4616 0.0482163 1.56226 0
M  V30 381 H 38.1966 -2.41303 2.16664 0
M  V30 382 H 37.9816 -1.43669 3.64831 0
M  V30 383 H 39.4716 -2.39964 3.41771 0
M  V30 384 N 39.9087 -1.5758 0.0250728 0
M  V30 385 C 41.1857 -1.82917 -0.692873 0
M  V30 386 C 41.5657 -0.908137 -1.90568 0
M  V30 387 O 40.9137 0.0372298 -2.2847 0
M  V30 388 C 41.1237 -3.32034 -1.07492 0
M  V30 389 C 42.4717 -3.98406 -1.46826 0
M  V30 390 O 43.4957 -3.36505 -1.16801 0
M  V30 391 O 42.3547 -5.07497 -2.02754 0
M  V30 392 H 39.4487 -0.754079 -0.33955 0
M  V30 393 H 41.9947 -1.69619 0.0524456 0
M  V30 394 H 40.7667 -3.90728 -0.211552 0
M  V30 395 H 40.3897 -3.50424 -1.87854 0
M  V30 396 N 41.3868 0.248026 -1.55636 0
M  V30 397 C 42.6148 0.993808 -1.81469 0
M  V30 398 C 43.0298 1.78991 -0.60064 0
M  V30 399 O 42.3868 1.77345 0.430682 0
M  V30 400 C 42.4378 1.93258 -3.05506 0
M  V30 401 O 42.1588 1.16869 -4.22224 0
M  V30 402 C 43.6598 2.79444 -3.4413 0
M  V30 403 H 40.8798 0.292486 -0.603898 0
M  V30 404 H 43.4238 0.271253 -2.02693 0
M  V30 405 H 41.5788 2.60943 -2.86335 0
M  V30 406 H 41.9928 1.80359 -4.92515 0
M  V30 407 H 43.4668 3.41066 -4.34026 0
M  V30 408 H 43.9438 3.50499 -2.64665 0
M  V30 409 H 44.5498 2.17214 -3.65648 0
M  V30 410 N 42.8649 1.48995 0.513639 0
M  V30 411 C 44.2759 1.5119 1.09537 0
M  V30 412 C 44.6269 0.290906 1.94031 0
M  V30 413 O 43.7519 -0.60049 2.07902 0
M  V30 414 C 44.3469 2.73964 1.99322 0
M  V30 415 C 42.9059 2.78978 2.52682 0
M  V30 416 C 42.0529 2.44934 1.30009 0
M  V30 417 H 45.0039 1.55875 0.298125 0
M  V30 418 H 45.0249 2.53409 2.83838 0
M  V30 419 H 44.5369 3.62813 1.37799 0
M  V30 420 H 42.6379 1.94378 3.1788 0
M  V30 421 H 42.7509 3.8083 2.90698 0
M  V30 422 H 41.1149 1.9644 1.62122 0
M  V30 423 H 41.8979 3.36043 0.702131 0
M  V30 424 N 44.343 -0.763751 1.37857 0
M  V30 425 C 45.571 -1.55293 1.36718 0
M  V30 426 C 45.986 -1.88745 -0.0455434 0
M  V30 427 O 45.343 -1.52039 -1.00947 0
M  V30 428 C 45.394 -2.85831 2.2132 0
M  V30 429 O 45.115 -2.5381 3.57089 0
M  V30 430 C 46.616 -3.80023 2.28249 0
M  V30 431 H 43.836 -0.480841 0.468009 0
M  V30 432 H 46.38 -0.946009 1.81303 0
M  V30 433 H 44.535 -3.42926 1.80223 0
M  V30 434 H 44.949 -3.37459 4.01524 0
M  V30 435 H 46.423 -4.68599 2.91752 0
M  V30 436 H 46.9 -4.1973 1.2932 0
M  V30 437 H 47.506 -3.28855 2.69693 0
M  V30 438 N 45.8211 -1.22559 -0.990812 0
M  V30 439 C 46.7841 -0.998863 -2.0629 0
M  V30 440 C 47.7841 0.0354834 -1.60761 0
M  V30 441 O 48.9741 -0.203231 -1.7301 0
M  V30 442 C 46.1061 -0.509203 -3.37076 0
M  V30 443 H 47.2991 -1.95014 -2.27837 0
M  V30 444 H 44.8521 -1.04456 -1.16269 0
M  V30 445 H 45.5871 0.446335 -3.21214 0
M  V30 446 H 45.3721 -1.25547 -3.71457 0
M  V30 447 H 46.8621 -0.370888 -4.1595 0
M  V30 448 N 47.2992 1.18797 -1.03562 0
M  V30 449 C 48.5392 1.90346 -0.744832 0
M  V30 450 C 48.9032 1.78231 0.713972 0
M  V30 451 O 50.1042 2.44441 1.11813 0
M  V30 452 C 48.3752 3.36942 -1.19184 0
M  V30 453 S 49.9342 4.26638 -1.02593 0
M  V30 454 H 46.7522 0.657343 -0.270963 0
M  V30 455 H 49.3542 1.43579 -1.32685 0
M  V30 456 H 48.0582 3.43287 -2.24905 0
M  V30 457 H 47.5892 3.88745 -0.603397 0
M  V30 458 H 49.6042 4.96164 0.0596033 0
M  V30 459 N 48.7773 0.814389 1.34928 0
M  V30 460 C 50.0173 0.404165 2.00364 0
M  V30 461 C 50.3813 -1.01166 1.63185 0
M  V30 462 O 51.5823 -1.52431 2.21401 0
M  V30 463 C 49.8533 0.590718 3.52484 0
M  V30 464 S 51.4123 0.272075 4.37956 0
M  V30 465 H 48.2303 0.15311 0.694319 0
M  V30 466 H 50.8323 1.05834 1.64376 0
M  V30 467 H 49.5363 1.62099 3.77031 0
M  V30 468 H 49.0673 -0.0785013 3.93322 0
M  V30 469 H 51.0823 -0.917405 4.87645 0
M  V30 470 N 50.2554 -1.46986 0.568584 0
M  V30 471 C 51.5024 -2.02441 0.0487986 0
M  V30 472 C 51.8304 -1.44169 -1.30559 0
M  V30 473 O 51.0854 -0.591213 -1.86556 0
M  V30 474 C 51.3844 -3.57306 -0.081836 0
M  V30 475 C 51.0504 -4.34552 1.20313 0
M  V30 476 C 49.7124 -4.55376 1.5552 0
M  V30 477 C 52.0644 -4.79016 2.05411 0
M  V30 478 C 49.3924 -5.17913 2.7565 0
M  V30 479 C 51.7444 -5.42879 3.24754 0
M  V30 480 C 50.4084 -5.61933 3.60261 0
M  V30 481 H 49.6784 -0.740785 0.0178567 0
M  V30 482 H 52.3254 -1.76525 0.742384 0
M  V30 483 H 50.6304 -3.8228 -0.858463 0
M  V30 484 H 52.3274 -3.97876 -0.499546 0
M  V30 485 H 48.9174 -4.18631 0.919014 0
M  V30 486 H 53.1014 -4.62696 1.79516 0
M  V30 487 H 48.3574 -5.30858 3.03315 0
M  V30 488 H 52.5314 -5.76293 3.90973 0
M  V30 489 H 50.1584 -6.10161 4.53439 0
M  V30 490 N 51.7335 -0.305618 -1.54608 0
M  V30 491 C 52.9585 0.307562 -2.05107 0
M  V30 492 C 53.3835 1.46385 -1.18123 0
M  V30 493 O 52.7415 1.8034 -0.186324 0
M  V30 494 C 52.7895 0.73704 -3.52987 0
M  V30 495 O 51.8935 1.84134 -3.6901 0
M  V30 496 H 51.2345 0.0589143 -0.661381 0
M  V30 497 H 53.7645 -0.448807 -1.99617 0
M  V30 498 H 53.7745 1.02459 -3.94925 0
M  V30 499 H 52.4495 -0.108773 -4.15758 0
M  V30 500 H 51.0265 1.55398 -3.38978 0
M  V30 501 N 53.2116 1.57565 -0.0334293 0
M  V30 502 C 54.4416 1.95996 0.653398 0
M  V30 503 C 54.8496 0.908749 1.65947 0
M  V30 504 O 54.1926 -0.117471 1.83324 0
M  V30 505 C 54.2546 3.30589 1.41249 0
M  V30 506 C 53.9186 4.53503 0.564263 0
M  V30 507 C 54.9156 5.19647 -0.16225 0
M  V30 508 C 52.6006 4.99801 0.500398 0
M  V30 509 C 54.5946 6.30412 -0.941255 0
M  V30 510 C 52.2816 6.10448 -0.282308 0
M  V30 511 C 53.2796 6.75612 -1.00184 0
M  V30 512 O 52.9676 7.84134 -1.77171 0
M  V30 513 H 52.6996 0.65027 0.184728 0
M  V30 514 H 55.2536 2.05199 -0.0907841 0
M  V30 515 H 53.4836 3.17888 2.20191 0
M  V30 516 H 55.1726 3.53892 1.98784 0
M  V30 517 H 55.9386 4.84846 -0.12227 0
M  V30 518 H 51.8176 4.48883 1.05002 0
M  V30 519 H 55.3616 6.81208 -1.50339 0
M  V30 520 H 51.2586 6.44686 -0.323989 0
M  V30 521 H 52.0266 8.00822 -1.69194 0
M  V30 522 N 54.6897 -0.239769 1.55765 0
M  V30 523 C 55.9177 -0.98417 1.81994 0
M  V30 524 C 56.3327 -1.7867 0.610124 0
M  V30 525 O 55.6897 -1.77571 -0.421271 0
M  V30 526 C 55.7407 -1.91635 3.06526 0
M  V30 527 O 55.4617 -1.14629 4.22838 0
M  V30 528 C 56.9627 -2.77616 3.45607 0
M  V30 529 H 54.1827 -0.28928 0.605441 0
M  V30 530 H 56.7267 -0.260499 2.02834 0
M  V30 531 H 54.8817 -2.5942 2.87715 0
M  V30 532 H 55.2957 -1.77745 4.93464 0
M  V30 533 H 56.7697 -3.38759 4.35828 0
M  V30 534 H 57.2467 -3.4909 2.6652 0
M  V30 535 H 57.8527 -2.15271 3.66795 0
M  V30 536 N 56.1678 -1.49265 -0.50573 0
M  V30 537 C 57.3928 -1.62478 -1.28902 0
M  V30 538 C 57.8178 -0.294332 -1.85783 0
M  V30 539 O 57.1758 0.737412 -1.65626 0
M  V30 540 C 57.2238 -2.69268 -2.39848 0
M  V30 541 O 56.3278 -2.28113 -3.43567 0
M  V30 542 H 55.6688 -0.54399 -0.380751 0
M  V30 543 H 58.1988 -1.95421 -0.605952 0
M  V30 544 H 58.2088 -2.91291 -2.85681 0
M  V30 545 H 56.8838 -3.65846 -1.97812 0
M  V30 546 H 55.4608 -2.16401 -3.03685 0
M  V30 547 N 57.6459 0.756429 -1.3826 0
M  V30 548 C 59.0619 1.0591 -1.19395 0
M  V30 549 C 59.2619 2.01459 -0.0406567 0
M  V30 550 O 58.3179 2.44909 0.614467 0
M  V30 551 C 59.6309 1.64191 -2.51916 0
M  V30 552 C 61.1789 1.76376 -2.58574 0
M  V30 553 C 61.6539 2.38069 -3.91264 0
M  V30 554 N 63.1449 2.45503 -3.92788 0
M  V30 555 C 63.8799 2.94126 -4.92217 0
M  V30 556 N 63.3759 3.42805 -6.02043 0
M  V30 557 N 65.1689 2.9314 -4.7961 0
M  V30 558 H 57.3199 0.122313 -2.12048 0
M  V30 559 H 59.5829 0.116892 -0.940766 0
M  V30 560 H 59.2889 1.01451 -3.3675 0
M  V30 561 H 59.1629 2.6329 -2.70108 0
M  V30 562 H 61.5499 2.38244 -1.74137 0
M  V30 563 H 61.6309 0.759894 -2.44252 0
M  V30 564 H 61.2749 1.76835 -4.76121 0
M  V30 565 H 61.2049 3.39091 -4.02895 0
M  V30 566 H 63.6959 2.1107 -3.13461 0
M  V30 567 H 64.0089 3.78354 -6.73846 0
M  V30 568 H 62.3539 3.4087 -6.05667 0
M  V30 569 H 65.5449 2.54419 -3.92923 0
M  V30 570 H 65.7179 3.30721 -5.5725 0
M  V30 571 N 59.124 1.23083 0.984299 0
M  V30 572 C 60.056 0.96636 2.07832 0
M  V30 573 C 61.069 -0.0582135 1.62696 0
M  V30 574 O 62.258 0.176843 1.77622 0
M  V30 575 C 59.358 0.433397 3.36117 0
M  V30 576 C 58.531 1.51722 4.10243 0
M  V30 577 C 57.59 0.989821 5.16807 0
M  V30 578 O 56.616 1.67794 5.43906 0
M  V30 579 N 57.818 -0.184367 5.80207 0
M  V30 580 H 60.583 1.90824 2.31098 0
M  V30 581 H 58.144 1.13888 1.1507 0
M  V30 582 H 60.136 0.065699 4.04647 0
M  V30 583 H 58.706 -0.413806 3.09849 0
M  V30 584 H 57.926 2.05786 3.36223 0
M  V30 585 H 59.214 2.24619 4.56534 0
M  V30 586 H 58.612 -0.760062 5.60571 0
M  V30 587 H 57.169 -0.493366 6.4993 0
M  V30 588 N 60.6021 -1.18246 1.0419 0
M  V30 589 C 61.8511 -1.87588 0.741194 0
M  V30 590 C 62.1641 -1.81303 -0.734066 0
M  V30 591 O 63.3701 -2.46019 -1.14834 0
M  V30 592 C 61.8261 -3.36538 1.27555 0
M  V30 593 C 61.4341 -3.51349 2.77953 0
M  V30 594 C 63.1781 -4.11273 1.05143 0
M  V30 595 C 61.0851 -4.94265 3.2474 0
M  V30 596 H 60.0151 -0.702622 0.273565 0
M  V30 597 H 62.6661 -1.33601 1.25789 0
M  V30 598 H 61.0481 -3.9 0.686703 0
M  V30 599 H 62.2221 -3.08153 3.42605 0
M  V30 600 H 60.5371 -2.90022 2.98791 0
M  V30 601 H 63.1341 -5.16689 1.37611 0
M  V30 602 H 63.4771 -4.16298 -0.0112774 0
M  V30 603 H 64.0101 -3.63987 1.60495 0
M  V30 604 H 60.7491 -4.94408 4.30396 0
M  V30 605 H 60.2691 -5.38172 2.64823 0
M  V30 606 H 61.9481 -5.62987 3.18834 0
M  V30 607 N 62.0802 -0.821533 -1.34494 0
M  V30 608 C 63.4912 -0.467956 -1.8074 0
M  V30 609 C 63.8422 1.01151 -1.68116 0
M  V30 610 O 62.9672 1.78707 -1.22036 0
M  V30 611 C 63.5622 -0.842627 -3.28154 0
M  V30 612 C 62.1212 -0.541439 -3.72485 0
M  V30 613 C 61.2682 -1.06028 -2.56229 0
M  V30 614 H 64.2192 -1.01183 -1.22261 0
M  V30 615 H 64.2402 -0.145876 -3.8022 0
M  V30 616 H 63.7522 -1.91945 -3.37311 0
M  V30 617 H 61.8532 0.526034 -3.68868 0
M  V30 618 H 61.9662 -1.08453 -4.66663 0
M  V30 619 H 60.3302 -0.481892 -2.501 0
M  V30 620 H 61.1132 -2.14352 -2.68157 0
M  V30 621 N 63.5583 1.46682 -0.576371 0
M  V30 622 C 64.4903 2.28341 0.198231 0
M  V30 623 C 65.5033 1.38141 0.861453 0
M  V30 624 O 66.6923 1.62797 0.732082 0
M  V30 625 C 63.7923 3.12986 1.29972 0
M  V30 626 C 62.9653 4.31271 0.729639 0
M  V30 627 C 62.0243 4.97363 1.71803 0
M  V30 628 O 61.0503 5.55156 1.25658 0
M  V30 629 N 62.2523 4.93796 3.05198 0
M  V30 630 H 65.0173 2.9546 -0.502324 0
M  V30 631 H 62.5783 1.56525 -0.413715 0
M  V30 632 H 64.5703 3.54066 1.96008 0
M  V30 633 H 63.1403 2.47984 1.90323 0
M  V30 634 H 62.3603 3.94052 -0.108012 0
M  V30 635 H 63.6483 5.07739 0.328438 0
M  V30 636 H 63.0463 4.48077 3.45317 0
M  V30 637 H 61.6033 5.38837 3.6674 0
M  V30 638 N 65.0364 0.313813 1.54444 0
M  V30 639 C 65.9844 -0.572171 2.25453 0
M  V30 640 C 66.9784 -1.12657 1.2651 0
M  V30 641 O 68.1844 -1.07573 1.44319 0
M  V30 642 H 64.5594 -0.203146 0.724041 0
M  V30 643 H 66.5304 0.0491145 2.9836 0
M  V30 644 C 65.2794 -1.72626 3.0182 0
M  V30 645 H 64.6024 -1.30891 3.77767 0
M  V30 646 H 66.0424 -2.32199 3.54767 0
M  V30 647 C 64.5014 -2.63806 2.09542 0
M  V30 648 O 65.0314 -3.65256 1.67185 0
M  V30 649 N 63.2374 -2.31824 1.75232 0
M  V30 650 H 62.7844 -1.49368 2.09873 0
M  V30 651 H 62.7424 -2.93095 1.13767 0
M  V30 652 N 66.5145 -1.57545 0.0417849 0
M  V30 653 C 67.7615 -1.92317 -0.634082 0
M  V30 654 C 68.0895 -0.919334 -1.71402 0
M  V30 655 O 67.3445 0.0698253 -1.95575 0
M  V30 656 C 67.6435 -3.33794 -1.27735 0
M  V30 657 C 67.3095 -4.49716 -0.326543 0
M  V30 658 C 65.9715 -4.81156 -0.0648814 0
M  V30 659 C 68.3235 -5.20182 0.325623 0
M  V30 660 C 65.6515 -5.80414 0.856539 0
M  V30 661 C 68.0035 -6.20424 1.23518 0
M  V30 662 C 66.6675 -6.50298 1.5056 0
M  V30 663 H 65.9375 -0.703736 -0.232027 0
M  V30 664 H 68.5845 -1.91205 0.106259 0
M  V30 665 H 66.8895 -3.31228 -2.09274 0
M  V30 666 H 68.5865 -3.57975 -1.80707 0
M  V30 667 H 65.1765 -4.25176 -0.540665 0
M  V30 668 H 69.3605 -4.96112 0.136546 0
M  V30 669 H 64.6165 -6.019 1.07363 0
M  V30 670 H 68.7905 -6.74141 1.74664 0
M  V30 671 H 66.4175 -7.27025 2.22123 0
M  V30 672 N 67.9926 0.231505 -1.5589 0
M  V30 673 C 69.2416 0.955346 -1.7764 0
M  V30 674 C 69.5546 1.85893 -0.608546 0
M  V30 675 O 70.7606 2.62067 -0.70943 0
M  V30 676 C 69.2166 1.74886 -3.14552 0
M  V30 677 C 68.8246 0.891915 -4.39032 0
M  V30 678 C 70.5686 2.46452 -3.45633 0
M  V30 679 C 68.4756 1.68221 -5.66971 0
M  V30 680 H 67.4056 0.360446 -0.662265 0
M  V30 681 H 70.0566 0.209516 -1.823 0
M  V30 682 H 68.4386 2.53723 -3.04041 0
M  V30 683 H 69.6126 0.144793 -4.60572 0
M  V30 684 H 67.9276 0.288863 -4.15397 0
M  V30 685 H 70.5246 3.06061 -4.38441 0
M  V30 686 H 70.8676 3.18841 -2.67668 0
M  V30 687 H 71.4006 1.74613 -3.57428 0
M  V30 688 H 68.1396 1.00178 -6.478 0
M  V30 689 H 67.6596 2.4042 -5.49507 0
M  V30 690 H 69.3386 2.24544 -6.06786 0
M  V30 691 N 69.4707 1.49531 0.497807 0
M  V30 692 C 70.4337 1.65916 1.58128 0
M  V30 693 C 71.4337 0.530825 1.51786 0
M  V30 694 O 72.6237 0.797342 1.54881 0
M  V30 695 C 69.7557 1.65951 2.9778 0
M  V30 696 H 70.9487 2.62556 1.44929 0
M  V30 697 H 68.5017 1.38611 0.722275 0
M  V30 698 H 69.2367 0.709065 3.16453 0
M  V30 699 H 69.0217 2.47897 3.03792 0
M  V30 700 H 70.5117 1.80673 3.76493 0
M  V30 701 N 70.9488 -0.749086 1.3866 0
M  V30 702 C 72.2258 -1.4992 1.25632 0
M  V30 703 C 72.6058 -2.10633 -0.140317 0
M  V30 704 O 71.9538 -1.97437 -1.15025 0
M  V30 705 C 72.1638 -2.56195 2.36992 0
M  V30 706 C 73.5118 -3.22972 2.75634 0
M  V30 707 O 74.5358 -2.66502 2.36337 0
M  V30 708 O 73.3948 -4.25122 3.43415 0
M  V30 709 H 70.4888 -0.665067 0.491544 0
M  V30 710 H 73.0348 -0.784113 1.50498 0
M  V30 711 H 71.8068 -2.09612 3.30422 0
M  V30 712 H 71.4298 -3.35279 2.13714 0
M  V30 713 N 72.4269 -1.23603 -0.977757 0
M  V30 714 C 73.6569 -1.09487 -1.75203 0
M  V30 715 C 74.0649 0.356321 -1.85814 0
M  V30 716 O 73.4079 1.25816 -1.33851 0
M  V30 717 C 73.4699 -1.64905 -3.19447 0
M  V30 718 C 73.1339 -3.13688 -3.32338 0
M  V30 719 C 74.1309 -4.10953 -3.18455 0
M  V30 720 C 71.8159 -3.53449 -3.56902 0
M  V30 721 C 73.8099 -5.45962 -3.28944 0
M  V30 722 C 71.4969 -4.88602 -3.6703 0
M  V30 723 C 72.4949 -5.84668 -3.53062 0
M  V30 724 O 72.1829 -7.17365 -3.62826 0
M  V30 725 H 71.9149 -0.38367 -0.556573 0
M  V30 726 H 74.4689 -1.6398 -1.23693 0
M  V30 727 H 72.6989 -1.04835 -3.72218 0
M  V30 728 H 74.3879 -1.46226 -3.78646 0
M  V30 729 H 75.1539 -3.81577 -2.99372 0
M  V30 730 H 71.0329 -2.79188 -3.66844 0
M  V30 731 H 74.5769 -6.20925 -3.17958 0
M  V30 732 H 70.4739 -5.17653 -3.85623 0
M  V30 733 H 71.2419 -7.2515 -3.79605 0
M  V30 734 N 73.905 1.17692 -1.04816 0
M  V30 735 C 75.152 1.87859 -0.75599 0
M  V30 736 C 75.48 1.80812 0.716752 0
M  V30 737 O 74.735 1.20819 1.53952 0
M  V30 738 C 75.034 3.37462 -1.17703 0
M  V30 739 C 74.7 3.64713 -2.65133 0
M  V30 740 C 73.362 3.71859 -3.05408 0
M  V30 741 C 75.714 3.76492 -3.60421 0
M  V30 742 C 73.042 3.88271 -4.39843 0
M  V30 743 C 75.394 3.94421 -4.94585 0
M  V30 744 C 74.058 3.99806 -5.3452 0
M  V30 745 H 73.328 0.687425 -0.276636 0
M  V30 746 H 75.975 1.39255 -1.31455 0
M  V30 747 H 74.28 3.88097 -0.537395 0
M  V30 748 H 75.977 3.90109 -0.928218 0
M  V30 749 H 72.567 3.59772 -2.32942 0
M  V30 750 H 76.751 3.70295 -3.30447 0
M  V30 751 H 72.007 3.90687 -4.70291 0
M  V30 752 H 76.181 4.02477 -5.68318 0
M  V30 753 H 73.808 4.12276 -6.38696 0
M  V30 754 N 75.3831 0.828654 1.34056 0
M  V30 755 C 76.2931 0.256725 2.33191 0
M  V30 756 C 77.3091 -0.611898 1.62886 0
M  V30 757 O 78.4851 -0.51844 1.94613 0
M  V30 758 C 75.5501 -0.567238 3.42028 0
M  V30 759 C 74.6111 0.324458 4.28072 0
M  V30 760 C 73.8441 -0.460274 5.31712 0
M  V30 761 O 74.0671 -1.693 5.44696 0
M  V30 762 O 73.0011 0.160391 6.01686 0
M  V30 763 H 76.8271 1.07739 2.83947 0
M  V30 764 H 74.4121 0.59093 1.37217 0
M  V30 765 H 76.2941 -1.03582 4.08471 0
M  V30 766 H 74.9691 -1.36513 2.93506 0
M  V30 767 H 73.8761 0.840659 3.64532 0
M  V30 768 H 75.2091 1.08685 4.8005 0
M  V30 769 N 76.8612 -1.46375 0.584142 0
M  V30 770 C 78.0892 -2.06761 0.0759296 0
M  V30 771 C 78.5042 -1.43266 -1.22965 0
M  V30 772 O 77.8612 -0.538458 -1.74376 0
M  V30 773 C 77.9122 -3.61375 -0.0950384 0
M  V30 774 O 77.6332 -4.22495 1.15887 0
M  V30 775 C 79.1342 -4.38693 -0.637434 0
M  V30 776 H 76.3542 -0.668479 0.0581075 0
M  V30 777 H 78.8982 -1.8798 0.805218 0
M  V30 778 H 77.0532 -3.79578 -0.774554 0
M  V30 779 H 77.4672 -5.15385 0.973598 0
M  V30 780 H 78.9412 -5.47464 -0.706237 0
M  V30 781 H 79.4182 -4.06836 -1.65472 0
M  V30 782 H 80.0242 -4.25299 0.00725967 0
M  V30 783 N 78.3393 -0.321999 -1.54275 0
M  V30 784 C 79.5643 0.285791 -2.05422 0
M  V30 785 C 79.9893 1.45124 -1.19669 0
M  V30 786 O 79.3473 1.80132 -0.205441 0
M  V30 787 C 79.3953 0.69956 -3.53749 0
M  V30 788 O 78.4993 1.8021 -3.70942 0
M  V30 789 H 77.8403 0.0518962 -0.661969 0
M  V30 790 H 80.3703 -0.469954 -1.9913 0
M  V30 791 H 80.3803 0.982649 -3.9599 0
M  V30 792 H 79.0553 -0.152864 -4.15619 0
M  V30 793 H 77.6323 1.51794 -3.40607 0
M  V30 794 N 79.8174 1.5752 -0.0501392 0
M  V30 795 C 81.0424 1.97376 0.636997 0
M  V30 796 C 81.4674 0.927466 1.63645 0
M  V30 797 O 80.8254 -0.10941 1.8097 0
M  V30 798 C 80.8734 3.36304 1.30123 0
M  V30 799 O 79.9774 3.34156 2.41689 0
M  V30 800 H 79.3184 0.642998 0.165679 0
M  V30 801 H 81.8484 2.04258 -0.118233 0
M  V30 802 H 81.8584 3.73008 1.65315 0
M  V30 803 H 80.5334 4.11993 0.568746 0
M  V30 804 H 79.1104 3.09196 2.08451 0
M  V30 805 N 81.2955 -0.223234 1.56011 0
M  V30 806 C 82.2275 -1.30006 1.88762 0
M  V30 807 C 83.2405 -1.43129 0.775746 0
M  V30 808 O 84.4295 -1.44057 1.05403 0
M  V30 809 C 81.5295 -2.67589 2.07965 0
M  V30 810 C 80.7025 -2.76434 3.38973 0
M  V30 811 C 79.7615 -3.95019 3.47629 0
M  V30 812 O 78.7875 -3.83436 4.20672 0
M  V30 813 N 79.9895 -5.09249 2.78649 0
M  V30 814 H 82.7545 -1.02238 2.81722 0
M  V30 815 H 80.3155 -0.413278 1.56536 0
M  V30 816 H 82.3075 -3.45297 2.11073 0
M  V30 817 H 80.8775 -2.87964 1.21638 0
M  V30 818 H 80.0975 -1.85216 3.47978 0
M  V30 819 H 81.3855 -2.79313 4.25278 0
M  V30 820 H 80.7835 -5.21556 2.19081 0
M  V30 821 H 79.3405 -5.85007 2.8742 0
M  V30 822 N 82.7736 -1.49793 -0.48987 0
M  V30 823 C 84.0136 -1.61466 -1.25332 0
M  V30 824 C 84.3776 -0.299688 -1.89647 0
M  V30 825 O 85.5786 -0.291687 -2.67213 0
M  V30 826 C 83.8496 -2.74944 -2.28343 0
M  V30 827 S 85.4086 -3.06637 -3.13878 0
M  V30 828 H 82.2266 -0.569411 -0.425784 0
M  V30 829 H 84.8286 -1.875 -0.553541 0
M  V30 830 H 83.5326 -3.68994 -1.79643 0
M  V30 831 H 83.0636 -2.50938 -3.02975 0
M  V30 832 H 85.0786 -2.49015 -4.29192 0
M  V30 833 N 84.2517 0.741722 -1.39055 0
M  V30 834 C 85.4767 1.53607 -1.39354 0
M  V30 835 C 85.9017 1.88096 0.0116905 0
M  V30 836 O 85.2597 1.5143 0.996924 0
M  V30 837 C 85.3077 2.80441 -2.26682 0
M  V30 838 O 84.4117 3.76088 -1.69208 0
M  V30 839 H 83.7527 0.464142 -0.474835 0
M  V30 840 H 86.2827 0.915665 -1.82967 0
M  V30 841 H 86.2927 3.29246 -2.40959 0
M  V30 842 H 84.9677 2.5467 -3.2881 0
M  V30 843 H 83.5447 3.34833 -1.64138 0
M  V30 844 N 85.7298 1.2412 0.971189 0
M  V30 845 C 86.6768 1.0305 2.06517 0
M  V30 846 C 87.6468 -0.0550666 1.66009 0
M  V30 847 O 88.8318 0.0988688 1.90544 0
M  V30 848 C 85.9718 0.637653 3.39158 0
M  V30 849 C 85.0848 1.79633 3.92882 0
M  V30 850 C 84.2198 1.34939 5.13775 0
M  V30 851 C 83.2588 2.47823 5.59687 0
M  V30 852 N 82.3958 2.04022 6.71803 0
M  V30 853 H 87.2358 1.96685 2.23873 0
M  V30 854 H 84.7728 0.979694 1.09729 0
M  V30 855 H 86.7308 0.390931 4.15364 0
M  V30 856 H 85.3608 -0.261693 3.21737 0
M  V30 857 H 84.4128 2.15681 3.13346 0
M  V30 858 H 85.7248 2.64466 4.22918 0
M  V30 859 H 84.8788 1.06134 5.97345 0
M  V30 860 H 83.6178 0.471557 4.85415 0
M  V30 861 H 82.6228 2.77392 4.74693 0
M  V30 862 H 83.8478 3.36158 5.90063 0
M  V30 863 H 81.7938 1.18632 6.45184 0
M  V30 864 H 81.7108 2.82409 7.01271 0
M  V30 865 H 82.9788 1.78347 7.58823 0
M  V30 866 N 87.2079 -1.17134 1.05439 0
M  V30 867 C 88.6189 -1.69084 0.791676 0
M  V30 868 C 88.9699 -1.83822 -0.685839 0
M  V30 869 O 88.0949 -1.52757 -1.53278 0
M  V30 870 C 88.6899 -3.07119 1.4305 0
M  V30 871 C 87.2489 -3.56225 1.21577 0
M  V30 872 C 86.3959 -2.32421 1.51247 0
M  V30 873 H 89.3469 -1.01617 1.219 0
M  V30 874 H 89.3679 -3.71087 0.84112 0
M  V30 875 H 88.8799 -2.9636 2.50584 0
M  V30 876 H 86.9809 -3.72257 0.159787 0
M  V30 877 H 87.0939 -4.38837 1.92246 0
M  V30 878 H 85.4579 -2.3701 0.932653 0
M  V30 879 H 86.2409 -2.24268 2.5992 0
M  V30 880 N 88.686 -0.835752 -1.33615 0
M  V30 881 C 89.934 -0.429109 -1.97492 0
M  V30 882 C 90.255 1.01433 -1.66543 0
M  V30 883 O 89.525 1.70611 -0.962744 0
M  V30 884 H 88.105 -0.155686 -0.730596 0
M  V30 885 H 90.767 -1.06802 -1.63031 0
M  V30 886 H 89.863 -0.55861 -3.0706 0
M  V30 887 N 90.1641 1.46063 -0.591896 0
M  V30 888 C 91.4101 2.02638 -0.0811191 0
M  V30 889 C 91.7431 1.4613 1.27905 0
M  V30 890 O 91.0181 0.629908 1.84017 0
M  V30 891 C 91.3011 3.60091 -0.0252436 0
M  V30 892 C 91.1541 4.26965 -1.41496 0
M  V30 893 C 92.4731 4.3496 0.670685 0
M  V30 894 H 89.5921 0.73635 -0.0309524 0
M  V30 895 H 92.2341 1.741 -0.760859 0
M  V30 896 H 90.3841 3.84535 0.553624 0
M  V30 897 H 92.0561 4.13756 -2.0397 0
M  V30 898 H 90.2991 3.85971 -1.98011 0
M  V30 899 H 90.9701 5.35781 -1.32825 0
M  V30 900 H 93.4461 4.15716 0.178825 0
M  V30 901 H 92.3221 5.44686 0.678837 0
M  V30 902 H 92.5831 4.06685 1.73379 0
M  V30 903 N 91.6422 0.330177 1.54103 0
M  V30 904 C 92.8912 -0.271336 1.99867 0
M  V30 905 C 93.2042 -1.52723 1.22209 0
M  V30 906 O 94.4102 -2.20515 1.58383 0
M  V30 907 C 92.8662 -0.534032 3.55916 0
M  V30 908 C 92.4742 0.705193 4.42415 0
M  V30 909 C 94.2182 -1.09514 4.1013 0
M  V30 910 C 92.1252 0.414035 5.89949 0
M  V30 911 H 91.0552 -0.105166 0.74663 0
M  V30 912 H 93.7062 0.443429 1.78062 0
M  V30 913 H 92.0882 -1.30915 3.73734 0
M  V30 914 H 93.2622 1.4804 4.36372 0
M  V30 915 H 91.5772 1.18698 3.99124 0
M  V30 916 H 94.1742 -1.3277 5.17954 0
M  V30 917 H 94.5172 -2.04656 3.62521 0
M  V30 918 H 95.0502 -0.381038 3.95971 0
M  V30 919 H 91.7892 1.33481 6.41766 0
M  V30 920 H 91.3092 -0.323336 5.98928 0
M  V30 921 H 92.9882 0.0263105 6.46995 0
M  V30 922 N 93.1203 -1.57491 0.0584922 0
M  V30 923 C 94.3673 -1.92978 -0.613648 0
M  V30 924 C 94.6953 -0.937461 -1.70417 0
M  V30 925 O 93.9503 0.049078 -1.95638 0
M  V30 926 C 94.2493 -3.3513 -1.24188 0
M  V30 927 C 93.9153 -4.50037 -0.278826 0
M  V30 928 C 92.5773 -4.81198 -0.0138447 0
M  V30 929 C 94.9293 -5.19807 0.380777 0
M  V30 930 C 92.2573 -5.79473 0.918052 0
M  V30 931 C 94.6093 -6.19079 1.30091 0
M  V30 932 C 93.2733 -6.48665 1.57449 0
M  V30 933 H 92.5433 -0.706157 -0.22455 0
M  V30 934 H 95.1903 -1.91082 0.126533 0
M  V30 935 H 93.4953 -3.33429 -2.05749 0
M  V30 936 H 95.1923 -3.59871 -1.769 0
M  V30 937 H 91.7823 -4.25726 -0.495539 0
M  V30 938 H 95.9663 -4.95939 0.189158 0
M  V30 939 H 91.2223 -6.00727 1.1374 0
M  V30 940 H 95.3963 -6.7225 1.81804 0
M  V30 941 H 93.0233 -7.24628 2.29822 0
M  V30 942 N 94.5984 0.214957 -1.56127 0
M  V30 943 C 95.5284 1.2695 -1.95974 0
M  V30 944 C 96.5094 1.48539 -0.828868 0
M  V30 945 O 97.6944 1.60611 -1.09168 0
M  V30 946 C 94.8244 2.61794 -2.28214 0
M  V30 947 C 93.7784 2.54851 -3.43853 0
M  V30 948 C 93.1044 3.93785 -3.61715 0
M  V30 949 C 94.4044 2.09065 -4.78632 0
M  V30 950 H 96.0984 0.93846 -2.84312 0
M  V30 951 H 93.6444 0.449996 -1.36788 0
M  V30 952 H 95.5974 3.35731 -2.54682 0
M  V30 953 H 94.3214 2.96599 -1.36736 0
M  V30 954 H 92.9804 1.8337 -3.17444 0
M  V30 955 H 92.6284 4.25908 -2.67602 0
M  V30 956 H 92.3284 3.90019 -4.39498 0
M  V30 957 H 93.8524 4.69374 -3.90539 0
M  V30 958 H 95.2664 2.7275 -5.04262 0
M  V30 959 H 93.6634 2.16346 -5.59745 0
M  V30 960 H 94.7334 1.04315 -4.73547 0
M  V30 961 N 96.0765 1.50051 0.48192 0
M  V30 962 C 97.3045 1.64237 1.25832 0
M  V30 963 C 97.7195 0.321336 1.86045 0
M  V30 964 O 97.0765 -0.695478 1.68729 0
M  V30 965 C 97.1275 2.72548 2.37487 0
M  V30 966 O 96.8485 3.99529 1.79745 0
M  V30 967 C 98.3495 2.9761 3.28547 0
M  V30 968 H 95.5695 0.55237 0.380957 0
M  V30 969 H 98.1135 1.96207 0.576467 0
M  V30 970 H 96.2685 2.43303 3.01467 0
M  V30 971 H 96.6825 4.59342 2.5319 0
M  V30 972 H 98.1565 3.77084 4.03127 0
M  V30 973 H 98.6335 2.0826 3.86684 0
M  V30 974 H 99.2395 3.28345 2.70314 0
M  V30 975 N 97.5546 -0.734337 1.39446 0
M  V30 976 C 98.5016 -1.84835 1.38219 0
M  V30 977 C 99.4716 -1.64331 0.24179 0
M  V30 978 O 100.657 -1.85728 0.437002 0
M  V30 979 C 97.7966 -3.22355 1.23212 0
M  V30 980 C 96.9096 -3.5456 2.46801 0
M  V30 981 C 96.0446 -4.81485 2.24377 0
M  V30 982 C 95.0836 -5.06536 3.43639 0
M  V30 983 N 94.2206 -6.24665 3.20528 0
M  V30 984 H 99.0606 -1.85219 2.33448 0
M  V30 985 H 96.5976 -0.905039 1.15963 0
M  V30 986 H 98.5556 -4.0174 1.12522 0
M  V30 987 H 97.1856 -3.21248 0.316121 0
M  V30 988 H 96.2376 -2.69872 2.68092 0
M  V30 989 H 97.5496 -3.6899 3.3563 0
M  V30 990 H 96.7036 -5.68852 2.10933 0
M  V30 991 H 95.4426 -4.6923 1.32944 0
M  V30 992 H 94.4476 -4.17632 3.5758 0
M  V30 993 H 95.6726 -5.20676 4.35974 0
M  V30 994 H 93.6186 -6.13696 2.3176 0
M  V30 995 H 93.5356 -6.39685 4.02913 0
M  V30 996 H 94.8036 -7.14868 3.10779 0
M  V30 997 N 99.0327 -1.24633 -0.964593 0
M  V30 998 C 100.449 -1.01239 -1.2338 0
M  V30 999 C 100.649 0.2769 -1.99588 0
M  V30 1000 O 99.7047 0.992241 -2.32187 0
M  V30 1001 C 101.018 -2.22937 -2.01791 0
M  V30 1002 C 102.566 -2.27594 -2.14872 0
M  V30 1003 C 103.041 -3.48921 -2.96678 0
M  V30 1004 N 104.532 -3.49257 -3.04259 0
M  V30 1005 C 105.267 -4.39795 -3.67924 0
M  V30 1006 N 104.763 -5.40591 -4.33281 0
M  V30 1007 N 106.556 -4.275 -3.64966 0
M  V30 1008 H 98.7067 -2.0748 -0.454502 0
M  V30 1009 H 100.97 -0.910647 -0.26349 0
M  V30 1010 H 100.676 -3.16587 -1.53184 0
M  V30 1011 H 100.55 -2.25306 -3.02518 0
M  V30 1012 H 102.937 -1.34473 -2.6268 0
M  V30 1013 H 103.018 -2.2925 -1.13482 0
M  V30 1014 H 102.662 -4.42359 -2.49562 0
M  V30 1015 H 102.592 -3.4451 -3.98272 0
M  V30 1016 H 105.083 -2.76337 -2.57771 0
M  V30 1017 H 105.396 -6.05904 -4.79687 0
M  V30 1018 H 103.741 -5.44475 -4.3194 0
M  V30 1019 H 106.932 -3.47987 -3.13086 0
M  V30 1020 H 107.105 -4.98258 -4.14298 0
M  V30 1021 N 100.511 1.16574 -1.06058 0
M  V30 1022 C 101.736 1.91493 -0.796562 0
M  V30 1023 C 102.161 1.76773 0.642868 0
M  V30 1024 O 101.519 1.09142 1.44768 0
M  V30 1025 C 101.567 3.40293 -1.19303 0
M  V30 1026 O 100.671 4.11074 -0.330394 0
M  V30 1027 H 100.012 0.596678 -0.291326 0
M  V30 1028 H 102.542 1.47708 -1.41575 0
M  V30 1029 H 102.552 3.91057 -1.16356 0
M  V30 1030 H 101.227 3.50326 -2.24153 0
M  V30 1031 H 99.8038 3.70513 -0.421225 0
M  V30 1032 N 101.989 0.842826 1.3317 0
M  V30 1033 C 103.405 0.531128 1.50503 0
M  V30 1034 C 103.605 -0.940734 1.78192 0
M  V30 1035 O 102.661 -1.72436 1.84451 0
M  V30 1036 C 103.974 1.40789 2.65705 0
M  V30 1037 C 105.522 1.40708 2.79589 0
M  V30 1038 C 105.997 2.26878 3.97857 0
M  V30 1039 N 107.488 2.24609 4.05099 0
M  V30 1040 C 108.223 2.88019 4.95815 0
M  V30 1041 N 107.719 3.60496 5.9162 0
M  V30 1042 N 109.512 2.77469 4.88843 0
M  V30 1043 H 101.663 1.79557 1.1346 0
M  V30 1044 H 103.926 0.766267 0.558156 0
M  V30 1045 H 103.632 2.454 2.51936 0
M  V30 1046 H 103.506 1.08677 3.61205 0
M  V30 1047 H 105.893 0.368668 2.92788 0
M  V30 1048 H 105.974 1.76829 1.84838 0
M  V30 1049 H 105.618 3.3078 3.85418 0
M  V30 1050 H 105.548 1.88096 4.91861 0
M  V30 1051 H 108.039 1.71906 3.36536 0
M  V30 1052 H 108.352 4.06076 6.57512 0
M  V30 1053 H 106.697 3.64604 5.91683 0
M  V30 1054 H 109.888 2.20406 4.12963 0
M  V30 1055 H 110.061 3.2717 5.59342 0
M  V30 1056 N 103.467 -1.45747 0.599634 0
M  V30 1057 C 104.399 -2.28628 -0.161879 0
M  V30 1058 C 105.412 -1.39494 -0.839367 0
M  V30 1059 O 106.601 -1.63941 -0.706089 0
M  V30 1060 C 103.701 -3.15014 -1.24976 0
M  V30 1061 C 102.874 -4.32378 -0.660935 0
M  V30 1062 C 101.933 -5.00033 -1.63869 0
M  V30 1063 O 100.959 -5.57085 -1.1681 0
M  V30 1064 N 102.161 -4.98589 -2.97303 0
M  V30 1065 H 104.926 -2.94624 0.549265 0
M  V30 1066 H 102.487 -1.55847 0.438565 0
M  V30 1067 H 104.479 -3.5714 -1.9035 0
M  V30 1068 H 103.049 -2.5098 -1.86354 0
M  V30 1069 H 102.269 -3.9383 0.170688 0
M  V30 1070 H 103.557 -5.08197 -0.247619 0
M  V30 1071 H 102.955 -4.53514 -3.38145 0
M  V30 1072 H 101.512 -5.44603 -3.58121 0
M  V30 1073 N 104.945 -0.338344 -1.53925 0
M  V30 1074 C 106.191 0.260143 -2.01125 0
M  V30 1075 C 106.524 1.50617 -1.22589 0
M  V30 1076 O 105.799 1.91979 -0.312113 0
M  V30 1077 C 106.082 0.579499 -3.55407 0
M  V30 1078 C 105.935 -0.678264 -4.44657 0
M  V30 1079 C 107.254 1.39122 -4.17532 0
M  V30 1080 H 104.373 0.0930772 -0.731099 0
M  V30 1081 H 107.015 -0.457852 -1.84401 0
M  V30 1082 H 105.165 1.19118 -3.69788 0
M  V30 1083 H 106.837 -1.31631 -4.42121 0
M  V30 1084 H 105.08 -1.3042 -4.13731 0
M  V30 1085 H 105.751 -0.410143 -5.50474 0
M  V30 1086 H 108.227 0.874035 -4.06817 0
M  V30 1087 H 107.103 1.58342 -5.25565 0
M  V30 1088 H 107.364 2.39178 -3.71815 0
M  V30 1089 N 106.423 1.57458 -0.0668435 0
M  V30 1090 C 107.663 1.95175 0.607116 0
M  V30 1091 C 108.027 0.946039 1.67075 0
M  V30 1092 O 109.228 1.2107 2.39991 0
M  V30 1093 C 107.499 3.37582 1.17358 0
M  V30 1094 S 109.058 3.97271 1.86336 0
M  V30 1095 H 105.876 0.682604 0.19893 0
M  V30 1096 H 108.478 1.95002 -0.139519 0
M  V30 1097 H 107.182 4.08566 0.387553 0
M  V30 1098 H 106.713 3.41288 1.95669 0
M  V30 1099 H 108.728 3.83772 3.14537 0
M  V30 1100 N 107.901 -0.206675 1.56239 0
M  V30 1101 C 108.864 -1.23976 1.92776 0
M  V30 1102 C 109.864 -1.39041 0.807729 0
M  V30 1103 O 111.054 -1.37051 1.0753 0
M  V30 1104 C 108.186 -2.61112 2.19165 0
M  V30 1105 H 109.379 -0.927764 2.85189 0
M  V30 1106 H 106.932 -0.447718 1.4975 0
M  V30 1107 H 107.667 -2.97386 1.29352 0
M  V30 1108 H 107.452 -2.51552 3.00772 0
M  V30 1109 H 108.942 -3.35633 2.48476 0
M  V30 1110 N 109.379 -1.50304 -0.473955 0
M  V30 1111 C 110.656 -1.51667 -1.23518 0
M  V30 1112 C 111.036 -0.259701 -2.09496 0
M  V30 1113 O 110.384 0.756986 -2.15597 0
M  V30 1114 C 110.594 -2.81082 -2.06868 0
M  V30 1115 C 111.942 -3.31631 -2.65153 0
M  V30 1116 O 112.966 -2.82384 -2.17113 0
M  V30 1117 O 111.825 -4.17471 -3.52675 0
M  V30 1118 H 108.919 -0.60822 -0.560355 0
M  V30 1119 H 111.465 -1.62592 -0.486011 0
M  V30 1120 H 110.237 -3.64041 -1.4349 0
M  V30 1121 H 109.86 -2.73146 -2.88924 0
M  V30 1122 N 110.857 0.726932 -1.39834 0
M  V30 1123 C 112.268 1.30558 -1.3346 0
M  V30 1124 C 112.619 1.962 -0.00273003 0
M  V30 1125 O 111.744 1.96826 0.899371 0
M  V30 1126 C 112.339 2.37404 -2.41713 0
M  V30 1127 C 110.898 2.90921 -2.38835 0
M  V30 1128 C 110.045 1.64578 -2.2318 0
M  V30 1129 H 112.996 0.523862 -1.49804 0
M  V30 1130 H 113.017 3.17984 -2.08966 0
M  V30 1131 H 112.529 1.89599 -3.38635 0
M  V30 1132 H 110.63 3.42985 -1.45575 0
M  V30 1133 H 110.743 3.43487 -3.33997 0
M  V30 1134 H 109.107 1.89219 -1.70494 0
M  V30 1135 H 109.89 1.18814 -3.22084 0
M  V30 1136 N 112.336 1.25143 0.95797 0
M  V30 1137 C 113.561 1.12521 1.74223 0
M  V30 1138 C 113.986 -0.317402 1.85403 0
M  V30 1139 O 113.344 -1.2299 1.33204 0
M  V30 1140 C 113.392 1.78062 3.1357 0
M  V30 1141 O 112.496 1.058 3.98598 0
M  V30 1142 H 111.837 0.39304 0.535178 0
M  V30 1143 H 114.367 1.65641 1.201 0
M  V30 1144 H 114.377 1.84213 3.64046 0
M  V30 1145 H 113.052 2.83021 3.04749 0
M  V30 1146 H 111.629 1.07506 3.57067 0
M  V30 1147 N 113.814 -1.1601 1.06675 0
M  V30 1148 C 114.724 -2.24156 0.692179 0
M  V30 1149 C 115.74 -1.71507 -0.293513 0
M  V30 1150 O 116.916 -2.009 -0.141861 0
M  V30 1151 C 113.981 -3.46587 0.0884131 0
M  V30 1152 C 113.042 -4.14257 1.12646 0
M  V30 1153 C 112.275 -5.30844 0.551416 0
M  V30 1154 O 112.498 -5.66858 -0.634656 0
M  V30 1155 O 111.432 -5.87848 1.29298 0
M  V30 1156 H 115.258 -2.58513 1.59388 0
M  V30 1157 H 112.843 -1.23599 0.83926 0
M  V30 1158 H 114.725 -4.20679 -0.246361 0
M  V30 1159 H 113.4 -3.13994 -0.786712 0
M  V30 1160 H 112.307 -3.42118 1.51348 0
M  V30 1161 H 113.64 -4.50914 1.97325 0
M  V30 1162 N 115.292 -0.849877 -1.32721 0
M  V30 1163 C 116.202 -0.293791 -2.32753 0
M  V30 1164 C 117.218 0.585906 -1.63839 0
M  V30 1165 O 118.394 0.487413 -1.95413 0
M  V30 1166 C 115.459 0.512752 -3.42887 0
M  V30 1167 C 114.52 -0.39252 -4.27502 0
M  V30 1168 C 113.753 0.375625 -5.32377 0
M  V30 1169 O 113.976 1.60613 -5.4732 0
M  V30 1170 O 112.91 -0.256094 -6.01355 0
M  V30 1171 H 116.736 -1.12242 -2.82197 0
M  V30 1172 H 114.321 -0.612685 -1.36259 0
M  V30 1173 H 116.203 0.970704 -4.10067 0
M  V30 1174 H 114.878 1.31826 -2.95641 0
M  V30 1175 H 113.785 -0.898547 -3.63149 0
M  V30 1176 H 115.118 -1.16309 -4.7826 0
M  V30 1177 N 116.77 1.45427 -0.607355 0
M  V30 1178 C 118.016 2.03097 -0.111035 0
M  V30 1179 C 118.371 1.46735 1.24445 0
M  V30 1180 O 117.664 0.632478 1.8086 0
M  V30 1181 C 117.858 3.57398 -0.0129263 0
M  V30 1182 C 117.687 4.28726 -1.35735 0
M  V30 1183 C 116.457 4.66659 -1.93798 0
M  V30 1184 C 118.655 4.60699 -2.28607 0
M  V30 1185 N 116.637 5.22845 -3.21723 0
M  V30 1186 C 118.008 5.17716 -3.41131 0
M  V30 1187 C 120.063 4.42638 -2.27982 0
M  V30 1188 C 118.766 5.58576 -4.53194 0
M  V30 1189 C 120.792 4.84531 -3.39093 0
M  V30 1190 C 120.154 5.4164 -4.50339 0
M  V30 1191 H 116.253 0.777476 -0.083994 0
M  V30 1192 H 118.837 1.77249 -0.805655 0
M  V30 1193 H 117.008 3.82907 0.650914 0
M  V30 1194 H 118.74 4.01722 0.490033 0
M  V30 1195 H 115.495 4.50207 -1.47007 0
M  V30 1196 H 115.919 5.55438 -3.87063 0
M  V30 1197 H 120.561 3.97798 -1.43235 0
M  V30 1198 H 118.279 6.02382 -5.38667 0
M  V30 1199 H 121.865 4.72289 -3.39757 0
M  V30 1200 H 120.745 5.73461 -5.34895 0
M  V30 1201 N 118.248 0.346503 1.53744 0
M  V30 1202 C 119.494 -0.249473 2.0126 0
M  V30 1203 C 119.827 -1.49965 1.23386 0
M  V30 1204 O 119.102 -1.91811 0.32229 0
M  V30 1205 C 119.385 -0.560643 3.55709 0
M  V30 1206 C 119.238 0.701836 4.44291 0
M  V30 1207 C 120.557 -1.36905 4.18264 0
M  V30 1208 H 117.676 -0.0891987 0.731582 0
M  V30 1209 H 120.318 0.467624 1.84156 0
M  V30 1210 H 118.468 -1.17156 3.70414 0
M  V30 1211 H 120.14 1.33974 4.41417 0
M  V30 1212 H 118.383 1.32612 4.13033 0
M  V30 1213 H 119.054 0.43933 5.50249 0
M  V30 1214 H 121.53 -0.852448 4.07275 0
M  V30 1215 H 120.406 -1.55553 5.26398 0
M  V30 1216 H 120.667 -2.37203 3.73078 0
M  V30 1217 N 119.726 -1.57421 0.075193 0
M  V30 1218 C 120.658 -2.09904 -0.920483 0
M  V30 1219 C 121.671 -1.03191 -1.25918 0
M  V30 1220 O 122.86 -1.30695 -1.21577 0
M  V30 1221 C 119.96 -2.54726 -2.23534 0
M  V30 1222 C 119.133 -3.8505 -2.07498 0
M  V30 1223 C 118.192 -4.15929 -3.22319 0
M  V30 1224 O 117.218 -4.85474 -2.9716 0
M  V30 1225 N 118.42 -3.69745 -4.47514 0
M  V30 1226 H 121.185 -2.95954 -0.472359 0
M  V30 1227 H 118.746 -1.61523 -0.110444 0
M  V30 1228 H 120.738 -2.72443 -2.9926 0
M  V30 1229 H 119.308 -1.73795 -2.59835 0
M  V30 1230 H 118.528 -3.76679 -1.16219 0
M  V30 1231 H 119.816 -4.70348 -1.94038 0
M  V30 1232 H 119.214 -3.13569 -4.7084 0
M  V30 1233 H 117.771 -3.92655 -5.20255 0
M  V30 1234 N 121.204 0.198386 -1.56346 0
M  V30 1235 C 122.151 1.24589 -1.94284 0
M  V30 1236 C 123.121 1.454 -0.802997 0
M  V30 1237 O 124.306 1.58588 -1.06087 0
M  V30 1238 C 121.446 2.58631 -2.28482 0
M  V30 1239 C 120.559 2.45426 -3.55514 0
M  V30 1240 C 119.694 3.7215 -3.79049 0
M  V30 1241 C 118.733 3.53763 -4.99518 0
M  V30 1242 N 117.87 4.72491 -5.19323 0
M  V30 1243 H 122.71 0.915356 -2.83593 0
M  V30 1244 H 120.247 0.440629 -1.40346 0
M  V30 1245 H 122.205 3.3672 -2.46324 0
M  V30 1246 H 120.835 2.89734 -1.42317 0
M  V30 1247 H 119.887 1.58652 -3.45737 0
M  V30 1248 H 121.199 2.27772 -4.43758 0
M  V30 1249 H 120.353 4.58679 -3.97113 0
M  V30 1250 H 119.092 3.92754 -2.89129 0
M  V30 1251 H 118.097 2.65619 -4.8138 0
M  V30 1252 H 119.322 3.34607 -5.90944 0
M  V30 1253 H 117.268 4.93365 -4.3235 0
M  V30 1254 H 117.185 4.5765 -6.01741 0
M  V30 1255 H 118.453 5.6038 -5.41843 0
M  V30 1256 N 122.682 1.50554 0.465978 0
M  V30 1257 C 123.912 1.65323 1.23903 0
M  V30 1258 C 124.32 0.338051 1.86155 0
M  V30 1259 O 123.663 -0.690518 1.70228 0
M  V30 1260 C 123.725 2.69048 2.3844 0
M  V30 1261 C 123.389 4.12462 1.96784 0
M  V30 1262 C 124.386 4.98168 1.48745 0
M  V30 1263 C 122.071 4.58407 2.05349 0
M  V30 1264 C 124.065 6.27868 1.0982 0
M  V30 1265 C 121.752 5.88112 1.66035 0
M  V30 1266 C 122.75 6.72668 1.18349 0
M  V30 1267 O 122.438 7.99951 0.795825 0
M  V30 1268 H 122.17 0.558629 0.38067 0
M  V30 1269 H 124.724 1.97561 0.562022 0
M  V30 1270 H 122.954 2.32062 3.09328 0
M  V30 1271 H 124.643 2.72985 3.0039 0
M  V30 1272 H 125.409 4.63885 1.41546 0
M  V30 1273 H 121.288 3.92735 2.41414 0
M  V30 1274 H 124.832 6.93819 0.725293 0
M  V30 1275 H 120.729 6.21914 1.72895 0
M  V30 1276 H 121.497 8.13265 0.924222 0
M  V30 1277 N 124.16 -0.719506 1.40217 0
M  V30 1278 C 125.406 -1.48152 1.38488 0
M  V30 1279 C 125.739 -1.94195 -0.0141867 0
M  V30 1280 O 125.014 -1.67884 -0.982096 0
M  V30 1281 C 125.297 -2.71035 2.37091 0
M  V30 1282 C 125.15 -2.30912 3.86005 0
M  V30 1283 C 126.469 -3.73182 2.33288 0
M  V30 1284 H 123.588 -0.537395 0.504357 0
M  V30 1285 H 126.23 -0.821472 1.71324 0
M  V30 1286 H 124.38 -3.27352 2.0922 0
M  V30 1287 H 126.052 -1.80107 4.24687 0
M  V30 1288 H 124.295 -1.62958 4.02029 0
M  V30 1289 H 124.966 -3.18978 4.50508 0
M  V30 1290 H 127.442 -3.26485 2.57966 0
M  V30 1291 H 126.318 -4.56806 3.04334 0
M  V30 1292 H 126.579 -4.21202 1.34317 0
M  V30 1293 N 125.638 -1.25649 -0.95132 0
M  V30 1294 C 126.863 -1.13443 -1.73624 0
M  V30 1295 C 127.288 0.307565 -1.85568 0
M  V30 1296 O 126.646 1.22282 -1.33854 0
M  V30 1297 C 126.694 -1.79723 -3.12621 0
M  V30 1298 O 125.798 -1.07912 -3.98031 0
M  V30 1299 H 125.139 -0.395872 -0.533086 0
M  V30 1300 H 127.669 -1.66276 -1.1922 0
M  V30 1301 H 127.679 -1.86141 -3.63064 0
M  V30 1302 H 126.354 -2.84633 -3.03244 0
M  V30 1303 H 124.931 -1.09398 -3.56492 0
M  V30 1304 N 127.117 1.15442 -1.07289 0
M  V30 1305 C 128.394 1.82306 -0.708792 0
M  V30 1306 C 128.774 1.94991 0.808807 0
M  V30 1307 O 128.122 1.50085 1.72298 0
M  V30 1308 C 128.332 3.18695 -1.42247 0
M  V30 1309 C 129.68 3.94341 -1.57417 0
M  V30 1310 O 130.704 3.28247 -1.38319 0
M  V30 1311 O 129.563 5.12839 -1.88834 0
M  V30 1312 H 126.657 0.787628 -0.252132 0
M  V30 1313 H 129.203 1.22559 -1.17377 0
M  V30 1314 H 127.975 3.04557 -2.45684 0
M  V30 1315 H 127.598 3.86128 -0.948223 0
M  V30 1316 N 128.595 0.856903 1.32268 0
M  V30 1317 C 129.525 0.31858 2.31316 0
M  V30 1318 C 130.506 -0.583487 1.59779 0
M  V30 1319 O 131.691 -0.503259 1.87566 0
M  V30 1320 C 128.821 -0.491979 3.43798 0
M  V30 1321 C 127.775 0.315849 4.26833 0
M  V30 1322 C 127.101 -0.619586 5.31098 0
M  V30 1323 C 128.401 1.54282 4.98993 0
M  V30 1324 H 130.095 1.14621 2.76591 0
M  V30 1325 H 127.641 0.552613 1.32974 0
M  V30 1326 H 129.594 -0.879012 4.1213 0
M  V30 1327 H 128.318 -1.35299 2.97257 0
M  V30 1328 H 126.977 0.684664 3.6015 0
M  V30 1329 H 126.625 -1.47751 4.8081 0
M  V30 1330 H 126.325 -0.0830621 5.87541 0
M  V30 1331 H 127.849 -1.00375 6.02293 0
M  V30 1332 H 129.263 1.22796 5.59995 0
M  V30 1333 H 127.66 2.01745 5.65172 0
M  V30 1334 H 128.73 2.30285 4.26728 0
M  V30 1335 N 130.073 -1.45103 0.615059 0
M  V30 1336 C 130.983 -2.34382 -0.101034 0
M  V30 1337 C 131.999 -1.51681 -0.852585 0
M  V30 1338 O 133.175 -1.8446 -0.808484 0
M  V30 1339 C 130.24 -3.29417 -1.08099 0
M  V30 1340 C 129.301 -4.28025 -0.330577 0
M  V30 1341 C 128.534 -5.1852 -1.26385 0
M  V30 1342 O 128.757 -5.12598 -2.50198 0
M  V30 1343 O 127.691 -5.97122 -0.756866 0
M  V30 1344 H 131.517 -2.97033 0.632855 0
M  V30 1345 H 129.102 -1.4461 0.375293 0
M  V30 1346 H 130.984 -3.87958 -1.6452 0
M  V30 1347 H 129.659 -2.69321 -1.79577 0
M  V30 1348 H 128.566 -3.73078 0.276283 0
M  V30 1349 H 129.899 -4.90997 0.343866 0
M  V30 1350 N 131.551 -0.354651 -1.53558 0
M  V30 1351 C 132.481 0.489091 -2.2832 0
M  V30 1352 C 133.462 1.09324 -1.30316 0
M  V30 1353 O 134.647 1.11255 -1.59173 0
M  V30 1354 C 131.777 1.63456 -3.0643 0
M  V30 1355 C 130.731 1.1582 -4.12031 0
M  V30 1356 C 130.057 2.39305 -4.7816 0
M  V30 1357 C 131.357 0.250731 -5.21698 0
M  V30 1358 H 133.051 -0.134614 -2.99097 0
M  V30 1359 H 130.597 -0.0661826 -1.43848 0
M  V30 1360 H 132.55 2.23136 -3.57475 0
M  V30 1361 H 131.274 2.28533 -2.33325 0
M  V30 1362 H 129.933 0.584146 -3.61916 0
M  V30 1363 H 129.581 3.02814 -4.01637 0
M  V30 1364 H 129.281 2.08109 -5.49513 0
M  V30 1365 H 130.805 2.99691 -5.31994 0
M  V30 1366 H 132.219 0.754695 -5.68311 0
M  V30 1367 H 130.616 0.0301468 -6.00092 0
M  V30 1368 H 131.686 -0.710125 -4.79672 0
M  V30 1369 N 133.029 1.57378 -0.0835403 0
M  V30 1370 C 134.254 1.98682 0.594987 0
M  V30 1371 C 134.679 0.961969 1.61641 0
M  V30 1372 O 134.037 -0.0709989 1.81161 0
M  V30 1373 C 134.085 3.38988 1.2296 0
M  V30 1374 O 133.189 3.39208 2.34546 0
M  V30 1375 H 132.53 0.646368 0.152002 0
M  V30 1376 H 135.06 2.03961 -0.161533 0
M  V30 1377 H 135.07 3.76431 1.57366 0
M  V30 1378 H 133.745 4.13107 0.481228 0
M  V30 1379 H 132.322 3.13548 2.01846 0
M  V30 1380 N 134.507 -0.190092 1.56449 0
M  V30 1381 C 135.47 -1.21925 1.9408 0
M  V30 1382 C 136.47 -1.38176 0.822431 0
M  V30 1383 O 137.66 -1.35903 1.08977 0
M  V30 1384 C 134.792 -2.58773 2.21922 0
M  V30 1385 H 135.985 -0.897464 2.86157 0
M  V30 1386 H 133.538 -0.43181 1.50217 0
M  V30 1387 H 134.273 -2.95998 1.32499 0
M  V30 1388 H 134.058 -2.48348 3.03424 0
M  V30 1389 H 135.548 -3.32978 2.52022 0
M  V30 1390 O 136.024 -1.57982 -0.335264 0
M  V30 1391 H 136.715 -1.6682 -0.984419 0
M  V30 END ATOM
M  V30 BEGIN BOND
M  V30 END BOND
M  V30 END CTAB
M  END
$$$$
