drugbank_target|P10384 Long-chain fatty acid transport protein (DB04147; DB04233)
 OpenBabel12092119573D

  0  0  0     0  0            999 V3000
M  V30 BEGIN CTAB
M  V30 COUNTS 6669 6761 0 0 0
M  V30 BEGIN ATOM
M  V30 1 H -0.908 1.98254 -0.117106 0
M  V30 2 N 0 1.576 0 0
M  V30 3 C 0.933 2.03868 1.02534 0
M  V30 4 C 1.911 0.928543 1.3348 0
M  V30 5 O 3.095 1.19667 1.45644 0
M  V30 6 C 0.222 2.43627 2.35294 0
M  V30 7 C -0.732 3.65373 2.2001 0
M  V30 8 S 0.101 5.13292 1.52614 0
M  V30 9 C 1.257 5.56322 2.86805 0
M  V30 10 H 1.49 2.90518 0.631377 0
M  V30 11 H -0.977 1.52953 0.210867 0
M  V30 12 H 0.981 2.67203 3.11629 0
M  V30 13 H -0.358 1.57376 2.7183 0
M  V30 14 H -1.165 3.90944 3.18086 0
M  V30 15 H -1.563 3.418 1.51819 0
M  V30 16 H 0.729 5.58782 3.83104 0
M  V30 17 H 1.672 6.56266 2.65933 0
M  V30 18 H 2.08 4.83886 2.90714 0
M  V30 19 N 1.4781 -0.272755 1.55222 0
M  V30 20 C 2.7031 -1.02683 1.80197 0
M  V30 21 C 3.1281 -1.79142 0.573551 0
M  V30 22 O 2.4861 -1.74917 -0.476849 0
M  V30 23 C 2.5341 -1.9609 3.02624 0
M  V30 24 O 1.6381 -3.04863 2.77727 0
M  V30 25 H 0.9791 -0.293557 0.595584 0
M  V30 26 H 3.5091 -0.30159 2.02365 0
M  V30 27 H 3.5191 -2.38039 3.31363 0
M  V30 28 H 2.1941 -1.39851 3.91682 0
M  V30 29 H 0.7711 -2.67228 2.60084 0
M  V30 30 N 2.9562 -1.48159 -0.537278 0
M  V30 31 C 3.8882 -1.58218 -1.65831 0
M  V30 32 C 4.9012 -0.466948 -1.5596 0
M  V30 33 O 6.0902 -0.73747 -1.62553 0
M  V30 34 C 3.1902 -1.48906 -3.04434 0
M  V30 35 C 2.3632 -2.75343 -3.3986 0
M  V30 36 C 1.4222 -2.59588 -4.57712 0
M  V30 37 O 0.4482 -3.33457 -4.61297 0
M  V30 38 N 1.6502 -1.68724 -5.55439 0
M  V30 39 H 4.4152 -2.54891 -1.57641 0
M  V30 40 H 1.9762 -1.4479 -0.724386 0
M  V30 41 H 3.9682 -1.36072 -3.81139 0
M  V30 42 H 2.5382 -0.602368 -3.06741 0
M  V30 43 H 1.7582 -3.02795 -2.52406 0
M  V30 44 H 3.0462 -3.5924 -3.60311 0
M  V30 45 H 2.4442 -1.07898 -5.55315 0
M  V30 46 H 1.0012 -1.61832 -6.3139 0
M  V30 47 N 4.4343 0.785586 -1.36625 0
M  V30 48 C 5.3813 1.89838 -1.31264 0
M  V30 49 C 6.3513 1.65115 -0.180633 0
M  V30 50 O 7.5363 1.87222 -0.36777 0
M  V30 51 C 4.6763 3.26706 -1.11163 0
M  V30 52 C 3.7893 3.63476 -2.33472 0
M  V30 53 C 2.9243 4.89481 -2.06353 0
M  V30 54 C 1.9633 5.18941 -3.24602 0
M  V30 55 N 1.1003 6.36131 -2.97123 0
M  V30 56 H 5.9403 1.93756 -2.26413 0
M  V30 57 H 3.4773 0.947454 -1.12524 0
M  V30 58 H 5.4353 4.05639 -0.975337 0
M  V30 59 H 4.0653 3.222 -0.196674 0
M  V30 60 H 3.1173 2.79636 -2.57891 0
M  V30 61 H 4.4293 3.81193 -3.21704 0
M  V30 62 H 3.5833 5.76288 -1.89675 0
M  V30 63 H 2.3223 4.73841 -1.15437 0
M  V30 64 H 1.3273 4.30615 -3.41834 0
M  V30 65 H 2.5523 5.36498 -4.16349 0
M  V30 66 H 0.4983 6.21875 -2.08823 0
M  V30 67 H 0.4153 6.54198 -3.78894 0
M  V30 68 H 1.6833 7.2591 -2.84033 0
M  V30 69 N 5.9124 1.20967 1.01018 0
M  V30 70 C 7.1404 1.04956 1.78303 0
M  V30 71 C 7.5554 -0.400915 1.84494 0
M  V30 72 O 6.9124 -1.27826 1.30257 0
M  V30 73 C 6.9634 1.63403 3.22462 0
M  V30 74 O 6.6844 3.02775 3.16637 0
M  V30 75 C 8.1854 1.52432 4.16268 0
M  V30 76 H 5.4054 0.368858 0.560522 0
M  V30 77 H 7.9494 1.60193 1.27116 0
M  V30 78 H 6.1044 1.1227 3.70775 0
M  V30 79 H 6.5184 3.30626 4.07169 0
M  V30 80 H 7.9924 1.98078 5.15237 0
M  V30 81 H 8.4694 0.477875 4.36592 0
M  V30 82 H 9.0754 2.02787 3.73841 0
M  V30 83 N 7.3905 -1.2043 1.01659 0
M  V30 84 C 8.3205 -2.25466 0.607226 0
M  V30 85 C 9.3015 -1.65853 -0.377716 0
M  V30 86 O 10.4865 -1.92409 -0.263149 0
M  V30 87 C 7.6165 -3.47256 -0.0552949 0
M  V30 88 C 6.5705 -4.19462 0.850632 0
M  V30 89 C 5.8965 -5.34673 0.0538859 0
M  V30 90 C 7.1965 -4.75603 2.15868 0
M  V30 91 H 8.8905 -2.59962 1.48526 0
M  V30 92 H 6.4365 -1.2496 0.715605 0
M  V30 93 H 8.3895 -4.19917 -0.353233 0
M  V30 94 H 7.1135 -3.11924 -0.968045 0
M  V30 95 H 5.7725 -3.48667 1.13257 0
M  V30 96 H 5.4205 -4.95585 -0.860514 0
M  V30 97 H 5.1205 -5.83913 0.657192 0
M  V30 98 H 6.6445 -6.10138 -0.237598 0
M  V30 99 H 8.0585 -5.40083 1.92311 0
M  V30 100 H 6.4555 -5.3528 2.71284 0
M  V30 101 H 7.5255 -3.94346 2.82169 0
M  V30 102 N 8.8686 -0.792821 -1.36206 0
M  V30 103 C 10.1156 -0.366786 -1.99151 0
M  V30 104 C 10.4436 1.06243 -1.62919 0
M  V30 105 O 9.6986 1.74927 -0.877442 0
M  V30 106 C 9.9976 -0.481501 -3.54142 0
M  V30 107 C 9.6636 -1.87202 -4.10203 0
M  V30 108 C 8.3256 -2.25248 -4.25226 0
M  V30 109 C 10.6776 -2.78237 -4.40719 0
M  V30 110 C 8.0056 -3.53723 -4.68078 0
M  V30 111 C 10.3576 -4.06144 -4.85005 0
M  V30 112 C 9.0216 -4.44207 -4.98234 0
M  V30 113 H 8.2916 -0.134217 -0.728743 0
M  V30 114 H 10.9386 -1.01094 -1.62641 0
M  V30 115 H 9.2436 0.246146 -3.91026 0
M  V30 116 H 10.9406 -0.132844 -4.0078 0
M  V30 117 H 7.5306 -1.56639 -3.98951 0
M  V30 118 H 11.7146 -2.50097 -4.28679 0
M  V30 119 H 6.9706 -3.8308 -4.76508 0
M  V30 120 H 11.1446 -4.76796 -5.07581 0
M  V30 121 H 8.7716 -5.43814 -5.31197 0
M  V30 122 N 10.3467 1.47872 -0.545128 0
M  V30 123 C 11.5747 2.06889 -0.021084 0
M  V30 124 C 11.9897 1.39955 1.2672 0
M  V30 125 O 11.3467 0.492036 1.75742 0
M  V30 126 C 11.3977 3.60996 0.190817 0
M  V30 127 O 11.1187 4.25419 -1.04644 0
M  V30 128 C 12.6197 4.36849 0.753521 0
M  V30 129 H 9.8397 0.669785 -0.0403635 0
M  V30 130 H 12.3837 1.90049 -0.755095 0
M  V30 131 H 10.5387 3.77391 0.87492 0
M  V30 132 H 10.9527 5.17785 -0.836611 0
M  V30 133 H 12.4267 5.45399 0.851139 0
M  V30 134 H 12.9037 4.02306 1.762 0
M  V30 135 H 13.5097 4.25169 0.105503 0
M  V30 136 N 11.8248 0.280983 1.55075 0
M  V30 137 C 12.7718 -0.603937 2.22758 0
M  V30 138 C 13.7418 -1.1452 1.20309 0
M  V30 139 O 14.9268 -1.19343 1.48869 0
M  V30 140 C 12.0668 -1.77947 2.95684 0
M  V30 141 C 11.1798 -1.2715 4.12864 0
M  V30 142 C 10.3148 -2.4093 4.7342 0
M  V30 143 C 9.3538 -1.87165 5.82783 0
M  V30 144 N 8.4908 -2.94441 6.37377 0
M  V30 145 H 13.3308 -0.020124 2.97993 0
M  V30 146 H 10.8678 0.00183425 1.471 0
M  V30 147 H 12.8258 -2.47055 3.36184 0
M  V30 148 H 11.4558 -2.33522 2.22861 0
M  V30 149 H 10.5078 -0.473331 3.77444 0
M  V30 150 H 11.8198 -0.837751 4.91715 0
M  V30 151 H 10.9738 -3.18021 5.1667 0
M  V30 152 H 9.7128 -2.87623 3.93859 0
M  V30 153 H 8.7178 -1.08556 5.38976 0
M  V30 154 H 9.9428 -1.41401 6.64216 0
M  V30 155 H 7.8888 -3.40505 5.60707 0
M  V30 156 H 7.8058 -2.55501 7.11516 0
M  V30 157 H 9.0738 -3.71489 6.85285 0
M  V30 158 N 13.3029 -1.57598 0.00835791 0
M  V30 159 C 14.5279 -1.95617 -0.689103 0
M  V30 160 C 14.9529 -0.883753 -1.66046 0
M  V30 161 O 14.3109 0.157352 -1.80616 0
M  V30 162 C 14.3589 -3.32736 -1.38994 0
M  V30 163 O 13.4629 -3.27631 -2.50463 0
M  V30 164 H 12.8039 -0.638379 -0.182668 0
M  V30 165 H 15.3339 -2.045 0.064036 0
M  V30 166 H 15.3439 -3.68494 -1.75147 0
M  V30 167 H 14.0189 -4.1034 -0.677778 0
M  V30 168 H 12.5959 -3.03561 -2.16576 0
M  V30 169 N 14.781 0.264519 -1.55364 0
M  V30 170 C 15.744 1.31046 -1.88042 0
M  V30 171 C 16.744 1.41943 -0.755569 0
M  V30 172 O 17.934 1.40947 -1.02369 0
M  V30 173 C 15.066 2.69067 -2.09323 0
M  V30 174 H 16.259 1.03297 -2.81549 0
M  V30 175 H 13.812 0.502989 -1.47986 0
M  V30 176 H 14.547 3.01982 -1.18226 0
M  V30 177 H 14.332 2.62542 -2.91229 0
M  V30 178 H 15.822 3.44623 -2.35848 0
M  V30 179 N 16.2591 1.48442 0.529413 0
M  V30 180 C 17.1891 1.65902 1.64313 0
M  V30 181 C 18.1701 0.507897 1.6234 0
M  V30 182 O 19.3551 0.740503 1.79528 0
M  V30 183 C 16.4851 1.69911 3.02898 0
M  V30 184 C 15.4391 2.8453 3.19729 0
M  V30 185 C 14.7651 2.73629 4.59381 0
M  V30 186 C 16.0651 4.25821 3.02447 0
M  V30 187 H 17.7591 2.5914 1.49955 0
M  V30 188 H 15.3051 1.24709 0.719982 0
M  V30 189 H 17.2581 1.80715 3.80684 0
M  V30 190 H 15.9821 0.732524 3.18279 0
M  V30 191 H 14.6411 2.73283 2.44361 0
M  V30 192 H 14.2891 1.74938 4.71599 0
M  V30 193 H 13.9891 3.50541 4.71588 0
M  V30 194 H 15.5131 2.86401 5.39265 0
M  V30 195 H 16.9271 4.37898 3.70024 0
M  V30 196 H 15.3241 5.03735 3.26146 0
M  V30 197 H 16.3941 4.42244 1.98867 0
M  V30 198 N 17.7372 -0.778329 1.37039 0
M  V30 199 C 18.7002 -1.87301 1.32102 0
M  V30 200 C 19.7002 -1.59198 0.226405 0
M  V30 201 O 20.8902 -1.67403 0.481861 0
M  V30 202 C 18.0222 -3.24309 1.05055 0
M  V30 203 H 19.2152 -1.93093 2.29467 0
M  V30 204 H 16.7682 -0.977358 1.21973 0
M  V30 205 H 17.5032 -3.24196 0.0819373 0
M  V30 206 H 17.2882 -3.46098 1.84279 0
M  V30 207 H 18.7782 -4.04382 1.04234 0
M  V30 208 N 19.2153 -1.21501 -1.00376 0
M  V30 209 C 20.4613 -1.03452 -1.74429 0
M  V30 210 C 20.7943 0.430764 -1.89362 0
M  V30 211 O 20.0693 1.31962 -1.42886 0
M  V30 212 C 20.3523 -1.73375 -3.15615 0
M  V30 213 C 20.2053 -3.27431 -3.08397 0
M  V30 214 C 21.5243 -1.47732 -4.14564 0
M  V30 215 H 18.6433 -0.377226 -0.633143 0
M  V30 216 H 21.2853 -1.49693 -1.17013 0
M  V30 217 H 19.4353 -1.34064 -3.64636 0
M  V30 218 H 21.1073 -3.76119 -2.67081 0
M  V30 219 H 19.3503 -3.5767 -2.45468 0
M  V30 220 H 20.0213 -3.71524 -4.08258 0
M  V30 221 H 22.4973 -1.8186 -3.74254 0
M  V30 222 H 21.3733 -1.99169 -5.11491 0
M  V30 223 H 21.6343 -0.407589 -4.40217 0
M  V30 224 N 20.6934 1.19889 -1.02296 0
M  V30 225 C 21.6564 2.21116 -0.603351 0
M  V30 226 C 22.6564 1.5738 0.329884 0
M  V30 227 O 23.8464 1.73802 0.117702 0
M  V30 228 C 20.9784 3.40696 0.117992 0
M  V30 229 H 22.1714 2.59754 -1.49893 0
M  V30 230 H 19.7244 1.33463 -0.813468 0
M  V30 231 H 20.4594 3.07569 1.0282 0
M  V30 232 H 20.2444 3.88188 -0.552511 0
M  V30 233 H 21.7344 4.15692 0.398696 0
M  V30 234 N 22.1715 0.800033 1.35784 0
M  V30 235 C 23.4175 0.377901 1.99248 0
M  V30 236 C 23.7505 -1.05052 1.63333 0
M  V30 237 O 23.0255 -1.72768 0.893385 0
M  V30 238 C 23.3085 0.553922 3.55814 0
M  V30 239 C 23.1615 2.0268 4.01548 0
M  V30 240 C 24.4805 -0.0244802 4.40093 0
M  V30 241 H 21.5995 0.138782 0.723815 0
M  V30 242 H 24.2415 1.00835 1.61035 0
M  V30 243 H 22.3915 0.0172398 3.88496 0
M  V30 244 H 24.0635 2.62536 3.79305 0
M  V30 245 H 22.3065 2.5256 3.52698 0
M  V30 246 H 22.9775 2.10087 5.10458 0
M  V30 247 H 25.4535 0.433775 4.13833 0
M  V30 248 H 24.3295 0.128637 5.48749 0
M  V30 249 H 24.5905 -1.11758 4.27741 0
M  V30 250 N 23.6496 -1.47581 0.552962 0
M  V30 251 C 24.6126 -2.28439 -0.186605 0
M  V30 252 C 25.6126 -1.36706 -0.84665 0
M  V30 253 O 26.8026 -1.59378 -0.703164 0
M  V30 254 C 23.9346 -3.16264 -1.2724 0
M  V30 255 H 25.1276 -2.95294 0.523609 0
M  V30 256 H 22.6806 -1.532 0.309745 0
M  V30 257 H 23.4156 -2.54091 -2.01514 0
M  V30 258 H 23.2006 -3.83769 -0.803968 0
M  V30 259 H 24.6906 -3.77198 -1.79196 0
M  V30 260 N 25.1277 -0.289203 -1.54924 0
M  V30 261 C 26.0577 0.58549 -2.2604 0
M  V30 262 C 27.0387 1.14753 -1.25562 0
M  V30 263 O 28.2237 1.17906 -1.54311 0
M  V30 264 C 25.3537 1.76305 -2.99222 0
M  V30 265 C 24.3077 1.33191 -4.06748 0
M  V30 266 C 23.6337 2.5937 -4.6758 0
M  V30 267 C 24.9337 0.471775 -5.20165 0
M  V30 268 H 26.6277 -0.00763532 -2.99399 0
M  V30 269 H 24.1737 -0.00511229 -1.43999 0
M  V30 270 H 26.1267 2.38097 -3.47689 0
M  V30 271 H 24.8507 2.38223 -2.23422 0
M  V30 272 H 23.5097 0.737121 -3.59113 0
M  V30 273 H 23.1577 3.19576 -3.88433 0
M  V30 274 H 22.8577 2.31228 -5.40192 0
M  V30 275 H 24.3817 3.21985 -5.18804 0
M  V30 276 H 25.7957 0.995056 -5.64599 0
M  V30 277 H 24.1927 0.284639 -5.99425 0
M  V30 278 H 25.2627 -0.506041 -4.82252 0
M  V30 279 N 26.6058 1.57591 -0.0167156 0
M  V30 280 C 27.8548 1.90461 0.663877 0
M  V30 281 C 28.1678 0.893515 1.73999 0
M  V30 282 O 29.3738 1.11302 2.47637 0
M  V30 283 C 27.8298 3.38155 1.23204 0
M  V30 284 C 27.4378 4.47597 0.189866 0
M  V30 285 C 29.1818 3.80111 1.88986 0
M  V30 286 C 27.0888 5.86379 0.768964 0
M  V30 287 H 26.0188 0.710738 0.251729 0
M  V30 288 H 28.6698 1.83326 -0.0799926 0
M  V30 289 H 27.0518 3.40182 2.02712 0
M  V30 290 H 28.2258 4.57112 -0.581846 0
M  V30 291 H 26.5408 4.14766 -0.368475 0
M  V30 292 H 29.1378 4.81145 2.33247 0
M  V30 293 H 29.4808 3.14511 2.72743 0
M  V30 294 H 30.0138 3.80454 1.16187 0
M  V30 295 H 26.7528 6.55493 -0.0301957 0
M  V30 296 H 26.2728 5.80496 1.50945 0
M  V30 297 H 27.9518 6.34563 1.26251 0
M  V30 298 N 28.0839 -0.256276 1.55502 0
M  V30 299 C 29.3089 -1.00766 1.81276 0
M  V30 300 C 29.7339 -1.78524 0.59252 0
M  V30 301 O 29.0919 -1.75413 -0.45827 0
M  V30 302 C 29.1399 -1.92869 3.04687 0
M  V30 303 O 28.2439 -3.019 2.80945 0
M  V30 304 H 27.5849 -0.287224 0.598664 0
M  V30 305 H 30.1149 -0.280109 2.02674 0
M  V30 306 H 30.1249 -2.34511 3.33869 0
M  V30 307 H 28.7999 -1.35689 3.93143 0
M  V30 308 H 27.3769 -2.64454 2.62904 0
M  V30 309 N 29.562 -1.4872 -0.521534 0
M  V30 310 C 30.79 -1.60843 -1.30142 0
M  V30 311 C 31.205 -0.271897 -1.86832 0
M  V30 312 O 30.562 0.739969 -1.66825 0
M  V30 313 C 30.613 -2.66155 -2.4463 0
M  V30 314 O 30.334 -3.94623 -1.90275 0
M  V30 315 C 31.835 -2.88795 -3.36322 0
M  V30 316 H 29.055 -0.542075 -0.395468 0
M  V30 317 H 31.599 -1.94609 -0.628285 0
M  V30 318 H 29.754 -2.35224 -3.07812 0
M  V30 319 H 30.168 -4.52468 -2.65279 0
M  V30 320 H 31.642 -3.66264 -4.12983 0
M  V30 321 H 32.119 -1.97934 -3.9207 0
M  V30 322 H 32.725 -3.21063 -2.78924 0
M  V30 323 N 31.0401 0.771051 -1.3745 0
M  V30 324 C 31.9721 1.89352 -1.29146 0
M  V30 325 C 32.9851 1.61477 -0.207124 0
M  V30 326 O 34.1741 1.72382 -0.463324 0
M  V30 327 C 31.2741 3.24596 -0.974195 0
M  V30 328 C 30.4471 3.80111 -2.16413 0
M  V30 329 C 29.5061 4.93832 -1.81703 0
M  V30 330 O 28.5321 5.09382 -2.54006 0
M  V30 331 N 29.7341 5.75483 -0.761573 0
M  V30 332 H 32.4991 1.96991 -2.25864 0
M  V30 333 H 30.0601 0.950191 -1.31084 0
M  V30 334 H 32.0521 3.98193 -0.722828 0
M  V30 335 H 30.6221 3.12454 -0.0955527 0
M  V30 336 H 29.8421 2.98284 -2.57721 0
M  V30 337 H 31.1301 4.13932 -2.95867 0
M  V30 338 H 30.5281 5.65469 -0.161609 0
M  V30 339 H 29.0851 6.49302 -0.570064 0
M  V30 340 N 32.5182 1.22032 0.997298 0
M  V30 341 C 33.4812 0.987909 2.06816 0
M  V30 342 C 34.4812 -0.0440084 1.6074 0
M  V30 343 O 35.6712 0.194053 1.73116 0
M  V30 344 C 32.8032 0.49132 3.37341 0
M  V30 345 H 33.9962 1.93803 2.28868 0
M  V30 346 H 31.5492 1.03838 1.16822 0
M  V30 347 H 32.2842 -0.463364 3.20973 0
M  V30 348 H 32.0692 1.23575 3.72118 0
M  V30 349 H 33.5592 0.348824 4.16141 0
M  V30 350 N 33.9963 -1.19345 1.0293 0
M  V30 351 C 35.2423 -1.89585 0.736824 0
M  V30 352 C 35.5973 -1.78148 -0.726703 0
M  V30 353 O 34.8903 -1.16332 -1.52242 0
M  V30 354 C 35.0843 -3.39292 1.12319 0
M  V30 355 C 34.9133 -3.65298 2.62273 0
M  V30 356 C 33.6833 -3.83304 3.29251 0
M  V30 357 C 35.8813 -3.6682 3.60482 0
M  V30 358 N 33.8633 -3.96944 4.68304 0
M  V30 359 C 35.2343 -3.86037 4.85155 0
M  V30 360 C 37.2893 -3.49848 3.54275 0
M  V30 361 C 35.9923 -3.9004 6.04369 0
M  V30 362 C 38.0183 -3.55129 4.72903 0
M  V30 363 C 37.3803 -3.74831 5.9639 0
M  V30 364 H 33.4793 -0.712856 0.321497 0
M  V30 365 H 36.0633 -1.43427 1.31669 0
M  V30 366 H 34.2343 -3.84172 0.571524 0
M  V30 367 H 35.9663 -3.97055 0.78292 0
M  V30 368 H 32.7213 -3.82211 2.79663 0
M  V30 369 H 33.1453 -4.07613 5.40538 0
M  V30 370 H 37.7873 -3.33572 2.59788 0
M  V30 371 H 35.5053 -4.05108 6.99223 0
M  V30 372 H 39.0913 -3.43287 4.69729 0
M  V30 373 H 37.9713 -3.78792 6.86649 0
M  V30 374 N 35.4744 -0.807222 -1.35358 0
M  V30 375 C 36.6994 -0.399309 -2.0352 0
M  V30 376 C 37.1244 0.981986 -1.60433 0
M  V30 377 O 36.4824 1.63601 -0.781299 0
M  V30 378 C 36.5304 -0.491552 -3.57234 0
M  V30 379 O 35.6344 0.494754 -4.09421 0
M  V30 380 H 34.9754 -0.166682 -0.642739 0
M  V30 381 H 37.5054 -1.09328 -1.72941 0
M  V30 382 H 37.5154 -0.361588 -4.06395 0
M  V30 383 H 36.1904 -1.49907 -3.87944 0
M  V30 384 H 34.7674 0.324977 -3.71481 0
M  V30 385 N 36.9525 1.47285 -0.560781 0
M  V30 386 C 37.9155 2.28535 0.174488 0
M  V30 387 C 38.9155 1.37153 0.839388 0
M  V30 388 O 40.1055 1.59748 0.694702 0
M  V30 389 C 37.2375 3.16934 1.25561 0
M  V30 390 H 38.4305 2.95012 -0.539262 0
M  V30 391 H 35.9835 1.53034 -0.317865 0
M  V30 392 H 36.7185 2.55157 2.00164 0
M  V30 393 H 36.5035 3.8419 0.783604 0
M  V30 394 H 37.9935 3.78143 1.77193 0
M  V30 395 N 38.4306 0.297415 1.54768 0
M  V30 396 C 39.6786 -0.312295 1.99673 0
M  V30 397 C 39.9996 -1.54686 1.18732 0
M  V30 398 O 39.2696 -1.93854 0.282382 0
M  V30 399 H 37.8496 -0.118381 0.73756 0
M  V30 400 H 40.5116 0.407915 1.90583 0
M  V30 401 H 39.6076 -0.586813 3.06534 0
M  V30 402 N 39.9087 -1.5758 0.0250728 0
M  V30 403 C 41.1557 -1.91633 -0.654444 0
M  V30 404 C 41.4837 -0.901103 -1.72367 0
M  V30 405 O 40.7387 0.0905647 -1.9549 0
M  V30 406 C 41.0377 -3.32421 -1.31268 0
M  V30 407 C 40.7037 -4.49344 -0.374223 0
M  V30 408 C 39.3657 -4.8106 -0.115911 0
M  V30 409 C 41.7177 -5.20498 0.270432 0
M  V30 410 C 39.0457 -5.8129 0.79493 0
M  V30 411 C 41.3977 -6.21699 1.1693 0
M  V30 412 C 40.0617 -6.51859 1.43655 0
M  V30 413 H 39.3317 -0.701236 -0.239478 0
M  V30 414 H 41.9787 -1.91307 0.0859734 0
M  V30 415 H 40.2837 -3.28989 -2.12775 0
M  V30 416 H 41.9807 -3.56038 -1.84494 0
M  V30 417 H 38.5707 -4.24579 -0.58573 0
M  V30 418 H 42.7547 -4.96229 0.0839194 0
M  V30 419 H 38.0107 -6.03005 1.00973 0
M  V30 420 H 42.1847 -6.75955 1.67504 0
M  V30 421 H 39.8117 -7.2934 2.144 0
M  V30 422 N 41.3868 0.248026 -1.55636 0
M  V30 423 C 42.3188 1.32993 -1.8667 0
M  V30 424 C 43.3318 1.44345 -0.752877 0
M  V30 425 O 44.5208 1.45715 -1.03098 0
M  V30 426 C 41.6208 2.70863 -2.03682 0
M  V30 427 C 40.7938 2.81792 -3.34532 0
M  V30 428 C 39.8528 4.005 -3.41301 0
M  V30 429 O 38.8788 3.9008 -4.14519 0
M  V30 430 N 40.0808 5.13618 -2.70512 0
M  V30 431 H 42.8458 1.06707 -2.8006 0
M  V30 432 H 40.4068 0.438129 -1.55859 0
M  V30 433 H 42.3988 3.48612 -2.05553 0
M  V30 434 H 40.9688 2.89862 -1.17041 0
M  V30 435 H 40.1888 1.90729 -3.44987 0
M  V30 436 H 41.4768 2.86043 -4.20781 0
M  V30 437 H 40.8748 5.24975 -2.10755 0
M  V30 438 H 39.4318 5.89505 -2.78077 0
M  V30 439 N 42.8649 1.48995 0.513639 0
M  V30 440 C 43.7949 1.67636 1.62544 0
M  V30 441 C 44.7759 0.525087 1.61793 0
M  V30 442 O 45.9609 0.759502 1.78732 0
M  V30 443 C 43.0909 1.73114 3.01079 0
M  V30 444 C 42.0449 2.87905 3.16693 0
M  V30 445 C 41.3709 2.78486 4.56453 0
M  V30 446 C 42.6709 4.29005 2.97913 0
M  V30 447 H 44.3649 2.60716 1.47198 0
M  V30 448 H 41.9109 1.25465 0.706714 0
M  V30 449 H 43.8639 1.84742 3.78746 0
M  V30 450 H 42.5879 0.766241 3.17484 0
M  V30 451 H 41.2469 2.75859 2.41448 0
M  V30 452 H 40.8949 1.7993 4.69717 0
M  V30 453 H 40.5949 3.55523 4.67843 0
M  V30 454 H 42.1189 2.92104 5.36197 0
M  V30 455 H 43.5329 4.41798 3.65359 0
M  V30 456 H 41.9299 5.07166 3.20785 0
M  V30 457 H 42.9999 4.44329 1.94165 0
M  V30 458 N 44.343 -0.763751 1.37857 0
M  V30 459 C 45.291 -1.89864 1.34367 0
M  V30 460 C 46.285 -1.67816 0.231143 0
M  V30 461 O 47.491 -1.75508 0.399617 0
M  V30 462 H 43.866 -0.624501 0.41893 0
M  V30 463 H 45.837 -1.89925 2.30155 0
M  V30 464 C 44.586 -3.27227 1.1755 0
M  V30 465 H 43.909 -3.44773 2.02414 0
M  V30 466 H 45.349 -4.06911 1.1916 0
M  V30 467 C 43.808 -3.36692 -0.118311 0
M  V30 468 O 44.338 -3.86374 -1.09902 0
M  V30 469 N 42.544 -2.90092 -0.171717 0
M  V30 470 H 42.091 -2.49853 0.627012 0
M  V30 471 H 42.049 -2.96806 -1.03699 0
M  V30 472 N 45.8211 -1.22559 -0.990812 0
M  V30 473 C 46.7311 -1.01394 -2.11557 0
M  V30 474 C 47.7471 0.0383962 -1.73958 0
M  V30 475 O 48.9231 -0.154787 -2.00804 0
M  V30 476 C 45.9881 -0.596569 -3.41529 0
M  V30 477 C 45.0491 -1.72276 -3.93217 0
M  V30 478 C 44.2821 -1.32521 -5.16985 0
M  V30 479 O 44.5051 -0.204909 -5.70032 0
M  V30 480 O 43.4391 -2.14247 -5.62478 0
M  V30 481 H 47.2651 -1.95633 -2.32296 0
M  V30 482 H 44.8501 -1.01172 -1.0993 0
M  V30 483 H 46.7321 -0.374263 -4.19735 0
M  V30 484 H 45.4071 0.316939 -3.22145 0
M  V30 485 H 44.3141 -1.99961 -3.16174 0
M  V30 486 H 45.6471 -2.61421 -4.17037 0
M  V30 487 N 47.2992 1.18797 -1.03562 0
M  V30 488 C 48.5462 1.8865 -0.736023 0
M  V30 489 C 48.8742 1.80041 0.735889 0
M  V30 490 O 48.1292 1.19179 1.55225 0
M  V30 491 C 48.4282 3.38692 -1.14117 0
M  V30 492 C 48.0942 3.67504 -2.6125 0
M  V30 493 C 46.7562 3.75078 -3.01447 0
M  V30 494 C 49.1082 3.80293 -3.56408 0
M  V30 495 C 46.4362 3.92915 -4.35701 0
M  V30 496 C 48.7882 3.99645 -4.90374 0
M  V30 497 C 47.4522 4.05453 -5.30249 0
M  V30 498 H 46.7222 0.690321 -0.26933 0
M  V30 499 H 49.3692 1.40641 -1.29971 0
M  V30 500 H 47.6742 3.88645 -0.496202 0
M  V30 501 H 49.3712 3.91072 -0.886789 0
M  V30 502 H 45.9612 3.62223 -2.29113 0
M  V30 503 H 50.1452 3.73779 -3.26501 0
M  V30 504 H 45.4012 3.95653 -4.66121 0
M  V30 505 H 49.5752 4.08482 -5.64017 0
M  V30 506 H 47.2022 4.19027 -6.34288 0
M  V30 507 N 48.7773 0.814389 1.34928 0
M  V30 508 C 50.0023 0.410097 2.03305 0
M  V30 509 C 50.4273 -0.973464 1.60951 0
M  V30 510 O 49.7853 -1.63185 0.789964 0
M  V30 511 C 49.8333 0.51049 3.56968 0
M  V30 512 O 48.9373 -0.473035 4.09678 0
M  V30 513 H 48.2783 0.170088 0.641846 0
M  V30 514 H 50.8083 1.10244 1.72358 0
M  V30 515 H 50.8183 0.383135 4.06197 0
M  V30 516 H 49.4933 1.51963 3.87144 0
M  V30 517 H 48.0703 -0.305272 3.71648 0
M  V30 518 N 50.2554 -1.46986 0.568584 0
M  V30 519 C 51.4804 -2.07335 0.0520528 0
M  V30 520 C 51.9054 -1.41675 -1.23733 0
M  V30 521 O 51.2634 -0.495623 -1.74394 0
M  V30 522 C 51.3114 -3.60417 -0.11501 0
M  V30 523 O 50.4154 -3.95309 -1.17492 0
M  V30 524 H 49.7564 -0.661597 0.0564385 0
M  V30 525 H 52.2864 -1.88837 0.787507 0
M  V30 526 H 52.2964 -4.06698 -0.325644 0
M  V30 527 H 50.9714 -4.07601 0.826675 0
M  V30 528 H 49.5484 -3.60757 -0.943869 0
M  V30 529 N 51.7335 -0.305618 -1.54608 0
M  V30 530 C 52.9585 0.307562 -2.05107 0
M  V30 531 C 53.3835 1.46385 -1.18123 0
M  V30 532 O 52.7415 1.8034 -0.186324 0
M  V30 533 C 52.7895 0.73704 -3.52987 0
M  V30 534 O 51.8935 1.84134 -3.6901 0
M  V30 535 H 51.2345 0.0589143 -0.661381 0
M  V30 536 H 53.7645 -0.448807 -1.99617 0
M  V30 537 H 53.7745 1.02459 -3.94925 0
M  V30 538 H 52.4495 -0.108773 -4.15758 0
M  V30 539 H 51.0265 1.55398 -3.38978 0
M  V30 540 N 53.2116 1.57565 -0.0334293 0
M  V30 541 C 54.4596 1.91598 0.642999 0
M  V30 542 C 54.7806 0.910847 1.7242 0
M  V30 543 O 54.0506 -0.0469931 1.95844 0
M  V30 544 H 52.6306 0.707228 0.240496 0
M  V30 545 H 55.2926 1.94726 -0.0822488 0
M  V30 546 H 54.3886 2.92336 1.09298 0
M  V30 547 N 54.6897 -0.239769 1.55765 0
M  V30 548 C 55.6197 -1.30052 1.9393 0
M  V30 549 C 56.6007 -1.49839 0.805132 0
M  V30 550 O 57.7857 -1.62328 1.06599 0
M  V30 551 C 54.9157 -2.65391 2.2402 0
M  V30 552 C 53.8697 -2.60289 3.39755 0
M  V30 553 C 53.1957 -3.99489 3.55405 0
M  V30 554 C 54.4957 -2.16654 4.75246 0
M  V30 555 H 56.1897 -0.983573 2.82783 0
M  V30 556 H 53.7357 -0.471701 1.36055 0
M  V30 557 H 55.6887 -3.3974 2.49308 0
M  V30 558 H 54.4127 -2.98736 1.32 0
M  V30 559 H 53.0717 -1.88398 3.14487 0
M  V30 560 H 52.7197 -4.30112 2.60793 0
M  V30 561 H 52.4197 -3.96962 4.33238 0
M  V30 562 H 53.9437 -4.75528 3.83022 0
M  V30 563 H 55.3577 -2.80737 4.99859 0
M  V30 564 H 53.7547 -2.25223 5.56232 0
M  V30 565 H 54.8247 -1.11835 4.71827 0
M  V30 566 N 56.1678 -1.49265 -0.50573 0
M  V30 567 C 57.4158 -1.582 -1.25766 0
M  V30 568 C 57.7368 -0.268482 -1.93143 0
M  V30 569 O 57.0068 0.711833 -1.8251 0
M  V30 570 H 55.5868 -0.582873 -0.467191 0
M  V30 571 H 58.2488 -1.85865 -0.586525 0
M  V30 572 H 57.3448 -2.37563 -2.02412 0
M  V30 573 N 57.6459 0.756429 -1.3826 0
M  V30 574 C 59.0619 1.0591 -1.19395 0
M  V30 575 C 59.2619 2.01459 -0.0406567 0
M  V30 576 O 58.3179 2.44909 0.614467 0
M  V30 577 C 59.6309 1.64191 -2.51916 0
M  V30 578 C 61.1789 1.76376 -2.58574 0
M  V30 579 C 61.6539 2.38069 -3.91264 0
M  V30 580 N 63.1449 2.45503 -3.92788 0
M  V30 581 C 63.8799 2.94126 -4.92217 0
M  V30 582 N 63.3759 3.42805 -6.02043 0
M  V30 583 N 65.1689 2.9314 -4.7961 0
M  V30 584 H 57.3199 0.122313 -2.12048 0
M  V30 585 H 59.5829 0.116892 -0.940766 0
M  V30 586 H 59.2889 1.01451 -3.3675 0
M  V30 587 H 59.1629 2.6329 -2.70108 0
M  V30 588 H 61.5499 2.38244 -1.74137 0
M  V30 589 H 61.6309 0.759894 -2.44252 0
M  V30 590 H 61.2749 1.76835 -4.76121 0
M  V30 591 H 61.2049 3.39091 -4.02895 0
M  V30 592 H 63.6959 2.1107 -3.13461 0
M  V30 593 H 64.0089 3.78354 -6.73846 0
M  V30 594 H 62.3539 3.4087 -6.05667 0
M  V30 595 H 65.5449 2.54419 -3.92923 0
M  V30 596 H 65.7179 3.30721 -5.5725 0
M  V30 597 N 59.124 1.23083 0.984299 0
M  V30 598 C 60.087 1.00979 2.05757 0
M  V30 599 C 61.087 -0.0269573 1.60777 0
M  V30 600 O 62.277 0.212403 1.729 0
M  V30 601 C 59.409 0.527072 3.36801 0
M  V30 602 H 60.602 1.9622 2.26799 0
M  V30 603 H 58.155 1.05072 1.15714 0
M  V30 604 H 58.89 -0.429294 3.21446 0
M  V30 605 H 58.675 1.27515 3.70786 0
M  V30 606 H 60.165 0.392942 4.15747 0
M  V30 607 N 60.6021 -1.18246 1.0419 0
M  V30 608 C 61.8321 -1.91916 0.764961 0
M  V30 609 C 62.2401 -1.76485 -0.681898 0
M  V30 610 O 61.5831 -1.09275 -1.47664 0
M  V30 611 C 61.6451 -3.4373 1.05309 0
M  V30 612 C 61.3091 -3.8294 2.4941 0
M  V30 613 C 62.3061 -3.86621 3.47592 0
M  V30 614 C 59.9911 -4.142 2.84155 0
M  V30 615 C 61.9851 -4.21013 4.78568 0
M  V30 616 C 59.6721 -4.48262 4.15337 0
M  V30 617 C 60.6701 -4.51645 5.12353 0
M  V30 618 O 60.3581 -4.84911 6.41183 0
M  V30 619 H 60.0901 -0.61606 0.278292 0
M  V30 620 H 62.6441 -1.50947 1.39299 0
M  V30 621 H 60.8741 -3.84946 0.367933 0
M  V30 622 H 62.5631 -3.9865 0.763752 0
M  V30 623 H 63.3291 -3.62607 3.22089 0
M  V30 624 H 59.2081 -4.10743 2.09311 0
M  V30 625 H 62.7521 -4.23568 5.54289 0
M  V30 626 H 58.6491 -4.71737 4.40607 0
M  V30 627 H 59.4171 -5.02809 6.45852 0
M  V30 628 N 62.0802 -0.821533 -1.34494 0
M  V30 629 C 63.3052 -0.420873 -2.03085 0
M  V30 630 C 63.7302 0.964915 -1.61465 0
M  V30 631 O 63.0882 1.62763 -0.798607 0
M  V30 632 C 63.1362 -0.529414 -3.56693 0
M  V30 633 O 62.2402 0.451302 -4.09923 0
M  V30 634 H 61.5812 -0.173489 -0.640935 0
M  V30 635 H 64.1112 -1.11157 -1.71771 0
M  V30 636 H 64.1212 -0.404671 -4.05988 0
M  V30 637 H 62.7962 -1.54014 -3.86332 0
M  V30 638 H 61.3732 0.285558 -3.71805 0
M  V30 639 N 63.5583 1.46682 -0.576371 0
M  V30 640 C 64.8063 2.02013 -0.0594163 0
M  V30 641 C 65.1273 1.45101 1.30271 0
M  V30 642 O 64.3973 0.633317 1.8538 0
M  V30 643 H 62.9773 0.746759 -0.0189745 0
M  V30 644 H 65.6393 1.79862 -0.750717 0
M  V30 645 H 64.7353 3.12097 0.014345 0
M  V30 646 N 65.0364 0.313813 1.54444 0
M  V30 647 C 65.9464 -0.565714 2.27677 0
M  V30 648 C 66.9624 -1.13754 1.31666 0
M  V30 649 O 68.1384 -1.15959 1.64668 0
M  V30 650 C 65.2034 -1.71528 3.01296 0
M  V30 651 C 64.2644 -1.17624 4.12872 0
M  V30 652 C 63.4974 -2.27102 4.8297 0
M  V30 653 O 63.7204 -3.47256 4.52514 0
M  V30 654 O 62.6544 -1.9307 5.70094 0
M  V30 655 H 66.4804 0.0287296 3.03686 0
M  V30 656 H 64.0654 0.0798312 1.49187 0
M  V30 657 H 65.9474 -2.38476 3.4743 0
M  V30 658 H 64.6224 -2.29608 2.2817 0
M  V30 659 H 63.5294 -0.472124 3.71109 0
M  V30 660 H 64.8624 -0.640695 4.88012 0
M  V30 661 N 66.5145 -1.57545 0.0417849 0
M  V30 662 C 67.7625 -1.91937 -0.632829 0
M  V30 663 C 68.0835 -0.919978 -1.71934 0
M  V30 664 O 67.3535 0.0366064 -1.95866 0
M  V30 665 H 65.9335 -0.708493 -0.236742 0
M  V30 666 H 68.5955 -1.9468 0.0925745 0
M  V30 667 H 67.6915 -2.92912 -1.07746 0
M  V30 668 N 67.9926 0.231505 -1.5589 0
M  V30 669 C 68.9556 1.27028 -1.90779 0
M  V30 670 C 69.9556 1.40308 -0.785507 0
M  V30 671 O 71.1456 1.38744 -1.05336 0
M  V30 672 C 68.2776 2.64566 -2.14983 0
M  V30 673 H 69.4706 0.973017 -2.83677 0
M  V30 674 H 67.0236 0.471486 -1.49019 0
M  V30 675 H 67.7586 2.99406 -1.24604 0
M  V30 676 H 67.5436 2.56305 -2.96732 0
M  V30 677 H 69.0336 3.39543 -2.43105 0
M  V30 678 N 69.4707 1.49531 0.497807 0
M  V30 679 C 70.7197 1.58426 1.24837 0
M  V30 680 C 71.0327 0.277643 1.93619 0
M  V30 681 O 72.2387 0.24517 2.70391 0
M  V30 682 C 70.6947 2.79538 2.26686 0
M  V30 683 C 70.3027 4.16971 1.63828 0
M  V30 684 C 72.0467 2.97764 3.0255 0
M  V30 685 C 69.9537 5.29301 2.63807 0
M  V30 686 H 68.8837 0.58989 0.469623 0
M  V30 687 H 71.5347 1.75923 0.521857 0
M  V30 688 H 69.9167 2.55542 3.02514 0
M  V30 689 H 71.0907 4.51116 0.939711 0
M  V30 690 H 69.4057 4.04129 1.00342 0
M  V30 691 H 72.0027 3.78856 3.77323 0
M  V30 692 H 72.3457 2.08448 3.60354 0
M  V30 693 H 72.8787 3.21815 2.33838 0
M  V30 694 H 69.6177 6.20687 2.10779 0
M  V30 695 H 69.1377 4.99606 3.31894 0
M  V30 696 H 70.8167 5.58768 3.2617 0
M  V30 697 N 70.9488 -0.749086 1.3866 0
M  V30 698 C 71.9118 -1.84457 1.36045 0
M  V30 699 C 72.9118 -1.58682 0.260122 0
M  V30 700 O 74.1018 -1.66343 0.517261 0
M  V30 701 C 71.2338 -3.22008 1.11911 0
M  V30 702 H 72.4268 -1.88182 2.33512 0
M  V30 703 H 69.9798 -0.951266 1.24019 0
M  V30 704 H 70.7148 -3.2395 0.150686 0
M  V30 705 H 70.4998 -3.42111 1.91579 0
M  V30 706 H 71.9898 -4.0208 1.12788 0
M  V30 707 N 72.4269 -1.23603 -0.977757 0
M  V30 708 C 73.7039 -0.977897 -1.69401 0
M  V30 709 C 74.0839 0.502738 -2.05026 0
M  V30 710 O 73.4319 1.47459 -1.74551 0
M  V30 711 C 73.6419 -1.89077 -2.93345 0
M  V30 712 C 74.9899 -2.15579 -3.65802 0
M  V30 713 O 76.0139 -1.86648 -3.03383 0
M  V30 714 O 74.8729 -2.64658 -4.78141 0
M  V30 715 H 71.9669 -0.369025 -0.740101 0
M  V30 716 H 74.5129 -1.34657 -1.03274 0
M  V30 717 H 73.2849 -2.89158 -2.63634 0
M  V30 718 H 72.9079 -1.52463 -3.67207 0
M  V30 719 N 73.905 1.17692 -1.04816 0
M  V30 720 C 75.182 1.83768 -0.669963 0
M  V30 721 C 75.562 1.93232 0.849986 0
M  V30 722 O 74.91 1.46397 1.75443 0
M  V30 723 C 75.12 3.21641 -1.35455 0
M  V30 724 C 76.468 3.97592 -1.49017 0
M  V30 725 O 77.492 3.31107 -1.31326 0
M  V30 726 O 76.351 5.16729 -1.77914 0
M  V30 727 H 73.445 0.792799 -0.235368 0
M  V30 728 H 75.991 1.25021 -1.14751 0
M  V30 729 H 74.763 3.097 -2.39168 0
M  V30 730 H 74.386 3.88052 -0.866107 0
M  V30 731 N 75.3831 0.828654 1.34056 0
M  V30 732 C 76.3461 0.259927 2.27721 0
M  V30 733 C 77.3461 -0.565478 1.50529 0
M  V30 734 O 78.5361 -0.38075 1.69988 0
M  V30 735 C 75.6681 -0.634944 3.34935 0
M  V30 736 H 76.8611 1.0863 2.79534 0
M  V30 737 H 74.4141 0.600951 1.44285 0
M  V30 738 H 75.1491 -1.48416 2.88346 0
M  V30 739 H 74.9341 -0.0444999 3.92075 0
M  V30 740 H 76.4241 -1.02648 4.04788 0
M  V30 741 N 76.8612 -1.46375 0.584142 0
M  V30 742 C 78.1092 -2.01978 0.0701287 0
M  V30 743 C 78.4302 -1.4579 -1.295 0
M  V30 744 O 77.7002 -0.64314 -1.85042 0
M  V30 745 H 76.2802 -0.746648 0.0229345 0
M  V30 746 H 78.9422 -1.79461 0.760245 0
M  V30 747 H 78.0382 -3.121 0.0022064 0
M  V30 748 N 78.3393 -0.321999 -1.54275 0
M  V30 749 C 79.2873 0.560206 -2.25753 0
M  V30 750 C 80.2813 1.11984 -1.27106 0
M  V30 751 O 81.4873 1.06806 -1.44888 0
M  V30 752 H 77.8623 0.199304 -0.725108 0
M  V30 753 H 79.8333 -0.0649365 -2.98329 0
M  V30 754 C 78.5823 1.71023 -3.02731 0
M  V30 755 H 77.9053 1.28885 -3.78456 0
M  V30 756 H 79.3453 2.30314 -3.55993 0
M  V30 757 C 77.8043 2.62692 -2.10938 0
M  V30 758 O 78.3343 3.64364 -1.6912 0
M  V30 759 N 76.5403 2.30891 -1.76459 0
M  V30 760 H 76.0873 1.48253 -2.10663 0
M  V30 761 H 76.0453 2.92487 -1.1532 0
M  V30 762 N 79.8174 1.5752 -0.0501392 0
M  V30 763 C 81.0634 1.92936 0.624798 0
M  V30 764 C 81.3964 0.928685 1.70555 0
M  V30 765 O 80.6714 -0.0454779 1.94447 0
M  V30 766 C 80.9544 3.38737 1.22185 0
M  V30 767 C 80.8074 4.49552 0.149218 0
M  V30 768 C 82.1264 3.84913 2.13378 0
M  V30 769 H 79.2454 0.701604 0.225657 0
M  V30 770 H 81.8874 1.89671 -0.111693 0
M  V30 771 H 80.0374 3.4165 1.84953 0
M  V30 772 H 81.7094 4.58768 -0.482648 0
M  V30 773 H 79.9524 4.30638 -0.522841 0
M  V30 774 H 80.6234 5.48653 0.606966 0
M  V30 775 H 83.0994 3.8387 1.60572 0
M  V30 776 H 81.9754 4.87584 2.52097 0
M  V30 777 H 82.2364 3.21611 3.03346 0
M  V30 778 N 81.2955 -0.223234 1.56011 0
M  V30 779 C 82.5205 -0.968978 1.83373 0
M  V30 780 C 82.9455 -1.77227 0.630254 0
M  V30 781 O 82.3035 -1.76345 -0.420959 0
M  V30 782 C 82.3515 -1.86363 3.08709 0
M  V30 783 O 81.4555 -2.95873 2.87285 0
M  V30 784 H 80.7965 -0.274461 0.604622 0
M  V30 785 H 83.3265 -0.237056 2.03222 0
M  V30 786 H 83.3365 -2.27376 3.38768 0
M  V30 787 H 82.0115 -1.27319 3.95933 0
M  V30 788 H 80.5885 -2.58818 2.68454 0
M  V30 789 N 82.7736 -1.49793 -0.48987 0
M  V30 790 C 84.1896 -1.36803 -0.822022 0
M  V30 791 C 84.3896 -0.409652 -1.97292 0
M  V30 792 O 83.4456 0.154614 -2.52026 0
M  V30 793 C 84.7586 -2.77768 -1.15175 0
M  V30 794 C 86.3066 -2.86549 -1.25931 0
M  V30 795 C 86.7816 -4.28306 -1.62228 0
M  V30 796 N 88.2726 -4.31169 -1.69256 0
M  V30 797 C 89.0076 -5.37832 -1.98807 0
M  V30 798 N 88.5036 -6.54726 -2.26507 0
M  V30 799 N 90.2966 -5.25258 -2.00152 0
M  V30 800 H 82.4476 -2.10691 0.268881 0
M  V30 801 H 84.7106 -0.946241 0.057728 0
M  V30 802 H 84.4166 -3.49648 -0.379335 0
M  V30 803 H 84.2906 -3.13836 -2.09253 0
M  V30 804 H 86.6776 -2.14899 -2.02243 0
M  V30 805 H 86.7586 -2.54049 -0.298776 0
M  V30 806 H 86.4026 -5.00486 -0.864622 0
M  V30 807 H 86.3326 -4.58279 -2.594 0
M  V30 808 H 88.8236 -3.4687 -1.49965 0
M  V30 809 H 89.1366 -7.31833 -2.48276 0
M  V30 810 H 87.4816 -6.57933 -2.23939 0
M  V30 811 H 90.6726 -4.32938 -1.77996 0
M  V30 812 H 90.8456 -6.08476 -2.22848 0
M  V30 813 N 84.2517 0.741722 -1.39055 0
M  V30 814 C 85.1997 1.87702 -1.3737 0
M  V30 815 C 86.1937 1.67427 -0.257812 0
M  V30 816 O 87.3997 1.7485 -0.427489 0
M  V30 817 H 83.7747 0.617757 -0.428812 0
M  V30 818 H 85.7457 1.86239 -2.33147 0
M  V30 819 C 84.4947 3.25315 -1.22741 0
M  V30 820 H 83.8177 3.41509 -2.07873 0
M  V30 821 H 85.2577 4.04964 -1.25618 0
M  V30 822 C 83.7167 3.36838 0.0647316 0
M  V30 823 O 84.2467 3.88073 1.03741 0
M  V30 824 N 82.4527 2.90329 0.125544 0
M  V30 825 H 81.9997 2.48823 -0.666682 0
M  V30 826 H 81.9577 2.98418 0.989639 0
M  V30 827 N 85.7298 1.2412 0.971189 0
M  V30 828 C 87.1408 1.07236 1.52831 0
M  V30 829 C 87.4918 -0.357352 1.92918 0
M  V30 830 O 86.6168 -1.24528 1.76979 0
M  V30 831 C 87.2118 1.94043 2.77728 0
M  V30 832 C 85.7708 1.81394 3.29808 0
M  V30 833 C 84.9178 1.89189 2.02738 0
M  V30 834 H 87.8688 1.37648 0.789864 0
M  V30 835 H 87.8898 1.47066 3.5093 0
M  V30 836 H 87.4018 2.98093 2.4852 0
M  V30 837 H 85.5028 0.801634 3.63874 0
M  V30 838 H 85.6158 2.65294 3.98944 0
M  V30 839 H 83.9798 1.32877 2.17292 0
M  V30 840 H 84.7628 2.94812 1.759 0
M  V30 841 N 87.2079 -1.17134 1.05439 0
M  V30 842 C 88.1709 -2.19439 0.661764 0
M  V30 843 C 89.1709 -1.58199 -0.288042 0
M  V30 844 O 90.3609 -1.74053 -0.0715803 0
M  V30 845 C 87.4929 -3.40889 -0.0276209 0
M  V30 846 H 88.6859 -2.55688 1.56728 0
M  V30 847 H 86.2389 -1.31259 0.848567 0
M  V30 848 H 86.9739 -3.10187 -0.94629 0
M  V30 849 H 86.7589 -3.86586 0.655238 0
M  V30 850 H 88.2489 -4.16603 -0.288342 0
M  V30 851 N 88.686 -0.835752 -1.33615 0
M  V30 852 C 89.616 -0.281739 -2.31794 0
M  V30 853 C 90.597 0.608833 -1.58831 0
M  V30 854 O 91.782 0.533035 -1.86741 0
M  V30 855 C 88.912 0.546612 -3.42971 0
M  V30 856 C 87.866 -0.247904 -4.27281 0
M  V30 857 C 87.192 0.704001 -5.30045 0
M  V30 858 C 88.492 -1.46324 -5.01385 0
M  V30 859 H 90.186 -1.10206 -2.78379 0
M  V30 860 H 87.732 -0.531388 -1.33837 0
M  V30 861 H 89.685 0.944467 -4.1068 0
M  V30 862 H 88.409 1.40011 -2.95067 0
M  V30 863 H 87.068 -0.627281 -3.61194 0
M  V30 864 H 86.716 1.55381 -4.78399 0
M  V30 865 H 86.416 0.176524 -5.87335 0
M  V30 866 H 87.94 1.09944 -6.0062 0
M  V30 867 H 89.354 -1.13871 -5.61877 0
M  V30 868 H 87.751 -1.92728 -5.6831 0
M  V30 869 H 88.821 -2.23467 -4.30338 0
M  V30 870 N 90.1641 1.46063 -0.591896 0
M  V30 871 C 91.4131 2.01547 -0.0786637 0
M  V30 872 C 91.7261 1.46796 1.29268 0
M  V30 873 O 92.9321 1.94157 1.89777 0
M  V30 874 C 91.3881 3.59787 -0.0900024 0
M  V30 875 C 90.9961 4.23534 -1.46023 0
M  V30 876 C 92.7401 4.22895 0.368806 0
M  V30 877 C 90.6471 5.73881 -1.4288 0
M  V30 878 H 89.5771 0.753564 -0.0256388 0
M  V30 879 H 92.2281 1.677 -0.744905 0
M  V30 880 H 90.6101 3.90752 0.642586 0
M  V30 881 H 91.7841 4.04167 -2.21328 0
M  V30 882 H 90.0991 3.72558 -1.85982 0
M  V30 883 H 92.6961 5.33116 0.411258 0
M  V30 884 H 93.0391 3.9247 1.38827 0
M  V30 885 H 93.5721 3.9659 -0.31001 0
M  V30 886 H 90.3111 6.0898 -2.42536 0
M  V30 887 H 89.8311 5.95486 -0.718095 0
M  V30 888 H 91.5101 6.36776 -1.14565 0
M  V30 889 N 91.6422 0.330177 1.54103 0
M  V30 890 C 92.8702 -0.272179 2.05102 0
M  V30 891 C 93.2852 -1.45267 1.20595 0
M  V30 892 O 92.6422 -1.8094 0.238144 0
M  V30 893 C 92.6932 -0.70023 3.54653 0
M  V30 894 O 92.4142 0.433301 4.35952 0
M  V30 895 C 93.9152 -1.3647 4.21771 0
M  V30 896 H 91.1352 -0.0549159 0.668749 0
M  V30 897 H 93.6792 0.478285 1.98828 0
M  V30 898 H 91.8342 -1.40066 3.61193 0
M  V30 899 H 92.2482 0.0947539 5.24414 0
M  V30 900 H 93.7222 -1.61509 5.27843 0
M  V30 901 H 94.1992 -2.31409 3.73292 0
M  V30 902 H 94.8052 -0.706675 4.19388 0
M  V30 903 N 93.1203 -1.57491 0.0584922 0
M  V30 904 C 94.0533 -2.07533 -0.948969 0
M  V30 905 C 95.0313 -0.977444 -1.29942 0
M  V30 906 O 96.2153 -1.2499 -1.41102 0
M  V30 907 C 93.3423 -2.52192 -2.2609 0
M  V30 908 C 92.3883 -3.73287 -2.06298 0
M  V30 909 S 93.2213 -5.18603 -1.33459 0
M  V30 910 C 94.3773 -5.66583 -2.65959 0
M  V30 911 H 94.6103 -2.92662 -0.523118 0
M  V30 912 H 92.1433 -1.53631 -0.153954 0
M  V30 913 H 94.1013 -2.78585 -3.01498 0
M  V30 914 H 92.7623 -1.67356 -2.65802 0
M  V30 915 H 91.9553 -4.0248 -3.03357 0
M  V30 916 H 91.5573 -3.47199 -1.39029 0
M  V30 917 H 93.8493 -5.72616 -3.62101 0
M  V30 918 H 94.7923 -6.65684 -2.41393 0
M  V30 919 H 95.2003 -4.94342 -2.72554 0
M  V30 920 N 94.5984 0.214957 -1.56127 0
M  V30 921 C 95.8454 0.938372 -1.79446 0
M  V30 922 C 96.1734 1.8407 -0.628378 0
M  V30 923 O 95.4284 1.91837 0.386925 0
M  V30 924 C 95.7274 1.80314 -3.0858 0
M  V30 925 C 95.3934 1.05349 -4.3842 0
M  V30 926 C 94.0554 0.846435 -4.73697 0
M  V30 927 C 96.4074 0.524588 -5.18553 0
M  V30 928 C 93.7354 0.098683 -5.86617 0
M  V30 929 C 96.0874 -0.209853 -6.32252 0
M  V30 930 C 94.7514 -0.428102 -6.66126 0
M  V30 931 H 94.0214 0.343375 -0.656639 0
M  V30 932 H 96.6684 0.206077 -1.90388 0
M  V30 933 H 94.9734 2.6035 -2.92789 0
M  V30 934 H 96.6704 2.36513 -3.23825 0
M  V30 935 H 93.2604 1.22486 -4.10725 0
M  V30 936 H 97.4444 0.672008 -4.91729 0
M  V30 937 H 92.7004 -0.0805753 -6.11347 0
M  V30 938 H 96.8744 -0.627157 -6.9357 0
M  V30 939 H 94.5014 -1.00944 -7.53468 0
M  V30 940 N 96.0765 1.50051 0.48192 0
M  V30 941 C 97.3535 1.51009 1.2432 0
M  V30 942 C 97.7335 0.248587 2.09631 0
M  V30 943 O 97.0815 -0.768409 2.15192 0
M  V30 944 C 97.2915 2.79981 2.08355 0
M  V30 945 C 98.6395 3.3022 2.66908 0
M  V30 946 O 99.6635 2.81228 2.18607 0
M  V30 947 O 98.5225 4.15595 3.54884 0
M  V30 948 H 95.6165 0.605239 0.563573 0
M  V30 949 H 98.1625 1.62332 0.494627 0
M  V30 950 H 96.9345 3.63275 1.45419 0
M  V30 951 H 96.5575 2.7161 2.90368 0
M  V30 952 N 97.5546 -0.734337 1.39446 0
M  V30 953 C 98.9706 -1.03997 1.21065 0
M  V30 954 C 99.1706 -2.01369 0.0727019 0
M  V30 955 O 98.2266 -2.45856 -0.575426 0
M  V30 956 C 99.5396 -1.60163 2.54496 0
M  V30 957 C 101.088 -1.7224 2.61347 0
M  V30 958 C 101.563 -2.31814 3.95002 0
M  V30 959 N 103.054 -2.39223 3.96644 0
M  V30 960 C 103.789 -2.86258 4.96834 0
M  V30 961 N 103.285 -3.33184 6.07421 0
M  V30 962 N 105.078 -2.85473 4.84213 0
M  V30 963 H 97.2286 -0.0885624 2.12215 0
M  V30 964 H 99.4916 -0.10191 0.942506 0
M  V30 965 H 99.1976 -0.960811 3.38321 0
M  V30 966 H 99.0716 -2.5896 2.74262 0
M  V30 967 H 101.459 -2.35443 1.77906 0
M  V30 968 H 101.54 -0.720939 2.4543 0
M  V30 969 H 101.184 -1.69238 4.78875 0
M  V30 970 H 101.114 -3.32638 4.08239 0
M  V30 971 H 103.605 -2.06057 3.16779 0
M  V30 972 H 103.918 -3.67586 6.7978 0
M  V30 973 H 102.263 -3.31191 6.11013 0
M  V30 974 H 105.454 -2.48136 3.96921 0
M  V30 975 H 105.627 -3.21814 5.62441 0
M  V30 976 N 99.0327 -1.24633 -0.964593 0
M  V30 977 C 100.444 -1.08045 -1.5226 0
M  V30 978 C 100.795 0.347116 -1.93105 0
M  V30 979 O 99.9197 1.23588 -1.77637 0
M  V30 980 C 100.515 -1.95514 -2.76695 0
M  V30 981 C 99.0737 -1.8314 -3.28841 0
M  V30 982 C 98.2207 -1.90262 -2.01732 0
M  V30 983 H 101.172 -1.38064 -0.782553 0
M  V30 984 H 101.193 -1.48925 -3.50145 0
M  V30 985 H 100.705 -2.99407 -2.46936 0
M  V30 986 H 98.8057 -0.82092 -3.63444 0
M  V30 987 H 98.9187 -2.67406 -3.97531 0
M  V30 988 H 97.2827 -1.34027 -2.16584 0
M  V30 989 H 98.0657 -2.9574 -1.74334 0
M  V30 990 N 100.511 1.16574 -1.06058 0
M  V30 991 C 101.739 1.90952 -0.796552 0
M  V30 992 C 102.154 1.77302 0.648808 0
M  V30 993 O 101.511 1.11605 1.44397 0
M  V30 994 C 101.562 3.41736 -1.17894 0
M  V30 995 O 101.283 3.54975 -2.56758 0
M  V30 996 C 102.784 4.33169 -0.942308 0
M  V30 997 H 100.004 0.605594 -0.288959 0
M  V30 998 H 102.548 1.47777 -1.41358 0
M  V30 999 H 100.703 3.82623 -0.606491 0
M  V30 1000 H 101.117 4.4846 -2.72 0
M  V30 1001 H 102.591 5.37439 -1.25952 0
M  V30 1002 H 103.068 4.3903 0.122078 0
M  V30 1003 H 103.674 3.98007 -1.49902 0
M  V30 1004 N 101.989 0.842826 1.3317 0
M  V30 1005 C 103.236 0.440447 1.97652 0
M  V30 1006 C 103.564 -1.00123 1.6675 0
M  V30 1007 O 102.819 -1.7155 0.941761 0
M  V30 1008 C 103.118 0.612607 3.52111 0
M  V30 1009 C 102.784 2.02297 4.02972 0
M  V30 1010 C 101.446 2.40874 4.16573 0
M  V30 1011 C 103.798 2.94402 4.30089 0
M  V30 1012 C 101.126 3.70852 4.54627 0
M  V30 1013 C 103.478 4.23865 4.69597 0
M  V30 1014 C 102.142 4.62392 4.81404 0
M  V30 1015 H 101.412 0.161171 0.72326 0
M  V30 1016 H 104.059 1.07061 1.58777 0
M  V30 1017 H 102.364 -0.100849 3.9167 0
M  V30 1018 H 104.061 0.2815 4.00011 0
M  V30 1019 H 100.651 1.71338 3.92863 0
M  V30 1020 H 104.835 2.65835 4.19101 0
M  V30 1021 H 100.091 4.00501 4.61962 0
M  V30 1022 H 104.265 4.95306 4.89536 0
M  V30 1023 H 101.892 5.63154 5.10648 0
M  V30 1024 N 103.467 -1.45747 0.599634 0
M  V30 1025 C 104.692 -2.07178 0.0960198 0
M  V30 1026 C 105.117 -1.44268 -1.207 0
M  V30 1027 O 104.475 -0.532503 -1.73303 0
M  V30 1028 C 104.523 -3.60579 -0.0385348 0
M  V30 1029 O 103.627 -3.97713 -1.0908 0
M  V30 1030 H 102.968 -0.660251 0.0704593 0
M  V30 1031 H 105.498 -1.87124 0.827385 0
M  V30 1032 H 105.508 -4.07298 -0.239304 0
M  V30 1033 H 104.183 -4.05756 0.912947 0
M  V30 1034 H 102.76 -3.62678 -0.867135 0
M  V30 1035 N 104.945 -0.338344 -1.53925 0
M  V30 1036 C 105.908 0.508299 -2.23493 0
M  V30 1037 C 106.908 1.03175 -1.23335 0
M  V30 1038 O 108.098 0.921826 -1.47811 0
M  V30 1039 C 105.23 1.70754 -2.95052 0
M  V30 1040 H 106.423 -0.100058 -2.99733 0
M  V30 1041 H 103.976 -0.0896198 -1.56043 0
M  V30 1042 H 104.711 2.35474 -2.22986 0
M  V30 1043 H 104.496 1.33946 -3.68512 0
M  V30 1044 H 105.986 2.30818 -3.48013 0
M  V30 1045 N 106.423 1.57458 -0.0668435 0
M  V30 1046 C 107.671 1.92919 0.602214 0
M  V30 1047 C 107.992 0.947215 1.70449 0
M  V30 1048 O 107.262 -0.00544117 1.95899 0
M  V30 1049 H 105.842 0.71217 0.22544 0
M  V30 1050 H 108.504 1.94508 -0.123535 0
M  V30 1051 H 107.6 2.94589 1.03073 0
M  V30 1052 N 107.901 -0.206675 1.56239 0
M  V30 1053 C 108.864 -1.23976 1.92776 0
M  V30 1054 C 109.864 -1.39041 0.807729 0
M  V30 1055 O 111.054 -1.37051 1.0753 0
M  V30 1056 C 108.186 -2.61112 2.19165 0
M  V30 1057 H 109.379 -0.927764 2.85189 0
M  V30 1058 H 106.932 -0.447718 1.4975 0
M  V30 1059 H 107.667 -2.97386 1.29352 0
M  V30 1060 H 107.452 -2.51552 3.00772 0
M  V30 1061 H 108.942 -3.35633 2.48476 0
M  V30 1062 N 109.379 -1.50304 -0.473955 0
M  V30 1063 C 110.625 -1.61389 -1.22806 0
M  V30 1064 C 110.958 -0.311955 -1.91678 0
M  V30 1065 O 110.233 0.686384 -1.81986 0
M  V30 1066 C 110.516 -2.79219 -2.27396 0
M  V30 1067 C 110.369 -4.19286 -1.62848 0
M  V30 1068 C 111.688 -2.92614 -3.28732 0
M  V30 1069 H 108.807 -0.587399 -0.445119 0
M  V30 1070 H 111.449 -1.82681 -0.522265 0
M  V30 1071 H 109.599 -2.61195 -2.87592 0
M  V30 1072 H 111.271 -4.48892 -1.06271 0
M  V30 1073 H 109.514 -4.23677 -0.931693 0
M  V30 1074 H 110.185 -4.97655 -2.38838 0
M  V30 1075 H 112.661 -3.09105 -2.78556 0
M  V30 1076 H 111.537 -3.76688 -3.99246 0
M  V30 1077 H 111.798 -2.03107 -3.92683 0
M  V30 1078 N 110.857 0.726932 -1.39834 0
M  V30 1079 C 112.087 1.51393 -1.40583 0
M  V30 1080 C 112.495 1.892 -0.000740625 0
M  V30 1081 O 111.838 1.55189 0.982951 0
M  V30 1082 C 111.9 2.82588 -2.22226 0
M  V30 1083 C 111.564 2.67169 -3.70769 0
M  V30 1084 C 112.561 2.3518 -4.63666 0
M  V30 1085 C 110.246 2.83788 -4.14451 0
M  V30 1086 C 112.24 2.20002 -5.98229 0
M  V30 1087 C 109.927 2.68229 -5.49087 0
M  V30 1088 C 110.925 2.36382 -6.4079 0
M  V30 1089 O 110.613 2.2093 -7.72946 0
M  V30 1090 H 110.345 0.474168 -0.48181 0
M  V30 1091 H 112.899 0.905247 -1.84376 0
M  V30 1092 H 111.129 3.45746 -1.73195 0
M  V30 1093 H 112.818 3.44247 -2.15055 0
M  V30 1094 H 113.584 2.21984 -4.31217 0
M  V30 1095 H 109.463 3.07566 -3.43401 0
M  V30 1096 H 113.007 1.95067 -6.69772 0
M  V30 1097 H 108.904 2.81006 -5.81125 0
M  V30 1098 H 109.672 2.35937 -7.83757 0
M  V30 1099 N 112.336 1.25143 0.95797 0
M  V30 1100 C 113.585 1.0909 1.69654 0
M  V30 1101 C 113.898 -0.368548 1.92097 0
M  V30 1102 O 115.104 -0.649455 2.63618 0
M  V30 1103 C 113.56 1.90395 3.05414 0
M  V30 1104 C 113.168 3.4081 2.90779 0
M  V30 1105 C 114.912 1.82901 3.83076 0
M  V30 1106 C 112.819 4.14423 4.21909 0
M  V30 1107 H 111.749 0.404625 0.636235 0
M  V30 1108 H 114.4 1.4931 1.06672 0
M  V30 1109 H 112.782 1.42996 3.69281 0
M  V30 1110 H 113.956 3.95859 2.35865 0
M  V30 1111 H 112.271 3.49361 2.26575 0
M  V30 1112 H 114.868 2.35196 4.80195 0
M  V30 1113 H 115.211 0.796224 4.08615 0
M  V30 1114 H 115.744 2.28033 3.25954 0
M  V30 1115 H 112.483 5.18102 4.01561 0
M  V30 1116 H 112.003 3.64159 4.76601 0
M  V30 1117 H 113.682 4.21956 4.90471 0
M  V30 1118 N 113.814 -1.1601 1.06675 0
M  V30 1119 C 115.091 -1.82679 0.699114 0
M  V30 1120 C 115.471 -1.94559 -0.819137 0
M  V30 1121 O 114.819 -1.49169 -1.73092 0
M  V30 1122 C 115.029 -3.19445 1.40555 0
M  V30 1123 C 116.377 -3.95171 1.55323 0
M  V30 1124 O 117.401 -3.28976 1.36577 0
M  V30 1125 O 116.26 -5.13833 1.86112 0
M  V30 1126 H 113.354 -0.788954 0.247951 0
M  V30 1127 H 115.9 -1.23179 1.16726 0
M  V30 1128 H 114.672 -3.05856 2.44065 0
M  V30 1129 H 114.295 -3.86625 0.927733 0
M  V30 1130 N 115.292 -0.849877 -1.32721 0
M  V30 1131 C 116.703 -0.506188 -1.79707 0
M  V30 1132 C 117.054 0.975627 -1.70223 0
M  V30 1133 O 116.179 1.76078 -1.25799 0
M  V30 1134 C 116.774 -0.912044 -3.26293 0
M  V30 1135 C 115.333 -0.620326 -3.71253 0
M  V30 1136 C 114.48 -1.11439 -2.53922 0
M  V30 1137 H 117.431 -1.03754 -1.20087 0
M  V30 1138 H 117.452 -0.226493 -3.79825 0
M  V30 1139 H 116.964 -1.99057 -3.33164 0
M  V30 1140 H 115.065 0.447674 -3.69901 0
M  V30 1141 H 115.178 -1.18327 -4.64258 0
M  V30 1142 H 113.542 -0.534834 -2.49021 0
M  V30 1143 H 114.325 -2.19992 -2.6355 0
M  V30 1144 N 116.77 1.45427 -0.607355 0
M  V30 1145 C 118.047 1.9557 -0.0344566 0
M  V30 1146 C 118.427 1.54979 1.43334 0
M  V30 1147 O 117.775 0.812241 2.13576 0
M  V30 1148 C 117.985 3.48226 -0.232321 0
M  V30 1149 C 119.333 4.2445 -0.113001 0
M  V30 1150 O 120.357 3.55829 -0.162431 0
M  V30 1151 O 119.216 5.465 0.00209442 0
M  V30 1152 H 116.31 0.826222 0.0358667 0
M  V30 1153 H 118.856 1.55594 -0.6774 0
M  V30 1154 H 117.628 3.70739 -1.25174 0
M  V30 1155 H 117.251 3.95092 0.445896 0
M  V30 1156 N 118.248 0.346503 1.53744 0
M  V30 1157 C 119.494 -0.249473 2.0126 0
M  V30 1158 C 119.827 -1.49965 1.23386 0
M  V30 1159 O 119.102 -1.91811 0.32229 0
M  V30 1160 C 119.385 -0.560643 3.55709 0
M  V30 1161 C 119.238 0.701836 4.44291 0
M  V30 1162 C 120.557 -1.36905 4.18264 0
M  V30 1163 H 117.676 -0.0891987 0.731582 0
M  V30 1164 H 120.318 0.467624 1.84156 0
M  V30 1165 H 118.468 -1.17156 3.70414 0
M  V30 1166 H 120.14 1.33974 4.41417 0
M  V30 1167 H 118.383 1.32612 4.13033 0
M  V30 1168 H 119.054 0.43933 5.50249 0
M  V30 1169 H 121.53 -0.852448 4.07275 0
M  V30 1170 H 120.406 -1.55553 5.26398 0
M  V30 1171 H 120.667 -2.37203 3.73078 0
M  V30 1172 N 119.726 -1.57421 0.075193 0
M  V30 1173 C 120.674 -2.14124 -0.908508 0
M  V30 1174 C 121.668 -1.07898 -1.30592 0
M  V30 1175 O 122.874 -1.26273 -1.28277 0
M  V30 1176 H 119.249 -0.684707 -0.310935 0
M  V30 1177 H 121.22 -2.95634 -0.405374 0
M  V30 1178 C 119.969 -2.72044 -2.16535 0
M  V30 1179 H 119.292 -3.53456 -1.86839 0
M  V30 1180 H 120.732 -3.15311 -2.83469 0
M  V30 1181 C 119.191 -1.66968 -2.92615 0
M  V30 1182 O 119.721 -1.0967 -3.86439 0
M  V30 1183 N 117.927 -1.37923 -2.55784 0
M  V30 1184 H 117.474 -1.84706 -1.79559 0
M  V30 1185 H 117.432 -0.67852 -3.06991 0
M  V30 1186 N 121.204 0.198386 -1.56346 0
M  V30 1187 C 122.453 0.917451 -1.79627 0
M  V30 1188 C 122.766 1.8456 -0.64784 0
M  V30 1189 O 123.972 2.60504 -0.764859 0
M  V30 1190 C 122.428 1.68175 -3.18191 0
M  V30 1191 C 122.036 0.798589 -4.40825 0
M  V30 1192 C 123.78 2.39065 -3.50782 0
M  V30 1193 C 121.687 1.56157 -5.70411 0
M  V30 1194 H 120.617 0.346317 -0.669762 0
M  V30 1195 H 123.268 0.170801 -1.82703 0
M  V30 1196 H 121.65 2.47216 -3.09354 0
M  V30 1197 H 122.824 0.0470665 -4.60776 0
M  V30 1198 H 121.139 0.200686 -4.15916 0
M  V30 1199 H 123.736 2.96692 -4.44835 0
M  V30 1200 H 124.079 3.13091 -2.74371 0
M  V30 1201 H 124.612 1.66993 -3.61052 0
M  V30 1202 H 121.351 0.864142 -6.49779 0
M  V30 1203 H 120.871 2.2871 -5.54483 0
M  V30 1204 H 122.55 2.11622 -6.11412 0
M  V30 1205 N 122.682 1.50554 0.465978 0
M  V30 1206 C 123.907 1.65838 1.24549 0
M  V30 1207 C 124.332 0.343486 1.84937 0
M  V30 1208 O 123.69 -0.69324 1.67523 0
M  V30 1209 C 123.738 2.75533 2.32624 0
M  V30 1210 O 122.842 2.37142 3.37398 0
M  V30 1211 H 122.183 0.553893 0.366194 0
M  V30 1212 H 124.713 1.96959 0.553927 0
M  V30 1213 H 124.723 2.98763 2.77857 0
M  V30 1214 H 123.398 3.70962 1.88043 0
M  V30 1215 H 121.975 2.24377 2.97841 0
M  V30 1216 N 124.16 -0.719506 1.40217 0
M  V30 1217 C 125.408 -1.47641 1.3801 0
M  V30 1218 C 125.729 -1.94992 -0.018145 0
M  V30 1219 O 124.999 -1.70073 -0.972207 0
M  V30 1220 H 123.579 -0.547744 0.507923 0
M  V30 1221 H 126.241 -0.853187 1.75233 0
M  V30 1222 H 125.337 -2.35112 2.05253 0
M  V30 1223 N 125.638 -1.25649 -0.95132 0
M  V30 1224 C 126.866 -1.13343 -1.73092 0
M  V30 1225 C 127.281 0.312434 -1.86197 0
M  V30 1226 O 126.638 1.21465 -1.36207 0
M  V30 1227 C 126.689 -1.78602 -3.14299 0
M  V30 1228 O 126.41 -3.17537 -3.01831 0
M  V30 1229 C 127.911 -1.72119 -4.08522 0
M  V30 1230 H 125.131 -0.395181 -0.542285 0
M  V30 1231 H 127.675 -1.66076 -1.19328 0
M  V30 1232 H 125.83 -1.29832 -3.64996 0
M  V30 1233 H 126.244 -3.49676 -3.90931 0
M  V30 1234 H 127.718 -2.22435 -5.052 0
M  V30 1235 H 128.195 -0.685635 -4.33815 0
M  V30 1236 H 128.801 -2.20393 -3.63741 0
M  V30 1237 N 127.117 1.15442 -1.07289 0
M  V30 1238 C 128.342 1.90638 -0.816828 0
M  V30 1239 C 128.767 1.77445 0.624083 0
M  V30 1240 O 128.125 1.10671 1.43602 0
M  V30 1241 C 128.173 3.39008 -1.22906 0
M  V30 1242 O 127.277 4.10701 -0.373975 0
M  V30 1243 H 126.618 0.593555 -0.297638 0
M  V30 1244 H 129.148 1.46198 -1.43134 0
M  V30 1245 H 129.158 3.89801 -1.20497 0
M  V30 1246 H 127.833 3.47929 -2.27856 0
M  V30 1247 H 126.41 3.70046 -0.460499 0
M  V30 1248 N 128.595 0.856903 1.32268 0
M  V30 1249 C 130.006 0.515711 1.79436 0
M  V30 1250 C 130.357 -0.966586 1.70738 0
M  V30 1251 O 129.482 -1.75409 1.26731 0
M  V30 1252 C 130.077 0.929335 3.25805 0
M  V30 1253 C 128.636 0.640006 3.70919 0
M  V30 1254 C 127.783 1.12784 2.53328 0
M  V30 1255 H 130.734 1.04389 1.19535 0
M  V30 1256 H 130.755 0.246633 3.797 0
M  V30 1257 H 130.267 2.00821 3.32103 0
M  V30 1258 H 128.368 -0.428051 3.70133 0
M  V30 1259 H 128.481 1.20788 4.63624 0
M  V30 1260 H 126.845 0.548033 2.48734 0
M  V30 1261 H 127.628 2.21387 2.62379 0
M  V30 1262 N 130.073 -1.45103 0.615059 0
M  V30 1263 C 131.298 -2.07064 0.117988 0
M  V30 1264 C 131.723 -1.4554 -1.19163 0
M  V30 1265 O 131.081 -0.550855 -1.72729 0
M  V30 1266 C 131.129 -3.606 -0.000288387 0
M  V30 1267 O 130.233 -3.98847 -1.04856 0
M  V30 1268 H 129.574 -0.659467 0.0774581 0
M  V30 1269 H 132.104 -1.86236 0.847186 0
M  V30 1270 H 132.114 -4.07529 -0.196091 0
M  V30 1271 H 130.789 -4.04765 0.955932 0
M  V30 1272 H 129.366 -3.63577 -0.828619 0
M  V30 1273 N 131.551 -0.354651 -1.53558 0
M  V30 1274 C 132.799 0.237972 -2.00694 0
M  V30 1275 C 133.12 1.50173 -1.24391 0
M  V30 1276 O 132.39 1.92673 -0.354135 0
M  V30 1277 H 130.97 0.0909256 -0.741446 0
M  V30 1278 H 133.632 -0.478368 -1.88938 0
M  V30 1279 H 132.728 0.47264 -3.085 0
M  V30 1280 N 133.029 1.57378 -0.0835403 0
M  V30 1281 C 134.445 1.57246 0.273109 0
M  V30 1282 C 134.645 1.09385 1.69225 0
M  V30 1283 O 133.701 0.765051 2.40631 0
M  V30 1284 C 135.014 3.00614 0.0720628 0
M  V30 1285 C 136.562 3.12684 0.1407 0
M  V30 1286 C 137.037 4.57989 -0.0322094 0
M  V30 1287 N 138.528 4.63194 0.0230085 0
M  V30 1288 C 139.263 5.73335 -0.0861941 0
M  V30 1289 N 138.759 6.9235 -0.24958 0
M  V30 1290 N 140.552 5.62093 -0.0282886 0
M  V30 1291 H 132.703 1.86801 -1.0109 0
M  V30 1292 H 134.966 0.861687 -0.395222 0
M  V30 1293 H 134.672 3.39786 -0.907662 0
M  V30 1294 H 134.546 3.68193 0.81936 0
M  V30 1295 H 136.933 2.73391 1.11092 0
M  V30 1296 H 137.014 2.47719 -0.637896 0
M  V30 1297 H 136.658 4.97973 -0.999247 0
M  V30 1298 H 136.588 5.21 0.765937 0
M  V30 1299 H 139.079 3.77613 0.14722 0
M  V30 1300 H 139.392 7.72117 -0.324733 0
M  V30 1301 H 137.737 6.94415 -0.285097 0
M  V30 1302 H 140.928 4.67997 0.0981408 0
M  V30 1303 H 141.101 6.47895 -0.116845 0
M  V30 1304 N 134.507 -0.190092 1.56449 0
M  V30 1305 C 135.732 -0.929864 1.85387 0
M  V30 1306 C 136.157 -1.7585 0.667704 0
M  V30 1307 O 135.515 -1.77198 -0.383459 0
M  V30 1308 C 135.563 -1.79773 3.12593 0
M  V30 1309 O 134.667 -2.89713 2.93496 0
M  V30 1310 H 134.008 -0.261574 0.610307 0
M  V30 1311 H 136.538 -0.193896 2.03679 0
M  V30 1312 H 136.548 -2.20139 3.43515 0
M  V30 1313 H 135.223 -1.18892 3.98544 0
M  V30 1314 H 133.8 -2.53065 2.73884 0
M  V30 1315 N 135.985 -1.50799 -0.457987 0
M  V30 1316 C 136.915 -1.73553 -1.5621 0
M  V30 1317 C 137.896 -0.584774 -1.59732 0
M  V30 1318 O 139.081 -0.825314 -1.7579 0
M  V30 1319 C 136.211 -1.84169 -2.94447 0
M  V30 1320 C 135.165 -2.99461 -3.0579 0
M  V30 1321 C 134.491 -2.95235 -4.45803 0
M  V30 1322 C 135.791 -4.39766 -2.81786 0
M  V30 1323 H 137.485 -2.66 -1.37421 0
M  V30 1324 H 135.031 -1.28002 -0.659662 0
M  V30 1325 H 136.984 -1.98672 -3.71628 0
M  V30 1326 H 135.708 -0.883545 -3.14422 0
M  V30 1327 H 134.367 -2.8463 -2.31044 0
M  V30 1328 H 134.015 -1.97239 -4.62715 0
M  V30 1329 H 133.715 -3.72642 -4.54326 0
M  V30 1330 H 135.239 -3.11803 -5.24987 0
M  V30 1331 H 136.653 -4.55054 -3.4871 0
M  V30 1332 H 135.05 -5.18722 -3.0174 0
M  V30 1333 H 136.12 -4.51229 -1.7754 0
M  V30 1334 N 137.463 0.71206 -1.40597 0
M  V30 1335 C 138.41 1.82613 -1.41142 0
M  V30 1336 C 139.38 1.63925 -0.267903 0
M  V30 1337 O 140.565 1.85009 -0.466495 0
M  V30 1338 C 137.705 3.20354 -1.28324 0
M  V30 1339 C 136.818 3.50589 -2.52411 0
M  V30 1340 C 135.953 4.77855 -2.32009 0
M  V30 1341 C 134.992 5.01005 -3.51654 0
M  V30 1342 N 134.129 6.19487 -3.30425 0
M  V30 1343 H 138.969 1.81482 -2.36365 0
M  V30 1344 H 136.506 0.886475 -1.17388 0
M  V30 1345 H 138.464 3.99899 -1.18899 0
M  V30 1346 H 137.094 3.20705 -0.367189 0
M  V30 1347 H 136.146 2.65573 -2.72351 0
M  V30 1348 H 137.458 3.63604 -3.41458 0
M  V30 1349 H 136.612 5.65424 -2.19956 0
M  V30 1350 H 135.351 4.67056 -1.40392 0
M  V30 1351 H 134.356 4.1189 -3.64179 0
M  V30 1352 H 135.581 5.13674 -4.44202 0
M  V30 1353 H 133.527 6.09932 -2.41494 0
M  V30 1354 H 133.444 6.33194 -4.13039 0
M  V30 1355 H 134.712 7.09834 -3.22113 0
M  V30 1356 N 138.941 1.26152 0.944643 0
M  V30 1357 C 139.904 1.07474 2.0244 0
M  V30 1358 C 140.904 0.0242064 1.60782 0
M  V30 1359 O 142.094 0.267302 1.72137 0
M  V30 1360 C 139.226 0.633956 3.34953 0
M  V30 1361 H 140.419 2.03336 2.20442 0
M  V30 1362 H 137.972 1.087 1.12312 0
M  V30 1363 H 138.707 -0.326811 3.22649 0
M  V30 1364 H 138.492 1.39247 3.66542 0
M  V30 1365 H 139.982 0.52501 4.14287 0
M  V30 1366 N 140.419 -1.14872 1.07899 0
M  V30 1367 C 141.696 -1.81928 0.71845 0
M  V30 1368 C 142.076 -1.95417 -0.798455 0
M  V30 1369 O 141.424 -1.50997 -1.715 0
M  V30 1370 C 141.634 -3.17937 1.43935 0
M  V30 1371 C 142.982 -3.93501 1.59506 0
M  V30 1372 O 144.006 -3.27509 1.40058 0
M  V30 1373 O 142.865 -5.1183 1.91551 0
M  V30 1374 H 139.959 -0.78628 0.256305 0
M  V30 1375 H 142.505 -1.21934 1.18026 0
M  V30 1376 H 141.277 -3.0325 2.47295 0
M  V30 1377 H 140.9 -3.85619 0.968687 0
M  V30 1378 N 141.898 -0.863906 -1.31812 0
M  V30 1379 C 142.846 -0.30422 -2.30602 0
M  V30 1380 C 143.84 0.577419 -1.59255 0
M  V30 1381 O 145.046 0.464194 -1.73912 0
M  V30 1382 H 141.421 -0.0796877 -0.747766 0
M  V30 1383 H 143.392 -1.15148 -2.75288 0
M  V30 1384 C 142.141 0.484617 -3.44306 0
M  V30 1385 H 141.464 -0.18451 -3.99374 0
M  V30 1386 H 142.904 0.841664 -4.15562 0
M  V30 1387 C 141.363 1.6735 -2.92396 0
M  V30 1388 O 141.893 2.77273 -2.90659 0
M  V30 1389 N 140.099 1.50362 -2.48676 0
M  V30 1390 H 139.646 0.609402 -2.50288 0
M  V30 1391 H 139.604 2.30051 -2.14299 0
M  V30 1392 N 143.376 1.44774 -0.622745 0
M  V30 1393 C 144.625 2.01334 -0.121397 0
M  V30 1394 C 144.938 1.49505 1.26125 0
M  V30 1395 O 146.144 1.98139 1.85616 0
M  V30 1396 C 144.6 3.59516 -0.166298 0
M  V30 1397 C 144.208 4.20342 -1.54974 0
M  V30 1398 C 145.952 4.23582 0.279021 0
M  V30 1399 C 143.859 5.70721 -1.55021 0
M  V30 1400 H 142.789 0.752851 -0.0416172 0
M  V30 1401 H 145.44 1.66083 -0.780309 0
M  V30 1402 H 143.822 3.92027 0.559557 0
M  V30 1403 H 144.996 3.99381 -2.29851 0
M  V30 1404 H 143.311 3.68529 -1.93843 0
M  V30 1405 H 145.908 5.33868 0.298083 0
M  V30 1406 H 146.251 3.95327 1.30471 0
M  V30 1407 H 146.784 3.95843 -0.394063 0
M  V30 1408 H 143.523 6.03698 -2.55399 0
M  V30 1409 H 143.043 5.93829 -0.844245 0
M  V30 1410 H 144.722 6.34203 -1.28047 0
M  V30 1411 N 144.854 0.36279 1.53368 0
M  V30 1412 C 145.817 -0.472679 2.24273 0
M  V30 1413 C 146.817 -1.012 1.24961 0
M  V30 1414 O 148.007 -0.898194 1.49259 0
M  V30 1415 C 145.139 -1.66039 2.97731 0
M  V30 1416 H 146.332 0.14773 2.99536 0
M  V30 1417 H 143.885 0.114434 1.55881 0
M  V30 1418 H 144.62 -2.31896 2.26704 0
M  V30 1419 H 144.405 -1.28066 3.70596 0
M  V30 1420 H 145.895 -2.25252 3.51641 0
M  V30 1421 N 146.332 -1.57332 0.0918853 0
M  V30 1422 C 147.743 -1.81496 -0.437739 0
M  V30 1423 C 148.094 -1.00727 -1.6837 0
M  V30 1424 O 147.219 -0.235694 -2.15113 0
M  V30 1425 C 147.814 -3.29197 -0.800939 0
M  V30 1426 C 146.373 -3.54136 -1.27532 0
M  V30 1427 C 145.52 -2.75979 -0.270392 0
M  V30 1428 H 148.471 -1.55494 0.317366 0
M  V30 1429 H 148.492 -3.42344 -1.66074 0
M  V30 1430 H 148.004 -3.87955 0.106078 0
M  V30 1431 H 146.105 -3.00705 -2.20016 0
M  V30 1432 H 146.218 -4.62792 -1.23938 0
M  V30 1433 H 144.582 -2.43349 -0.751872 0
M  V30 1434 H 145.365 -3.37484 0.629248 0
M  V30 1435 N 147.81 0.181792 -1.56548 0
M  V30 1436 C 149.038 0.915947 -1.85521 0
M  V30 1437 C 149.453 1.76282 -0.676016 0
M  V30 1438 O 148.81 1.79012 0.355077 0
M  V30 1439 C 148.861 1.80126 -3.13427 0
M  V30 1440 O 148.582 0.988562 -4.26801 0
M  V30 1441 C 150.083 2.64597 -3.55673 0
M  V30 1442 H 147.303 0.26661 -0.61576 0
M  V30 1443 H 149.847 0.185039 -2.03661 0
M  V30 1444 H 148.002 2.48563 -2.97145 0
M  V30 1445 H 148.416 1.59308 -4.99721 0
M  V30 1446 H 149.89 3.2235 -4.48101 0
M  V30 1447 H 150.367 3.38958 -2.79292 0
M  V30 1448 H 150.973 2.0151 -3.74532 0
M  V30 1449 N 149.288 1.51039 0.449983 0
M  V30 1450 C 150.251 1.70863 1.5277 0
M  V30 1451 C 151.251 0.578846 1.5002 0
M  V30 1452 O 152.441 0.846213 1.52266 0
M  V30 1453 C 149.573 1.75341 2.9235 0
M  V30 1454 H 150.766 2.67034 1.36502 0
M  V30 1455 H 148.319 1.40838 0.677812 0
M  V30 1456 H 149.054 0.809383 3.14037 0
M  V30 1457 H 148.839 2.57436 2.95752 0
M  V30 1458 H 150.329 1.92559 3.70555 0
M  V30 1459 N 150.766 -0.704594 1.40972 0
M  V30 1460 C 152.012 -1.46546 1.41053 0
M  V30 1461 C 152.367 -1.92393 0.0159714 0
M  V30 1462 O 151.66 -1.66017 -0.956506 0
M  V30 1463 C 151.854 -2.698 2.34399 0
M  V30 1464 C 151.683 -2.36008 3.82793 0
M  V30 1465 C 150.453 -2.26812 4.51536 0
M  V30 1466 C 152.651 -1.99565 4.74003 0
M  V30 1467 N 150.633 -1.8581 5.85105 0
M  V30 1468 C 152.004 -1.69251 5.96451 0
M  V30 1469 C 154.059 -1.86296 4.61734 0
M  V30 1470 C 152.762 -1.27003 7.07999 0
M  V30 1471 C 154.788 -1.45452 5.73234 0
M  V30 1472 C 154.15 -1.16043 6.94776 0
M  V30 1473 H 150.249 -0.533896 0.571383 0
M  V30 1474 H 152.833 -0.816061 1.76773 0
M  V30 1475 H 151.004 -3.32473 2.00789 0
M  V30 1476 H 152.736 -3.36214 2.25261 0
M  V30 1477 H 149.491 -2.44913 4.05357 0
M  V30 1478 H 149.915 -1.67817 6.55871 0
M  V30 1479 H 154.557 -2.0769 3.68273 0
M  V30 1480 H 152.275 -1.04353 8.01334 0
M  V30 1481 H 155.861 -1.35748 5.65742 0
M  V30 1482 H 154.741 -0.84915 7.79589 0
M  V30 1483 N 152.244 -1.26651 -0.937939 0
M  V30 1484 C 153.49 -1.12553 -1.687 0
M  V30 1485 C 153.823 0.329782 -1.91379 0
M  V30 1486 O 153.098 1.24202 -1.4968 0
M  V30 1487 C 153.381 -1.89862 -3.05981 0
M  V30 1488 C 153.234 -3.43318 -2.90607 0
M  V30 1489 C 154.553 -1.69499 -4.0615 0
M  V30 1490 H 151.672 -0.410257 -0.612257 0
M  V30 1491 H 154.314 -1.55685 -1.08913 0
M  V30 1492 H 152.464 -1.53204 -3.57017 0
M  V30 1493 H 154.136 -3.89747 -2.46769 0
M  V30 1494 H 152.379 -3.70179 -2.26164 0
M  V30 1495 H 153.05 -3.92642 -3.8799 0
M  V30 1496 H 155.526 -2.01442 -3.64088 0
M  V30 1497 H 154.402 -2.26002 -5.00214 0
M  V30 1498 H 154.663 -0.640365 -4.37438 0
M  V30 1499 N 153.722 1.14298 -1.08507 0
M  V30 1500 C 155.133 1.66926 -0.836227 0
M  V30 1501 C 155.484 1.85576 0.63686 0
M  V30 1502 O 154.609 1.56767 1.49175 0
M  V30 1503 C 155.204 3.03219 -1.51142 0
M  V30 1504 C 153.763 3.52876 -1.30979 0
M  V30 1505 C 152.91 2.2833 -1.57356 0
M  V30 1506 H 155.861 0.983491 -1.24552 0
M  V30 1507 H 155.882 3.68726 -0.939211 0
M  V30 1508 H 155.394 2.89612 -2.58353 0
M  V30 1509 H 153.495 3.71703 -0.258429 0
M  V30 1510 H 153.608 4.33586 -2.03814 0
M  V30 1511 H 151.972 2.34454 -0.995164 0
M  V30 1512 H 152.755 2.17298 -2.65775 0
M  V30 1513 N 155.201 0.870884 1.31352 0
M  V30 1514 C 156.149 0.316445 2.30437 0
M  V30 1515 C 157.143 -0.568965 1.59559 0
M  V30 1516 O 158.349 -0.454964 1.74155 0
M  V30 1517 H 154.724 0.0836521 0.747333 0
M  V30 1518 H 156.695 1.16606 2.74673 0
M  V30 1519 C 155.444 -0.46635 3.44558 0
M  V30 1520 H 154.767 0.205687 3.99271 0
M  V30 1521 H 156.207 -0.819614 4.16003 0
M  V30 1522 C 154.666 -1.65797 2.9328 0
M  V30 1523 O 155.196 -2.75728 2.92125 0
M  V30 1524 N 153.402 -1.49041 2.4947 0
M  V30 1525 H 152.949 -0.59612 2.50608 0
M  V30 1526 H 152.907 -2.28911 2.15516 0
M  V30 1527 N 156.679 -1.44442 0.630414 0
M  V30 1528 C 157.612 -2.27862 -0.124247 0
M  V30 1529 C 158.59 -1.38495 -0.851931 0
M  V30 1530 O 159.774 -1.67935 -0.856166 0
M  V30 1531 C 156.901 -3.17407 -1.18197 0
M  V30 1532 C 155.947 -4.22875 -0.554892 0
M  V30 1533 S 156.78 -5.31485 0.654489 0
M  V30 1534 C 157.936 -6.246 -0.40326 0
M  V30 1535 H 158.169 -2.91519 0.583435 0
M  V30 1536 H 155.702 -1.48618 0.418565 0
M  V30 1537 H 157.66 -3.69549 -1.78728 0
M  V30 1538 H 156.321 -2.52971 -1.86184 0
M  V30 1539 H 155.514 -4.85542 -1.35148 0
M  V30 1540 H 155.116 -3.73992 -0.0242105 0
M  V30 1541 H 157.408 -6.65375 -1.27602 0
M  V30 1542 H 158.351 -7.07851 0.187813 0
M  V30 1543 H 158.759 -5.59775 -0.728837 0
M  V30 1544 N 158.157 -0.370918 -1.53173 0
M  V30 1545 C 159.107 0.489588 -2.22681 0
M  V30 1546 C 160.091 1.04442 -1.22395 0
M  V30 1547 O 161.283 0.973578 -1.47819 0
M  V30 1548 C 158.412 1.626 -3.02351 0
M  V30 1549 C 157.498 1.08379 -4.10018 0
M  V30 1550 N 157.889 0.265004 -5.05105 0
M  V30 1551 C 156.187 1.35809 -4.2482 0
M  V30 1552 C 156.888 -0.0324755 -5.81691 0
M  V30 1553 N 155.864 0.566581 -5.40639 0
M  V30 1554 H 159.666 -0.142729 -2.93553 0
M  V30 1555 H 157.18 -0.179221 -1.61408 0
M  V30 1556 H 159.177 2.2547 -3.50669 0
M  V30 1557 H 157.837 2.26132 -2.33011 0
M  V30 1558 H 158.848 -0.0962352 -5.17811 0
M  V30 1559 H 155.525 1.9958 -3.66707 0
M  V30 1560 H 156.915 -0.69473 -6.68299 0
M  V30 1561 N 159.635 1.57281 -0.100228 0
M  V30 1562 C 160.882 1.94537 0.562268 0
M  V30 1563 C 161.21 0.982315 1.67871 0
M  V30 1564 O 160.465 0.00280936 1.957 0
M  V30 1565 C 160.764 3.38305 1.15259 0
M  V30 1566 C 160.43 4.50618 0.159409 0
M  V30 1567 C 159.092 4.81066 -0.113741 0
M  V30 1568 C 161.444 5.18615 -0.518461 0
M  V30 1569 C 158.772 5.76835 -1.07137 0
M  V30 1570 C 161.124 6.15412 -1.46459 0
M  V30 1571 C 159.788 6.44262 -1.74592 0
M  V30 1572 H 159.058 0.711863 0.205748 0
M  V30 1573 H 161.705 1.90679 -0.17715 0
M  V30 1574 H 160.01 3.38766 1.96836 0
M  V30 1575 H 161.707 3.64435 1.67297 0
M  V30 1576 H 158.297 4.2689 0.382491 0
M  V30 1577 H 162.481 4.95264 -0.320581 0
M  V30 1578 H 157.737 5.975 -1.29628 0
M  V30 1579 H 161.911 6.67194 -1.99564 0
M  V30 1580 H 159.538 7.1828 -2.48953 0
M  V30 1581 N 161.113 -0.173488 1.56642 0
M  V30 1582 C 162.359 -0.891784 1.8214 0
M  V30 1583 C 162.692 -1.8199 0.677736 0
M  V30 1584 O 161.967 -1.91842 -0.320446 0
M  V30 1585 C 162.25 -1.68933 3.18015 0
M  V30 1586 C 162.103 -0.784487 4.42906 0
M  V30 1587 C 163.422 -2.65748 3.50808 0
M  V30 1588 H 160.541 -0.322761 0.662567 0
M  V30 1589 H 163.183 -0.158095 1.89341 0
M  V30 1590 H 161.333 -2.31482 3.12007 0
M  V30 1591 H 163.005 -0.172046 4.60979 0
M  V30 1592 H 161.248 -0.0924117 4.33702 0
M  V30 1593 H 161.919 -1.37799 5.34524 0
M  V30 1594 H 164.395 -2.13327 3.57255 0
M  V30 1595 H 163.271 -3.18619 4.4696 0
M  V30 1596 H 163.532 -3.45842 2.75401 0
M  V30 1597 N 162.591 -1.51276 -0.441967 0
M  V30 1598 C 163.554 -1.7167 -1.51862 0
M  V30 1599 C 164.554 -0.586793 -1.49711 0
M  V30 1600 O 165.744 -0.854276 -1.51815 0
M  V30 1601 C 162.876 -1.76889 -2.91416 0
M  V30 1602 H 164.069 -2.67754 -1.35084 0
M  V30 1603 H 161.622 -1.41196 -0.670333 0
M  V30 1604 H 162.357 -0.826026 -3.13604 0
M  V30 1605 H 162.142 -2.59001 -2.94382 0
M  V30 1606 H 163.632 -1.94522 -3.69528 0
M  V30 1607 N 164.069 0.697108 -1.41344 0
M  V30 1608 C 165.48 1.27697 -1.36199 0
M  V30 1609 C 165.831 1.9615 -0.0443463 0
M  V30 1610 O 164.956 1.98689 0.857419 0
M  V30 1611 C 165.551 2.32223 -2.46694 0
M  V30 1612 C 164.11 2.8579 -2.44952 0
M  V30 1613 C 163.257 1.59807 -2.26621 0
M  V30 1614 H 166.208 0.491968 -1.50882 0
M  V30 1615 H 166.229 3.1348 -2.15664 0
M  V30 1616 H 165.741 1.82373 -3.42581 0
M  V30 1617 H 163.842 3.3982 -1.52817 0
M  V30 1618 H 163.955 3.36325 -3.41207 0
M  V30 1619 H 162.319 1.8556 -1.7447 0
M  V30 1620 H 163.102 1.11956 -3.24532 0
M  V30 1621 N 165.547 1.27147 0.931209 0
M  V30 1622 C 166.796 1.12664 1.67302 0
M  V30 1623 C 167.109 -0.327718 1.92835 0
M  V30 1624 O 168.315 -0.593392 2.64936 0
M  V30 1625 C 166.771 1.9683 3.01307 0
M  V30 1626 C 166.379 3.46901 2.83485 0
M  V30 1627 C 168.123 1.90985 3.79111 0
M  V30 1628 C 166.03 4.23279 4.13024 0
M  V30 1629 H 164.96 0.41803 0.627509 0
M  V30 1630 H 167.611 1.51539 1.03481 0
M  V30 1631 H 165.993 1.50797 3.66164 0
M  V30 1632 H 167.167 4.00773 2.27415 0
M  V30 1633 H 165.482 3.54088 2.19113 0
M  V30 1634 H 168.079 2.45328 4.75098 0
M  V30 1635 H 168.422 0.882718 4.06834 0
M  V30 1636 H 168.955 2.34895 3.21044 0
M  V30 1637 H 165.694 5.26503 3.90481 0
M  V30 1638 H 165.214 3.74186 4.6877 0
M  V30 1639 H 166.893 4.32265 4.81411 0
M  V30 1640 N 167.025 -1.13721 1.09112 0
M  V30 1641 C 167.973 -2.21103 0.722219 0
M  V30 1642 C 168.967 -1.67147 -0.275374 0
M  V30 1643 O 170.173 -1.79477 -0.137176 0
M  V30 1644 H 166.548 -0.720445 0.215553 0
M  V30 1645 H 168.519 -2.49483 1.63709 0
M  V30 1646 C 167.268 -3.47352 0.15543 0
M  V30 1647 H 166.591 -3.89206 0.914246 0
M  V30 1648 H 168.031 -4.2395 -0.0647967 0
M  V30 1649 C 166.49 -3.1814 -1.10852 0
M  V30 1650 O 167.02 -3.36604 -2.19227 0
M  V30 1651 N 165.226 -2.72045 -1.02176 0
M  V30 1652 H 164.773 -2.57221 -0.139764 0
M  V30 1653 H 164.731 -2.52875 -1.8682 0
M  V30 1654 N 168.503 -0.877838 -1.30888 0
M  V30 1655 C 169.78 -0.413052 -1.91189 0
M  V30 1656 C 170.16 1.1056 -1.79832 0
M  V30 1657 O 169.508 1.93771 -1.21099 0
M  V30 1658 C 169.718 -0.903191 -3.3711 0
M  V30 1659 C 171.066 -0.93395 -4.14201 0
M  V30 1660 O 172.09 -0.849373 -3.45925 0
M  V30 1661 O 170.949 -1.05772 -5.36167 0
M  V30 1662 H 168.043 -0.125035 -0.817493 0
M  V30 1663 H 170.589 -0.966269 -1.39504 0
M  V30 1664 H 169.361 -1.94692 -3.39427 0
M  V30 1665 H 168.984 -0.328732 -3.96239 0
M  V30 1666 N 169.982 1.44106 -0.638065 0
M  V30 1667 C 170.914 2.28976 0.101205 0
M  V30 1668 C 171.927 1.4167 0.802088 0
M  V30 1669 O 173.116 1.65755 0.662375 0
M  V30 1670 C 170.216 3.18217 1.16581 0
M  V30 1671 C 169.389 4.33978 0.546066 0
M  V30 1672 C 168.448 5.04202 1.50554 0
M  V30 1673 O 167.474 5.59986 1.01999 0
M  V30 1674 N 168.676 5.06296 2.8398 0
M  V30 1675 H 171.441 2.93064 -0.627186 0
M  V30 1676 H 169.002 1.54629 -0.479731 0
M  V30 1677 H 170.994 3.62061 1.80815 0
M  V30 1678 H 169.564 2.55833 1.79634 0
M  V30 1679 H 168.784 3.93239 -0.275046 0
M  V30 1680 H 170.072 5.08675 0.112793 0
M  V30 1681 H 169.47 4.62319 3.26002 0
M  V30 1682 H 168.027 5.53907 3.43556 0
M  V30 1683 N 171.46 0.379036 1.52974 0
M  V30 1684 C 172.707 -0.206421 2.01445 0
M  V30 1685 C 173.035 -1.47668 1.26587 0
M  V30 1686 O 172.29 -1.92514 0.351675 0
M  V30 1687 C 172.589 -0.53096 3.53434 0
M  V30 1688 C 172.255 0.646546 4.46241 0
M  V30 1689 C 170.917 0.969604 4.7133 0
M  V30 1690 C 173.269 1.43479 5.01062 0
M  V30 1691 C 170.597 2.08263 5.48492 0
M  V30 1692 C 172.949 2.53834 5.7944 0
M  V30 1693 C 171.613 2.86659 6.02812 0
M  V30 1694 H 170.883 -0.0755349 0.73714 0
M  V30 1695 H 173.53 0.514271 1.84465 0
M  V30 1696 H 171.835 -1.33285 3.68432 0
M  V30 1697 H 173.532 -0.996417 3.88423 0
M  V30 1698 H 170.122 0.384734 4.2687 0
M  V30 1699 H 174.306 1.19844 4.81613 0
M  V30 1700 H 169.562 2.34078 5.64816 0
M  V30 1701 H 173.736 3.15319 6.20924 0
M  V30 1702 H 171.363 3.73026 6.62387 0
M  V30 1703 N 172.938 -1.57226 0.108567 0
M  V30 1704 C 174.186 -1.94448 -0.550853 0
M  V30 1705 C 174.507 -0.992074 -1.67878 0
M  V30 1706 O 173.777 -0.0465 -1.95845 0
M  V30 1707 H 172.357 -0.717897 -0.206479 0
M  V30 1708 H 175.019 -1.94112 0.175062 0
M  V30 1709 H 174.115 -2.97218 -0.952259 0
M  V30 1710 N 174.416 0.165178 -1.56732 0
M  V30 1711 C 175.662 0.877389 -1.83503 0
M  V30 1712 C 176.017 1.79602 -0.689996 0
M  V30 1713 O 175.31 1.89023 0.313205 0
M  V30 1714 C 175.504 1.70405 -3.1416 0
M  V30 1715 C 175.333 0.866961 -4.41264 0
M  V30 1716 C 174.103 0.539646 -5.0241 0
M  V30 1717 C 176.301 0.205671 -5.13889 0
M  V30 1718 N 174.283 -0.312946 -6.13102 0
M  V30 1719 C 175.654 -0.507823 -6.17917 0
M  V30 1720 C 177.709 0.124468 -4.97744 0
M  V30 1721 C 176.412 -1.29483 -7.0755 0
M  V30 1722 C 178.438 -0.649222 -5.87826 0
M  V30 1723 C 177.8 -1.35106 -6.91322 0
M  V30 1724 H 173.899 0.299477 -0.722383 0
M  V30 1725 H 176.483 0.143949 -1.94167 0
M  V30 1726 H 174.654 2.40887 -3.04677 0
M  V30 1727 H 176.386 2.35804 -3.28905 0
M  V30 1728 H 173.141 0.871176 -4.65519 0
M  V30 1729 H 173.565 -0.729731 -6.73056 0
M  V30 1730 H 178.207 0.652724 -4.17731 0
M  V30 1731 H 175.925 -1.83441 -7.87004 0
M  V30 1732 H 179.511 -0.713804 -5.77405 0
M  V30 1733 H 178.391 -1.94013 -7.59821 0
M  V30 1734 N 175.894 1.51508 0.433938 0
M  V30 1735 C 177.142 1.6402 1.18075 0
M  V30 1736 C 177.463 0.360328 1.91642 0
M  V30 1737 O 176.733 -0.623945 1.85698 0
M  V30 1738 H 175.313 0.6045 0.43885 0
M  V30 1739 H 177.975 1.88452 0.497178 0
M  V30 1740 H 177.071 2.46949 1.90847 0
M  V30 1741 N 177.372 -0.689602 1.41712 0
M  V30 1742 C 178.335 -1.78521 1.43746 0
M  V30 1743 C 179.335 -1.57436 0.327191 0
M  V30 1744 O 180.525 -1.64 0.587348 0
M  V30 1745 C 177.657 -3.16971 1.25467 0
M  V30 1746 H 178.85 -1.78108 2.41283 0
M  V30 1747 H 176.403 -0.89781 1.27942 0
M  V30 1748 H 177.138 -3.23019 0.287948 0
M  V30 1749 H 176.923 -3.33678 2.05917 0
M  V30 1750 H 178.413 -3.96935 1.2974 0
M  V30 1751 N 178.85 -1.27639 -0.924453 0
M  V30 1752 C 180.075 -1.17101 -1.71179 0
M  V30 1753 C 180.5 0.268134 -1.86179 0
M  V30 1754 O 179.858 1.19415 -1.36418 0
M  V30 1755 C 179.906 -1.86313 -3.08739 0
M  V30 1756 O 179.01 -1.16331 -3.95652 0
M  V30 1757 H 178.351 -0.407091 -0.524569 0
M  V30 1758 H 180.881 -1.68767 -1.15666 0
M  V30 1759 H 180.891 -1.938 -3.59034 0
M  V30 1760 H 179.566 -2.91001 -2.97138 0
M  V30 1761 H 178.143 -1.16935 -3.54091 0
M  V30 1762 N 180.328 1.1314 -1.09713 0
M  V30 1763 C 181.577 1.83838 -0.829851 0
M  V30 1764 C 181.89 1.84599 0.646728 0
M  V30 1765 O 183.096 2.51218 1.02965 0
M  V30 1766 C 181.552 3.30069 -1.43466 0
M  V30 1767 C 181.16 3.37688 -2.94399 0
M  V30 1768 C 182.904 4.05788 -1.24645 0
M  V30 1769 C 180.811 4.78209 -3.47952 0
M  V30 1770 H 179.741 0.68877 -0.306777 0
M  V30 1771 H 182.392 1.27448 -1.3202 0
M  V30 1772 H 180.774 3.8628 -0.871996 0
M  V30 1773 H 181.948 2.91456 -3.56918 0
M  V30 1774 H 180.263 2.75436 -3.12289 0
M  V30 1775 H 182.86 5.09535 -1.62107 0
M  V30 1776 H 183.203 4.15878 -0.187357 0
M  V30 1777 H 183.736 3.55915 -1.77678 0
M  V30 1778 H 180.475 4.73311 -4.53495 0
M  V30 1779 H 179.995 5.24924 -2.90198 0
M  V30 1780 H 181.674 5.47133 -3.45332 0
M  V30 1781 N 181.806 0.884767 1.30421 0
M  V30 1782 C 183.034 0.518044 2.0031 0
M  V30 1783 C 183.449 -0.893408 1.66324 0
M  V30 1784 O 182.806 -1.5875 0.900262 0
M  V30 1785 C 182.857 0.682997 3.54989 0
M  V30 1786 O 182.578 2.03888 3.87764 0
M  V30 1787 C 184.079 0.31924 4.42149 0
M  V30 1788 H 181.299 0.200265 0.640418 0
M  V30 1789 H 183.843 1.19001 1.6631 0
M  V30 1790 H 181.998 0.0584052 3.87356 0
M  V30 1791 H 182.412 2.05735 4.82466 0
M  V30 1792 H 183.886 0.485555 5.4986 0
M  V30 1793 H 184.363 -0.742717 4.32875 0
M  V30 1794 H 184.969 0.920147 4.15227 0
M  V30 1795 N 183.284 -1.43765 0.645699 0
M  V30 1796 C 184.509 -2.06767 0.161883 0
M  V30 1797 C 184.934 -1.48034 -1.16049 0
M  V30 1798 O 184.292 -0.587369 -1.71522 0
M  V30 1799 C 184.34 -3.60519 0.0762003 0
M  V30 1800 O 183.444 -4.00982 -0.963721 0
M  V30 1801 H 182.785 -0.657675 0.091429 0
M  V30 1802 H 185.315 -1.84397 0.886499 0
M  V30 1803 H 185.325 -4.07853 -0.109604 0
M  V30 1804 H 184 -4.02646 1.04157 0
M  V30 1805 H 182.577 -3.65253 -0.751312 0
M  V30 1806 N 184.763 -0.387143 -1.52771 0
M  V30 1807 C 185.711 0.463953 -2.27926 0
M  V30 1808 C 186.705 1.06493 -1.31741 0
M  V30 1809 O 187.911 1.00565 -1.49287 0
M  V30 1810 H 184.286 0.16837 -0.732909 0
M  V30 1811 H 186.257 -0.19141 -2.97785 0
M  V30 1812 C 185.006 1.5803 -3.09713 0
M  V30 1813 H 184.329 1.12718 -3.83581 0
M  V30 1814 H 185.769 2.15008 -3.65442 0
M  V30 1815 C 184.228 2.53509 -2.2189 0
M  V30 1816 O 184.758 3.56863 -1.84422 0
M  V30 1817 N 182.964 2.23199 -1.86093 0
M  V30 1818 H 182.511 1.39185 -2.16761 0
M  V30 1819 H 182.469 2.87333 -1.27621 0
M  V30 1820 N 186.241 1.57166 -0.116904 0
M  V30 1821 C 187.471 1.99184 0.548586 0
M  V30 1822 C 187.879 0.995436 1.60897 0
M  V30 1823 O 187.222 -0.0201293 1.83689 0
M  V30 1824 C 187.284 3.37611 1.23526 0
M  V30 1825 C 186.948 4.55857 0.323077 0
M  V30 1826 C 187.945 5.18056 -0.437476 0
M  V30 1827 C 185.63 5.01751 0.234761 0
M  V30 1828 C 187.624 6.24536 -1.2741 0
M  V30 1829 C 185.311 6.08093 -0.605496 0
M  V30 1830 C 186.309 6.69352 -1.35856 0
M  V30 1831 O 185.997 7.7364 -2.18487 0
M  V30 1832 H 185.729 0.659148 0.149999 0
M  V30 1833 H 188.283 2.0443 -0.199428 0
M  V30 1834 H 186.513 3.29113 2.0303 0
M  V30 1835 H 188.202 3.63932 1.79745 0
M  V30 1836 H 188.968 4.83516 -0.379105 0
M  V30 1837 H 184.847 4.53817 0.810601 0
M  V30 1838 H 188.391 6.72281 -1.86237 0
M  V30 1839 H 184.288 6.42063 -0.665268 0
M  V30 1840 H 185.056 7.90727 -2.11406 0
M  V30 1841 N 187.719 -0.156864 1.56817 0
M  V30 1842 C 188.967 -0.869404 1.82444 0
M  V30 1843 C 189.288 -1.82147 0.69623 0
M  V30 1844 O 188.558 -1.93847 -0.28287 0
M  V30 1845 H 187.138 -0.324043 0.673056 0
M  V30 1846 H 189.8 -0.153224 1.94297 0
M  V30 1847 H 188.896 -1.43761 2.77019 0
M  V30 1848 N 189.197 -1.51736 -0.425897 0
M  V30 1849 C 190.127 -1.76827 -1.52494 0
M  V30 1850 C 191.108 -0.618524 -1.58456 0
M  V30 1851 O 192.293 -0.862416 -1.74 0
M  V30 1852 C 189.423 -1.90374 -2.90474 0
M  V30 1853 C 188.377 -3.0588 -2.99369 0
M  V30 1854 C 187.703 -3.04625 -4.3944 0
M  V30 1855 C 189.003 -4.45644 -2.72394 0
M  V30 1856 H 190.697 -2.68855 -1.31748 0
M  V30 1857 H 188.243 -1.29372 -0.632362 0
M  V30 1858 H 190.196 -2.0651 -3.6733 0
M  V30 1859 H 188.92 -0.95004 -3.12477 0
M  V30 1860 H 187.579 -2.89467 -2.24954 0
M  V30 1861 H 187.227 -2.0701 -4.58428 0
M  V30 1862 H 186.927 -3.82195 -4.46319 0
M  V30 1863 H 188.451 -3.22869 -5.18255 0
M  V30 1864 H 189.865 -4.62348 -3.38979 0
M  V30 1865 H 188.262 -5.25006 -2.9067 0
M  V30 1866 H 189.332 -4.54893 -1.67929 0
M  V30 1867 N 190.675 0.682077 -1.42076 0
M  V30 1868 C 191.638 1.77756 -1.44691 0
M  V30 1869 C 192.638 1.5726 -0.335535 0
M  V30 1870 O 193.828 1.63686 -0.596037 0
M  V30 1871 C 190.96 3.16301 -1.27146 0
M  V30 1872 H 192.153 1.76826 -2.42224 0
M  V30 1873 H 189.706 0.891012 -1.28416 0
M  V30 1874 H 190.441 3.22862 -0.305075 0
M  V30 1875 H 190.226 3.32581 -2.07683 0
M  V30 1876 H 191.716 3.96241 -1.31843 0
M  V30 1877 N 192.153 1.28127 0.917671 0
M  V30 1878 C 193.381 1.17892 1.70026 0
M  V30 1879 C 193.796 -0.262958 1.8696 0
M  V30 1880 O 193.153 -1.17811 1.3938 0
M  V30 1881 C 193.204 1.86872 3.09453 0
M  V30 1882 O 192.925 3.25428 2.93306 0
M  V30 1883 C 194.426 1.8289 4.03815 0
M  V30 1884 H 191.646 0.40942 0.531617 0
M  V30 1885 H 194.19 1.69181 1.14883 0
M  V30 1886 H 192.345 1.39464 3.61426 0
M  V30 1887 H 192.759 3.59918 3.81523 0
M  V30 1888 H 194.233 2.35751 4.99125 0
M  V30 1889 H 194.71 0.800412 4.31845 0
M  V30 1890 H 195.316 2.29959 3.57769 0
M  V30 1891 N 193.631 -1.12557 1.10312 0
M  V30 1892 C 194.541 -2.21841 0.763142 0
M  V30 1893 C 195.557 -1.72354 -0.238801 0
M  V30 1894 O 196.733 -2.01249 -0.0778746 0
M  V30 1895 C 193.798 -3.46131 0.198632 0
M  V30 1896 C 192.859 -4.10464 1.25769 0
M  V30 1897 C 192.092 -5.28821 0.72002 0
M  V30 1898 O 192.315 -5.6859 -0.453993 0
M  V30 1899 O 191.249 -5.83437 1.47935 0
M  V30 1900 H 195.075 -2.53312 1.67532 0
M  V30 1901 H 192.66 -1.20867 0.878157 0
M  V30 1902 H 194.542 -4.2125 -0.112401 0
M  V30 1903 H 193.217 -3.16338 -0.686419 0
M  V30 1904 H 192.124 -3.3713 1.62156 0
M  V30 1905 H 193.457 -4.44408 2.11571 0
M  V30 1906 N 195.109 -0.891671 -1.2995 0
M  V30 1907 C 196.356 -0.513501 -1.95881 0
M  V30 1908 C 196.684 0.938655 -1.70351 0
M  V30 1909 O 195.939 1.67936 -1.00478 0
M  V30 1910 C 196.238 -0.742868 -3.49594 0
M  V30 1911 C 195.904 -2.17114 -3.95186 0
M  V30 1912 C 194.566 -2.56169 -4.07346 0
M  V30 1913 C 196.918 -3.10162 -4.18866 0
M  V30 1914 C 194.246 -3.87469 -4.4055 0
M  V30 1915 C 196.598 -4.41001 -4.53542 0
M  V30 1916 C 195.262 -4.79941 -4.63911 0
M  V30 1917 H 194.532 -0.187903 -0.71678 0
M  V30 1918 H 197.179 -1.1288 -1.54694 0
M  V30 1919 H 195.484 -0.044586 -3.91775 0
M  V30 1920 H 197.181 -0.429767 -3.9869 0
M  V30 1921 H 193.771 -1.85801 -3.86233 0
M  V30 1922 H 197.955 -2.81206 -4.08946 0
M  V30 1923 H 193.211 -4.17371 -4.46779 0
M  V30 1924 H 197.385 -5.13133 -4.70815 0
M  V30 1925 H 195.012 -5.81719 -4.89395 0
M  V30 1926 N 196.587 1.43421 -0.653314 0
M  V30 1927 C 197.535 2.32546 0.0501531 0
M  V30 1928 C 198.529 1.48617 0.812985 0
M  V30 1929 O 199.735 1.64825 0.723375 0
M  V30 1930 H 196.11 0.751185 0.0350032 0
M  V30 1931 H 198.081 2.89602 -0.719261 0
M  V30 1932 C 196.83 3.32925 1.00279 0
M  V30 1933 H 196.153 3.97532 0.425236 0
M  V30 1934 H 197.593 3.9792 1.46409 0
M  V30 1935 C 196.052 2.63532 2.09886 0
M  V30 1936 O 196.582 2.45092 3.18265 0
M  V30 1937 N 194.788 2.22905 1.86445 0
M  V30 1938 H 194.335 2.38103 0.98309 0
M  V30 1939 H 194.293 1.76805 2.59976 0
M  V30 1940 N 198.065 0.39524 1.52563 0
M  V30 1941 C 199.342 -0.242908 1.94086 0
M  V30 1942 C 199.722 -1.63841 1.33114 0
M  V30 1943 O 199.07 -2.22928 0.501529 0
M  V30 1944 C 199.28 -0.26327 3.48006 0
M  V30 1945 C 200.628 -0.489354 4.21771 0
M  V30 1946 O 201.652 -0.343226 3.54543 0
M  V30 1947 O 200.511 -0.776169 5.4096 0
M  V30 1948 H 197.605 -0.152536 0.812811 0
M  V30 1949 H 200.151 0.450178 1.6362 0
M  V30 1950 H 198.923 0.713985 3.84731 0
M  V30 1951 H 198.546 -1.00103 3.84792 0
M  V30 1952 N 199.544 -1.57102 0.125237 0
M  V30 1953 C 200.772 -1.99761 -0.538797 0
M  V30 1954 C 201.187 -1.00503 -1.59827 0
M  V30 1955 O 200.544 0.00119474 -1.825 0
M  V30 1956 C 200.595 -3.42408 -1.15927 0
M  V30 1957 O 200.316 -4.37869 -0.142143 0
M  V30 1958 C 201.817 -4.00232 -1.90602 0
M  V30 1959 H 199.037 -0.655772 -0.14214 0
M  V30 1960 H 201.581 -2.03383 0.213413 0
M  V30 1961 H 199.736 -3.39706 -1.86223 0
M  V30 1962 H 200.15 -5.21128 -0.593775 0
M  V30 1963 H 201.624 -5.02105 -2.29335 0
M  V30 1964 H 202.101 -3.39721 -2.78363 0
M  V30 1965 H 202.707 -4.06499 -1.25055 0
M  V30 1966 N 201.022 0.148545 -1.56898 0
M  V30 1967 C 202.252 0.875118 -1.8715 0
M  V30 1968 C 202.66 1.75322 -0.711262 0
M  V30 1969 O 202.003 1.80745 0.328151 0
M  V30 1970 C 202.065 1.7844 -3.12089 0
M  V30 1971 C 201.729 1.08361 -4.43967 0
M  V30 1972 C 202.726 0.438247 -5.1805 0
M  V30 1973 C 200.411 1.07358 -4.90693 0
M  V30 1974 C 202.405 -0.20779 -6.37061 0
M  V30 1975 C 200.092 0.42373 -6.09629 0
M  V30 1976 C 201.09 -0.215829 -6.82659 0
M  V30 1977 O 200.778 -0.855378 -7.99336 0
M  V30 1978 H 200.51 0.258504 -0.624621 0
M  V30 1979 H 203.064 0.14652 -2.04877 0
M  V30 1980 H 201.294 2.55389 -2.90367 0
M  V30 1981 H 202.983 2.38279 -3.286 0
M  V30 1982 H 203.749 0.437817 -4.8302 0
M  V30 1983 H 199.628 1.5608 -4.33774 0
M  V30 1984 H 203.172 -0.70758 -6.94002 0
M  V30 1985 H 199.069 0.421822 -6.4412 0
M  V30 1986 H 199.837 -0.756892 -8.14993 0
M  V30 1987 N 202.5 1.5196 0.417844 0
M  V30 1988 C 203.463 1.74065 1.49111 0
M  V30 1989 C 204.463 0.610537 1.48758 0
M  V30 1990 O 205.653 0.87832 1.50437 0
M  V30 1991 C 202.785 1.81502 2.88565 0
M  V30 1992 H 203.978 2.69869 1.30807 0
M  V30 1993 H 201.531 1.42244 0.647785 0
M  V30 1994 H 202.266 0.875813 3.1225 0
M  V30 1995 H 202.051 2.63651 2.90225 0
M  V30 1996 H 203.541 2.00376 3.66387 0
M  V30 1997 N 203.978 -0.674533 1.42435 0
M  V30 1998 C 205.226 -1.43175 1.42637 0
M  V30 1999 C 205.547 -1.94951 0.0438992 0
M  V30 2000 O 204.817 -1.7308 -0.917607 0
M  V30 2001 H 203.397 -0.531307 0.525092 0
M  V30 2002 H 206.059 -0.797006 1.77859 0
M  V30 2003 H 205.155 -2.28463 2.12629 0
M  V30 2004 N 205.456 -1.28612 -0.910864 0
M  V30 2005 C 206.704 -1.15705 -1.65701 0
M  V30 2006 C 207.025 0.29416 -1.92769 0
M  V30 2007 O 206.295 1.20331 -1.54588 0
M  V30 2008 H 204.875 -0.425216 -0.614167 0
M  V30 2009 H 207.537 -1.61381 -1.0928 0
M  V30 2010 H 206.633 -1.6988 -2.61815 0
M  V30 2011 N 206.934 1.1197 -1.10907 0
M  V30 2012 C 208.159 1.87942 -0.877064 0
M  V30 2013 C 208.584 1.79341 0.567314 0
M  V30 2014 O 207.942 1.15184 1.40009 0
M  V30 2015 C 207.99 3.34926 -1.33629 0
M  V30 2016 O 207.094 4.09303 -0.504447 0
M  V30 2017 H 206.435 0.583785 -0.316371 0
M  V30 2018 H 208.965 1.4157 -1.47712 0
M  V30 2019 H 208.975 3.8577 -1.32837 0
M  V30 2020 H 207.65 3.40504 -2.3881 0
M  V30 2021 H 206.227 3.68393 -0.577993 0
M  V30 2022 N 208.412 0.89855 1.29475 0
M  V30 2023 C 209.658 0.524658 1.95896 0
M  V30 2024 C 209.991 -0.926468 1.70676 0
M  V30 2025 O 209.266 -1.65665 1.01908 0
M  V30 2026 C 209.549 0.81633 3.50725 0
M  V30 2027 C 209.402 2.31907 3.85408 0
M  V30 2028 C 210.721 0.302038 4.39062 0
M  V30 2029 H 207.84 0.19209 0.711527 0
M  V30 2030 H 210.482 1.12502 1.53112 0
M  V30 2031 H 208.632 0.305369 3.87298 0
M  V30 2032 H 210.304 2.89949 3.58786 0
M  V30 2033 H 208.547 2.78027 3.32992 0
M  V30 2034 H 209.218 2.47373 4.93468 0
M  V30 2035 H 211.694 0.739551 4.09475 0
M  V30 2036 H 210.57 0.535331 5.46283 0
M  V30 2037 H 210.831 -0.797216 4.34853 0
M  V30 2038 N 209.89 -1.43072 0.660911 0
M  V30 2039 C 211.138 -2.01323 0.177094 0
M  V30 2040 C 211.459 -1.5245 -1.2159 0
M  V30 2041 O 210.729 -0.740322 -1.81373 0
M  V30 2042 H 209.309 -0.744382 0.0624804 0
M  V30 2043 H 211.971 -1.75179 0.854305 0
M  V30 2044 H 211.067 -3.11649 0.167641 0
M  V30 2045 N 211.368 -0.403325 -1.52352 0
M  V30 2046 C 212.616 0.174003 -2.0135 0
M  V30 2047 C 212.937 1.46139 -1.29106 0
M  V30 2048 O 212.207 1.91448 -0.415253 0
M  V30 2049 H 210.787 0.0672911 -0.743963 0
M  V30 2050 H 213.449 -0.538235 -1.87321 0
M  V30 2051 H 212.545 0.374254 -3.09848 0
M  V30 2052 N 212.846 1.57033 -0.133567 0
M  V30 2053 C 214.074 2.00044 0.528195 0
M  V30 2054 C 214.489 1.01349 1.59291 0
M  V30 2055 O 213.846 0.00848369 1.82498 0
M  V30 2056 C 213.897 3.43018 1.1411 0
M  V30 2057 O 213.618 4.37939 0.11892 0
M  V30 2058 C 215.119 4.01237 1.88477 0
M  V30 2059 H 212.339 0.656517 0.138661 0
M  V30 2060 H 214.883 2.03267 -0.224196 0
M  V30 2061 H 213.038 3.40688 1.84418 0
M  V30 2062 H 213.452 5.21436 0.56613 0
M  V30 2063 H 214.926 5.03314 2.26669 0
M  V30 2064 H 215.403 3.41193 2.76558 0
M  V30 2065 H 216.009 4.07156 1.22898 0
M  V30 2066 N 214.325 -0.140222 1.56975 0
M  V30 2067 C 215.553 -0.866437 1.87884 0
M  V30 2068 C 215.968 -1.74428 0.722517 0
M  V30 2069 O 215.325 -1.79891 -0.30749 0
M  V30 2070 C 215.376 -1.71753 3.18093 0
M  V30 2071 O 215.097 -0.875056 4.29272 0
M  V30 2072 C 216.598 -2.55074 3.62563 0
M  V30 2073 H 213.818 -0.25019 0.622612 0
M  V30 2074 H 216.362 -0.130977 2.0408 0
M  V30 2075 H 214.517 -2.40598 3.03631 0
M  V30 2076 H 214.931 -1.46002 5.03769 0
M  V30 2077 H 216.405 -3.10356 4.5649 0
M  V30 2078 H 216.882 -3.31434 2.88181 0
M  V30 2079 H 217.488 -1.91509 3.79743 0
M  V30 2080 N 215.803 -1.52179 -0.40978 0
M  V30 2081 C 217.08 -1.56769 -1.16974 0
M  V30 2082 C 217.46 -0.348322 -2.08206 0
M  V30 2083 O 216.808 0.664862 -2.18613 0
M  V30 2084 C 217.018 -2.89603 -1.9476 0
M  V30 2085 C 218.366 -3.42579 -2.50849 0
M  V30 2086 O 219.39 -2.91338 -2.04941 0
M  V30 2087 O 218.249 -4.32054 -3.34652 0
M  V30 2088 H 215.343 -0.631439 -0.534054 0
M  V30 2089 H 217.889 -1.64507 -0.416613 0
M  V30 2090 H 216.661 -3.698 -1.27921 0
M  V30 2091 H 216.284 -2.85155 -2.77079 0
M  V30 2092 N 217.281 0.66697 -1.42791 0
M  V30 2093 C 218.211 1.79218 -1.49677 0
M  V30 2094 C 219.192 1.66405 -0.352623 0
M  V30 2095 O 220.377 1.85708 -0.567993 0
M  V30 2096 C 217.507 3.17565 -1.40605 0
M  V30 2097 C 216.461 3.45124 -2.53127 0
M  V30 2098 C 215.787 4.83127 -2.29112 0
M  V30 2099 C 217.087 3.41236 -3.95418 0
M  V30 2100 H 218.781 1.73713 -2.43853 0
M  V30 2101 H 216.327 0.83432 -1.17367 0
M  V30 2102 H 218.28 3.96022 -1.44029 0
M  V30 2103 H 217.004 3.23767 -0.429271 0
M  V30 2104 H 215.663 2.69031 -2.49034 0
M  V30 2105 H 215.311 4.85988 -1.29709 0
M  V30 2106 H 215.011 5.02528 -3.04531 0
M  V30 2107 H 216.535 5.63859 -2.34297 0
M  V30 2108 H 217.949 4.09651 -4.01073 0
M  V30 2109 H 216.346 3.72173 -4.70752 0
M  V30 2110 H 217.416 2.39665 -4.21532 0
M  V30 2111 N 218.759 1.29093 0.90403 0
M  V30 2112 C 219.669 1.15727 2.0407 0
M  V30 2113 C 220.685 0.0815308 1.73809 0
M  V30 2114 O 221.861 0.292749 1.99261 0
M  V30 2115 C 218.926 0.830424 3.36608 0
M  V30 2116 C 217.987 1.98955 3.80415 0
M  V30 2117 C 217.22 1.6782 5.06628 0
M  V30 2118 O 217.443 0.597105 5.67266 0
M  V30 2119 O 216.377 2.52486 5.46383 0
M  V30 2120 H 220.203 2.11171 2.18267 0
M  V30 2121 H 217.788 1.08504 1.027 0
M  V30 2122 H 219.67 0.662521 4.16159 0
M  V30 2123 H 218.345 -0.0942678 3.23563 0
M  V30 2124 H 217.252 2.21267 3.01648 0
M  V30 2125 H 218.585 2.89529 3.98037 0
M  V30 2126 N 220.237 -1.11381 1.11499 0
M  V30 2127 C 221.465 -1.86934 0.88675 0
M  V30 2128 C 221.88 -1.80195 -0.563476 0
M  V30 2129 O 221.237 -1.18367 -1.38908 0
M  V30 2130 C 221.288 -3.35722 1.34064 0
M  V30 2131 O 221.009 -3.4232 2.73401 0
M  V30 2132 C 222.51 -4.2818 1.14791 0
M  V30 2133 H 219.73 -0.591117 0.317523 0
M  V30 2134 H 222.274 -1.40865 1.48248 0
M  V30 2135 H 220.429 -3.79294 0.788355 0
M  V30 2136 H 220.843 -4.34971 2.93087 0
M  V30 2137 H 222.317 -5.30817 1.5145 0
M  V30 2138 H 222.794 -4.39113 0.0875279 0
M  V30 2139 H 223.4 -3.90402 1.68721 0
M  V30 2140 N 221.715 -0.905404 -1.28997 0
M  V30 2141 C 222.648 -0.331959 -2.25773 0
M  V30 2142 C 223.626 0.559099 -1.52685 0
M  V30 2143 O 224.81 0.50463 -1.8162 0
M  V30 2144 C 221.937 0.526276 -3.34586 0
M  V30 2145 C 220.983 -0.298249 -4.25456 0
M  V30 2146 S 221.816 -1.69968 -5.0781 0
M  V30 2147 C 222.972 -0.848519 -6.20122 0
M  V30 2148 H 223.205 -1.15222 -2.74064 0
M  V30 2149 H 220.738 -0.706112 -1.37308 0
M  V30 2150 H 222.696 1.01565 -3.97737 0
M  V30 2151 H 221.357 1.32084 -2.84978 0
M  V30 2152 H 220.55 0.357607 -5.0273 0
M  V30 2153 H 220.152 -0.720968 -3.66985 0
M  V30 2154 H 222.444 -0.0744325 -6.77459 0
M  V30 2155 H 223.387 -1.59353 -6.89937 0
M  V30 2156 H 223.795 -0.400383 -5.63078 0
M  V30 2157 N 223.193 1.4272 -0.668489 0
M  V30 2158 C 224.141 2.32586 0.0254857 0
M  V30 2159 C 225.135 1.49471 0.797176 0
M  V30 2160 O 226.341 1.65583 0.705853 0
M  V30 2161 H 222.716 0.751514 0.0270339 0
M  V30 2162 H 224.687 2.88823 -0.749936 0
M  V30 2163 C 223.436 3.3397 0.967427 0
M  V30 2164 H 222.759 3.97961 0.383048 0
M  V30 2165 H 224.199 3.9945 1.42181 0
M  V30 2166 C 222.658 2.65744 2.0708 0
M  V30 2167 O 223.188 2.48454 3.15648 0
M  V30 2168 N 221.394 2.2487 1.8407 0
M  V30 2169 H 220.941 2.39132 0.95778 0
M  V30 2170 H 220.899 1.79552 2.58086 0
M  V30 2171 N 224.671 0.411399 1.52136 0
M  V30 2172 C 225.601 -0.404015 2.29978 0
M  V30 2173 C 226.582 -1.04412 1.34284 0
M  V30 2174 O 227.767 -1.0527 1.63192 0
M  V30 2175 C 224.897 -1.5197 3.12286 0
M  V30 2176 C 223.851 -1.00448 4.16046 0
M  V30 2177 C 223.177 -2.21393 4.86712 0
M  V30 2178 C 224.477 -0.0569336 5.22269 0
M  V30 2179 H 226.171 0.245529 2.98392 0
M  V30 2180 H 223.717 0.119525 1.43503 0
M  V30 2181 H 225.67 -2.09715 3.6551 0
M  V30 2182 H 224.394 -2.19716 2.41646 0
M  V30 2183 H 223.053 -0.449421 3.63835 0
M  V30 2184 H 222.701 -2.87699 4.12599 0
M  V30 2185 H 222.401 -1.87571 5.56858 0
M  V30 2186 H 223.925 -2.7974 5.4275 0
M  V30 2187 H 225.339 -0.54325 5.7072 0
M  V30 2188 H 223.736 0.192594 5.99791 0
M  V30 2189 H 224.806 0.887663 4.76706 0
M  V30 2190 N 226.149 -1.5696 0.141893 0
M  V30 2191 C 227.097 -2.17784 -0.816874 0
M  V30 2192 C 228.091 -1.1334 -1.25899 0
M  V30 2193 O 229.297 -1.316 -1.22806 0
M  V30 2194 H 225.672 -0.697278 -0.281615 0
M  V30 2195 H 227.643 -2.97087 -0.279621 0
M  V30 2196 C 226.392 -2.80983 -2.04802 0
M  V30 2197 H 225.715 -3.61062 -1.7168 0
M  V30 2198 H 227.155 -3.2705 -2.69841 0
M  V30 2199 C 225.614 -1.79228 -2.8527 0
M  V30 2200 O 226.144 -1.25962 -3.8144 0
M  V30 2201 N 224.35 -1.48647 -2.49704 0
M  V30 2202 H 223.897 -1.92155 -1.71564 0
M  V30 2203 H 223.855 -0.808115 -3.03837 0
M  V30 2204 N 227.627 0.131896 -1.57047 0
M  V30 2205 C 228.557 1.16384 -2.02428 0
M  V30 2206 C 229.538 1.43936 -0.90644 0
M  V30 2207 O 230.723 1.54599 -1.17528 0
M  V30 2208 C 227.853 2.49328 -2.4177 0
M  V30 2209 C 226.807 2.36266 -3.56879 0
M  V30 2210 C 226.133 3.74057 -3.8208 0
M  V30 2211 C 227.433 1.834 -4.89042 0
M  V30 2212 H 229.127 0.786433 -2.88887 0
M  V30 2213 H 226.673 0.376855 -1.38981 0
M  V30 2214 H 228.626 3.21759 -2.7212 0
M  V30 2215 H 227.35 2.88934 -1.52266 0
M  V30 2216 H 226.009 1.66286 -3.26718 0
M  V30 2217 H 225.657 4.11125 -2.89803 0
M  V30 2218 H 225.357 3.66174 -4.59554 0
M  V30 2219 H 226.881 4.48012 -4.1487 0
M  V30 2220 H 228.295 2.45636 -5.18011 0
M  V30 2221 H 226.692 1.8637 -5.70426 0
M  V30 2222 H 227.762 0.790662 -4.7841 0
M  V30 2223 N 229.106 1.52395 0.401703 0
M  V30 2224 C 230.331 1.70972 1.17403 0
M  V30 2225 C 230.756 0.421615 1.83314 0
M  V30 2226 O 230.114 -0.621564 1.70312 0
M  V30 2227 C 230.162 2.85151 2.20728 0
M  V30 2228 O 229.266 2.51238 3.27037 0
M  V30 2229 H 228.607 0.568927 0.342372 0
M  V30 2230 H 231.137 1.99131 0.469891 0
M  V30 2231 H 231.147 3.10279 2.64936 0
M  V30 2232 H 229.822 3.78603 1.7214 0
M  V30 2233 H 228.399 2.36808 2.88057 0
M  V30 2234 N 230.584 -0.659388 1.43143 0
M  V30 2235 C 231.832 -1.41654 1.44147 0
M  V30 2236 C 232.153 -1.94893 0.0645739 0
M  V30 2237 O 231.423 -1.74044 -0.899198 0
M  V30 2238 H 230.003 -0.525708 0.530697 0
M  V30 2239 H 232.665 -0.778097 1.78694 0
M  V30 2240 H 231.761 -2.26195 2.1504 0
M  V30 2241 N 232.062 -1.29571 -0.897171 0
M  V30 2242 C 233.025 -1.14913 -1.98312 0
M  V30 2243 C 234.025 -0.0838629 -1.60581 0
M  V30 2244 O 235.215 -0.331006 -1.71026 0
M  V30 2245 C 232.347 -0.757835 -3.3237 0
M  V30 2246 H 233.54 -2.11377 -2.12743 0
M  V30 2247 H 231.093 -1.12793 -1.08201 0
M  V30 2248 H 231.828 0.206837 -3.2364 0
M  V30 2249 H 231.613 -1.52755 -3.61121 0
M  V30 2250 H 233.103 -0.678408 -4.12053 0
M  V30 2251 N 233.54 1.10788 -1.12088 0
M  V30 2252 C 234.77 1.86191 -0.895351 0
M  V30 2253 C 235.178 1.80763 0.558702 0
M  V30 2254 O 234.521 1.19188 1.39785 0
M  V30 2255 C 234.583 3.35659 -1.28737 0
M  V30 2256 C 234.247 3.64849 -2.75198 0
M  V30 2257 C 235.244 3.61757 -3.734 0
M  V30 2258 C 232.929 3.93641 -3.12013 0
M  V30 2259 C 234.923 3.87045 -5.06434 0
M  V30 2260 C 232.61 4.18585 -4.4523 0
M  V30 2261 C 233.608 4.15277 -5.42249 0
M  V30 2262 O 233.296 4.3959 -6.73065 0
M  V30 2263 H 233.028 0.595425 -0.32007 0
M  V30 2264 H 235.582 1.40992 -1.49367 0
M  V30 2265 H 233.812 3.81497 -0.63224 0
M  V30 2266 H 235.501 3.92441 -1.03656 0
M  V30 2267 H 236.267 3.39557 -3.46303 0
M  V30 2268 H 232.146 3.95348 -2.37109 0
M  V30 2269 H 235.69 3.84378 -5.82151 0
M  V30 2270 H 231.587 4.40264 -4.72057 0
M  V30 2271 H 232.355 4.57123 -6.78956 0
M  V30 2272 N 235.018 0.912232 1.28515 0
M  V30 2273 C 236.434 0.610159 1.47476 0
M  V30 2274 C 236.634 -0.844955 1.82928 0
M  V30 2275 O 235.69 -1.62416 1.93332 0
M  V30 2276 C 237.003 1.54675 2.57868 0
M  V30 2277 C 238.551 1.55331 2.71738 0
M  V30 2278 C 239.026 2.47649 3.85272 0
M  V30 2279 N 240.517 2.45767 3.92623 0
M  V30 2280 C 241.252 3.13896 4.79851 0
M  V30 2281 N 240.748 3.9135 5.71679 0
M  V30 2282 N 242.541 3.02991 4.73448 0
M  V30 2283 H 234.692 1.85318 1.03783 0
M  V30 2284 H 236.955 0.794777 0.516753 0
M  V30 2285 H 236.661 2.5841 2.38574 0
M  V30 2286 H 236.535 1.27671 3.54937 0
M  V30 2287 H 238.922 0.52335 2.90422 0
M  V30 2288 H 239.003 1.86378 1.75205 0
M  V30 2289 H 238.647 3.50745 3.67342 0
M  V30 2290 H 238.577 2.13904 4.81199 0
M  V30 2291 H 241.068 1.89503 3.26951 0
M  V30 2292 H 241.381 4.40359 6.35062 0
M  V30 2293 H 239.726 3.95455 5.71524 0
M  V30 2294 H 242.917 2.41987 4.007 0
M  V30 2295 H 243.09 3.5636 5.41213 0
M  V30 2296 N 236.496 -1.42363 0.676048 0
M  V30 2297 C 237.426 -2.33497 0.0124832 0
M  V30 2298 C 238.407 -1.50748 -0.787981 0
M  V30 2299 O 239.592 -1.79346 -0.744884 0
M  V30 2300 C 236.722 -3.34377 -0.938582 0
M  V30 2301 C 235.676 -4.27289 -0.246622 0
M  V30 2302 C 235.002 -5.18386 -1.31071 0
M  V30 2303 C 236.302 -5.14916 0.875125 0
M  V30 2304 H 237.996 -2.89233 0.773593 0
M  V30 2305 H 235.542 -1.39073 0.37346 0
M  V30 2306 H 237.495 -3.97044 -1.41188 0
M  V30 2307 H 236.219 -2.76947 -1.73113 0
M  V30 2308 H 234.878 -3.66018 0.206456 0
M  V30 2309 H 234.526 -4.57282 -2.09528 0
M  V30 2310 H 234.226 -5.81378 -0.852839 0
M  V30 2311 H 235.75 -5.83929 -1.78492 0
M  V30 2312 H 237.164 -5.71262 0.482983 0
M  V30 2313 H 235.561 -5.86747 1.25887 0
M  V30 2314 H 236.631 -4.53242 1.72335 0
M  V30 2315 N 237.974 -0.419461 -1.51915 0
M  V30 2316 C 238.922 0.415502 -2.28859 0
M  V30 2317 C 239.916 1.03674 -1.3397 0
M  V30 2318 O 241.122 0.973757 -1.51387 0
M  V30 2319 H 237.497 0.152786 -0.736315 0
M  V30 2320 H 239.468 -0.254531 -2.97312 0
M  V30 2321 C 238.217 1.51425 -3.12995 0
M  V30 2322 H 237.54 1.04556 -3.85886 0
M  V30 2323 H 238.98 2.07208 -3.6992 0
M  V30 2324 C 237.439 2.48745 -2.27217 0
M  V30 2325 O 237.969 3.52871 -1.9195 0
M  V30 2326 N 236.175 2.19202 -1.90785 0
M  V30 2327 H 235.722 1.34556 -2.19664 0
M  V30 2328 H 235.68 2.84561 -1.33687 0
M  V30 2329 N 239.452 1.56882 -0.150215 0
M  V30 2330 C 240.4 2.18214 0.805313 0
M  V30 2331 C 241.394 1.14006 1.25296 0
M  V30 2332 O 242.6 1.3225 1.22107 0
M  V30 2333 H 238.975 0.698762 0.277913 0
M  V30 2334 H 240.946 2.97231 0.263862 0
M  V30 2335 C 239.695 2.82065 2.03309 0
M  V30 2336 H 239.018 3.61968 1.69763 0
M  V30 2337 H 240.458 3.28477 2.68103 0
M  V30 2338 C 238.917 1.80739 2.84315 0
M  V30 2339 O 239.447 1.27983 3.80767 0
M  V30 2340 N 237.653 1.4997 2.48913 0
M  V30 2341 H 237.2 1.93062 1.70542 0
M  V30 2342 H 237.158 0.824217 3.03404 0
M  V30 2343 N 240.93 -0.123565 1.57115 0
M  V30 2344 C 241.893 -1.13583 1.99076 0
M  V30 2345 C 242.893 -1.34564 0.880296 0
M  V30 2346 O 244.083 -1.31158 1.14644 0
M  V30 2347 C 241.215 -2.49128 2.32698 0
M  V30 2348 H 242.408 -0.775287 2.89706 0
M  V30 2349 H 239.961 -0.36771 1.51913 0
M  V30 2350 H 240.696 -2.90111 1.44934 0
M  V30 2351 H 240.481 -2.35255 3.13684 0
M  V30 2352 H 241.971 -3.2199 2.65918 0
M  V30 2353 N 242.408 -1.52605 -0.393616 0
M  V30 2354 C 243.654 -1.68624 -1.13743 0
M  V30 2355 C 244.009 -0.418687 -1.87789 0
M  V30 2356 O 243.302 0.58747 -1.82371 0
M  V30 2357 C 243.496 -2.85721 -2.14705 0
M  V30 2358 C 243.325 -4.23742 -1.50575 0
M  V30 2359 C 242.095 -4.89033 -1.2718 0
M  V30 2360 C 244.293 -5.05293 -0.958311 0
M  V30 2361 N 242.275 -6.11048 -0.591058 0
M  V30 2362 C 243.646 -6.18673 -0.405367 0
M  V30 2363 C 245.701 -4.90517 -0.854274 0
M  V30 2364 C 244.404 -7.18895 0.241434 0
M  V30 2365 C 246.43 -5.90986 -0.221301 0
M  V30 2366 C 245.792 -7.03669 0.320894 0
M  V30 2367 H 241.891 -0.670556 -0.402342 0
M  V30 2368 H 244.475 -1.89946 -0.427607 0
M  V30 2369 H 242.646 -2.65987 -2.83029 0
M  V30 2370 H 244.378 -2.90699 -2.8156 0
M  V30 2371 H 241.133 -4.47672 -1.54554 0
M  V30 2372 H 241.557 -6.76474 -0.266862 0
M  V30 2373 H 246.199 -4.03612 -1.25926 0
M  V30 2374 H 243.917 -8.05413 0.658448 0
M  V30 2375 H 247.503 -5.81626 -0.142111 0
M  V30 2376 H 246.383 -7.80078 0.802956 0
M  V30 2377 N 243.887 0.651787 -1.4349 0
M  V30 2378 C 245.112 1.44434 -1.48841 0
M  V30 2379 C 245.537 1.8779 -0.107955 0
M  V30 2380 O 244.895 1.57464 0.898602 0
M  V30 2381 C 244.943 2.65458 -2.44059 0
M  V30 2382 O 244.047 3.64566 -1.92784 0
M  V30 2383 H 243.388 0.433005 -0.503391 0
M  V30 2384 H 245.918 0.797451 -1.88419 0
M  V30 2385 H 245.928 3.13255 -2.6141 0
M  V30 2386 H 244.603 2.33244 -3.4434 0
M  V30 2387 H 243.18 3.23716 -1.851 0
M  V30 2388 N 245.365 1.30045 0.890287 0
M  V30 2389 C 246.612 1.18561 1.64163 0
M  V30 2390 C 246.94 -0.260852 1.92743 0
M  V30 2391 O 246.195 -1.20376 1.54299 0
M  V30 2392 C 246.494 1.95409 2.99249 0
M  V30 2393 C 246.16 3.45066 2.90242 0
M  V30 2394 C 244.822 3.85878 2.87492 0
M  V30 2395 C 247.174 4.4039 2.78758 0
M  V30 2396 C 244.502 5.20314 2.7109 0
M  V30 2397 C 246.854 5.74928 2.63894 0
M  V30 2398 C 245.518 6.14986 2.59516 0
M  V30 2399 H 244.788 0.433846 0.600715 0
M  V30 2400 H 247.435 1.61088 1.03552 0
M  V30 2401 H 245.74 1.45501 3.63781 0
M  V30 2402 H 247.437 1.8392 3.56334 0
M  V30 2403 H 244.027 3.12631 2.93189 0
M  V30 2404 H 248.211 4.09806 2.79952 0
M  V30 2405 H 243.467 5.50449 2.66112 0
M  V30 2406 H 247.641 6.48434 2.53981 0
M  V30 2407 H 245.268 7.19104 2.46565 0
M  V30 2408 N 246.843 -1.10192 1.12674 0
M  V30 2409 C 248.091 -1.81845 0.881861 0
M  V30 2410 C 248.412 -1.85737 -0.593867 0
M  V30 2411 O 247.682 -1.33724 -1.4316 0
M  V30 2412 H 246.262 -0.673432 0.323261 0
M  V30 2413 H 248.924 -1.33316 1.42172 0
M  V30 2414 H 248.02 -2.85288 1.2656 0
M  V30 2415 N 248.321 -0.919034 -1.28029 0
M  V30 2416 C 249.251 -0.428581 -2.29533 0
M  V30 2417 C 250.232 0.50659 -1.62381 0
M  V30 2418 O 251.417 0.413195 -1.89753 0
M  V30 2419 C 248.547 0.327388 -3.45753 0
M  V30 2420 C 247.501 -0.519137 -4.2484 0
M  V30 2421 C 246.827 0.365486 -5.33449 0
M  V30 2422 C 248.127 -1.77914 -4.91064 0
M  V30 2423 H 249.821 -1.27687 -2.70807 0
M  V30 2424 H 247.367 -0.615428 -1.30186 0
M  V30 2425 H 249.32 0.681378 -4.15855 0
M  V30 2426 H 248.044 1.20963 -3.03374 0
M  V30 2427 H 246.703 -0.855717 -3.56473 0
M  V30 2428 H 246.351 1.24642 -4.87312 0
M  V30 2429 H 246.051 -0.197356 -5.87268 0
M  V30 2430 H 247.575 0.715241 -6.06396 0
M  V30 2431 H 248.989 -1.49374 -5.53498 0
M  V30 2432 H 247.386 -2.2848 -5.54903 0
M  V30 2433 H 248.456 -2.50382 -4.15255 0
M  V30 2434 N 249.799 1.42003 -0.683588 0
M  V30 2435 C 251.047 2.01015 -0.209101 0
M  V30 2436 C 251.368 1.54365 1.19149 0
M  V30 2437 O 250.638 0.769083 1.80172 0
M  V30 2438 H 249.218 0.743294 -0.074315 0
M  V30 2439 H 251.88 1.73798 -0.882066 0
M  V30 2440 H 250.976 3.11343 -0.2172 0
M  V30 2441 N 251.277 0.427512 1.51691 0
M  V30 2442 C 252.524 -0.142229 2.02 0
M  V30 2443 C 252.852 -1.43566 1.31221 0
M  V30 2444 O 252.107 -1.91298 0.412744 0
M  V30 2445 C 252.406 -0.418249 3.54944 0
M  V30 2446 C 252.072 0.788187 4.43958 0
M  V30 2447 C 250.734 1.11906 4.68007 0
M  V30 2448 C 253.086 1.59347 4.96244 0
M  V30 2449 C 250.414 2.25608 5.41588 0
M  V30 2450 C 252.766 2.7214 5.71072 0
M  V30 2451 C 251.43 3.05692 5.93387 0
M  V30 2452 H 250.7 -0.0520451 0.73917 0
M  V30 2453 H 253.347 0.572697 1.82736 0
M  V30 2454 H 251.652 -1.21496 3.72486 0
M  V30 2455 H 253.349 -0.872339 3.91397 0
M  V30 2456 H 249.939 0.520344 4.2543 0
M  V30 2457 H 254.123 1.35106 4.77556 0
M  V30 2458 H 249.379 2.51929 5.57083 0
M  V30 2459 H 253.553 3.34914 6.10578 0
M  V30 2460 H 251.18 3.9391 6.50184 0
M  V30 2461 N 252.755 -1.56801 0.158532 0
M  V30 2462 C 253.703 -2.18638 -0.793729 0
M  V30 2463 C 254.697 -1.14669 -1.24689 0
M  V30 2464 O 255.903 -1.32895 -1.21403 0
M  V30 2465 H 252.278 -0.700226 -0.274204 0
M  V30 2466 H 254.249 -2.97367 -0.248095 0
M  V30 2467 C 252.998 -2.83139 -2.0181 0
M  V30 2468 H 252.321 -3.62863 -1.67841 0
M  V30 2469 H 253.761 -3.29894 -2.66357 0
M  V30 2470 C 252.22 -1.82244 -2.83353 0
M  V30 2471 O 252.75 -1.3 -3.80083 0
M  V30 2472 N 250.956 -1.51288 -2.48114 0
M  V30 2473 H 250.503 -1.93964 -1.69516 0
M  V30 2474 H 250.461 -0.840296 -3.02963 0
M  V30 2475 N 254.233 0.115231 -1.57178 0
M  V30 2476 C 255.196 1.12526 -1.99676 0
M  V30 2477 C 256.196 1.34095 -0.88742 0
M  V30 2478 O 257.386 1.30548 -1.15337 0
M  V30 2479 C 254.518 2.4789 -2.34015 0
M  V30 2480 H 255.711 0.759912 -2.90113 0
M  V30 2481 H 253.264 0.359648 -1.52106 0
M  V30 2482 H 253.999 2.89339 -1.4647 0
M  V30 2483 H 253.784 2.33588 -3.14927 0
M  V30 2484 H 255.274 3.20575 -2.67622 0
M  V30 2485 N 255.711 1.52812 0.385517 0
M  V30 2486 C 256.957 1.68275 1.13188 0
M  V30 2487 C 257.29 0.423179 1.89533 0
M  V30 2488 O 256.565 -0.579113 1.85679 0
M  V30 2489 C 256.848 2.92001 2.1073 0
M  V30 2490 C 256.701 4.28067 1.38125 0
M  V30 2491 C 258.02 3.11283 3.11113 0
M  V30 2492 H 255.139 0.612352 0.410115 0
M  V30 2493 H 257.781 1.85415 0.414869 0
M  V30 2494 H 255.931 2.77519 2.71874 0
M  V30 2495 H 257.603 4.54324 0.799187 0
M  V30 2496 H 255.846 4.28388 0.683092 0
M  V30 2497 H 256.517 5.10733 2.09417 0
M  V30 2498 H 258.993 3.2482 2.6006 0
M  V30 2499 H 257.869 3.99325 3.76605 0
M  V30 2500 H 258.13 2.25656 3.80173 0
M  V30 2501 N 257.189 -0.644168 1.43834 0
M  V30 2502 C 258.419 -1.42939 1.49171 0
M  V30 2503 C 258.827 -1.88874 0.111048 0
M  V30 2504 O 258.17 -1.60656 -0.8908 0
M  V30 2505 C 258.232 -2.69151 2.38324 0
M  V30 2506 C 257.896 -2.45097 3.85715 0
M  V30 2507 C 258.893 -2.07747 4.76589 0
M  V30 2508 C 256.578 -2.59141 4.30292 0
M  V30 2509 C 258.572 -1.8475 6.10038 0
M  V30 2510 C 256.259 -2.35759 5.63792 0
M  V30 2511 C 257.257 -1.9862 6.53482 0
M  V30 2512 O 256.945 -1.75489 7.84512 0
M  V30 2513 H 256.677 -0.445271 0.508635 0
M  V30 2514 H 259.231 -0.79621 1.8934 0
M  V30 2515 H 257.461 -3.3506 1.93058 0
M  V30 2516 H 259.15 -3.31123 2.3476 0
M  V30 2517 H 259.916 -1.96465 4.43426 0
M  V30 2518 H 255.795 -2.87022 3.60749 0
M  V30 2519 H 259.339 -1.55686 6.80006 0
M  V30 2520 H 255.236 -2.46646 5.9652 0
M  V30 2521 H 256.004 -1.89841 7.9618 0
M  V30 2522 N 258.668 -1.30515 -0.883378 0
M  V30 2523 C 259.631 -1.1701 -1.97082 0
M  V30 2524 C 260.631 -0.10089 -1.60483 0
M  V30 2525 O 261.821 -0.349127 -1.70666 0
M  V30 2526 C 258.953 -0.793045 -3.31547 0
M  V30 2527 H 260.146 -2.13622 -2.10489 0
M  V30 2528 H 257.699 -1.13935 -1.06998 0
M  V30 2529 H 258.434 0.172499 -3.23841 0
M  V30 2530 H 258.219 -1.56576 -3.5948 0
M  V30 2531 H 259.709 -0.722073 -4.1131 0
M  V30 2532 N 260.146 1.09593 -1.13257 0
M  V30 2533 C 261.562 1.33775 -0.870423 0
M  V30 2534 C 261.762 1.95327 0.494926 0
M  V30 2535 O 260.818 2.19853 1.2418 0
M  V30 2536 C 262.131 2.25106 -1.99369 0
M  V30 2537 C 263.679 2.3862 -2.02558 0
M  V30 2538 C 264.154 3.33285 -3.14142 0
M  V30 2539 N 265.645 3.40857 -3.13641 0
M  V30 2540 C 266.38 4.14101 -3.96621 0
M  V30 2541 N 265.876 4.90157 -4.8961 0
M  V30 2542 N 267.669 4.09808 -3.84726 0
M  V30 2543 H 259.82 0.680136 -2.01216 0
M  V30 2544 H 262.083 0.362133 -0.876107 0
M  V30 2545 H 261.789 1.87103 -2.97801 0
M  V30 2546 H 261.663 3.25481 -1.90635 0
M  V30 2547 H 264.05 2.75887 -1.0474 0
M  V30 2548 H 264.131 1.38028 -2.15364 0
M  V30 2549 H 263.775 2.96741 -4.12198 0
M  V30 2550 H 263.705 4.33776 -2.98574 0
M  V30 2551 H 266.196 2.86624 -2.46282 0
M  V30 2552 H 266.509 5.4347 -5.49418 0
M  V30 2553 H 264.854 4.89251 -4.93617 0
M  V30 2554 H 268.045 3.4949 -3.11408 0
M  V30 2555 H 268.218 4.66629 -4.49623 0
M  V30 2556 N 261.624 0.925811 1.2754 0
M  V30 2557 C 262.587 0.428129 2.25166 0
M  V30 2558 C 263.587 -0.452261 1.54309 0
M  V30 2559 O 264.777 -0.253608 1.72344 0
M  V30 2560 C 261.909 -0.384749 3.38722 0
M  V30 2561 H 263.102 1.29066 2.70706 0
M  V30 2562 H 260.655 0.706323 1.3943 0
M  V30 2563 H 261.39 -1.26618 2.98561 0
M  V30 2564 H 261.175 0.246454 3.91325 0
M  V30 2565 H 262.665 -0.723389 4.11287 0
M  V30 2566 N 263.102 -1.41638 0.69111 0
M  V30 2567 C 264.049 -2.30789 0.0229705 0
M  V30 2568 C 265.019 -1.46863 -0.775911 0
M  V30 2569 O 266.204 -1.75661 -0.74485 0
M  V30 2570 C 263.344 -3.32868 -0.910666 0
M  V30 2571 C 262.457 -4.31875 -0.103874 0
M  V30 2572 C 261.592 -5.21024 -1.03475 0
M  V30 2573 C 260.631 -6.11702 -0.220598 0
M  V30 2574 N 259.768 -6.93349 -1.10504 0
M  V30 2575 H 264.608 -2.87366 0.788978 0
M  V30 2576 H 262.145 -1.41535 0.400794 0
M  V30 2577 H 264.103 -3.90596 -1.46597 0
M  V30 2578 H 262.733 -2.77851 -1.64312 0
M  V30 2579 H 261.785 -3.76131 0.568285 0
M  V30 2580 H 263.097 -4.96003 0.527504 0
M  V30 2581 H 262.251 -5.83565 -1.65943 0
M  V30 2582 H 260.99 -4.57112 -1.69999 0
M  V30 2583 H 259.995 -5.48215 0.417187 0
M  V30 2584 H 261.22 -6.77668 0.440784 0
M  V30 2585 H 259.166 -6.3205 -1.75638 0
M  V30 2586 H 259.083 -7.54146 -0.529125 0
M  V30 2587 H 260.351 -7.60362 -1.71667 0
M  V30 2588 N 264.58 -0.43555 -1.51462 0
M  V30 2589 C 265.829 0.133007 -2.01261 0
M  V30 2590 C 266.142 1.43942 -1.32439 0
M  V30 2591 O 267.348 2.09081 -1.73198 0
M  V30 2592 C 265.804 0.287581 -3.58749 0
M  V30 2593 C 265.412 -1.00829 -4.36506 0
M  V30 2594 C 267.156 0.810004 -4.167 0
M  V30 2595 C 265.063 -0.819454 -5.85695 0
M  V30 2596 H 263.993 0.0534822 -0.752101 0
M  V30 2597 H 266.644 -0.565038 -1.74584 0
M  V30 2598 H 265.026 1.04859 -3.81865 0
M  V30 2599 H 266.2 -1.77749 -4.25138 0
M  V30 2600 H 264.515 -1.45911 -3.89999 0
M  V30 2601 H 267.112 0.967743 -5.2587 0
M  V30 2602 H 267.455 1.79196 -3.75758 0
M  V30 2603 H 267.988 0.107357 -3.97655 0
M  V30 2604 H 264.727 -1.77374 -6.31046 0
M  V30 2605 H 264.247 -0.0900208 -5.99732 0
M  V30 2606 H 265.926 -0.471949 -6.45276 0
M  V30 2607 N 266.058 1.56714 -0.166846 0
M  V30 2608 C 266.968 2.21331 0.777791 0
M  V30 2609 C 267.984 1.20358 1.25658 0
M  V30 2610 O 269.16 1.53005 1.30964 0
M  V30 2611 C 266.225 2.83787 1.99163 0
M  V30 2612 C 265.286 3.99947 1.56016 0
M  V30 2613 C 264.519 4.59415 2.71613 0
M  V30 2614 O 264.742 4.17769 3.88362 0
M  V30 2615 O 263.676 5.49359 2.45945 0
M  V30 2616 H 267.502 3.02605 0.257636 0
M  V30 2617 H 265.087 1.49275 0.0611393 0
M  V30 2618 H 266.969 3.23405 2.70161 0
M  V30 2619 H 265.644 2.05513 2.50092 0
M  V30 2620 H 264.551 3.65007 0.819809 0
M  V30 2621 H 265.884 4.79801 1.09782 0
M  V30 2622 N 267.536 -0.106894 1.57237 0
M  V30 2623 C 268.952 -0.46078 1.52804 0
M  V30 2624 C 269.152 -1.81184 0.881746 0
M  V30 2625 O 268.208 -2.48102 0.469224 0
M  V30 2626 C 269.521 -0.434127 2.9755 0
M  V30 2627 C 271.069 -0.516821 3.08704 0
M  V30 2628 C 271.544 -0.520436 4.55033 0
M  V30 2629 N 273.035 -0.58153 4.59535 0
M  V30 2630 C 273.77 -0.605973 5.70189 0
M  V30 2631 N 273.266 -0.587331 6.90306 0
M  V30 2632 N 275.059 -0.649895 5.5833 0
M  V30 2633 H 267.21 0.778203 1.9763 0
M  V30 2634 H 269.473 0.288403 0.903066 0
M  V30 2635 H 269.179 0.491197 3.48253 0
M  V30 2636 H 269.053 -1.25748 3.55622 0
M  V30 2637 H 271.44 -1.43256 2.57995 0
M  V30 2638 H 271.521 0.334449 2.53604 0
M  V30 2639 H 271.165 0.391313 5.0639 0
M  V30 2640 H 271.095 -1.38876 5.07958 0
M  V30 2641 H 273.586 -0.60161 3.73081 0
M  V30 2642 H 273.899 -0.60894 7.70397 0
M  V30 2643 H 272.244 -0.554564 6.92784 0
M  V30 2644 H 275.435 -0.661907 4.63397 0
M  V30 2645 H 275.608 -0.665476 6.44574 0
M  V30 2646 N 269.014 -1.53014 -0.377408 0
M  V30 2647 C 270.261 -1.68623 -1.12128 0
M  V30 2648 C 270.589 -0.431997 -1.89642 0
M  V30 2649 O 269.844 0.585855 -1.86725 0
M  V30 2650 C 270.143 -2.87982 -2.11663 0
M  V30 2651 C 269.809 -4.24964 -1.50719 0
M  V30 2652 C 268.471 -4.62217 -1.33825 0
M  V30 2653 C 270.823 -5.10199 -1.06519 0
M  V30 2654 C 268.151 -5.82352 -0.712963 0
M  V30 2655 C 270.503 -6.30969 -0.453955 0
M  V30 2656 C 269.167 -6.66944 -0.272411 0
M  V30 2657 H 268.437 -0.617034 -0.410305 0
M  V30 2658 H 271.084 -1.8718 -0.404484 0
M  V30 2659 H 269.389 -2.63889 -2.89603 0
M  V30 2660 H 271.086 -2.97253 -2.6915 0
M  V30 2661 H 267.676 -3.95626 -1.64858 0
M  V30 2662 H 271.86 -4.81978 -1.18368 0
M  V30 2663 H 267.116 -6.08824 -0.560611 0
M  V30 2664 H 271.29 -6.96324 -0.103217 0
M  V30 2665 H 268.917 -7.59898 0.214181 0
M  V30 2666 N 270.492 0.636531 -1.44174 0
M  V30 2667 C 271.455 1.73063 -1.50273 0
M  V30 2668 C 272.455 1.56113 -0.385397 0
M  V30 2669 O 273.645 1.61707 -0.64781 0
M  V30 2670 C 270.777 3.12096 -1.37145 0
M  V30 2671 H 271.97 1.69031 -2.47727 0
M  V30 2672 H 269.523 0.849706 -1.31186 0
M  V30 2673 H 270.258 3.21728 -0.407636 0
M  V30 2674 H 270.043 3.25805 -2.18159 0
M  V30 2675 H 271.533 3.91846 -1.44382 0
M  V30 2676 N 271.97 1.30982 0.876444 0
M  V30 2677 C 273.218 1.20058 1.62575 0
M  V30 2678 C 273.539 -0.242947 1.93481 0
M  V30 2679 O 272.809 -1.1619 1.57724 0
M  V30 2680 H 271.389 0.44135 0.602677 0
M  V30 2681 H 274.051 1.64222 1.04962 0
M  V30 2682 H 273.147 1.76762 2.57219 0
M  V30 2683 N 273.449 -1.08991 1.13837 0
M  V30 2684 C 274.726 -1.77863 0.813876 0
M  V30 2685 C 275.106 -1.99375 -0.693746 0
M  V30 2686 O 274.454 -1.59875 -1.63255 0
M  V30 2687 C 274.664 -3.0986 1.60586 0
M  V30 2688 C 276.012 -3.84493 1.8014 0
M  V30 2689 O 277.036 -3.19624 1.57222 0
M  V30 2690 O 275.895 -5.00957 2.18413 0
M  V30 2691 H 272.989 -0.771589 0.297624 0
M  V30 2692 H 275.535 -1.15507 1.24323 0
M  V30 2693 H 274.307 -2.89715 2.63022 0
M  V30 2694 H 273.93 -3.79942 1.17173 0
M  V30 2695 N 274.927 -0.932562 -1.27047 0
M  V30 2696 C 275.857 -0.452902 -2.29066 0
M  V30 2697 C 276.838 0.489338 -1.62909 0
M  V30 2698 O 278.023 0.393046 -1.90181 0
M  V30 2699 C 275.153 0.290698 -3.46081 0
M  V30 2700 C 274.107 -0.564168 -4.24265 0
M  V30 2701 C 273.433 0.308886 -5.33807 0
M  V30 2702 C 274.733 -1.83112 -4.89149 0
M  V30 2703 H 276.427 -1.30552 -2.69437 0
M  V30 2704 H 273.973 -0.629201 -1.29526 0
M  V30 2705 H 275.926 0.637233 -4.16554 0
M  V30 2706 H 274.65 1.17738 -3.0464 0
M  V30 2707 H 273.309 -0.893477 -3.55545 0
M  V30 2708 H 272.957 1.19467 -4.88607 0
M  V30 2709 H 272.657 -0.259633 -5.87026 0
M  V30 2710 H 274.181 0.650884 -6.07121 0
M  V30 2711 H 275.595 -1.55236 -5.51883 0
M  V30 2712 H 273.992 -2.34353 -5.52448 0
M  V30 2713 H 275.062 -2.54772 -4.12576 0
M  V30 2714 N 276.405 1.4127 -0.698611 0
M  V30 2715 C 277.653 2.00782 -0.230409 0
M  V30 2716 C 277.974 1.5562 1.17505 0
M  V30 2717 O 277.244 0.78815 1.79346 0
M  V30 2718 H 275.824 0.742464 -0.0821944 0
M  V30 2719 H 278.486 1.72852 -0.90045 0
M  V30 2720 H 277.582 3.11095 -0.25021 0
M  V30 2721 N 277.883 0.443576 1.51229 0
M  V30 2722 C 278.815 -0.400608 2.25672 0
M  V30 2723 C 279.828 -0.980945 1.29928 0
M  V30 2724 O 281.017 -0.874024 1.55638 0
M  V30 2725 C 278.117 -1.57304 3.00181 0
M  V30 2726 C 277.29 -1.11046 4.23069 0
M  V30 2727 C 276.349 -2.15374 4.80105 0
M  V30 2728 O 275.375 -1.74554 5.41774 0
M  V30 2729 N 276.577 -3.47922 4.64683 0
M  V30 2730 H 279.342 0.23745 2.98758 0
M  V30 2731 H 276.903 0.272809 1.59585 0
M  V30 2732 H 278.895 -2.26733 3.35223 0
M  V30 2733 H 277.465 -2.11632 2.30066 0
M  V30 2734 H 276.685 -0.243019 3.9345 0
M  V30 2735 H 277.973 -0.778888 5.02803 0
M  V30 2736 H 277.371 -3.83815 4.15575 0
M  V30 2737 H 275.928 -4.13228 5.0407 0
M  V30 2738 N 279.361 -1.56624 0.175154 0
M  V30 2739 C 280.291 -2.21155 -0.749195 0
M  V30 2740 C 281.272 -1.16836 -1.23626 0
M  V30 2741 O 282.457 -1.45277 -1.28873 0
M  V30 2742 C 279.587 -2.8553 -1.97711 0
M  V30 2743 C 278.541 -3.95921 -1.62575 0
M  V30 2744 C 277.867 -4.47365 -2.92864 0
M  V30 2745 C 279.167 -5.15323 -0.850838 0
M  V30 2746 H 280.861 -2.98653 -0.211295 0
M  V30 2747 H 278.407 -1.43651 -0.100188 0
M  V30 2748 H 280.36 -3.2935 -2.62881 0
M  V30 2749 H 279.084 -2.05406 -2.53921 0
M  V30 2750 H 277.743 -3.52762 -0.997719 0
M  V30 2751 H 277.391 -3.64027 -3.47122 0
M  V30 2752 H 277.091 -5.21839 -2.70106 0
M  V30 2753 H 278.615 -4.93873 -3.59056 0
M  V30 2754 H 280.029 -5.55812 -1.40521 0
M  V30 2755 H 278.426 -5.95739 -0.722154 0
M  V30 2756 H 279.496 -4.84661 0.152082 0
M  V30 2757 N 280.839 0.0985539 -1.57292 0
M  V30 2758 C 282.085 0.803867 -1.86188 0
M  V30 2759 C 282.418 1.78549 -0.763794 0
M  V30 2760 O 281.693 1.93153 0.22855 0
M  V30 2761 C 281.976 1.53568 -3.25713 0
M  V30 2762 C 281.829 0.572277 -4.46145 0
M  V30 2763 C 283.148 2.48708 -3.63087 0
M  V30 2764 H 280.267 0.290781 -0.677211 0
M  V30 2765 H 282.909 0.0675783 -1.8988 0
M  V30 2766 H 281.059 2.16332 -3.22696 0
M  V30 2767 H 282.731 -0.0480894 -4.61275 0
M  V30 2768 H 280.974 -0.114618 -4.33649 0
M  V30 2769 H 281.645 1.12139 -5.40489 0
M  V30 2770 H 284.121 1.96039 -3.67026 0
M  V30 2771 H 282.997 2.96932 -4.61652 0
M  V30 2772 H 283.258 3.32309 -2.91588 0
M  V30 2773 N 282.317 1.53212 0.369288 0
M  V30 2774 C 283.28 1.7872 1.43498 0
M  V30 2775 C 284.28 0.657554 1.46741 0
M  V30 2776 O 285.47 0.925736 1.47566 0
M  V30 2777 C 282.602 1.90591 2.82645 0
M  V30 2778 H 283.795 2.73894 1.22156 0
M  V30 2779 H 281.348 1.44233 0.602203 0
M  V30 2780 H 282.083 0.974709 3.09306 0
M  V30 2781 H 281.868 2.72751 2.8169 0
M  V30 2782 H 283.358 2.11931 3.59826 0
M  V30 2783 N 283.795 -0.628877 1.44509 0
M  V30 2784 C 285.043 -1.38565 1.4712 0
M  V30 2785 C 285.364 -1.94712 0.105899 0
M  V30 2786 O 284.634 -1.75912 -0.862079 0
M  V30 2787 H 283.214 -0.514333 0.541729 0
M  V30 2788 H 285.876 -0.740018 1.80305 0
M  V30 2789 H 284.972 -2.21583 2.19789 0
M  V30 2790 N 285.273 -1.31445 -0.869486 0
M  V30 2791 C 286.205 -1.14955 -1.98287 0
M  V30 2792 C 287.218 -0.0885037 -1.62559 0
M  V30 2793 O 288.407 -0.336044 -1.75308 0
M  V30 2794 C 285.507 -0.734255 -3.3085 0
M  V30 2795 C 284.68 -1.88042 -3.94917 0
M  V30 2796 C 283.739 -1.4511 -5.05796 0
M  V30 2797 O 282.765 -2.16082 -5.2659 0
M  V30 2798 N 283.967 -0.338763 -5.79511 0
M  V30 2799 H 286.732 -2.10856 -2.12979 0
M  V30 2800 H 284.293 -1.23786 -1.04349 0
M  V30 2801 H 286.285 -0.42975 -4.02412 0
M  V30 2802 H 284.855 0.133158 -3.12316 0
M  V30 2803 H 284.075 -2.35222 -3.1633 0
M  V30 2804 H 285.363 -2.6481 -4.34457 0
M  V30 2805 H 284.761 0.252274 -5.65137 0
M  V30 2806 H 283.318 -0.0937925 -6.51733 0
M  V30 2807 N 286.751 1.08385 -1.14413 0
M  V30 2808 C 288 1.80153 -0.907076 0
M  V30 2809 C 288.313 1.87176 0.567851 0
M  V30 2810 O 289.519 2.55359 0.922172 0
M  V30 2811 C 287.975 3.23687 -1.57336 0
M  V30 2812 C 287.583 3.24897 -3.08457 0
M  V30 2813 C 289.327 4.00136 -1.41744 0
M  V30 2814 C 287.234 4.6302 -3.67921 0
M  V30 2815 H 286.164 0.675139 -0.335714 0
M  V30 2816 H 288.815 1.21733 -1.37307 0
M  V30 2817 H 287.197 3.82234 -1.03505 0
M  V30 2818 H 288.371 2.76055 -3.68958 0
M  V30 2819 H 286.686 2.61943 -3.2369 0
M  V30 2820 H 289.283 5.02201 -1.83572 0
M  V30 2821 H 289.626 4.14709 -0.363576 0
M  V30 2822 H 290.159 3.48058 -1.92614 0
M  V30 2823 H 286.898 4.5365 -4.73161 0
M  V30 2824 H 286.418 5.12143 -3.12201 0
M  V30 2825 H 288.097 5.31994 -3.68227 0
M  V30 2826 N 288.23 0.939286 1.26551 0
M  V30 2827 C 289.163 0.391702 2.24813 0
M  V30 2828 C 290.141 -0.518421 1.54114 0
M  V30 2829 O 291.325 -0.456299 1.82894 0
M  V30 2830 C 288.452 -0.437382 3.35864 0
M  V30 2831 C 287.498 0.410946 4.24516 0
M  V30 2832 S 288.331 1.83372 5.03125 0
M  V30 2833 C 289.487 1.01264 6.17654 0
M  V30 2834 H 289.72 1.22448 2.70913 0
M  V30 2835 H 287.253 0.742269 1.35387 0
M  V30 2836 H 289.211 -0.909837 4.0029 0
M  V30 2837 H 287.872 -1.24482 2.8838 0
M  V30 2838 H 287.065 -0.224191 5.03501 0
M  V30 2839 H 286.667 0.818014 3.64945 0
M  V30 2840 H 288.959 0.254023 6.77024 0
M  V30 2841 H 289.902 1.77589 6.85469 0
M  V30 2842 H 290.31 0.549532 5.61819 0
M  V30 2843 N 289.708 -1.40897 0.706093 0
M  V30 2844 C 290.64 -2.29199 0.00815776 0
M  V30 2845 C 291.653 -1.45336 -0.733582 0
M  V30 2846 O 292.842 -1.68727 -0.582537 0
M  V30 2847 C 289.942 -3.23417 -1.01265 0
M  V30 2848 C 289.115 -4.36089 -0.338387 0
M  V30 2849 C 288.174 -5.10811 -1.26326 0
M  V30 2850 O 287.2 -5.64215 -0.751651 0
M  V30 2851 N 288.402 -5.19269 -2.595 0
M  V30 2852 H 291.167 -2.89738 0.766297 0
M  V30 2853 H 288.728 -1.52164 0.55296 0
M  V30 2854 H 290.72 -3.70276 -1.63334 0
M  V30 2855 H 289.29 -2.64112 -1.67223 0
M  V30 2856 H 288.51 -3.91479 0.462352 0
M  V30 2857 H 289.798 -5.08634 0.130031 0
M  V30 2858 H 289.196 -4.77347 -3.03573 0
M  V30 2859 H 287.753 -5.69667 -3.16737 0
M  V30 2860 N 291.186 -0.45159 -1.50991 0
M  V30 2861 C 292.411 0.110667 -2.07105 0
M  V30 2862 C 292.836 1.3446 -1.31538 0
M  V30 2863 O 292.194 1.77743 -0.357365 0
M  V30 2864 C 292.242 0.397238 -3.58405 0
M  V30 2865 O 291.346 1.48124 -3.84881 0
M  V30 2866 H 290.687 -0.00439271 -0.663985 0
M  V30 2867 H 293.217 -0.637026 -1.9443 0
M  V30 2868 H 293.227 0.64351 -4.02893 0
M  V30 2869 H 291.902 -0.504553 -4.12828 0
M  V30 2870 H 290.479 1.22381 -3.52246 0
M  V30 2871 N 292.664 1.56529 -0.183458 0
M  V30 2872 C 294.075 1.83739 0.331177 0
M  V30 2873 C 294.426 1.10373 1.62211 0
M  V30 2874 O 293.551 0.36071 2.13373 0
M  V30 2875 C 294.146 3.33306 0.607646 0
M  V30 2876 C 292.705 3.60969 1.06668 0
M  V30 2877 C 291.852 2.77086 0.109029 0
M  V30 2878 H 294.803 1.53379 -0.407484 0
M  V30 2879 H 294.824 3.51444 1.45832 0
M  V30 2880 H 294.336 3.86677 -0.332086 0
M  V30 2881 H 292.437 3.13021 2.0211 0
M  V30 2882 H 292.55 4.69231 0.967447 0
M  V30 2883 H 290.914 2.47319 0.608714 0
M  V30 2884 H 291.697 3.33241 -0.82494 0
M  V30 2885 N 294.142 -0.090211 1.57342 0
M  V30 2886 C 295.105 -1.09335 2.01441 0
M  V30 2887 C 296.105 -1.32666 0.908641 0
M  V30 2888 O 297.295 -1.28697 1.174 0
M  V30 2889 C 294.427 -2.44136 2.3793 0
M  V30 2890 H 295.62 -0.713662 2.91285 0
M  V30 2891 H 293.173 -0.335404 1.52659 0
M  V30 2892 H 293.908 -2.86972 1.51055 0
M  V30 2893 H 293.693 -2.28548 3.18603 0
M  V30 2894 H 295.183 -3.16277 2.72688 0
M  V30 2895 N 295.62 -1.53406 -0.361157 0
M  V30 2896 C 296.868 -1.69467 -1.10115 0
M  V30 2897 C 297.189 -0.451352 -1.89705 0
M  V30 2898 O 296.459 0.534636 -1.88463 0
M  V30 2899 H 295.039 -0.624749 -0.409508 0
M  V30 2900 H 297.701 -1.90609 -0.406699 0
M  V30 2901 H 296.797 -2.55774 -1.78847 0
M  V30 2902 N 297.098 0.621204 -1.44841 0
M  V30 2903 C 298.03 1.74615 -1.48466 0
M  V30 2904 C 299.043 1.58377 -0.37691 0
M  V30 2905 O 300.232 1.66508 -0.643215 0
M  V30 2906 C 297.332 3.12459 -1.31236 0
M  V30 2907 C 296.505 3.55064 -2.55438 0
M  V30 2908 C 295.564 4.71821 -2.32963 0
M  V30 2909 O 294.59 4.79628 -3.06505 0
M  V30 2910 N 295.792 5.64186 -1.36654 0
M  V30 2911 H 298.557 1.71973 -2.45449 0
M  V30 2912 H 296.118 0.806077 -1.40407 0
M  V30 2913 H 298.11 3.88302 -1.14032 0
M  V30 2914 H 296.68 3.09686 -0.4258 0
M  V30 2915 H 295.9 2.69324 -2.87851 0
M  V30 2916 H 297.188 3.80284 -3.38026 0
M  V30 2917 H 296.586 5.6058 -0.759344 0
M  V30 2918 H 295.143 6.39618 -1.25425 0
M  V30 2919 N 298.576 1.31904 0.862503 0
M  V30 2920 C 299.804 1.24998 1.64873 0
M  V30 2921 C 300.219 -0.183425 1.87907 0
M  V30 2922 O 299.576 -1.11794 1.44251 0
M  V30 2923 C 299.627 1.99829 3.01248 0
M  V30 2924 O 299.348 3.37575 2.79239 0
M  V30 2925 C 300.849 1.99852 3.95694 0
M  V30 2926 H 298.069 0.431599 0.513773 0
M  V30 2927 H 300.613 1.73901 1.07604 0
M  V30 2928 H 298.768 1.54668 3.55185 0
M  V30 2929 H 299.182 3.75776 3.65914 0
M  V30 2930 H 300.656 2.56709 4.88676 0
M  V30 2931 H 301.133 0.982852 4.28062 0
M  V30 2932 H 301.739 2.44926 3.47694 0
M  V30 2933 N 300.054 -1.07777 1.14986 0
M  V30 2934 C 300.986 -2.14769 0.800436 0
M  V30 2935 C 301.999 -1.61739 -0.185595 0
M  V30 2936 O 303.188 -1.78462 0.0370358 0
M  V30 2937 C 300.288 -3.38481 0.168533 0
M  V30 2938 C 299.461 -4.20876 1.1909 0
M  V30 2939 C 298.52 -5.22976 0.581575 0
M  V30 2940 O 297.546 -5.55388 1.24633 0
M  V30 2941 N 298.748 -5.76976 -0.638706 0
M  V30 2942 H 301.513 -2.45348 1.72118 0
M  V30 2943 H 299.074 -1.23645 1.04515 0
M  V30 2944 H 301.066 -4.03916 -0.251764 0
M  V30 2945 H 299.636 -3.05651 -0.655467 0
M  V30 2946 H 298.856 -3.51322 1.78791 0
M  V30 2947 H 300.144 -4.7274 1.88133 0
M  V30 2948 H 299.542 -5.52886 -1.19723 0
M  V30 2949 H 298.099 -6.44061 -1.00142 0
M  V30 2950 N 301.532 -0.945985 -1.26051 0
M  V30 2951 C 302.464 -0.416662 -2.25381 0
M  V30 2952 C 303.477 0.462712 -1.56086 0
M  V30 2953 O 304.666 0.272383 -1.7641 0
M  V30 2954 C 301.766 0.419812 -3.3629 0
M  V30 2955 C 300.939 -0.444531 -4.35135 0
M  V30 2956 C 299.998 0.332305 -5.2515 0
M  V30 2957 O 299.024 -0.266324 -5.68577 0
M  V30 2958 N 300.226 1.62763 -5.57215 0
M  V30 2959 H 302.991 -1.27059 -2.71433 0
M  V30 2960 H 300.552 -0.815392 -1.39868 0
M  V30 2961 H 302.544 0.947013 -3.93464 0
M  V30 2962 H 301.114 1.17456 -2.89694 0
M  V30 2963 H 300.334 -1.15291 -3.76964 0
M  V30 2964 H 301.622 -1.03478 -4.98166 0
M  V30 2965 H 301.02 2.13603 -5.23823 0
M  V30 2966 H 299.577 2.10097 -6.17011 0
M  V30 2967 N 303.011 1.40521 -0.713556 0
M  V30 2968 C 304.259 2.00527 -0.251692 0
M  V30 2969 C 304.58 1.56857 1.15848 0
M  V30 2970 O 303.85 0.807127 1.785 0
M  V30 2971 H 302.43 0.741551 -0.0900646 0
M  V30 2972 H 305.092 1.71887 -0.918733 0
M  V30 2973 H 304.188 3.10813 -0.283192 0
M  V30 2974 N 304.489 0.459591 1.5075 0
M  V30 2975 C 305.421 -0.37665 2.26084 0
M  V30 2976 C 306.434 -0.967109 1.30961 0
M  V30 2977 O 307.623 -0.857468 1.56556 0
M  V30 2978 C 304.723 -1.54112 3.01832 0
M  V30 2979 C 303.896 -1.06553 4.24223 0
M  V30 2980 C 302.955 -2.1027 4.82362 0
M  V30 2981 O 301.981 -1.68798 5.43595 0
M  V30 2982 N 303.183 -3.42974 4.68347 0
M  V30 2983 H 305.948 0.269124 2.98489 0
M  V30 2984 H 303.509 0.28972 1.59287 0
M  V30 2985 H 305.501 -2.23165 3.37608 0
M  V30 2986 H 304.071 -2.0918 2.32298 0
M  V30 2987 H 303.291 -0.201274 3.93686 0
M  V30 2988 H 304.579 -0.725516 5.03601 0
M  V30 2989 H 303.977 -3.79385 4.19623 0
M  V30 2990 H 302.534 -4.07858 5.08424 0
M  V30 2991 N 305.967 -1.56429 0.191757 0
M  V30 2992 C 306.93 -2.17707 -0.716688 0
M  V30 2993 C 307.93 -1.13061 -1.14341 0
M  V30 2994 O 309.12 -1.38464 -1.05704 0
M  V30 2995 C 306.252 -2.77644 -1.97804 0
M  V30 2996 H 307.445 -2.99342 -0.1829 0
M  V30 2997 H 304.998 -1.56193 -0.0578566 0
M  V30 2998 H 305.733 -1.99799 -2.55443 0
M  V30 2999 H 305.518 -3.54246 -1.68083 0
M  V30 3000 H 307.008 -3.24708 -2.62592 0
M  V30 3001 N 307.445 0.0818655 -1.57387 0
M  V30 3002 C 308.375 1.09885 -2.06028 0
M  V30 3003 C 309.356 1.4098 -0.951774 0
M  V30 3004 O 310.541 1.50781 -1.22387 0
M  V30 3005 C 307.671 2.4151 -2.4958 0
M  V30 3006 C 306.625 2.24792 -3.64215 0
M  V30 3007 C 305.951 3.61712 -3.93787 0
M  V30 3008 C 307.251 1.67749 -4.94629 0
M  V30 3009 H 308.945 0.694128 -2.91243 0
M  V30 3010 H 306.491 0.332448 -1.4011 0
M  V30 3011 H 308.444 3.12939 -2.82219 0
M  V30 3012 H 307.168 2.83943 -1.61381 0
M  V30 3013 H 305.827 1.55807 -3.31843 0
M  V30 3014 H 305.475 4.01697 -3.02735 0
M  V30 3015 H 305.175 3.51368 -4.70971 0
M  V30 3016 H 306.699 4.34587 -4.28913 0
M  V30 3017 H 308.113 2.29032 -5.25564 0
M  V30 3018 H 306.51 1.68128 -5.76067 0
M  V30 3019 H 307.58 0.638059 -4.80684 0
M  V30 3020 N 308.923 1.53595 0.353017 0
M  V30 3021 C 309.886 1.80232 1.41594 0
M  V30 3022 C 310.886 0.673081 1.46035 0
M  V30 3023 O 312.076 0.941335 1.46576 0
M  V30 3024 C 309.208 1.93578 2.80607 0
M  V30 3025 H 310.401 2.75174 1.19244 0
M  V30 3026 H 307.954 1.44864 0.586872 0
M  V30 3027 H 308.689 1.00746 3.08254 0
M  V30 3028 H 308.474 2.75724 2.78781 0
M  V30 3029 H 309.964 2.15735 3.57558 0
M  V30 3030 N 310.401 -0.613514 1.45168 0
M  V30 3031 C 311.364 -1.7065 1.53007 0
M  V30 3032 C 312.364 -1.5548 0.410184 0
M  V30 3033 O 313.554 -1.60656 0.673455 0
M  V30 3034 C 310.686 -3.09875 1.42093 0
M  V30 3035 H 311.879 -1.65068 2.50385 0
M  V30 3036 H 309.432 -0.828728 1.32521 0
M  V30 3037 H 310.167 -3.21039 0.458769 0
M  V30 3038 H 309.952 -3.22293 2.23315 0
M  V30 3039 H 311.442 -3.895 1.50598 0
M  V30 3040 N 311.879 -1.3236 -0.855495 0
M  V30 3041 C 313.107 -1.2587 -1.64208 0
M  V30 3042 C 313.522 0.173457 -1.88002 0
M  V30 3043 O 312.879 1.11027 -1.44842 0
M  V30 3044 C 312.93 -2.01424 -3.00184 0
M  V30 3045 O 312.651 -3.39051 -2.77445 0
M  V30 3046 C 314.152 -2.01948 -3.94629 0
M  V30 3047 H 311.372 -0.434318 -0.511477 0
M  V30 3048 H 313.916 -1.74469 -1.0668 0
M  V30 3049 H 312.071 -1.56549 -3.5436 0
M  V30 3050 H 312.485 -3.77711 -3.63916 0
M  V30 3051 H 313.959 -2.59297 -4.87308 0
M  V30 3052 H 314.436 -1.00554 -4.27534 0
M  V30 3053 H 315.042 -2.46767 -3.4639 0
M  V30 3054 N 313.357 1.07166 -1.15556 0
M  V30 3055 C 314.32 2.12589 -0.856644 0
M  V30 3056 C 315.32 1.6015 0.14444 0
M  V30 3057 O 316.51 1.7399 -0.0854163 0
M  V30 3058 C 313.642 3.39753 -0.279405 0
M  V30 3059 H 314.835 2.40539 -1.79112 0
M  V30 3060 H 312.388 1.23086 -0.963298 0
M  V30 3061 H 313.123 3.17447 0.663174 0
M  V30 3062 H 312.908 3.79117 -1.00063 0
M  V30 3063 H 314.398 4.17507 -0.0879113 0
M  V30 3064 N 314.835 0.952656 1.25548 0
M  V30 3065 C 315.783 0.462354 2.27958 0
M  V30 3066 C 316.777 -0.46634 1.62855 0
M  V30 3067 O 317.983 -0.343287 1.76696 0
M  V30 3068 H 314.358 0.13101 0.7405 0
M  V30 3069 H 316.329 1.33839 2.66702 0
M  V30 3070 C 315.078 -0.24628 3.46827 0
M  V30 3071 H 314.401 0.459192 3.97154 0
M  V30 3072 H 315.841 -0.553393 4.20373 0
M  V30 3073 C 314.3 -1.4681 3.0323 0
M  V30 3074 O 314.83 -2.56591 3.09069 0
M  V30 3075 N 313.036 -1.32874 2.58443 0
M  V30 3076 H 312.583 -0.435536 2.53891 0
M  V30 3077 H 312.541 -2.14742 2.29637 0
M  V30 3078 N 316.313 -1.40141 0.720998 0
M  V30 3079 C 317.561 -2.0039 0.262323 0
M  V30 3080 C 317.882 -1.57469 -1.15015 0
M  V30 3081 O 317.152 -0.816582 -1.78069 0
M  V30 3082 H 315.732 -0.741063 0.093996 0
M  V30 3083 H 318.394 -1.71398 0.927835 0
M  V30 3084 H 317.49 -3.10658 0.299671 0
M  V30 3085 N 317.792 -0.46758 -1.50504 0
M  V30 3086 C 319.041 0.0902868 -2.01498 0
M  V30 3087 C 319.354 1.411 -1.35463 0
M  V30 3088 O 320.56 2.0536 -1.77594 0
M  V30 3089 C 319.016 0.21142 -3.59278 0
M  V30 3090 C 318.624 -1.10065 -4.34269 0
M  V30 3091 C 320.368 0.721433 -4.18325 0
M  V30 3092 C 318.275 -0.943505 -5.83825 0
M  V30 3093 H 317.205 0.037517 -0.753066 0
M  V30 3094 H 319.856 -0.601943 -1.73346 0
M  V30 3095 H 318.238 0.967352 -3.84003 0
M  V30 3096 H 319.412 -1.86726 -4.21272 0
M  V30 3097 H 317.727 -1.5415 -3.86816 0
M  V30 3098 H 320.324 0.85598 -5.27804 0
M  V30 3099 H 320.667 1.71186 -3.79475 0
M  V30 3100 H 321.2 0.0229843 -3.97793 0
M  V30 3101 H 317.939 -1.90719 -6.27141 0
M  V30 3102 H 317.459 -0.217213 -5.99407 0
M  V30 3103 H 319.138 -0.608715 -6.4413 0
M  V30 3104 N 319.27 1.56325 -0.20005 0
M  V30 3105 C 320.547 1.89484 0.48529 0
M  V30 3106 C 320.927 1.1143 1.79294 0
M  V30 3107 O 320.275 0.216919 2.27468 0
M  V30 3108 C 320.485 3.41923 0.699243 0
M  V30 3109 C 321.833 4.12256 1.01638 0
M  V30 3110 O 322.857 3.47402 0.786792 0
M  V30 3111 O 321.716 5.26887 1.45095 0
M  V30 3112 H 318.81 0.787144 0.253639 0
M  V30 3113 H 321.356 1.67985 -0.240633 0
M  V30 3114 H 320.128 3.90658 -0.224008 0
M  V30 3115 H 319.751 3.69131 1.47744 0
M  V30 3116 N 320.748 -0.0735177 1.57428 0
M  V30 3117 C 321.973 -0.789787 1.91774 0
M  V30 3118 C 322.398 -1.70413 0.796306 0
M  V30 3119 O 321.756 -1.79555 -0.250961 0
M  V30 3120 C 321.804 -1.5609 3.25067 0
M  V30 3121 O 320.908 -2.67144 3.14178 0
M  V30 3122 H 320.249 -0.215582 0.628029 0
M  V30 3123 H 322.779 -0.0422781 2.04556 0
M  V30 3124 H 322.789 -1.94052 3.58898 0
M  V30 3125 H 321.464 -0.890015 4.06265 0
M  V30 3126 H 320.041 -2.32052 2.91901 0
M  V30 3127 N 322.226 -1.5378 -0.344866 0
M  V30 3128 C 323.174 -1.82373 -1.4437 0
M  V30 3129 C 324.168 -0.694128 -1.54526 0
M  V30 3130 O 325.374 -0.877442 -1.57165 0
M  V30 3131 H 321.749 -0.577765 -0.481344 0
M  V30 3132 H 323.72 -2.74306 -1.17468 0
M  V30 3133 C 322.469 -2.04898 -2.80913 0
M  V30 3134 H 321.792 -2.9127 -2.73865 0
M  V30 3135 H 323.232 -2.28871 -3.56923 0
M  V30 3136 C 321.691 -0.834116 -3.26411 0
M  V30 3137 O 322.221 -0.0328885 -4.01687 0
M  V30 3138 N 320.427 -0.65171 -2.83198 0
M  V30 3139 H 319.974 -1.30489 -2.22104 0
M  V30 3140 H 319.932 0.159686 -3.13994 0
M  V30 3141 N 323.704 0.605807 -1.45491 0
M  V30 3142 C 324.932 1.39136 -1.5313 0
M  V30 3143 C 325.347 1.88082 -0.164507 0
M  V30 3144 O 324.704 1.62316 0.834247 0
M  V30 3145 C 324.755 2.59463 -2.51716 0
M  V30 3146 O 324.476 2.12551 -3.83084 0
M  V30 3147 C 325.977 3.52301 -2.6907 0
M  V30 3148 H 323.197 0.425849 -0.51855 0
M  V30 3149 H 325.741 0.73865 -1.90694 0
M  V30 3150 H 323.896 3.20772 -2.17219 0
M  V30 3151 H 324.31 2.90744 -4.36541 0
M  V30 3152 H 325.784 4.33271 -3.42024 0
M  V30 3153 H 326.261 4.02757 -1.75167 0
M  V30 3154 H 326.867 2.96845 -3.04571 0
M  V30 3155 N 325.182 1.32811 0.848464 0
M  V30 3156 C 326.129 1.22265 1.95755 0
M  V30 3157 C 327.099 0.103413 1.65778 0
M  V30 3158 O 328.284 0.280033 1.88734 0
M  V30 3159 C 325.424 0.958014 3.31536 0
M  V30 3160 C 324.537 2.16262 3.73971 0
M  V30 3161 C 323.672 1.83295 4.98575 0
M  V30 3162 C 322.711 3.00041 5.33518 0
M  V30 3163 N 321.848 2.67125 6.49299 0
M  V30 3164 H 326.688 2.17128 2.04107 0
M  V30 3165 H 324.225 1.07982 0.998913 0
M  V30 3166 H 326.183 0.785052 4.09747 0
M  V30 3167 H 324.813 0.046159 3.22767 0
M  V30 3168 H 323.865 2.44565 2.91362 0
M  V30 3169 H 325.177 3.03572 3.95785 0
M  V30 3170 H 324.331 1.62586 5.84509 0
M  V30 3171 H 323.07 0.932078 4.7871 0
M  V30 3172 H 322.075 3.21374 4.46093 0
M  V30 3173 H 323.3 3.90869 5.55336 0
M  V30 3174 H 321.246 1.79586 6.3094 0
M  V30 3175 H 321.163 3.47965 6.71161 0
M  V30 3176 H 322.431 2.49861 7.3837 0
M  V30 3177 N 326.66 -1.06551 1.16123 0
M  V30 3178 C 327.909 -1.78687 0.935622 0
M  V30 3179 C 328.222 -1.88056 -0.538001 0
M  V30 3180 O 329.428 -2.56794 -0.88143 0
M  V30 3181 C 327.884 -3.21143 1.62466 0
M  V30 3182 C 327.492 -3.19949 3.13587 0
M  V30 3183 C 329.236 -3.9783 1.48092 0
M  V30 3184 C 327.143 -4.57108 3.75241 0
M  V30 3185 H 326.073 -0.669712 0.346412 0
M  V30 3186 H 328.724 -1.19534 1.39226 0
M  V30 3187 H 327.106 -3.80539 1.09572 0
M  V30 3188 H 328.28 -2.70151 3.73303 0
M  V30 3189 H 326.595 -2.5676 3.27816 0
M  V30 3190 H 329.192 -4.99217 1.91538 0
M  V30 3191 H 329.535 -4.14078 0.429507 0
M  V30 3192 H 330.068 -3.4495 1.98127 0
M  V30 3193 H 326.807 -4.46065 4.80319 0
M  V30 3194 H 326.327 -5.07111 3.20309 0
M  V30 3195 H 328.006 -5.26069 3.76644 0
M  V30 3196 N 328.138 -0.959301 -1.25041 0
M  V30 3197 C 329.101 -0.487677 -2.23952 0
M  V30 3198 C 330.101 0.41119 -1.55454 0
M  V30 3199 O 331.291 0.207825 -1.72956 0
M  V30 3200 C 328.423 0.294807 -3.39623 0
M  V30 3201 H 329.616 -1.36198 -2.67189 0
M  V30 3202 H 327.169 -0.743042 -1.37508 0
M  V30 3203 H 327.904 1.18658 -3.01813 0
M  V30 3204 H 327.689 -0.35012 -3.90534 0
M  V30 3205 H 329.179 0.614089 -4.1306 0
M  V30 3206 N 329.616 1.39756 -0.72842 0
M  V30 3207 C 330.566 2.2792 -0.0603424 0
M  V30 3208 C 331.55 1.43922 0.719399 0
M  V30 3209 O 332.742 1.66895 0.589489 0
M  V30 3210 C 329.871 3.32582 0.851104 0
M  V30 3211 C 328.957 4.24049 0.0658641 0
M  V30 3212 N 329.348 4.96653 -0.957578 0
M  V30 3213 C 327.646 4.45013 0.296509 0
M  V30 3214 C 328.347 5.63836 -1.43052 0
M  V30 3215 N 327.323 5.38397 -0.750315 0
M  V30 3216 H 331.125 2.81504 -0.84455 0
M  V30 3217 H 328.639 1.5236 -0.562155 0
M  V30 3218 H 330.636 3.94603 1.34514 0
M  V30 3219 H 329.296 2.80558 1.63454 0
M  V30 3220 H 330.307 5.00297 -1.33877 0
M  V30 3221 H 326.984 4.03943 1.05527 0
M  V30 3222 H 328.374 6.31974 -2.28163 0
M  V30 3223 N 331.094 0.475555 1.50254 0
M  V30 3224 C 332.024 -0.30611 2.31485 0
M  V30 3225 C 333.005 -0.986228 1.38591 0
M  V30 3226 O 334.19 -0.982541 1.67511 0
M  V30 3227 C 331.32 -1.38588 3.1845 0
M  V30 3228 C 330.274 -0.827115 4.19932 0
M  V30 3229 C 329.6 -2.00551 4.95665 0
M  V30 3230 C 330.9 0.16463 5.2204 0
M  V30 3231 H 332.594 0.371866 2.97082 0
M  V30 3232 H 330.14 0.180282 1.42867 0
M  V30 3233 H 332.093 -1.94023 3.74076 0
M  V30 3234 H 330.817 -2.09269 2.50747 0
M  V30 3235 H 329.476 -0.294702 3.65414 0
M  V30 3236 H 329.124 -2.6994 4.2443 0
M  V30 3237 H 328.824 -1.63784 5.64313 0
M  V30 3238 H 330.348 -2.56468 5.54127 0
M  V30 3239 H 331.762 -0.300699 5.72511 0
M  V30 3240 H 330.159 0.446813 5.98434 0
M  V30 3241 H 331.229 1.08905 4.72512 0
M  V30 3242 N 332.573 -1.56217 0.208337 0
M  V30 3243 C 333.521 -2.21053 -0.723769 0
M  V30 3244 C 334.515 -1.18578 -1.20978 0
M  V30 3245 O 335.721 -1.36691 -1.17114 0
M  V30 3246 H 332.096 -0.708595 -0.251788 0
M  V30 3247 H 334.067 -2.98006 -0.153365 0
M  V30 3248 C 332.816 -2.89417 -1.927 0
M  V30 3249 H 332.139 -3.68019 -1.56212 0
M  V30 3250 H 333.579 -3.38201 -2.55727 0
M  V30 3251 C 332.038 -1.91166 -2.77411 0
M  V30 3252 O 332.568 -1.42026 -3.75754 0
M  V30 3253 N 330.774 -1.59105 -2.43175 0
M  V30 3254 H 330.321 -1.99259 -1.63259 0
M  V30 3255 H 330.279 -0.936255 -3.00136 0
M  V30 3256 N 334.051 0.0651679 -1.57465 0
M  V30 3257 C 335.299 0.761555 -1.87202 0
M  V30 3258 C 335.62 1.77778 -0.801243 0
M  V30 3259 O 334.89 1.95166 0.16937 0
M  V30 3260 H 333.47 0.284251 -0.690804 0
M  V30 3261 H 336.132 0.0396827 -1.9486 0
M  V30 3262 H 335.228 1.27365 -2.84929 0
M  V30 3263 N 335.529 1.53961 0.336706 0
M  V30 3264 C 336.477 1.83136 1.43401 0
M  V30 3265 C 337.471 0.702313 1.54156 0
M  V30 3266 O 338.677 0.885765 1.56698 0
M  V30 3267 H 335.052 0.580309 0.478273 0
M  V30 3268 H 337.023 2.74925 1.16012 0
M  V30 3269 C 335.772 2.06385 2.79822 0
M  V30 3270 H 335.095 2.92718 2.72316 0
M  V30 3271 H 336.535 2.30761 3.55704 0
M  V30 3272 C 334.994 0.851414 3.25964 0
M  V30 3273 O 335.524 0.0541904 4.01663 0
M  V30 3274 N 333.73 0.66672 2.82848 0
M  V30 3275 H 333.277 1.31665 2.21409 0
M  V30 3276 H 333.235 -0.143032 3.14074 0
M  V30 3277 N 337.007 -0.598083 1.45811 0
M  V30 3278 C 337.939 -1.72231 1.51225 0
M  V30 3279 C 338.952 -1.57757 0.402059 0
M  V30 3280 O 340.141 -1.65464 0.669624 0
M  V30 3281 C 337.241 -3.10331 1.3619 0
M  V30 3282 C 336.414 -3.50955 2.61054 0
M  V30 3283 C 335.473 -4.68055 2.40439 0
M  V30 3284 O 334.499 -4.74691 3.14097 0
M  V30 3285 N 335.701 -5.61941 1.45612 0
M  V30 3286 H 338.466 -1.68046 2.48154 0
M  V30 3287 H 336.027 -0.783637 1.41671 0
M  V30 3288 H 338.019 -3.86439 1.20195 0
M  V30 3289 H 336.589 -3.0897 0.475015 0
M  V30 3290 H 335.809 -2.64711 2.92099 0
M  V30 3291 H 337.097 -3.74858 3.44034 0
M  V30 3292 H 336.495 -5.59301 0.848431 0
M  V30 3293 H 335.052 -6.37542 1.35585 0
M  V30 3294 N 338.485 -1.33259 -0.841409 0
M  V30 3295 C 339.731 -1.25766 -1.59857 0
M  V30 3296 C 340.086 0.175602 -1.91597 0
M  V30 3297 O 339.379 1.117 -1.55672 0
M  V30 3298 C 339.573 -2.06381 -2.9179 0
M  V30 3299 C 339.402 -3.57401 -2.72937 0
M  V30 3300 C 338.172 -4.26718 -2.70628 0
M  V30 3301 C 340.37 -4.51786 -2.45753 0
M  V30 3302 N 338.352 -5.63705 -2.43125 0
M  V30 3303 C 339.723 -5.76643 -2.27777 0
M  V30 3304 C 341.778 -4.40898 -2.31329 0
M  V30 3305 C 340.481 -6.91842 -1.96841 0
M  V30 3306 C 342.507 -5.55911 -2.01786 0
M  V30 3307 C 341.869 -6.79776 -1.8462 0
M  V30 3308 H 337.968 -0.515406 -0.588117 0
M  V30 3309 H 340.552 -1.67772 -0.987955 0
M  V30 3310 H 338.723 -1.667 -3.50807 0
M  V30 3311 H 340.455 -1.90678 -3.56965 0
M  V30 3312 H 337.21 -3.78968 -2.84043 0
M  V30 3313 H 337.634 -6.35911 -2.32265 0
M  V30 3314 H 342.276 -3.45772 -2.43314 0
M  V30 3315 H 339.994 -7.86968 -1.83594 0
M  V30 3316 H 343.58 -5.49421 -1.91384 0
M  V30 3317 H 342.46 -7.67266 -1.62088 0
M  V30 3318 N 339.963 1.05934 -1.16686 0
M  V30 3319 C 341.211 1.78447 -0.948744 0
M  V30 3320 C 341.532 1.87813 0.524523 0
M  V30 3321 O 340.802 1.38945 1.38098 0
M  V30 3322 H 339.382 0.660971 -0.348033 0
M  V30 3323 H 342.044 1.27947 -1.47022 0
M  V30 3324 H 341.14 2.80394 -1.37061 0
M  V30 3325 N 341.441 0.965919 1.2453 0
M  V30 3326 C 342.688 0.626831 1.92554 0
M  V30 3327 C 343.016 -0.837739 1.75534 0
M  V30 3328 O 342.271 -1.61793 1.10098 0
M  V30 3329 C 342.57 0.945428 3.44669 0
M  V30 3330 C 342.236 2.39785 3.81856 0
M  V30 3331 C 340.898 2.79483 3.91718 0
M  V30 3332 C 343.25 3.34055 4.00071 0
M  V30 3333 C 340.578 4.12496 4.1721 0
M  V30 3334 C 342.93 4.66694 4.27059 0
M  V30 3335 C 341.594 5.06172 4.3514 0
M  V30 3336 H 340.864 0.229374 0.704605 0
M  V30 3337 H 343.511 1.21707 1.4785 0
M  V30 3338 H 341.816 0.272926 3.90848 0
M  V30 3339 H 343.513 0.661484 3.95507 0
M  V30 3340 H 340.103 2.08003 3.74743 0
M  V30 3341 H 344.287 3.04571 3.91855 0
M  V30 3342 H 339.543 4.42709 4.21685 0
M  V30 3343 H 343.717 5.3971 4.40097 0
M  V30 3344 H 341.344 6.09262 4.54646 0
M  V30 3345 N 342.919 -1.39368 0.735821 0
M  V30 3346 C 344.167 -2.00101 0.283562 0
M  V30 3347 C 344.488 -1.5868 -1.13338 0
M  V30 3348 O 343.758 -0.835423 -1.77193 0
M  V30 3349 H 342.338 -0.740024 0.101851 0
M  V30 3350 H 345 -1.70404 0.945962 0
M  V30 3351 H 344.096 -3.10323 0.332604 0
M  V30 3352 N 344.397 -0.483516 -1.5 0
M  V30 3353 C 345.643 0.0593261 -2.03313 0
M  V30 3354 C 345.998 1.36288 -1.35806 0
M  V30 3355 O 345.291 1.85519 -0.478897 0
M  V30 3356 C 345.485 0.286226 -3.56252 0
M  V30 3357 C 345.314 -0.993788 -4.38582 0
M  V30 3358 C 344.084 -1.54064 -4.81241 0
M  V30 3359 C 346.282 -1.89249 -4.78215 0
M  V30 3360 N 344.264 -2.76838 -5.47936 0
M  V30 3361 C 345.635 -2.96606 -5.44449 0
M  V30 3362 C 347.69 -1.90138 -4.60165 0
M  V30 3363 C 346.393 -4.04857 -5.94544 0
M  V30 3364 C 348.419 -2.97353 -5.1121 0
M  V30 3365 C 347.781 -4.03429 -5.77429 0
M  V30 3366 H 343.88 -0.0186322 -0.781778 0
M  V30 3367 H 346.464 -0.654489 -1.8337 0
M  V30 3368 H 344.635 0.969086 -3.76116 0
M  V30 3369 H 346.367 0.824515 -3.96212 0
M  V30 3370 H 343.122 -1.08813 -4.6093 0
M  V30 3371 H 343.546 -3.39221 -5.85882 0
M  V30 3372 H 348.188 -1.09441 -4.0839 0
M  V30 3373 H 345.906 -4.86363 -6.4535 0
M  V30 3374 H 349.492 -2.99039 -4.99066 0
M  V30 3375 H 348.372 -4.85025 -6.16214 0
M  V30 3376 N 345.875 1.56104 -0.216619 0
M  V30 3377 C 346.823 2.21434 0.712036 0
M  V30 3378 C 347.817 1.19218 1.20348 0
M  V30 3379 O 349.023 1.3731 1.16387 0
M  V30 3380 H 345.398 0.70992 0.248026 0
M  V30 3381 H 347.369 2.98083 0.137558 0
M  V30 3382 C 346.118 2.90434 1.91163 0
M  V30 3383 H 345.441 3.68842 1.54258 0
M  V30 3384 H 346.881 3.39552 2.5393 0
M  V30 3385 C 345.34 1.92635 2.76394 0
M  V30 3386 O 345.87 1.44017 3.74996 0
M  V30 3387 N 344.076 1.60392 2.42328 0
M  V30 3388 H 343.623 2.00122 1.622 0
M  V30 3389 H 343.581 0.952159 2.99635 0
M  V30 3390 N 347.353 -0.0568162 1.57498 0
M  V30 3391 C 348.316 -1.05038 2.03715 0
M  V30 3392 C 349.316 -1.30709 0.936577 0
M  V30 3393 O 350.506 -1.26178 1.20103 0
M  V30 3394 C 347.638 -2.39034 2.43055 0
M  V30 3395 H 348.831 -0.651715 2.92733 0
M  V30 3396 H 346.384 -0.302947 1.53336 0
M  V30 3397 H 347.119 -2.83703 1.57108 0
M  V30 3398 H 346.904 -2.21739 3.2338 0
M  V30 3399 H 348.394 -3.10421 2.79336 0
M  V30 3400 N 348.832 -1.54138 -0.328536 0
M  V30 3401 C 350.08 -1.71765 -1.06496 0
M  V30 3402 C 350.401 -0.49149 -1.88704 0
M  V30 3403 O 349.671 0.494539 -1.89555 0
M  V30 3404 H 348.251 -0.633295 -0.396164 0
M  V30 3405 H 350.913 -1.91429 -0.366176 0
M  V30 3406 H 350.009 -2.5951 -1.73381 0
M  V30 3407 N 350.31 0.590341 -1.46126 0
M  V30 3408 C 351.559 1.34499 -1.50309 0
M  V30 3409 C 351.872 1.94977 -0.156021 0
M  V30 3410 O 353.078 2.71395 -0.0756037 0
M  V30 3411 C 351.534 2.43723 -2.64815 0
M  V30 3412 C 351.142 1.89582 -4.0591 0
M  V30 3413 C 352.886 3.20579 -2.78262 0
M  V30 3414 C 350.793 2.9639 -5.11769 0
M  V30 3415 H 349.723 0.505593 -0.559368 0
M  V30 3416 H 352.374 0.630848 -1.72315 0
M  V30 3417 H 350.756 3.17902 -2.36124 0
M  V30 3418 H 351.93 1.21997 -4.44357 0
M  V30 3419 H 350.245 1.25418 -3.97063 0
M  V30 3420 H 352.842 4.00276 -3.54519 0
M  V30 3421 H 353.185 3.72684 -1.85505 0
M  V30 3422 H 353.718 2.53505 -3.06562 0
M  V30 3423 H 350.457 2.49181 -6.06291 0
M  V30 3424 H 349.977 3.62487 -4.77873 0
M  V30 3425 H 351.656 3.60474 -5.37278 0
M  V30 3426 N 351.788 1.33704 0.83433 0
M  V30 3427 C 352.718 1.26967 1.95963 0
M  V30 3428 C 353.699 0.149337 1.69443 0
M  V30 3429 O 354.884 0.339852 1.91203 0
M  V30 3430 C 352.014 1.01275 3.32206 0
M  V30 3431 C 350.968 2.09652 3.73136 0
M  V30 3432 C 350.294 1.69166 5.07235 0
M  V30 3433 C 351.594 3.51372 3.86439 0
M  V30 3434 H 353.288 2.2112 2.01857 0
M  V30 3435 H 350.834 1.06447 0.969793 0
M  V30 3436 H 352.787 0.952106 4.10503 0
M  V30 3437 H 351.511 0.0356203 3.26581 0
M  V30 3438 H 350.17 2.14766 2.97104 0
M  V30 3439 H 349.818 0.701437 4.98085 0
M  V30 3440 H 349.518 2.41694 5.35591 0
M  V30 3441 H 351.042 1.64576 5.88003 0
M  V30 3442 H 352.456 3.48734 4.55036 0
M  V30 3443 H 350.853 4.22425 4.26236 0
M  V30 3444 H 351.923 3.89546 2.88759 0
M  V30 3445 N 353.266 -1.05314 1.17247 0
M  V30 3446 C 354.496 -1.81707 0.983166 0
M  V30 3447 C 354.904 -1.83222 -0.471822 0
M  V30 3448 O 354.247 -1.25721 -1.3394 0
M  V30 3449 C 354.309 -3.29134 1.44606 0
M  V30 3450 C 353.973 -3.51304 2.92292 0
M  V30 3451 C 354.97 -3.4353 3.90235 0
M  V30 3452 C 352.655 -3.78306 3.30439 0
M  V30 3453 C 354.649 -3.62442 5.24323 0
M  V30 3454 C 352.336 -3.96866 4.64694 0
M  V30 3455 C 353.334 -3.88933 5.61445 0
M  V30 3456 O 353.022 -4.06976 6.93272 0
M  V30 3457 H 352.754 -0.579476 0.348114 0
M  V30 3458 H 355.308 -1.33705 1.55924 0
M  V30 3459 H 353.538 -3.78046 0.813537 0
M  V30 3460 H 355.227 -3.87049 1.22262 0
M  V30 3461 H 355.993 -3.22648 3.62109 0
M  V30 3462 H 351.872 -3.83585 2.55702 0
M  V30 3463 H 355.416 -3.56165 5.99827 0
M  V30 3464 H 351.313 -4.1724 4.92525 0
M  V30 3465 H 352.081 -4.24209 6.99992 0
M  V30 3466 N 354.744 -0.972509 -1.24016 0
M  V30 3467 C 355.654 -0.5143 -2.28893 0
M  V30 3468 C 356.67 0.427078 -1.68677 0
M  V30 3469 O 357.846 0.298939 -1.99169 0
M  V30 3470 C 354.911 0.183598 -3.46214 0
M  V30 3471 C 353.972 -0.798202 -4.21814 0
M  V30 3472 C 353.205 -0.133514 -5.33533 0
M  V30 3473 O 353.428 1.07714 -5.60137 0
M  V30 3474 O 352.362 -0.828103 -5.96176 0
M  V30 3475 H 356.188 -1.38629 -2.70214 0
M  V30 3476 H 353.773 -0.739769 -1.29799 0
M  V30 3477 H 355.655 0.575433 -4.17453 0
M  V30 3478 H 354.33 1.03048 -3.0686 0
M  V30 3479 H 353.237 -1.24059 -3.52931 0
M  V30 3480 H 354.57 -1.61364 -4.64997 0
M  V30 3481 N 356.222 1.38976 -0.743202 0
M  V30 3482 C 357.152 2.33171 -0.123873 0
M  V30 3483 C 358.133 1.54336 0.71516 0
M  V30 3484 O 359.318 1.82696 0.658467 0
M  V30 3485 C 356.448 3.38474 0.777978 0
M  V30 3486 C 355.402 4.27979 0.0424758 0
M  V30 3487 C 354.728 5.2405 1.06189 0
M  V30 3488 C 356.028 5.10155 -1.1198 0
M  V30 3489 H 357.722 2.85213 -0.910709 0
M  V30 3490 H 355.268 1.37133 -0.439388 0
M  V30 3491 H 357.221 4.03328 1.22084 0
M  V30 3492 H 355.945 2.84891 1.59702 0
M  V30 3493 H 354.604 3.64616 -0.380853 0
M  V30 3494 H 354.252 4.66758 1.87472 0
M  V30 3495 H 353.952 5.84785 0.574485 0
M  V30 3496 H 355.476 5.9178 1.50428 0
M  V30 3497 H 356.89 5.68307 -0.75499 0
M  V30 3498 H 355.287 5.80073 -1.53738 0
M  V30 3499 H 356.357 4.44504 -1.93764 0
M  V30 3500 N 357.7 0.491464 1.49741 0
M  V30 3501 C 358.977 -0.118984 1.95238 0
M  V30 3502 C 359.357 -1.55044 1.43264 0
M  V30 3503 O 358.705 -2.19287 0.642287 0
M  V30 3504 C 358.915 -0.0414187 3.48975 0
M  V30 3505 C 360.263 -0.220133 4.24029 0
M  V30 3506 O 361.287 -0.117055 3.56008 0
M  V30 3507 O 360.146 -0.430567 5.44801 0
M  V30 3508 H 357.24 -0.100536 0.820866 0
M  V30 3509 H 359.786 0.553322 1.60426 0
M  V30 3510 H 358.558 0.957214 3.79412 0
M  V30 3511 H 358.181 -0.754292 3.9038 0
M  V30 3512 N 359.178 -1.55987 0.224894 0
M  V30 3513 C 360.125 -2.20436 -0.68385 0
M  V30 3514 C 361.095 -1.16102 -1.18783 0
M  V30 3515 O 362.28 -1.4447 -1.24632 0
M  V30 3516 C 359.42 -2.89076 -1.88491 0
M  V30 3517 C 358.533 -4.08012 -1.41951 0
M  V30 3518 C 357.668 -4.64426 -2.5784 0
M  V30 3519 C 356.707 -5.75656 -2.08053 0
M  V30 3520 N 355.844 -6.26347 -3.17227 0
M  V30 3521 H 360.684 -2.97727 -0.12754 0
M  V30 3522 H 358.221 -1.47011 -0.0511978 0
M  V30 3523 H 360.179 -3.27059 -2.59014 0
M  V30 3524 H 358.809 -2.14298 -2.41405 0
M  V30 3525 H 357.861 -3.75492 -0.609095 0
M  V30 3526 H 359.173 -4.88375 -1.01447 0
M  V30 3527 H 358.327 -5.04869 -3.3644 0
M  V30 3528 H 357.066 -3.83233 -3.01635 0
M  V30 3529 H 356.071 -5.34712 -1.27916 0
M  V30 3530 H 357.296 -6.58686 -1.65255 0
M  V30 3531 H 355.242 -5.48067 -3.60497 0
M  V30 3532 H 355.159 -7.01843 -2.80986 0
M  V30 3533 H 356.427 -6.71447 -3.95953 0
M  V30 3534 N 360.656 0.0484629 -1.57525 0
M  V30 3535 C 361.604 1.07359 -2.06341 0
M  V30 3536 C 362.598 1.3865 -0.973269 0
M  V30 3537 O 363.804 1.37783 -1.15827 0
M  V30 3538 H 360.179 0.363662 -0.65822 0
M  V30 3539 H 362.15 0.635916 -2.91545 0
M  V30 3540 C 360.899 2.37198 -2.54229 0
M  V30 3541 H 360.222 2.13977 -3.37719 0
M  V30 3542 H 361.662 3.07319 -2.92115 0
M  V30 3543 C 360.121 3.04805 -1.43511 0
M  V30 3544 O 360.651 3.93848 -0.79034 0
M  V30 3545 N 358.857 2.65811 -1.17444 0
M  V30 3546 H 358.404 1.93488 -1.70059 0
M  V30 3547 H 358.362 3.11366 -0.435737 0
M  V30 3548 N 362.134 1.5431 0.320358 0
M  V30 3549 C 363.082 1.84647 1.4145 0
M  V30 3550 C 364.076 0.718624 1.53402 0
M  V30 3551 O 365.282 0.902335 1.5575 0
M  V30 3552 H 361.657 0.585349 0.472091 0
M  V30 3553 H 363.628 2.7614 1.13089 0
M  V30 3554 C 362.377 2.09341 2.77617 0
M  V30 3555 H 361.7 2.9559 2.69196 0
M  V30 3556 H 363.14 2.3452 3.53237 0
M  V30 3557 C 361.599 0.885939 3.25043 0
M  V30 3558 O 362.129 0.0967891 4.01583 0
M  V30 3559 N 360.335 0.696682 2.82125 0
M  V30 3560 H 359.882 1.34006 2.2 0
M  V30 3561 H 359.84 -0.109712 3.14209 0
M  V30 3562 N 363.613 -0.582584 1.46437 0
M  V30 3563 C 365.029 -0.905962 1.31394 0
M  V30 3564 C 365.229 -1.99468 0.285476 0
M  V30 3565 O 364.285 -2.50566 -0.311914 0
M  V30 3566 C 365.598 -1.3232 2.70022 0
M  V30 3567 C 367.146 -1.43604 2.78113 0
M  V30 3568 C 367.621 -1.88694 4.17323 0
M  V30 3569 N 369.112 -1.95887 4.19741 0
M  V30 3570 C 369.847 -2.32051 5.24347 0
M  V30 3571 N 369.343 -2.67006 6.39281 0
M  V30 3572 N 371.136 -2.32606 5.11713 0
M  V30 3573 H 363.287 0.1366 2.1196 0
M  V30 3574 H 365.55 -0.00155736 0.947999 0
M  V30 3575 H 365.256 -0.597242 3.46592 0
M  V30 3576 H 365.13 -2.28469 3.00136 0
M  V30 3577 H 367.517 -2.15286 2.01832 0
M  V30 3578 H 367.598 -0.457059 2.51684 0
M  V30 3579 H 367.242 -1.1759 4.941 0
M  V30 3580 H 367.172 -2.8755 4.4116 0
M  V30 3581 H 369.663 -1.71362 3.36814 0
M  V30 3582 H 369.976 -2.93554 7.14875 0
M  V30 3583 H 368.321 -2.64644 6.42642 0
M  V30 3584 H 371.512 -2.04721 4.2096 0
M  V30 3585 H 371.685 -2.60462 5.93349 0
M  V30 3586 N 365.091 -1.34144 -0.827227 0
M  V30 3587 C 366.321 -1.29138 -1.61267 0
M  V30 3588 C 366.729 0.137597 -1.88699 0
M  V30 3589 O 366.072 1.09379 -1.47587 0
M  V30 3590 C 366.134 -2.0097 -2.9808 0
M  V30 3591 C 365.798 -3.50242 -2.93563 0
M  V30 3592 C 366.795 -4.4523 -2.68452 0
M  V30 3593 C 364.48 -3.92592 -3.13331 0
M  V30 3594 C 366.474 -5.80542 -2.63154 0
M  V30 3595 C 364.161 -5.28005 -3.07658 0
M  V30 3596 C 365.159 -6.21792 -2.82602 0
M  V30 3597 O 364.847 -7.54723 -2.76853 0
M  V30 3598 H 364.579 -0.445851 -0.508127 0
M  V30 3599 H 367.133 -1.77263 -1.03763 0
M  V30 3600 H 365.363 -1.47451 -3.57484 0
M  V30 3601 H 367.052 -1.89309 -3.5905 0
M  V30 3602 H 367.818 -4.13832 -2.52919 0
M  V30 3603 H 363.697 -3.19994 -3.31851 0
M  V30 3604 H 367.241 -6.53717 -2.43516 0
M  V30 3605 H 363.138 -5.59023 -3.22743 0
M  V30 3606 H 363.906 -7.64409 -2.92611 0
M  V30 3607 N 366.569 1.04691 -1.17803 0
M  V30 3608 C 367.532 2.10724 -0.901545 0
M  V30 3609 C 368.532 1.6042 0.110437 0
M  V30 3610 O 369.722 1.7377 -0.122303 0
M  V30 3611 C 366.854 3.39084 -0.351409 0
M  V30 3612 H 368.047 2.36686 -1.84174 0
M  V30 3613 H 365.6 1.21015 -0.98919 0
M  V30 3614 H 366.335 3.18782 0.59569 0
M  V30 3615 H 366.12 3.76909 -1.08083 0
M  V30 3616 H 367.61 4.17227 -0.176451 0
M  V30 3617 N 368.047 0.979072 1.23499 0
M  V30 3618 C 368.977 0.537606 2.27227 0
M  V30 3619 C 369.958 -0.428539 1.64613 0
M  V30 3620 O 371.143 -0.322191 1.91509 0
M  V30 3621 C 368.273 -0.162052 3.46922 0
M  V30 3622 C 367.227 0.721242 4.21879 0
M  V30 3623 C 366.553 -0.110555 5.34586 0
M  V30 3624 C 367.853 2.01141 4.82016 0
M  V30 3625 H 369.547 1.40462 2.64406 0
M  V30 3626 H 367.093 0.67684 1.27102 0
M  V30 3627 H 369.046 -0.482192 4.18632 0
M  V30 3628 H 367.77 -1.06351 3.08799 0
M  V30 3629 H 366.429 1.02482 3.51984 0
M  V30 3630 H 366.077 -1.0125 4.92704 0
M  V30 3631 H 365.777 0.477325 5.85658 0
M  V30 3632 H 367.301 -0.425107 6.09118 0
M  V30 3633 H 368.715 1.75612 5.45741 0
M  V30 3634 H 367.112 2.54695 5.43369 0
M  V30 3635 H 368.182 2.69909 4.02836 0
M  V30 3636 N 369.525 -1.3858 0.750561 0
M  V30 3637 C 370.753 -2.04471 0.316098 0
M  V30 3638 C 371.168 -1.56606 -1.05452 0
M  V30 3639 O 370.525 -0.737784 -1.66922 0
M  V30 3640 C 370.576 -3.60025 0.326275 0
M  V30 3641 O 370.297 -4.06133 1.6428 0
M  V30 3642 C 371.798 -4.43131 -0.122429 0
M  V30 3643 H 369.018 -0.65717 0.135528 0
M  V30 3644 H 371.562 -1.77329 1.01857 0
M  V30 3645 H 369.717 -3.86014 -0.327431 0
M  V30 3646 H 370.131 -5.00547 1.56693 0
M  V30 3647 H 371.605 -5.51963 -0.0641473 0
M  V30 3648 H 372.082 -4.23333 -1.16988 0
M  V30 3649 H 372.688 -4.22323 0.50229 0
M  V30 3650 N 371.003 -0.499398 -1.49478 0
M  V30 3651 C 372.233 0.0424839 -2.06556 0
M  V30 3652 C 372.641 1.31514 -1.36018 0
M  V30 3653 O 371.984 1.78555 -0.431718 0
M  V30 3654 C 372.046 0.368074 -3.57611 0
M  V30 3655 C 371.71 -0.806631 -4.49825 0
M  V30 3656 C 372.707 -1.69667 -4.91436 0
M  V30 3657 C 370.392 -1.00498 -4.92144 0
M  V30 3658 C 372.386 -2.76923 -5.74101 0
M  V30 3659 C 370.073 -2.08072 -5.74586 0
M  V30 3660 C 371.071 -2.96119 -6.15469 0
M  V30 3661 O 370.759 -4.01836 -6.96264 0
M  V30 3662 H 370.491 -0.0165165 -0.675798 0
M  V30 3663 H 373.045 -0.695497 -1.93267 0
M  V30 3664 H 371.275 1.15963 -3.68903 0
M  V30 3665 H 372.964 0.848381 -3.96935 0
M  V30 3666 H 373.73 -1.55524 -4.59388 0
M  V30 3667 H 369.609 -0.329036 -4.59824 0
M  V30 3668 H 373.153 -3.45676 -6.05932 0
M  V30 3669 H 369.05 -2.22211 -6.06047 0
M  V30 3670 H 369.818 -3.9917 -7.14567 0
M  V30 3671 N 372.481 1.55866 -0.233164 0
M  V30 3672 C 373.897 1.59133 0.121988 0
M  V30 3673 C 374.097 1.25016 1.58029 0
M  V30 3674 O 373.153 0.990922 2.32243 0
M  V30 3675 C 374.466 2.99932 -0.214792 0
M  V30 3676 C 376.014 3.12601 -0.157971 0
M  V30 3677 C 376.489 4.55597 -0.46859 0
M  V30 3678 N 377.98 4.61305 -0.418585 0
M  V30 3679 C 378.715 5.69903 -0.63227 0
M  V30 3680 N 378.211 6.86819 -0.90835 0
M  V30 3681 N 380.004 5.59264 -0.563913 0
M  V30 3682 H 372.155 1.76315 -1.18434 0
M  V30 3683 H 374.418 0.820093 -0.475553 0
M  V30 3684 H 374.124 3.29588 -1.22739 0
M  V30 3685 H 373.998 3.74327 0.464691 0
M  V30 3686 H 376.385 2.82735 0.845283 0
M  V30 3687 H 376.466 2.40511 -0.871102 0
M  V30 3688 H 376.11 4.86182 -1.46934 0
M  V30 3689 H 376.04 5.25928 0.265865 0
M  V30 3690 H 378.531 3.77297 -0.213368 0
M  V30 3691 H 378.844 7.65507 -1.05919 0
M  V30 3692 H 377.189 6.88536 -0.945673 0
M  V30 3693 H 380.38 4.66802 -0.348372 0
M  V30 3694 H 380.553 6.43831 -0.733847 0
M  V30 3695 N 373.959 -0.0401083 1.57549 0
M  V30 3696 C 375.184 -0.748931 1.93406 0
M  V30 3697 C 375.609 -1.68686 0.832274 0
M  V30 3698 O 374.967 -1.80047 -0.212818 0
M  V30 3699 C 375.015 -1.4916 3.28304 0
M  V30 3700 O 374.119 -2.6042 3.19774 0
M  V30 3701 H 373.46 -0.202212 0.63246 0
M  V30 3702 H 375.99 0.00112086 2.046 0
M  V30 3703 H 376 -1.86395 3.62934 0
M  V30 3704 H 374.675 -0.80364 4.08062 0
M  V30 3705 H 373.252 -2.25808 2.96758 0
M  V30 3706 N 375.437 -1.54477 -0.31217 0
M  V30 3707 C 376.347 -1.87695 -1.4074 0
M  V30 3708 C 377.363 -0.769975 -1.56036 0
M  V30 3709 O 378.539 -1.06537 -1.70915 0
M  V30 3710 C 375.604 -2.10755 -2.75287 0
M  V30 3711 C 374.665 -3.34514 -2.69071 0
M  V30 3712 C 373.898 -3.56465 -3.97201 0
M  V30 3713 O 374.121 -2.81637 -4.96021 0
M  V30 3714 O 373.055 -4.49964 -3.9977 0
M  V30 3715 H 376.881 -2.80849 -1.15574 0
M  V30 3716 H 374.466 -1.40526 -0.507228 0
M  V30 3717 H 376.348 -2.27188 -3.54913 0
M  V30 3718 H 375.023 -1.20788 -3.0032 0
M  V30 3719 H 373.93 -3.23456 -1.87955 0
M  V30 3720 H 375.263 -4.24575 -2.48992 0
M  V30 3721 N 376.915 0.57481 -1.46744 0
M  V30 3722 C 378.161 1.3347 -1.52688 0
M  V30 3723 C 378.494 1.93353 -0.181229 0
M  V30 3724 O 377.769 1.76912 0.808237 0
M  V30 3725 C 378.052 2.45811 -2.63152 0
M  V30 3726 C 377.905 1.90912 -4.07275 0
M  V30 3727 C 379.224 3.47822 -2.69644 0
M  V30 3728 H 376.343 0.483935 -0.555856 0
M  V30 3729 H 378.985 0.644968 -1.78718 0
M  V30 3730 H 377.135 3.04646 -2.41088 0
M  V30 3731 H 378.807 1.36473 -4.4065 0
M  V30 3732 H 377.05 1.21691 -4.16382 0
M  V30 3733 H 377.721 2.72042 -4.80309 0
M  V30 3734 H 380.197 2.9888 -2.895 0
M  V30 3735 H 379.073 4.23876 -3.48742 0
M  V30 3736 H 379.334 4.05555 -1.76005 0
M  V30 3737 N 378.394 1.34581 0.820102 0
M  V30 3738 C 379.341 1.2639 1.93117 0
M  V30 3739 C 380.311 0.138554 1.65521 0
M  V30 3740 O 381.496 0.320004 1.88097 0
M  V30 3741 C 378.636 1.02812 3.29429 0
M  V30 3742 C 377.749 2.24146 3.693 0
M  V30 3743 C 376.884 1.93829 4.94574 0
M  V30 3744 C 375.923 3.1129 5.27034 0
M  V30 3745 N 375.06 2.80838 6.43486 0
M  V30 3746 H 379.9 2.21408 1.99455 0
M  V30 3747 H 377.437 1.10077 0.975784 0
M  V30 3748 H 379.395 0.871788 4.0799 0
M  V30 3749 H 378.025 0.114612 3.22596 0
M  V30 3750 H 377.077 2.50691 2.86109 0
M  V30 3751 H 378.389 3.11899 3.89257 0
M  V30 3752 H 377.543 1.74948 5.80929 0
M  V30 3753 H 376.282 1.03341 4.76626 0
M  V30 3754 H 375.287 3.30764 4.39175 0
M  V30 3755 H 376.512 4.02561 5.4692 0
M  V30 3756 H 374.458 1.92929 6.26988 0
M  V30 3757 H 374.375 3.62123 6.63629 0
M  V30 3758 H 375.643 2.65467 7.32903 0
M  V30 3759 N 379.872 -1.04064 1.18357 0
M  V30 3760 C 381.121 -1.76662 0.973313 0
M  V30 3761 C 381.434 -1.89154 -0.497991 0
M  V30 3762 O 382.64 -2.58606 -0.826762 0
M  V30 3763 C 381.096 -3.17624 1.69242 0
M  V30 3764 C 380.704 -3.13225 3.20303 0
M  V30 3765 C 382.448 -3.946 1.56497 0
M  V30 3766 C 380.355 -4.49046 3.84853 0
M  V30 3767 H 379.285 -0.662214 0.36054 0
M  V30 3768 H 381.936 -1.16553 1.41731 0
M  V30 3769 H 380.318 -3.78129 1.1762 0
M  V30 3770 H 381.492 -2.62172 3.78949 0
M  V30 3771 H 379.807 -2.49749 3.33189 0
M  V30 3772 H 382.404 -4.95042 2.02084 0
M  V30 3773 H 382.747 -4.13074 0.517243 0
M  V30 3774 H 383.28 -3.4067 2.05399 0
M  V30 3775 H 380.019 -4.35777 4.89672 0
M  V30 3776 H 379.539 -5.00203 3.30994 0
M  V30 3777 H 381.218 -5.17961 3.87718 0
M  V30 3778 N 381.35 -0.985608 -1.22978 0
M  V30 3779 C 382.627 -0.573599 -1.87001 0
M  V30 3780 C 383.007 0.949213 -1.88555 0
M  V30 3781 O 382.355 1.82811 -1.37086 0
M  V30 3782 C 382.565 -1.18564 -3.28243 0
M  V30 3783 C 383.913 -1.28163 -4.04796 0
M  V30 3784 O 384.937 -1.13949 -3.37482 0
M  V30 3785 O 383.796 -1.50832 -5.25273 0
M  V30 3786 H 380.89 -0.193868 -0.803955 0
M  V30 3787 H 383.436 -1.08102 -1.30813 0
M  V30 3788 H 382.208 -2.22758 -3.21706 0
M  V30 3789 H 381.831 -0.663363 -3.92027 0
M  V30 3790 N 382.828 1.3818 -0.7579 0
M  V30 3791 C 384.075 2.00019 -0.315985 0
M  V30 3792 C 384.403 1.60163 1.10355 0
M  V30 3793 O 383.658 0.83264 1.77103 0
M  V30 3794 C 383.957 3.55252 -0.391218 0
M  V30 3795 C 383.623 4.14834 -1.76702 0
M  V30 3796 C 382.285 4.30821 -2.14353 0
M  V30 3797 C 384.637 4.47658 -2.66931 0
M  V30 3798 C 381.965 4.76928 -3.41696 0
M  V30 3799 C 384.317 4.95184 -3.93669 0
M  V30 3800 C 382.981 5.09377 -4.31383 0
M  V30 3801 H 382.251 0.731923 -0.115627 0
M  V30 3802 H 384.898 1.65161 -0.969223 0
M  V30 3803 H 383.203 3.90273 0.34558 0
M  V30 3804 H 384.9 4.00988 -0.030805 0
M  V30 3805 H 381.49 4.02808 -1.46435 0
M  V30 3806 H 385.674 4.34904 -2.39106 0
M  V30 3807 H 380.93 4.86103 -3.70829 0
M  V30 3808 H 385.104 5.19551 -4.63724 0
M  V30 3809 H 382.731 5.44865 -5.30119 0
M  V30 3810 N 384.306 0.507319 1.49211 0
M  V30 3811 C 385.253 -0.267728 2.29242 0
M  V30 3812 C 386.223 -0.954609 1.35928 0
M  V30 3813 O 387.408 -0.960046 1.64887 0
M  V30 3814 C 384.548 -1.32243 3.18756 0
M  V30 3815 C 383.661 -0.64669 4.27132 0
M  V30 3816 C 382.796 -1.68238 5.03855 0
M  V30 3817 C 381.835 -0.98885 6.0406 0
M  V30 3818 N 380.972 -1.96903 6.73924 0
M  V30 3819 H 385.812 0.420968 2.95012 0
M  V30 3820 H 383.349 0.219443 1.45454 0
M  V30 3821 H 385.307 -1.94599 3.69036 0
M  V30 3822 H 383.937 -1.97981 2.54958 0
M  V30 3823 H 382.989 0.0902926 3.80293 0
M  V30 3824 H 384.301 -0.101058 4.98698 0
M  V30 3825 H 383.455 -2.38081 5.58034 0
M  V30 3826 H 382.194 -2.26187 4.32077 0
M  V30 3827 H 381.199 -0.276222 5.49106 0
M  V30 3828 H 382.424 -0.415767 6.77826 0
M  V30 3829 H 380.37 -2.53803 6.04913 0
M  V30 3830 H 380.287 -1.47423 7.41487 0
M  V30 3831 H 381.555 -2.66015 7.32705 0
M  V30 3832 N 385.784 -1.5574 0.241426 0
M  V30 3833 C 387.032 -1.98417 -0.384075 0
M  V30 3834 C 387.353 -1.13078 -1.58866 0
M  V30 3835 O 386.623 -0.212312 -1.94746 0
M  V30 3836 H 385.203 -0.732813 -0.144894 0
M  V30 3837 H 387.865 -1.9193 0.338943 0
M  V30 3838 H 386.961 -3.04219 -0.696939 0
M  V30 3839 N 387.262 0.0317525 -1.57568 0
M  V30 3840 C 388.21 1.05165 -2.07468 0
M  V30 3841 C 389.204 1.3761 -0.98792 0
M  V30 3842 O 390.41 1.36546 -1.17282 0
M  V30 3843 H 386.785 0.35666 -0.66204 0
M  V30 3844 H 388.756 0.604958 -2.92203 0
M  V30 3845 C 387.505 2.34488 -2.56731 0
M  V30 3846 H 386.828 2.10383 -3.39969 0
M  V30 3847 H 388.268 3.04203 -2.95358 0
M  V30 3848 C 386.727 3.03266 -1.46736 0
M  V30 3849 O 387.257 3.92988 -0.832069 0
M  V30 3850 N 385.463 2.6455 -1.20256 0
M  V30 3851 H 385.01 1.91674 -1.72102 0
M  V30 3852 H 384.968 3.10886 -0.468737 0
M  V30 3853 N 388.74 1.54641 0.303973 0
M  V30 3854 C 389.97 1.77511 1.05705 0
M  V30 3855 C 390.378 0.533228 1.81531 0
M  V30 3856 O 389.721 -0.506423 1.76582 0
M  V30 3857 C 389.783 2.92779 2.08617 0
M  V30 3858 C 389.447 4.30977 1.52013 0
M  V30 3859 C 390.444 5.11115 0.9517 0
M  V30 3860 C 388.129 4.77571 1.55665 0
M  V30 3861 C 390.123 6.35966 0.427327 0
M  V30 3862 C 387.81 6.02384 1.02841 0
M  V30 3863 C 388.808 6.81417 0.464713 0
M  V30 3864 O 388.496 8.03881 -0.0555283 0
M  V30 3865 H 388.228 0.59579 0.319391 0
M  V30 3866 H 390.782 2.02401 0.349712 0
M  V30 3867 H 389.012 2.63506 2.83022 0
M  V30 3868 H 390.701 3.03252 2.69802 0
M  V30 3869 H 391.467 4.76264 0.916407 0
M  V30 3870 H 387.346 4.16085 1.9848 0
M  V30 3871 H 390.89 6.97599 -0.0133062 0
M  V30 3872 H 386.787 6.36723 1.06084 0
M  V30 3873 H 387.555 8.18479 0.0580522 0
M  V30 3874 N 390.218 -0.567019 1.47046 0
M  V30 3875 C 391.443 -1.3551 1.57009 0
M  V30 3876 C 391.868 -1.86841 0.217259 0
M  V30 3877 O 391.226 -1.62435 -0.805268 0
M  V30 3878 C 391.274 -2.50777 2.5912 0
M  V30 3879 O 390.378 -3.52706 2.13711 0
M  V30 3880 H 389.719 -0.402919 0.52778 0
M  V30 3881 H 392.249 -0.686241 1.92748 0
M  V30 3882 H 392.259 -2.97481 2.79229 0
M  V30 3883 H 390.934 -2.12771 3.57353 0
M  V30 3884 H 389.511 -3.12374 2.03659 0
M  V30 3885 N 391.696 -1.35014 -0.812953 0
M  V30 3886 C 392.921 -1.31187 -1.60639 0
M  V30 3887 C 393.346 0.109382 -1.87782 0
M  V30 3888 O 392.704 1.07424 -1.46047 0
M  V30 3889 C 392.752 -2.11809 -2.91838 0
M  V30 3890 O 391.856 -1.49444 -3.8437 0
M  V30 3891 H 391.197 -0.450084 -0.488181 0
M  V30 3892 H 393.727 -1.77963 -1.00947 0
M  V30 3893 H 393.737 -2.23531 -3.41318 0
M  V30 3894 H 392.412 -3.15137 -2.71407 0
M  V30 3895 H 390.989 -1.46524 -3.42907 0
M  V30 3896 N 393.175 1.03435 -1.18907 0
M  V30 3897 C 394.452 1.73778 -0.89781 0
M  V30 3898 C 394.832 2.02458 0.597832 0
M  V30 3899 O 394.18 1.67482 1.55441 0
M  V30 3900 C 394.39 3.01845 -1.75187 0
M  V30 3901 C 395.738 3.7546 -1.9828 0
M  V30 3902 O 396.762 3.11759 -1.72293 0
M  V30 3903 O 395.621 4.89966 -2.42065 0
M  V30 3904 H 392.715 0.75651 -0.334098 0
M  V30 3905 H 395.261 1.09444 -1.29693 0
M  V30 3906 H 394.033 2.76836 -2.76545 0
M  V30 3907 H 393.656 3.73919 -1.35167 0
M  V30 3908 N 394.653 0.992116 1.22453 0
M  V30 3909 C 395.583 0.561677 2.26644 0
M  V30 3910 C 396.564 -0.411055 1.65059 0
M  V30 3911 O 397.749 -0.301861 1.9184 0
M  V30 3912 C 394.879 -0.125247 3.47074 0
M  V30 3913 C 393.833 0.765948 4.21091 0
M  V30 3914 C 393.159 -0.0538484 5.34673 0
M  V30 3915 C 394.459 2.06242 4.79856 0
M  V30 3916 H 396.153 1.43259 2.62902 0
M  V30 3917 H 393.699 0.690283 1.26377 0
M  V30 3918 H 395.652 -0.437764 4.1912 0
M  V30 3919 H 394.376 -1.03069 3.0991 0
M  V30 3920 H 393.035 1.0621 3.50878 0
M  V30 3921 H 392.683 -0.960188 4.9375 0
M  V30 3922 H 392.383 0.539415 5.85119 0
M  V30 3923 H 393.907 -0.360477 6.09535 0
M  V30 3924 H 395.321 1.8139 5.43848 0
M  V30 3925 H 393.718 2.60444 5.40638 0
M  V30 3926 H 394.788 2.74167 3.99951 0
M  V30 3927 N 396.131 -1.37776 0.765217 0
M  V30 3928 C 397.079 -2.32209 0.134798 0
M  V30 3929 C 398.073 -1.54607 -0.692315 0
M  V30 3930 O 399.279 -1.70052 -0.590109 0
M  V30 3931 H 395.654 -0.751591 0.0248005 0
M  V30 3932 H 397.625 -2.8297 0.947119 0
M  V30 3933 C 396.374 -3.39841 -0.735063 0
M  V30 3934 H 395.697 -3.99654 -0.107991 0
M  V30 3935 H 397.137 -4.08296 -1.14326 0
M  V30 3936 C 395.596 -2.79378 -1.88281 0
M  V30 3937 O 396.126 -2.69608 -2.97783 0
M  V30 3938 N 394.332 -2.37016 -1.68142 0
M  V30 3939 H 393.879 -2.45162 -0.790772 0
M  V30 3940 H 393.837 -1.96905 -2.45104 0
M  V30 3941 N 397.609 -0.515225 -1.4894 0
M  V30 3942 C 399.025 -0.172099 -1.58669 0
M  V30 3943 C 399.225 1.32405 -1.51892 0
M  V30 3944 O 398.281 2.10116 -1.40027 0
M  V30 3945 C 399.594 -0.761533 -2.90897 0
M  V30 3946 C 401.142 -0.728926 -3.04394 0
M  V30 3947 C 401.617 -1.29667 -4.39261 0
M  V30 3948 N 403.108 -1.25799 -4.4579 0
M  V30 3949 C 403.843 -1.66733 -5.48623 0
M  V30 3950 N 403.339 -2.15327 -6.58488 0
M  V30 3951 N 405.132 -1.58061 -5.39419 0
M  V30 3952 H 397.283 -1.48778 -1.51588 0
M  V30 3953 H 399.546 -0.617968 -0.718901 0
M  V30 3954 H 399.252 -1.81136 -3.01468 0
M  V30 3955 H 399.126 -0.230106 -3.76497 0
M  V30 3956 H 401.513 0.312098 -2.93445 0
M  V30 3957 H 401.594 -1.29766 -2.20442 0
M  V30 3958 H 401.238 -2.33655 -4.50963 0
M  V30 3959 H 401.168 -0.703752 -5.21876 0
M  V30 3960 H 403.659 -0.902102 -3.66975 0
M  V30 3961 H 403.972 -2.44594 -7.33071 0
M  V30 3962 H 402.317 -2.19311 -6.59491 0
M  V30 3963 H 405.508 -1.19906 -4.52482 0
M  V30 3964 H 405.681 -1.90284 -6.19432 0
M  V30 3965 N 399.087 1.5561 -0.249682 0
M  V30 3966 C 400.05 2.20217 0.635394 0
M  V30 3967 C 401.05 1.17227 1.10066 0
M  V30 3968 O 402.24 1.42292 1.00492 0
M  V30 3969 C 399.372 2.84794 1.87363 0
M  V30 3970 H 400.565 2.99814 0.0716752 0
M  V30 3971 H 398.118 1.563 -0.000153234 0
M  V30 3972 H 398.853 2.09142 2.47851 0
M  V30 3973 H 398.638 3.60241 1.5482 0
M  V30 3974 H 400.128 3.3423 2.5036 0
M  V30 3975 N 400.565 -0.0233959 1.57583 0
M  V30 3976 C 401.812 -0.713063 1.8953 0
M  V30 3977 C 402.14 -1.75056 0.847673 0
M  V30 3978 O 401.395 -1.95119 -0.150636 0
M  V30 3979 C 401.694 -1.41428 3.28227 0
M  V30 3980 C 401.36 -0.512222 4.47981 0
M  V30 3981 C 400.022 -0.263785 4.80476 0
M  V30 3982 C 402.374 0.110248 5.21083 0
M  V30 3983 C 399.702 0.615804 5.83459 0
M  V30 3984 C 402.054 0.977573 6.25001 0
M  V30 3985 C 400.718 1.23542 6.55968 0
M  V30 3986 H 399.988 -0.260928 0.69354 0
M  V30 3987 H 402.635 0.0271047 1.91481 0
M  V30 3988 H 400.94 -2.22791 3.22291 0
M  V30 3989 H 402.637 -1.95355 3.50196 0
M  V30 3990 H 399.227 -0.716013 4.22577 0
M  V30 3991 H 403.411 -0.0687137 4.96252 0
M  V30 3992 H 398.667 0.82382 6.05824 0
M  V30 3993 H 402.841 1.46638 6.80786 0
M  V30 3994 H 400.468 1.91871 7.35588 0
M  V30 3995 N 402.043 -1.548 -0.295768 0
M  V30 3996 C 402.991 -1.86874 -1.38495 0
M  V30 3997 C 403.985 -0.742938 -1.52239 0
M  V30 3998 O 405.191 -0.926999 -1.54294 0
M  V30 3999 H 401.566 -0.592786 -0.462719 0
M  V30 4000 H 403.537 -2.77904 -1.08682 0
M  V30 4001 C 402.286 -2.13732 -2.74252 0
M  V30 4002 H 401.609 -2.99835 -2.64459 0
M  V30 4003 H 403.049 -2.4011 -3.49461 0
M  V30 4004 C 401.508 -0.937539 -3.23592 0
M  V30 4005 O 402.038 -0.160665 -4.01379 0
M  V30 4006 N 400.244 -0.741478 -2.80981 0
M  V30 4007 H 399.791 -1.37489 -2.1784 0
M  V30 4008 H 399.749 0.0597103 -3.14343 0
M  V30 4009 N 403.521 0.559213 -1.47345 0
M  V30 4010 C 404.469 1.68747 -1.60085 0
M  V30 4011 C 405.463 1.628 -0.46825 0
M  V30 4012 O 406.669 1.68009 -0.645977 0
M  V30 4013 H 403.044 0.558329 -0.503759 0
M  V30 4014 H 405.015 1.55138 -2.54902 0
M  V30 4015 C 403.764 3.07103 -1.63042 0
M  V30 4016 H 403.087 3.12361 -2.49541 0
M  V30 4017 H 404.527 3.85743 -1.76006 0
M  V30 4018 C 402.986 3.34935 -0.363357 0
M  V30 4019 O 403.516 3.98102 0.536416 0
M  V30 4020 N 401.722 2.89574 -0.244 0
M  V30 4021 H 401.269 2.38348 -0.977133 0
M  V30 4022 H 401.227 3.08566 0.602836 0
M  V30 4023 N 404.999 1.35443 0.805782 0
M  V30 4024 C 406.229 1.31687 1.59192 0
M  V30 4025 C 406.637 -0.10756 1.88894 0
M  V30 4026 O 405.98 -1.07017 1.49309 0
M  V30 4027 C 406.042 2.05686 2.94845 0
M  V30 4028 C 405.706 3.54868 2.87954 0
M  V30 4029 C 406.703 4.49444 2.61335 0
M  V30 4030 C 404.388 3.97528 3.07046 0
M  V30 4031 C 406.382 5.84655 2.53885 0
M  V30 4032 C 404.069 5.32833 2.99219 0
M  V30 4033 C 405.067 6.26209 2.72674 0
M  V30 4034 O 404.755 7.59032 2.64811 0
M  V30 4035 H 404.487 0.453878 0.50097 0
M  V30 4036 H 407.041 1.78892 1.0093 0
M  V30 4037 H 405.271 1.5312 3.55093 0
M  V30 4038 H 406.96 1.94998 3.55993 0
M  V30 4039 H 407.726 4.17804 2.46303 0
M  V30 4040 H 403.605 3.25233 3.26718 0
M  V30 4041 H 407.149 6.57508 2.33086 0
M  V30 4042 H 403.046 5.64087 3.13809 0
M  V30 4043 H 403.814 7.68967 2.80413 0
M  V30 4044 N 406.477 -1.02803 1.19454 0
M  V30 4045 C 407.725 -1.75869 0.995722 0
M  V30 4046 C 408.046 -1.89138 -0.474543 0
M  V30 4047 O 407.316 -1.42558 -1.34366 0
M  V30 4048 H 405.896 -0.651511 0.365435 0
M  V30 4049 H 408.558 -1.24004 1.50363 0
M  V30 4050 H 407.654 -2.76661 1.44447 0
M  V30 4051 N 407.956 -0.998596 -1.21925 0
M  V30 4052 C 408.886 -0.573688 -2.26343 0
M  V30 4053 C 409.867 0.402296 -1.65274 0
M  V30 4054 O 411.052 0.291683 -1.91997 0
M  V30 4055 C 408.182 0.106839 -3.47136 0
M  V30 4056 C 407.136 -0.788269 -4.20678 0
M  V30 4057 C 406.462 0.0254927 -5.34694 0
M  V30 4058 C 407.762 -2.08784 -4.78755 0
M  V30 4059 H 409.456 -1.44651 -2.62138 0
M  V30 4060 H 407.002 -0.696975 -1.26009 0
M  V30 4061 H 408.955 0.415531 -4.19346 0
M  V30 4062 H 407.679 1.01424 -3.10452 0
M  V30 4063 H 406.338 -1.08069 -3.50309 0
M  V30 4064 H 405.986 0.933989 -4.94253 0
M  V30 4065 H 405.686 -0.570437 -5.84825 0
M  V30 4066 H 407.21 0.328147 -6.09718 0
M  V30 4067 H 408.624 -1.84272 -5.42878 0
M  V30 4068 H 407.021 -2.63307 -5.39249 0
M  V30 4069 H 408.091 -2.76284 -3.98491 0
M  V30 4070 N 409.434 1.37368 -0.772513 0
M  V30 4071 C 410.845 1.8231 -0.402493 0
M  V30 4072 C 411.196 1.6436 1.07146 0
M  V30 4073 O 410.321 1.15514 1.82991 0
M  V30 4074 C 410.916 3.30979 -0.723776 0
M  V30 4075 C 409.475 3.74195 -0.406802 0
M  V30 4076 C 408.622 2.59885 -0.967218 0
M  V30 4077 H 411.573 1.25829 -0.967099 0
M  V30 4078 H 411.594 3.80499 -0.00870832 0
M  V30 4079 H 411.106 3.44011 -1.7966 0
M  V30 4080 H 409.207 3.66732 0.658673 0
M  V30 4081 H 409.32 4.7027 -0.915588 0
M  V30 4082 H 407.684 2.51674 -0.391416 0
M  V30 4083 H 408.467 2.7571 -2.04546 0
M  V30 4084 N 410.912 0.523116 1.48665 0
M  V30 4085 C 412.161 -0.01544 2.01694 0
M  V30 4086 C 412.474 -1.35975 1.40606 0
M  V30 4087 O 413.68 -1.98627 1.85093 0
M  V30 4088 C 412.136 -0.0779303 3.59816 0
M  V30 4089 C 411.744 1.26107 4.29885 0
M  V30 4090 C 413.488 -0.565678 4.20714 0
M  V30 4091 C 411.395 1.15954 5.79921 0
M  V30 4092 H 410.325 -0.00954163 0.75394 0
M  V30 4093 H 412.976 0.665865 1.70993 0
M  V30 4094 H 411.358 -0.824165 3.87329 0
M  V30 4095 H 412.532 2.02233 4.14051 0
M  V30 4096 H 410.847 1.68401 3.80828 0
M  V30 4097 H 413.444 -0.6595 5.30617 0
M  V30 4098 H 413.787 -1.56984 3.85567 0
M  V30 4099 H 414.32 0.12467 3.97605 0
M  V30 4100 H 411.059 2.13864 6.19631 0
M  V30 4101 H 410.579 0.439529 5.98187 0
M  V30 4102 H 412.258 0.847361 6.41427 0
M  V30 4103 N 412.39 -1.55475 0.257931 0
M  V30 4104 C 413.801 -1.8511 -0.243135 0
M  V30 4105 C 414.152 -1.17986 -1.5676 0
M  V30 4106 O 413.277 -0.462102 -2.11409 0
M  V30 4107 C 413.872 -3.35826 -0.447929 0
M  V30 4108 C 412.431 -3.65647 -0.893245 0
M  V30 4109 C 411.578 -2.7729 0.0232965 0
M  V30 4110 H 414.529 -1.51261 0.480199 0
M  V30 4111 H 414.55 -3.58002 -1.28898 0
M  V30 4112 H 414.062 -3.84652 0.516196 0
M  V30 4113 H 412.163 -3.22308 -1.86945 0
M  V30 4114 H 412.276 -4.73312 -0.742469 0
M  V30 4115 H 410.64 -2.49942 -0.490021 0
M  V30 4116 H 411.423 -3.28926 0.982994 0
M  V30 4117 N 413.868 0.0150385 -1.57593 0
M  V30 4118 C 415.096 0.714395 -1.94175 0
M  V30 4119 C 415.511 1.68135 -0.858841 0
M  V30 4120 O 414.868 1.81766 0.163567 0
M  V30 4121 C 414.919 1.45933 -3.30735 0
M  V30 4122 O 414.64 0.531167 -4.34868 0
M  V30 4123 C 416.141 2.25456 -3.81686 0
M  V30 4124 H 413.361 0.199923 -0.640525 0
M  V30 4125 H 415.905 -0.0316096 -2.04476 0
M  V30 4126 H 414.06 2.15709 -3.21789 0
M  V30 4127 H 414.474 1.05509 -5.13778 0
M  V30 4128 H 415.948 2.731 -4.79709 0
M  V30 4129 H 416.425 3.07485 -3.13607 0
M  V30 4130 H 417.031 1.60727 -3.9376 0
M  V30 4131 N 415.346 1.54954 0.287554 0
M  V30 4132 C 416.309 1.86076 1.33823 0
M  V30 4133 C 417.309 0.734414 1.43049 0
M  V30 4134 O 418.499 1.00266 1.42452 0
M  V30 4135 C 415.631 2.05305 2.72144 0
M  V30 4136 H 416.824 2.79984 1.07465 0
M  V30 4137 H 414.377 1.47223 0.524902 0
M  V30 4138 H 415.112 1.1373 3.03704 0
M  V30 4139 H 414.897 2.873 2.66836 0
M  V30 4140 H 416.387 2.30706 3.48087 0
M  V30 4141 N 416.824 -0.551391 1.4764 0
M  V30 4142 C 418.052 -1.33357 1.58189 0
M  V30 4143 C 418.467 -1.87342 0.234199 0
M  V30 4144 O 417.824 -1.65301 -0.77343 0
M  V30 4145 C 417.875 -2.49942 2.61173 0
M  V30 4146 O 417.596 -1.98187 3.90709 0
M  V30 4147 C 419.097 -3.42072 2.8196 0
M  V30 4148 H 416.317 -0.40631 0.533998 0
M  V30 4149 H 418.861 -0.667367 1.93304 0
M  V30 4150 H 417.016 -3.12489 2.28975 0
M  V30 4151 H 417.43 -2.74342 4.47031 0
M  V30 4152 H 418.904 -4.20278 3.57869 0
M  V30 4153 H 419.381 -3.95978 1.89995 0
M  V30 4154 H 419.987 -2.85336 3.15378 0
M  V30 4155 N 418.302 -1.35869 -0.798587 0
M  V30 4156 C 419.55 -1.29332 -1.55298 0
M  V30 4157 C 419.871 0.129729 -1.94568 0
M  V30 4158 O 419.141 1.06796 -1.6423 0
M  V30 4159 H 417.721 -0.475737 -0.57592 0
M  V30 4160 H 420.383 -1.70062 -0.952093 0
M  V30 4161 H 419.479 -1.91458 -2.46476 0
M  V30 4162 N 419.78 1.02168 -1.19998 0
M  V30 4163 C 421.028 1.75338 -1.00504 0
M  V30 4164 C 421.349 1.89387 0.464506 0
M  V30 4165 O 420.619 1.43268 1.33608 0
M  V30 4166 H 419.199 0.649564 -0.368885 0
M  V30 4167 H 421.861 1.23205 -1.51018 0
M  V30 4168 H 420.957 2.75892 -1.45912 0
M  V30 4169 N 421.258 1.00505 1.21394 0
M  V30 4170 C 422.221 0.570459 2.21987 0
M  V30 4171 C 423.221 -0.353211 1.56873 0
M  V30 4172 O 424.411 -0.14349 1.73608 0
M  V30 4173 C 421.543 -0.168555 3.40483 0
M  V30 4174 H 422.736 1.46021 2.6195 0
M  V30 4175 H 420.289 0.793565 1.34656 0
M  V30 4176 H 421.024 -1.07374 3.06009 0
M  V30 4177 H 420.809 0.494823 3.88965 0
M  V30 4178 H 422.299 -0.460362 4.15055 0
M  V30 4179 N 422.737 -1.36956 0.779787 0
M  V30 4180 C 423.965 -2.03755 0.359398 0
M  V30 4181 C 424.38 -1.58807 -1.02106 0
M  V30 4182 O 423.737 -0.773024 -1.6532 0
M  V30 4183 C 423.788 -3.59251 0.402568 0
M  V30 4184 O 423.509 -4.02557 1.72858 0
M  V30 4185 C 425.01 -4.43291 -0.0284068 0
M  V30 4186 H 422.23 -0.654148 0.149437 0
M  V30 4187 H 424.774 -1.75128 1.05595 0
M  V30 4188 H 422.929 -3.86621 -0.245478 0
M  V30 4189 H 423.343 -4.97111 1.67275 0
M  V30 4190 H 424.817 -5.51975 0.0529466 0
M  V30 4191 H 425.294 -4.25719 -1.07982 0
M  V30 4192 H 425.9 -4.21163 0.591758 0
M  V30 4193 N 424.215 -0.530993 -1.48385 0
M  V30 4194 C 425.147 0.268353 -2.27624 0
M  V30 4195 C 426.16 0.903525 -1.35426 0
M  V30 4196 O 427.349 0.781796 -1.60469 0
M  V30 4197 C 424.449 1.39535 -3.08842 0
M  V30 4198 C 423.622 0.861913 -4.28824 0
M  V30 4199 C 422.681 1.87016 -4.91845 0
M  V30 4200 O 421.707 1.4267 -5.5103 0
M  V30 4201 N 422.909 3.20238 -4.84178 0
M  V30 4202 H 425.674 -0.41123 -2.96865 0
M  V30 4203 H 423.235 -0.365387 -1.57723 0
M  V30 4204 H 425.227 2.06803 -3.47871 0
M  V30 4205 H 423.797 1.97859 -2.42014 0
M  V30 4206 H 423.017 0.0132126 -3.94198 0
M  V30 4207 H 424.305 0.484415 -5.06489 0
M  V30 4208 H 423.703 3.58932 -4.37246 0
M  V30 4209 H 422.26 3.83136 -5.27305 0
M  V30 4210 N 425.693 1.55336 -0.266172 0
M  V30 4211 C 426.918 2.04258 0.359661 0
M  V30 4212 C 427.343 1.14359 1.49344 0
M  V30 4213 O 426.701 0.140369 1.80756 0
M  V30 4214 C 426.749 3.50997 0.826635 0
M  V30 4215 O 425.853 3.64204 1.93466 0
M  V30 4216 H 425.194 0.659668 0.075727 0
M  V30 4217 H 427.724 2.00694 -0.39786 0
M  V30 4218 H 427.734 3.9219 1.12477 0
M  V30 4219 H 426.409 4.159 -0.00293032 0
M  V30 4220 H 424.986 3.34913 1.63974 0
M  V30 4221 N 427.171 -0.0066808 1.57599 0
M  V30 4222 C 428.419 -0.691552 1.899 0
M  V30 4223 C 428.74 -1.74682 0.866672 0
M  V30 4224 O 428.01 -1.95661 -0.0968189 0
M  V30 4225 H 426.59 -0.258416 0.700878 0
M  V30 4226 H 429.252 0.0326655 1.94873 0
M  V30 4227 H 428.348 -1.16702 2.8946 0
M  V30 4228 N 428.649 -1.55105 -0.279332 0
M  V30 4229 C 429.879 -1.7917 -1.02867 0
M  V30 4230 C 430.287 -0.56204 -1.80659 0
M  V30 4231 O 429.63 0.478266 -1.77365 0
M  V30 4232 C 429.692 -2.96061 -2.03932 0
M  V30 4233 C 429.356 -4.33341 -1.45137 0
M  V30 4234 C 430.353 -5.12565 -0.870266 0
M  V30 4235 C 428.038 -4.79987 -1.48048 0
M  V30 4236 C 430.032 -6.36565 -0.326097 0
M  V30 4237 C 427.719 -6.03944 -0.932443 0
M  V30 4238 C 428.717 -6.8207 -0.356247 0
M  V30 4239 O 428.405 -8.03691 0.183412 0
M  V30 4240 H 428.137 -0.600796 -0.309872 0
M  V30 4241 H 430.691 -2.02932 -0.317468 0
M  V30 4242 H 428.921 -2.67975 -2.78794 0
M  V30 4243 H 430.61 -3.07506 -2.64943 0
M  V30 4244 H 431.376 -4.77661 -0.840521 0
M  V30 4245 H 427.255 -4.1919 -1.91835 0
M  V30 4246 H 430.799 -6.97489 0.124286 0
M  V30 4247 H 426.696 -6.3833 -0.959407 0
M  V30 4248 H 427.464 -8.18468 0.0721681 0
M  V30 4249 N 430.127 0.543554 -1.4793 0
M  V30 4250 C 431.057 1.65888 -1.64327 0
M  V30 4251 C 432.038 1.62818 -0.492383 0
M  V30 4252 O 433.223 1.80226 -0.723338 0
M  V30 4253 C 430.353 3.04506 -1.67013 0
M  V30 4254 C 429.307 3.2243 -2.81466 0
M  V30 4255 C 428.633 4.61972 -2.69233 0
M  V30 4256 C 429.933 3.06496 -4.22915 0
M  V30 4257 H 431.627 1.52421 -2.57698 0
M  V30 4258 H 429.173 0.731849 -1.24016 0
M  V30 4259 H 431.126 3.82391 -1.77074 0
M  V30 4260 H 429.85 3.18964 -0.70212 0
M  V30 4261 H 428.509 2.46957 -2.70938 0
M  V30 4262 H 428.157 4.73247 -1.7043 0
M  V30 4263 H 427.857 4.74911 -3.46025 0
M  V30 4264 H 429.381 5.41974 -2.81242 0
M  V30 4265 H 430.795 3.74186 -4.34348 0
M  V30 4266 H 429.192 3.30938 -5.006 0
M  V30 4267 H 430.262 2.03077 -4.40327 0
M  V30 4268 N 431.605 1.3629 0.791371 0
M  V30 4269 C 432.833 1.33562 1.58016 0
M  V30 4270 C 433.248 -0.0835616 1.88615 0
M  V30 4271 O 432.605 -1.0399 1.49974 0
M  V30 4272 C 432.656 2.15517 2.90232 0
M  V30 4273 O 432.377 3.51902 2.60953 0
M  V30 4274 C 433.878 2.20546 3.84544 0
M  V30 4275 H 431.098 0.458226 0.490173 0
M  V30 4276 H 433.642 1.79361 0.982345 0
M  V30 4277 H 431.797 1.73278 3.46487 0
M  V30 4278 H 432.211 3.94644 3.4548 0
M  V30 4279 H 433.685 2.82252 4.74382 0
M  V30 4280 H 434.162 1.20838 4.2225 0
M  V30 4281 H 434.768 2.63013 3.34222 0
M  V30 4282 N 433.083 -1.0153 1.20538 0
M  V30 4283 C 434.013 -2.11972 0.979295 0
M  V30 4284 C 434.994 -1.6985 -0.0921787 0
M  V30 4285 O 436.179 -1.94089 0.0655932 0
M  V30 4286 C 433.309 -3.43201 0.531984 0
M  V30 4287 C 432.263 -3.9907 1.54685 0
M  V30 4288 C 431.589 -5.26082 0.956127 0
M  V30 4289 C 432.889 -4.32313 2.93092 0
M  V30 4290 H 434.583 -2.31143 1.90298 0
M  V30 4291 H 432.129 -1.11079 0.916372 0
M  V30 4292 H 434.082 -4.1985 0.361044 0
M  V30 4293 H 432.806 -3.23792 -0.427327 0
M  V30 4294 H 431.465 -3.2453 1.70517 0
M  V30 4295 H 431.113 -5.02999 -0.0111538 0
M  V30 4296 H 430.813 -5.64426 1.63393 0
M  V30 4297 H 432.337 -6.05386 0.796284 0
M  V30 4298 H 433.751 -4.99845 2.80763 0
M  V30 4299 H 432.148 -4.81774 3.57791 0
M  V30 4300 H 433.218 -3.41025 3.44717 0
M  V30 4301 N 434.561 -1.01147 -1.20859 0
M  V30 4302 C 435.509 -0.57059 -2.25493 0
M  V30 4303 C 436.503 0.388109 -1.64894 0
M  V30 4304 O 437.709 0.258592 -1.78133 0
M  V30 4305 H 434.084 -0.166191 -0.733406 0
M  V30 4306 H 436.055 -1.46411 -2.60012 0
M  V30 4307 C 434.804 0.0805241 -3.47607 0
M  V30 4308 H 434.127 -0.648156 -3.94511 0
M  V30 4309 H 435.567 0.352197 -4.22535 0
M  V30 4310 C 434.026 1.32175 -3.09889 0
M  V30 4311 O 434.556 2.41553 -3.20959 0
M  V30 4312 N 432.762 1.20392 -2.64488 0
M  V30 4313 H 432.309 0.313905 -2.5568 0
M  V30 4314 H 432.267 2.03541 -2.39621 0
M  V30 4315 N 436.039 1.36541 -0.78704 0
M  V30 4316 C 436.969 2.32659 -0.197992 0
M  V30 4317 C 437.95 1.56533 0.665697 0
M  V30 4318 O 439.135 1.84698 0.60001 0
M  V30 4319 C 436.265 3.40778 0.669901 0
M  V30 4320 C 435.219 4.27897 -0.0937039 0
M  V30 4321 C 434.545 5.27163 0.894629 0
M  V30 4322 C 435.845 5.06334 -1.28154 0
M  V30 4323 H 437.539 2.82171 -1.00099 0
M  V30 4324 H 435.085 1.35665 -0.482793 0
M  V30 4325 H 437.038 4.07008 1.09191 0
M  V30 4326 H 435.762 2.89827 1.50558 0
M  V30 4327 H 434.421 3.6322 -0.49666 0
M  V30 4328 H 434.069 4.72486 1.72527 0
M  V30 4329 H 433.769 5.86317 0.388149 0
M  V30 4330 H 435.293 5.96266 1.31525 0
M  V30 4331 H 436.707 5.65617 -0.93541 0
M  V30 4332 H 435.104 5.74888 -1.72115 0
M  V30 4333 H 436.174 4.38114 -2.07807 0
M  V30 4334 N 437.518 0.538854 1.48102 0
M  V30 4335 C 438.929 0.100679 1.86428 0
M  V30 4336 C 439.28 -1.32447 1.44749 0
M  V30 4337 O 438.405 -1.99339 0.842199 0
M  V30 4338 C 439 0.175933 3.38343 0
M  V30 4339 C 437.559 -0.207098 3.7583 0
M  V30 4340 C 436.706 0.531741 2.72154 0
M  V30 4341 H 439.657 0.749614 1.3988 0
M  V30 4342 H 439.678 -0.610144 3.75576 0
M  V30 4343 H 439.19 1.21328 3.68648 0
M  V30 4344 H 437.291 -1.24626 3.5114 0
M  V30 4345 H 437.404 0.138687 4.78899 0
M  V30 4346 H 435.768 -0.0230462 2.5469 0
M  V30 4347 H 436.551 1.56989 3.05302 0
M  V30 4348 N 438.996 -1.55193 0.274407 0
M  V30 4349 C 439.906 -2.26164 -0.623473 0
M  V30 4350 C 440.922 -1.28729 -1.17068 0
M  V30 4351 O 442.098 -1.61663 -1.20112 0
M  V30 4352 C 439.163 -2.96833 -1.7914 0
M  V30 4353 C 438.224 -4.09745 -1.28093 0
M  V30 4354 C 437.457 -4.77034 -2.3932 0
M  V30 4355 O 437.68 -4.4353 -3.5866 0
M  V30 4356 O 436.614 -5.64996 -2.07516 0
M  V30 4357 H 440.44 -3.03661 -0.0485661 0
M  V30 4358 H 438.025 -1.49341 0.0418382 0
M  V30 4359 H 439.907 -3.41248 -2.4724 0
M  V30 4360 H 438.582 -2.22253 -2.35341 0
M  V30 4361 H 437.489 -3.69787 -0.566416 0
M  V30 4362 H 438.822 -4.86224 -0.764683 0
M  V30 4363 N 440.474 -0.00167713 -1.576 0
M  V30 4364 C 441.407 1.02317 -2.03977 0
M  V30 4365 C 442.385 1.33381 -0.929963 0
M  V30 4366 O 443.569 1.45517 -1.19822 0
M  V30 4367 C 440.696 2.35035 -2.43878 0
M  V30 4368 C 439.742 2.19621 -3.65607 0
M  V30 4369 S 440.575 1.52068 -5.13455 0
M  V30 4370 C 441.731 2.86212 -5.56627 0
M  V30 4371 H 441.964 0.628285 -2.90585 0
M  V30 4372 H 439.497 0.209239 -1.52976 0
M  V30 4373 H 441.455 3.11345 -2.67534 0
M  V30 4374 H 440.116 2.71663 -1.57665 0
M  V30 4375 H 439.309 3.1767 -3.91282 0
M  V30 4376 H 438.911 1.51455 -3.41961 0
M  V30 4377 H 441.203 3.82509 -5.59189 0
M  V30 4378 H 442.146 2.65235 -6.56549 0
M  V30 4379 H 442.554 2.90199 -4.84195 0
M  V30 4380 N 441.952 1.55251 0.271103 0
M  V30 4381 C 443.198 1.7713 0.999832 0
M  V30 4382 C 443.553 0.56659 1.83868 0
M  V30 4383 O 442.846 -0.44069 1.86463 0
M  V30 4384 C 443.04 3.01879 1.91321 0
M  V30 4385 C 442.869 4.34368 1.16426 0
M  V30 4386 C 441.639 4.97593 0.879169 0
M  V30 4387 C 443.837 5.1131 0.553749 0
M  V30 4388 N 441.819 6.13813 0.103618 0
M  V30 4389 C 443.19 6.19938 -0.0875442 0
M  V30 4390 C 445.245 4.95754 0.461782 0
M  V30 4391 C 443.948 7.14703 -0.811942 0
M  V30 4392 C 445.974 5.90875 -0.249027 0
M  V30 4393 C 445.336 6.98893 -0.879051 0
M  V30 4394 H 441.435 0.700407 0.347784 0
M  V30 4395 H 444.019 1.92744 0.275314 0
M  V30 4396 H 442.19 2.87637 2.60997 0
M  V30 4397 H 443.922 3.12154 2.57569 0
M  V30 4398 H 440.677 4.58538 1.18491 0
M  V30 4399 H 441.101 6.76455 -0.271543 0
M  V30 4400 H 445.743 4.12342 0.934552 0
M  V30 4401 H 443.461 7.97634 -1.29639 0
M  V30 4402 H 447.047 5.80916 -0.320529 0
M  V30 4403 H 445.927 7.71231 -1.42031 0
M  V30 4404 N 443.43 -0.535701 1.48216 0
M  V30 4405 C 444.34 -1.66785 1.64985 0
M  V30 4406 C 445.356 -1.65654 0.532414 0
M  V30 4407 O 446.532 -1.8471 0.80275 0
M  V30 4408 C 443.597 -3.0326 1.68031 0
M  V30 4409 C 442.658 -3.1529 2.9136 0
M  V30 4410 C 441.891 -4.45255 2.94252 0
M  V30 4411 O 442.114 -5.32011 2.05719 0
M  V30 4412 O 441.048 -4.6153 3.86359 0
M  V30 4413 H 444.874 -1.55576 2.60825 0
M  V30 4414 H 442.459 -0.70815 1.31551 0
M  V30 4415 H 444.341 -3.84436 1.72589 0
M  V30 4416 H 443.016 -3.14805 0.753628 0
M  V30 4417 H 441.923 -2.3343 2.92337 0
M  V30 4418 H 443.256 -3.08658 3.83394 0
M  V30 4419 N 444.908 -1.36708 -0.784132 0
M  V30 4420 C 446.154 -1.31426 -1.54451 0
M  V30 4421 C 446.487 0.10476 -1.93917 0
M  V30 4422 O 445.762 1.05934 -1.6312 0
M  V30 4423 C 446.045 -2.24189 -2.818 0
M  V30 4424 C 445.898 -3.74813 -2.48667 0
M  V30 4425 C 447.217 -2.15626 -3.83658 0
M  V30 4426 H 444.336 -0.478739 -0.560337 0
M  V30 4427 H 446.978 -1.67305 -0.900498 0
M  V30 4428 H 445.128 -1.93722 -3.36755 0
M  V30 4429 H 446.8 -4.15823 -1.99722 0
M  V30 4430 H 445.043 -3.93989 -1.81535 0
M  V30 4431 H 445.714 -4.35138 -3.39646 0
M  V30 4432 H 448.19 -2.42456 -3.38163 0
M  V30 4433 H 447.066 -2.82694 -4.70506 0
M  V30 4434 H 447.327 -1.14522 -4.27009 0
M  V30 4435 N 446.386 1.0089 -1.21074 0
M  V30 4436 C 447.611 1.78727 -1.05221 0
M  V30 4437 C 448.036 1.83932 0.393795 0
M  V30 4438 O 447.394 1.28004 1.28393 0
M  V30 4439 C 447.442 3.20665 -1.64944 0
M  V30 4440 O 446.546 4.02632 -0.892273 0
M  V30 4441 H 445.887 0.550973 -0.370574 0
M  V30 4442 H 448.417 1.26847 -1.60534 0
M  V30 4443 H 448.427 3.71352 -1.69002 0
M  V30 4444 H 447.102 3.16191 -2.70177 0
M  V30 4445 H 445.679 3.61207 -0.926492 0
M  V30 4446 N 447.864 1.01787 1.20321 0
M  V30 4447 C 449.112 0.706538 1.89347 0
M  V30 4448 C 449.433 -0.766289 1.79313 0
M  V30 4449 O 448.703 -1.55126 1.19635 0
M  V30 4450 H 447.283 0.258348 0.700903 0
M  V30 4451 H 449.945 1.28974 1.46122 0
M  V30 4452 H 449.041 0.991066 2.95946 0
M  V30 4453 N 449.342 -1.36122 0.79427 0
M  V30 4454 C 450.572 -2.03067 0.380437 0
M  V30 4455 C 450.98 -1.60018 -1.00949 0
M  V30 4456 O 450.323 -0.787425 -1.65968 0
M  V30 4457 C 450.385 -3.57587 0.37034 0
M  V30 4458 C 450.049 -4.23855 1.70867 0
M  V30 4459 C 451.046 -4.46404 2.66496 0
M  V30 4460 C 448.731 -4.61229 1.9893 0
M  V30 4461 C 450.725 -5.05412 3.88378 0
M  V30 4462 C 448.412 -5.19953 3.21079 0
M  V30 4463 C 449.41 -5.41985 4.15621 0
M  V30 4464 O 449.098 -5.99475 5.35616 0
M  V30 4465 H 448.83 -0.658168 0.154243 0
M  V30 4466 H 451.384 -1.7498 1.0757 0
M  V30 4467 H 449.614 -3.84814 -0.381444 0
M  V30 4468 H 451.303 -4.05895 -0.0194894 0
M  V30 4469 H 452.069 -4.17921 2.46103 0
M  V30 4470 H 447.948 -4.43402 1.26158 0
M  V30 4471 H 451.492 -5.22524 4.62185 0
M  V30 4472 H 447.389 -5.47862 3.41347 0
M  V30 4473 H 448.157 -6.17937 5.36745 0
M  V30 4474 N 450.82 -0.546701 -1.47814 0
M  V30 4475 C 451.768 0.220048 -2.31557 0
M  V30 4476 C 452.762 0.919472 -1.42275 0
M  V30 4477 O 453.968 0.841953 -1.59095 0
M  V30 4478 H 450.343 0.0898334 -0.746615 0
M  V30 4479 H 452.314 -0.505589 -2.94086 0
M  V30 4480 C 451.063 1.24353 -3.24702 0
M  V30 4481 H 450.386 0.714758 -3.93359 0
M  V30 4482 H 451.826 1.75112 -3.8615 0
M  V30 4483 C 450.285 2.28593 -2.47481 0
M  V30 4484 O 450.815 3.35334 -2.21165 0
M  V30 4485 N 449.021 2.02244 -2.08676 0
M  V30 4486 H 448.568 1.15455 -2.30278 0
M  V30 4487 H 448.526 2.72207 -1.57323 0
M  V30 4488 N 452.299 1.55045 -0.282633 0
M  V30 4489 C 453.715 1.59441 0.0712997 0
M  V30 4490 C 453.915 1.2998 1.53972 0
M  V30 4491 O 452.971 1.06431 2.28973 0
M  V30 4492 C 454.284 2.99097 -0.310104 0
M  V30 4493 C 455.832 3.1194 -0.257343 0
M  V30 4494 C 456.307 4.53875 -0.613297 0
M  V30 4495 N 457.798 4.5974 -0.565134 0
M  V30 4496 C 458.533 5.67603 -0.81326 0
M  V30 4497 N 458.029 6.83582 -1.1264 0
M  V30 4498 N 459.822 5.57187 -0.741553 0
M  V30 4499 H 451.973 1.72458 -1.23984 0
M  V30 4500 H 454.236 0.804549 -0.501403 0
M  V30 4501 H 453.942 3.25516 -1.33163 0
M  V30 4502 H 453.816 3.75616 0.345366 0
M  V30 4503 H 456.203 2.85281 0.754905 0
M  V30 4504 H 456.284 2.37618 -0.947178 0
M  V30 4505 H 455.928 4.81261 -1.62327 0
M  V30 4506 H 455.858 5.26508 0.09841 0
M  V30 4507 H 458.349 3.76427 -0.333294 0
M  V30 4508 H 458.662 7.6175 -1.30219 0
M  V30 4509 H 457.007 6.85179 -1.16425 0
M  V30 4510 H 460.198 4.65457 -0.496705 0
M  V30 4511 H 460.371 6.41171 -0.938306 0
M  V30 4512 N 453.777 0.010035 1.57597 0
M  V30 4513 C 455.023 -0.673697 1.91283 0
M  V30 4514 C 455.356 -1.72863 0.884979 0
M  V30 4515 O 454.631 -1.94268 -0.0949487 0
M  V30 4516 C 454.914 -1.30766 3.35518 0
M  V30 4517 C 454.767 -0.263578 4.49027 0
M  V30 4518 C 456.086 -2.23105 3.79358 0
M  V30 4519 H 453.205 -0.243439 0.695634 0
M  V30 4520 H 455.847 0.0633864 1.89894 0
M  V30 4521 H 453.997 -1.93588 3.36832 0
M  V30 4522 H 455.669 0.365738 4.59848 0
M  V30 4523 H 453.912 0.413077 4.31829 0
M  V30 4524 H 454.583 -0.746398 5.4693 0
M  V30 4525 H 457.059 -1.70289 3.79659 0
M  V30 4526 H 455.935 -2.64424 4.81011 0
M  V30 4527 H 456.196 -3.11433 3.13787 0
M  V30 4528 N 455.255 -1.55392 -0.262866 0
M  V30 4529 C 456.532 -1.67204 -1.01499 0
M  V30 4530 C 456.912 -0.545186 -2.03939 0
M  V30 4531 O 456.26 0.453467 -2.23955 0
M  V30 4532 C 456.47 -3.06847 -1.6627 0
M  V30 4533 C 457.818 -3.64928 -2.17054 0
M  V30 4534 O 458.842 -3.09545 -1.76239 0
M  V30 4535 O 457.701 -4.61984 -2.91947 0
M  V30 4536 H 454.795 -0.679467 -0.471438 0
M  V30 4537 H 457.341 -1.67729 -0.257918 0
M  V30 4538 H 456.113 -3.80309 -0.920915 0
M  V30 4539 H 455.736 -3.10266 -2.48638 0
M  V30 4540 N 456.733 0.527833 -1.48498 0
M  V30 4541 C 458.144 1.10975 -1.50138 0
M  V30 4542 C 458.495 1.943 -0.272378 0
M  V30 4543 O 457.62 2.07319 0.620301 0
M  V30 4544 C 458.215 2.01927 -2.72049 0
M  V30 4545 C 456.774 2.55332 -2.76554 0
M  V30 4546 C 455.921 1.32341 -2.43683 0
M  V30 4547 H 458.872 0.312986 -1.55583 0
M  V30 4548 H 458.893 2.86244 -2.50689 0
M  V30 4549 H 458.405 1.41254 -3.61481 0
M  V30 4550 H 456.506 3.19721 -1.91336 0
M  V30 4551 H 456.619 2.94319 -3.78038 0
M  V30 4552 H 454.983 1.63989 -1.94884 0
M  V30 4553 H 455.766 0.734165 -3.35358 0
M  V30 4554 N 458.211 1.37122 0.776871 0
M  V30 4555 C 459.143 1.28342 1.89897 0
M  V30 4556 C 460.156 0.200277 1.61563 0
M  V30 4557 O 461.345 0.456012 1.72577 0
M  V30 4558 C 458.445 0.960427 3.25006 0
M  V30 4559 C 457.618 2.148 3.81025 0
M  V30 4560 C 456.677 1.79608 4.94598 0
M  V30 4561 O 455.703 2.51845 5.10454 0
M  V30 4562 N 456.905 0.737171 5.758 0
M  V30 4563 H 459.67 2.25027 1.97947 0
M  V30 4564 H 457.231 1.3068 0.955739 0
M  V30 4565 H 459.223 0.705942 3.98495 0
M  V30 4566 H 457.793 0.0823066 3.12492 0
M  V30 4567 H 457.013 2.56454 2.99374 0
M  V30 4568 H 458.301 2.9411 4.15183 0
M  V30 4569 H 457.699 0.137637 5.65533 0
M  V30 4570 H 456.256 0.542534 6.49538 0
M  V30 4571 N 459.689 -1.00246 1.21608 0
M  V30 4572 C 460.935 -1.74417 1.04643 0
M  V30 4573 C 461.29 -1.87862 -0.415387 0
M  V30 4574 O 460.583 -1.40373 -1.30407 0
M  V30 4575 C 460.777 -3.15448 1.68009 0
M  V30 4576 C 460.606 -3.15755 3.20201 0
M  V30 4577 C 459.376 -3.2219 3.89258 0
M  V30 4578 C 461.574 -3.00668 4.17257 0
M  V30 4579 N 459.556 -3.1215 5.28617 0
M  V30 4580 C 460.927 -2.98553 5.43384 0
M  V30 4581 C 462.982 -2.84989 4.08272 0
M  V30 4582 C 461.685 -2.82364 6.61561 0
M  V30 4583 C 463.711 -2.70158 5.26088 0
M  V30 4584 C 463.073 -2.68721 6.51128 0
M  V30 4585 H 459.172 -0.648317 0.437274 0
M  V30 4586 H 461.756 -1.19129 1.54001 0
M  V30 4587 H 459.927 -3.69001 1.21215 0
M  V30 4588 H 461.659 -3.78128 1.44226 0
M  V30 4589 H 458.414 -3.29488 3.40198 0
M  V30 4590 H 458.838 -3.10465 6.01615 0
M  V30 4591 H 463.48 -2.84904 3.12393 0
M  V30 4592 H 461.198 -2.81196 7.57598 0
M  V30 4593 H 464.784 -2.59022 5.20959 0
M  V30 4594 H 463.664 -2.57382 7.40759 0
M  V30 4595 N 461.167 -1.02423 -1.1978 0
M  V30 4596 C 462.13 -0.605703 -2.21052 0
M  V30 4597 C 463.13 0.328209 -1.57415 0
M  V30 4598 O 464.32 0.115853 -1.73814 0
M  V30 4599 C 461.452 0.114366 -3.40708 0
M  V30 4600 H 462.645 -1.5017 -2.59594 0
M  V30 4601 H 460.198 -0.814888 -1.33376 0
M  V30 4602 H 460.933 1.02492 -3.07678 0
M  V30 4603 H 460.718 -0.556641 -3.88129 0
M  V30 4604 H 462.208 0.394272 -4.15735 0
M  V30 4605 N 462.645 1.35699 -0.801477 0
M  V30 4606 C 463.894 1.98165 -0.375979 0
M  V30 4607 C 464.207 1.64306 1.06127 0
M  V30 4608 O 465.413 2.20097 1.58964 0
M  V30 4609 C 463.869 3.54497 -0.621305 0
M  V30 4610 C 463.477 3.9727 -2.07076 0
M  V30 4611 C 465.221 4.23697 -0.26091 0
M  V30 4612 C 463.128 5.46427 -2.26211 0
M  V30 4613 H 462.058 0.741478 -0.136844 0
M  V30 4614 H 464.709 1.54834 -0.984814 0
M  V30 4615 H 463.091 3.95958 0.0574112 0
M  V30 4616 H 464.265 3.66974 -2.78687 0
M  V30 4617 H 462.58 3.40943 -2.39054 0
M  V30 4618 H 465.177 5.33334 -0.381994 0
M  V30 4619 H 465.52 4.0869 0.792344 0
M  V30 4620 H 466.053 3.87639 -0.893339 0
M  V30 4621 H 462.792 5.66396 -3.29963 0
M  V30 4622 H 462.312 5.78309 -1.59119 0
M  V30 4623 H 463.991 6.12819 -2.07513 0
M  V30 4624 N 464.123 0.554532 1.47522 0
M  V30 4625 C 465.073 -0.215008 2.26984 0
M  V30 4626 C 466.057 -0.88774 1.34194 0
M  V30 4627 O 467.249 -0.786489 1.58567 0
M  V30 4628 C 464.378 -1.24604 3.19889 0
M  V30 4629 C 463.464 -0.576857 4.20159 0
M  V30 4630 N 463.855 0.351541 5.04577 0
M  V30 4631 C 462.153 -0.831104 4.38188 0
M  V30 4632 C 462.854 0.739995 5.76974 0
M  V30 4633 N 461.83 0.0954407 5.43516 0
M  V30 4634 H 465.632 0.498843 2.89636 0
M  V30 4635 H 463.146 0.374279 1.58028 0
M  V30 4636 H 465.143 -1.81128 3.75498 0
M  V30 4637 H 463.803 -1.96101 2.58794 0
M  V30 4638 H 464.814 0.725556 5.12792 0
M  V30 4639 H 461.491 -1.53479 3.88266 0
M  V30 4640 H 462.881 1.50271 6.5488 0
M  V30 4641 N 465.601 -1.54893 0.290851 0
M  V30 4642 C 466.831 -2.04047 -0.323818 0
M  V30 4643 C 467.239 -1.16809 -1.48837 0
M  V30 4644 O 466.582 -0.184145 -1.82775 0
M  V30 4645 C 466.644 -3.49248 -0.852395 0
M  V30 4646 C 466.308 -4.56623 0.185557 0
M  V30 4647 C 467.305 -5.09985 1.01053 0
M  V30 4648 C 464.99 -5.01252 0.324332 0
M  V30 4649 C 466.984 -6.06507 1.96031 0
M  V30 4650 C 464.671 -5.97596 1.27757 0
M  V30 4651 C 465.669 -6.50107 2.09405 0
M  V30 4652 O 465.357 -7.44565 3.03114 0
M  V30 4653 H 465.089 -0.671735 -0.0758129 0
M  V30 4654 H 467.643 -2.00947 0.425393 0
M  V30 4655 H 465.873 -3.49639 -1.65195 0
M  V30 4656 H 467.562 -3.81654 -1.38185 0
M  V30 4657 H 468.328 -4.76307 0.914129 0
M  V30 4658 H 464.207 -4.60015 -0.301213 0
M  V30 4659 H 467.751 -6.47418 2.598 0
M  V30 4660 H 463.648 -6.30691 1.37473 0
M  V30 4661 H 464.416 -7.62334 2.97976 0
M  V30 4662 N 467.08 -0.0183926 -1.57589 0
M  V30 4663 C 468.305 0.676634 -1.96052 0
M  V30 4664 C 468.73 1.6548 -0.894307 0
M  V30 4665 O 468.088 1.80712 0.145849 0
M  V30 4666 C 468.136 1.36872 -3.33614 0
M  V30 4667 O 467.24 2.48372 -3.29219 0
M  V30 4668 H 466.581 0.1786 -0.63953 0
M  V30 4669 H 469.111 -0.077056 -2.04455 0
M  V30 4670 H 469.121 1.72797 -3.69601 0
M  V30 4671 H 467.796 0.651636 -4.10763 0
M  V30 4672 H 466.373 2.14639 -3.04934 0
M  V30 4673 N 468.558 1.5553 0.254621 0
M  V30 4674 C 469.488 1.9268 1.31897 0
M  V30 4675 C 470.469 0.790797 1.506 0
M  V30 4676 O 471.654 1.05045 1.63337 0
M  V30 4677 C 468.784 2.21477 2.67517 0
M  V30 4678 C 467.738 3.37256 2.63519 0
M  V30 4679 C 467.064 3.51576 4.02862 0
M  V30 4680 C 468.364 4.73157 2.21179 0
M  V30 4681 H 470.058 2.81832 1.01051 0
M  V30 4682 H 467.604 1.35599 0.484662 0
M  V30 4683 H 469.557 2.46055 3.42104 0
M  V30 4684 H 468.281 1.29144 2.99982 0
M  V30 4685 H 466.94 3.12675 1.9139 0
M  V30 4686 H 466.588 2.56676 4.32581 0
M  V30 4687 H 466.288 4.2943 4.01078 0
M  V30 4688 H 467.812 3.78467 4.79161 0
M  V30 4689 H 469.226 4.97158 2.85494 0
M  V30 4690 H 467.623 5.54058 2.30521 0
M  V30 4691 H 468.693 4.70739 1.16332 0
M  V30 4692 N 470.036 -0.519951 1.48776 0
M  V30 4693 C 470.999 -1.60574 1.6355 0
M  V30 4694 C 471.999 -1.52557 0.508234 0
M  V30 4695 O 473.189 -1.56047 0.774262 0
M  V30 4696 C 470.321 -3.00211 1.61512 0
M  V30 4697 H 471.514 -1.4881 2.60376 0
M  V30 4698 H 469.067 -0.742772 1.37523 0
M  V30 4699 H 469.802 -3.17471 0.662009 0
M  V30 4700 H 469.587 -3.07439 2.43359 0
M  V30 4701 H 471.077 -3.79134 1.75064 0
M  V30 4702 N 471.514 -1.37532 -0.769588 0
M  V30 4703 C 472.744 -1.35861 -1.55645 0
M  V30 4704 C 473.152 0.0574398 -1.89113 0
M  V30 4705 O 472.495 1.03021 -1.52093 0
M  V30 4706 C 472.557 -2.13431 -2.89288 0
M  V30 4707 C 472.221 -3.62378 -2.78444 0
M  V30 4708 C 473.218 -4.56215 -2.49326 0
M  V30 4709 C 470.903 -4.05529 -2.96398 0
M  V30 4710 C 472.897 -5.91181 -2.38294 0
M  V30 4711 C 470.584 -5.40579 -2.84987 0
M  V30 4712 C 471.582 -6.33218 -2.55975 0
M  V30 4713 O 471.27 -7.65787 -2.44594 0
M  V30 4714 H 471.002 -0.467001 -0.48876 0
M  V30 4715 H 473.556 -1.81505 -0.961515 0
M  V30 4716 H 471.786 -1.62481 -3.50909 0
M  V30 4717 H 473.475 -2.04368 -3.50697 0
M  V30 4718 H 474.241 -4.24187 -2.35139 0
M  V30 4719 H 470.12 -3.33781 -3.1798 0
M  V30 4720 H 473.664 -6.63457 -2.15571 0
M  V30 4721 H 469.561 -5.72209 -2.98743 0
M  V30 4722 H 470.329 -7.76132 -2.59927 0
M  V30 4723 N 472.992 0.995999 -1.22138 0
M  V30 4724 C 474.22 1.77066 -1.07029 0
M  V30 4725 C 474.635 1.8495 0.379357 0
M  V30 4726 O 473.992 1.3174 1.26297 0
M  V30 4727 C 474.043 3.20533 -1.67155 0
M  V30 4728 O 473.764 3.13082 -3.06449 0
M  V30 4729 C 475.265 4.14461 -1.5728 0
M  V30 4730 H 472.485 0.556179 -0.375374 0
M  V30 4731 H 475.029 1.25238 -1.61666 0
M  V30 4732 H 473.184 3.6944 -1.16589 0
M  V30 4733 H 473.598 4.03283 -3.35355 0
M  V30 4734 H 475.072 5.1289 -2.04078 0
M  V30 4735 H 475.549 4.36005 -0.528795 0
M  V30 4736 H 476.155 3.71449 -2.07136 0
M  V30 4737 N 474.47 1.03057 1.19235 0
M  V30 4738 C 475.695 0.74757 1.93458 0
M  V30 4739 C 476.12 -0.687648 1.7508 0
M  V30 4740 O 475.478 -1.47499 1.05422 0
M  V30 4741 C 475.526 1.10604 3.43219 0
M  V30 4742 O 474.63 0.225671 4.11782 0
M  V30 4743 H 473.971 0.276047 0.603899 0
M  V30 4744 H 476.501 1.3777 1.51263 0
M  V30 4745 H 476.511 1.06366 3.93891 0
M  V30 4746 H 475.186 2.15165 3.55917 0
M  V30 4747 H 473.763 0.326795 3.71465 0
M  V30 4748 N 475.948 -1.35272 0.808662 0
M  V30 4749 C 477.194 -1.99434 0.399717 0
M  V30 4750 C 477.549 -1.62992 -1.02232 0
M  V30 4751 O 476.842 -0.884091 -1.69983 0
M  V30 4752 C 477.036 -3.53556 0.522798 0
M  V30 4753 C 476.865 -4.04969 1.95525 0
M  V30 4754 C 475.635 -4.34228 2.58407 0
M  V30 4755 C 477.833 -4.23362 2.92009 0
M  V30 4756 N 475.815 -4.71585 3.93041 0
M  V30 4757 C 477.186 -4.63739 4.11517 0
M  V30 4758 C 479.241 -4.05576 2.88813 0
M  V30 4759 C 477.944 -4.88189 5.28265 0
M  V30 4760 C 479.97 -4.31184 4.04765 0
M  V30 4761 C 479.332 -4.71834 5.23022 0
M  V30 4762 H 475.431 -0.757534 0.19408 0
M  V30 4763 H 478.015 -1.63939 1.05034 0
M  V30 4764 H 476.186 -3.88277 -0.0978471 0
M  V30 4765 H 477.918 -4.04604 0.0882378 0
M  V30 4766 H 474.673 -4.24621 2.09747 0
M  V30 4767 H 475.097 -4.9452 4.62363 0
M  V30 4768 H 479.739 -3.73288 1.98535 0
M  V30 4769 H 477.457 -5.1935 6.19113 0
M  V30 4770 H 481.043 -4.18972 4.03675 0
M  V30 4771 H 479.923 -4.91263 6.11253 0
M  V30 4772 N 477.426 -0.562348 -1.47226 0
M  V30 4773 C 478.651 -0.0432632 -2.07355 0
M  V30 4774 C 479.076 1.24332 -1.41149 0
M  V30 4775 O 478.434 1.74603 -0.488226 0
M  V30 4776 C 478.482 0.130288 -3.60365 0
M  V30 4777 O 477.586 1.19166 -3.94808 0
M  V30 4778 H 476.927 -0.0536334 -0.66183 0
M  V30 4779 H 479.457 -0.779495 -1.89169 0
M  V30 4780 H 479.467 0.342881 -4.06557 0
M  V30 4781 H 478.142 -0.809389 -4.07948 0
M  V30 4782 H 476.719 0.959153 -3.60354 0
M  V30 4783 N 478.904 1.54736 -0.299062 0
M  V30 4784 C 479.836 2.20891 0.61153 0
M  V30 4785 C 480.849 1.20104 1.09904 0
M  V30 4786 O 482.038 1.46707 1.01683 0
M  V30 4787 C 479.138 2.84018 1.84897 0
M  V30 4788 C 478.311 4.10719 1.50428 0
M  V30 4789 C 477.37 4.57667 2.59667 0
M  V30 4790 O 476.396 5.2291 2.24842 0
M  V30 4791 N 477.598 4.29821 3.90172 0
M  V30 4792 H 480.363 2.99666 0.0452001 0
M  V30 4793 H 477.924 1.61446 -0.121178 0
M  V30 4794 H 479.916 3.1236 2.5732 0
M  V30 4795 H 478.486 2.09095 2.32375 0
M  V30 4796 H 477.706 3.89408 0.612781 0
M  V30 4797 H 478.994 4.93223 1.24934 0
M  V30 4798 H 478.392 3.77549 4.21276 0
M  V30 4799 H 476.949 4.62877 4.58899 0
M  V30 4800 N 480.382 0.0267497 1.57577 0
M  V30 4801 C 481.629 -0.652404 1.91703 0
M  V30 4802 C 481.957 -1.72271 0.902936 0
M  V30 4803 O 481.212 -1.955 -0.0884843 0
M  V30 4804 C 481.511 -1.30914 3.3256 0
M  V30 4805 C 481.177 -0.369441 4.49384 0
M  V30 4806 C 479.839 -0.110791 4.81072 0
M  V30 4807 C 482.191 0.275971 5.20469 0
M  V30 4808 C 479.519 0.801116 5.81205 0
M  V30 4809 C 481.871 1.17592 6.21575 0
M  V30 4810 C 480.535 1.44348 6.51705 0
M  V30 4811 H 479.805 -0.238732 0.70149 0
M  V30 4812 H 482.452 0.0880091 1.91298 0
M  V30 4813 H 480.757 -2.12425 3.29216 0
M  V30 4814 H 482.454 -1.84115 3.56234 0
M  V30 4815 H 479.044 -0.581211 4.24641 0
M  V30 4816 H 483.228 0.0892 4.9622 0
M  V30 4817 H 478.484 1.01614 6.02897 0
M  V30 4818 H 482.658 1.68223 6.75777 0
M  V30 4819 H 480.285 2.15176 7.29111 0
M  V30 4820 N 481.861 -1.55662 -0.24637 0
M  V30 4821 C 482.793 -1.86811 -1.32794 0
M  V30 4822 C 483.806 -0.754413 -1.44265 0
M  V30 4823 O 484.995 -1.03253 -1.45606 0
M  V30 4824 C 482.095 -2.0397 -2.70646 0
M  V30 4825 C 481.268 -3.34832 -2.81436 0
M  V30 4826 C 480.327 -3.41727 -4.00136 0
M  V30 4827 O 479.353 -4.14934 -3.89639 0
M  V30 4828 N 480.555 -2.71058 -5.1333 0
M  V30 4829 H 483.32 -2.80174 -1.06409 0
M  V30 4830 H 480.881 -1.55906 -0.43647 0
M  V30 4831 H 482.873 -2.05924 -3.48393 0
M  V30 4832 H 481.443 -1.1735 -2.89738 0
M  V30 4833 H 480.663 -3.4519 -1.90361 0
M  V30 4834 H 481.951 -4.21085 -2.85595 0
M  V30 4835 H 481.349 -2.11314 -5.2475 0
M  V30 4836 H 479.906 -2.78704 -5.89209 0
M  V30 4837 N 483.339 0.512053 -1.4905 0
M  V30 4838 C 484.271 1.63121 -1.6101 0
M  V30 4839 C 485.284 1.55145 -0.493352 0
M  V30 4840 O 486.473 1.61278 -0.764955 0
M  V30 4841 C 483.573 3.01863 -1.54052 0
M  V30 4842 C 482.746 3.35138 -2.81072 0
M  V30 4843 C 481.805 4.5324 -2.67319 0
M  V30 4844 O 480.831 4.55571 -3.41238 0
M  V30 4845 N 482.033 5.52495 -1.78127 0
M  V30 4846 H 484.798 1.53292 -2.5753 0
M  V30 4847 H 482.359 0.699706 -1.45999 0
M  V30 4848 H 484.351 3.78774 -1.42521 0
M  V30 4849 H 482.921 3.05675 -0.654345 0
M  V30 4850 H 482.141 2.4723 -3.07036 0
M  V30 4851 H 483.429 3.54162 -3.65304 0
M  V30 4852 H 482.827 5.53403 -1.17308 0
M  V30 4853 H 481.384 6.28553 -1.72525 0
M  V30 4854 N 484.817 1.37938 0.762283 0
M  V30 4855 C 485.747 1.37176 1.88958 0
M  V30 4856 C 486.728 0.238945 1.68413 0
M  V30 4857 O 487.913 0.440726 1.89133 0
M  V30 4858 C 485.043 1.18742 3.2637 0
M  V30 4859 C 483.997 2.29136 3.61498 0
M  V30 4860 C 483.323 1.95816 4.97554 0
M  V30 4861 C 484.623 3.71363 3.6727 0
M  V30 4862 H 486.317 2.31509 1.89853 0
M  V30 4863 H 483.863 1.11438 0.912005 0
M  V30 4864 H 485.816 1.16837 4.04879 0
M  V30 4865 H 484.54 0.208683 3.25933 0
M  V30 4866 H 483.199 2.30213 2.85303 0
M  V30 4867 H 482.847 0.964475 4.93667 0
M  V30 4868 H 482.547 2.69745 5.22026 0
M  V30 4869 H 484.071 1.95513 5.78452 0
M  V30 4870 H 485.485 3.72364 4.35911 0
M  V30 4871 H 483.882 4.44425 4.03245 0
M  V30 4872 H 484.952 4.04305 2.67704 0
M  V30 4873 N 486.295 -0.989507 1.22664 0
M  V30 4874 C 487.242 -2.08024 0.999733 0
M  V30 4875 C 488.212 -1.65909 -0.0797047 0
M  V30 4876 O 489.397 -1.90669 0.0705715 0
M  V30 4877 C 486.537 -3.40067 0.587234 0
M  V30 4878 C 485.65 -3.95505 1.73781 0
M  V30 4879 C 484.785 -5.15722 1.27297 0
M  V30 4880 C 483.824 -5.63305 2.39488 0
M  V30 4881 N 482.961 -6.74758 1.94026 0
M  V30 4882 H 487.801 -2.26768 1.9334 0
M  V30 4883 H 485.338 -1.11171 0.963297 0
M  V30 4884 H 487.296 -4.15899 0.329227 0
M  V30 4885 H 485.926 -3.21314 -0.309426 0
M  V30 4886 H 484.978 -3.16513 2.11006 0
M  V30 4887 H 486.29 -4.26797 2.58158 0
M  V30 4888 H 485.444 -5.98854 0.972546 0
M  V30 4889 H 484.183 -4.86061 0.399445 0
M  V30 4890 H 483.188 -4.78759 2.70315 0
M  V30 4891 H 484.413 -5.94988 3.27362 0
M  V30 4892 H 482.359 -6.46874 1.09041 0
M  V30 4893 H 482.276 -7.05386 2.71968 0
M  V30 4894 H 483.544 -7.61387 1.67062 0
M  V30 4895 N 487.773 -1.03688 -1.18687 0
M  V30 4896 C 488.736 -0.629115 -2.20397 0
M  V30 4897 C 489.736 0.311495 -1.57754 0
M  V30 4898 O 490.926 0.0974107 -1.73927 0
M  V30 4899 C 488.058 0.0782231 -3.4081 0
M  V30 4900 H 489.251 -1.52915 -2.57987 0
M  V30 4901 H 486.804 -0.828988 -1.32505 0
M  V30 4902 H 487.539 0.992233 -3.08748 0
M  V30 4903 H 487.324 -0.597776 -3.87517 0
M  V30 4904 H 488.814 0.350156 -4.16129 0
M  V30 4905 N 489.251 1.34841 -0.815825 0
M  V30 4906 C 490.479 2.0273 -0.413294 0
M  V30 4907 C 490.894 1.61459 0.978599 0
M  V30 4908 O 490.251 0.816584 1.63212 0
M  V30 4909 C 490.302 3.58058 -0.497676 0
M  V30 4910 O 490.023 3.97832 -1.8347 0
M  V30 4911 C 491.524 4.4321 -0.0891339 0
M  V30 4912 H 488.744 0.649956 -0.166728 0
M  V30 4913 H 491.288 1.72267 -1.10201 0
M  V30 4914 H 489.443 3.87136 0.142886 0
M  V30 4915 H 489.857 4.92501 -1.80396 0
M  V30 4916 H 491.331 5.5164 -0.199274 0
M  V30 4917 H 491.808 4.28432 0.966571 0
M  V30 4918 H 492.414 4.19446 -0.703214 0
M  V30 4919 N 490.729 0.570148 1.46925 0
M  V30 4920 C 491.954 0.0542592 2.07329 0
M  V30 4921 C 492.379 -1.23582 1.41806 0
M  V30 4922 O 491.737 -1.74341 0.497479 0
M  V30 4923 C 491.785 -0.111175 3.60429 0
M  V30 4924 O 490.889 -1.17071 3.95434 0
M  V30 4925 H 490.23 0.0571425 0.661537 0
M  V30 4926 H 492.76 0.789516 1.88753 0
M  V30 4927 H 492.77 -0.321315 4.06733 0
M  V30 4928 H 491.445 0.831012 4.07513 0
M  V30 4929 H 490.022 -0.940029 3.60857 0
M  V30 4930 N 492.207 -1.54576 0.307264 0
M  V30 4931 C 493.435 -2.04675 -0.302597 0
M  V30 4932 C 493.85 -1.18425 -1.47041 0
M  V30 4933 O 493.207 -0.211257 -1.81273 0
M  V30 4934 C 493.258 -3.53575 -0.752801 0
M  V30 4935 O 492.979 -4.36547 0.368536 0
M  V30 4936 C 494.48 -4.19699 -1.42717 0
M  V30 4937 H 491.7 -0.66786 -0.0648374 0
M  V30 4938 H 494.244 -1.99516 0.448716 0
M  V30 4939 H 492.399 -3.59074 -1.45412 0
M  V30 4940 H 492.813 -5.24497 0.0168937 0
M  V30 4941 H 494.287 -5.25388 -1.69327 0
M  V30 4942 H 494.764 -3.69815 -2.36925 0
M  V30 4943 H 495.37 -4.18293 -0.768856 0
M  V30 4944 N 493.685 -0.035106 -1.57561 0
M  V30 4945 C 494.91 0.655802 -1.96759 0
M  V30 4946 C 495.335 1.64523 -0.911809 0
M  V30 4947 O 494.693 1.80857 0.126673 0
M  V30 4948 C 494.741 1.33326 -3.35047 0
M  V30 4949 O 493.845 2.44866 -3.31835 0
M  V30 4950 H 493.186 0.171807 -0.641388 0
M  V30 4951 H 495.716 -0.0987369 -2.04362 0
M  V30 4952 H 495.726 1.68867 -3.71413 0
M  V30 4953 H 494.401 0.608033 -4.11431 0
M  V30 4954 H 492.978 2.11392 -3.07193 0
M  V30 4955 N 495.163 1.55791 0.238111 0
M  V30 4956 C 496.411 1.77681 0.963001 0
M  V30 4957 C 496.732 0.600674 1.85518 0
M  V30 4958 O 496.002 -0.383182 1.92116 0
M  V30 4959 H 494.582 0.655315 0.358568 0
M  V30 4960 H 497.244 1.93239 0.253945 0
M  V30 4961 H 496.34 2.69177 1.57956 0
M  V30 4962 N 496.642 -0.504142 1.49319 0
M  V30 4963 C 497.919 -1.26548 1.49147 0
M  V30 4964 C 498.299 -2.09977 0.21744 0
M  V30 4965 O 497.647 -2.14028 -0.800269 0
M  V30 4966 C 497.857 -2.12489 2.76857 0
M  V30 4967 C 499.205 -2.7178 3.26222 0
M  V30 4968 O 500.229 -2.22758 2.77952 0
M  V30 4969 O 499.088 -3.61015 4.10281 0
M  V30 4970 H 496.182 -0.572495 0.596806 0
M  V30 4971 H 498.728 -0.51867 1.61579 0
M  V30 4972 H 497.5 -1.50796 3.61077 0
M  V30 4973 H 497.123 -2.94368 2.6727 0
M  V30 4974 N 498.12 -1.38341 -0.754957 0
M  V30 4975 C 499.348 -1.37704 -1.54419 0
M  V30 4976 C 499.763 0.0335243 -1.8877 0
M  V30 4977 O 499.12 0.999773 -1.52679 0
M  V30 4978 C 499.171 -2.23136 -2.84416 0
M  V30 4979 O 498.892 -3.58697 -2.51531 0
M  V30 4980 C 500.393 -2.30664 -3.78562 0
M  V30 4981 H 497.613 -0.471061 -0.477852 0
M  V30 4982 H 500.157 -1.81902 -0.934446 0
M  V30 4983 H 498.312 -1.82403 -3.41772 0
M  V30 4984 H 498.726 -4.03665 -3.34896 0
M  V30 4985 H 500.2 -2.9473 -4.66732 0
M  V30 4986 H 500.677 -1.3199 -4.18898 0
M  V30 4987 H 501.283 -2.71781 -3.27131 0
M  V30 4988 N 499.598 0.982988 -1.23187 0
M  V30 4989 C 500.528 2.09301 -1.03515 0
M  V30 4990 C 501.509 1.70035 0.0471136 0
M  V30 4991 O 502.694 1.93847 -0.117029 0
M  V30 4992 C 499.824 3.4167 -0.622791 0
M  V30 4993 C 498.778 3.94828 -1.65211 0
M  V30 4994 C 498.104 5.23362 -1.09527 0
M  V30 4995 C 499.404 4.2439 -3.04451 0
M  V30 4996 H 501.098 2.26016 -1.96359 0
M  V30 4997 H 498.644 1.08611 -0.945501 0
M  V30 4998 H 500.597 4.18746 -0.472233 0
M  V30 4999 H 499.321 3.24811 0.341329 0
M  V30 5000 H 497.98 3.19895 -1.79061 0
M  V30 5001 H 497.628 5.02852 -0.122211 0
M  V30 5002 H 497.328 5.59895 -1.783 0
M  V30 5003 H 498.852 6.03062 -0.956511 0
M  V30 5004 H 500.266 4.92225 -2.93917 0
M  V30 5005 H 498.663 4.72118 -3.70438 0
M  V30 5006 H 499.733 3.31765 -3.53638 0
M  V30 5007 N 501.076 1.04316 1.18135 0
M  V30 5008 C 502.323 0.74802 1.88178 0
M  V30 5009 C 502.651 -0.72441 1.80506 0
M  V30 5010 O 501.906 -1.54463 1.20165 0
M  V30 5011 C 502.205 1.16271 3.37958 0
M  V30 5012 C 501.871 2.63585 3.65833 0
M  V30 5013 C 500.533 3.03829 3.73151 0
M  V30 5014 C 502.885 3.58822 3.78016 0
M  V30 5015 C 500.213 4.38194 3.90132 0
M  V30 5016 C 502.565 4.92909 3.96514 0
M  V30 5017 C 501.229 5.3282 4.02068 0
M  V30 5018 H 500.499 0.27372 0.688592 0
M  V30 5019 H 503.146 1.30863 1.39811 0
M  V30 5020 H 501.451 0.520938 3.88321 0
M  V30 5021 H 503.148 0.911672 3.90499 0
M  V30 5022 H 499.738 2.31414 3.60757 0
M  V30 5023 H 503.922 3.28875 3.71692 0
M  V30 5024 H 499.178 4.68631 3.92677 0
M  V30 5025 H 503.352 5.66606 4.04883 0
M  V30 5026 H 500.979 6.36943 4.14979 0
M  V30 5027 N 502.554 -1.34406 0.822964 0
M  V30 5028 C 503.486 -2.28305 0.202375 0
M  V30 5029 C 504.499 -1.5103 -0.60777 0
M  V30 5030 O 505.688 -1.73057 -0.437444 0
M  V30 5031 C 502.788 -3.30836 -0.734911 0
M  V30 5032 C 501.961 -4.37388 0.0324177 0
M  V30 5033 C 501.02 -5.1968 -0.825803 0
M  V30 5034 O 500.046 -5.68556 -0.270771 0
M  V30 5035 N 501.248 -5.39393 -2.14558 0
M  V30 5036 H 504.013 -2.82201 1.00909 0
M  V30 5037 H 501.574 -1.4693 0.67993 0
M  V30 5038 H 503.566 -3.82786 -1.31365 0
M  V30 5039 H 502.136 -2.77334 -1.44238 0
M  V30 5040 H 501.356 -3.86152 0.792469 0
M  V30 5041 H 502.644 -5.05702 0.560633 0
M  V30 5042 H 502.042 -5.01357 -2.62025 0
M  V30 5043 H 500.599 -5.94461 -2.67318 0
M  V30 5044 N 504.032 -0.577932 -1.46621 0
M  V30 5045 C 504.979 0.158048 -2.30258 0
M  V30 5046 C 505.949 0.888669 -1.40328 0
M  V30 5047 O 507.134 0.880283 -1.6928 0
M  V30 5048 C 504.274 1.16884 -3.24703 0
M  V30 5049 C 503.387 0.442163 -4.29731 0
M  V30 5050 C 502.522 1.44007 -5.11308 0
M  V30 5051 C 501.561 0.69952 -6.0809 0
M  V30 5052 N 500.698 1.64525 -6.82551 0
M  V30 5053 H 505.538 -0.561242 -2.92667 0
M  V30 5054 H 503.075 -0.288591 -1.44241 0
M  V30 5055 H 505.033 1.7677 -3.779 0
M  V30 5056 H 503.663 1.85591 -2.64113 0
M  V30 5057 H 502.715 -0.271632 -3.79429 0
M  V30 5058 H 504.027 -0.136992 -4.98612 0
M  V30 5059 H 503.181 2.11186 -5.68758 0
M  V30 5060 H 501.92 2.05315 -4.42377 0
M  V30 5061 H 500.925 0.0139217 -5.49798 0
M  V30 5062 H 502.15 0.091894 -6.79038 0
M  V30 5063 H 500.096 2.24653 -6.16334 0
M  V30 5064 H 500.013 1.11878 -7.47676 0
M  V30 5065 H 501.281 2.30754 -7.44562 0
M  V30 5066 N 505.51 1.54411 -0.315457 0
M  V30 5067 C 506.46 2.20772 0.569549 0
M  V30 5068 C 507.444 1.18551 1.08787 0
M  V30 5069 O 508.636 1.44213 1.02624 0
M  V30 5070 C 505.765 2.96293 1.73394 0
M  V30 5071 C 504.851 4.05844 1.2309 0
M  V30 5072 N 505.242 5.03822 0.446927 0
M  V30 5073 C 503.54 4.19648 1.51035 0
M  V30 5074 C 504.241 5.8143 0.17725 0
M  V30 5075 N 503.217 5.38245 0.761118 0
M  V30 5076 H 507.019 2.93877 -0.0368076 0
M  V30 5077 H 504.533 1.61949 -0.120915 0
M  V30 5078 H 506.53 3.42313 2.37965 0
M  V30 5079 H 505.19 2.24708 2.34386 0
M  V30 5080 H 506.201 5.17821 0.0905027 0
M  V30 5081 H 502.878 3.59274 2.1267 0
M  V30 5082 H 504.268 6.70369 -0.45335 0
M  V30 5083 N 506.988 0.0434614 1.5754 0
M  V30 5084 C 507.898 -0.94893 2.14552 0
M  V30 5085 C 508.914 -1.34707 1.10136 0
M  V30 5086 O 510.09 -1.42557 1.42266 0
M  V30 5087 C 507.155 -2.208 2.67298 0
M  V30 5088 C 506.216 -1.86893 3.86484 0
M  V30 5089 C 505.449 -3.06797 4.36705 0
M  V30 5090 O 505.672 -4.19921 3.86034 0
M  V30 5091 O 504.606 -2.8826 5.28384 0
M  V30 5092 H 508.432 -0.494099 2.99654 0
M  V30 5093 H 506.017 -0.177989 1.48336 0
M  V30 5094 H 507.899 -2.94686 3.01228 0
M  V30 5095 H 506.574 -2.65436 1.85272 0
M  V30 5096 H 505.481 -1.10347 3.57455 0
M  V30 5097 H 506.814 -1.47062 4.69716 0
M  V30 5098 N 508.466 -1.55915 -0.229846 0
M  V30 5099 C 509.714 -1.7819 -0.953565 0
M  V30 5100 C 510.035 -0.610504 -1.85197 0
M  V30 5101 O 509.305 0.372988 -1.92316 0
M  V30 5102 H 507.885 -0.657208 -0.355087 0
M  V30 5103 H 510.547 -1.9337 -0.243693 0
M  V30 5104 H 509.643 -2.70011 -1.56527 0
M  V30 5105 N 509.944 0.496216 -1.49584 0
M  V30 5106 C 511.191 1.25003 -1.59312 0
M  V30 5107 C 511.519 1.92445 -0.28198 0
M  V30 5108 O 510.774 1.81557 0.730452 0
M  V30 5109 C 511.073 2.3359 -2.705 0
M  V30 5110 C 510.739 1.83574 -4.11839 0
M  V30 5111 C 509.401 1.69653 -4.50302 0
M  V30 5112 C 511.753 1.46193 -5.00277 0
M  V30 5113 C 509.081 1.16736 -5.74969 0
M  V30 5114 C 511.433 0.947265 -6.25468 0
M  V30 5115 C 510.097 0.794485 -6.62755 0
M  V30 5116 H 509.367 0.45742 -0.582965 0
M  V30 5117 H 512.014 0.549996 -1.83432 0
M  V30 5118 H 510.319 3.09401 -2.40371 0
M  V30 5119 H 512.016 2.91627 -2.75235 0
M  V30 5120 H 508.606 1.9537 -3.81482 0
M  V30 5121 H 512.79 1.55793 -4.71214 0
M  V30 5122 H 508.046 1.03623 -6.02555 0
M  V30 5123 H 512.22 0.648846 -6.93371 0
M  V30 5124 H 509.847 0.382271 -7.59238 0
M  V30 5125 N 511.423 1.38739 0.74761 0
M  V30 5126 C 512.37 1.36449 1.86146 0
M  V30 5127 C 513.34 0.226098 1.64554 0
M  V30 5128 O 514.525 0.41926 1.86137 0
M  V30 5129 C 511.665 1.2013 3.23516 0
M  V30 5130 C 510.778 2.43407 3.56899 0
M  V30 5131 C 509.913 2.19773 4.83605 0
M  V30 5132 C 508.952 3.3879 5.09792 0
M  V30 5133 N 508.089 3.14553 6.27695 0
M  V30 5134 H 512.929 2.3167 1.87438 0
M  V30 5135 H 510.466 1.15094 0.916063 0
M  V30 5136 H 512.424 1.08683 4.02795 0
M  V30 5137 H 511.054 0.285453 3.21535 0
M  V30 5138 H 510.106 2.65504 2.72418 0
M  V30 5139 H 511.418 3.32094 3.72176 0
M  V30 5140 H 510.572 2.05496 5.70838 0
M  V30 5141 H 509.311 1.28461 4.70478 0
M  V30 5142 H 508.316 3.53579 4.21025 0
M  V30 5143 H 509.541 4.30986 5.24812 0
M  V30 5144 H 507.487 2.25893 6.1588 0
M  V30 5145 H 507.404 3.96791 6.435 0
M  V30 5146 H 508.672 3.03943 7.17801 0
M  V30 5147 N 512.901 -0.976442 1.23707 0
M  V30 5148 C 514.178 -1.69296 0.979699 0
M  V30 5149 C 514.558 -2.0508 -0.500555 0
M  V30 5150 O 513.906 -1.74708 -1.47273 0
M  V30 5151 C 514.116 -2.93143 1.89389 0
M  V30 5152 C 515.464 -3.65572 2.15968 0
M  V30 5153 O 516.488 -3.03184 1.86971 0
M  V30 5154 O 515.347 -4.77859 2.65167 0
M  V30 5155 H 512.441 -0.739708 0.369812 0
M  V30 5156 H 514.987 -1.03131 1.34767 0
M  V30 5157 H 513.759 -2.63327 2.89439 0
M  V30 5158 H 513.382 -3.67044 1.52854 0
M  V30 5159 N 514.379 -1.04941 -1.1758 0
M  V30 5160 C 515.342 -0.652456 -2.19717 0
M  V30 5161 C 516.342 0.294745 -1.58076 0
M  V30 5162 O 517.532 0.0789579 -1.74021 0
M  V30 5163 C 514.664 0.0420712 -3.40874 0
M  V30 5164 H 515.857 -1.55642 -2.5635 0
M  V30 5165 H 513.41 -0.842995 -1.31618 0
M  V30 5166 H 514.145 0.95943 -3.09783 0
M  V30 5167 H 513.93 -0.638844 -3.86861 0
M  V30 5168 H 515.42 0.306 -4.16477 0
M  V30 5169 N 515.857 1.33968 -0.830081 0
M  V30 5170 C 517.087 2.01987 -0.434142 0
M  V30 5171 C 517.495 1.62639 0.96671 0
M  V30 5172 O 516.838 0.831151 1.63822 0
M  V30 5173 C 516.9 3.5648 -0.465018 0
M  V30 5174 C 516.564 4.19176 -1.82045 0
M  V30 5175 C 517.561 4.39181 -2.78237 0
M  V30 5176 C 515.246 4.55792 -2.11089 0
M  V30 5177 C 517.24 4.94937 -4.01642 0
M  V30 5178 C 514.927 5.11258 -3.34752 0
M  V30 5179 C 515.925 5.30775 -4.29845 0
M  V30 5180 O 515.613 5.85064 -5.51322 0
M  V30 5181 H 515.345 0.653847 -0.171639 0
M  V30 5182 H 517.899 1.72066 -1.12171 0
M  V30 5183 H 516.129 3.8569 0.279284 0
M  V30 5184 H 517.818 4.05804 -0.0881334 0
M  V30 5185 H 518.584 4.11249 -2.57097 0
M  V30 5186 H 514.463 4.39901 -1.3787 0
M  V30 5187 H 518.007 5.10086 -4.75876 0
M  V30 5188 H 513.904 5.38619 -3.55753 0
M  V30 5189 H 514.672 6.03489 -5.5294 0
M  V30 5190 N 517.335 0.585699 1.46312 0
M  V30 5191 C 518.751 0.247607 1.57668 0
M  V30 5192 C 518.951 -1.25007 1.58037 0
M  V30 5193 O 518.007 -2.03196 1.49893 0
M  V30 5194 C 519.32 0.899456 2.86933 0
M  V30 5195 C 520.868 0.873326 3.00569 0
M  V30 5196 C 521.343 1.50477 4.32574 0
M  V30 5197 N 522.834 1.46925 4.3928 0
M  V30 5198 C 523.569 1.92719 5.40044 0
M  V30 5199 N 523.065 2.46499 6.47464 0
M  V30 5200 N 524.858 1.83617 5.31264 0
M  V30 5201 H 517.009 1.55841 1.44317 0
M  V30 5202 H 519.272 0.651564 0.688599 0
M  V30 5203 H 518.978 1.95313 2.92482 0
M  V30 5204 H 518.852 0.409476 3.74971 0
M  V30 5205 H 521.239 -0.171736 2.946 0
M  V30 5206 H 521.32 1.40136 2.13999 0
M  V30 5207 H 520.964 2.54905 4.39302 0
M  V30 5208 H 520.894 0.951944 5.17924 0
M  V30 5209 H 523.385 1.07616 3.62253 0
M  V30 5210 H 523.698 2.79291 7.20567 0
M  V30 5211 H 522.043 2.50526 6.48276 0
M  V30 5212 H 525.234 1.41358 4.46246 0
M  V30 5213 H 525.407 2.19622 6.09648 0
M  V30 5214 N 518.813 -1.54241 0.323641 0
M  V30 5215 C 520.062 -1.9975 -0.279806 0
M  V30 5216 C 520.375 -1.2156 -1.5324 0
M  V30 5217 O 521.581 -1.57447 -2.21185 0
M  V30 5218 C 520.037 -3.55686 -0.549115 0
M  V30 5219 C 519.645 -4.4271 0.686432 0
M  V30 5220 C 521.389 -4.09663 -1.11251 0
M  V30 5221 C 519.296 -5.90119 0.389022 0
M  V30 5222 H 518.226 -0.746177 -0.10833 0
M  V30 5223 H 520.877 -1.78248 0.435877 0
M  V30 5224 H 519.259 -3.73176 -1.32499 0
M  V30 5225 H 520.433 -4.36996 1.46188 0
M  V30 5226 H 518.748 -3.99623 1.17005 0
M  V30 5227 H 521.345 -5.17386 -1.34965 0
M  V30 5228 H 521.688 -3.61651 -2.06191 0
M  V30 5229 H 522.221 -3.95806 -0.39782 0
M  V30 5230 H 518.96 -6.42326 1.30759 0
M  V30 5231 H 518.48 -5.98785 -0.348722 0
M  V30 5232 H 520.159 -6.47 -0.0011164 0
M  V30 5233 N 520.291 -0.0518155 -1.57515 0
M  V30 5234 C 521.254 0.907547 -2.10467 0
M  V30 5235 C 522.254 1.23947 -1.02439 0
M  V30 5236 O 523.444 1.17604 -1.2851 0
M  V30 5237 C 520.576 2.21723 -2.58944 0
M  V30 5238 H 521.769 0.44851 -2.96527 0
M  V30 5239 H 519.322 0.196598 -1.55059 0
M  V30 5240 H 520.057 2.72206 -1.76279 0
M  V30 5241 H 519.842 1.98935 -3.37886 0
M  V30 5242 H 521.332 2.90441 -3.00056 0
M  V30 5243 N 521.769 1.56035 0.221574 0
M  V30 5244 C 522.699 1.95434 1.2778 0
M  V30 5245 C 523.68 0.822564 1.48889 0
M  V30 5246 O 524.865 1.08486 1.61072 0
M  V30 5247 C 521.995 2.27102 2.62759 0
M  V30 5248 C 520.949 3.4277 2.56306 0
M  V30 5249 C 520.275 3.60043 3.95314 0
M  V30 5250 C 521.575 4.77742 2.11093 0
M  V30 5251 H 523.269 2.83912 0.950504 0
M  V30 5252 H 520.815 1.36596 0.455791 0
M  V30 5253 H 522.768 2.53256 3.36807 0
M  V30 5254 H 521.492 1.35478 2.97176 0
M  V30 5255 H 520.151 3.16664 1.84715 0
M  V30 5256 H 519.799 2.65794 4.27039 0
M  V30 5257 H 519.499 4.37841 3.91879 0
M  V30 5258 H 521.023 3.88545 4.71025 0
M  V30 5259 H 522.437 5.03102 2.74885 0
M  V30 5260 H 520.834 5.58823 2.18716 0
M  V30 5261 H 521.904 4.731 1.06321 0
M  V30 5262 N 523.247 -0.488276 1.49845 0
M  V30 5263 C 524.495 -1.23911 1.59657 0
M  V30 5264 C 524.816 -1.92816 0.291005 0
M  V30 5265 O 524.086 -1.83328 -0.690485 0
M  V30 5266 H 522.666 -0.460357 0.588286 0
M  V30 5267 H 525.328 -0.564794 1.86537 0
M  V30 5268 H 524.424 -1.99625 2.39909 0
M  V30 5269 N 524.725 -1.39134 -0.740242 0
M  V30 5270 C 525.953 -1.39334 -1.5295 0
M  V30 5271 C 526.368 0.0135008 -1.88795 0
M  V30 5272 O 525.725 0.983524 -1.5373 0
M  V30 5273 C 525.776 -2.2614 -2.82034 0
M  V30 5274 O 525.497 -3.61345 -2.47712 0
M  V30 5275 C 526.998 -2.34666 -3.76094 0
M  V30 5276 H 524.218 -0.476103 -0.472828 0
M  V30 5277 H 526.762 -1.82883 -0.9151 0
M  V30 5278 H 524.917 -1.86018 -3.39818 0
M  V30 5279 H 525.331 -4.07194 -3.30595 0
M  V30 5280 H 526.805 -2.99663 -4.63579 0
M  V30 5281 H 527.282 -1.36426 -4.17474 0
M  V30 5282 H 527.888 -2.75236 -3.2423 0
M  V30 5283 N 526.204 0.969867 -1.24223 0
M  V30 5284 C 527.432 1.74756 -1.10761 0
M  V30 5285 C 527.847 1.85713 0.340041 0
M  V30 5286 O 527.204 1.34389 1.23474 0
M  V30 5287 C 527.255 3.16915 -1.73917 0
M  V30 5288 O 526.976 3.06511 -3.13021 0
M  V30 5289 C 528.477 4.11032 -1.66036 0
M  V30 5290 H 525.697 0.548092 -0.387087 0
M  V30 5291 H 528.241 1.2178 -1.64286 0
M  V30 5292 H 526.396 3.66884 -1.244 0
M  V30 5293 H 526.81 3.96079 -3.43834 0
M  V30 5294 H 528.284 5.08446 -2.14911 0
M  V30 5295 H 528.761 4.34785 -0.621159 0
M  V30 5296 H 529.367 3.66972 -2.14969 0
M  V30 5297 N 527.682 1.05563 1.17022 0
M  V30 5298 C 528.912 0.787307 1.91011 0
M  V30 5299 C 529.32 -0.661256 1.77268 0
M  V30 5300 O 528.663 -1.46379 1.10991 0
M  V30 5301 C 528.725 1.09313 3.42478 0
M  V30 5302 C 528.389 2.53863 3.80004 0
M  V30 5303 C 529.386 3.52081 3.82538 0
M  V30 5304 C 527.071 2.88969 4.10855 0
M  V30 5305 C 529.065 4.83449 4.15399 0
M  V30 5306 C 526.752 4.2054 4.43384 0
M  V30 5307 C 527.75 5.17589 4.45635 0
M  V30 5308 O 527.438 6.46799 4.77395 0
M  V30 5309 H 527.17 0.285463 0.61277 0
M  V30 5310 H 529.724 1.41051 1.49311 0
M  V30 5311 H 527.954 0.412833 3.8449 0
M  V30 5312 H 529.643 0.810224 3.97731 0
M  V30 5313 H 530.409 3.26299 3.58823 0
M  V30 5314 H 526.288 2.1409 4.08272 0
M  V30 5315 H 529.832 5.59194 4.1707 0
M  V30 5316 H 525.729 4.46083 4.66563 0
M  V30 5317 H 526.497 6.51677 4.95237 0
M  V30 5318 N 529.16 -1.33526 0.837174 0
M  V30 5319 C 530.39 -2.01754 0.444848 0
M  V30 5320 C 530.798 -1.63149 -0.958072 0
M  V30 5321 O 530.141 -0.839827 -1.63379 0
M  V30 5322 C 530.203 -3.56228 0.483917 0
M  V30 5323 C 529.867 -4.18205 1.84265 0
M  V30 5324 C 530.864 -4.37699 2.80563 0
M  V30 5325 C 528.549 -4.54667 2.13503 0
M  V30 5326 C 530.543 -4.928 4.04261 0
M  V30 5327 C 528.23 -5.09475 3.37458 0
M  V30 5328 C 529.228 -5.28488 4.32654 0
M  V30 5329 O 528.916 -5.82132 5.54417 0
M  V30 5330 H 528.648 -0.652928 0.175104 0
M  V30 5331 H 531.202 -1.71469 1.13082 0
M  V30 5332 H 529.432 -3.85833 -0.258826 0
M  V30 5333 H 531.121 -4.05752 0.109653 0
M  V30 5334 H 531.887 -4.0988 2.59274 0
M  V30 5335 H 527.766 -4.39164 1.40201 0
M  V30 5336 H 531.31 -5.07555 4.78574 0
M  V30 5337 H 527.207 -5.36725 3.58604 0
M  V30 5338 H 527.975 -6.00548 5.56133 0
M  V30 5339 N 530.638 -0.59345 -1.46 0
M  V30 5340 C 531.868 -0.0889642 -2.06408 0
M  V30 5341 C 532.276 1.22597 -1.44106 0
M  V30 5342 O 531.619 1.75448 -0.544398 0
M  V30 5343 C 531.681 0.139902 -3.59228 0
M  V30 5344 C 531.345 -1.09107 -4.43784 0
M  V30 5345 C 532.342 -2.00577 -4.79651 0
M  V30 5346 C 530.027 -1.31593 -4.84756 0
M  V30 5347 C 532.021 -3.12873 -5.55328 0
M  V30 5348 C 529.708 -2.44192 -5.60191 0
M  V30 5349 C 530.706 -3.34661 -5.95392 0
M  V30 5350 O 530.394 -4.45302 -6.69299 0
M  V30 5351 H 530.126 -0.0594613 -0.67338 0
M  V30 5352 H 532.68 -0.817 -1.88452 0
M  V30 5353 H 530.91 0.922672 -3.75531 0
M  V30 5354 H 532.599 0.594228 -4.01527 0
M  V30 5355 H 533.365 -1.84425 -4.48567 0
M  V30 5356 H 529.244 -0.620801 -4.56801 0
M  V30 5357 H 532.788 -3.83511 -5.82722 0
M  V30 5358 H 528.685 -2.60303 -5.90688 0
M  V30 5359 H 529.453 -4.43805 -6.87735 0
M  V30 5360 N 532.116 1.54067 -0.331816 0
M  V30 5361 C 533.393 1.92915 0.322955 0
M  V30 5362 C 533.773 1.26225 1.69205 0
M  V30 5363 O 533.121 0.408919 2.24811 0
M  V30 5364 C 533.331 3.46619 0.406946 0
M  V30 5365 C 534.679 4.19386 0.663339 0
M  V30 5366 O 535.703 3.5282 0.489536 0
M  V30 5367 O 534.562 5.37288 0.999193 0
M  V30 5368 H 531.656 0.805808 0.186016 0
M  V30 5369 H 534.202 1.65342 -0.382135 0
M  V30 5370 H 532.974 3.87354 -0.554287 0
M  V30 5371 H 532.597 3.80324 1.15929 0
M  V30 5372 N 533.594 0.0601682 1.57485 0
M  V30 5373 C 534.871 -0.651956 1.84415 0
M  V30 5374 C 535.251 -1.88498 0.950361 0
M  V30 5375 O 534.599 -2.28496 0.0136719 0
M  V30 5376 C 534.809 -1.00069 3.34346 0
M  V30 5377 C 536.157 -1.37915 4.01578 0
M  V30 5378 O 537.181 -1.09277 3.39024 0
M  V30 5379 O 536.04 -1.91399 5.11887 0
M  V30 5380 H 533.134 -0.322668 0.761455 0
M  V30 5381 H 535.68 0.0902159 1.6946 0
M  V30 5382 H 534.452 -0.124463 3.91102 0
M  V30 5383 H 534.075 -1.80001 3.54521 0
M  V30 5384 N 535.072 -1.5615 -0.213296 0
M  V30 5385 C 536.02 -1.93953 -1.28394 0
M  V30 5386 C 537.014 -0.822592 -1.48087 0
M  V30 5387 O 538.22 -1.00748 -1.49164 0
M  V30 5388 H 534.595 -0.61648 -0.430646 0
M  V30 5389 H 536.566 -2.83275 -0.937977 0
M  V30 5390 C 535.315 -2.27969 -2.62537 0
M  V30 5391 H 534.638 -3.13432 -2.48194 0
M  V30 5392 H 536.078 -2.58297 -3.36242 0
M  V30 5393 C 534.537 -1.10775 -3.18167 0
M  V30 5394 O 535.067 -0.373201 -3.99963 0
M  V30 5395 N 533.273 -0.889377 -2.76656 0
M  V30 5396 H 532.82 -1.48843 -2.10246 0
M  V30 5397 H 532.778 -0.107 -3.14218 0
M  V30 5398 N 536.55 0.480323 -1.50102 0
M  V30 5399 C 537.796 1.23208 -1.61837 0
M  V30 5400 C 538.151 1.89878 -0.310509 0
M  V30 5401 O 537.444 1.7871 0.690897 0
M  V30 5402 C 537.638 2.30708 -2.72963 0
M  V30 5403 C 537.467 1.74583 -4.14428 0
M  V30 5404 C 536.237 1.54964 -4.80951 0
M  V30 5405 C 538.435 1.24597 -4.98979 0
M  V30 5406 N 536.417 0.939855 -6.06663 0
M  V30 5407 C 537.788 0.758834 -6.15339 0
M  V30 5408 C 539.843 1.13365 -4.84822 0
M  V30 5409 C 538.546 0.17046 -7.19098 0
M  V30 5410 C 540.572 0.559221 -5.8875 0
M  V30 5411 C 539.934 0.082415 -7.04352 0
M  V30 5412 H 536.033 0.440065 -0.646426 0
M  V30 5413 H 538.617 0.535632 -1.87187 0
M  V30 5414 H 536.788 2.9779 -2.4935 0
M  V30 5415 H 538.52 2.97738 -2.74106 0
M  V30 5416 H 535.275 1.79926 -4.38091 0
M  V30 5417 H 535.699 0.653641 -6.73837 0
M  V30 5418 H 540.341 1.48823 -3.95742 0
M  V30 5419 H 538.059 -0.196347 -8.07861 0
M  V30 5420 H 541.645 0.474804 -5.79859 0
M  V30 5421 H 540.525 -0.355119 -7.83396 0
M  V30 5422 N 538.028 1.39524 0.732853 0
M  V30 5423 C 539.256 1.40143 1.52209 0
M  V30 5424 C 539.671 -0.00348836 1.888 0
M  V30 5425 O 539.028 -0.975357 1.5425 0
M  V30 5426 C 539.079 2.27632 2.8083 0
M  V30 5427 O 538.8 3.62654 2.45792 0
M  V30 5428 C 540.301 2.36658 3.74844 0
M  V30 5429 H 537.521 0.478604 0.470297 0
M  V30 5430 H 540.065 1.83366 0.905388 0
M  V30 5431 H 538.22 1.87818 3.38826 0
M  V30 5432 H 538.634 4.08941 3.28431 0
M  V30 5433 H 540.108 3.02118 4.61984 0
M  V30 5434 H 540.585 1.38638 4.16745 0
M  V30 5435 H 541.191 2.76951 3.22766 0
M  V30 5436 N 539.506 -0.963266 1.24736 0
M  V30 5437 C 540.753 -1.7068 1.0897 0
M  V30 5438 C 541.081 -1.90934 -0.370751 0
M  V30 5439 O 540.336 -1.47155 -1.29011 0
M  V30 5440 C 540.635 -3.09944 1.7796 0
M  V30 5441 C 540.301 -3.09518 3.27887 0
M  V30 5442 C 538.963 -3.09109 3.68789 0
M  V30 5443 C 541.315 -3.03509 4.23712 0
M  V30 5444 C 538.643 -3.00429 5.03944 0
M  V30 5445 C 540.995 -2.96371 5.5888 0
M  V30 5446 C 539.659 -2.94293 5.99123 0
M  V30 5447 H 538.929 -0.624564 0.398749 0
M  V30 5448 H 541.576 -1.12603 1.54896 0
M  V30 5449 H 539.881 -3.71513 1.2444 0
M  V30 5450 H 541.578 -3.66278 1.63222 0
M  V30 5451 H 538.168 -3.10603 2.95337 0
M  V30 5452 H 542.352 -3.0295 3.93109 0
M  V30 5453 H 537.608 -2.97183 5.34314 0
M  V30 5454 H 541.782 -2.90681 6.32833 0
M  V30 5455 H 539.409 -2.87322 7.03811 0
M  V30 5456 N 540.985 -1.06182 -1.16461 0
M  V30 5457 C 542.401 -0.785065 -1.38956 0
M  V30 5458 C 542.601 0.616103 -1.9185 0
M  V30 5459 O 541.657 1.37686 -2.11657 0
M  V30 5460 C 542.97 -1.84902 -2.37132 0
M  V30 5461 C 544.518 -1.8724 -2.50819 0
M  V30 5462 C 544.993 -2.92686 -3.52277 0
M  V30 5463 N 546.484 -2.91712 -3.59803 0
M  V30 5464 C 547.219 -3.69949 -4.38093 0
M  V30 5465 N 546.715 -4.58 -5.19815 0
M  V30 5466 N 548.508 -3.58346 -4.33064 0
M  V30 5467 H 540.659 -1.96569 -0.804634 0
M  V30 5468 H 542.922 -0.851747 -0.416211 0
M  V30 5469 H 542.628 -2.85518 -2.0536 0
M  V30 5470 H 542.502 -1.69908 -3.36766 0
M  V30 5471 H 544.889 -0.872827 -2.81897 0
M  V30 5472 H 544.97 -2.06311 -1.51226 0
M  V30 5473 H 544.614 -3.92835 -3.21937 0
M  V30 5474 H 544.544 -2.70864 -4.51598 0
M  V30 5475 H 547.035 -2.27876 -3.01464 0
M  V30 5476 H 547.348 -5.14357 -5.76764 0
M  V30 5477 H 545.693 -4.62056 -5.19162 0
M  V30 5478 H 548.884 -2.88943 -3.68279 0
M  V30 5479 H 549.057 -4.19563 -4.93833 0
M  V30 5480 N 542.463 1.3308 -0.844243 0
M  V30 5481 C 543.691 2.01808 -0.456203 0
M  V30 5482 C 544.106 1.63498 0.944131 0
M  V30 5483 O 543.463 0.85102 1.61443 0
M  V30 5484 C 543.514 3.56922 -0.573513 0
M  V30 5485 O 543.235 3.93851 -1.91868 0
M  V30 5486 C 544.736 4.42922 -0.183125 0
M  V30 5487 H 541.956 0.646273 -0.180477 0
M  V30 5488 H 544.5 1.69891 -1.1383 0
M  V30 5489 H 542.655 3.87352 0.0607367 0
M  V30 5490 H 543.069 4.88564 -1.90802 0
M  V30 5491 H 544.543 5.51093 -0.316241 0
M  V30 5492 H 545.02 4.30386 0.875477 0
M  V30 5493 H 545.626 4.1786 -0.792027 0
M  V30 5494 N 543.941 0.601185 1.45683 0
M  V30 5495 C 545.189 0.0936957 2.01883 0
M  V30 5496 C 545.51 -1.2779 1.47291 0
M  V30 5497 O 544.78 -1.84279 0.664691 0
M  V30 5498 H 543.36 0.0316466 0.746329 0
M  V30 5499 H 546.022 0.781137 1.78562 0
M  V30 5500 H 545.118 0.0386297 3.12076 0
M  V30 5501 N 545.419 -1.53889 0.339982 0
M  V30 5502 C 546.668 -2.00035 -0.258604 0
M  V30 5503 C 546.981 -1.23179 -1.51942 0
M  V30 5504 O 548.187 -1.59784 -2.19503 0
M  V30 5505 C 546.643 -3.56249 -0.511359 0
M  V30 5506 C 546.251 -4.41957 0.733349 0
M  V30 5507 C 547.995 -4.1082 -1.069 0
M  V30 5508 C 545.902 -5.89673 0.451591 0
M  V30 5509 H 544.832 -0.747284 -0.10041 0
M  V30 5510 H 547.483 -1.77776 0.454758 0
M  V30 5511 H 545.865 -3.7456 -1.28533 0
M  V30 5512 H 547.039 -4.35421 1.50815 0
M  V30 5513 H 545.354 -3.9836 1.21237 0
M  V30 5514 H 547.951 -5.18789 -1.2947 0
M  V30 5515 H 548.294 -3.63817 -2.02343 0
M  V30 5516 H 548.827 -3.96205 -0.355817 0
M  V30 5517 H 545.566 -6.40903 1.37565 0
M  V30 5518 H 545.086 -5.99122 -0.285193 0
M  V30 5519 H 546.765 -6.46965 0.0675067 0
M  V30 5520 N 546.897 -0.0685191 -1.57451 0
M  V30 5521 C 547.86 0.885173 -2.11417 0
M  V30 5522 C 548.86 1.22853 -1.03748 0
M  V30 5523 O 550.05 1.16235 -1.2975 0
M  V30 5524 C 547.182 2.18964 -2.61281 0
M  V30 5525 H 548.375 0.417034 -2.96986 0
M  V30 5526 H 545.928 0.18014 -1.55258 0
M  V30 5527 H 546.663 2.70321 -1.79156 0
M  V30 5528 H 546.448 1.9534 -3.39977 0
M  V30 5529 H 547.938 2.87242 -3.0312 0
M  V30 5530 N 548.375 1.56261 0.205012 0
M  V30 5531 C 549.622 1.8004 0.926927 0
M  V30 5532 C 549.95 0.640086 1.83666 0
M  V30 5533 O 549.205 -0.374702 1.92079 0
M  V30 5534 C 549.504 3.09722 1.78345 0
M  V30 5535 C 549.17 4.39082 1.02555 0
M  V30 5536 C 547.832 4.74226 0.816256 0
M  V30 5537 C 550.184 5.18877 0.491559 0
M  V30 5538 C 547.512 5.86668 0.0613287 0
M  V30 5539 C 549.864 6.32105 -0.250107 0
M  V30 5540 C 548.528 6.6584 -0.470508 0
M  V30 5541 H 547.798 0.658812 0.339187 0
M  V30 5542 H 550.445 1.90515 0.19395 0
M  V30 5543 H 548.75 2.9444 2.5848 0
M  V30 5544 H 550.447 3.25324 2.34446 0
M  V30 5545 H 547.037 4.11497 1.19868 0
M  V30 5546 H 551.221 4.92147 0.640684 0
M  V30 5547 H 546.477 6.11283 -0.119501 0
M  V30 5548 H 550.651 6.93157 -0.671307 0
M  V30 5549 H 548.278 7.5281 -1.05739 0
M  V30 5550 N 549.853 -0.472356 1.50355 0
M  V30 5551 C 551.13 -1.23356 1.51798 0
M  V30 5552 C 551.51 -2.09469 0.26193 0
M  V30 5553 O 550.858 -2.15677 -0.754691 0
M  V30 5554 C 551.068 -2.06568 2.81302 0
M  V30 5555 C 552.416 -2.648 3.31913 0
M  V30 5556 O 553.44 -2.16812 2.82614 0
M  V30 5557 O 552.299 -3.52231 4.17846 0
M  V30 5558 H 549.393 -0.559707 0.608816 0
M  V30 5559 H 551.939 -0.48428 1.62643 0
M  V30 5560 H 550.711 -1.43103 3.64194 0
M  V30 5561 H 550.334 -2.88633 2.73454 0
M  V30 5562 N 551.331 -1.39911 -0.725443 0
M  V30 5563 C 552.608 -1.28158 -1.47766 0
M  V30 5564 C 552.988 0.104545 -2.10841 0
M  V30 5565 O 552.336 1.11657 -1.99361 0
M  V30 5566 C 552.546 -2.41306 -2.52135 0
M  V30 5567 C 553.894 -2.81076 -3.18247 0
M  V30 5568 O 554.918 -2.40827 -2.62452 0
M  V30 5569 O 553.777 -3.50581 -4.19231 0
M  V30 5570 H 550.871 -0.502761 -0.656628 0
M  V30 5571 H 553.417 -1.51808 -0.758456 0
M  V30 5572 H 552.189 -3.33932 -2.03974 0
M  V30 5573 H 551.812 -2.19374 -3.31603 0
M  V30 5574 N 552.809 0.956637 -1.25245 0
M  V30 5575 C 554.034 1.74104 -1.12706 0
M  V30 5576 C 554.459 1.85436 0.315429 0
M  V30 5577 O 553.817 1.33334 1.22848 0
M  V30 5578 C 553.865 3.1338 -1.78396 0
M  V30 5579 O 552.969 3.98485 -1.06224 0
M  V30 5580 H 552.31 0.53476 -0.393609 0
M  V30 5581 H 554.84 1.19924 -1.65769 0
M  V30 5582 H 554.85 3.6385 -1.846 0
M  V30 5583 H 553.525 3.04448 -2.83345 0
M  V30 5584 H 552.102 3.56952 -1.07886 0
M  V30 5585 N 554.287 1.06798 1.15896 0
M  V30 5586 C 555.698 0.811355 1.68149 0
M  V30 5587 C 556.049 -0.664339 1.8461 0
M  V30 5588 O 555.174 -1.51485 1.54535 0
M  V30 5589 C 555.769 1.46624 3.05429 0
M  V30 5590 C 554.328 1.25726 3.54781 0
M  V30 5591 C 553.475 1.53949 2.3064 0
M  V30 5592 H 556.426 1.23078 1.00187 0
M  V30 5593 H 556.447 0.88437 3.7008 0
M  V30 5594 H 555.959 2.54025 2.93416 0
M  V30 5595 H 554.06 0.20322 3.72045 0
M  V30 5596 H 554.173 1.97354 4.36564 0
M  V30 5597 H 552.537 0.96025 2.35905 0
M  V30 5598 H 553.32 2.6252 2.2122 0
M  V30 5599 N 555.766 -1.3263 0.851289 0
M  V30 5600 C 557.012 -1.9766 0.453694 0
M  V30 5601 C 557.345 -1.67225 -0.987396 0
M  V30 5602 O 556.62 -0.958693 -1.69232 0
M  V30 5603 C 556.903 -3.5344 0.68936 0
M  V30 5604 C 556.756 -3.93517 2.17862 0
M  V30 5605 C 558.075 -4.39866 0.143555 0
M  V30 5606 H 555.194 -0.717989 0.166314 0
M  V30 5607 H 557.836 -1.57068 1.06909 0
M  V30 5608 H 555.986 -3.88147 0.165546 0
M  V30 5609 H 557.658 -3.69006 2.76826 0
M  V30 5610 H 555.901 -3.42798 2.65841 0
M  V30 5611 H 556.572 -5.02065 2.29422 0
M  V30 5612 H 559.048 -4.11875 0.591451 0
M  V30 5613 H 557.924 -5.47858 0.338043 0
M  V30 5614 H 558.185 -4.31696 -0.953466 0
M  V30 5615 N 557.244 -0.608902 -1.45362 0
M  V30 5616 C 558.655 -0.189511 -1.85736 0
M  V30 5617 C 559.006 1.2539 -1.50903 0
M  V30 5618 O 558.131 1.95094 -0.936347 0
M  V30 5619 C 558.726 -0.33716 -3.37118 0
M  V30 5620 C 557.285 0.0275487 -3.7639 0
M  V30 5621 C 556.432 -0.660983 -2.69307 0
M  V30 5622 H 559.383 -0.815499 -1.36144 0
M  V30 5623 H 559.404 0.430257 -3.7806 0
M  V30 5624 H 558.916 -1.38779 -3.62439 0
M  V30 5625 H 557.017 1.0773 -3.56686 0
M  V30 5626 H 557.13 -0.367018 -4.77692 0
M  V30 5627 H 555.494 -0.0984958 -2.54509 0
M  V30 5628 H 556.277 -1.71377 -2.97464 0
M  V30 5629 N 558.722 1.53707 -0.348139 0
M  V30 5630 C 559.685 2.23812 0.494058 0
M  V30 5631 C 560.685 1.23989 1.02388 0
M  V30 5632 O 561.875 1.48395 0.912396 0
M  V30 5633 C 559.007 2.96133 1.68872 0
M  V30 5634 H 560.2 2.99663 -0.119141 0
M  V30 5635 H 557.753 1.55983 -0.0995539 0
M  V30 5636 H 558.488 2.24481 2.34049 0
M  V30 5637 H 558.273 3.69357 1.31596 0
M  V30 5638 H 559.763 3.49475 2.28597 0
M  V30 5639 N 560.2 0.0768682 1.57412 0
M  V30 5640 C 561.132 -0.918248 2.10002 0
M  V30 5641 C 562.145 -1.25808 1.03325 0
M  V30 5642 O 563.334 -1.21438 1.30824 0
M  V30 5643 C 560.434 -2.23263 2.54964 0
M  V30 5644 C 559.607 -2.07088 3.8527 0
M  V30 5645 C 558.666 -3.21876 4.16272 0
M  V30 5646 O 557.692 -2.96643 4.8579 0
M  V30 5647 N 558.894 -4.4712 3.70221 0
M  V30 5648 H 561.659 -0.469209 2.96004 0
M  V30 5649 H 559.22 -0.108725 1.61535 0
M  V30 5650 H 561.212 -2.9897 2.72762 0
M  V30 5651 H 559.782 -2.59649 1.74072 0
M  V30 5652 H 559.002 -1.15818 3.76802 0
M  V30 5653 H 560.29 -1.93537 4.70554 0
M  V30 5654 H 559.688 -4.70506 3.1407 0
M  V30 5655 H 558.245 -5.19837 3.93209 0
M  V30 5656 N 561.678 -1.56367 -0.196722 0
M  V30 5657 C 562.626 -1.95304 -1.2633 0
M  V30 5658 C 563.62 -0.838252 -1.47206 0
M  V30 5659 O 564.826 -1.02325 -1.48087 0
M  V30 5660 H 561.201 -0.621013 -0.424083 0
M  V30 5661 H 563.172 -2.84254 -0.907879 0
M  V30 5662 C 561.921 -2.3074 -2.60104 0
M  V30 5663 H 561.244 -3.16047 -2.44856 0
M  V30 5664 H 562.684 -2.61849 -3.33484 0
M  V30 5665 C 561.143 -1.14143 -3.16975 0
M  V30 5666 O 561.673 -0.415602 -3.99544 0
M  V30 5667 N 559.879 -0.91867 -2.75697 0
M  V30 5668 H 559.426 -1.51065 -2.08656 0
M  V30 5669 H 559.384 -0.140321 -3.14087 0
M  V30 5670 N 563.156 0.464375 -1.50603 0
M  V30 5671 C 564.572 0.798684 -1.38178 0
M  V30 5672 C 564.772 1.96568 -0.44308 0
M  V30 5673 O 563.828 2.52252 0.111814 0
M  V30 5674 C 565.141 1.10444 -2.79683 0
M  V30 5675 C 566.689 1.2105 -2.88645 0
M  V30 5676 C 567.164 1.54934 -4.30998 0
M  V30 5677 N 568.655 1.61913 -4.3398 0
M  V30 5678 C 569.39 1.8965 -5.41129 0
M  V30 5679 N 568.886 2.15361 -6.58477 0
M  V30 5680 N 570.679 1.91207 -5.28579 0
M  V30 5681 H 562.83 -0.304603 -2.10204 0
M  V30 5682 H 565.093 -0.0737804 -0.945125 0
M  V30 5683 H 564.799 0.319934 -3.50242 0
M  V30 5684 H 564.673 2.03896 -3.17342 0
M  V30 5685 H 567.06 1.98567 -2.18301 0
M  V30 5686 H 567.141 0.255613 -2.5452 0
M  V30 5687 H 566.785 0.779549 -5.01882 0
M  V30 5688 H 566.715 2.51584 -4.62615 0
M  V30 5689 H 569.206 1.44055 -3.49366 0
M  V30 5690 H 569.519 2.35818 -7.35941 0
M  V30 5691 H 567.864 2.1274 -6.6164 0
M  V30 5692 H 571.055 1.70622 -4.35897 0
M  V30 5693 H 571.228 2.12488 -6.12171 0
M  V30 5694 N 564.634 1.40294 0.718013 0
M  V30 5695 C 565.859 1.41941 1.5122 0
M  V30 5696 C 566.284 0.0202371 1.88089 0
M  V30 5697 O 565.642 -0.971078 1.53101 0
M  V30 5698 C 565.69 2.3141 2.76554 0
M  V30 5699 O 564.794 1.75567 3.73162 0
M  V30 5700 H 564.135 0.482644 0.456016 0
M  V30 5701 H 566.665 1.84494 0.884478 0
M  V30 5702 H 566.675 2.46513 3.25108 0
M  V30 5703 H 565.35 3.33085 2.49053 0
M  V30 5704 H 563.927 1.69798 3.31999 0
M  V30 5705 N 566.112 -0.949982 1.2575 0
M  V30 5706 C 567.361 -1.68956 1.10168 0
M  V30 5707 C 567.674 -1.92327 -0.356309 0
M  V30 5708 O 568.88 -2.64026 -0.632657 0
M  V30 5709 C 567.336 -3.04196 1.92336 0
M  V30 5710 C 566.944 -2.88603 3.42655 0
M  V30 5711 C 568.688 -3.81904 1.85336 0
M  V30 5712 C 566.595 -4.19262 4.17101 0
M  V30 5713 H 565.525 -0.633645 0.408668 0
M  V30 5714 H 568.176 -1.05719 1.49986 0
M  V30 5715 H 566.558 -3.68363 1.45344 0
M  V30 5716 H 567.732 -2.3334 3.97353 0
M  V30 5717 H 566.047 -2.24345 3.50796 0
M  V30 5718 H 568.644 -4.78688 2.38248 0
M  V30 5719 H 568.987 -4.08099 0.822226 0
M  V30 5720 H 569.52 -3.24495 2.30104 0
M  V30 5721 H 566.259 -3.98254 5.20648 0
M  V30 5722 H 565.779 -4.74273 3.67186 0
M  V30 5723 H 567.458 -4.87775 4.25071 0
M  V30 5724 N 567.59 -1.07411 -1.15328 0
M  V30 5725 C 568.815 -0.818856 -1.90551 0
M  V30 5726 C 569.24 0.622194 -1.77512 0
M  V30 5727 O 568.598 1.43484 -1.10824 0
M  V30 5728 C 568.646 -1.23267 -3.38877 0
M  V30 5729 O 567.75 -0.378345 -4.10661 0
M  V30 5730 H 567.091 -0.29827 -0.593238 0
M  V30 5731 H 569.621 -1.43289 -1.46046 0
M  V30 5732 H 569.631 -1.20912 -3.89672 0
M  V30 5733 H 568.306 -2.28226 -3.47686 0
M  V30 5734 H 566.883 -0.464437 -3.69996 0
M  V30 5735 N 569.068 1.32177 -0.85831 0
M  V30 5736 C 570.317 1.96392 -0.459689 0
M  V30 5737 C 570.63 1.68659 0.990632 0
M  V30 5738 O 571.836 2.26641 1.49485 0
M  V30 5739 C 570.292 3.51542 -0.7711 0
M  V30 5740 C 569.9 3.8813 -2.2374 0
M  V30 5741 C 571.644 4.2221 -0.44038 0
M  V30 5742 C 569.551 5.36341 -2.49183 0
M  V30 5743 H 568.481 0.735007 -0.168169 0
M  V30 5744 H 571.132 1.50518 -1.0496 0
M  V30 5745 H 569.514 3.95846 -0.11058 0
M  V30 5746 H 570.688 3.54824 -2.94001 0
M  V30 5747 H 569.003 3.30497 -2.533 0
M  V30 5748 H 571.6 5.31234 -0.607855 0
M  V30 5749 H 571.943 4.11683 0.618291 0
M  V30 5750 H 572.476 3.83502 -1.05695 0
M  V30 5751 H 569.215 5.51892 -3.53689 0
M  V30 5752 H 568.735 5.7104 -1.83504 0
M  V30 5753 H 570.414 6.03466 -2.33318 0
M  V30 5754 N 570.547 0.616602 1.45037 0
M  V30 5755 C 571.958 0.199359 1.85633 0
M  V30 5756 C 572.309 -1.24588 1.51566 0
M  V30 5757 O 571.434 -1.94594 0.94668 0
M  V30 5758 C 572.029 0.355033 3.36935 0
M  V30 5759 C 570.588 -0.00758748 3.76399 0
M  V30 5760 C 569.735 0.675256 2.68953 0
M  V30 5761 H 572.686 0.822708 1.3571 0
M  V30 5762 H 572.707 -0.410201 3.78282 0
M  V30 5763 H 572.219 1.40699 3.61698 0
M  V30 5764 H 570.32 -1.05837 3.57252 0
M  V30 5765 H 570.433 0.392346 4.77491 0
M  V30 5766 H 568.797 0.111992 2.54454 0
M  V30 5767 H 569.58 1.72952 2.96551 0
M  V30 5768 N 572.025 -1.5352 0.356285 0
M  V30 5769 C 573.302 -1.93405 -0.292223 0
M  V30 5770 C 573.682 -1.28901 -1.67176 0
M  V30 5771 O 573.03 -0.444632 -2.24132 0
M  V30 5772 C 573.24 -3.47223 -0.35175 0
M  V30 5773 C 574.588 -4.20389 -0.596534 0
M  V30 5774 O 575.612 -3.53554 -0.433344 0
M  V30 5775 O 574.471 -5.3881 -0.913589 0
M  V30 5776 H 571.565 -0.808666 -0.173172 0
M  V30 5777 H 574.111 -1.64713 0.408391 0
M  V30 5778 H 572.883 -3.86423 0.615841 0
M  V30 5779 H 572.506 -3.8212 -1.09864 0
M  V30 5780 N 573.503 -0.0852151 -1.57369 0
M  V30 5781 C 574.435 0.907099 -2.10486 0
M  V30 5782 C 575.448 1.25259 -1.03991 0
M  V30 5783 O 576.637 1.20743 -1.31467 0
M  V30 5784 C 573.737 2.21908 -2.56145 0
M  V30 5785 C 572.91 2.05042 -3.86363 0
M  V30 5786 C 571.969 3.19664 -4.17973 0
M  V30 5787 O 570.995 2.94062 -4.87356 0
M  V30 5788 N 572.197 4.45151 -3.72587 0
M  V30 5789 H 574.962 0.453505 -2.96249 0
M  V30 5790 H 572.523 0.100157 -1.6159 0
M  V30 5791 H 574.515 2.97519 -2.74343 0
M  V30 5792 H 573.085 2.58723 -1.75446 0
M  V30 5793 H 572.305 1.13819 -3.77411 0
M  V30 5794 H 573.593 1.91039 -4.71574 0
M  V30 5795 H 572.991 4.68834 -3.16561 0
M  V30 5796 H 571.548 5.17744 -3.9596 0
M  V30 5797 N 574.981 1.5647 0.188427 0
M  V30 5798 C 576.258 1.71857 0.934058 0
M  V30 5799 C 576.638 0.641867 2.01105 0
M  V30 5800 O 575.986 -0.346098 2.25864 0
M  V30 5801 C 576.196 3.14431 1.5144 0
M  V30 5802 C 577.544 3.74869 1.99396 0
M  V30 5803 O 578.568 3.17601 1.61269 0
M  V30 5804 O 577.427 4.75387 2.69573 0
M  V30 5805 H 574.521 0.701186 0.438483 0
M  V30 5806 H 577.067 1.68768 0.177599 0
M  V30 5807 H 575.839 3.8427 0.738416 0
M  V30 5808 H 575.462 3.21775 2.33552 0
M  V30 5809 N 576.459 -0.456382 1.50847 0
M  V30 5810 C 577.875 -0.791345 1.386 0
M  V30 5811 C 578.075 -1.9633 0.453498 0
M  V30 5812 O 577.131 -2.52308 -0.0984353 0
M  V30 5813 C 578.444 -1.08959 2.80265 0
M  V30 5814 C 579.992 -1.19517 2.89283 0
M  V30 5815 C 580.467 -1.52647 4.31814 0
M  V30 5816 N 581.958 -1.59609 4.34832 0
M  V30 5817 C 582.693 -1.86777 5.42127 0
M  V30 5818 N 582.189 -2.11866 6.59609 0
M  V30 5819 N 583.982 -1.88402 5.29586 0
M  V30 5820 H 576.133 0.315746 2.1004 0
M  V30 5821 H 578.396 0.0787916 0.94472 0
M  V30 5822 H 578.102 -0.301355 3.50407 0
M  V30 5823 H 577.976 -2.02211 3.18419 0
M  V30 5824 H 580.363 -1.97406 2.19351 0
M  V30 5825 H 580.444 -0.242111 2.54652 0
M  V30 5826 H 580.088 -0.752922 5.02288 0
M  V30 5827 H 580.018 -2.49127 4.63943 0
M  V30 5828 H 582.509 -1.42201 3.50125 0
M  V30 5829 H 582.822 -2.31912 7.37182 0
M  V30 5830 H 581.167 -2.09228 6.62758 0
M  V30 5831 H 584.358 -1.68307 4.36795 0
M  V30 5832 H 584.531 -2.09238 6.13289 0
M  V30 5833 N 577.937 -1.40673 -0.710563 0
M  V30 5834 C 579.184 -1.39222 -1.47049 0
M  V30 5835 C 579.512 0.0037691 -1.945 0
M  V30 5836 O 578.767 0.989224 -1.68857 0
M  V30 5837 C 579.066 -2.33253 -2.70791 0
M  V30 5838 C 578.732 -3.80406 -2.42079 0
M  V30 5839 C 577.394 -4.20496 -2.33959 0
M  V30 5840 C 579.746 -4.73375 -2.18094 0
M  V30 5841 C 577.074 -5.51584 -1.99929 0
M  V30 5842 C 579.426 -6.04768 -1.85576 0
M  V30 5843 C 578.09 -6.43895 -1.75941 0
M  V30 5844 H 577.36 -0.509449 -0.538092 0
M  V30 5845 H 580.007 -1.73363 -0.81348 0
M  V30 5846 H 578.312 -1.92314 -3.41354 0
M  V30 5847 H 580.009 -2.29412 -3.28894 0
M  V30 5848 H 576.599 -3.48645 -2.49288 0
M  V30 5849 H 580.783 -4.43217 -2.23321 0
M  V30 5850 H 576.039 -5.80797 -1.91011 0
M  V30 5851 H 580.213 -6.76318 -1.66033 0
M  V30 5852 H 577.84 -7.45387 -1.4934 0
M  V30 5853 N 579.415 0.9433 -1.26252 0
M  V30 5854 C 580.661 1.69226 -1.12846 0
M  V30 5855 C 581.016 1.8963 0.325282 0
M  V30 5856 O 580.309 1.46435 1.23561 0
M  V30 5857 C 580.503 3.07073 -1.82868 0
M  V30 5858 C 580.332 3.00118 -3.34902 0
M  V30 5859 C 579.102 3.03251 -4.04186 0
M  V30 5860 C 581.3 2.80418 -4.31127 0
M  V30 5861 N 579.282 2.86573 -5.42908 0
M  V30 5862 C 580.653 2.72287 -5.5701 0
M  V30 5863 C 582.708 2.65185 -4.21404 0
M  V30 5864 C 581.411 2.50479 -6.74279 0
M  V30 5865 C 583.437 2.4475 -5.38378 0
M  V30 5866 C 582.799 2.37349 -6.63208 0
M  V30 5867 H 578.898 0.626716 -0.467708 0
M  V30 5868 H 581.482 1.11645 -1.5951 0
M  V30 5869 H 579.653 3.62797 -1.38682 0
M  V30 5870 H 581.385 3.70816 -1.62103 0
M  V30 5871 H 578.14 3.12882 -3.55531 0
M  V30 5872 H 578.564 2.81408 -6.15742 0
M  V30 5873 H 583.206 2.69675 -3.25631 0
M  V30 5874 H 580.924 2.4473 -7.70151 0
M  V30 5875 H 584.51 2.33872 -5.32724 0
M  V30 5876 H 583.39 2.21746 -7.52196 0
M  V30 5877 N 580.893 1.08022 1.14757 0
M  V30 5878 C 581.823 0.728248 2.21853 0
M  V30 5879 C 582.804 -0.287486 1.67653 0
M  V30 5880 O 583.989 -0.158727 1.9355 0
M  V30 5881 C 581.119 0.132549 3.47047 0
M  V30 5882 C 580.073 1.07619 4.14249 0
M  V30 5883 C 579.399 0.342907 5.33599 0
M  V30 5884 C 580.699 2.41268 4.63235 0
M  V30 5885 H 582.393 1.62365 2.51551 0
M  V30 5886 H 579.939 0.782125 1.20908 0
M  V30 5887 H 581.892 -0.125665 4.21213 0
M  V30 5888 H 580.616 -0.797971 3.16702 0
M  V30 5889 H 579.275 1.31944 3.42033 0
M  V30 5890 H 578.923 -0.59129 4.99513 0
M  V30 5891 H 578.623 0.971955 5.79506 0
M  V30 5892 H 580.147 0.0926538 6.1053 0
M  V30 5893 H 581.561 2.21232 5.28894 0
M  V30 5894 H 579.958 2.9983 5.19829 0
M  V30 5895 H 581.028 3.03079 3.78512 0
M  V30 5896 N 582.371 -1.3172 0.865308 0
M  V30 5897 C 583.596 -2.01591 0.487415 0
M  V30 5898 C 584.021 -1.6455 -0.911307 0
M  V30 5899 O 583.379 -0.851689 -1.6005 0
M  V30 5900 C 583.427 -3.54759 0.646401 0
M  V30 5901 O 582.531 -4.11185 -0.316284 0
M  V30 5902 H 581.872 -0.634884 0.194468 0
M  V30 5903 H 584.402 -1.68024 1.16744 0
M  V30 5904 H 584.412 -4.04438 0.537932 0
M  V30 5905 H 583.087 -3.8106 1.66632 0
M  V30 5906 H 581.664 -3.72543 -0.163162 0
M  V30 5907 N 583.85 -0.624285 -1.44708 0
M  V30 5908 C 584.812 0.0749638 -2.29077 0
M  V30 5909 C 585.812 0.778965 -1.40673 0
M  V30 5910 O 587.003 0.624591 -1.62618 0
M  V30 5911 C 584.135 1.11663 -3.22094 0
M  V30 5912 H 585.327 -0.667013 -2.92388 0
M  V30 5913 H 582.88 -0.384098 -1.51507 0
M  V30 5914 H 583.615 1.88881 -2.63618 0
M  V30 5915 H 583.401 0.61583 -3.87234 0
M  V30 5916 H 584.891 1.60585 -3.8549 0
M  V30 5917 N 585.328 1.53329 -0.364422 0
M  V30 5918 C 586.576 2.00842 0.225189 0
M  V30 5919 C 586.897 1.25345 1.49378 0
M  V30 5920 O 586.167 0.366396 1.92443 0
M  V30 5921 H 584.747 0.742009 0.0862027 0
M  V30 5922 H 587.409 1.8863 -0.490389 0
M  V30 5923 H 586.505 3.08795 0.452987 0
M  V30 5924 N 586.806 0.0935595 1.57322 0
M  V30 5925 C 588.034 -0.578934 1.98635 0
M  V30 5926 C 588.449 -1.61819 0.972626 0
M  V30 5927 O 587.806 -1.82461 -0.0379638 0
M  V30 5928 C 587.857 -1.22802 3.40003 0
M  V30 5929 O 587.578 -0.230334 4.37494 0
M  V30 5930 C 589.079 -1.98627 3.96311 0
M  V30 5931 H 586.299 -0.155324 0.652775 0
M  V30 5932 H 588.843 0.172393 2.03772 0
M  V30 5933 H 586.998 -1.93029 3.35885 0
M  V30 5934 H 587.412 -0.698649 5.19826 0
M  V30 5935 H 588.886 -2.39405 4.97382 0
M  V30 5936 H 589.363 -2.85151 3.34044 0
M  V30 5937 H 589.969 -1.3322 4.03897 0
M  V30 5938 N 588.284 -1.56567 -0.180126 0
M  V30 5939 C 589.512 -1.85618 -0.913972 0
M  V30 5940 C 589.927 -0.677892 -1.7621 0
M  V30 5941 O 589.284 0.353171 -1.7905 0
M  V30 5942 C 589.335 -3.13619 -1.79793 0
M  V30 5943 O 589.056 -4.26906 -0.98402 0
M  V30 5944 C 590.557 -3.55954 -2.64219 0
M  V30 5945 H 587.777 -0.616043 -0.265954 0
M  V30 5946 H 590.321 -2.03681 -0.182872 0
M  V30 5947 H 588.476 -2.97409 -2.48247 0
M  V30 5948 H 588.89 -4.9989 -1.58776 0
M  V30 5949 H 590.364 -4.48444 -3.21873 0
M  V30 5950 H 590.841 -2.79653 -3.38661 0
M  V30 5951 H 591.447 -3.74746 -2.01111 0
M  V30 5952 N 589.762 0.448376 -1.51087 0
M  V30 5953 C 590.992 1.21965 -1.66757 0
M  V30 5954 C 591.4 1.85748 -0.359753 0
M  V30 5955 O 590.743 1.71022 0.670604 0
M  V30 5956 C 590.805 2.35284 -2.71812 0
M  V30 5957 C 590.469 1.91957 -4.1473 0
M  V30 5958 C 591.466 1.42921 -4.9987 0
M  V30 5959 C 589.151 1.99985 -4.60772 0
M  V30 5960 C 591.145 1.02485 -6.29107 0
M  V30 5961 C 588.832 1.5916 -5.90009 0
M  V30 5962 C 589.83 1.10491 -6.74004 0
M  V30 5963 O 589.518 0.702413 -8.00825 0
M  V30 5964 H 589.25 0.374125 -0.563034 0
M  V30 5965 H 591.804 0.538927 -1.98204 0
M  V30 5966 H 590.034 3.06599 -2.35657 0
M  V30 5967 H 591.723 2.97184 -2.76472 0
M  V30 5968 H 592.489 1.36123 -4.65506 0
M  V30 5969 H 588.368 2.36814 -3.95525 0
M  V30 5970 H 591.912 0.644271 -6.94619 0
M  V30 5971 H 587.809 1.65626 -6.2389 0
M  V30 5972 H 588.577 0.829248 -8.14288 0
M  V30 5973 N 591.24 1.41047 0.703093 0
M  V30 5974 C 592.203 1.42036 1.79884 0
M  V30 5975 C 593.203 0.312153 1.57741 0
M  V30 5976 O 594.393 0.571672 1.64553 0
M  V30 5977 C 591.525 1.22437 3.18154 0
M  V30 5978 H 592.718 2.39572 1.80403 0
M  V30 5979 H 590.271 1.27079 0.909977 0
M  V30 5980 H 591.006 0.257112 3.23279 0
M  V30 5981 H 590.791 2.02723 3.35627 0
M  V30 5982 H 592.281 1.25946 3.98155 0
M  V30 5983 N 592.718 -0.936591 1.26751 0
M  V30 5984 C 593.965 -1.68331 1.12566 0
M  V30 5985 C 594.293 -1.91677 -0.330168 0
M  V30 5986 O 593.548 -1.49859 -1.2586 0
M  V30 5987 C 593.847 -3.06099 1.84494 0
M  V30 5988 C 593.513 -3.02493 3.34378 0
M  V30 5989 C 592.175 -3.01217 3.75262 0
M  V30 5990 C 594.527 -2.94453 4.30055 0
M  V30 5991 C 591.855 -2.89672 5.10203 0
M  V30 5992 C 594.207 -2.84449 5.65041 0
M  V30 5993 C 592.871 -2.81518 6.0523 0
M  V30 5994 H 592.141 -0.615965 0.411907 0
M  V30 5995 H 594.788 -1.09292 1.5725 0
M  V30 5996 H 593.093 -3.6879 1.32292 0
M  V30 5997 H 594.79 -3.62733 1.70955 0
M  V30 5998 H 591.38 -3.04269 3.01858 0
M  V30 5999 H 595.564 -2.94544 3.99447 0
M  V30 6000 H 590.82 -2.85783 5.40498 0
M  V30 6001 H 594.994 -2.77192 6.38856 0
M  V30 6002 H 592.621 -2.72329 7.09747 0
M  V30 6003 N 594.196 -1.08629 -1.14182 0
M  V30 6004 C 595.144 -0.71284 -2.21408 0
M  V30 6005 C 596.138 0.282457 -1.67029 0
M  V30 6006 O 597.344 0.144783 -1.79417 0
M  V30 6007 H 593.719 -0.212497 -0.721352 0
M  V30 6008 H 595.69 -1.6265 -2.50175 0
M  V30 6009 C 594.439 -0.140704 -3.47415 0
M  V30 6010 H 593.762 -0.897739 -3.8959 0
M  V30 6011 H 595.202 0.0827677 -4.23919 0
M  V30 6012 C 593.661 1.122 -3.17668 0
M  V30 6013 O 594.191 2.20652 -3.35672 0
M  V30 6014 N 592.397 1.03328 -2.71609 0
M  V30 6015 H 591.944 0.150666 -2.57159 0
M  V30 6016 H 591.902 1.8789 -2.52081 0
M  V30 6017 N 595.674 1.31259 -0.872281 0
M  V30 6018 C 596.621 2.28459 -0.327857 0
M  V30 6019 C 597.591 1.55831 0.574957 0
M  V30 6020 O 598.776 1.83965 0.506101 0
M  V30 6021 C 595.916 3.41985 0.462644 0
M  V30 6022 C 595.029 4.29458 -0.467949 0
M  V30 6023 C 594.164 5.30131 0.336903 0
M  V30 6024 C 593.203 6.0925 -0.58997 0
M  V30 6025 N 592.34 7.01872 0.178775 0
M  V30 6026 H 597.18 2.74414 -1.16193 0
M  V30 6027 H 594.717 1.34994 -0.584376 0
M  V30 6028 H 596.675 4.06547 0.936759 0
M  V30 6029 H 595.305 2.97134 1.2614 0
M  V30 6030 H 594.357 3.65318 -1.06052 0
M  V30 6031 H 595.669 4.84677 -1.17856 0
M  V30 6032 H 594.823 6.0038 0.873427 0
M  V30 6033 H 593.562 4.75573 1.08079 0
M  V30 6034 H 592.567 5.37889 -1.13823 0
M  V30 6035 H 593.792 6.65894 -1.33275 0
M  V30 6036 H 591.738 6.49721 0.905435 0
M  V30 6037 H 591.655 7.54522 -0.472452 0
M  V30 6038 H 592.923 7.76382 0.696454 0
M  V30 6039 N 597.152 0.631951 1.44375 0
M  V30 6040 C 598.429 0.067646 1.95483 0
M  V30 6041 C 598.809 -1.40683 1.57389 0
M  V30 6042 O 598.157 -2.12167 0.848375 0
M  V30 6043 C 598.367 0.291392 3.47781 0
M  V30 6044 C 599.715 0.185028 4.24197 0
M  V30 6045 O 600.739 0.222803 3.55503 0
M  V30 6046 O 599.598 0.0906642 5.46425 0
M  V30 6047 H 596.692 -0.0218379 0.826712 0
M  V30 6048 H 599.238 0.703711 1.54421 0
M  V30 6049 H 598.01 1.31449 3.68561 0
M  V30 6050 H 597.633 -0.378772 3.95792 0
M  V30 6051 N 598.631 -1.53133 0.372548 0
M  V30 6052 C 599.594 -2.24569 -0.458389 0
M  V30 6053 C 600.594 -1.25603 -1.00402 0
M  V30 6054 O 601.784 -1.49827 -0.888672 0
M  V30 6055 C 598.916 -2.98783 -1.6414 0
M  V30 6056 H 600.109 -2.99436 0.166799 0
M  V30 6057 H 597.662 -1.55805 0.124357 0
M  V30 6058 H 598.397 -2.28176 -2.30448 0
M  V30 6059 H 598.182 -3.71404 -1.25704 0
M  V30 6060 H 599.672 -3.53068 -2.23008 0
M  V30 6061 N 600.109 -0.101901 -1.5727 0
M  V30 6062 C 601.334 0.571759 -1.99363 0
M  V30 6063 C 601.759 1.60507 -0.980768 0
M  V30 6064 O 601.117 1.81231 0.0498517 0
M  V30 6065 C 601.165 1.18996 -3.404 0
M  V30 6066 O 600.269 2.30572 -3.41922 0
M  V30 6067 H 599.61 0.144449 -0.648098 0
M  V30 6068 H 602.14 -0.185325 -2.03759 0
M  V30 6069 H 602.15 1.52962 -3.78241 0
M  V30 6070 H 600.825 0.432984 -4.1364 0
M  V30 6071 H 599.402 1.98173 -3.15883 0
M  V30 6072 N 601.587 1.56661 0.17182 0
M  V30 6073 C 602.833 1.82235 0.889845 0
M  V30 6074 C 603.166 0.679673 1.81918 0
M  V30 6075 O 602.441 -0.318404 1.91876 0
M  V30 6076 C 602.724 3.18195 1.68595 0
M  V30 6077 C 602.577 4.42989 0.779773 0
M  V30 6078 C 603.896 3.5109 2.65375 0
M  V30 6079 H 601.015 0.66291 0.322056 0
M  V30 6080 H 603.657 1.89358 0.15608 0
M  V30 6081 H 601.807 3.12253 2.3115 0
M  V30 6082 H 603.479 4.60997 0.16714 0
M  V30 6083 H 601.722 4.33711 0.0877964 0
M  V30 6084 H 602.393 5.3467 1.3723 0
M  V30 6085 H 604.869 3.57482 2.12946 0
M  V30 6086 H 603.745 4.47298 3.18144 0
M  V30 6087 H 604.006 2.75768 3.45549 0
M  V30 6088 N 603.065 -0.440357 1.51323 0
M  V30 6089 C 604.342 -1.20109 1.5438 0
M  V30 6090 C 604.722 -2.08866 0.306303 0
M  V30 6091 O 604.07 -2.1723 -0.708773 0
M  V30 6092 C 604.28 -2.00555 2.8562 0
M  V30 6093 C 605.628 -2.577 3.37455 0
M  V30 6094 O 606.652 -2.10769 2.8715 0
M  V30 6095 O 605.511 -3.43289 4.25224 0
M  V30 6096 H 602.605 -0.546668 0.620551 0
M  V30 6097 H 605.151 -0.449672 1.63634 0
M  V30 6098 H 603.923 -1.35346 3.67147 0
M  V30 6099 H 603.546 -2.82768 2.79514 0
M  V30 6100 N 604.543 -1.41418 -0.695603 0
M  V30 6101 C 605.789 -1.40982 -1.4578 0
M  V30 6102 C 606.122 -0.0187763 -1.94191 0
M  V30 6103 O 605.397 0.95346 -1.69527 0
M  V30 6104 C 605.68 -2.41657 -2.66972 0
M  V30 6105 C 605.533 -3.89869 -2.24327 0
M  V30 6106 C 606.852 -2.39589 -3.69168 0
M  V30 6107 H 603.971 -0.513405 -0.528757 0
M  V30 6108 H 606.613 -1.72693 -0.792275 0
M  V30 6109 H 604.763 -2.14746 -3.23754 0
M  V30 6110 H 606.435 -4.27683 -1.72872 0
M  V30 6111 H 604.678 -4.04737 -1.56111 0
M  V30 6112 H 605.349 -4.55857 -3.11285 0
M  V30 6113 H 607.825 -2.63471 -3.2206 0
M  V30 6114 H 606.701 -3.12044 -4.51575 0
M  V30 6115 H 606.962 -1.41447 -4.18862 0
M  V30 6116 N 606.021 0.929856 -1.27246 0
M  V30 6117 C 607.269 1.674 -1.13233 0
M  V30 6118 C 607.59 1.92311 0.322744 0
M  V30 6119 O 606.86 1.52784 1.22612 0
M  V30 6120 H 605.44 0.620411 -0.416052 0
M  V30 6121 H 608.102 1.11663 -1.59741 0
M  V30 6122 H 607.198 2.64308 -1.65975 0
M  V30 6123 N 607.499 1.09233 1.13605 0
M  V30 6124 C 608.745 0.828385 1.8511 0
M  V30 6125 C 609.078 -0.64437 1.83198 0
M  V30 6126 O 608.353 -1.47428 1.26867 0
M  V30 6127 C 608.636 1.36167 3.33363 0
M  V30 6128 C 608.489 2.90038 3.438 0
M  V30 6129 C 609.808 0.993819 4.28732 0
M  V30 6130 H 606.927 0.30239 0.672108 0
M  V30 6131 H 609.569 1.35339 1.33355 0
M  V30 6132 H 607.719 0.9151 3.77569 0
M  V30 6133 H 609.391 3.43128 3.08319 0
M  V30 6134 H 607.634 3.27271 2.84739 0
M  V30 6135 H 608.305 3.22428 4.48045 0
M  V30 6136 H 610.781 1.37893 3.92587 0
M  V30 6137 H 609.657 1.39403 5.30903 0
M  V30 6138 H 609.918 -0.0982206 4.41991 0
M  V30 6139 N 608.977 -1.30795 0.87923 0
M  V30 6140 C 610.202 -2.01063 0.508769 0
M  V30 6141 C 610.627 -1.65508 -0.893803 0
M  V30 6142 O 609.985 -0.868616 -1.59138 0
M  V30 6143 C 610.033 -3.54054 0.683991 0
M  V30 6144 O 609.137 -4.11498 -0.272654 0
M  V30 6145 H 608.478 -0.632786 0.201191 0
M  V30 6146 H 611.008 -1.66776 1.18519 0
M  V30 6147 H 611.018 -4.03845 0.580798 0
M  V30 6148 H 609.693 -3.79271 1.70665 0
M  V30 6149 H 608.27 -3.72695 -0.12364 0
M  V30 6150 N 610.455 -0.639598 -1.44038 0
M  V30 6151 C 611.685 -0.154586 -2.06021 0
M  V30 6152 C 612.093 1.17951 -1.47933 0
M  V30 6153 O 611.436 1.73627 -0.59994 0
M  V30 6154 C 611.498 0.0255459 -3.59491 0
M  V30 6155 C 611.162 -1.2317 -4.40089 0
M  V30 6156 C 612.159 -2.15735 -4.73027 0
M  V30 6157 C 609.844 -1.46949 -4.80324 0
M  V30 6158 C 611.838 -3.30382 -5.45093 0
M  V30 6159 C 609.525 -2.61891 -5.52138 0
M  V30 6160 C 610.523 -3.53433 -5.84443 0
M  V30 6161 O 610.211 -4.6637 -6.54793 0
M  V30 6162 H 609.943 -0.0808543 -0.671147 0
M  V30 6163 H 612.497 -0.876541 -1.85758 0
M  V30 6164 H 610.727 0.802733 -3.78276 0
M  V30 6165 H 612.416 0.466184 -4.03214 0
M  V30 6166 H 613.182 -1.98602 -4.42473 0
M  V30 6167 H 609.061 -0.765815 -4.54595 0
M  V30 6168 H 612.605 -4.01856 -5.70226 0
M  V30 6169 H 608.502 -2.78964 -5.82108 0
M  V30 6170 H 609.27 -4.6546 -6.73267 0
M  V30 6171 N 611.933 1.52934 -0.380664 0
M  V30 6172 C 612.866 2.22597 0.502564 0
M  V30 6173 C 613.844 1.22345 1.071 0
M  V30 6174 O 615.028 1.51302 1.12428 0
M  V30 6175 C 612.155 2.93246 1.69482 0
M  V30 6176 C 611.201 4.07696 1.25244 0
M  V30 6177 S 612.034 5.34957 0.241159 0
M  V30 6178 C 613.19 6.09124 1.4394 0
M  V30 6179 H 613.423 2.97167 -0.089029 0
M  V30 6180 H 610.956 1.53518 -0.164817 0
M  V30 6181 H 612.914 3.34562 2.37863 0
M  V30 6182 H 611.575 2.18373 2.2577 0
M  V30 6183 H 610.768 4.56199 2.1424 0
M  V30 6184 H 610.37 3.68349 0.647664 0
M  V30 6185 H 612.662 6.34771 2.36794 0
M  V30 6186 H 613.605 7.01068 0.995464 0
M  V30 6187 H 614.013 5.39777 1.65229 0
M  V30 6188 N 613.412 0.11024 1.57214 0
M  V30 6189 C 614.362 -0.854147 2.11396 0
M  V30 6190 C 615.346 -1.23394 1.03261 0
M  V30 6191 O 616.538 -1.20649 1.2951 0
M  V30 6192 C 613.667 -2.10752 2.70995 0
M  V30 6193 C 612.753 -1.75249 3.86198 0
M  V30 6194 N 613.144 -1.10377 4.9361 0
M  V30 6195 C 611.442 -2.04763 3.96217 0
M  V30 6196 C 612.143 -0.938199 5.74084 0
M  V30 6197 N 611.119 -1.46039 5.23616 0
M  V30 6198 H 614.921 -0.348897 2.91822 0
M  V30 6199 H 612.435 -0.0925071 1.62136 0
M  V30 6200 H 614.432 -2.80801 3.0815 0
M  V30 6201 H 613.092 -2.61829 1.9203 0
M  V30 6202 H 614.103 -0.768785 5.12162 0
M  V30 6203 H 610.78 -2.57948 3.28282 0
M  V30 6204 H 612.17 -0.429678 6.70525 0
M  V30 6205 N 614.89 -1.56749 -0.16351 0
M  V30 6206 C 616.138 -1.82074 -0.87713 0
M  V30 6207 C 616.459 -0.688503 -1.82441 0
M  V30 6208 O 615.729 0.291085 -1.93725 0
M  V30 6209 H 614.309 -0.671677 -0.326893 0
M  V30 6210 H 616.971 -1.9423 -0.161459 0
M  V30 6211 H 616.067 -2.76407 -1.44934 0
M  V30 6212 N 616.368 0.432326 -1.51554 0
M  V30 6213 C 617.3 1.54357 -1.6943 0
M  V30 6214 C 618.313 1.52311 -0.574897 0
M  V30 6215 O 619.502 1.56997 -0.849369 0
M  V30 6216 C 616.602 2.93273 -1.69836 0
M  V30 6217 C 615.775 3.19768 -2.98442 0
M  V30 6218 C 614.834 4.38433 -2.90969 0
M  V30 6219 O 613.86 4.36842 -3.64908 0
M  V30 6220 N 615.062 5.42276 -2.07163 0
M  V30 6221 H 617.827 1.39426 -2.65293 0
M  V30 6222 H 615.388 0.621331 -1.49503 0
M  V30 6223 H 617.38 3.70687 -1.62399 0
M  V30 6224 H 615.95 3.01777 -0.815456 0
M  V30 6225 H 615.17 2.30607 -3.19709 0
M  V30 6226 H 616.458 3.343 -3.83563 0
M  V30 6227 H 615.856 5.46407 -1.46477 0
M  V30 6228 H 614.413 6.18524 -2.05601 0
M  V30 6229 N 617.846 1.41785 0.688094 0
M  V30 6230 C 619.071 1.45117 1.48175 0
M  V30 6231 C 619.496 0.060129 1.88004 0
M  V30 6232 O 618.854 -0.938385 1.55126 0
M  V30 6233 C 618.902 2.37224 2.71583 0
M  V30 6234 O 618.006 1.83443 3.69354 0
M  V30 6235 H 617.347 0.492208 0.445676 0
M  V30 6236 H 619.877 1.86329 0.845145 0
M  V30 6237 H 619.887 2.53353 3.19806 0
M  V30 6238 H 618.562 3.38293 2.41931 0
M  V30 6239 H 617.139 1.76802 3.28322 0
M  V30 6240 N 619.324 -0.923095 1.27737 0
M  V30 6241 C 620.57 -1.67375 1.14514 0
M  V30 6242 C 620.903 -1.91751 -0.307424 0
M  V30 6243 O 620.178 -1.51119 -1.22447 0
M  V30 6244 C 620.461 -3.03745 1.9342 0
M  V30 6245 C 620.314 -2.86581 3.46686 0
M  V30 6246 C 621.633 -4.04144 1.74228 0
M  V30 6247 H 618.752 -0.607427 0.417374 0
M  V30 6248 H 621.394 -1.07089 1.56946 0
M  V30 6249 H 619.544 -3.55204 1.5736 0
M  V30 6250 H 621.216 -2.42203 3.92601 0
M  V30 6251 H 619.459 -2.21829 3.72793 0
M  V30 6252 H 620.13 -3.83381 3.97143 0
M  V30 6253 H 622.606 -3.61712 2.05678 0
M  V30 6254 H 621.482 -4.97543 2.31824 0
M  V30 6255 H 621.743 -4.36661 0.691373 0
M  V30 6256 N 620.802 -1.09834 -1.13024 0
M  V30 6257 C 621.749 -0.741522 -2.18564 0
M  V30 6258 C 622.719 0.279236 -1.63736 0
M  V30 6259 O 623.904 0.159923 -1.90129 0
M  V30 6260 C 621.044 -0.17277 -3.44667 0
M  V30 6261 C 620.157 -1.24808 -4.13578 0
M  V30 6262 C 619.292 -0.641631 -5.27311 0
M  V30 6263 C 618.331 -1.69795 -5.88078 0
M  V30 6264 N 617.468 -1.11223 -6.93234 0
M  V30 6265 H 622.308 -1.64576 -2.48432 0
M  V30 6266 H 619.845 -0.822174 -1.21978 0
M  V30 6267 H 621.803 0.17482 -4.16834 0
M  V30 6268 H 620.433 0.694725 -3.15235 0
M  V30 6269 H 619.485 -1.71288 -3.39653 0
M  V30 6270 H 620.797 -2.04795 -4.54819 0
M  V30 6271 H 619.951 -0.243128 -6.06213 0
M  V30 6272 H 618.69 0.189742 -4.87331 0
M  V30 6273 H 617.695 -2.10595 -5.07868 0
M  V30 6274 H 618.92 -2.53206 -6.3013 0
M  V30 6275 H 616.866 -0.302208 -6.55304 0
M  V30 6276 H 616.783 -1.84901 -7.3304 0
M  V30 6277 H 618.051 -0.740068 -7.75979 0
M  V30 6278 N 622.28 1.30327 -0.886154 0
M  V30 6279 C 623.529 1.95373 -0.501243 0
M  V30 6280 C 623.842 1.70722 0.954634 0
M  V30 6281 O 625.048 2.29761 1.44644 0
M  V30 6282 C 623.504 3.49828 -0.845493 0
M  V30 6283 C 623.112 3.83296 -2.31922 0
M  V30 6284 C 624.856 4.2118 -0.529838 0
M  V30 6285 C 622.763 5.30935 -2.60504 0
M  V30 6286 H 621.693 0.731274 -0.183722 0
M  V30 6287 H 624.344 1.48258 -1.08129 0
M  V30 6288 H 622.726 3.95522 -0.19452 0
M  V30 6289 H 623.9 3.48508 -3.01461 0
M  V30 6290 H 622.215 3.2505 -2.60253 0
M  V30 6291 H 624.812 5.29825 -0.720401 0
M  V30 6292 H 625.155 4.12902 0.530828 0
M  V30 6293 H 625.688 3.81173 -1.13806 0
M  V30 6294 H 622.427 5.44265 -3.65316 0
M  V30 6295 H 621.947 5.67019 -1.95575 0
M  V30 6296 H 623.626 5.98381 -2.46066 0
M  V30 6297 N 623.758 0.647228 1.43697 0
M  V30 6298 C 624.706 -0.0600105 2.32523 0
M  V30 6299 C 625.7 -0.819277 1.48271 0
M  V30 6300 O 626.906 -0.730356 1.64517 0
M  V30 6301 H 623.281 -0.0381872 0.75103 0
M  V30 6302 H 625.252 0.706978 2.89904 0
M  V30 6303 C 624.001 -1.0169 3.32497 0
M  V30 6304 H 623.324 -0.442083 3.97348 0
M  V30 6305 H 624.764 -1.48095 3.97296 0
M  V30 6306 C 623.223 -2.11002 2.6264 0
M  V30 6307 O 623.753 -3.19302 2.4374 0
M  V30 6308 N 621.959 -1.87388 2.22113 0
M  V30 6309 H 621.506 -0.993174 2.37684 0
M  V30 6310 H 621.464 -2.60723 1.75701 0
M  V30 6311 N 625.236 -1.5273 0.388769 0
M  V30 6312 C 626.146 -2.30165 -0.453993 0
M  V30 6313 C 627.162 -1.37058 -1.07197 0
M  V30 6314 O 628.338 -1.70127 -1.0779 0
M  V30 6315 C 625.403 -3.09303 -1.56628 0
M  V30 6316 C 624.464 -4.18117 -0.973467 0
M  V30 6317 C 623.697 -4.93472 -2.03275 0
M  V30 6318 O 623.92 -4.68913 -3.24772 0
M  V30 6319 O 622.854 -5.78833 -1.65034 0
M  V30 6320 H 626.68 -3.03185 0.176816 0
M  V30 6321 H 624.265 -1.4862 0.152501 0
M  V30 6322 H 626.147 -3.58648 -2.21246 0
M  V30 6323 H 624.822 -2.39098 -2.18206 0
M  V30 6324 H 623.729 -3.7297 -0.290556 0
M  V30 6325 H 625.062 -4.90556 -0.401908 0
M  V30 6326 N 626.714 -0.118576 -1.57153 0
M  V30 6327 C 627.962 0.538461 -1.94795 0
M  V30 6328 C 628.283 1.67243 -1.00274 0
M  V30 6329 O 627.553 1.95811 -0.0589692 0
M  V30 6330 H 626.133 0.201904 -0.719197 0
M  V30 6331 H 628.795 -0.187418 -1.93997 0
M  V30 6332 H 627.891 0.933315 -2.97818 0
M  V30 6333 N 628.193 1.56834 0.155195 0
M  V30 6334 C 629.604 1.72421 0.716082 0
M  V30 6335 C 629.955 0.731685 1.82046 0
M  V30 6336 O 629.08 -0.103481 2.16152 0
M  V30 6337 C 629.675 3.12629 1.30571 0
M  V30 6338 C 628.234 3.29846 1.81325 0
M  V30 6339 C 627.381 2.68359 0.698494 0
M  V30 6340 H 630.332 1.58544 -0.0703861 0
M  V30 6341 H 630.353 3.12174 2.1755 0
M  V30 6342 H 629.865 3.84844 0.501701 0
M  V30 6343 H 627.966 2.62614 2.64319 0
M  V30 6344 H 628.079 4.37727 1.9476 0
M  V30 6345 H 626.443 2.28604 1.12305 0
M  V30 6346 H 627.226 3.43171 -0.0939366 0
M  V30 6347 N 629.671 -0.424282 1.51781 0
M  V30 6348 C 630.901 -1.19297 1.68677 0
M  V30 6349 C 631.309 -1.85152 0.389258 0
M  V30 6350 O 630.652 -1.72067 -0.643311 0
M  V30 6351 C 630.714 -2.30929 2.75521 0
M  V30 6352 C 630.378 -1.85335 4.17732 0
M  V30 6353 C 631.375 -1.34951 5.0208 0
M  V30 6354 C 629.06 -1.92629 4.63896 0
M  V30 6355 C 631.054 -0.924636 6.30658 0
M  V30 6356 C 628.741 -1.49754 5.92467 0
M  V30 6357 C 629.739 -0.997543 6.75676 0
M  V30 6358 O 629.427 -0.57492 8.01842 0
M  V30 6359 H 629.159 -0.36512 0.568914 0
M  V30 6360 H 631.713 -0.507327 1.99036 0
M  V30 6361 H 629.943 -3.02811 2.40505 0
M  V30 6362 H 631.632 -2.92748 2.81165 0
M  V30 6363 H 632.398 -1.287 4.67612 0
M  V30 6364 H 628.277 -2.30491 3.99243 0
M  V30 6365 H 631.821 -0.533682 6.95556 0
M  V30 6366 H 627.718 -1.55679 6.26446 0
M  V30 6367 H 628.486 -0.699597 8.15505 0
M  V30 6368 N 631.149 -1.42148 -0.680565 0
M  V30 6369 C 632.081 -1.41119 -1.80605 0
M  V30 6370 C 633.094 -0.311099 -1.598 0
M  V30 6371 O 634.283 -0.573813 -1.69026 0
M  V30 6372 C 631.383 -1.18204 -3.17618 0
M  V30 6373 C 630.556 -2.40537 -3.65322 0
M  V30 6374 C 629.615 -2.13254 -4.8105 0
M  V30 6375 O 628.641 -2.8641 -4.91892 0
M  V30 6376 N 629.843 -1.13208 -5.69354 0
M  V30 6377 H 632.608 -2.38128 -1.81975 0
M  V30 6378 H 630.169 -1.36953 -0.863446 0
M  V30 6379 H 632.161 -0.97878 -3.92686 0
M  V30 6380 H 630.731 -0.29738 -3.11182 0
M  V30 6381 H 629.951 -2.76468 -2.80996 0
M  V30 6382 H 631.239 -3.22012 -3.93936 0
M  V30 6383 H 630.637 -0.526893 -5.63241 0
M  V30 6384 H 629.194 -0.988699 -6.44258 0
M  V30 6385 N 632.627 0.916307 -1.28225 0
M  V30 6386 C 633.874 1.66518 -1.1523 0
M  V30 6387 C 634.202 1.92178 0.299632 0
M  V30 6388 O 633.457 1.51842 1.2346 0
M  V30 6389 C 633.756 3.03125 -1.8934 0
M  V30 6390 C 633.422 2.97135 -3.39148 0
M  V30 6391 C 632.084 2.95208 -3.80007 0
M  V30 6392 C 634.436 2.87574 -4.34685 0
M  V30 6393 C 631.764 2.81518 -5.14747 0
M  V30 6394 C 634.116 2.75424 -5.69495 0
M  V30 6395 C 632.78 2.71854 -6.09632 0
M  V30 6396 H 632.05 0.609334 -0.421655 0
M  V30 6397 H 634.697 1.06776 -1.58969 0
M  V30 6398 H 633.002 3.66639 -1.38143 0
M  V30 6399 H 634.699 3.59968 -1.76704 0
M  V30 6400 H 631.289 2.99428 -3.06661 0
M  V30 6401 H 635.473 2.88152 -4.04082 0
M  V30 6402 H 630.729 2.77148 -5.44976 0
M  V30 6403 H 634.903 2.66993 -6.43185 0
M  V30 6404 H 632.53 2.61003 -7.1399 0
M  V30 6405 N 634.105 1.10431 1.1244 0
M  V30 6406 C 635.015 0.765502 2.21759 0
M  V30 6407 C 636.031 -0.236966 1.72379 0
M  V30 6408 O 637.207 -0.0757329 2.01258 0
M  V30 6409 C 634.272 0.202316 3.46109 0
M  V30 6410 C 633.333 1.26205 4.1033 0
M  V30 6411 C 632.566 0.725648 5.28744 0
M  V30 6412 O 632.789 -0.447942 5.68638 0
M  V30 6413 O 631.723 1.48555 5.83279 0
M  V30 6414 H 635.549 1.67801 2.53133 0
M  V30 6415 H 633.134 0.879443 1.20773 0
M  V30 6416 H 635.016 -0.107918 4.21262 0
M  V30 6417 H 633.691 -0.683052 3.16411 0
M  V30 6418 H 632.598 1.62514 3.36957 0
M  V30 6419 H 633.931 2.12044 4.44183 0
M  V30 6420 N 635.583 -1.29855 0.893053 0
M  V30 6421 C 636.808 -2.00512 0.530066 0
M  V30 6422 C 637.233 -1.66446 -0.876199 0
M  V30 6423 O 636.591 -0.885446 -1.58207 0
M  V30 6424 C 636.639 -3.53308 0.721505 0
M  V30 6425 O 635.743 -4.11764 -0.228994 0
M  V30 6426 H 635.084 -0.630617 0.207891 0
M  V30 6427 H 637.614 -1.6551 1.20282 0
M  V30 6428 H 637.624 -4.03206 0.623599 0
M  V30 6429 H 636.299 -3.77439 1.74678 0
M  V30 6430 H 634.876 -3.72805 -0.0841034 0
M  V30 6431 N 637.061 -0.65484 -1.43351 0
M  V30 6432 C 637.971 0.0363603 -2.34572 0
M  V30 6433 C 638.987 0.810432 -1.53974 0
M  V30 6434 O 640.163 0.757308 -1.86619 0
M  V30 6435 C 637.228 0.989733 -3.32273 0
M  V30 6436 C 636.289 0.212414 -4.28774 0
M  V30 6437 C 635.522 1.12038 -5.21808 0
M  V30 6438 O 635.745 2.35967 -5.19303 0
M  V30 6439 O 634.679 0.59191 -5.98982 0
M  V30 6440 H 638.505 -0.714527 -2.95175 0
M  V30 6441 H 636.09 -0.415029 -1.4352 0
M  V30 6442 H 637.972 1.53759 -3.92347 0
M  V30 6443 H 636.647 1.72082 -2.74171 0
M  V30 6444 H 635.554 -0.379062 -3.72175 0
M  V30 6445 H 636.887 -0.479138 -4.89862 0
M  V30 6446 N 638.539 1.52521 -0.396863 0
M  V30 6447 C 639.787 2.01274 0.182536 0
M  V30 6448 C 640.108 1.28485 1.46685 0
M  V30 6449 O 639.378 0.407134 1.91623 0
M  V30 6450 H 637.958 0.743671 0.0704442 0
M  V30 6451 H 640.62 1.87547 -0.530289 0
M  V30 6452 H 639.716 3.09687 0.387385 0
M  V30 6453 N 640.017 0.126909 1.57088 0
M  V30 6454 C 640.964 -0.82036 2.15728 0
M  V30 6455 C 641.934 -1.25811 1.08447 0
M  V30 6456 O 643.119 -1.33422 1.36393 0
M  V30 6457 C 640.259 -2.06199 2.76724 0
M  V30 6458 C 639.372 -1.67188 3.98337 0
M  V30 6459 C 638.507 -2.86378 4.47393 0
M  V30 6460 C 637.546 -2.43644 5.61519 0
M  V30 6461 N 636.683 -3.55775 6.05284 0
M  V30 6462 H 641.523 -0.313472 2.96347 0
M  V30 6463 H 639.06 -0.14303 1.46403 0
M  V30 6464 H 641.018 -2.78959 3.10222 0
M  V30 6465 H 639.648 -2.54333 1.98782 0
M  V30 6466 H 638.7 -0.842714 3.70948 0
M  V30 6467 H 640.012 -1.31789 4.81075 0
M  V30 6468 H 639.166 -3.67353 4.82842 0
M  V30 6469 H 637.905 -3.25009 3.63621 0
M  V30 6470 H 636.91 -1.61104 5.25667 0
M  V30 6471 H 638.135 -2.06122 6.47063 0
M  V30 6472 H 636.081 -3.94065 5.24451 0
M  V30 6473 H 635.998 -3.24325 6.82898 0
M  V30 6474 H 637.266 -4.37166 6.45373 0
M  V30 6475 N 641.495 -1.56914 -0.146875 0
M  V30 6476 C 642.458 -1.97368 -1.16526 0
M  V30 6477 C 643.458 -0.860223 -1.35856 0
M  V30 6478 O 644.648 -1.12684 -1.32846 0
M  V30 6479 C 641.78 -2.28974 -2.52555 0
M  V30 6480 H 642.973 -2.88523 -0.818209 0
M  V30 6481 H 640.526 -1.5135 -0.390221 0
M  V30 6482 H 641.261 -1.40611 -2.92231 0
M  V30 6483 H 641.046 -3.10157 -2.39886 0
M  V30 6484 H 642.536 -2.61109 -3.25902 0
M  V30 6485 N 642.974 0.416227 -1.52004 0
M  V30 6486 C 644.22 1.16233 -1.66917 0
M  V30 6487 C 644.575 1.8839 -0.390763 0
M  V30 6488 O 643.868 1.81479 0.614478 0
M  V30 6489 C 644.062 2.18923 -2.82502 0
M  V30 6490 C 643.891 1.56849 -4.2146 0
M  V30 6491 C 642.661 1.34426 -4.87091 0
M  V30 6492 C 644.859 1.03322 -5.03815 0
M  V30 6493 N 642.841 0.681703 -6.10103 0
M  V30 6494 C 644.212 0.497165 -6.18003 0
M  V30 6495 C 646.267 0.926997 -4.89194 0
M  V30 6496 C 644.97 -0.134687 -7.19174 0
M  V30 6497 C 646.996 0.309009 -5.90592 0
M  V30 6498 C 646.358 -0.216399 -7.04068 0
M  V30 6499 H 642.457 0.412252 -0.664509 0
M  V30 6500 H 645.041 0.455758 -1.89291 0
M  V30 6501 H 643.212 2.86946 -2.61756 0
M  V30 6502 H 644.944 2.85844 -2.86488 0
M  V30 6503 H 641.699 1.61183 -4.45328 0
M  V30 6504 H 642.123 0.367256 -6.76003 0
M  V30 6505 H 646.765 1.31904 -4.01698 0
M  V30 6506 H 644.483 -0.538811 -8.06302 0
M  V30 6507 H 648.069 0.228438 -5.81351 0
M  V30 6508 H 646.949 -0.687064 -7.81184 0
M  V30 6509 N 644.452 1.42507 0.673017 0
M  V30 6510 C 645.382 1.48916 1.79851 0
M  V30 6511 C 646.363 0.345566 1.66553 0
M  V30 6512 O 647.548 0.560116 1.85947 0
M  V30 6513 C 644.678 1.39258 3.18158 0
M  V30 6514 C 643.632 2.51662 3.46194 0
M  V30 6515 C 642.958 2.27062 4.84094 0
M  V30 6516 C 644.258 3.93968 3.42909 0
M  V30 6517 H 645.952 2.43114 1.74745 0
M  V30 6518 H 643.498 1.17013 0.839288 0
M  V30 6519 H 645.451 1.42349 3.96629 0
M  V30 6520 H 644.175 0.415542 3.23946 0
M  V30 6521 H 642.834 2.47891 2.70084 0
M  V30 6522 H 642.482 1.27648 4.86534 0
M  V30 6523 H 642.182 3.02398 5.03815 0
M  V30 6524 H 643.706 2.31905 5.64847 0
M  V30 6525 H 645.12 3.99332 4.11347 0
M  V30 6526 H 643.517 4.6917 3.74165 0
M  V30 6527 H 644.587 4.20512 2.41449 0
M  V30 6528 N 645.93 -0.909495 1.28709 0
M  V30 6529 C 647.177 -1.65905 1.16111 0
M  V30 6530 C 647.505 -1.92334 -0.289436 0
M  V30 6531 O 646.76 -1.52495 -1.22653 0
M  V30 6532 C 647.059 -3.02117 1.90945 0
M  V30 6533 C 646.725 -2.95332 3.40719 0
M  V30 6534 C 645.387 -2.93189 3.81567 0
M  V30 6535 C 647.739 -2.85264 4.36204 0
M  V30 6536 C 645.067 -2.78784 5.16233 0
M  V30 6537 C 647.419 -2.724 5.70948 0
M  V30 6538 C 646.083 -2.68617 6.11066 0
M  V30 6539 H 645.353 -0.60709 0.42488 0
M  V30 6540 H 648 -1.05932 1.59533 0
M  V30 6541 H 646.305 -3.65901 1.40085 0
M  V30 6542 H 648.002 -3.59026 1.7861 0
M  V30 6543 H 644.592 -2.97797 3.08245 0
M  V30 6544 H 648.776 -2.86005 4.05605 0
M  V30 6545 H 644.032 -2.74254 5.46438 0
M  V30 6546 H 648.206 -2.63579 6.44592 0
M  V30 6547 H 645.833 -2.57213 7.15364 0
M  V30 6548 N 647.408 -1.11026 -1.11852 0
M  V30 6549 C 648.656 -0.854769 -1.83134 0
M  V30 6550 C 648.977 0.621375 -1.84835 0
M  V30 6551 O 648.247 1.45129 -1.31584 0
M  V30 6552 H 646.827 -0.313229 -0.678157 0
M  V30 6553 H 649.489 -1.40178 -1.35411 0
M  V30 6554 H 648.585 -1.22311 -2.87135 0
M  V30 6555 N 648.886 1.2938 -0.899927 0
M  V30 6556 C 650.114 1.99691 -0.541386 0
M  V30 6557 C 650.529 1.67355 0.873936 0
M  V30 6558 O 649.886 0.918728 1.57688 0
M  V30 6559 C 649.937 3.54168 -0.72438 0
M  V30 6560 O 649.658 3.85359 -2.08399 0
M  V30 6561 C 651.159 4.41746 -0.370819 0
M  V30 6562 H 648.379 0.638037 -0.207726 0
M  V30 6563 H 650.923 1.6491 -1.20934 0
M  V30 6564 H 649.078 3.87261 -0.103607 0
M  V30 6565 H 649.492 4.80032 -2.11352 0
M  V30 6566 H 650.966 5.49256 -0.549693 0
M  V30 6567 H 651.443 4.33712 0.692148 0
M  V30 6568 H 652.049 4.14125 -0.968543 0
M  V30 6569 N 650.364 0.662433 1.43002 0
M  V30 6570 C 651.312 -0.035345 2.32573 0
M  V30 6571 C 652.306 -0.803505 1.49131 0
M  V30 6572 O 653.512 -0.712865 1.65282 0
M  V30 6573 H 649.887 -0.0302194 0.751393 0
M  V30 6574 H 651.858 0.737686 2.89138 0
M  V30 6575 C 650.607 -0.981575 3.33557 0
M  V30 6576 H 649.93 -0.399914 3.97795 0
M  V30 6577 H 651.37 -1.43873 3.98844 0
M  V30 6578 C 649.829 -2.08204 2.64863 0
M  V30 6579 O 650.359 -3.16698 2.47113 0
M  V30 6580 N 648.565 -1.85022 2.24088 0
M  V30 6581 H 648.112 -0.967909 2.38724 0
M  V30 6582 H 648.07 -2.58845 1.78457 0
M  V30 6583 N 651.842 -1.52309 0.404946 0
M  V30 6584 C 653.089 -2.01767 -0.1722 0
M  V30 6585 C 653.417 -1.29075 -1.45498 0
M  V30 6586 O 652.672 -0.3843 -1.9189 0
M  V30 6587 C 652.971 -3.54284 -0.470895 0
M  V30 6588 C 652.637 -4.45079 0.722194 0
M  V30 6589 C 651.299 -4.69617 1.04946 0
M  V30 6590 C 653.651 -4.98555 1.51962 0
M  V30 6591 C 650.979 -5.44878 2.17543 0
M  V30 6592 C 653.331 -5.75049 2.63632 0
M  V30 6593 C 651.995 -5.9786 2.9685 0
M  V30 6594 H 651.265 -0.738316 -0.0630125 0
M  V30 6595 H 653.912 -1.83566 0.545506 0
M  V30 6596 H 652.217 -3.70642 -1.27012 0
M  V30 6597 H 653.914 -3.90058 -0.930346 0
M  V30 6598 H 650.504 -4.26155 0.457131 0
M  V30 6599 H 654.688 -4.79509 1.28002 0
M  V30 6600 H 649.944 -5.60762 2.43631 0
M  V30 6601 H 654.118 -6.15483 3.25813 0
M  V30 6602 H 651.745 -6.5596 3.84215 0
M  V30 6603 N 653.32 -0.135238 -1.57019 0
M  V30 6604 C 654.268 0.826099 -2.17436 0
M  V30 6605 C 655.262 1.26378 -1.12805 0
M  V30 6606 O 656.468 1.23363 -1.31079 0
M  V30 6607 H 652.843 0.284568 -0.696078 0
M  V30 6608 H 654.814 0.292212 -2.96966 0
M  V30 6609 C 653.563 2.05991 -2.80112 0
M  V30 6610 H 652.886 1.73209 -3.60331 0
M  V30 6611 H 654.326 2.71225 -3.25903 0
M  V30 6612 C 652.785 2.86027 -1.78017 0
M  V30 6613 O 653.315 3.81971 -1.24344 0
M  V30 6614 N 651.521 2.50332 -1.47588 0
M  V30 6615 H 651.068 1.72377 -1.91426 0
M  V30 6616 H 651.026 3.04177 -0.795228 0
M  V30 6617 N 654.798 1.5699 0.138552 0
M  V30 6618 C 656.028 1.87704 0.863184 0
M  V30 6619 C 656.436 0.722411 1.74865 0
M  V30 6620 O 655.779 -0.316636 1.80951 0
M  V30 6621 C 655.841 3.13219 1.76449 0
M  V30 6622 C 655.505 4.44648 1.05532 0
M  V30 6623 C 656.502 5.18318 0.405252 0
M  V30 6624 C 654.187 4.91367 1.04231 0
M  V30 6625 C 656.181 6.36916 -0.24835 0
M  V30 6626 C 653.868 6.09887 0.384904 0
M  V30 6627 C 654.866 6.82508 -0.259292 0
M  V30 6628 O 654.554 7.98775 -0.906258 0
M  V30 6629 H 654.286 0.626255 0.254521 0
M  V30 6630 H 656.84 2.04966 0.133472 0
M  V30 6631 H 655.07 2.91988 2.53535 0
M  V30 6632 H 656.759 3.30111 2.36181 0
M  V30 6633 H 657.525 4.83289 0.407053 0
M  V30 6634 H 653.404 4.34759 1.53315 0
M  V30 6635 H 656.948 6.93538 -0.751755 0
M  V30 6636 H 652.845 6.44376 0.380799 0
M  V30 6637 H 653.613 8.14494 -0.80877 0
M  V30 6638 N 656.276 -0.40816 1.52223 0
M  V30 6639 C 657.239 -1.48 1.7501 0
M  V30 6640 C 658.239 -1.48367 0.619996 0
M  V30 6641 O 659.429 -1.49874 0.887881 0
M  V30 6642 C 656.561 -2.87403 1.83336 0
M  V30 6643 H 657.754 -1.29086 2.70697 0
M  V30 6644 H 655.307 -0.638715 1.42654 0
M  V30 6645 H 656.042 -3.11686 0.895677 0
M  V30 6646 H 655.827 -2.8854 2.65494 0
M  V30 6647 H 657.317 -3.65103 2.02705 0
M  V30 6648 N 657.755 -1.42862 -0.66545 0
M  V30 6649 C 659.002 -1.4383 -1.42546 0
M  V30 6650 C 659.33 -0.0581114 -1.94413 0
M  V30 6651 O 658.585 0.935002 -1.71919 0
M  V30 6652 C 658.884 -2.4175 -2.63233 0
M  V30 6653 C 658.55 -3.87915 -2.29854 0
M  V30 6654 C 657.212 -4.27726 -2.20463 0
M  V30 6655 C 659.564 -4.80074 -2.02924 0
M  V30 6656 C 656.892 -5.57666 -1.82279 0
M  V30 6657 C 659.244 -6.10366 -1.66242 0
M  V30 6658 C 657.908 -6.49167 -1.55367 0
M  V30 6659 H 657.178 -0.52631 -0.521612 0
M  V30 6660 H 659.825 -1.75863 -0.757914 0
M  V30 6661 H 658.13 -2.03077 -3.35063 0
M  V30 6662 H 659.827 -2.39759 -3.21429 0
M  V30 6663 H 656.417 -3.564 -2.3807 0
M  V30 6664 H 660.601 -4.50097 -2.09108 0
M  V30 6665 H 655.857 -5.8658 -1.72436 0
M  V30 6666 H 660.031 -6.81258 -1.44432 0
M  V30 6667 H 657.658 -7.49761 -1.2555 0
M  V30 6668 O 659.272 0.808226 -1.39821 0
M  V30 6669 H 659.963 1.45282 -1.28112 0
M  V30 END ATOM
M  V30 BEGIN BOND
M  V30 END BOND
M  V30 END CTAB
M  END
$$$$
