drugbank_target|P10412 Histone H1.4 (DB09130)
 OpenBabel12092121013D

  0  0  0     0  0            999 V3000
M  V30 BEGIN CTAB
M  V30 COUNTS 3317 3339 0 0 0
M  V30 BEGIN ATOM
M  V30 1 H -0.908 1.98254 -0.117106 0
M  V30 2 N 0 1.576 0 0
M  V30 3 C 0.933 2.03868 1.02534 0
M  V30 4 C 1.911 0.928543 1.3348 0
M  V30 5 O 3.095 1.19667 1.45644 0
M  V30 6 C 0.222 2.43627 2.35294 0
M  V30 7 C -0.732 3.65373 2.2001 0
M  V30 8 S 0.101 5.13292 1.52614 0
M  V30 9 C 1.257 5.56322 2.86805 0
M  V30 10 H 1.49 2.90518 0.631377 0
M  V30 11 H -0.977 1.52953 0.210867 0
M  V30 12 H 0.981 2.67203 3.11629 0
M  V30 13 H -0.358 1.57376 2.7183 0
M  V30 14 H -1.165 3.90944 3.18086 0
M  V30 15 H -1.563 3.418 1.51819 0
M  V30 16 H 0.729 5.58782 3.83104 0
M  V30 17 H 1.672 6.56266 2.65933 0
M  V30 18 H 2.08 4.83886 2.90714 0
M  V30 19 N 1.4781 -0.272755 1.55222 0
M  V30 20 C 2.7031 -1.02683 1.80197 0
M  V30 21 C 3.1281 -1.79142 0.573551 0
M  V30 22 O 2.4861 -1.74917 -0.476849 0
M  V30 23 C 2.5341 -1.9609 3.02624 0
M  V30 24 O 1.6381 -3.04863 2.77727 0
M  V30 25 H 0.9791 -0.293557 0.595584 0
M  V30 26 H 3.5091 -0.30159 2.02365 0
M  V30 27 H 3.5191 -2.38039 3.31363 0
M  V30 28 H 2.1941 -1.39851 3.91682 0
M  V30 29 H 0.7711 -2.67228 2.60084 0
M  V30 30 N 2.9562 -1.48159 -0.537278 0
M  V30 31 C 3.8662 -1.64807 -1.6696 0
M  V30 32 C 4.8822 -0.530651 -1.65711 0
M  V30 33 O 6.0582 -0.800784 -1.84796 0
M  V30 34 C 3.1232 -1.67708 -3.03438 0
M  V30 35 C 2.1842 -2.91025 -3.156 0
M  V30 36 C 1.4172 -2.93778 -4.45567 0
M  V30 37 O 1.6402 -2.05153 -5.3223 0
M  V30 38 O 0.5742 -3.85868 -4.61941 0
M  V30 39 H 4.4002 -2.6066 -1.55853 0
M  V30 40 H 1.9852 -1.31475 -0.709549 0
M  V30 41 H 3.8672 -1.7218 -3.84619 0
M  V30 42 H 2.5422 -0.750278 -3.14885 0
M  V30 43 H 1.4492 -2.92089 -2.33741 0
M  V30 44 H 2.7822 -3.83065 -3.09066 0
M  V30 45 N 4.4343 0.785586 -1.36625 0
M  V30 46 C 5.6623 1.57448 -1.3423 0
M  V30 47 C 6.0773 1.88649 0.0755653 0
M  V30 48 O 5.4343 1.50414 1.03354 0
M  V30 49 C 5.4853 2.89316 -2.16745 0
M  V30 50 O 5.2063 2.59459 -3.53005 0
M  V30 51 C 6.7073 3.83606 -2.22174 0
M  V30 52 H 3.9273 0.488226 -0.4603 0
M  V30 53 H 6.4713 0.974733 -1.79775 0
M  V30 54 H 4.6263 3.4575 -1.74745 0
M  V30 55 H 5.0403 3.43804 -3.96105 0
M  V30 56 H 6.5143 4.73181 -2.8426 0
M  V30 57 H 6.9913 4.21734 -1.22627 0
M  V30 58 H 7.5973 3.33104 -2.64427 0
M  V30 59 N 5.9124 1.20967 1.01018 0
M  V30 60 C 6.8754 0.965918 2.07853 0
M  V30 61 C 7.8754 -0.0610545 1.60684 0
M  V30 62 O 9.0654 0.175681 1.73312 0
M  V30 63 C 6.1974 0.455513 3.37843 0
M  V30 64 H 7.3904 1.91365 2.3091 0
M  V30 65 H 4.9434 1.02594 1.17916 0
M  V30 66 H 5.6784 -0.497381 3.20463 0
M  V30 67 H 5.4634 1.19622 3.73407 0
M  V30 68 H 6.9534 0.304667 4.16487 0
M  V30 69 N 7.3905 -1.2043 1.01659 0
M  V30 70 C 8.8015 -1.71517 0.737482 0
M  V30 71 C 9.1525 -1.81547 -0.743973 0
M  V30 72 O 8.2775 -1.47803 -1.58061 0
M  V30 73 C 8.8725 -3.11515 1.33206 0
M  V30 74 C 7.4315 -3.59912 1.10183 0
M  V30 75 C 6.5785 -2.37116 1.43776 0
M  V30 76 H 9.5295 -1.05444 1.18606 0
M  V30 77 H 9.5505 -3.73575 0.722636 0
M  V30 78 H 9.0625 -3.04182 2.41028 0
M  V30 79 H 7.1635 -3.72577 0.0412756 0
M  V30 80 H 7.2765 -4.44731 1.78188 0
M  V30 81 H 5.6405 -2.39857 0.856778 0
M  V30 82 H 6.4235 -2.32424 2.52654 0
M  V30 83 N 8.8686 -0.792821 -1.36206 0
M  V30 84 C 9.8316 -0.199459 -2.2833 0
M  V30 85 C 10.8316 0.605189 -1.48977 0
M  V30 86 O 12.0216 0.425685 -1.68919 0
M  V30 87 C 9.1536 0.723523 -3.33134 0
M  V30 88 H 10.3466 -1.01181 -2.82316 0
M  V30 89 H 7.8996 -0.562485 -1.45828 0
M  V30 90 H 8.6346 1.56008 -2.84309 0
M  V30 91 H 8.4196 0.148436 -3.91819 0
M  V30 92 H 9.9096 1.13344 -4.01924 0
M  V30 93 N 10.3467 1.47872 -0.545128 0
M  V30 94 C 11.3097 2.28337 0.198717 0
M  V30 95 C 12.3097 1.36255 0.853888 0
M  V30 96 O 13.4997 1.59003 0.711606 0
M  V30 97 C 10.6317 3.15585 1.28915 0
M  V30 98 H 11.8247 2.95567 -0.507941 0
M  V30 99 H 9.3777 1.53362 -0.301616 0
M  V30 100 H 10.1127 2.53019 2.02859 0
M  V30 101 H 9.8977 3.83337 0.824309 0
M  V30 102 H 11.3877 3.76243 1.81194 0
M  V30 103 N 11.8248 0.280983 1.55075 0
M  V30 104 C 13.2358 -0.215629 1.85451 0
M  V30 105 C 13.5868 -1.54991 1.203 0
M  V30 106 O 12.7118 -2.10699 0.493435 0
M  V30 107 C 13.3068 -0.398026 3.36454 0
M  V30 108 C 11.8658 -0.838866 3.66933 0
M  V30 109 C 11.0128 0.064458 2.77225 0
M  V30 110 H 13.9638 0.502601 1.50531 0
M  V30 111 H 13.9848 -1.23569 3.59876 0
M  V30 112 H 13.4968 0.573241 3.83843 0
M  V30 113 H 11.5978 -1.8214 3.25048 0
M  V30 114 H 11.7108 -0.672123 4.74362 0
M  V30 115 H 10.0748 -0.452863 2.50642 0
M  V30 116 H 10.8578 1.03172 3.2743 0
M  V30 117 N 13.3029 -1.57598 0.00835791 0
M  V30 118 C 14.2659 -2.07884 -0.965242 0
M  V30 119 C 15.2659 -0.989825 -1.26725 0
M  V30 120 O 16.4559 -1.25218 -1.21104 0
M  V30 121 C 13.5879 -2.52731 -2.28779 0
M  V30 122 H 14.7809 -2.95178 -0.530112 0
M  V30 123 H 12.3339 -1.54458 -0.239283 0
M  V30 124 H 13.0689 -1.68705 -2.76964 0
M  V30 125 H 12.8539 -3.32272 -2.08177 0
M  V30 126 H 14.3439 -2.91933 -2.98605 0
M  V30 127 N 14.781 0.264519 -1.55364 0
M  V30 128 C 15.744 1.31046 -1.88042 0
M  V30 129 C 16.744 1.41943 -0.755569 0
M  V30 130 O 17.934 1.40947 -1.02369 0
M  V30 131 C 15.066 2.69067 -2.09323 0
M  V30 132 H 16.259 1.03297 -2.81549 0
M  V30 133 H 13.812 0.502989 -1.47986 0
M  V30 134 H 14.547 3.01982 -1.18226 0
M  V30 135 H 14.332 2.62542 -2.91229 0
M  V30 136 H 15.822 3.44623 -2.35848 0
M  V30 137 N 16.2591 1.48442 0.529413 0
M  V30 138 C 17.6701 1.5002 1.11134 0
M  V30 139 C 18.0211 0.27031 1.94329 0
M  V30 140 O 17.1461 -0.622507 2.07253 0
M  V30 141 C 17.7411 2.71834 2.02217 0
M  V30 142 C 16.3001 2.76283 2.55627 0
M  V30 143 C 15.4471 2.43542 1.326 0
M  V30 144 H 18.3981 1.5555 0.314641 0
M  V30 145 H 18.4191 2.50384 2.8651 0
M  V30 146 H 17.9311 3.61331 1.41639 0
M  V30 147 H 16.0321 1.90995 3.19924 0
M  V30 148 H 16.1451 3.77725 2.94721 0
M  V30 149 H 14.5091 1.94709 1.64196 0
M  V30 150 H 15.2921 3.3528 0.737734 0
M  V30 151 N 17.7372 -0.778329 1.37039 0
M  V30 152 C 18.7002 -1.87301 1.32102 0
M  V30 153 C 19.7002 -1.59198 0.226405 0
M  V30 154 O 20.8902 -1.67403 0.481861 0
M  V30 155 C 18.0222 -3.24309 1.05055 0
M  V30 156 H 19.2152 -1.93093 2.29467 0
M  V30 157 H 16.7682 -0.977358 1.21973 0
M  V30 158 H 17.5032 -3.24196 0.0819373 0
M  V30 159 H 17.2882 -3.46098 1.84279 0
M  V30 160 H 18.7782 -4.04382 1.04234 0
M  V30 161 N 19.2153 -1.21501 -1.00376 0
M  V30 162 C 20.6263 -1.03146 -1.55621 0
M  V30 163 C 20.9773 0.408375 -1.91903 0
M  V30 164 O 20.1023 1.29177 -1.73616 0
M  V30 165 C 20.6973 -1.86612 -2.82775 0
M  V30 166 C 19.2563 -1.72586 -3.34501 0
M  V30 167 C 18.4033 -1.83747 -2.07683 0
M  V30 168 H 21.3543 -1.35505 -0.826081 0
M  V30 169 H 21.3753 -1.3771 -3.54706 0
M  V30 170 H 20.8873 -2.91399 -2.56336 0
M  V30 171 H 18.9883 -0.704877 -3.65872 0
M  V30 172 H 19.1013 -2.54623 -4.05837 0
M  V30 173 H 17.4653 -1.27069 -2.20739 0
M  V30 174 H 18.2483 -2.90044 -1.83655 0
M  V30 175 N 20.6934 1.19889 -1.02296 0
M  V30 176 C 21.6564 2.21116 -0.603351 0
M  V30 177 C 22.6564 1.5738 0.329884 0
M  V30 178 O 23.8464 1.73802 0.117702 0
M  V30 179 C 20.9784 3.40696 0.117992 0
M  V30 180 H 22.1714 2.59754 -1.49893 0
M  V30 181 H 19.7244 1.33463 -0.813468 0
M  V30 182 H 20.4594 3.07569 1.0282 0
M  V30 183 H 20.2444 3.88188 -0.552511 0
M  V30 184 H 21.7344 4.15692 0.398696 0
M  V30 185 N 22.1715 0.800033 1.35784 0
M  V30 186 C 23.0815 0.207204 2.33683 0
M  V30 187 C 24.0975 -0.64631 1.61551 0
M  V30 188 O 25.2735 -0.559604 1.93469 0
M  V30 189 C 22.3385 -0.639659 3.40748 0
M  V30 190 C 21.3995 0.233585 4.28664 0
M  V30 191 C 20.6325 -0.572954 5.30616 0
M  V30 192 O 20.8555 -1.80816 5.40982 0
M  V30 193 O 19.7895 0.0327285 6.01891 0
M  V30 194 H 23.6155 1.01692 2.86169 0
M  V30 195 H 21.2005 0.561691 1.38439 0
M  V30 196 H 23.0825 -1.12223 4.06182 0
M  V30 197 H 21.7575 -1.42708 2.90544 0
M  V30 198 H 20.6645 0.763147 3.66233 0
M  V30 199 H 21.9975 0.984784 4.82248 0
M  V30 200 N 23.6496 -1.47581 0.552962 0
M  V30 201 C 24.5966 -2.29957 -0.197108 0
M  V30 202 C 25.5666 -1.38799 -0.912359 0
M  V30 203 O 26.7516 -1.67761 -0.908888 0
M  V30 204 C 23.8916 -3.22672 -1.22379 0
M  V30 205 C 23.0046 -4.28919 -0.515038 0
M  V30 206 C 22.1396 -5.0879 -1.52664 0
M  V30 207 C 21.1786 -6.06815 -0.802631 0
M  V30 208 N 20.3156 -6.7966 -1.76086 0
M  V30 209 H 25.1556 -2.93578 0.511486 0
M  V30 210 H 22.6926 -1.4471 0.264067 0
M  V30 211 H 24.6506 -3.74845 -1.83159 0
M  V30 212 H 23.2806 -2.60925 -1.90047 0
M  V30 213 H 22.3326 -3.79835 0.207192 0
M  V30 214 H 23.6446 -4.98773 0.0523425 0
M  V30 215 H 22.7986 -5.65091 -2.20809 0
M  V30 216 H 21.5376 -4.38828 -2.12794 0
M  V30 217 H 20.5426 -5.49695 -0.107238 0
M  V30 218 H 21.7676 -6.78784 -0.207135 0
M  V30 219 H 19.7136 -6.12432 -2.35081 0
M  V30 220 H 19.6306 -7.45669 -1.24552 0
M  V30 221 H 20.8986 -7.40538 -2.43359 0
M  V30 222 N 25.1277 -0.289203 -1.54924 0
M  V30 223 C 26.3557 0.326463 -2.04308 0
M  V30 224 C 26.7707 1.48413 -1.16701 0
M  V30 225 O 26.1277 1.81507 -0.190087 0
M  V30 226 C 26.1787 0.794014 -3.52672 0
M  V30 227 O 25.8997 -0.317564 -4.36948 0
M  V30 228 C 27.4007 1.47605 -4.18004 0
M  V30 229 H 24.6207 0.0726272 -0.667058 0
M  V30 230 H 27.1647 -0.425401 -2.00026 0
M  V30 231 H 25.3197 1.49593 -3.57352 0
M  V30 232 H 25.7337 0.0443186 -5.24481 0
M  V30 233 H 27.2077 1.75447 -5.23376 0
M  V30 234 H 27.6847 2.41224 -3.67025 0
M  V30 235 H 28.2907 0.81762 -4.17367 0
M  V30 236 N 26.6058 1.57591 -0.0167156 0
M  V30 237 C 28.0168 1.79201 0.523834 0
M  V30 238 C 28.3678 0.925796 1.72984 0
M  V30 239 O 27.4928 0.132792 2.15992 0
M  V30 240 C 28.0878 3.25 0.957091 0
M  V30 241 C 26.6468 3.47648 1.44283 0
M  V30 242 C 25.7938 2.74374 0.401757 0
M  V30 243 H 28.7448 1.56831 -0.242816 0
M  V30 244 H 28.7658 3.34031 1.82219 0
M  V30 245 H 28.2778 3.88019 0.0791415 0
M  V30 246 H 26.3788 2.89866 2.34113 0
M  V30 247 H 26.4918 4.56352 1.45877 0
M  V30 248 H 24.8558 2.39485 0.867121 0
M  V30 249 H 25.6388 3.40102 -0.467513 0
M  V30 250 N 28.0839 -0.256276 1.55502 0
M  V30 251 C 29.3299 -0.987079 1.77157 0
M  V30 252 C 29.6629 -1.85327 0.580315 0
M  V30 253 O 28.9379 -1.89874 -0.421686 0
M  V30 254 C 29.2209 -1.85553 3.08613 0
M  V30 255 C 29.0739 -1.01816 4.38125 0
M  V30 256 C 30.3929 -2.8397 3.36228 0
M  V30 257 H 27.5119 -0.357428 0.644526 0
M  V30 258 H 30.1539 -0.258239 1.88237 0
M  V30 259 H 28.3039 -2.47695 2.99298 0
M  V30 260 H 29.9759 -0.416159 4.59419 0
M  V30 261 H 28.2189 -0.322178 4.32602 0
M  V30 262 H 28.8899 -1.65939 5.26468 0
M  V30 263 H 31.3659 -2.31964 3.45445 0
M  V30 264 H 30.2419 -3.41864 4.29442 0
M  V30 265 H 30.5029 -3.59955 2.56681 0
M  V30 266 N 29.562 -1.4872 -0.521534 0
M  V30 267 C 30.509 -1.63871 -1.62527 0
M  V30 268 C 31.479 -0.480559 -1.58996 0
M  V30 269 O 32.664 -0.705085 -1.77294 0
M  V30 270 C 29.804 -1.69227 -3.00759 0
M  V30 271 C 28.917 -2.96207 -3.14461 0
M  V30 272 C 28.052 -2.92671 -4.43303 0
M  V30 273 C 27.091 -4.14318 -4.50563 0
M  V30 274 N 26.228 -4.0881 -5.70805 0
M  V30 275 H 31.068 -2.58123 -1.48918 0
M  V30 276 H 28.605 -1.28 -0.724878 0
M  V30 277 H 30.563 -1.70314 -3.80853 0
M  V30 278 H 29.193 -0.784586 -3.1312 0
M  V30 279 H 28.245 -3.04826 -2.27564 0
M  V30 280 H 29.557 -3.86192 -3.15686 0
M  V30 281 H 28.711 -2.92206 -5.31696 0
M  V30 282 H 27.45 -2.00429 -4.44612 0
M  V30 283 H 26.455 -4.15049 -3.60575 0
M  V30 284 H 27.68 -5.07729 -4.50986 0
M  V30 285 H 25.626 -3.19394 -5.72995 0
M  V30 286 H 25.543 -4.92509 -5.7356 0
M  V30 287 H 26.811 -4.12418 -6.61462 0
M  V30 288 N 31.0401 0.771051 -1.3745 0
M  V30 289 C 31.9871 1.88435 -1.3327 0
M  V30 290 C 32.9571 1.64914 -0.198136 0
M  V30 291 O 34.1421 1.86821 -0.387606 0
M  V30 292 C 31.2821 3.25509 -1.14622 0
M  V30 293 C 30.3951 3.60979 -2.37314 0
M  V30 294 C 29.5301 4.87265 -2.11533 0
M  V30 295 C 28.5691 5.15469 -3.30088 0
M  V30 296 N 27.7061 6.32944 -3.03853 0
M  V30 297 H 32.5461 1.91344 -2.28455 0
M  V30 298 H 30.0831 0.935466 -1.13523 0
M  V30 299 H 32.0411 4.04582 -1.01831 0
M  V30 300 H 30.6711 3.21974 -0.230837 0
M  V30 301 H 29.7231 2.76885 -2.60842 0
M  V30 302 H 31.0351 3.77759 -3.25729 0
M  V30 303 H 30.1891 5.74244 -1.95777 0
M  V30 304 H 28.9281 4.7259 -1.20457 0
M  V30 305 H 27.9331 4.26966 -3.46382 0
M  V30 306 H 29.1581 5.32052 -4.22016 0
M  V30 307 H 27.1041 6.19625 -2.15407 0
M  V30 308 H 27.0211 6.50143 -3.85812 0
M  V30 309 H 28.2891 7.22857 -2.91716 0
M  V30 310 N 32.5182 1.22032 0.997298 0
M  V30 311 C 33.4652 0.986467 2.08656 0
M  V30 312 C 34.4352 -0.0902671 1.65855 0
M  V30 313 O 35.6202 0.0584294 1.90711 0
M  V30 314 C 32.7602 0.565569 3.40434 0
M  V30 315 C 31.8732 1.71259 3.96604 0
M  V30 316 C 31.0082 1.24011 5.16522 0
M  V30 317 C 30.0472 2.35896 5.64818 0
M  V30 318 N 29.1842 1.89726 6.7598 0
M  V30 319 H 34.0242 1.91892 2.27994 0
M  V30 320 H 31.5612 0.956199 1.11782 0
M  V30 321 H 33.5192 0.302738 4.161 0
M  V30 322 H 32.1492 -0.329879 3.2111 0
M  V30 323 H 31.2012 2.08986 3.17851 0
M  V30 324 H 32.5132 2.55436 4.28432 0
M  V30 325 H 31.6672 0.934395 5.99461 0
M  V30 326 H 30.4062 0.368487 4.86306 0
M  V30 327 H 29.4112 2.67261 4.8047 0
M  V30 328 H 30.6362 3.23567 5.97061 0
M  V30 329 H 28.5822 1.0492 6.47555 0
M  V30 330 H 28.4992 2.67471 7.07103 0
M  V30 331 H 29.7672 1.62211 7.62435 0
M  V30 332 N 33.9963 -1.19345 1.0293 0
M  V30 333 C 34.9593 -2.20793 0.615069 0
M  V30 334 C 35.9593 -1.57553 -0.321533 0
M  V30 335 O 37.1493 -1.73862 -0.108483 0
M  V30 336 C 34.2813 -3.40754 -0.0999222 0
M  V30 337 H 35.4743 -2.58955 1.51269 0
M  V30 338 H 33.0273 -1.3303 0.820534 0
M  V30 339 H 33.7623 -3.0811 -1.01187 0
M  V30 340 H 33.5473 -3.87889 0.57309 0
M  V30 341 H 35.0373 -4.15898 -0.376645 0
M  V30 342 N 35.4744 -0.807222 -1.35358 0
M  V30 343 C 36.8904 -0.491038 -1.51858 0
M  V30 344 C 37.0904 0.987648 -1.75635 0
M  V30 345 O 36.1464 1.77265 -1.79815 0
M  V30 346 C 37.4594 -1.33695 -2.69344 0
M  V30 347 C 39.0074 -1.33246 -2.83222 0
M  V30 348 C 39.4824 -2.1625 -4.03733 0
M  V30 349 N 40.9734 -2.1379 -4.10911 0
M  V30 350 C 41.7084 -2.74772 -5.03277 0
M  V30 351 N 41.2044 -3.44684 -6.0097 0
M  V30 352 N 42.9974 -2.6441 -4.96028 0
M  V30 353 H 35.1484 -1.76485 -1.18181 0
M  V30 354 H 37.4114 -0.751199 -0.578276 0
M  V30 355 H 37.1174 -2.38634 -2.58354 0
M  V30 356 H 36.9914 -0.990618 -3.6396 0
M  V30 357 H 39.3784 -0.290911 -2.93663 0
M  V30 358 H 39.4594 -1.71866 -1.89461 0
M  V30 359 H 39.1034 -3.20445 -3.94052 0
M  V30 360 H 39.0334 -1.74989 -4.96675 0
M  V30 361 H 41.5244 -1.62923 -3.40976 0
M  V30 362 H 41.8374 -3.88501 -6.68047 0
M  V30 363 H 40.1824 -3.48788 -6.01142 0
M  V30 364 H 43.3734 -2.0938 -4.18662 0
M  V30 365 H 43.5464 -3.12225 -5.6782 0
M  V30 366 N 36.9525 1.47285 -0.560781 0
M  V30 367 C 37.8995 2.30058 0.18491 0
M  V30 368 C 38.8695 1.39281 0.904986 0
M  V30 369 O 40.0545 1.68241 0.899979 0
M  V30 370 C 37.1945 3.23317 1.20666 0
M  V30 371 C 36.3075 4.29186 0.492285 0
M  V30 372 C 35.4425 5.09592 1.49964 0
M  V30 373 C 34.4815 6.07232 0.770439 0
M  V30 374 N 33.6185 6.80584 1.72479 0
M  V30 375 H 38.4585 2.93302 -0.527048 0
M  V30 376 H 35.9955 1.44568 -0.271738 0
M  V30 377 H 37.9535 3.75811 1.81168 0
M  V30 378 H 36.5835 2.61929 1.88661 0
M  V30 379 H 35.6355 3.7972 -0.227333 0
M  V30 380 H 36.9475 4.98738 -0.0787929 0
M  V30 381 H 36.1015 5.66254 2.17809 0
M  V30 382 H 34.8405 4.3995 2.10464 0
M  V30 383 H 33.8455 5.49745 0.0780846 0
M  V30 384 H 35.0705 6.78884 0.171134 0
M  V30 385 H 33.0165 6.1367 2.3183 0
M  V30 386 H 32.9335 7.46319 1.20596 0
M  V30 387 H 34.2015 7.41818 2.39428 0
M  V30 388 N 38.4306 0.297415 1.54768 0
M  V30 389 C 39.6556 -0.318435 2.04941 0
M  V30 390 C 40.0806 -1.4701 1.17345 0
M  V30 391 O 39.4386 -1.80436 0.176758 0
M  V30 392 C 39.4866 -0.755749 3.52592 0
M  V30 393 O 38.5906 -1.86088 3.68028 0
M  V30 394 H 37.9316 -0.062421 0.661059 0
M  V30 395 H 40.4616 0.438215 1.99852 0
M  V30 396 H 40.4716 -1.04552 3.94376 0
M  V30 397 H 39.1466 0.0867233 4.1581 0
M  V30 398 H 37.7236 -1.57193 3.38149 0
M  V30 399 N 39.9087 -1.5758 0.0250728 0
M  V30 400 C 40.8717 -2.08896 -0.943139 0
M  V30 401 C 41.8717 -1.00321 -1.25668 0
M  V30 402 O 43.0617 -1.26495 -1.19769 0
M  V30 403 C 40.1937 -2.55143 -2.26086 0
M  V30 404 H 41.3867 -2.95723 -0.498775 0
M  V30 405 H 38.9397 -1.54703 -0.222888 0
M  V30 406 H 39.6747 -1.71633 -2.75159 0
M  V30 407 H 39.4597 -3.34461 -2.04641 0
M  V30 408 H 40.9497 -2.95083 -2.95492 0
M  V30 409 N 41.3868 0.248026 -1.55636 0
M  V30 410 C 42.6348 0.974295 -1.77065 0
M  V30 411 C 42.9558 1.85897 -0.588849 0
M  V30 412 O 42.2258 1.91868 0.395407 0
M  V30 413 H 40.8058 0.362733 -0.653019 0
M  V30 414 H 43.4678 0.266244 -1.93073 0
M  V30 415 H 42.5638 1.59667 -2.68166 0
M  V30 416 N 42.8649 1.48995 0.513639 0
M  V30 417 C 43.8279 1.64229 1.59879 0
M  V30 418 C 44.8279 0.514696 1.5234 0
M  V30 419 O 46.0179 0.78087 1.55718 0
M  V30 420 C 43.1499 1.62783 2.99524 0
M  V30 421 H 44.3429 2.61004 1.47705 0
M  V30 422 H 41.8959 1.37837 0.736936 0
M  V30 423 H 42.6309 0.675461 3.17188 0
M  V30 424 H 42.4159 2.4466 3.06404 0
M  V30 425 H 43.9059 1.76669 3.78388 0
M  V30 426 N 44.343 -0.763751 1.37857 0
M  V30 427 C 45.306 -1.85889 1.34081 0
M  V30 428 C 46.306 -1.58949 0.243277 0
M  V30 429 O 47.496 -1.66882 0.499589 0
M  V30 430 C 44.628 -3.23176 1.08489 0
M  V30 431 H 45.821 -1.90648 2.31502 0
M  V30 432 H 43.374 -0.964367 1.23003 0
M  V30 433 H 44.109 -3.24091 0.116318 0
M  V30 434 H 43.894 -3.44124 1.8794 0
M  V30 435 H 45.384 -4.03254 1.08517 0
M  V30 436 N 45.8211 -1.22559 -0.990812 0
M  V30 437 C 46.7681 -0.997519 -2.0813 0
M  V30 438 C 47.7381 0.0814702 -1.659 0
M  V30 439 O 48.9231 -0.0685424 -1.90677 0
M  V30 440 C 46.0631 -0.583615 -3.40129 0
M  V30 441 C 45.1761 -1.7336 -3.9569 0
M  V30 442 C 44.3111 -1.26748 -5.15857 0
M  V30 443 C 43.3501 -2.38888 -5.63559 0
M  V30 444 N 42.4871 -1.93308 -6.74964 0
M  V30 445 H 47.3271 -1.93099 -2.26973 0
M  V30 446 H 44.8641 -0.962114 -1.11273 0
M  V30 447 H 46.8221 -0.324801 -4.15934 0
M  V30 448 H 45.4521 0.312845 -3.2128 0
M  V30 449 H 44.5041 -2.10669 -3.16738 0
M  V30 450 H 45.8161 -2.57704 -4.27071 0
M  V30 451 H 44.9701 -0.966173 -5.98957 0
M  V30 452 H 43.7091 -0.394272 -4.86104 0
M  V30 453 H 42.7141 -2.69805 -4.79046 0
M  V30 454 H 43.9391 -3.26728 -5.95336 0
M  V30 455 H 41.8851 -1.08352 -6.4699 0
M  V30 456 H 41.8021 -2.71217 -7.05675 0
M  V30 457 H 43.0701 -1.66252 -7.61564 0
M  V30 458 N 47.2992 1.18797 -1.03562 0
M  V30 459 C 48.7152 1.40671 -0.753917 0
M  V30 460 C 48.9152 1.9043 0.658686 0
M  V30 461 O 47.9712 2.08538 1.42366 0
M  V30 462 C 49.2842 2.41192 -1.79574 0
M  V30 463 C 50.8322 2.54928 -1.81606 0
M  V30 464 C 51.3072 3.58709 -2.84766 0
M  V30 465 N 52.7982 3.66212 -2.83625 0
M  V30 466 C 53.5332 4.46225 -3.60098 0
M  V30 467 N 53.0292 5.29888 -4.46308 0
M  V30 468 N 54.8222 4.40939 -3.4861 0
M  V30 469 H 46.9732 0.848221 -1.94728 0
M  V30 470 H 49.2362 0.435081 -0.842264 0
M  V30 471 H 48.9422 2.11669 -2.80872 0
M  V30 472 H 48.8162 3.40467 -1.62365 0
M  V30 473 H 51.2032 2.83771 -0.809817 0
M  V30 474 H 51.2842 1.55784 -2.02891 0
M  V30 475 H 50.9282 3.30607 -3.85566 0
M  V30 476 H 50.8582 4.57519 -2.60737 0
M  V30 477 H 53.3492 3.06466 -2.21105 0
M  V30 478 H 53.6622 5.88078 -5.01382 0
M  V30 479 H 52.0072 5.29326 -4.50377 0
M  V30 480 H 55.1982 3.74624 -2.80668 0
M  V30 481 H 55.3712 5.03056 -4.08459 0
M  V30 482 N 48.7773 0.814389 1.34928 0
M  V30 483 C 49.7243 0.22822 2.29669 0
M  V30 484 C 50.6943 -0.642164 1.53184 0
M  V30 485 O 51.8793 -0.585605 1.81591 0
M  V30 486 C 49.0193 -0.61089 3.3965 0
M  V30 487 C 48.1323 0.280792 4.31086 0
M  V30 488 C 47.2673 -0.567067 5.28165 0
M  V30 489 C 46.3063 0.324531 6.11239 0
M  V30 490 N 45.4433 -0.483756 7.00431 0
M  V30 491 H 50.2833 1.04153 2.79206 0
M  V30 492 H 47.8203 0.525133 1.37407 0
M  V30 493 H 49.7783 -1.11263 4.0209 0
M  V30 494 H 48.4083 -1.38939 2.91369 0
M  V30 495 H 47.4603 0.900688 3.69583 0
M  V30 496 H 48.7723 0.966723 4.89342 0
M  V30 497 H 47.9263 -1.13363 5.96015 0
M  V30 498 H 46.6653 -1.28654 4.70425 0
M  V30 499 H 45.6703 0.903298 5.42329 0
M  V30 500 H 46.8953 1.04198 6.71059 0
M  V30 501 H 44.8413 -1.18706 6.45171 0
M  V30 502 H 44.7583 0.143965 7.55863 0
M  V30 503 H 46.0263 -1.03334 7.7262 0
M  V30 504 N 50.2554 -1.46986 0.568584 0
M  V30 505 C 51.2184 -2.28624 -0.162366 0
M  V30 506 C 52.2184 -1.37596 -0.832103 0
M  V30 507 O 53.4084 -1.60115 -0.68622 0
M  V30 508 C 50.5404 -3.17596 -1.23878 0
M  V30 509 H 51.7334 -2.94722 0.554899 0
M  V30 510 H 49.2864 -1.52863 0.325976 0
M  V30 511 H 50.0214 -2.56214 -1.98808 0
M  V30 512 H 49.8064 -3.846 -0.763219 0
M  V30 513 H 51.2964 -3.79078 -1.75185 0
M  V30 514 N 51.7335 -0.305618 -1.54608 0
M  V30 515 C 52.9585 0.307562 -2.05107 0
M  V30 516 C 53.3835 1.46385 -1.18123 0
M  V30 517 O 52.7415 1.8034 -0.186324 0
M  V30 518 C 52.7895 0.73704 -3.52987 0
M  V30 519 O 51.8935 1.84134 -3.6901 0
M  V30 520 H 51.2345 0.0589143 -0.661381 0
M  V30 521 H 53.7645 -0.448807 -1.99617 0
M  V30 522 H 53.7745 1.02459 -3.94925 0
M  V30 523 H 52.4495 -0.108773 -4.15758 0
M  V30 524 H 51.0265 1.55398 -3.38978 0
M  V30 525 N 53.2116 1.57565 -0.0334293 0
M  V30 526 C 54.4596 1.91598 0.642999 0
M  V30 527 C 54.7806 0.910847 1.7242 0
M  V30 528 O 54.0506 -0.0469931 1.95844 0
M  V30 529 H 52.6306 0.707228 0.240496 0
M  V30 530 H 55.2926 1.94726 -0.0822488 0
M  V30 531 H 54.3886 2.92336 1.09298 0
M  V30 532 N 54.6897 -0.239769 1.55765 0
M  V30 533 C 56.1007 -0.808263 1.68297 0
M  V30 534 C 56.4517 -1.85736 0.632181 0
M  V30 535 O 55.5767 -2.15277 -0.220204 0
M  V30 536 C 56.1717 -1.47284 3.05111 0
M  V30 537 C 54.7307 -1.98895 3.19559 0
M  V30 538 C 53.8777 -0.842575 2.64189 0
M  V30 539 H 56.8287 -0.0154422 1.58692 0
M  V30 540 H 56.8497 -2.34111 2.99954 0
M  V30 541 H 56.3617 -0.709053 3.81568 0
M  V30 542 H 54.4627 -2.78132 2.47938 0
M  V30 543 H 54.5757 -2.18143 4.26556 0
M  V30 544 H 52.9397 -1.24501 2.22197 0
M  V30 545 H 53.7227 -0.0917552 3.43177 0
M  V30 546 N 56.1678 -1.49265 -0.50573 0
M  V30 547 C 57.5788 -1.51769 -1.08734 0
M  V30 548 C 57.9298 -0.301192 -1.93874 0
M  V30 549 O 57.0548 0.589456 -2.08217 0
M  V30 550 C 57.6498 -2.75017 -1.97867 0
M  V30 551 C 56.2088 -2.80314 -2.51199 0
M  V30 552 C 55.3558 -2.4562 -1.28709 0
M  V30 553 H 58.3068 -1.56031 -0.289855 0
M  V30 554 H 58.3278 -2.5491 -2.82491 0
M  V30 555 H 57.8398 -3.63539 -1.35873 0
M  V30 556 H 55.9408 -1.96061 -3.16845 0
M  V30 557 H 56.0538 -3.82366 -2.88675 0
M  V30 558 H 54.4178 -1.97297 -1.61078 0
M  V30 559 H 55.2008 -3.36411 -0.6843 0
M  V30 560 N 57.6459 0.756429 -1.3826 0
M  V30 561 C 58.8919 1.51772 -1.34511 0
M  V30 562 C 59.2249 1.94089 0.0656691 0
M  V30 563 O 58.4999 1.65221 1.02626 0
M  V30 564 C 58.7829 2.77226 -2.29821 0
M  V30 565 C 58.6359 2.41065 -3.79747 0
M  V30 566 C 59.9549 3.79236 -2.23312 0
M  V30 567 H 57.0739 0.550578 -0.489931 0
M  V30 568 H 59.7159 0.866607 -1.69086 0
M  V30 569 H 57.8659 3.32784 -2.00467 0
M  V30 570 H 59.5379 1.91303 -4.19763 0
M  V30 571 H 57.7809 1.7356 -3.97567 0
M  V30 572 H 58.4519 3.3081 -4.41892 0
M  V30 573 H 60.9279 3.3321 -2.49219 0
M  V30 574 H 59.8039 4.64714 -2.92116 0
M  V30 575 H 60.0649 4.24615 -1.23102 0
M  V30 576 N 59.124 1.23083 0.984299 0
M  V30 577 C 60.349 1.088 1.76571 0
M  V30 578 C 60.774 -0.356657 1.84688 0
M  V30 579 O 60.132 -1.25788 1.30565 0
M  V30 580 C 60.18 1.71371 3.17277 0
M  V30 581 O 59.284 0.973213 4.00752 0
M  V30 582 H 58.625 0.381599 0.543395 0
M  V30 583 H 61.155 1.63057 1.23587 0
M  V30 584 H 61.165 1.76449 3.67872 0
M  V30 585 H 59.84 2.76493 3.10684 0
M  V30 586 H 58.417 0.999078 3.59267 0
M  V30 587 N 60.6021 -1.18246 1.0419 0
M  V30 588 C 61.5121 -2.25574 0.644476 0
M  V30 589 C 62.5281 -1.70845 -0.329826 0
M  V30 590 O 63.7041 -2.00554 -0.184443 0
M  V30 591 C 60.7691 -3.46697 0.014877 0
M  V30 592 C 59.8301 -4.16554 1.03834 0
M  V30 593 C 59.0631 -5.31894 0.438692 0
M  V30 594 O 59.2861 -5.65385 -0.754752 0
M  V30 595 O 58.2201 -5.90459 1.168 0
M  V30 596 H 62.0461 -2.61836 1.53869 0
M  V30 597 H 59.6311 -1.25352 0.812854 0
M  V30 598 H 61.5131 -4.20062 -0.335538 0
M  V30 599 H 60.1881 -3.12255 -0.853138 0
M  V30 600 H 59.0951 -3.45251 1.44057 0
M  V30 601 H 60.4281 -4.54998 1.87716 0
M  V30 602 N 62.0802 -0.821533 -1.34494 0
M  V30 603 C 63.0102 -0.257138 -2.3208 0
M  V30 604 C 63.9912 0.625645 -1.58176 0
M  V30 605 O 65.1762 0.552811 -1.86166 0
M  V30 606 C 62.3062 0.582958 -3.42372 0
M  V30 607 C 61.2602 -0.202571 -4.2752 0
M  V30 608 C 60.5862 0.760179 -5.29269 0
M  V30 609 C 61.8862 -1.40998 -5.02908 0
M  V30 610 H 63.5802 -1.07247 -2.79532 0
M  V30 611 H 61.1262 -0.517163 -1.34393 0
M  V30 612 H 63.0792 0.987972 -4.09655 0
M  V30 613 H 61.8032 1.43133 -2.93565 0
M  V30 614 H 60.4622 -0.588936 -3.61838 0
M  V30 615 H 60.1102 1.60447 -4.76724 0
M  V30 616 H 59.8102 0.238809 -5.87115 0
M  V30 617 H 61.3342 1.16308 -5.9942 0
M  V30 618 H 62.7482 -1.07905 -5.63054 0
M  V30 619 H 61.1452 -1.86689 -5.70322 0
M  V30 620 H 62.2152 -2.1889 -4.32684 0
M  V30 621 N 63.5583 1.46682 -0.576371 0
M  V30 622 C 64.8073 2.01619 -0.0572825 0
M  V30 623 C 65.1203 1.45417 1.30818 0
M  V30 624 O 66.3263 1.92133 1.91825 0
M  V30 625 C 64.7823 3.59863 -0.0518371 0
M  V30 626 C 64.3903 4.25059 -1.41523 0
M  V30 627 C 66.1343 4.2248 0.413639 0
M  V30 628 C 64.0413 5.75364 -1.36785 0
M  V30 629 H 62.9713 0.753794 -0.0176448 0
M  V30 630 H 65.6223 1.68481 -0.727076 0
M  V30 631 H 64.0043 3.90048 0.683994 0
M  V30 632 H 65.1783 4.06491 -2.17029 0
M  V30 633 H 63.4933 3.7451 -1.8202 0
M  V30 634 H 66.0903 5.3265 0.467779 0
M  V30 635 H 66.4333 3.90976 1.42982 0
M  V30 636 H 66.9663 3.96897 -0.267929 0
M  V30 637 H 63.7053 6.11518 -2.36063 0
M  V30 638 H 63.2253 5.96214 -0.654895 0
M  V30 639 H 64.9043 6.37955 -1.07805 0
M  V30 640 N 65.0364 0.313813 1.54444 0
M  V30 641 C 66.2644 -0.293918 2.04802 0
M  V30 642 C 66.6794 -1.46537 1.19047 0
M  V30 643 O 66.0364 -1.81182 0.218939 0
M  V30 644 C 66.0874 -0.737806 3.53891 0
M  V30 645 O 65.8084 0.387038 4.36387 0
M  V30 646 C 67.3094 -1.40936 4.203 0
M  V30 647 H 64.5294 -0.0620057 0.668129 0
M  V30 648 H 67.0734 0.457169 1.99324 0
M  V30 649 H 65.2284 -1.43889 3.59687 0
M  V30 650 H 65.6424 0.0391274 5.24485 0
M  V30 651 H 67.1164 -1.67099 5.26101 0
M  V30 652 H 67.5934 -2.35355 3.70816 0
M  V30 653 H 68.1994 -0.751117 4.18615 0
M  V30 654 N 66.5145 -1.57545 0.0417849 0
M  V30 655 C 67.4615 -2.10977 -0.935805 0
M  V30 656 C 68.4315 -1.01486 -1.31491 0
M  V30 657 O 69.6165 -1.2898 -1.40602 0
M  V30 658 C 66.7565 -2.65169 -2.2086 0
M  V30 659 C 65.8695 -3.88714 -1.88482 0
M  V30 660 C 65.0045 -4.31254 -3.1015 0
M  V30 661 C 64.0435 -5.47524 -2.7365 0
M  V30 662 N 63.1805 -5.85162 -3.87982 0
M  V30 663 H 68.0205 -2.94218 -0.473249 0
M  V30 664 H 65.5575 -1.45415 -0.221981 0
M  V30 665 H 67.5155 -2.94685 -2.95325 0
M  V30 666 H 66.1455 -1.8474 -2.64709 0
M  V30 667 H 65.1975 -3.65849 -1.04205 0
M  V30 668 H 66.5095 -4.73245 -1.57608 0
M  V30 669 H 65.6635 -4.62273 -3.92923 0
M  V30 670 H 64.4025 -3.45516 -3.44195 0
M  V30 671 H 63.4075 -5.16187 -1.89291 0
M  V30 672 H 64.6325 -6.34971 -2.40807 0
M  V30 673 H 62.5785 -5.02377 -4.21846 0
M  V30 674 H 62.4955 -6.64362 -3.60775 0
M  V30 675 H 63.7635 -6.20791 -4.71422 0
M  V30 676 N 67.9926 0.231505 -1.5589 0
M  V30 677 C 68.9556 1.27028 -1.90779 0
M  V30 678 C 69.9556 1.40308 -0.785507 0
M  V30 679 O 71.1456 1.38744 -1.05336 0
M  V30 680 C 68.2776 2.64566 -2.14983 0
M  V30 681 H 69.4706 0.973017 -2.83677 0
M  V30 682 H 67.0236 0.471486 -1.49019 0
M  V30 683 H 67.7586 2.99406 -1.24604 0
M  V30 684 H 67.5436 2.56305 -2.96732 0
M  V30 685 H 69.0336 3.39543 -2.43105 0
M  V30 686 N 69.4707 1.49531 0.497807 0
M  V30 687 C 70.7167 1.59415 1.25358 0
M  V30 688 C 71.0497 0.281422 1.9215 0
M  V30 689 O 70.3247 -0.715249 1.80871 0
M  V30 690 C 70.6077 2.75566 2.3181 0
M  V30 691 C 70.4607 4.16642 1.69498 0
M  V30 692 C 71.7797 2.87347 3.33346 0
M  V30 693 H 68.8987 0.580244 0.454408 0
M  V30 694 H 71.5407 1.81827 0.551262 0
M  V30 695 H 69.6907 2.56587 2.91711 0
M  V30 696 H 71.3627 4.47145 1.13399 0
M  V30 697 H 69.6057 4.22141 0.998978 0
M  V30 698 H 70.2767 4.93792 2.46725 0
M  V30 699 H 72.7527 3.04634 2.83438 0
M  V30 700 H 71.6287 3.70289 4.05188 0
M  V30 701 H 71.8897 1.96834 3.95865 0
M  V30 702 N 70.9488 -0.749086 1.3866 0
M  V30 703 C 71.9118 -1.84457 1.36045 0
M  V30 704 C 72.9118 -1.58682 0.260122 0
M  V30 705 O 74.1018 -1.66343 0.517261 0
M  V30 706 C 71.2338 -3.22008 1.11911 0
M  V30 707 H 72.4268 -1.88182 2.33512 0
M  V30 708 H 69.9798 -0.951266 1.24019 0
M  V30 709 H 70.7148 -3.2395 0.150686 0
M  V30 710 H 70.4998 -3.42111 1.91579 0
M  V30 711 H 71.9898 -4.0208 1.12788 0
M  V30 712 N 72.4269 -1.23603 -0.977757 0
M  V30 713 C 73.3899 -1.02069 -2.05218 0
M  V30 714 C 74.3899 0.0184305 -1.60789 0
M  V30 715 O 75.5799 -0.221569 -1.72785 0
M  V30 716 C 72.7119 -0.544926 -3.36517 0
M  V30 717 H 73.9049 -1.9742 -2.25755 0
M  V30 718 H 71.4579 -1.05684 -1.15155 0
M  V30 719 H 72.1929 0.412241 -3.21669 0
M  V30 720 H 71.9779 -1.2948 -3.70105 0
M  V30 721 H 73.4679 -0.414985 -4.15533 0
M  V30 722 N 73.905 1.17692 -1.04816 0
M  V30 723 C 75.13 1.92327 -0.776207 0
M  V30 724 C 75.555 1.76082 0.661581 0
M  V30 725 O 74.913 1.076 1.45917 0
M  V30 726 C 74.961 3.41539 -1.15687 0
M  V30 727 O 74.065 4.11402 -0.286775 0
M  V30 728 H 73.406 0.599735 -0.284981 0
M  V30 729 H 75.936 1.49201 -1.4 0
M  V30 730 H 75.946 3.92269 -1.12202 0
M  V30 731 H 74.621 3.52684 -2.20425 0
M  V30 732 H 73.198 3.70939 -0.381903 0
M  V30 733 N 75.3831 0.828654 1.34056 0
M  V30 734 C 76.3301 0.252567 2.29414 0
M  V30 735 C 77.3001 -0.62588 1.53857 0
M  V30 736 O 78.4851 -0.566312 1.82202 0
M  V30 737 C 75.6251 -0.574831 3.40279 0
M  V30 738 C 74.7381 0.326499 4.30764 0
M  V30 739 C 73.8731 -0.511016 5.28736 0
M  V30 740 C 72.9121 0.389342 6.1086 0
M  V30 741 N 72.0491 -0.409439 7.00905 0
M  V30 742 H 76.8891 1.07108 2.78086 0
M  V30 743 H 74.4261 0.539677 1.36843 0
M  V30 744 H 76.3841 -1.06992 4.03248 0
M  V30 745 H 75.0141 -1.35841 2.92826 0
M  V30 746 H 74.0661 0.939837 3.68607 0
M  V30 747 H 75.3781 1.01857 4.88289 0
M  V30 748 H 74.5321 -1.07035 5.97184 0
M  V30 749 H 73.2711 -1.23657 4.71763 0
M  V30 750 H 72.2761 0.960769 5.4134 0
M  V30 751 H 73.5011 1.1131 6.69916 0
M  V30 752 H 71.4471 -1.11856 6.46393 0
M  V30 753 H 71.3641 0.224126 7.55668 0
M  V30 754 H 72.6321 -0.951336 7.73673 0
M  V30 755 N 76.8612 -1.46375 0.584142 0
M  V30 756 C 77.7712 -2.34115 -0.150728 0
M  V30 757 C 78.7872 -1.49838 -0.884567 0
M  V30 758 O 79.9632 -1.82704 -0.847429 0
M  V30 759 C 77.0282 -3.2705 -1.15062 0
M  V30 760 C 76.0892 -4.27228 -0.421293 0
M  V30 761 C 75.3222 -5.15722 -1.37355 0
M  V30 762 O 75.5452 -5.07176 -2.61014 0
M  V30 763 O 74.4792 -5.95383 -0.883355 0
M  V30 764 H 78.3052 -2.98309 0.569708 0
M  V30 765 H 75.8902 -1.45373 0.344535 0
M  V30 766 H 77.7722 -3.84381 -1.72712 0
M  V30 767 H 76.4472 -2.65451 -1.8525 0
M  V30 768 H 75.3542 -3.7358 0.197085 0
M  V30 769 H 76.6872 -4.91616 0.239641 0
M  V30 770 N 78.3393 -0.321999 -1.54275 0
M  V30 771 C 79.7553 0.0306999 -1.5957 0
M  V30 772 C 79.9553 1.50614 -1.33857 0
M  V30 773 O 79.0113 2.2619 -1.12223 0
M  V30 774 C 80.3243 -0.386122 -2.98211 0
M  V30 775 C 81.8723 -0.336647 -3.11184 0
M  V30 776 C 82.3473 -0.728607 -4.52167 0
M  V30 777 N 83.8383 -0.681952 -4.58152 0
M  V30 778 C 84.5733 -0.957449 -5.6535 0
M  V30 779 N 84.0693 -1.3 -6.80494 0
M  V30 780 N 85.8623 -0.883113 -5.55119 0
M  V30 781 H 78.0133 -1.28332 -1.69247 0
M  V30 782 H 80.2763 -0.521716 -0.791528 0
M  V30 783 H 79.9823 -1.41404 -3.22022 0
M  V30 784 H 79.8563 0.249662 -3.76373 0
M  V30 785 H 82.2433 0.682058 -2.8711 0
M  V30 786 H 82.3243 -1.00734 -2.3513 0
M  V30 787 H 81.9683 -1.74522 -4.76974 0
M  V30 788 H 81.8983 -0.0356152 -5.26588 0
M  V30 789 H 84.3893 -0.428985 -3.75457 0
M  V30 790 H 84.7023 -1.49563 -7.58189 0
M  V30 791 H 83.0473 -1.33824 -6.81994 0
M  V30 792 H 86.2383 -0.615001 -4.64042 0
M  V30 793 H 86.4113 -1.10118 -6.38575 0
M  V30 794 N 79.8174 1.5752 -0.0501392 0
M  V30 795 C 81.0424 1.97376 0.636997 0
M  V30 796 C 81.4674 0.927466 1.63645 0
M  V30 797 O 80.8254 -0.10941 1.8097 0
M  V30 798 C 80.8734 3.36304 1.30123 0
M  V30 799 O 79.9774 3.34156 2.41689 0
M  V30 800 H 79.3184 0.642998 0.165679 0
M  V30 801 H 81.8484 2.04258 -0.118233 0
M  V30 802 H 81.8584 3.73008 1.65315 0
M  V30 803 H 80.5334 4.11993 0.568746 0
M  V30 804 H 79.1104 3.09196 2.08451 0
M  V30 805 N 81.2955 -0.223234 1.56011 0
M  V30 806 C 82.5435 -0.946003 1.78592 0
M  V30 807 C 82.8645 -1.84936 0.618349 0
M  V30 808 O 82.1345 -1.92473 -0.364833 0
M  V30 809 H 80.7145 -0.352298 0.658707 0
M  V30 810 H 83.3765 -0.235494 1.93472 0
M  V30 811 H 82.4725 -1.55381 2.70672 0
M  V30 812 N 82.7736 -1.49793 -0.48987 0
M  V30 813 C 84.0196 -1.60078 -1.24511 0
M  V30 814 C 84.3526 -0.291608 -1.91998 0
M  V30 815 O 83.6276 0.705647 -1.81248 0
M  V30 816 C 83.9106 -2.76791 -2.30345 0
M  V30 817 C 83.7636 -4.17535 -1.67286 0
M  V30 818 C 85.0826 -2.89111 -3.31817 0
M  V30 819 H 82.2016 -0.582645 -0.451324 0
M  V30 820 H 84.8436 -1.82117 -0.541612 0
M  V30 821 H 82.9936 -2.5813 -2.90346 0
M  V30 822 H 84.6656 -4.4774 -1.11026 0
M  V30 823 H 82.9086 -4.22665 -0.976577 0
M  V30 824 H 83.5796 -4.95094 -2.44103 0
M  V30 825 H 86.0556 -3.06133 -2.81819 0
M  V30 826 H 84.9316 -3.72433 -4.03219 0
M  V30 827 H 85.1926 -1.9893 -3.94815 0
M  V30 828 N 84.2517 0.741722 -1.39055 0
M  V30 829 C 85.4767 1.53607 -1.39354 0
M  V30 830 C 85.9017 1.88096 0.0116905 0
M  V30 831 O 85.2597 1.5143 0.996924 0
M  V30 832 C 85.3077 2.80441 -2.26682 0
M  V30 833 O 84.4117 3.76088 -1.69208 0
M  V30 834 H 83.7527 0.464142 -0.474835 0
M  V30 835 H 86.2827 0.915665 -1.82967 0
M  V30 836 H 86.2927 3.29246 -2.40959 0
M  V30 837 H 84.9677 2.5467 -3.2881 0
M  V30 838 H 83.5447 3.34833 -1.64138 0
M  V30 839 N 85.7298 1.2412 0.971189 0
M  V30 840 C 86.6598 1.05508 2.08304 0
M  V30 841 C 87.6408 -0.0308864 1.70072 0
M  V30 842 O 88.8258 0.135521 1.93727 0
M  V30 843 C 85.9558 0.655365 3.4106 0
M  V30 844 C 84.9098 1.68971 3.93234 0
M  V30 845 C 84.2358 1.14516 5.22293 0
M  V30 846 C 85.5358 3.08487 4.21465 0
M  V30 847 H 87.2298 1.98507 2.24132 0
M  V30 848 H 84.7758 0.955821 1.07704 0
M  V30 849 H 86.7288 0.51217 4.18276 0
M  V30 850 H 85.4528 -0.31032 3.25122 0
M  V30 851 H 84.1118 1.82106 3.18171 0
M  V30 852 H 83.7598 0.170189 5.02712 0
M  V30 853 H 83.4598 1.83635 5.58168 0
M  V30 854 H 84.9838 1.01401 6.02121 0
M  V30 855 H 86.3978 2.98601 4.89398 0
M  V30 856 H 84.7948 3.74926 4.68562 0
M  V30 857 H 85.8648 3.56787 3.28376 0
M  V30 858 N 87.2079 -1.17134 1.05439 0
M  V30 859 C 88.1709 -2.19439 0.661764 0
M  V30 860 C 89.1709 -1.58199 -0.288042 0
M  V30 861 O 90.3609 -1.74053 -0.0715803 0
M  V30 862 C 87.4929 -3.40889 -0.0276209 0
M  V30 863 H 88.6859 -2.55688 1.56728 0
M  V30 864 H 86.2389 -1.31259 0.848567 0
M  V30 865 H 86.9739 -3.10187 -0.94629 0
M  V30 866 H 86.7589 -3.86586 0.655238 0
M  V30 867 H 88.2489 -4.16603 -0.288342 0
M  V30 868 N 88.686 -0.835752 -1.33615 0
M  V30 869 C 89.649 -0.272 -2.2758 0
M  V30 870 C 90.649 0.557487 -1.50827 0
M  V30 871 O 91.839 0.37173 -1.70188 0
M  V30 872 C 88.971 0.617173 -3.35267 0
M  V30 873 H 90.164 -1.10111 -2.78954 0
M  V30 874 H 87.717 -0.608594 -1.43965 0
M  V30 875 H 88.452 1.46884 -2.89129 0
M  V30 876 H 88.237 0.0237066 -3.92093 0
M  V30 877 H 89.727 1.005 -4.05326 0
M  V30 878 N 90.1641 1.46063 -0.591896 0
M  V30 879 C 91.0941 2.33172 0.123673 0
M  V30 880 C 92.0751 1.45897 0.87453 0
M  V30 881 O 93.2601 1.74698 0.848181 0
M  V30 882 C 90.3901 3.28336 1.13194 0
M  V30 883 C 89.3441 4.25124 0.495324 0
M  V30 884 C 88.6701 5.09863 1.61071 0
M  V30 885 C 89.9701 5.19143 -0.573425 0
M  V30 886 H 91.6641 2.93252 -0.603646 0
M  V30 887 H 89.2101 1.41014 -0.291741 0
M  V30 888 H 91.1631 3.88137 1.64097 0
M  V30 889 H 89.8871 2.66383 1.88965 0
M  V30 890 H 88.5461 3.66599 0.00729452 0
M  V30 891 H 88.1941 4.44288 2.35832 0
M  V30 892 H 87.8941 5.75417 1.19035 0
M  V30 893 H 89.4181 5.72529 2.12233 0
M  V30 894 H 90.8321 5.73106 -0.1491 0
M  V30 895 H 89.2291 5.93089 -0.914636 0
M  V30 896 H 90.2991 4.62519 -1.45617 0
M  V30 897 N 91.6422 0.330177 1.54103 0
M  V30 898 C 92.5892 -0.532762 2.24567 0
M  V30 899 C 93.5592 -1.10635 1.23892 0
M  V30 900 O 94.7442 -1.14546 1.5259 0
M  V30 901 C 91.8842 -1.6845 3.01195 0
M  V30 902 C 90.9972 -1.13951 4.167 0
M  V30 903 C 90.1322 -2.25746 4.80845 0
M  V30 904 C 89.1712 -1.6853 5.88442 0
M  V30 905 N 88.3082 -2.74014 6.46421 0
M  V30 906 H 93.1482 0.0746905 2.97906 0
M  V30 907 H 90.6852 0.048632 1.4702 0
M  V30 908 H 92.6432 -2.36234 3.43874 0
M  V30 909 H 91.2732 -2.26314 2.30178 0
M  V30 910 H 90.3252 -0.35301 3.78758 0
M  V30 911 H 91.6372 -0.680892 4.94131 0
M  V30 912 H 90.7912 -3.01422 5.26526 0
M  V30 913 H 89.5302 -2.74947 4.0281 0
M  V30 914 H 88.5352 -0.913543 5.42157 0
M  V30 915 H 89.7602 -1.20198 6.68378 0
M  V30 916 H 87.7062 -3.22494 5.71256 0
M  V30 917 H 87.6232 -2.32735 7.19285 0
M  V30 918 H 88.8912 -3.49499 6.96757 0
M  V30 919 N 93.1203 -1.57491 0.0584922 0
M  V30 920 C 94.0673 -2.11958 -0.913376 0
M  V30 921 C 95.0373 -1.02875 -1.30407 0
M  V30 922 O 96.2223 -1.30464 -1.39226 0
M  V30 923 C 93.3623 -2.67497 -2.18035 0
M  V30 924 C 92.4753 -3.90691 -1.84349 0
M  V30 925 C 91.6103 -4.3452 -3.05559 0
M  V30 926 C 90.6493 -5.50395 -2.67827 0
M  V30 927 N 89.7863 -5.89244 -3.81754 0
M  V30 928 H 94.6263 -2.94704 -0.442017 0
M  V30 929 H 92.1633 -1.45643 -0.206545 0
M  V30 930 H 94.1213 -2.978 -2.92183 0
M  V30 931 H 92.7513 -1.87537 -2.62735 0
M  V30 932 H 91.8033 -3.66934 -1.00319 0
M  V30 933 H 93.1153 -4.7489 -1.5258 0
M  V30 934 H 92.2693 -4.66414 -3.87998 0
M  V30 935 H 91.0083 -3.49147 -3.40511 0
M  V30 936 H 90.0133 -5.18165 -1.83806 0
M  V30 937 H 91.2383 -6.3749 -2.34059 0
M  V30 938 H 89.1843 -5.06823 -4.16493 0
M  V30 939 H 89.1013 -6.68151 -3.53708 0
M  V30 940 H 90.3693 -6.25756 -4.64811 0
M  V30 941 N 94.5984 0.214957 -1.56127 0
M  V30 942 C 95.5614 1.24997 -1.92116 0
M  V30 943 C 96.5614 1.39467 -0.800344 0
M  V30 944 O 97.7514 1.37619 -1.06802 0
M  V30 945 C 94.8834 2.62271 -2.17777 0
M  V30 946 H 96.0764 0.942875 -2.84693 0
M  V30 947 H 93.6294 0.455654 -1.49511 0
M  V30 948 H 94.3644 2.98068 -1.27773 0
M  V30 949 H 94.1494 2.53143 -2.99434 0
M  V30 950 H 95.6394 3.36946 -2.46693 0
M  V30 951 N 96.0765 1.50051 0.48192 0
M  V30 952 C 97.0065 1.71046 1.58951 0
M  V30 953 C 97.9875 0.559288 1.60642 0
M  V30 954 O 99.1725 0.797243 1.77081 0
M  V30 955 C 96.3025 1.79462 2.97339 0
M  V30 956 C 95.2565 2.94558 3.10515 0
M  V30 957 C 94.5825 2.88105 4.50444 0
M  V30 958 C 95.8825 4.35227 2.88747 0
M  V30 959 H 97.5765 2.6378 1.41635 0
M  V30 960 H 95.1225 1.26936 0.679942 0
M  V30 961 H 97.0755 1.92734 3.74742 0
M  V30 962 H 95.7995 0.833412 3.15788 0
M  V30 963 H 94.4585 2.80918 2.35543 0
M  V30 964 H 94.1065 1.89853 4.65795 0
M  V30 965 H 93.8065 3.65366 4.60197 0
M  V30 966 H 95.3305 3.03412 5.29881 0
M  V30 967 H 96.7445 4.49449 3.55905 0
M  V30 968 H 95.1415 5.13856 3.09955 0
M  V30 969 H 96.2115 4.48347 1.84696 0
M  V30 970 N 97.5546 -0.734337 1.39446 0
M  V30 971 C 98.5176 -1.83004 1.37994 0
M  V30 972 C 99.5176 -1.58397 0.276938 0
M  V30 973 O 100.708 -1.65785 0.534875 0
M  V30 974 C 97.8396 -3.20802 1.1532 0
M  V30 975 H 99.0326 -1.85694 2.35494 0
M  V30 976 H 96.5856 -0.938059 1.25021 0
M  V30 977 H 97.3206 -3.23772 0.185036 0
M  V30 978 H 97.1056 -3.4006 1.95197 0
M  V30 979 H 98.5956 -4.00862 1.17046 0
M  V30 980 N 99.0327 -1.24633 -0.964593 0
M  V30 981 C 99.9957 -1.0424 -2.04124 0
M  V30 982 C 100.996 0.00137563 -1.608 0
M  V30 983 O 102.186 -0.239883 -1.7254 0
M  V30 984 C 99.3177 -0.580588 -3.3592 0
M  V30 985 H 100.511 -1.99803 -2.23649 0
M  V30 986 H 98.0637 -1.06899 -1.14027 0
M  V30 987 H 98.7987 0.3781 -3.22088 0
M  V30 988 H 98.5837 -1.33398 -3.6871 0
M  V30 989 H 100.074 -0.459034 -4.15069 0
M  V30 990 N 100.511 1.16574 -1.06058 0
M  V30 991 C 101.474 2.19085 -0.673392 0
M  V30 992 C 102.474 1.5835 0.279648 0
M  V30 993 O 103.664 1.74088 0.0623488 0
M  V30 994 C 100.796 3.40899 0.00954234 0
M  V30 995 H 101.989 2.54853 -1.58081 0
M  V30 996 H 99.5418 1.30808 -0.855516 0
M  V30 997 H 100.277 3.10684 0.929826 0
M  V30 998 H 100.062 3.86233 -0.67573 0
M  V30 999 H 101.552 4.1675 0.266245 0
M  V30 1000 N 101.989 0.842826 1.3317 0
M  V30 1001 C 103.237 0.439577 1.97262 0
M  V30 1002 C 103.558 -1.00548 1.67078 0
M  V30 1003 O 102.828 -1.70098 0.971779 0
M  V30 1004 H 101.408 0.159558 0.72976 0
M  V30 1005 H 104.07 1.07665 1.62463 0
M  V30 1006 H 103.166 0.574886 3.0676 0
M  V30 1007 N 103.467 -1.45747 0.599634 0
M  V30 1008 C 104.697 -2.06369 0.0977132 0
M  V30 1009 C 105.105 -1.44624 -1.21985 0
M  V30 1010 O 104.448 -0.551831 -1.75216 0
M  V30 1011 C 104.51 -3.59284 -0.124673 0
M  V30 1012 C 104.174 -4.43318 1.10987 0
M  V30 1013 C 105.171 -4.78796 2.02609 0
M  V30 1014 C 102.856 -4.84194 1.33647 0
M  V30 1015 C 104.85 -5.53997 3.15224 0
M  V30 1016 C 102.537 -5.5915 2.46565 0
M  V30 1017 C 103.535 -5.93968 3.37182 0
M  V30 1018 O 103.223 -6.67405 4.48136 0
M  V30 1019 H 102.955 -0.673122 0.0623153 0
M  V30 1020 H 105.509 -1.88104 0.824981 0
M  V30 1021 H 103.739 -3.75919 -0.906745 0
M  V30 1022 H 105.428 -4.01775 -0.577201 0
M  V30 1023 H 106.194 -4.47781 1.86325 0
M  V30 1024 H 102.073 -4.56534 0.64016 0
M  V30 1025 H 105.617 -5.81091 3.85978 0
M  V30 1026 H 101.514 -5.89579 2.62805 0
M  V30 1027 H 102.282 -6.85847 4.46717 0
M  V30 1028 N 104.945 -0.338344 -1.53925 0
M  V30 1029 C 106.222 0.314774 -1.93051 0
M  V30 1030 C 106.602 1.68669 -1.26941 0
M  V30 1031 O 105.95 2.24636 -0.418445 0
M  V30 1032 C 106.16 0.392249 -3.46789 0
M  V30 1033 C 107.508 0.645554 -4.19664 0
M  V30 1034 O 108.532 0.474575 -3.53024 0
M  V30 1035 O 107.391 0.976408 -5.37707 0
M  V30 1036 H 104.485 0.182598 -0.80659 0
M  V30 1037 H 107.031 -0.389141 -1.65178 0
M  V30 1038 H 105.803 -0.570702 -3.87116 0
M  V30 1039 H 105.426 1.14316 -3.80812 0
M  V30 1040 N 106.423 1.57458 -0.0668435 0
M  V30 1041 C 107.669 1.93587 0.6043 0
M  V30 1042 C 108.002 0.946722 1.69561 0
M  V30 1043 O 107.277 -0.0248516 1.94484 0
M  V30 1044 C 107.56 3.40014 1.18585 0
M  V30 1045 C 107.413 4.49685 0.101529 0
M  V30 1046 C 108.732 3.87154 2.09284 0
M  V30 1047 H 105.851 0.703958 0.218202 0
M  V30 1048 H 108.493 1.89542 -0.131804 0
M  V30 1049 H 106.643 3.43592 1.81319 0
M  V30 1050 H 108.315 4.5823 -0.531279 0
M  V30 1051 H 106.558 4.30059 -0.568487 0
M  V30 1052 H 107.229 5.49266 0.54874 0
M  V30 1053 H 109.705 3.85551 1.56491 0
M  V30 1054 H 108.581 4.90231 2.46911 0
M  V30 1055 H 108.842 3.2481 2.99918 0
M  V30 1056 N 107.901 -0.206675 1.56239 0
M  V30 1057 C 108.811 -1.27686 1.96808 0
M  V30 1058 C 109.827 -1.50455 0.874035 0
M  V30 1059 O 111.003 -1.63295 1.17884 0
M  V30 1060 C 108.068 -2.60358 2.28942 0
M  V30 1061 C 107.129 -2.45762 3.51994 0
M  V30 1062 C 106.362 -3.72108 3.82585 0
M  V30 1063 O 106.585 -4.75776 3.14631 0
M  V30 1064 O 105.519 -3.6833 4.76043 0
M  V30 1065 H 109.345 -0.962593 2.88041 0
M  V30 1066 H 106.93 -0.410746 1.43643 0
M  V30 1067 H 108.812 -3.38687 2.50737 0
M  V30 1068 H 107.487 -2.91435 1.4088 0
M  V30 1069 H 106.394 -1.65584 3.35459 0
M  V30 1070 H 107.727 -2.19621 4.40486 0
M  V30 1071 N 109.379 -1.50304 -0.473955 0
M  V30 1072 C 110.326 -1.68959 -1.57231 0
M  V30 1073 C 111.296 -0.530899 -1.57387 0
M  V30 1074 O 112.481 -0.761133 -1.74961 0
M  V30 1075 C 109.621 -1.7871 -2.95223 0
M  V30 1076 C 108.734 -3.06061 -3.04878 0
M  V30 1077 C 107.869 -3.06626 -4.33767 0
M  V30 1078 C 106.908 -4.28443 -4.37154 0
M  V30 1079 N 106.045 -4.26763 -5.5751 0
M  V30 1080 H 110.885 -2.6273 -1.40631 0
M  V30 1081 H 108.422 -1.30241 -0.683789 0
M  V30 1082 H 110.38 -1.82344 -3.75242 0
M  V30 1083 H 109.01 -0.883806 -3.10465 0
M  V30 1084 H 108.062 -3.11911 -2.17751 0
M  V30 1085 H 109.374 -3.96039 -3.0324 0
M  V30 1086 H 108.528 -3.08973 -5.22131 0
M  V30 1087 H 107.267 -2.14473 -4.3801 0
M  V30 1088 H 106.272 -4.2631 -3.47188 0
M  V30 1089 H 107.497 -5.2182 -4.34605 0
M  V30 1090 H 105.443 -3.37462 -5.62544 0
M  V30 1091 H 105.36 -5.10507 -5.57601 0
M  V30 1092 H 106.628 -4.33253 -6.48006 0
M  V30 1093 N 110.857 0.726932 -1.39834 0
M  V30 1094 C 111.805 1.86235 -1.39353 0
M  V30 1095 C 112.799 1.67144 -0.275555 0
M  V30 1096 O 114.005 1.74387 -0.44601 0
M  V30 1097 H 110.38 0.613174 -0.43534 0
M  V30 1098 H 112.351 1.83756 -2.35109 0
M  V30 1099 C 111.1 3.23995 -1.26185 0
M  V30 1100 H 110.423 3.39285 -2.11484 0
M  V30 1101 H 111.863 4.03609 -1.29907 0
M  V30 1102 C 110.322 3.36888 0.0290018 0
M  V30 1103 O 110.852 3.89152 0.99619 0
M  V30 1104 N 109.058 2.90446 0.0947437 0
M  V30 1105 H 108.605 2.48102 -0.693035 0
M  V30 1106 H 108.563 2.99451 0.957932 0
M  V30 1107 N 112.336 1.25143 0.95797 0
M  V30 1108 C 113.284 1.05019 2.07542 0
M  V30 1109 C 114.278 -0.0178751 1.69391 0
M  V30 1110 O 115.484 0.137472 1.79474 0
M  V30 1111 H 111.859 0.32265 0.679265 0
M  V30 1112 H 113.83 1.99759 2.21673 0
M  V30 1113 C 112.579 0.682074 3.40944 0
M  V30 1114 H 111.902 1.49573 3.70767 0
M  V30 1115 H 113.342 0.580945 4.20001 0
M  V30 1116 C 111.801 -0.611608 3.31302 0
M  V30 1117 O 112.331 -1.65465 3.66038 0
M  V30 1118 N 110.537 -0.595982 2.84423 0
M  V30 1119 H 110.084 0.253192 2.56353 0
M  V30 1120 H 110.042 -1.46173 2.78354 0
M  V30 1121 N 113.814 -1.1601 1.06675 0
M  V30 1122 C 115.039 -1.91068 0.806706 0
M  V30 1123 C 115.464 -1.77112 -0.633485 0
M  V30 1124 O 114.822 -1.09908 -1.44187 0
M  V30 1125 C 114.87 -3.39655 1.21106 0
M  V30 1126 O 113.974 -4.10893 0.352189 0
M  V30 1127 H 113.315 -0.595125 0.294486 0
M  V30 1128 H 115.845 -1.46955 1.42356 0
M  V30 1129 H 115.855 -3.90434 1.18428 0
M  V30 1130 H 114.53 -3.49132 2.26008 0
M  V30 1131 H 113.107 -3.70285 0.440868 0
M  V30 1132 N 115.292 -0.849877 -1.32721 0
M  V30 1133 C 116.708 -0.539102 -1.50219 0
M  V30 1134 C 116.908 0.931271 -1.78689 0
M  V30 1135 O 115.964 1.71455 -1.85363 0
M  V30 1136 C 117.277 -1.42196 -2.64954 0
M  V30 1137 C 118.825 -1.42189 -2.78839 0
M  V30 1138 C 119.3 -2.28985 -3.96648 0
M  V30 1139 N 120.791 -2.26754 -4.03902 0
M  V30 1140 C 121.526 -2.90644 -4.94281 0
M  V30 1141 N 121.022 -3.63629 -5.897 0
M  V30 1142 N 122.815 -2.80057 -4.87365 0
M  V30 1143 H 114.966 -1.80156 -1.12506 0
M  V30 1144 H 117.229 -0.769217 -0.554085 0
M  V30 1145 H 116.935 -2.46733 -2.50631 0
M  V30 1146 H 116.809 -1.10591 -3.60624 0
M  V30 1147 H 119.196 -0.38419 -2.92588 0
M  V30 1148 H 119.277 -1.77807 -1.83898 0
M  V30 1149 H 118.921 -3.32819 -3.83658 0
M  V30 1150 H 118.851 -1.90702 -4.90857 0
M  V30 1151 H 121.342 -1.73688 -3.3562 0
M  V30 1152 H 121.655 -4.09558 -6.55349 0
M  V30 1153 H 120 -3.67737 -5.89741 0
M  V30 1154 H 123.191 -2.22593 -4.11789 0
M  V30 1155 H 123.364 -3.30132 -5.57599 0
M  V30 1156 N 116.77 1.45427 -0.607355 0
M  V30 1157 C 118.019 2.01452 -0.100036 0
M  V30 1158 C 118.332 1.48159 1.27704 0
M  V30 1159 O 119.538 1.96159 1.87707 0
M  V30 1160 C 117.994 3.59672 -0.128158 0
M  V30 1161 C 117.602 4.21962 -1.50507 0
M  V30 1162 C 119.346 4.23262 0.323932 0
M  V30 1163 C 117.253 5.72333 -1.48959 0
M  V30 1164 H 116.183 0.75325 -0.0336299 0
M  V30 1165 H 118.834 1.66901 -0.76265 0
M  V30 1166 H 117.216 3.91411 0.601105 0
M  V30 1167 H 118.39 4.01796 -2.25602 0
M  V30 1168 H 116.705 3.70565 -1.89923 0
M  V30 1169 H 119.302 5.33522 0.354691 0
M  V30 1170 H 119.645 3.93921 1.34656 0
M  V30 1171 H 120.178 3.96239 -0.352056 0
M  V30 1172 H 116.917 6.06373 -2.48981 0
M  V30 1173 H 116.437 5.94691 -0.781214 0
M  V30 1174 H 118.116 6.35525 -1.21313 0
M  V30 1175 N 118.248 0.346503 1.53744 0
M  V30 1176 C 119.195 -0.508914 2.25119 0
M  V30 1177 C 120.165 -1.09315 1.25058 0
M  V30 1178 O 121.35 -1.12921 1.53797 0
M  V30 1179 C 118.49 -1.65246 3.02965 0
M  V30 1180 C 117.603 -1.09525 4.17886 0
M  V30 1181 C 116.738 -2.20634 4.83212 0
M  V30 1182 C 115.777 -1.62279 5.90196 0
M  V30 1183 N 114.914 -2.67143 6.49291 0
M  V30 1184 H 119.754 0.106283 2.9781 0
M  V30 1185 H 117.291 0.0642227 1.4696 0
M  V30 1186 H 119.249 -2.32574 3.4636 0
M  V30 1187 H 117.879 -2.2386 2.32565 0
M  V30 1188 H 116.931 -0.312818 3.79112 0
M  V30 1189 H 118.243 -0.628444 4.94825 0
M  V30 1190 H 117.397 -2.95821 5.29693 0
M  V30 1191 H 116.136 -2.70659 4.05703 0
M  V30 1192 H 115.141 -0.855989 5.43096 0
M  V30 1193 H 116.366 -1.13102 6.69615 0
M  V30 1194 H 114.312 -3.16417 5.74645 0
M  V30 1195 H 114.229 -2.25093 7.21713 0
M  V30 1196 H 115.497 -3.4209 7.00425 0
M  V30 1197 N 119.726 -1.57421 0.075193 0
M  V30 1198 C 120.656 -2.15942 -0.888324 0
M  V30 1199 C 121.637 -1.08737 -1.30806 0
M  V30 1200 O 122.822 -1.36787 -1.37851 0
M  V30 1201 C 119.952 -2.72379 -2.1547 0
M  V30 1202 C 118.906 -3.8478 -1.87425 0
M  V30 1203 C 118.232 -4.27834 -3.20721 0
M  V30 1204 C 119.532 -5.08869 -1.17684 0
M  V30 1205 H 121.226 -2.96705 -0.400799 0
M  V30 1206 H 118.772 -1.42723 -0.191342 0
M  V30 1207 H 120.725 -3.11965 -2.83295 0
M  V30 1208 H 119.449 -1.88841 -2.6647 0
M  V30 1209 H 118.108 -3.45703 -1.22004 0
M  V30 1210 H 117.756 -3.41214 -3.6957 0
M  V30 1211 H 117.456 -5.03605 -3.02746 0
M  V30 1212 H 118.98 -4.70039 -3.89738 0
M  V30 1213 H 120.394 -5.4575 -1.75584 0
M  V30 1214 H 118.791 -5.8994 -1.09956 0
M  V30 1215 H 119.861 -4.84648 -0.156453 0
M  V30 1216 N 121.204 0.198386 -1.56346 0
M  V30 1217 C 122.452 0.91747 -1.80075 0
M  V30 1218 C 122.773 1.83929 -0.647692 0
M  V30 1219 O 122.043 1.93029 0.334166 0
M  V30 1220 H 120.623 0.341774 -0.664228 0
M  V30 1221 H 123.285 0.204684 -1.93822 0
M  V30 1222 H 122.381 1.51055 -2.7311 0
M  V30 1223 N 122.682 1.50554 0.465978 0
M  V30 1224 C 123.612 1.72722 1.57128 0
M  V30 1225 C 124.593 0.576294 1.6004 0
M  V30 1226 O 125.778 0.81598 1.76225 0
M  V30 1227 C 122.908 1.82605 2.95419 0
M  V30 1228 C 121.862 2.97835 3.07373 0
M  V30 1229 C 121.188 2.92867 4.47363 0
M  V30 1230 C 122.488 4.38265 2.84114 0
M  V30 1231 H 124.182 2.65267 1.38829 0
M  V30 1232 H 121.728 1.2765 0.666441 0
M  V30 1233 H 123.681 1.96698 3.72677 0
M  V30 1234 H 122.405 0.866858 3.14886 0
M  V30 1235 H 121.064 2.83401 2.3255 0
M  V30 1236 H 120.712 1.94783 4.63755 0
M  V30 1237 H 120.412 3.70227 4.56296 0
M  V30 1238 H 121.936 3.09015 5.26633 0
M  V30 1239 H 123.35 4.53198 3.51118 0
M  V30 1240 H 121.747 5.17115 3.04487 0
M  V30 1241 H 122.817 4.50281 1.7993 0
M  V30 1242 N 124.16 -0.719506 1.40217 0
M  V30 1243 C 125.107 -1.83359 1.40172 0
M  V30 1244 C 126.077 -1.64065 0.259206 0
M  V30 1245 O 127.262 -1.85254 0.456677 0
M  V30 1246 C 124.402 -3.2103 1.26624 0
M  V30 1247 C 123.515 -3.51923 2.50548 0
M  V30 1248 C 122.65 -4.79079 2.29471 0
M  V30 1249 C 121.689 -5.02863 3.48992 0
M  V30 1250 N 120.826 -6.2123 3.27135 0
M  V30 1251 H 125.666 -1.82733 2.35399 0
M  V30 1252 H 123.203 -0.892688 1.16917 0
M  V30 1253 H 125.161 -4.00524 1.16776 0
M  V30 1254 H 123.791 -3.20895 0.350176 0
M  V30 1255 H 122.843 -2.67014 2.70939 0
M  V30 1256 H 124.155 -3.6541 3.39525 0
M  V30 1257 H 123.309 -5.66582 2.16955 0
M  V30 1258 H 122.048 -4.67794 1.37913 0
M  V30 1259 H 121.053 -4.13816 3.6199 0
M  V30 1260 H 122.278 -5.16023 4.41472 0
M  V30 1261 H 120.224 -6.11204 2.38256 0
M  V30 1262 H 120.141 -6.35375 4.09675 0
M  V30 1263 H 121.409 -7.11532 3.18344 0
M  V30 1264 N 125.638 -1.25649 -0.95132 0
M  V30 1265 C 126.863 -1.13443 -1.73624 0
M  V30 1266 C 127.288 0.307565 -1.85568 0
M  V30 1267 O 126.646 1.22282 -1.33854 0
M  V30 1268 C 126.694 -1.79723 -3.12621 0
M  V30 1269 O 125.798 -1.07912 -3.98031 0
M  V30 1270 H 125.139 -0.395872 -0.533086 0
M  V30 1271 H 127.669 -1.66276 -1.1922 0
M  V30 1272 H 127.679 -1.86141 -3.63064 0
M  V30 1273 H 126.354 -2.84633 -3.03244 0
M  V30 1274 H 124.931 -1.09398 -3.56492 0
M  V30 1275 N 127.117 1.15442 -1.07289 0
M  V30 1276 C 128.047 2.22312 -0.714107 0
M  V30 1277 C 129.028 1.67467 0.298155 0
M  V30 1278 O 130.213 1.93445 0.171048 0
M  V30 1279 C 127.343 3.47124 -0.110448 0
M  V30 1280 C 126.297 4.14926 -1.04979 0
M  V30 1281 C 125.623 5.33807 -0.308924 0
M  V30 1282 C 126.923 4.64762 -2.38314 0
M  V30 1283 H 128.617 2.5258 -1.6076 0
M  V30 1284 H 126.163 1.21404 -0.77441 0
M  V30 1285 H 128.116 4.21124 0.152482 0
M  V30 1286 H 126.84 3.16187 0.81812 0
M  V30 1287 H 125.499 3.42866 -1.29764 0
M  V30 1288 H 125.147 4.99126 0.623084 0
M  V30 1289 H 124.847 5.80113 -0.935036 0
M  V30 1290 H 126.371 6.10576 -0.0537771 0
M  V30 1291 H 127.785 5.30292 -2.1786 0
M  V30 1292 H 126.182 5.21728 -2.96514 0
M  V30 1293 H 127.252 3.80434 -3.00663 0
M  V30 1294 N 128.595 0.856903 1.32268 0
M  V30 1295 C 129.841 0.462069 1.97466 0
M  V30 1296 C 130.174 -0.980298 1.67642 0
M  V30 1297 O 129.449 -1.68824 0.965858 0
M  V30 1298 C 129.732 0.704336 3.53145 0
M  V30 1299 C 129.585 2.19529 3.9259 0
M  V30 1300 C 130.904 0.1622 4.39801 0
M  V30 1301 H 128.023 0.169357 0.717278 0
M  V30 1302 H 130.665 1.07574 1.56614 0
M  V30 1303 H 128.815 0.181999 3.88073 0
M  V30 1304 H 130.487 2.78387 3.67829 0
M  V30 1305 H 128.73 2.67292 3.41668 0
M  V30 1306 H 129.401 2.31549 5.01088 0
M  V30 1307 H 131.877 0.608905 4.11621 0
M  V30 1308 H 130.753 0.361265 5.4771 0
M  V30 1309 H 131.014 -0.935158 4.32096 0
M  V30 1310 N 130.073 -1.45103 0.615059 0
M  V30 1311 C 131.298 -2.07064 0.117988 0
M  V30 1312 C 131.723 -1.4554 -1.19163 0
M  V30 1313 O 131.081 -0.550855 -1.72729 0
M  V30 1314 C 131.129 -3.606 -0.000288387 0
M  V30 1315 O 130.233 -3.98847 -1.04856 0
M  V30 1316 H 129.574 -0.659467 0.0774581 0
M  V30 1317 H 132.104 -1.86236 0.847186 0
M  V30 1318 H 132.114 -4.07529 -0.196091 0
M  V30 1319 H 130.789 -4.04765 0.955932 0
M  V30 1320 H 129.366 -3.63577 -0.828619 0
M  V30 1321 N 131.551 -0.354651 -1.53558 0
M  V30 1322 C 132.498 0.496968 -2.25386 0
M  V30 1323 C 133.468 1.0865 -1.25636 0
M  V30 1324 O 134.653 1.12104 -1.54394 0
M  V30 1325 C 131.793 1.63637 -3.03837 0
M  V30 1326 C 130.906 1.07307 -4.18461 0
M  V30 1327 C 130.041 2.18068 -4.84376 0
M  V30 1328 C 129.08 1.59147 -5.91049 0
M  V30 1329 N 128.217 2.63695 -6.50699 0
M  V30 1330 H 133.057 -0.122075 -2.9775 0
M  V30 1331 H 130.594 -0.0720154 -1.46924 0
M  V30 1332 H 132.552 2.30734 -3.47589 0
M  V30 1333 H 131.182 2.22623 -2.33749 0
M  V30 1334 H 130.234 0.292708 -3.79272 0
M  V30 1335 H 131.546 0.602193 -4.95152 0
M  V30 1336 H 130.7 2.93007 -5.31255 0
M  V30 1337 H 129.439 2.68504 -4.07133 0
M  V30 1338 H 128.444 0.827175 -5.43542 0
M  V30 1339 H 129.669 1.09549 -6.70206 0
M  V30 1340 H 127.615 3.13365 -5.76315 0
M  V30 1341 H 127.532 2.21263 -7.22896 0
M  V30 1342 H 128.8 3.3837 -7.02229 0
M  V30 1343 N 133.029 1.57378 -0.0835403 0
M  V30 1344 C 134.277 1.93547 0.581718 0
M  V30 1345 C 134.598 0.96524 1.69435 0
M  V30 1346 O 133.868 0.0153369 1.95894 0
M  V30 1347 H 132.448 0.714521 0.217874 0
M  V30 1348 H 135.11 1.94366 -0.144158 0
M  V30 1349 H 134.206 2.95665 0.999423 0
M  V30 1350 N 134.507 -0.190092 1.56449 0
M  V30 1351 C 135.735 -0.925772 1.85033 0
M  V30 1352 C 136.15 -1.76638 0.666658 0
M  V30 1353 O 135.507 -1.78822 -0.364565 0
M  V30 1354 C 135.558 -1.81786 3.12468 0
M  V30 1355 O 135.279 -1.01118 4.26271 0
M  V30 1356 C 136.78 -2.6648 3.54265 0
M  V30 1357 H 134 -0.269872 0.614337 0
M  V30 1358 H 136.544 -0.195837 2.0356 0
M  V30 1359 H 134.699 -2.50136 2.95822 0
M  V30 1360 H 135.113 -1.61956 4.98869 0
M  V30 1361 H 136.587 -3.24722 4.46385 0
M  V30 1362 H 137.064 -3.40434 2.77491 0
M  V30 1363 H 137.67 -2.03493 3.73458 0
M  V30 1364 N 135.985 -1.50799 -0.457987 0
M  V30 1365 C 136.915 -1.73553 -1.5621 0
M  V30 1366 C 137.896 -0.584774 -1.59732 0
M  V30 1367 O 139.081 -0.825314 -1.7579 0
M  V30 1368 C 136.211 -1.84169 -2.94447 0
M  V30 1369 C 135.165 -2.99461 -3.0579 0
M  V30 1370 C 134.491 -2.95235 -4.45803 0
M  V30 1371 C 135.791 -4.39766 -2.81786 0
M  V30 1372 H 137.485 -2.66 -1.37421 0
M  V30 1373 H 135.031 -1.28002 -0.659662 0
M  V30 1374 H 136.984 -1.98672 -3.71628 0
M  V30 1375 H 135.708 -0.883545 -3.14422 0
M  V30 1376 H 134.367 -2.8463 -2.31044 0
M  V30 1377 H 134.015 -1.97239 -4.62715 0
M  V30 1378 H 133.715 -3.72642 -4.54326 0
M  V30 1379 H 135.239 -3.11803 -5.24987 0
M  V30 1380 H 136.653 -4.55054 -3.4871 0
M  V30 1381 H 135.05 -5.18722 -3.0174 0
M  V30 1382 H 136.12 -4.51229 -1.7754 0
M  V30 1383 N 137.463 0.71206 -1.40597 0
M  V30 1384 C 138.709 1.47416 -1.39271 0
M  V30 1385 C 139.042 1.942 0.00388791 0
M  V30 1386 O 138.317 1.68403 0.973179 0
M  V30 1387 C 138.6 2.69774 -2.38525 0
M  V30 1388 C 138.453 2.28861 -3.87224 0
M  V30 1389 C 139.772 3.71939 -2.35264 0
M  V30 1390 H 136.891 0.534713 -0.5072 0
M  V30 1391 H 139.533 0.812375 -1.71757 0
M  V30 1392 H 137.683 3.26238 -2.10953 0
M  V30 1393 H 139.355 1.77852 -4.25636 0
M  V30 1394 H 137.598 1.60824 -4.02887 0
M  V30 1395 H 138.269 3.16584 -4.52193 0
M  V30 1396 H 140.745 3.25113 -2.59694 0
M  V30 1397 H 139.621 4.55186 -3.06753 0
M  V30 1398 H 139.882 4.20484 -1.36549 0
M  V30 1399 N 138.941 1.26152 0.944643 0
M  V30 1400 C 139.873 1.03199 2.04652 0
M  V30 1401 C 140.886 -0.00642356 1.62799 0
M  V30 1402 O 142.075 0.233263 1.76969 0
M  V30 1403 C 139.175 0.540111 3.34568 0
M  V30 1404 C 138.348 1.64697 4.05208 0
M  V30 1405 C 137.407 1.15374 5.13396 0
M  V30 1406 O 136.433 1.85013 5.38293 0
M  V30 1407 N 137.635 0.00031529 5.805 0
M  V30 1408 H 140.4 1.9808 2.2491 0
M  V30 1409 H 137.961 1.17491 1.11389 0
M  V30 1410 H 139.953 0.194401 4.04233 0
M  V30 1411 H 138.523 -0.315021 3.11009 0
M  V30 1412 H 137.743 2.16379 3.29506 0
M  V30 1413 H 139.031 2.3903 4.49157 0
M  V30 1414 H 138.429 -0.581336 5.62705 0
M  V30 1415 H 136.986 -0.286346 6.51171 0
M  V30 1416 N 140.419 -1.14872 1.07899 0
M  V30 1417 C 141.647 -1.89661 0.82683 0
M  V30 1418 C 142.062 -1.78312 -0.620519 0
M  V30 1419 O 141.419 -1.13888 -1.42604 0
M  V30 1420 C 141.47 -3.39817 1.23316 0
M  V30 1421 O 141.191 -3.50845 2.62372 0
M  V30 1422 C 142.692 -4.31615 1.0111 0
M  V30 1423 H 139.912 -0.60092 0.298557 0
M  V30 1424 H 142.456 -1.4551 1.43691 0
M  V30 1425 H 140.611 -3.8161 0.667286 0
M  V30 1426 H 141.025 -4.44076 2.79101 0
M  V30 1427 H 142.499 -5.35367 1.34486 0
M  V30 1428 H 142.976 -4.39169 -0.0522168 0
M  V30 1429 H 143.582 -3.95572 1.56215 0
M  V30 1430 N 141.898 -0.863906 -1.31812 0
M  V30 1431 C 142.845 -0.313303 -2.28664 0
M  V30 1432 C 143.815 0.584868 -1.55462 0
M  V30 1433 O 145 0.517805 -1.83639 0
M  V30 1434 C 142.14 0.48441 -3.41683 0
M  V30 1435 C 141.253 -0.440594 -4.29747 0
M  V30 1436 C 140.388 0.370652 -5.29905 0
M  V30 1437 C 139.427 -0.551164 -6.09613 0
M  V30 1438 N 138.564 0.223462 -7.01744 0
M  V30 1439 H 143.404 -1.14444 -2.75148 0
M  V30 1440 H 140.941 -0.575769 -1.35364 0
M  V30 1441 H 142.899 0.962627 -4.05943 0
M  V30 1442 H 141.529 1.28029 -2.96325 0
M  V30 1443 H 140.581 -1.03724 -3.65986 0
M  V30 1444 H 141.893 -1.14767 -4.85417 0
M  V30 1445 H 141.047 0.911638 -5.99812 0
M  V30 1446 H 139.786 1.11105 -4.74876 0
M  V30 1447 H 138.791 -1.10396 -5.38603 0
M  V30 1448 H 140.016 -1.29032 -6.66729 0
M  V30 1449 H 137.962 0.946787 -6.49132 0
M  V30 1450 H 137.879 -0.424399 -7.54808 0
M  V30 1451 H 139.147 0.745876 -7.75923 0
M  V30 1452 N 143.376 1.44774 -0.622745 0
M  V30 1453 C 144.624 2.01721 -0.123655 0
M  V30 1454 C 144.945 1.49172 1.25589 0
M  V30 1455 O 144.215 0.691974 1.83272 0
M  V30 1456 H 142.795 0.745777 -0.0427225 0
M  V30 1457 H 145.457 1.77382 -0.807559 0
M  V30 1458 H 144.553 3.11984 -0.0849534 0
M  V30 1459 N 144.854 0.36279 1.53368 0
M  V30 1460 C 146.082 -0.228613 2.05633 0
M  V30 1461 C 146.497 -1.42676 1.23649 0
M  V30 1462 O 145.854 -1.80394 0.27647 0
M  V30 1463 C 145.905 -0.624845 3.56059 0
M  V30 1464 O 145.626 0.525675 4.34935 0
M  V30 1465 C 147.127 -1.27493 4.24571 0
M  V30 1466 H 144.347 -0.0407183 0.669763 0
M  V30 1467 H 146.891 0.520352 1.97769 0
M  V30 1468 H 145.046 -1.32373 3.64083 0
M  V30 1469 H 145.46 0.205969 5.24095 0
M  V30 1470 H 146.934 -1.50277 5.31151 0
M  V30 1471 H 147.411 -2.23439 3.78116 0
M  V30 1472 H 148.017 -0.617558 4.20792 0
M  V30 1473 N 146.332 -1.57332 0.0918853 0
M  V30 1474 C 147.58 -1.93853 -0.571446 0
M  V30 1475 C 147.901 -0.974212 -1.6892 0
M  V30 1476 O 147.171 -0.0257254 -1.95883 0
M  V30 1477 H 145.751 -0.715666 -0.214082 0
M  V30 1478 H 148.413 -1.94287 0.154464 0
M  V30 1479 H 147.509 -2.96191 -0.983729 0
M  V30 1480 N 147.81 0.181792 -1.56548 0
M  V30 1481 C 148.773 1.20894 -1.94724 0
M  V30 1482 C 149.773 1.37738 -0.829747 0
M  V30 1483 O 150.963 1.35323 -1.09697 0
M  V30 1484 C 148.095 2.57593 -2.23291 0
M  V30 1485 H 149.288 0.882275 -2.86629 0
M  V30 1486 H 146.841 0.423838 -1.50444 0
M  V30 1487 H 147.576 2.95291 -1.34067 0
M  V30 1488 H 147.361 2.46735 -3.04736 0
M  V30 1489 H 148.851 3.31637 -2.53785 0
M  V30 1490 N 149.288 1.51039 0.449983 0
M  V30 1491 C 150.513 1.6715 1.22783 0
M  V30 1492 C 150.938 0.363081 1.84563 0
M  V30 1493 O 150.296 -0.675433 1.68249 0
M  V30 1494 C 150.344 2.77985 2.29689 0
M  V30 1495 O 149.448 2.40707 3.34864 0
M  V30 1496 H 148.789 0.557746 0.360299 0
M  V30 1497 H 151.319 1.97535 0.533005 0
M  V30 1498 H 151.329 3.01693 2.74673 0
M  V30 1499 H 150.004 3.72935 1.84098 0
M  V30 1500 H 148.581 2.27523 2.95445 0
M  V30 1501 N 150.766 -0.704594 1.40972 0
M  V30 1502 C 152.014 -1.46169 1.39568 0
M  V30 1503 C 152.335 -1.95 0.00253745 0
M  V30 1504 O 151.605 -1.71095 -0.954114 0
M  V30 1505 H 150.185 -0.542326 0.513704 0
M  V30 1506 H 152.847 -0.834553 1.76128 0
M  V30 1507 H 151.943 -2.32922 2.07735 0
M  V30 1508 N 152.244 -1.26651 -0.937939 0
M  V30 1509 C 153.469 -1.15279 -1.72411 0
M  V30 1510 C 153.894 0.287866 -1.85884 0
M  V30 1511 O 153.252 1.20855 -1.35143 0
M  V30 1512 C 153.3 -1.83028 -3.10698 0
M  V30 1513 O 152.404 -1.12128 -3.96864 0
M  V30 1514 H 151.745 -0.401504 -0.528858 0
M  V30 1515 H 154.275 -1.67531 -1.1745 0
M  V30 1516 H 154.285 -1.89981 -3.6107 0
M  V30 1517 H 152.96 -2.87833 -3.00208 0
M  V30 1518 H 151.537 -1.13173 -3.55312 0
M  V30 1519 N 153.722 1.14298 -1.08507 0
M  V30 1520 C 154.969 1.85359 -0.815373 0
M  V30 1521 C 155.297 1.83001 0.658865 0
M  V30 1522 O 154.552 1.25655 1.50031 0
M  V30 1523 C 154.851 3.33547 -1.28379 0
M  V30 1524 C 154.517 3.56093 -2.76602 0
M  V30 1525 C 153.179 3.61955 -3.17084 0
M  V30 1526 C 155.531 3.64834 -3.72217 0
M  V30 1527 C 152.859 3.74082 -4.51973 0
M  V30 1528 C 155.211 3.78487 -5.06883 0
M  V30 1529 C 153.875 3.82598 -5.46969 0
M  V30 1530 H 153.145 0.678276 -0.298366 0
M  V30 1531 H 155.792 1.35002 -1.35819 0
M  V30 1532 H 154.097 3.86191 -0.660593 0
M  V30 1533 H 155.794 3.86959 -1.05186 0
M  V30 1534 H 152.384 3.52179 -2.4427 0
M  V30 1535 H 156.568 3.59595 -3.42061 0
M  V30 1536 H 151.824 3.75527 -4.82483 0
M  V30 1537 H 155.998 3.84193 -5.80834 0
M  V30 1538 H 153.625 3.91747 -6.51489 0
M  V30 1539 N 155.201 0.870884 1.31352 0
M  V30 1540 C 156.148 0.325425 2.28494 0
M  V30 1541 C 157.118 -0.576615 1.5577 0
M  V30 1542 O 158.303 -0.508059 1.83911 0
M  V30 1543 C 155.443 -0.466283 3.41935 0
M  V30 1544 C 154.556 0.463378 4.29508 0
M  V30 1545 C 153.691 -0.342544 5.30094 0
M  V30 1546 C 152.73 0.583486 6.09313 0
M  V30 1547 N 151.867 -0.186244 7.01853 0
M  V30 1548 H 156.707 1.15901 2.74538 0
M  V30 1549 H 154.244 0.58294 1.35056 0
M  V30 1550 H 156.202 -0.941085 4.06447 0
M  V30 1551 H 154.832 -1.26456 2.97 0
M  V30 1552 H 153.884 1.05663 3.65431 0
M  V30 1553 H 155.196 1.1734 4.84802 0
M  V30 1554 H 154.35 -0.879816 6.00287 0
M  V30 1555 H 153.089 -1.08585 4.75458 0
M  V30 1556 H 152.094 1.13251 5.3801 0
M  V30 1557 H 153.319 1.32566 6.66035 0
M  V30 1558 H 151.265 -0.912348 6.49625 0
M  V30 1559 H 151.182 0.464422 7.54572 0
M  V30 1560 H 152.45 -0.704716 7.76308 0
M  V30 1561 N 156.679 -1.44442 0.630414 0
M  V30 1562 C 157.609 -2.33418 -0.0618083 0
M  V30 1563 C 158.59 -1.48165 -0.835541 0
M  V30 1564 O 159.775 -1.76886 -0.801564 0
M  V30 1565 C 156.905 -3.31222 -1.04449 0
M  V30 1566 C 155.859 -4.26288 -0.382436 0
M  V30 1567 C 155.185 -5.13954 -1.47497 0
M  V30 1568 C 156.485 -5.1744 0.710865 0
M  V30 1569 H 158.179 -2.91548 0.681184 0
M  V30 1570 H 155.725 -1.40191 0.329026 0
M  V30 1571 H 157.678 -3.92351 -1.53748 0
M  V30 1572 H 156.402 -2.71299 -1.81836 0
M  V30 1573 H 155.061 -3.6649 0.0899054 0
M  V30 1574 H 154.709 -4.50385 -2.2397 0
M  V30 1575 H 154.409 -5.7837 -1.03737 0
M  V30 1576 H 155.933 -5.77955 -1.96979 0
M  V30 1577 H 157.347 -5.72509 0.300996 0
M  V30 1578 H 155.744 -5.90455 1.07156 0
M  V30 1579 H 156.814 -4.58496 1.57829 0
M  V30 1580 N 158.157 -0.370918 -1.53173 0
M  V30 1581 C 159.105 0.488101 -2.27421 0
M  V30 1582 C 160.099 1.07884 -1.30604 0
M  V30 1583 O 161.305 1.02143 -1.48212 0
M  V30 1584 H 157.68 0.176134 -0.731082 0
M  V30 1585 H 159.651 -0.159815 -2.97972 0
M  V30 1586 C 158.4 1.61306 -3.08019 0
M  V30 1587 H 157.723 1.1678 -3.82364 0
M  V30 1588 H 159.163 2.18872 -3.63141 0
M  V30 1589 C 157.622 2.55848 -2.19188 0
M  V30 1590 O 158.152 3.58799 -1.80626 0
M  V30 1591 N 156.358 2.2516 -1.83715 0
M  V30 1592 H 155.905 1.41476 -2.15273 0
M  V30 1593 H 155.863 2.8867 -1.24567 0
M  V30 1594 N 159.635 1.57281 -0.100228 0
M  V30 1595 C 160.582 2.14305 0.856858 0
M  V30 1596 C 161.552 1.06296 1.27634 0
M  V30 1597 O 162.737 1.34109 1.35718 0
M  V30 1598 C 159.877 2.73184 2.10866 0
M  V30 1599 C 158.99 3.95442 1.73925 0
M  V30 1600 C 158.125 4.42468 2.93931 0
M  V30 1601 C 157.164 5.57303 2.5314 0
M  V30 1602 N 156.301 5.99158 3.65997 0
M  V30 1603 H 161.141 2.95772 0.363726 0
M  V30 1604 H 158.678 1.46139 0.167858 0
M  V30 1605 H 160.636 3.05442 2.84185 0
M  V30 1606 H 159.266 1.94437 2.57671 0
M  V30 1607 H 158.318 3.69464 0.905554 0
M  V30 1608 H 159.63 4.78769 1.39935 0
M  V30 1609 H 158.784 4.76537 3.75496 0
M  V30 1610 H 157.523 3.58052 3.31134 0
M  V30 1611 H 156.528 5.22857 1.70003 0
M  V30 1612 H 157.753 6.43471 2.17075 0
M  V30 1613 H 155.699 5.17687 4.02909 0
M  V30 1614 H 155.616 6.77295 3.35869 0
M  V30 1615 H 156.884 6.3786 4.48057 0
M  V30 1616 N 161.113 -0.173488 1.56642 0
M  V30 1617 C 162.06 -1.21482 1.96242 0
M  V30 1618 C 163.03 -1.44104 0.826027 0
M  V30 1619 O 164.215 -1.5688 1.08597 0
M  V30 1620 C 161.355 -2.54964 2.32567 0
M  V30 1621 C 160.468 -2.39739 3.59373 0
M  V30 1622 C 159.603 -3.66072 3.84921 0
M  V30 1623 C 158.642 -3.45771 5.05083 0
M  V30 1624 N 157.779 -4.64169 5.26775 0
M  V30 1625 H 162.619 -0.870123 2.85014 0
M  V30 1626 H 160.156 -0.418245 1.41029 0
M  V30 1627 H 162.114 -3.32758 2.5165 0
M  V30 1628 H 160.744 -2.87433 1.46908 0
M  V30 1629 H 159.796 -1.53131 3.48217 0
M  V30 1630 H 161.108 -2.20683 4.47326 0
M  V30 1631 H 160.262 -4.52303 4.0436 0
M  V30 1632 H 159.001 -3.88105 2.9534 0
M  V30 1633 H 158.006 -2.57927 4.85545 0
M  V30 1634 H 159.231 -3.25163 5.96193 0
M  V30 1635 H 157.177 -4.86425 4.40144 0
M  V30 1636 H 157.094 -4.48019 6.08946 0
M  V30 1637 H 158.362 -5.51689 5.5069 0
M  V30 1638 N 162.591 -1.51276 -0.441967 0
M  V30 1639 C 163.554 -1.7167 -1.51862 0
M  V30 1640 C 164.554 -0.586793 -1.49711 0
M  V30 1641 O 165.744 -0.854276 -1.51815 0
M  V30 1642 C 162.876 -1.76889 -2.91416 0
M  V30 1643 H 164.069 -2.67754 -1.35084 0
M  V30 1644 H 161.622 -1.41196 -0.670333 0
M  V30 1645 H 162.357 -0.826026 -3.13604 0
M  V30 1646 H 162.142 -2.59001 -2.94382 0
M  V30 1647 H 163.632 -1.94522 -3.69528 0
M  V30 1648 N 164.069 0.697108 -1.41344 0
M  V30 1649 C 165.032 1.79281 -1.42797 0
M  V30 1650 C 166.032 1.57607 -0.318837 0
M  V30 1651 O 167.222 1.64309 -0.578642 0
M  V30 1652 C 164.354 3.17632 -1.23785 0
M  V30 1653 H 165.547 1.79385 -2.40335 0
M  V30 1654 H 163.1 0.904582 -1.27464 0
M  V30 1655 H 163.835 3.23167 -0.270814 0
M  V30 1656 H 163.62 3.34765 -2.04144 0
M  V30 1657 H 165.11 3.97617 -1.27633 0
M  V30 1658 N 165.547 1.27147 0.931209 0
M  V30 1659 C 166.772 1.16191 1.71797 0
M  V30 1660 C 167.197 -0.278004 1.86034 0
M  V30 1661 O 166.555 -1.20137 1.35782 0
M  V30 1662 C 166.603 1.84673 3.09723 0
M  V30 1663 O 165.707 1.14231 3.96264 0
M  V30 1664 H 165.048 0.404303 0.526721 0
M  V30 1665 H 167.578 1.68152 1.1656 0
M  V30 1666 H 167.588 1.91893 3.60057 0
M  V30 1667 H 166.263 2.89421 2.98677 0
M  V30 1668 H 164.84 1.15056 3.54706 0
M  V30 1669 N 167.025 -1.13721 1.09112 0
M  V30 1670 C 168.273 -1.84559 0.823562 0
M  V30 1671 C 168.594 -1.83754 -0.652658 0
M  V30 1672 O 167.864 -1.29102 -1.47342 0
M  V30 1673 H 166.444 -0.683376 0.301673 0
M  V30 1674 H 169.106 -1.37771 1.37859 0
M  V30 1675 H 168.202 -2.8917 1.17419 0
M  V30 1676 N 168.503 -0.877838 -1.30888 0
M  V30 1677 C 169.413 -0.343096 -2.32078 0
M  V30 1678 C 170.429 0.551022 -1.65045 0
M  V30 1679 O 171.605 0.445854 -1.96403 0
M  V30 1680 C 168.67 0.439905 -3.43898 0
M  V30 1681 C 167.731 -0.483111 -4.26573 0
M  V30 1682 C 166.964 0.262616 -5.33053 0
M  V30 1683 O 167.187 1.48967 -5.50604 0
M  V30 1684 O 166.121 -0.383593 -6.00676 0
M  V30 1685 H 169.947 -1.18203 -2.79753 0
M  V30 1686 H 167.532 -0.64145 -1.34929 0
M  V30 1687 H 169.414 0.883504 -4.12034 0
M  V30 1688 H 168.089 1.25526 -2.98371 0
M  V30 1689 H 166.996 -0.975374 -3.61161 0
M  V30 1690 H 168.329 -1.26427 -4.75686 0
M  V30 1691 N 169.982 1.44106 -0.638065 0
M  V30 1692 C 170.945 2.29138 0.0531013 0
M  V30 1693 C 171.945 1.41409 0.765506 0
M  V30 1694 O 173.135 1.63206 0.609046 0
M  V30 1695 C 170.267 3.23144 1.08584 0
M  V30 1696 H 171.46 2.91739 -0.694883 0
M  V30 1697 H 169.013 1.51134 -0.398538 0
M  V30 1698 H 169.748 2.65408 1.86357 0
M  V30 1699 H 169.533 3.87804 0.578852 0
M  V30 1700 H 171.023 3.87004 1.56899 0
M  V30 1701 N 171.46 0.379036 1.52974 0
M  V30 1702 C 172.407 -0.461048 2.26148 0
M  V30 1703 C 173.377 -1.06637 1.27349 0
M  V30 1704 O 174.562 -1.09633 1.56157 0
M  V30 1705 C 171.702 -1.58782 3.06402 0
M  V30 1706 C 170.815 -1.00636 4.20115 0
M  V30 1707 C 169.95 -2.10334 4.87784 0
M  V30 1708 C 168.989 -1.49724 5.93506 0
M  V30 1709 N 168.126 -2.5331 6.54812 0
M  V30 1710 H 172.966 0.169429 2.97518 0
M  V30 1711 H 170.503 0.0953806 1.4679 0
M  V30 1712 H 172.461 -2.25174 3.51215 0
M  V30 1713 H 171.091 -2.18876 2.37261 0
M  V30 1714 H 170.143 -0.232332 3.7969 0
M  V30 1715 H 171.455 -0.523343 4.96047 0
M  V30 1716 H 170.609 -2.84519 5.35849 0
M  V30 1717 H 169.348 -2.61992 4.11353 0
M  V30 1718 H 168.353 -0.740598 5.44789 0
M  V30 1719 H 169.578 -0.988732 6.71864 0
M  V30 1720 H 167.524 -3.04156 5.81227 0
M  V30 1721 H 167.441 -2.09734 7.26325 0
M  V30 1722 H 168.709 -3.27155 7.07524 0
M  V30 1723 N 172.938 -1.57226 0.108567 0
M  V30 1724 C 174.349 -1.8195 -0.418464 0
M  V30 1725 C 174.7 -1.02508 -1.67292 0
M  V30 1726 O 173.825 -0.258496 -2.14851 0
M  V30 1727 C 174.42 -3.30028 -0.765979 0
M  V30 1728 C 172.979 -3.55469 -1.23769 0
M  V30 1729 C 172.126 -2.7625 -0.241106 0
M  V30 1730 H 175.077 -1.55149 0.33384 0
M  V30 1731 H 175.098 -3.44086 -1.62434 0
M  V30 1732 H 174.61 -3.87821 0.147219 0
M  V30 1733 H 172.711 -3.03022 -2.16814 0
M  V30 1734 H 172.824 -4.6408 -1.19022 0
M  V30 1735 H 171.188 -2.44133 -0.72602 0
M  V30 1736 H 171.971 -3.36797 0.665007 0
M  V30 1737 N 174.416 0.165178 -1.56732 0
M  V30 1738 C 175.363 1.2044 -1.96883 0
M  V30 1739 C 176.333 1.43664 -0.833657 0
M  V30 1740 O 177.518 1.56302 -1.09427 0
M  V30 1741 C 174.658 2.53727 -2.33916 0
M  V30 1742 C 173.771 2.3783 -3.6064 0
M  V30 1743 C 172.906 3.64026 -3.86857 0
M  V30 1744 C 171.945 3.43088 -5.06909 0
M  V30 1745 N 171.082 4.61369 -5.29229 0
M  V30 1746 H 175.922 0.854996 -2.85471 0
M  V30 1747 H 173.459 0.41076 -1.41249 0
M  V30 1748 H 175.417 3.31419 -2.53411 0
M  V30 1749 H 174.047 2.8665 -1.48431 0
M  V30 1750 H 173.099 1.51282 -3.49024 0
M  V30 1751 H 174.411 2.18308 -4.4849 0
M  V30 1752 H 173.565 4.50152 -4.06753 0
M  V30 1753 H 172.304 3.86533 -2.97394 0
M  V30 1754 H 171.309 2.55349 -4.86906 0
M  V30 1755 H 172.534 3.21997 -5.97909 0
M  V30 1756 H 170.48 4.84084 -4.42718 0
M  V30 1757 H 170.397 4.44783 -6.11313 0
M  V30 1758 H 171.665 5.48761 -5.53608 0
M  V30 1759 N 175.894 1.51508 0.433938 0
M  V30 1760 C 176.857 1.72473 1.50949 0
M  V30 1761 C 177.857 0.594725 1.49398 0
M  V30 1762 O 179.047 0.862315 1.5136 0
M  V30 1763 C 176.179 1.78431 2.90474 0
M  V30 1764 H 177.372 2.68467 1.33662 0
M  V30 1765 H 174.925 1.41549 0.662836 0
M  V30 1766 H 175.66 0.842645 3.13161 0
M  V30 1767 H 175.445 2.60558 2.93005 0
M  V30 1768 H 176.935 1.96479 3.68491 0
M  V30 1769 N 177.372 -0.689602 1.41712 0
M  V30 1770 C 178.319 -1.80345 1.44029 0
M  V30 1771 C 179.289 -1.63478 0.293948 0
M  V30 1772 O 180.474 -1.84244 0.495869 0
M  V30 1773 C 177.614 -3.18272 1.33405 0
M  V30 1774 C 176.727 -3.46529 2.57956 0
M  V30 1775 C 175.862 -4.74103 2.39582 0
M  V30 1776 C 174.901 -4.95347 3.5958 0
M  V30 1777 N 174.038 -6.14151 3.40239 0
M  V30 1778 H 178.878 -1.77698 2.39222 0
M  V30 1779 H 176.415 -0.867688 1.18784 0
M  V30 1780 H 178.373 -3.97956 1.25246 0
M  V30 1781 H 177.003 -3.2008 0.418164 0
M  V30 1782 H 176.055 -2.61207 2.76542 0
M  V30 1783 H 177.367 -3.58126 3.47199 0
M  V30 1784 H 176.521 -5.61853 2.28924 0
M  V30 1785 H 175.26 -4.64763 1.47805 0
M  V30 1786 H 174.265 -4.06044 3.70686 0
M  V30 1787 H 175.49 -5.06542 4.52318 0
M  V30 1788 H 173.436 -6.06013 2.51167 0
M  V30 1789 H 173.353 -6.26543 4.23061 0
M  V30 1790 H 174.621 -7.04619 3.33365 0
M  V30 1791 N 178.85 -1.27639 -0.924453 0
M  V30 1792 C 179.797 -1.10644 -2.0255 0
M  V30 1793 C 180.767 -0.00658438 -1.66099 0
M  V30 1794 O 181.952 -0.16952 -1.90045 0
M  V30 1795 C 179.092 -0.76309 -3.36557 0
M  V30 1796 C 178.205 -1.94091 -3.85944 0
M  V30 1797 C 177.34 -1.53914 -5.08413 0
M  V30 1798 C 176.379 -2.68425 -5.50104 0
M  V30 1799 N 175.516 -2.28815 -6.63768 0
M  V30 1800 H 180.356 -2.04858 -2.16419 0
M  V30 1801 H 177.893 -1.01974 -1.06017 0
M  V30 1802 H 179.851 -0.544822 -4.13627 0
M  V30 1803 H 178.481 0.142102 -3.22487 0
M  V30 1804 H 177.533 -2.27162 -3.05125 0
M  V30 1805 H 178.845 -2.7998 -4.12811 0
M  V30 1806 H 177.999 -1.28231 -5.92994 0
M  V30 1807 H 176.738 -0.651391 -4.8333 0
M  V30 1808 H 175.743 -2.94819 -4.64071 0
M  V30 1809 H 176.968 -3.57826 -5.7718 0
M  V30 1810 H 174.914 -1.42495 -6.40337 0
M  V30 1811 H 174.831 -3.08242 -6.90306 0
M  V30 1812 H 176.099 -2.06387 -7.51681 0
M  V30 1813 N 180.328 1.1314 -1.09713 0
M  V30 1814 C 181.291 2.16831 -0.742751 0
M  V30 1815 C 182.291 1.59159 0.229129 0
M  V30 1816 O 183.481 1.74199 0.00693237 0
M  V30 1817 C 180.613 3.40756 -0.0989168 0
M  V30 1818 H 181.806 2.49695 -1.66109 0
M  V30 1819 H 179.359 1.2802 -0.896699 0
M  V30 1820 H 180.094 3.13485 0.830514 0
M  V30 1821 H 179.879 3.83888 -0.798265 0
M  V30 1822 H 181.369 4.17386 0.133524 0
M  V30 1823 N 181.806 0.884767 1.30421 0
M  V30 1824 C 183.054 0.502112 1.95763 0
M  V30 1825 C 183.375 -0.951815 1.70192 0
M  V30 1826 O 182.645 -1.6692 1.0254 0
M  V30 1827 H 181.225 0.182694 0.724315 0
M  V30 1828 H 183.887 1.1278 1.58955 0
M  V30 1829 H 182.983 0.672188 3.04775 0
M  V30 1830 N 183.284 -1.43765 0.645699 0
M  V30 1831 C 184.247 -2.29163 -0.0409488 0
M  V30 1832 C 185.247 -1.41813 -0.757996 0
M  V30 1833 O 186.437 -1.63527 -0.600382 0
M  V30 1834 C 183.569 -3.23716 -1.06869 0
M  V30 1835 H 184.762 -2.91366 0.710345 0
M  V30 1836 H 182.315 -1.5092 0.406547 0
M  V30 1837 H 183.05 -2.66393 -1.84947 0
M  V30 1838 H 182.835 -3.88105 -0.558277 0
M  V30 1839 H 184.325 -3.87831 -1.54845 0
M  V30 1840 N 184.763 -0.387143 -1.52771 0
M  V30 1841 C 185.726 0.436939 -2.24997 0
M  V30 1842 C 186.726 0.991991 -1.26555 0
M  V30 1843 O 187.916 0.874335 -1.50669 0
M  V30 1844 C 185.048 1.61281 -3.00335 0
M  V30 1845 H 186.241 -0.195365 -2.99263 0
M  V30 1846 H 183.794 -0.139218 -1.55679 0
M  V30 1847 H 184.529 2.2826 -2.30364 0
M  V30 1848 H 184.314 1.22154 -3.72587 0
M  V30 1849 H 185.804 2.19629 -3.5518 0
M  V30 1850 N 186.241 1.57166 -0.116904 0
M  V30 1851 C 187.188 2.15202 0.83408 0
M  V30 1852 C 188.158 1.07644 1.26499 0
M  V30 1853 O 189.343 1.35541 1.34288 0
M  V30 1854 C 186.483 2.75405 2.07957 0
M  V30 1855 C 185.596 3.97264 1.69721 0
M  V30 1856 C 184.731 4.45561 2.89221 0
M  V30 1857 C 183.77 5.59956 2.47215 0
M  V30 1858 N 182.907 6.03006 3.59622 0
M  V30 1859 H 187.747 2.96141 0.332335 0
M  V30 1860 H 185.284 1.46309 0.152349 0
M  V30 1861 H 187.242 3.08439 2.80929 0
M  V30 1862 H 185.872 1.97159 2.55594 0
M  V30 1863 H 184.924 3.70404 0.866316 0
M  V30 1864 H 186.236 4.80226 1.34849 0
M  V30 1865 H 185.39 4.80493 3.7042 0
M  V30 1866 H 184.129 3.61544 3.27318 0
M  V30 1867 H 183.134 5.2463 1.64448 0
M  V30 1868 H 184.359 6.45738 2.10238 0
M  V30 1869 H 182.305 5.21931 3.97396 0
M  V30 1870 H 182.222 6.80819 3.28667 0
M  V30 1871 H 183.49 6.42576 4.41267 0
M  V30 1872 N 187.719 -0.156864 1.56817 0
M  V30 1873 C 188.682 -1.17781 1.96622 0
M  V30 1874 C 189.682 -1.36401 0.851555 0
M  V30 1875 O 190.872 -1.33561 1.11836 0
M  V30 1876 C 188.004 -2.54008 2.27361 0
M  V30 1877 H 189.197 -0.836564 2.87996 0
M  V30 1878 H 186.75 -0.39985 1.51099 0
M  V30 1879 H 187.485 -2.9312 1.38748 0
M  V30 1880 H 187.27 -2.41856 3.08623 0
M  V30 1881 H 188.76 -3.27558 2.59029 0
M  V30 1882 N 189.197 -1.51736 -0.425897 0
M  V30 1883 C 190.144 -1.73875 -1.51776 0
M  V30 1884 C 191.114 -0.580702 -1.55618 0
M  V30 1885 O 192.299 -0.81641 -1.72451 0
M  V30 1886 C 189.439 -1.88012 -2.89388 0
M  V30 1887 C 188.552 -3.15606 -2.94986 0
M  V30 1888 C 187.687 -3.20271 -4.23793 0
M  V30 1889 C 186.726 -4.42134 -4.23302 0
M  V30 1890 N 185.863 -4.44284 -5.43651 0
M  V30 1891 H 190.703 -2.67071 -1.32201 0
M  V30 1892 H 188.24 -1.32351 -0.642008 0
M  V30 1893 H 190.198 -1.9419 -3.69251 0
M  V30 1894 H 188.828 -0.98213 -3.07496 0
M  V30 1895 H 187.88 -3.18681 -2.07717 0
M  V30 1896 H 189.192 -4.05486 -2.90486 0
M  V30 1897 H 188.346 -3.25428 -5.12036 0
M  V30 1898 H 187.085 -2.28299 -4.30965 0
M  V30 1899 H 186.09 -4.3714 -3.3345 0
M  V30 1900 H 187.315 -5.35382 -4.17783 0
M  V30 1901 H 185.261 -3.55188 -5.51523 0
M  V30 1902 H 185.178 -5.27988 -5.41078 0
M  V30 1903 H 186.446 -4.53649 -6.33895 0
M  V30 1904 N 190.675 0.682077 -1.42076 0
M  V30 1905 C 191.622 1.79578 -1.44984 0
M  V30 1906 C 192.592 1.6332 -0.302614 0
M  V30 1907 O 193.777 1.83978 -0.505633 0
M  V30 1908 C 190.917 3.1756 -1.35091 0
M  V30 1909 C 190.03 3.45156 -2.59791 0
M  V30 1910 C 189.165 4.72826 -2.42093 0
M  V30 1911 C 188.204 4.93433 -3.62202 0
M  V30 1912 N 187.341 6.12338 -3.43491 0
M  V30 1913 H 192.181 1.76427 -2.40161 0
M  V30 1914 H 189.718 0.861376 -1.19242 0
M  V30 1915 H 191.676 3.97287 -1.27354 0
M  V30 1916 H 190.306 3.19854 -0.435133 0
M  V30 1917 H 189.358 2.59736 -2.77923 0
M  V30 1918 H 190.67 3.5628 -3.49094 0
M  V30 1919 H 189.824 5.60631 -2.319 0
M  V30 1920 H 188.563 4.63973 -1.50268 0
M  V30 1921 H 187.568 4.04073 -3.72834 0
M  V30 1922 H 188.793 5.04136 -4.54998 0
M  V30 1923 H 186.739 6.04672 -2.54377 0
M  V30 1924 H 186.656 6.2429 -4.26377 0
M  V30 1925 H 187.924 7.02841 -3.37097 0
M  V30 1926 N 192.153 1.28127 0.917671 0
M  V30 1927 C 193.564 1.13622 1.48145 0
M  V30 1928 C 193.915 -0.275207 1.9426 0
M  V30 1929 O 193.04 -1.1691 1.82102 0
M  V30 1930 C 193.635 2.05648 2.69248 0
M  V30 1931 C 192.194 1.95219 3.21818 0
M  V30 1932 C 191.341 1.97618 1.94532 0
M  V30 1933 H 194.292 1.40874 0.730772 0
M  V30 1934 H 194.313 1.61818 3.44377 0
M  V30 1935 H 193.825 3.08365 2.35653 0
M  V30 1936 H 191.926 0.955244 3.60147 0
M  V30 1937 H 192.039 2.81976 3.87333 0
M  V30 1938 H 190.403 1.41973 2.11461 0
M  V30 1939 H 191.186 3.02007 1.63238 0
M  V30 1940 N 193.631 -1.12557 1.10312 0
M  V30 1941 C 194.594 -2.16434 0.75424 0
M  V30 1942 C 195.594 -1.59278 -0.220685 0
M  V30 1943 O 196.784 -1.742 0.00230591 0
M  V30 1944 C 193.916 -3.40699 0.116987 0
M  V30 1945 H 195.109 -2.48811 1.67431 0
M  V30 1946 H 192.662 -1.27542 0.903475 0
M  V30 1947 H 193.397 -3.13921 -0.813877 0
M  V30 1948 H 193.182 -3.83459 0.818613 0
M  V30 1949 H 194.672 -4.17451 -0.111387 0
M  V30 1950 N 195.109 -0.891671 -1.2995 0
M  V30 1951 C 196.357 -0.512486 -1.95494 0
M  V30 1952 C 196.678 0.942776 -1.70695 0
M  V30 1953 O 195.948 1.66374 -1.03424 0
M  V30 1954 H 194.528 -0.186533 -0.723336 0
M  V30 1955 H 197.19 -1.13621 -1.58355 0
M  V30 1956 H 196.286 -0.688342 -3.04415 0
M  V30 1957 N 196.587 1.43421 -0.653314 0
M  V30 1958 C 197.55 2.29182 0.0287951 0
M  V30 1959 C 198.55 1.42213 0.750465 0
M  V30 1960 O 199.74 1.63843 0.591701 0
M  V30 1961 C 196.872 3.24278 1.05151 0
M  V30 1962 H 198.065 2.90985 -0.725786 0
M  V30 1963 H 195.618 1.50702 -0.414545 0
M  V30 1964 H 196.353 2.6737 1.83532 0
M  V30 1965 H 196.138 3.88396 0.537687 0
M  V30 1966 H 197.628 3.88647 1.52786 0
M  V30 1967 N 198.065 0.39524 1.52563 0
M  V30 1968 C 199.028 -0.425001 2.25225 0
M  V30 1969 C 200.028 -0.985266 1.27079 0
M  V30 1970 O 201.218 -0.866332 1.5113 0
M  V30 1971 C 198.35 -1.59686 3.01186 0
M  V30 1972 H 199.543 0.211233 2.99155 0
M  V30 1973 H 197.096 0.147472 1.55603 0
M  V30 1974 H 197.831 -2.27035 2.31572 0
M  V30 1975 H 197.616 -1.20176 3.73229 0
M  V30 1976 H 199.106 -2.17743 3.5634 0
M  V30 1977 N 199.544 -1.57102 0.125237 0
M  V30 1978 C 200.491 -2.15641 -0.822655 0
M  V30 1979 C 201.461 -1.08313 -1.25927 0
M  V30 1980 O 202.646 -1.36251 -1.33567 0
M  V30 1981 C 199.786 -2.76504 -2.06494 0
M  V30 1982 C 198.899 -3.98158 -1.67612 0
M  V30 1983 C 198.034 -4.47088 -2.86854 0
M  V30 1984 C 197.073 -5.6126 -2.44242 0
M  V30 1985 N 196.21 -6.04905 -3.56419 0
M  V30 1986 H 201.05 -2.96313 -0.316625 0
M  V30 1987 H 198.587 -1.46388 -0.144588 0
M  V30 1988 H 200.545 -3.09925 -2.79289 0
M  V30 1989 H 199.175 -1.98512 -2.54545 0
M  V30 1990 H 198.227 -3.70858 -0.846661 0
M  V30 1991 H 199.539 -4.80934 -1.32301 0
M  V30 1992 H 198.693 -4.82451 -3.67867 0
M  V30 1993 H 197.432 -3.63275 -3.25396 0
M  V30 1994 H 196.437 -5.25495 -1.61663 0
M  V30 1995 H 197.662 -6.46843 -2.0681 0
M  V30 1996 H 195.608 -5.24032 -3.94623 0
M  V30 1997 H 195.525 -6.82552 -3.25051 0
M  V30 1998 H 196.793 -6.44907 -4.37853 0
M  V30 1999 N 201.022 0.148545 -1.56898 0
M  V30 2000 C 201.969 1.18345 -1.98149 0
M  V30 2001 C 202.939 1.42772 -0.848848 0
M  V30 2002 O 204.124 1.55132 -1.11079 0
M  V30 2003 C 201.264 2.51231 -2.36594 0
M  V30 2004 C 200.377 2.33991 -3.63142 0
M  V30 2005 C 199.512 3.59902 -3.90697 0
M  V30 2006 C 198.551 3.37692 -5.1052 0
M  V30 2007 N 197.688 4.5573 -5.34092 0
M  V30 2008 H 202.528 0.82467 -2.86362 0
M  V30 2009 H 200.065 0.395756 -1.41676 0
M  V30 2010 H 202.023 3.28713 -2.56912 0
M  V30 2011 H 200.653 2.85059 -1.51463 0
M  V30 2012 H 199.705 1.47572 -3.50609 0
M  V30 2013 H 201.017 2.13539 -4.5078 0
M  V30 2014 H 200.171 4.45813 -4.11505 0
M  V30 2015 H 198.91 3.83357 -3.01477 0
M  V30 2016 H 197.915 2.5017 -4.89587 0
M  V30 2017 H 199.14 3.15637 -6.0129 0
M  V30 2018 H 197.086 4.79361 -4.47827 0
M  V30 2019 H 197.003 4.38274 -6.15996 0
M  V30 2020 H 198.271 5.42858 -5.59397 0
M  V30 2021 N 202.5 1.5196 0.417844 0
M  V30 2022 C 203.911 1.57851 0.997 0
M  V30 2023 C 204.262 0.413714 1.91789 0
M  V30 2024 O 203.387 -0.467057 2.113 0
M  V30 2025 C 203.982 2.86085 1.81496 0
M  V30 2026 C 202.541 2.94483 2.34428 0
M  V30 2027 C 201.688 2.52707 1.14169 0
M  V30 2028 H 204.639 1.57455 0.198392 0
M  V30 2029 H 204.66 2.70947 2.67148 0
M  V30 2030 H 204.172 3.70842 1.14446 0
M  V30 2031 H 202.273 2.142 3.04875 0
M  V30 2032 H 202.386 3.98546 2.65891 0
M  V30 2033 H 200.75 2.06353 1.49301 0
M  V30 2034 H 201.533 3.39828 0.486999 0
M  V30 2035 N 203.978 -0.674533 1.42435 0
M  V30 2036 C 204.925 -1.78807 1.45934 0
M  V30 2037 C 205.895 -1.63157 0.311271 0
M  V30 2038 O 207.08 -1.83707 0.515383 0
M  V30 2039 C 204.22 -3.16839 1.36773 0
M  V30 2040 C 203.333 -3.43774 2.61617 0
M  V30 2041 C 202.468 -4.71536 2.44597 0
M  V30 2042 C 201.507 -4.91505 3.64814 0
M  V30 2043 N 200.644 -6.10508 3.46734 0
M  V30 2044 H 205.484 -1.75151 2.41093 0
M  V30 2045 H 203.021 -0.85504 1.19697 0
M  V30 2046 H 204.979 -3.96606 1.29459 0
M  V30 2047 H 203.609 -3.19619 0.452089 0
M  V30 2048 H 202.661 -2.58259 2.79297 0
M  V30 2049 H 203.973 -3.54423 3.50978 0
M  V30 2050 H 203.127 -5.59393 2.3487 0
M  V30 2051 H 201.866 -4.6317 1.52726 0
M  V30 2052 H 200.871 -4.0209 3.74972 0
M  V30 2053 H 202.096 -5.01716 4.57665 0
M  V30 2054 H 200.042 -6.03315 2.5758 0
M  V30 2055 H 199.959 -6.2202 4.29682 0
M  V30 2056 H 201.227 -7.01044 3.40819 0
M  V30 2057 N 205.456 -1.28612 -0.910864 0
M  V30 2058 C 206.403 -1.12786 -2.01365 0
M  V30 2059 C 207.373 -0.024201 -1.66082 0
M  V30 2060 O 208.558 -0.189667 -1.89855 0
M  V30 2061 C 205.698 -0.798743 -3.35729 0
M  V30 2062 C 204.811 -1.98173 -3.83864 0
M  V30 2063 C 203.946 -1.59298 -5.06752 0
M  V30 2064 C 202.985 -2.74245 -5.47226 0
M  V30 2065 N 202.122 -2.35842 -6.61304 0
M  V30 2066 H 206.962 -2.07142 -2.14234 0
M  V30 2067 H 204.499 -1.03093 -1.0493 0
M  V30 2068 H 206.457 -0.588662 -4.13026 0
M  V30 2069 H 205.087 0.10789 -3.2262 0
M  V30 2070 H 204.139 -2.30386 -3.02699 0
M  V30 2071 H 205.451 -2.84343 -4.09818 0
M  V30 2072 H 204.605 -1.34513 -5.916 0
M  V30 2073 H 203.344 -0.702618 -4.82612 0
M  V30 2074 H 202.349 -2.99725 -4.60918 0
M  V30 2075 H 203.574 -3.63928 -5.73353 0
M  V30 2076 H 201.52 -1.49279 -6.38789 0
M  V30 2077 H 201.437 -3.15546 -6.86998 0
M  V30 2078 H 202.705 -2.14348 -7.4945 0
M  V30 2079 N 206.934 1.1197 -1.10907 0
M  V30 2080 C 207.897 2.16031 -0.765707 0
M  V30 2081 C 208.897 1.59393 0.212235 0
M  V30 2082 O 210.087 1.74196 -0.0115441 0
M  V30 2083 C 207.219 3.40632 -0.135053 0
M  V30 2084 H 208.412 2.47919 -1.68748 0
M  V30 2085 H 205.965 1.27061 -0.910226 0
M  V30 2086 H 206.7 3.14348 0.797218 0
M  V30 2087 H 206.485 3.8302 -0.838937 0
M  V30 2088 H 207.975 4.17505 0.0892469 0
M  V30 2089 N 208.412 0.89855 1.29475 0
M  V30 2090 C 209.64 0.539261 1.99749 0
M  V30 2091 C 210.055 -0.875716 1.67262 0
M  V30 2092 O 209.412 -1.57786 0.917049 0
M  V30 2093 C 209.463 0.72061 3.54245 0
M  V30 2094 O 209.184 2.07989 3.8558 0
M  V30 2095 C 210.685 0.366118 4.41786 0
M  V30 2096 H 207.905 0.207047 0.638258 0
M  V30 2097 H 210.449 1.20758 1.65039 0
M  V30 2098 H 208.604 0.0994862 3.87272 0
M  V30 2099 H 209.018 2.10841 4.80257 0
M  V30 2100 H 210.492 0.543848 5.49314 0
M  V30 2101 H 210.969 -0.696763 4.33638 0
M  V30 2102 H 211.575 0.964135 4.14228 0
M  V30 2103 N 209.89 -1.43072 0.660911 0
M  V30 2104 C 211.138 -2.01323 0.177094 0
M  V30 2105 C 211.459 -1.5245 -1.2159 0
M  V30 2106 O 210.729 -0.740322 -1.81373 0
M  V30 2107 H 209.309 -0.744382 0.0624804 0
M  V30 2108 H 211.971 -1.75179 0.854305 0
M  V30 2109 H 211.067 -3.11649 0.167641 0
M  V30 2110 N 211.368 -0.403325 -1.52352 0
M  V30 2111 C 212.331 0.413051 -2.25447 0
M  V30 2112 C 213.331 0.978513 -1.276 0
M  V30 2113 O 214.521 0.858305 -1.51587 0
M  V30 2114 C 211.653 1.58087 -3.02029 0
M  V30 2115 H 212.846 -0.227094 -2.99039 0
M  V30 2116 H 210.399 -0.155722 -1.55522 0
M  V30 2117 H 211.134 2.25804 -2.32772 0
M  V30 2118 H 210.919 1.18195 -3.73861 0
M  V30 2119 H 212.409 2.1585 -3.57489 0
M  V30 2120 N 212.846 1.57033 -0.133567 0
M  V30 2121 C 213.809 2.14897 0.796995 0
M  V30 2122 C 214.809 1.0874 1.18458 0
M  V30 2123 O 215.999 1.34446 1.1077 0
M  V30 2124 C 213.131 2.70112 2.07973 0
M  V30 2125 H 214.324 2.98457 0.293873 0
M  V30 2126 H 211.877 1.55871 0.115787 0
M  V30 2127 H 212.612 1.9018 2.62682 0
M  V30 2128 H 212.397 3.47764 1.81115 0
M  V30 2129 H 213.887 3.14738 2.74462 0
M  V30 2130 N 214.325 -0.140222 1.56975 0
M  V30 2131 C 215.553 -0.866437 1.87884 0
M  V30 2132 C 215.968 -1.74428 0.722517 0
M  V30 2133 O 215.325 -1.79891 -0.30749 0
M  V30 2134 C 215.376 -1.71753 3.18093 0
M  V30 2135 O 215.097 -0.875056 4.29272 0
M  V30 2136 C 216.598 -2.55074 3.62563 0
M  V30 2137 H 213.818 -0.25019 0.622612 0
M  V30 2138 H 216.362 -0.130977 2.0408 0
M  V30 2139 H 214.517 -2.40598 3.03631 0
M  V30 2140 H 214.931 -1.46002 5.03769 0
M  V30 2141 H 216.405 -3.10356 4.5649 0
M  V30 2142 H 216.882 -3.31434 2.88181 0
M  V30 2143 H 217.488 -1.91509 3.79743 0
M  V30 2144 N 215.803 -1.52179 -0.40978 0
M  V30 2145 C 217.214 -1.58377 -0.988615 0
M  V30 2146 C 217.565 -0.423879 -1.91566 0
M  V30 2147 O 216.69 0.455844 -2.11544 0
M  V30 2148 C 217.285 -2.87044 -1.79976 0
M  V30 2149 C 215.844 -2.95722 -2.32863 0
M  V30 2150 C 214.991 -2.53309 -1.12828 0
M  V30 2151 H 217.942 -1.57558 -0.190039 0
M  V30 2152 H 217.963 -2.7236 -2.65707 0
M  V30 2153 H 217.475 -3.71444 -1.12478 0
M  V30 2154 H 215.576 -2.15814 -3.03735 0
M  V30 2155 H 215.689 -3.99951 -2.63773 0
M  V30 2156 H 214.053 -2.07142 -1.48204 0
M  V30 2157 H 214.836 -3.40082 -0.46897 0
M  V30 2158 N 217.281 0.66697 -1.42791 0
M  V30 2159 C 218.228 1.7803 -1.4688 0
M  V30 2160 C 219.198 1.6299 -0.319919 0
M  V30 2161 O 220.383 1.83432 -0.525118 0
M  V30 2162 C 217.523 3.1611 -1.38451 0
M  V30 2163 C 216.636 3.42381 -2.63437 0
M  V30 2164 C 215.771 4.70232 -2.47094 0
M  V30 2165 C 214.81 4.89564 -3.67415 0
M  V30 2166 N 213.947 6.08661 -3.49966 0
M  V30 2167 H 218.787 1.7387 -2.42019 0
M  V30 2168 H 216.324 0.84868 -1.20149 0
M  V30 2169 H 218.282 3.95914 -1.31561 0
M  V30 2170 H 216.912 3.19374 -0.469033 0
M  V30 2171 H 215.964 2.56774 -2.80662 0
M  V30 2172 H 217.276 3.52557 -3.52853 0
M  V30 2173 H 216.43 5.5814 -2.37834 0
M  V30 2174 H 215.169 4.62353 -1.5518 0
M  V30 2175 H 214.174 4.00096 -3.77099 0
M  V30 2176 H 215.399 4.99282 -4.6032 0
M  V30 2177 H 213.345 6.0194 -2.60776 0
M  V30 2178 H 213.262 6.19733 -4.32975 0
M  V30 2179 H 214.53 6.99226 -3.44532 0
M  V30 2180 N 218.759 1.29093 0.90403 0
M  V30 2181 C 219.706 1.13853 2.00764 0
M  V30 2182 C 220.676 0.0330084 1.66067 0
M  V30 2183 O 221.861 0.199733 1.89752 0
M  V30 2184 C 219.001 0.816537 3.35301 0
M  V30 2185 C 218.114 2.00206 3.82807 0
M  V30 2186 C 217.249 1.61983 5.059 0
M  V30 2187 C 216.288 2.77143 5.45764 0
M  V30 2188 N 215.425 2.39346 6.60044 0
M  V30 2189 H 220.265 2.08276 2.13132 0
M  V30 2190 H 217.802 1.03648 1.04381 0
M  V30 2191 H 219.76 0.610557 4.12708 0
M  V30 2192 H 218.39 -0.090779 3.22672 0
M  V30 2193 H 217.442 2.31988 3.01473 0
M  V30 2194 H 218.754 2.86512 4.08304 0
M  V30 2195 H 217.908 1.37649 5.90879 0
M  V30 2196 H 216.647 0.728202 4.82233 0
M  V30 2197 H 215.652 3.02165 4.59322 0
M  V30 2198 H 216.877 3.66964 5.71414 0
M  V30 2199 H 214.823 1.52665 6.37989 0
M  V30 2200 H 214.74 3.19185 6.85315 0
M  V30 2201 H 216.008 2.1832 7.48303 0
M  V30 2202 N 220.237 -1.11381 1.11499 0
M  V30 2203 C 221.462 -1.87475 0.887019 0
M  V30 2204 C 221.887 -1.79639 -0.557796 0
M  V30 2205 O 221.245 -1.15924 -1.39396 0
M  V30 2206 C 221.293 -3.34213 1.35403 0
M  V30 2207 O 220.397 -4.0903 0.526146 0
M  V30 2208 H 219.738 -0.582099 0.319463 0
M  V30 2209 H 222.268 -1.40785 1.48461 0
M  V30 2210 H 222.278 -3.8506 1.34881 0
M  V30 2211 H 220.953 -3.39232 2.40612 0
M  V30 2212 H 219.53 -3.68082 0.597522 0
M  V30 2213 N 221.715 -0.905404 -1.28997 0
M  V30 2214 C 222.678 -0.392253 -2.25819 0
M  V30 2215 C 223.678 0.476753 -1.5357 0
M  V30 2216 O 224.868 0.280994 -1.71919 0
M  V30 2217 C 222 0.438588 -3.38067 0
M  V30 2218 H 223.193 -1.24743 -2.72725 0
M  V30 2219 H 220.746 -0.684051 -1.40536 0
M  V30 2220 H 221.481 1.31352 -2.96508 0
M  V30 2221 H 221.266 -0.184167 -3.91667 0
M  V30 2222 H 222.756 0.78873 -4.10084 0
M  V30 2223 N 223.193 1.4272 -0.668489 0
M  V30 2224 C 224.14 2.30796 0.0137489 0
M  V30 2225 C 225.11 1.4561 0.799177 0
M  V30 2226 O 226.295 1.74453 0.772702 0
M  V30 2227 C 223.435 3.31377 0.963507 0
M  V30 2228 C 222.548 4.31655 0.172569 0
M  V30 2229 C 221.683 5.19312 1.1175 0
M  V30 2230 C 220.722 6.11274 0.317886 0
M  V30 2231 N 219.859 6.91504 1.2152 0
M  V30 2232 H 224.699 2.88585 -0.743161 0
M  V30 2233 H 222.236 1.42154 -0.378226 0
M  V30 2234 H 224.194 3.88214 1.52792 0
M  V30 2235 H 222.824 2.75202 1.68712 0
M  V30 2236 H 221.876 3.76988 -0.508374 0
M  V30 2237 H 223.188 4.96779 -0.448527 0
M  V30 2238 H 222.342 5.80851 1.75206 0
M  V30 2239 H 221.081 4.5435 1.77249 0
M  V30 2240 H 220.086 5.48809 -0.329918 0
M  V30 2241 H 221.311 6.78283 -0.332917 0
M  V30 2242 H 219.257 6.29176 1.85671 0
M  V30 2243 H 219.174 7.53209 0.649036 0
M  V30 2244 H 220.442 7.57535 1.83742 0
M  V30 2245 N 224.671 0.411399 1.52136 0
M  V30 2246 C 225.618 -0.412975 2.27075 0
M  V30 2247 C 226.588 -1.03912 1.29582 0
M  V30 2248 O 227.773 -1.06296 1.58448 0
M  V30 2249 C 224.913 -1.52247 3.09701 0
M  V30 2250 C 224.026 -0.917021 4.22155 0
M  V30 2251 C 223.161 -1.9994 4.92135 0
M  V30 2252 C 222.2 -1.37101 5.96548 0
M  V30 2253 N 221.337 -2.39364 6.60038 0
M  V30 2254 H 226.177 0.232499 2.97092 0
M  V30 2255 H 223.714 0.126496 1.46555 0
M  V30 2256 H 225.672 -2.17674 3.55913 0
M  V30 2257 H 224.302 -2.13794 2.41851 0
M  V30 2258 H 223.354 -0.151742 3.80097 0
M  V30 2259 H 224.666 -0.418006 4.97045 0
M  V30 2260 H 223.82 -2.73088 5.41763 0
M  V30 2261 H 222.559 -2.53208 4.16818 0
M  V30 2262 H 221.564 -0.624873 5.46237 0
M  V30 2263 H 222.789 -0.845998 6.7381 0
M  V30 2264 H 220.735 -2.91759 5.87548 0
M  V30 2265 H 220.652 -1.9428 7.3061 0
M  V30 2266 H 221.92 -3.12074 7.14304 0
M  V30 2267 N 226.149 -1.5696 0.141893 0
M  V30 2268 C 227.377 -2.00322 -0.517579 0
M  V30 2269 C 227.792 -1.02193 -1.58752 0
M  V30 2270 O 227.149 -0.0181619 -1.82491 0
M  V30 2271 C 227.2 -3.43618 -1.12289 0
M  V30 2272 O 226.921 -4.37995 -0.0956929 0
M  V30 2273 C 228.422 -4.02231 -1.86347 0
M  V30 2274 H 225.642 -0.657243 -0.135177 0
M  V30 2275 H 228.186 -2.03146 0.234973 0
M  V30 2276 H 226.341 -3.41662 -1.82609 0
M  V30 2277 H 226.755 -5.21729 -0.538469 0
M  V30 2278 H 228.229 -5.04509 -2.23997 0
M  V30 2279 H 228.706 -3.42655 -2.74744 0
M  V30 2280 H 229.312 -4.07802 -1.20737 0
M  V30 2281 N 227.627 0.131896 -1.57047 0
M  V30 2282 C 229.038 0.690407 -1.73465 0
M  V30 2283 C 229.389 1.8094 -0.758629 0
M  V30 2284 O 228.514 2.16282 0.0713813 0
M  V30 2285 C 229.109 1.25916 -3.14532 0
M  V30 2286 C 227.668 1.76409 -3.32501 0
M  V30 2287 C 226.815 0.658579 -2.69366 0
M  V30 2288 H 229.766 -0.0939144 -1.58422 0
M  V30 2289 H 229.787 2.12892 -3.15369 0
M  V30 2290 H 229.299 0.444515 -3.85546 0
M  V30 2291 H 227.4 2.60391 -2.66509 0
M  V30 2292 H 227.513 1.88241 -4.4057 0
M  V30 2293 H 225.877 1.08899 -2.30246 0
M  V30 2294 H 226.66 -0.14487 -3.42994 0
M  V30 2295 N 229.106 1.52395 0.401703 0
M  V30 2296 C 230.053 1.76268 1.48991 0
M  V30 2297 C 231.023 0.605386 1.54675 0
M  V30 2298 O 232.208 0.843742 1.7113 0
M  V30 2299 C 229.348 1.92592 2.86361 0
M  V30 2300 C 228.461 3.20259 2.89928 0
M  V30 2301 C 227.596 3.26972 4.18644 0
M  V30 2302 C 226.635 4.48812 4.16214 0
M  V30 2303 N 225.772 4.52877 5.36514 0
M  V30 2304 H 230.612 2.6914 1.27935 0
M  V30 2305 H 228.149 1.33355 0.620871 0
M  V30 2306 H 230.107 2.0004 3.66115 0
M  V30 2307 H 228.737 1.03093 3.05895 0
M  V30 2308 H 227.789 3.21945 2.02621 0
M  V30 2309 H 229.101 4.10056 2.83999 0
M  V30 2310 H 228.255 3.33533 5.06794 0
M  V30 2311 H 226.994 2.35126 4.27278 0
M  V30 2312 H 225.999 4.4239 3.26453 0
M  V30 2313 H 227.224 5.41961 4.09213 0
M  V30 2314 H 225.17 3.63917 5.45802 0
M  V30 2315 H 225.087 5.36529 5.32609 0
M  V30 2316 H 226.355 4.63676 6.26597 0
M  V30 2317 N 230.584 -0.659388 1.43143 0
M  V30 2318 C 231.531 -1.77249 1.47822 0
M  V30 2319 C 232.501 -1.62818 0.328558 0
M  V30 2320 O 233.686 -1.83151 0.534838 0
M  V30 2321 C 230.826 -3.15371 1.40126 0
M  V30 2322 C 229.939 -3.4098 2.65249 0
M  V30 2323 C 229.074 -4.68915 2.49584 0
M  V30 2324 C 228.113 -4.87608 3.70006 0
M  V30 2325 N 227.25 -6.06796 3.53189 0
M  V30 2326 H 232.09 -1.72584 2.42938 0
M  V30 2327 H 229.627 -0.842297 1.20598 0
M  V30 2328 H 231.585 -3.9521 1.33659 0
M  V30 2329 H 230.215 -3.19121 0.485964 0
M  V30 2330 H 229.267 -2.55282 2.8202 0
M  V30 2331 H 230.579 -3.50681 3.54717 0
M  V30 2332 H 229.733 -5.56871 2.4079 0
M  V30 2333 H 228.472 -4.61524 1.5763 0
M  V30 2334 H 227.477 -3.9809 3.79215 0
M  V30 2335 H 228.702 -4.96834 4.62961 0
M  V30 2336 H 226.648 -6.00549 2.63965 0
M  V30 2337 H 226.565 -6.17428 4.36255 0
M  V30 2338 H 227.833 -6.9739 3.48236 0
M  V30 2339 N 232.062 -1.29571 -0.897171 0
M  V30 2340 C 233.025 -1.14913 -1.98312 0
M  V30 2341 C 234.025 -0.0838629 -1.60581 0
M  V30 2342 O 235.215 -0.331006 -1.71026 0
M  V30 2343 C 232.347 -0.757835 -3.3237 0
M  V30 2344 H 233.54 -2.11377 -2.12743 0
M  V30 2345 H 231.093 -1.12793 -1.08201 0
M  V30 2346 H 231.828 0.206837 -3.2364 0
M  V30 2347 H 231.613 -1.52755 -3.61121 0
M  V30 2348 H 233.103 -0.678408 -4.12053 0
M  V30 2349 N 233.54 1.10788 -1.12088 0
M  V30 2350 C 234.487 2.17025 -0.785407 0
M  V30 2351 C 235.457 1.64265 0.246191 0
M  V30 2352 O 236.642 1.90412 0.121584 0
M  V30 2353 C 233.782 3.44249 -0.242177 0
M  V30 2354 C 232.895 4.1098 -1.33115 0
M  V30 2355 C 232.03 5.25911 -0.747741 0
M  V30 2356 C 231.069 5.84538 -1.81609 0
M  V30 2357 N 230.206 6.90853 -1.25167 0
M  V30 2358 H 235.046 2.45066 -1.69548 0
M  V30 2359 H 232.583 1.20297 -0.846582 0
M  V30 2360 H 234.541 4.17101 0.0908026 0
M  V30 2361 H 233.171 3.16571 0.631072 0
M  V30 2362 H 232.223 3.36133 -1.78097 0
M  V30 2363 H 233.535 4.50601 -2.13917 0
M  V30 2364 H 232.689 6.056 -0.365216 0
M  V30 2365 H 231.428 4.87614 0.0915188 0
M  V30 2366 H 230.433 5.03522 -2.20785 0
M  V30 2367 H 231.658 6.249 -2.6585 0
M  V30 2368 H 229.604 6.54562 -0.434174 0
M  V30 2369 H 229.521 7.29166 -1.99633 0
M  V30 2370 H 230.789 7.7433 -0.896259 0
M  V30 2371 N 235.018 0.912232 1.28515 0
M  V30 2372 C 235.965 0.397954 2.27343 0
M  V30 2373 C 236.935 -0.526766 1.57526 0
M  V30 2374 O 238.12 -0.449292 1.85435 0
M  V30 2375 C 235.26 -0.357263 3.43246 0
M  V30 2376 C 234.373 0.599788 4.27816 0
M  V30 2377 C 233.508 -0.173725 5.30916 0
M  V30 2378 C 232.547 0.777039 6.07148 0
M  V30 2379 N 231.684 0.0371398 7.0209 0
M  V30 2380 H 236.524 1.24577 2.70711 0
M  V30 2381 H 234.061 0.625612 1.33133 0
M  V30 2382 H 236.019 -0.8113 4.09236 0
M  V30 2383 H 234.649 -1.16943 3.00872 0
M  V30 2384 H 233.701 1.17235 3.61884 0
M  V30 2385 H 235.013 1.32704 4.80823 0
M  V30 2386 H 234.167 -0.688394 6.02782 0
M  V30 2387 H 232.906 -0.934041 4.78672 0
M  V30 2388 H 231.911 1.3031 5.34134 0
M  V30 2389 H 233.136 1.53689 6.61481 0
M  V30 2390 H 231.082 -0.705213 6.52198 0
M  V30 2391 H 230.999 0.704249 7.52713 0
M  V30 2392 H 232.267 -0.457383 7.78157 0
M  V30 2393 N 236.496 -1.42363 0.676048 0
M  V30 2394 C 237.907 -1.84649 0.275948 0
M  V30 2395 C 238.258 -1.56588 -1.18214 0
M  V30 2396 O 237.383 -1.02634 -1.90513 0
M  V30 2397 C 237.978 -3.35178 0.494053 0
M  V30 2398 C 236.537 -3.76109 0.148061 0
M  V30 2399 C 235.684 -2.65931 0.785891 0
M  V30 2400 H 238.635 -1.32192 0.878121 0
M  V30 2401 H 238.656 -3.79655 -0.25343 0
M  V30 2402 H 238.168 -3.55571 1.55535 0
M  V30 2403 H 236.269 -3.61323 -0.909742 0
M  V30 2404 H 236.382 -4.7546 0.589454 0
M  V30 2405 H 234.746 -2.53773 0.217113 0
M  V30 2406 H 235.529 -2.89146 1.85067 0
M  V30 2407 N 237.974 -0.419461 -1.51915 0
M  V30 2408 C 238.937 0.389116 -2.25873 0
M  V30 2409 C 239.937 0.964924 -1.28631 0
M  V30 2410 O 241.127 0.842179 -1.52489 0
M  V30 2411 C 238.259 1.54874 -3.03689 0
M  V30 2412 H 239.452 -0.258799 -2.98781 0
M  V30 2413 H 237.005 -0.172209 -1.55348 0
M  V30 2414 H 237.74 2.23323 -2.35154 0
M  V30 2415 H 237.525 1.14223 -3.75094 0
M  V30 2416 H 239.015 2.12046 -3.59759 0
M  V30 2417 N 239.452 1.56882 -0.150215 0
M  V30 2418 C 240.415 2.1573 0.774157 0
M  V30 2419 C 241.415 1.0999 1.17298 0
M  V30 2420 O 242.605 1.35613 1.09338 0
M  V30 2421 C 239.737 2.72302 2.05096 0
M  V30 2422 H 240.93 2.98752 0.262201 0
M  V30 2423 H 238.483 1.55985 0.099248 0
M  V30 2424 H 239.218 1.92956 2.6065 0
M  V30 2425 H 239.003 3.49665 1.77416 0
M  V30 2426 H 240.493 3.17632 2.71109 0
M  V30 2427 N 240.93 -0.123565 1.57115 0
M  V30 2428 C 241.893 -1.13583 1.99076 0
M  V30 2429 C 242.893 -1.34564 0.880296 0
M  V30 2430 O 244.083 -1.31158 1.14644 0
M  V30 2431 C 241.215 -2.49128 2.32698 0
M  V30 2432 H 242.408 -0.775287 2.89706 0
M  V30 2433 H 239.961 -0.36771 1.51913 0
M  V30 2434 H 240.696 -2.90111 1.44934 0
M  V30 2435 H 240.481 -2.35255 3.13684 0
M  V30 2436 H 241.971 -3.2199 2.65918 0
M  V30 2437 N 242.408 -1.52605 -0.393616 0
M  V30 2438 C 243.371 -1.76415 -1.46323 0
M  V30 2439 C 244.371 -0.634126 -1.47768 0
M  V30 2440 O 245.561 -0.902142 -1.4902 0
M  V30 2441 C 242.693 -1.8607 -2.85641 0
M  V30 2442 H 243.886 -2.71916 -1.26498 0
M  V30 2443 H 241.439 -1.43257 -0.625073 0
M  V30 2444 H 242.174 -0.925378 -3.10817 0
M  V30 2445 H 241.959 -2.68235 -2.85993 0
M  V30 2446 H 243.449 -2.06179 -3.63153 0
M  V30 2447 N 243.887 0.651787 -1.4349 0
M  V30 2448 C 245.135 1.40888 -1.44897 0
M  V30 2449 C 245.456 1.94856 -0.0749086 0
M  V30 2450 O 244.726 1.74518 0.889956 0
M  V30 2451 H 243.306 0.522887 -0.533478 0
M  V30 2452 H 245.968 0.768609 -1.79104 0
M  V30 2453 H 245.064 2.25052 -2.16236 0
M  V30 2454 N 245.365 1.30045 0.890287 0
M  V30 2455 C 246.328 1.15963 1.977 0
M  V30 2456 C 247.328 0.0923777 1.60534 0
M  V30 2457 O 248.518 0.340071 1.70848 0
M  V30 2458 C 245.65 0.775451 3.31963 0
M  V30 2459 H 246.843 2.12502 2.11619 0
M  V30 2460 H 244.396 1.13366 1.07601 0
M  V30 2461 H 245.131 -0.189671 3.23745 0
M  V30 2462 H 244.916 1.54668 3.60306 0
M  V30 2463 H 246.406 0.700251 4.11687 0
M  V30 2464 N 246.843 -1.10192 1.12674 0
M  V30 2465 C 247.79 -2.16606 0.796906 0
M  V30 2466 C 248.76 -1.64394 -0.237476 0
M  V30 2467 O 249.945 -1.90474 -0.111484 0
M  V30 2468 C 247.085 -3.44116 0.26043 0
M  V30 2469 C 246.198 -4.10268 1.35293 0
M  V30 2470 C 245.333 -5.25507 0.775621 0
M  V30 2471 C 244.372 -5.83567 1.84706 0
M  V30 2472 N 243.509 -6.90179 1.28829 0
M  V30 2473 H 248.349 -2.44163 1.70846 0
M  V30 2474 H 245.886 -1.19846 0.85295 0
M  V30 2475 H 247.844 -4.17143 -0.0686814 0
M  V30 2476 H 246.474 -3.16901 -0.614274 0
M  V30 2477 H 245.526 -3.35184 1.79877 0
M  V30 2478 H 246.838 -4.4946 2.16303 0
M  V30 2479 H 245.992 -6.05398 0.397327 0
M  V30 2480 H 244.731 -4.87656 -0.0656581 0
M  V30 2481 H 243.736 -5.02344 2.23452 0
M  V30 2482 H 244.961 -6.23482 2.69161 0
M  V30 2483 H 242.907 -6.54322 0.468881 0
M  V30 2484 H 242.824 -7.28097 2.03497 0
M  V30 2485 H 244.092 -7.73844 0.937311 0
M  V30 2486 N 248.321 -0.919034 -1.28029 0
M  V30 2487 C 249.268 -0.410005 -2.27129 0
M  V30 2488 C 250.238 0.518405 -1.57803 0
M  V30 2489 O 251.423 0.439451 -1.8567 0
M  V30 2490 C 248.563 0.339054 -3.4343 0
M  V30 2491 C 247.676 -0.622468 -4.27492 0
M  V30 2492 C 246.811 0.145567 -5.31001 0
M  V30 2493 C 245.85 -0.809226 -6.06727 0
M  V30 2494 N 244.987 -0.0743728 -7.02061 0
M  V30 2495 H 249.827 -1.26011 -2.70047 0
M  V30 2496 H 247.364 -0.632663 -1.328 0
M  V30 2497 H 249.322 0.789586 -4.0966 0
M  V30 2498 H 247.952 1.15346 -3.01488 0
M  V30 2499 H 247.004 -1.19153 -3.61257 0
M  V30 2500 H 248.316 -1.35252 -4.80113 0
M  V30 2501 H 247.47 0.656417 -6.03139 0
M  V30 2502 H 246.209 0.908643 -4.79161 0
M  V30 2503 H 245.214 -1.3314 -5.33436 0
M  V30 2504 H 246.439 -1.57194 -6.60656 0
M  V30 2505 H 244.385 0.670616 -6.52563 0
M  V30 2506 H 244.302 -0.744157 -7.52329 0
M  V30 2507 H 245.57 0.416109 -7.78389 0
M  V30 2508 N 249.799 1.42003 -0.683588 0
M  V30 2509 C 250.762 2.29191 -0.0198243 0
M  V30 2510 C 251.762 1.43773 0.72013 0
M  V30 2511 O 252.952 1.65061 0.556815 0
M  V30 2512 C 250.084 3.26435 0.982487 0
M  V30 2513 H 251.277 2.8938 -0.787345 0
M  V30 2514 H 248.83 1.49789 -0.446418 0
M  V30 2515 H 249.565 2.71203 1.77819 0
M  V30 2516 H 249.35 3.89449 0.455182 0
M  V30 2517 H 250.84 3.918 1.44508 0
M  V30 2518 N 251.277 0.427512 1.51691 0
M  V30 2519 C 252.224 -0.388867 2.275 0
M  V30 2520 C 253.194 -1.02532 1.30677 0
M  V30 2521 O 254.379 -1.0461 1.59566 0
M  V30 2522 C 251.519 -1.48954 3.11298 0
M  V30 2523 C 250.632 -0.872194 4.23104 0
M  V30 2524 C 249.767 -1.94709 4.94228 0
M  V30 2525 C 248.806 -1.30766 5.97969 0
M  V30 2526 N 247.943 -2.32349 6.62539 0
M  V30 2527 H 252.783 0.263997 2.96828 0
M  V30 2528 H 250.32 0.142033 1.46413 0
M  V30 2529 H 252.278 -2.13887 3.58201 0
M  V30 2530 H 250.908 -2.11217 2.44105 0
M  V30 2531 H 249.96 -0.111419 3.80237 0
M  V30 2532 H 251.272 -0.365264 4.97461 0
M  V30 2533 H 250.426 -2.67327 5.44629 0
M  V30 2534 H 249.165 -2.48773 4.1948 0
M  V30 2535 H 248.17 -0.566902 5.4687 0
M  V30 2536 H 249.395 -0.774483 6.74669 0
M  V30 2537 H 247.341 -2.85511 5.90609 0
M  V30 2538 H 247.258 -1.8652 7.3263 0
M  V30 2539 H 248.526 -3.04481 7.17574 0
M  V30 2540 N 252.755 -1.56801 0.158532 0
M  V30 2541 C 253.98 -2.01295 -0.499516 0
M  V30 2542 C 254.405 -1.03799 -1.56867 0
M  V30 2543 O 253.763 -0.0155162 -1.81293 0
M  V30 2544 C 253.811 -3.44469 -1.06647 0
M  V30 2545 O 252.915 -3.50012 -2.18095 0
M  V30 2546 H 252.256 -0.652884 -0.12099 0
M  V30 2547 H 254.786 -2.02958 0.258661 0
M  V30 2548 H 254.796 -3.8351 -1.39227 0
M  V30 2549 H 253.471 -4.14932 -0.283581 0
M  V30 2550 H 252.048 -3.22822 -1.86656 0
M  V30 2551 N 254.233 0.115231 -1.57178 0
M  V30 2552 C 255.644 0.67197 -1.74188 0
M  V30 2553 C 255.995 1.80125 -0.777777 0
M  V30 2554 O 255.12 2.16346 0.0484376 0
M  V30 2555 C 255.715 1.22573 -3.1585 0
M  V30 2556 C 254.274 1.72872 -3.34353 0
M  V30 2557 C 253.421 0.629972 -2.70049 0
M  V30 2558 H 256.372 -0.110712 -1.58313 0
M  V30 2559 H 256.393 2.09535 -3.17609 0
M  V30 2560 H 255.905 0.403598 -3.85996 0
M  V30 2561 H 254.006 2.5755 -2.69256 0
M  V30 2562 H 254.119 1.83557 -4.42542 0
M  V30 2563 H 252.483 1.0645 -2.31388 0
M  V30 2564 H 253.266 -0.181241 -3.42821 0
M  V30 2565 N 255.711 1.52812 0.385517 0
M  V30 2566 C 256.658 1.77838 1.47113 0
M  V30 2567 C 257.628 0.621757 1.54024 0
M  V30 2568 O 258.813 0.861846 1.70226 0
M  V30 2569 C 255.953 1.95618 2.84302 0
M  V30 2570 C 255.066 3.23316 2.86515 0
M  V30 2571 C 254.201 3.31394 4.15152 0
M  V30 2572 C 253.24 4.53201 4.1143 0
M  V30 2573 N 252.377 4.58542 5.3168 0
M  V30 2574 H 257.217 2.70482 1.25073 0
M  V30 2575 H 254.754 1.34006 0.606692 0
M  V30 2576 H 256.712 2.03912 3.63972 0
M  V30 2577 H 255.342 1.06331 3.04784 0
M  V30 2578 H 254.394 3.24076 1.99195 0
M  V30 2579 H 255.706 4.13045 2.79634 0
M  V30 2580 H 254.86 3.3889 5.03228 0
M  V30 2581 H 253.599 2.39645 4.24761 0
M  V30 2582 H 252.604 4.45827 3.21742 0
M  V30 2583 H 253.829 5.46271 4.03442 0
M  V30 2584 H 251.775 3.69686 5.41912 0
M  V30 2585 H 251.692 5.42148 5.26889 0
M  V30 2586 H 252.96 4.70296 6.21644 0
M  V30 2587 N 257.189 -0.644168 1.43834 0
M  V30 2588 C 258.136 -1.75671 1.49694 0
M  V30 2589 C 259.106 -1.6246 0.345809 0
M  V30 2590 O 260.291 -1.82573 0.554234 0
M  V30 2591 C 257.431 -3.13867 1.43463 0
M  V30 2592 C 256.544 -3.38147 2.6885 0
M  V30 2593 C 255.679 -4.66241 2.54544 0
M  V30 2594 C 254.718 -4.83657 3.75157 0
M  V30 2595 N 253.855 -6.03016 3.59605 0
M  V30 2596 H 258.695 -1.69998 2.44754 0
M  V30 2597 H 256.232 -0.829458 1.21484 0
M  V30 2598 H 258.19 -3.9377 1.37843 0
M  V30 2599 H 256.82 -3.18588 0.519783 0
M  V30 2600 H 255.872 -2.52276 2.84712 0
M  V30 2601 H 257.184 -3.46899 3.58417 0
M  V30 2602 H 256.338 -5.54285 2.46683 0
M  V30 2603 H 255.077 -4.59826 1.62516 0
M  V30 2604 H 254.082 -3.94046 3.83416 0
M  V30 2605 H 255.307 -4.91896 4.68204 0
M  V30 2606 H 253.253 -5.97715 2.7032 0
M  V30 2607 H 253.17 -6.12766 4.42779 0
M  V30 2608 H 254.438 -6.93657 3.55613 0
M  V30 2609 N 258.668 -1.30515 -0.883378 0
M  V30 2610 C 259.631 -1.1701 -1.97082 0
M  V30 2611 C 260.631 -0.10089 -1.60483 0
M  V30 2612 O 261.821 -0.349127 -1.70666 0
M  V30 2613 C 258.953 -0.793045 -3.31547 0
M  V30 2614 H 260.146 -2.13622 -2.10489 0
M  V30 2615 H 257.699 -1.13935 -1.06998 0
M  V30 2616 H 258.434 0.172499 -3.23841 0
M  V30 2617 H 258.219 -1.56576 -3.5948 0
M  V30 2618 H 259.709 -0.722073 -4.1131 0
M  V30 2619 N 260.146 1.09593 -1.13257 0
M  V30 2620 C 261.093 2.1618 -0.808381 0
M  V30 2621 C 262.063 1.64517 0.228754 0
M  V30 2622 O 263.248 1.9053 0.101381 0
M  V30 2623 C 260.388 3.43973 -0.278675 0
M  V30 2624 C 259.501 4.09545 -1.37466 0
M  V30 2625 C 258.636 5.25088 -0.803479 0
M  V30 2626 C 257.675 5.82579 -1.87799 0
M  V30 2627 N 256.812 6.89486 -1.32488 0
M  V30 2628 H 261.652 2.43254 -1.72138 0
M  V30 2629 H 259.189 1.19392 -0.859294 0
M  V30 2630 H 261.147 4.17174 0.0465583 0
M  V30 2631 H 259.777 3.17223 0.597459 0
M  V30 2632 H 258.829 3.34226 -1.81652 0
M  V30 2633 H 260.141 4.48307 -2.18684 0
M  V30 2634 H 259.295 6.05178 -0.429427 0
M  V30 2635 H 258.034 4.87684 0.0397956 0
M  V30 2636 H 257.039 5.01152 -2.26113 0
M  V30 2637 H 258.264 6.22045 -2.72463 0
M  V30 2638 H 256.21 6.54064 -0.503575 0
M  V30 2639 H 256.127 7.27007 -2.07355 0
M  V30 2640 H 257.395 7.73336 -0.978336 0
M  V30 2641 N 261.624 0.925811 1.2754 0
M  V30 2642 C 262.587 0.428129 2.25166 0
M  V30 2643 C 263.587 -0.452261 1.54309 0
M  V30 2644 O 264.777 -0.253608 1.72344 0
M  V30 2645 C 261.909 -0.384749 3.38722 0
M  V30 2646 H 263.102 1.29066 2.70706 0
M  V30 2647 H 260.655 0.706323 1.3943 0
M  V30 2648 H 261.39 -1.26618 2.98561 0
M  V30 2649 H 261.175 0.246454 3.91325 0
M  V30 2650 H 262.665 -0.723389 4.11287 0
M  V30 2651 N 263.102 -1.41638 0.69111 0
M  V30 2652 C 264.065 -2.29178 0.0319786 0
M  V30 2653 C 265.065 -1.44153 -0.712496 0
M  V30 2654 O 266.255 -1.65354 -0.548053 0
M  V30 2655 C 263.387 -3.26952 -0.965161 0
M  V30 2656 H 264.58 -2.88959 0.802681 0
M  V30 2657 H 262.133 -1.4955 0.454356 0
M  V30 2658 H 262.868 -2.72142 -1.76378 0
M  V30 2659 H 262.653 -3.89685 -0.434522 0
M  V30 2660 H 264.143 -3.92561 -1.42428 0
M  V30 2661 N 264.58 -0.43555 -1.51462 0
M  V30 2662 C 265.527 0.376797 -2.27703 0
M  V30 2663 C 266.497 1.01838 -1.31219 0
M  V30 2664 O 267.682 1.03762 -1.60119 0
M  V30 2665 C 264.822 1.47301 -3.12084 0
M  V30 2666 C 263.935 0.849744 -4.2356 0
M  V30 2667 C 263.07 1.92086 -4.95254 0
M  V30 2668 C 262.109 1.27593 -5.98654 0
M  V30 2669 N 261.246 2.28833 -6.63762 0
M  V30 2670 H 266.086 -0.279734 -2.96684 0
M  V30 2671 H 263.623 -0.149795 -1.46335 0
M  V30 2672 H 265.581 2.11984 -3.59331 0
M  V30 2673 H 264.211 2.0992 -2.45221 0
M  V30 2674 H 263.263 0.0912529 -3.80291 0
M  V30 2675 H 264.575 0.338878 -4.97648 0
M  V30 2676 H 263.729 2.64435 -5.46039 0
M  V30 2677 H 262.468 2.46545 -4.20793 0
M  V30 2678 H 261.473 0.537893 -5.47162 0
M  V30 2679 H 262.698 0.738693 -6.7507 0
M  V30 2680 H 260.644 2.82375 -5.92115 0
M  V30 2681 H 260.561 1.82632 -7.33608 0
M  V30 2682 H 261.829 3.00671 -7.19178 0
M  V30 2683 N 266.058 1.56714 -0.166846 0
M  V30 2684 C 267.469 1.83378 0.350646 0
M  V30 2685 C 267.82 1.08646 1.63372 0
M  V30 2686 O 266.945 0.338058 2.13743 0
M  V30 2687 C 267.54 3.32643 0.642963 0
M  V30 2688 C 266.099 3.59818 1.10491 0
M  V30 2689 C 265.246 2.76954 0.138411 0
M  V30 2690 H 268.197 1.53803 -0.391193 0
M  V30 2691 H 268.218 3.49878 1.49551 0
M  V30 2692 H 267.73 3.87007 -0.291055 0
M  V30 2693 H 265.831 3.1086 2.05418 0
M  V30 2694 H 265.944 4.68178 1.01716 0
M  V30 2695 H 264.308 2.4666 0.634911 0
M  V30 2696 H 265.091 3.34097 -0.789549 0
M  V30 2697 N 267.536 -0.106894 1.57237 0
M  V30 2698 C 268.483 -1.13049 2.01217 0
M  V30 2699 C 269.453 -1.40471 0.886403 0
M  V30 2700 O 270.638 -1.52133 1.15153 0
M  V30 2701 C 267.778 -2.4487 2.43172 0
M  V30 2702 C 266.891 -2.24281 3.69218 0
M  V30 2703 C 266.026 -3.49417 4.00101 0
M  V30 2704 C 265.065 -3.24038 5.19294 0
M  V30 2705 N 264.202 -4.41409 5.45988 0
M  V30 2706 H 269.042 -0.748456 2.88448 0
M  V30 2707 H 266.579 -0.358054 1.42676 0
M  V30 2708 H 268.537 -3.21786 2.65537 0
M  V30 2709 H 267.167 -2.80944 1.58967 0
M  V30 2710 H 266.219 -1.38224 3.54398 0
M  V30 2711 H 267.531 -2.01512 4.56283 0
M  V30 2712 H 266.685 -4.34746 4.2318 0
M  V30 2713 H 265.424 -3.75229 3.11535 0
M  V30 2714 H 264.429 -2.37102 4.96047 0
M  V30 2715 H 265.654 -2.99584 6.09447 0
M  V30 2716 H 263.6 -4.67319 4.60379 0
M  V30 2717 H 263.517 -4.21788 6.274 0
M  V30 2718 H 264.785 -5.27836 5.73593 0
M  V30 2719 N 269.014 -1.53014 -0.377408 0
M  V30 2720 C 269.961 -1.78616 -1.46168 0
M  V30 2721 C 270.931 -0.629917 -1.53692 0
M  V30 2722 O 272.116 -0.870861 -1.69766 0
M  V30 2723 C 269.256 -1.97123 -2.8326 0
M  V30 2724 C 268.369 -3.24831 -2.84796 0
M  V30 2725 C 267.504 -3.33591 -4.13389 0
M  V30 2726 C 266.543 -4.55377 -4.09021 0
M  V30 2727 N 265.68 -4.61355 -5.29241 0
M  V30 2728 H 270.52 -2.71142 -1.23637 0
M  V30 2729 H 268.057 -1.34326 -0.599577 0
M  V30 2730 H 270.015 -2.05839 -3.62886 0
M  V30 2731 H 268.645 -1.07946 -3.04216 0
M  V30 2732 H 267.697 -3.25128 -1.97474 0
M  V30 2733 H 269.009 -4.14523 -2.77439 0
M  V30 2734 H 268.163 -3.41554 -5.01424 0
M  V30 2735 H 266.902 -2.41894 -4.23484 0
M  V30 2736 H 265.907 -4.47527 -3.19373 0
M  V30 2737 H 267.132 -5.48402 -4.00539 0
M  V30 2738 H 265.078 -3.72554 -5.39944 0
M  V30 2739 H 264.995 -5.44935 -5.24006 0
M  V30 2740 H 266.263 -4.73586 -6.19141 0
M  V30 2741 N 270.492 0.636531 -1.44174 0
M  V30 2742 C 271.455 1.73063 -1.50273 0
M  V30 2743 C 272.455 1.56113 -0.385397 0
M  V30 2744 O 273.645 1.61707 -0.64781 0
M  V30 2745 C 270.777 3.12096 -1.37145 0
M  V30 2746 H 271.97 1.69031 -2.47727 0
M  V30 2747 H 269.523 0.849706 -1.31186 0
M  V30 2748 H 270.258 3.21728 -0.407636 0
M  V30 2749 H 270.043 3.25805 -2.18159 0
M  V30 2750 H 271.533 3.91846 -1.44382 0
M  V30 2751 N 271.97 1.30982 0.876444 0
M  V30 2752 C 273.381 1.18277 1.44456 0
M  V30 2753 C 273.732 -0.213265 1.95037 0
M  V30 2754 O 272.857 -1.11057 1.85729 0
M  V30 2755 C 273.452 2.1411 2.62569 0
M  V30 2756 C 272.011 2.05358 3.15444 0
M  V30 2757 C 271.158 2.03706 1.88146 0
M  V30 2758 H 274.109 1.43127 0.685584 0
M  V30 2759 H 274.13 1.72692 3.39054 0
M  V30 2760 H 273.642 3.15706 2.25724 0
M  V30 2761 H 271.743 1.06934 3.56926 0
M  V30 2762 H 271.856 2.94156 3.78166 0
M  V30 2763 H 270.22 1.48629 2.06837 0
M  V30 2764 H 271.003 3.07047 1.53547 0
M  V30 2765 N 273.449 -1.08991 1.13837 0
M  V30 2766 C 274.396 -2.15748 0.819835 0
M  V30 2767 C 275.366 -1.64636 -0.220026 0
M  V30 2768 O 276.551 -1.90582 -0.0912757 0
M  V30 2769 C 273.691 -3.4382 0.296913 0
M  V30 2770 C 272.804 -4.0881 1.39636 0
M  V30 2771 C 271.939 -5.24655 0.831314 0
M  V30 2772 C 270.978 -5.81575 1.90886 0
M  V30 2773 N 270.115 -6.88774 1.36142 0
M  V30 2774 H 274.955 -2.42338 1.73426 0
M  V30 2775 H 272.492 -1.18935 0.865613 0
M  V30 2776 H 274.45 -4.17193 -0.0244339 0
M  V30 2777 H 273.08 -3.17535 -0.580628 0
M  V30 2778 H 272.132 -3.33258 1.83422 0
M  V30 2779 H 273.444 -4.47141 2.21058 0
M  V30 2780 H 272.598 -6.04942 0.461515 0
M  V30 2781 H 271.337 -4.87698 -0.013932 0
M  V30 2782 H 270.342 -4.99946 2.28767 0
M  V30 2783 H 271.567 -6.20592 2.75758 0
M  V30 2784 H 269.513 -6.53788 0.538254 0
M  V30 2785 H 269.43 -7.25898 2.11208 0
M  V30 2786 H 270.698 -7.72806 1.01933 0
M  V30 2787 N 274.927 -0.932562 -1.27047 0
M  V30 2788 C 276.152 -0.591474 -1.98787 0
M  V30 2789 C 276.577 0.824601 -1.69062 0
M  V30 2790 O 275.935 1.5541 -0.933677 0
M  V30 2791 C 275.983 -0.829808 -3.50922 0
M  V30 2792 O 275.087 0.102266 -4.12273 0
M  V30 2793 H 274.428 -0.227185 -0.623926 0
M  V30 2794 H 276.958 -1.25314 -1.61733 0
M  V30 2795 H 276.968 -0.747292 -4.01098 0
M  V30 2796 H 275.643 -1.86201 -3.7189 0
M  V30 2797 H 274.22 -0.0305761 -3.72887 0
M  V30 2798 N 276.405 1.4127 -0.698611 0
M  V30 2799 C 277.816 1.84187 -0.305289 0
M  V30 2800 C 278.167 1.58449 1.15708 0
M  V30 2801 O 277.292 1.05651 1.88856 0
M  V30 2802 C 277.887 3.3435 -0.547314 0
M  V30 2803 C 276.446 3.75826 -0.207878 0
M  V30 2804 C 275.593 2.64647 -0.828099 0
M  V30 2805 H 278.544 1.30778 -0.89904 0
M  V30 2806 H 278.565 3.8001 0.192998 0
M  V30 2807 H 278.077 3.53051 -1.61172 0
M  V30 2808 H 276.178 3.62725 0.852143 0
M  V30 2809 H 276.291 4.74462 -0.665021 0
M  V30 2810 H 274.655 2.53395 -0.257458 0
M  V30 2811 H 275.438 2.86165 -1.89643 0
M  V30 2812 N 277.883 0.443576 1.51229 0
M  V30 2813 C 278.846 -0.353132 2.26463 0
M  V30 2814 C 279.846 -0.944338 1.3015 0
M  V30 2815 O 281.036 -0.817813 1.5381 0
M  V30 2816 C 278.168 -1.50023 3.06114 0
M  V30 2817 H 279.361 0.3063 2.98332 0
M  V30 2818 H 276.914 0.196902 1.55055 0
M  V30 2819 H 277.649 -2.19553 2.38677 0
M  V30 2820 H 277.434 -1.08241 3.76864 0
M  V30 2821 H 278.924 -2.06296 3.63087 0
M  V30 2822 N 279.361 -1.56624 0.175154 0
M  V30 2823 C 280.308 -2.18149 -0.753634 0
M  V30 2824 C 281.278 -1.12265 -1.22417 0
M  V30 2825 O 282.463 -1.40432 -1.29165 0
M  V30 2826 C 279.603 -2.82933 -1.97592 0
M  V30 2827 C 278.716 -4.03289 -1.5486 0
M  V30 2828 C 277.851 -4.55988 -2.72485 0
M  V30 2829 C 276.89 -5.68746 -2.26262 0
M  V30 2830 N 276.027 -6.15938 -3.36994 0
M  V30 2831 H 280.867 -2.9717 -0.222195 0
M  V30 2832 H 278.404 -1.46774 -0.0979422 0
M  V30 2833 H 280.362 -3.18653 -2.69288 0
M  V30 2834 H 278.992 -2.06509 -2.481 0
M  V30 2835 H 278.044 -3.73364 -0.728246 0
M  V30 2836 H 279.356 -4.849 -1.16933 0
M  V30 2837 H 278.51 -4.9391 -3.52332 0
M  V30 2838 H 277.249 -3.73443 -3.13674 0
M  V30 2839 H 276.254 -5.30372 -1.44863 0
M  V30 2840 H 277.479 -6.53095 -1.86127 0
M  V30 2841 H 275.425 -5.36321 -3.77751 0
M  V30 2842 H 275.342 -6.92548 -3.03172 0
M  V30 2843 H 276.61 -6.58511 -4.17114 0
M  V30 2844 N 280.839 0.0985539 -1.57292 0
M  V30 2845 C 281.802 1.10402 -2.00858 0
M  V30 2846 C 282.802 1.33146 -0.901593 0
M  V30 2847 O 283.992 1.29318 -1.16716 0
M  V30 2848 C 281.124 2.45394 -2.36632 0
M  V30 2849 H 282.317 0.729099 -2.90902 0
M  V30 2850 H 279.87 0.343495 -1.52479 0
M  V30 2851 H 280.605 2.87769 -1.49531 0
M  V30 2852 H 280.39 2.30235 -3.17387 0
M  V30 2853 H 281.88 3.17718 -2.71007 0
M  V30 2854 N 282.317 1.53212 0.369288 0
M  V30 2855 C 283.264 1.79388 1.45219 0
M  V30 2856 C 284.234 0.638059 1.53356 0
M  V30 2857 O 285.419 0.879852 1.69302 0
M  V30 2858 C 282.559 1.98623 2.82211 0
M  V30 2859 C 281.672 3.26337 2.8307 0
M  V30 2860 C 280.807 3.35779 4.11614 0
M  V30 2861 C 279.846 4.5754 4.06601 0
M  V30 2862 N 278.983 4.64155 5.26787 0
M  V30 2863 H 283.823 2.71794 1.22198 0
M  V30 2864 H 281.36 1.34642 0.592444 0
M  V30 2865 H 283.318 2.07761 3.61789 0
M  V30 2866 H 281.948 1.09558 3.03639 0
M  V30 2867 H 281 3.26171 1.95747 0
M  V30 2868 H 282.312 4.15988 2.75237 0
M  V30 2869 H 281.466 3.44208 4.99606 0
M  V30 2870 H 280.205 2.44137 4.22195 0
M  V30 2871 H 279.21 4.49215 3.16996 0
M  V30 2872 H 280.435 5.50519 3.97625 0
M  V30 2873 H 278.381 3.75413 5.3796 0
M  V30 2874 H 278.298 5.47706 5.21109 0
M  V30 2875 H 279.566 4.76863 6.16621 0
M  V30 2876 N 283.795 -0.628877 1.44509 0
M  V30 2877 C 284.758 -1.72263 1.51188 0
M  V30 2878 C 285.758 -1.55907 0.39367 0
M  V30 2879 O 286.948 -1.61361 0.656377 0
M  V30 2880 C 284.08 -3.11365 1.38798 0
M  V30 2881 H 285.273 -1.67714 2.4862 0
M  V30 2882 H 282.826 -0.842737 1.31634 0
M  V30 2883 H 283.561 -3.21507 0.424693 0
M  V30 2884 H 283.346 -3.24644 2.19884 0
M  V30 2885 H 284.836 -3.91075 1.46458 0
M  V30 2886 N 285.273 -1.31445 -0.869486 0
M  V30 2887 C 286.519 -1.21337 -1.62496 0
M  V30 2888 C 286.852 0.227872 -1.92858 0
M  V30 2889 O 286.127 1.16094 -1.56053 0
M  V30 2890 C 286.41 -2.05814 -2.95487 0
M  V30 2891 C 286.263 -3.5824 -2.72 0
M  V30 2892 C 287.582 -1.9079 -3.96594 0
M  V30 2893 H 284.701 -0.442135 -0.589649 0
M  V30 2894 H 287.343 -1.6124 -1.00507 0
M  V30 2895 H 285.493 -1.71913 -3.48394 0
M  V30 2896 H 287.165 -4.0228 -2.25762 0
M  V30 2897 H 285.408 -3.81647 -2.06224 0
M  V30 2898 H 286.079 -4.12657 -3.66631 0
M  V30 2899 H 288.555 -2.20459 -3.52898 0
M  V30 2900 H 287.431 -2.52199 -4.87531 0
M  V30 2901 H 287.692 -0.871341 -4.33428 0
M  V30 2902 N 286.751 1.08385 -1.14413 0
M  V30 2903 C 287.698 2.15311 -0.831265 0
M  V30 2904 C 288.668 1.64751 0.211292 0
M  V30 2905 O 289.853 1.90627 0.0811674 0
M  V30 2906 C 286.993 3.43658 -0.315143 0
M  V30 2907 C 286.106 4.08064 -1.41802 0
M  V30 2908 C 285.241 5.24207 -0.859126 0
M  V30 2909 C 284.28 5.80554 -1.93967 0
M  V30 2910 N 283.417 6.88042 -1.39793 0
M  V30 2911 H 288.257 2.41415 -1.74708 0
M  V30 2912 H 285.794 1.18474 -0.871909 0
M  V30 2913 H 287.752 4.172 0.00230884 0
M  V30 2914 H 286.382 3.17839 0.56378 0
M  V30 2915 H 285.434 3.3228 -1.85187 0
M  V30 2916 H 286.746 4.45962 -2.23427 0
M  V30 2917 H 285.9 6.04689 -0.49359 0
M  V30 2918 H 284.639 4.87699 -0.011932 0
M  V30 2919 H 283.644 4.98725 -2.31415 0
M  V30 2920 H 284.869 6.19121 -2.79046 0
M  V30 2921 H 282.815 6.53493 -0.572919 0
M  V30 2922 H 282.732 7.24767 -2.15054 0
M  V30 2923 H 284 7.72255 -1.0603 0
M  V30 2924 N 288.23 0.939286 1.26551 0
M  V30 2925 C 289.641 0.628782 1.75793 0
M  V30 2926 C 289.992 -0.856046 1.7654 0
M  V30 2927 O 289.117 -1.66994 1.3763 0
M  V30 2928 C 289.712 1.13465 3.19235 0
M  V30 2929 C 288.271 0.874601 3.66098 0
M  V30 2930 C 287.418 1.28667 2.45642 0
M  V30 2931 H 290.369 1.1178 1.12654 0
M  V30 2932 H 290.39 0.487609 3.77363 0
M  V30 2933 H 289.902 2.21535 3.1866 0
M  V30 2934 H 288.003 -0.191793 3.72106 0
M  V30 2935 H 288.116 1.50028 4.55004 0
M  V30 2936 H 286.48 0.705109 2.44745 0
M  V30 2937 H 287.263 2.37625 2.47769 0
M  V30 2938 N 289.708 -1.40897 0.706093 0
M  V30 2939 C 290.655 -2.30751 0.0474474 0
M  V30 2940 C 291.625 -1.47678 -0.76029 0
M  V30 2941 O 292.81 -1.76441 -0.726177 0
M  V30 2942 C 289.95 -3.33815 -0.875309 0
M  V30 2943 C 289.063 -4.31961 -0.0580623 0
M  V30 2944 C 288.198 -5.22093 -0.979425 0
M  V30 2945 C 287.237 -6.11902 -0.155706 0
M  V30 2946 N 286.374 -6.94482 -1.03144 0
M  V30 2947 H 291.214 -2.86513 0.819413 0
M  V30 2948 H 288.751 -1.41102 0.415783 0
M  V30 2949 H 290.709 -3.92129 -1.42446 0
M  V30 2950 H 289.339 -2.79579 -1.61356 0
M  V30 2951 H 288.391 -3.75507 0.608147 0
M  V30 2952 H 289.703 -4.95415 0.580082 0
M  V30 2953 H 288.857 -5.85292 -1.59744 0
M  V30 2954 H 287.596 -4.5889 -1.65141 0
M  V30 2955 H 286.601 -5.47742 0.475309 0
M  V30 2956 H 287.826 -6.77162 0.512635 0
M  V30 2957 H 285.772 -6.33877 -1.68924 0
M  V30 2958 H 285.689 -7.54665 -0.449108 0
M  V30 2959 H 286.957 -7.6214 -1.63593 0
M  V30 2960 N 291.186 -0.45159 -1.50991 0
M  V30 2961 C 292.149 0.341117 -2.26647 0
M  V30 2962 C 293.149 0.937422 -1.30649 0
M  V30 2963 O 294.339 0.809644 -1.54241 0
M  V30 2964 C 291.471 1.48398 -3.06905 0
M  V30 2965 H 292.664 -0.322117 -2.98165 0
M  V30 2966 H 290.217 -0.205122 -1.54948 0
M  V30 2967 H 290.952 2.18284 -2.39838 0
M  V30 2968 H 290.737 1.06241 -3.77432 0
M  V30 2969 H 292.227 2.04367 -3.64176 0
M  V30 2970 N 292.664 1.56529 -0.183458 0
M  V30 2971 C 293.627 2.17324 0.728223 0
M  V30 2972 C 294.627 1.12453 1.14939 0
M  V30 2973 O 295.817 1.37902 1.06437 0
M  V30 2974 C 292.949 2.76591 1.99274 0
M  V30 2975 H 294.142 2.99241 0.198772 0
M  V30 2976 H 291.695 1.5616 0.0661391 0
M  V30 2977 H 292.43 1.98441 2.56499 0
M  V30 2978 H 292.215 3.5335 1.69959 0
M  V30 2979 H 293.705 3.23311 2.6431 0
M  V30 2980 N 294.142 -0.090211 1.57342 0
M  V30 2981 C 295.089 -1.10909 2.02405 0
M  V30 2982 C 296.059 -1.39523 0.901252 0
M  V30 2983 O 297.244 -1.50903 1.1676 0
M  V30 2984 C 294.384 -2.42277 2.45755 0
M  V30 2985 C 293.497 -2.20352 3.71576 0
M  V30 2986 C 292.632 -3.45154 4.03785 0
M  V30 2987 C 291.671 -3.18512 5.22701 0
M  V30 2988 N 290.808 -4.35593 5.50639 0
M  V30 2989 H 295.648 -0.71782 2.89225 0
M  V30 2990 H 293.185 -0.342901 1.43048 0
M  V30 2991 H 295.143 -3.18951 2.68935 0
M  V30 2992 H 293.773 -2.79242 1.61938 0
M  V30 2993 H 292.825 -1.34458 3.55844 0
M  V30 2994 H 294.137 -1.96661 4.58395 0
M  V30 2995 H 293.291 -4.30233 4.27767 0
M  V30 2996 H 292.03 -3.71904 3.15498 0
M  V30 2997 H 291.035 -2.31827 4.98534 0
M  V30 2998 H 292.26 -2.93103 6.12591 0
M  V30 2999 H 290.206 -4.6241 4.6531 0
M  V30 3000 H 290.123 -4.1511 6.31838 0
M  V30 3001 H 291.391 -5.21723 5.7916 0
M  V30 3002 N 295.62 -1.53406 -0.361157 0
M  V30 3003 C 297.031 -1.61442 -0.937728 0
M  V30 3004 C 297.382 -0.48461 -1.90121 0
M  V30 3005 O 296.507 0.388312 -2.12888 0
M  V30 3006 C 297.102 -2.92624 -1.70753 0
M  V30 3007 C 295.661 -3.02981 -2.23337 0
M  V30 3008 C 294.808 -2.5677 -1.04712 0
M  V30 3009 H 297.759 -1.58083 -0.139816 0
M  V30 3010 H 297.78 -2.80675 -2.56908 0
M  V30 3011 H 297.292 -3.74834 -1.00604 0
M  V30 3012 H 295.393 -2.25368 -2.96715 0
M  V30 3013 H 295.506 -4.0814 -2.50916 0
M  V30 3014 H 293.87 -2.11752 -1.41539 0
M  V30 3015 H 294.653 -3.41402 -0.360539 0
M  V30 3016 N 297.098 0.621204 -1.44841 0
M  V30 3017 C 298.045 1.73267 -1.5247 0
M  V30 3018 C 299.015 1.6189 -0.371611 0
M  V30 3019 O 300.2 1.81668 -0.58321 0
M  V30 3020 C 297.34 3.11545 -1.48438 0
M  V30 3021 C 296.453 3.33827 -2.74196 0
M  V30 3022 C 295.588 4.62133 -2.61929 0
M  V30 3023 C 294.627 4.77627 -3.82804 0
M  V30 3024 N 293.764 5.97219 -3.69153 0
M  V30 3025 H 298.604 1.66082 -2.47428 0
M  V30 3026 H 296.141 0.810026 -1.22788 0
M  V30 3027 H 298.099 3.91528 -1.4409 0
M  V30 3028 H 296.729 3.1772 -0.570402 0
M  V30 3029 H 295.781 2.47715 -2.88689 0
M  V30 3030 H 297.093 3.41153 -3.6389 0
M  V30 3031 H 296.247 5.50291 -2.5547 0
M  V30 3032 H 294.986 4.57182 -1.69811 0
M  V30 3033 H 293.991 3.87896 -3.89637 0
M  V30 3034 H 295.216 4.84385 -4.75971 0
M  V30 3035 H 293.162 5.93339 -2.79794 0
M  V30 3036 H 293.079 6.05644 -4.52472 0
M  V30 3037 H 294.347 6.87912 -3.66603 0
M  V30 3038 N 298.576 1.31904 0.862503 0
M  V30 3039 C 299.804 1.24998 1.64873 0
M  V30 3040 C 300.219 -0.183425 1.87907 0
M  V30 3041 O 299.576 -1.11794 1.44251 0
M  V30 3042 C 299.627 1.99829 3.01248 0
M  V30 3043 O 299.348 3.37575 2.79239 0
M  V30 3044 C 300.849 1.99852 3.95694 0
M  V30 3045 H 298.069 0.431599 0.513773 0
M  V30 3046 H 300.613 1.73901 1.07604 0
M  V30 3047 H 298.768 1.54668 3.55185 0
M  V30 3048 H 299.182 3.75776 3.65914 0
M  V30 3049 H 300.656 2.56709 4.88676 0
M  V30 3050 H 301.133 0.982852 4.28062 0
M  V30 3051 H 301.739 2.44926 3.47694 0
M  V30 3052 N 300.054 -1.07777 1.14986 0
M  V30 3053 C 301.017 -2.13041 0.845358 0
M  V30 3054 C 302.017 -1.60071 -0.152931 0
M  V30 3055 O 303.207 -1.74033 0.0761879 0
M  V30 3056 C 300.339 -3.39896 0.261383 0
M  V30 3057 H 301.532 -2.41485 1.77834 0
M  V30 3058 H 299.085 -1.23595 0.956757 0
M  V30 3059 H 299.82 -3.17091 -0.68 0
M  V30 3060 H 299.605 -3.79642 0.980514 0
M  V30 3061 H 301.095 -4.17548 0.0657687 0
M  V30 3062 N 301.532 -0.945985 -1.26051 0
M  V30 3063 C 302.479 -0.45809 -2.26208 0
M  V30 3064 C 303.449 0.484816 -1.58867 0
M  V30 3065 O 304.634 0.399969 -1.86561 0
M  V30 3066 C 301.774 0.266131 -3.44072 0
M  V30 3067 C 300.887 -0.713005 -4.26075 0
M  V30 3068 C 300.022 0.0329013 -5.3119 0
M  V30 3069 C 299.061 -0.93774 -6.04874 0
M  V30 3070 N 298.198 -0.223274 -7.01745 0
M  V30 3071 H 303.038 -1.3171 -2.67313 0
M  V30 3072 H 300.575 -0.66069 -1.31428 0
M  V30 3073 H 302.533 0.702514 -4.11243 0
M  V30 3074 H 301.163 1.08925 -3.03867 0
M  V30 3075 H 300.215 -1.26789 -3.58648 0
M  V30 3076 H 301.527 -1.45406 -4.77136 0
M  V30 3077 H 300.681 0.528335 -6.04395 0
M  V30 3078 H 299.42 0.806801 -4.8098 0
M  V30 3079 H 298.425 -1.44425 -5.30492 0
M  V30 3080 H 299.65 -1.71172 -6.57173 0
M  V30 3081 H 297.596 0.532046 -6.53839 0
M  V30 3082 H 297.513 -0.90357 -7.50581 0
M  V30 3083 H 298.781 0.250907 -7.79096 0
M  V30 3084 N 303.011 1.40521 -0.713556 0
M  V30 3085 C 304.422 1.83853 -0.324807 0
M  V30 3086 C 304.773 1.59667 1.14021 0
M  V30 3087 O 303.898 1.07649 1.87725 0
M  V30 3088 C 304.493 3.33751 -0.582746 0
M  V30 3089 C 303.052 3.75584 -0.247727 0
M  V30 3090 C 302.199 2.63753 -0.856121 0
M  V30 3091 H 305.15 1.29817 -0.91286 0
M  V30 3092 H 305.171 3.80194 0.152682 0
M  V30 3093 H 304.683 3.51322 -1.64908 0
M  V30 3094 H 302.784 3.63608 0.813624 0
M  V30 3095 H 302.897 4.7373 -0.715307 0
M  V30 3096 H 301.261 2.53108 -0.28432 0
M  V30 3097 H 302.044 2.84137 -1.92668 0
M  V30 3098 N 304.489 0.459591 1.5075 0
M  V30 3099 C 305.436 -0.340524 2.28274 0
M  V30 3100 C 306.406 -0.997371 1.32822 0
M  V30 3101 O 307.591 -1.01202 1.61749 0
M  V30 3102 C 304.731 -1.42317 3.14388 0
M  V30 3103 C 303.844 -0.782251 4.24859 0
M  V30 3104 C 302.979 -1.84182 4.98247 0
M  V30 3105 C 302.018 -1.18053 6.00608 0
M  V30 3106 N 301.155 -2.18244 6.67319 0
M  V30 3107 H 305.995 0.326899 2.96202 0
M  V30 3108 H 303.532 0.173057 1.46078 0
M  V30 3109 H 305.49 -2.06241 3.62658 0
M  V30 3110 H 304.12 -2.05992 2.4853 0
M  V30 3111 H 303.172 -0.0307404 3.80388 0
M  V30 3112 H 304.484 -0.259663 4.98124 0
M  V30 3113 H 303.638 -2.55714 5.50177 0
M  V30 3114 H 302.377 -2.39819 4.24662 0
M  V30 3115 H 301.382 -0.450776 5.47949 0
M  V30 3116 H 302.607 -0.631202 6.7616 0
M  V30 3117 H 300.553 -2.72919 5.96533 0
M  V30 3118 H 300.47 -1.70938 7.36421 0
M  V30 3119 H 301.738 -2.89191 7.23871 0
M  V30 3120 N 305.967 -1.56429 0.191757 0
M  V30 3121 C 306.93 -2.17707 -0.716688 0
M  V30 3122 C 307.93 -1.13061 -1.14341 0
M  V30 3123 O 309.12 -1.38464 -1.05704 0
M  V30 3124 C 306.252 -2.77644 -1.97804 0
M  V30 3125 H 307.445 -2.99342 -0.1829 0
M  V30 3126 H 304.998 -1.56193 -0.0578566 0
M  V30 3127 H 305.733 -1.99799 -2.55443 0
M  V30 3128 H 305.518 -3.54246 -1.68083 0
M  V30 3129 H 307.008 -3.24708 -2.62592 0
M  V30 3130 N 307.445 0.0818655 -1.57387 0
M  V30 3131 C 308.408 1.08265 -2.02018 0
M  V30 3132 C 309.408 1.32183 -0.915664 0
M  V30 3133 O 310.598 1.28073 -1.18081 0
M  V30 3134 C 307.73 2.42871 -2.39221 0
M  V30 3135 H 308.923 0.698204 -2.91659 0
M  V30 3136 H 306.476 0.327303 -1.52835 0
M  V30 3137 H 307.211 2.86167 -1.52575 0
M  V30 3138 H 306.996 2.26855 -3.19811 0
M  V30 3139 H 308.486 3.14826 -2.74362 0
M  V30 3140 N 308.923 1.53595 0.353017 0
M  V30 3141 C 309.87 1.80919 1.43308 0
M  V30 3142 C 310.84 0.654288 1.5267 0
M  V30 3143 O 312.025 0.897759 1.6836 0
M  V30 3144 C 309.165 2.01605 2.80089 0
M  V30 3145 C 308.278 3.29321 2.79593 0
M  V30 3146 C 307.413 3.40125 4.0803 0
M  V30 3147 C 306.452 4.61826 4.01725 0
M  V30 3148 N 305.589 4.69716 5.21834 0
M  V30 3149 H 310.429 2.73074 1.19308 0
M  V30 3150 H 307.966 1.35263 0.578131 0
M  V30 3151 H 309.924 2.11586 3.59565 0
M  V30 3152 H 308.554 1.12772 3.0246 0
M  V30 3153 H 307.606 3.28229 1.92276 0
M  V30 3154 H 308.918 4.18884 2.70809 0
M  V30 3155 H 308.072 3.49488 4.95927 0
M  V30 3156 H 306.811 2.48601 4.19582 0
M  V30 3157 H 305.816 4.52552 3.12213 0
M  V30 3158 H 307.041 5.54705 3.91764 0
M  V30 3159 H 304.987 3.81097 5.33948 0
M  V30 3160 H 304.904 5.53202 5.1527 0
M  V30 3161 H 306.172 4.83376 6.11529 0
M  V30 3162 N 310.401 -0.613514 1.45168 0
M  V30 3163 C 311.812 -1.19539 1.43413 0
M  V30 3164 C 312.163 -1.95558 0.158632 0
M  V30 3165 O 311.288 -2.0335 -0.740119 0
M  V30 3166 C 311.883 -2.17445 2.59813 0
M  V30 3167 C 310.442 -2.71022 2.61197 0
M  V30 3168 C 309.589 -1.46323 2.35552 0
M  V30 3169 H 312.54 -0.403163 1.53494 0
M  V30 3170 H 312.561 -3.00373 2.33574 0
M  V30 3171 H 312.073 -1.62089 3.52631 0
M  V30 3172 H 310.174 -3.30332 1.7237 0
M  V30 3173 H 310.287 -3.15859 3.60236 0
M  V30 3174 H 308.651 -1.75072 1.84992 0
M  V30 3175 H 309.434 -0.92844 3.30507 0
M  V30 3176 N 311.879 -1.3236 -0.855495 0
M  V30 3177 C 312.826 -1.21225 -1.964 0
M  V30 3178 C 313.796 -0.0946204 -1.6583 0
M  V30 3179 O 314.981 -0.27002 -1.8888 0
M  V30 3180 C 312.121 -0.940419 -3.32039 0
M  V30 3181 C 311.234 -2.14276 -3.75113 0
M  V30 3182 C 310.369 -1.80648 -4.9954 0
M  V30 3183 C 309.408 -2.97208 -5.35102 0
M  V30 3184 N 308.545 -2.63678 -6.50706 0
M  V30 3185 H 313.385 -2.16042 -2.05255 0
M  V30 3186 H 310.922 -1.07451 -1.00463 0
M  V30 3187 H 312.88 -0.763311 -4.10158 0
M  V30 3188 H 311.51 -0.0290413 -3.22787 0
M  V30 3189 H 310.562 -2.43017 -2.92655 0
M  V30 3190 H 311.874 -3.01468 -3.97389 0
M  V30 3191 H 311.028 -1.59484 -5.85363 0
M  V30 3192 H 309.767 -0.906678 -4.79198 0
M  V30 3193 H 308.772 -3.19004 -4.47791 0
M  V30 3194 H 309.997 -3.87918 -5.57401 0
M  V30 3195 H 307.943 -1.76238 -6.31883 0
M  V30 3196 H 307.86 -3.444 -6.72997 0
M  V30 3197 H 309.128 -2.45942 -7.39684 0
M  V30 3198 N 313.357 1.07166 -1.15556 0
M  V30 3199 C 314.304 2.14417 -0.854055 0
M  V30 3200 C 315.274 1.64965 0.193806 0
M  V30 3201 O 316.459 1.90703 0.0609443 0
M  V30 3202 C 313.599 3.43304 -0.351574 0
M  V30 3203 C 312.712 4.06537 -1.46123 0
M  V30 3204 C 311.847 5.23266 -0.914677 0
M  V30 3205 C 310.886 5.78464 -2.00114 0
M  V30 3206 N 310.023 6.86521 -1.47083 0
M  V30 3207 H 314.863 2.39548 -1.77259 0
M  V30 3208 H 312.4 1.17543 -0.884425 0
M  V30 3209 H 314.358 4.17179 -0.0419409 0
M  V30 3210 H 312.988 3.18419 0.530037 0
M  V30 3211 H 312.04 3.30297 -1.88701 0
M  V30 3212 H 313.352 4.43567 -2.28144 0
M  V30 3213 H 312.506 6.04131 -0.557698 0
M  V30 3214 H 311.245 4.87658 -0.0636583 0
M  V30 3215 H 310.25 4.96243 -2.36692 0
M  V30 3216 H 311.475 6.16126 -2.85597 0
M  V30 3217 H 309.421 6.52849 -0.642198 0
M  V30 3218 H 309.338 7.22446 -2.22729 0
M  V30 3219 H 310.606 7.71087 -1.14215 0
M  V30 3220 N 314.835 0.952656 1.25548 0
M  V30 3221 C 315.798 0.475794 2.24207 0
M  V30 3222 C 316.798 -0.419428 1.55234 0
M  V30 3223 O 317.988 -0.216994 1.72843 0
M  V30 3224 C 315.12 -0.312814 3.39462 0
M  V30 3225 H 316.313 1.34779 2.67908 0
M  V30 3226 H 313.866 0.735739 1.37901 0
M  V30 3227 H 314.601 -1.20257 3.01179 0
M  V30 3228 H 314.386 0.329404 3.90714 0
M  V30 3229 H 315.876 -0.635986 4.12729 0
M  V30 3230 N 316.313 -1.40141 0.720998 0
M  V30 3231 C 317.276 -2.29058 0.0805834 0
M  V30 3232 C 318.276 -1.45632 -0.681758 0
M  V30 3233 O 319.466 -1.6648 -0.512856 0
M  V30 3234 C 316.598 -3.28925 -0.895593 0
M  V30 3235 H 317.791 -2.87191 0.863793 0
M  V30 3236 H 315.344 -1.48553 0.485975 0
M  V30 3237 H 316.079 -2.75822 -1.70566 0
M  V30 3238 H 315.864 -3.90519 -0.351766 0
M  V30 3239 H 317.354 -3.95494 -1.34069 0
M  V30 3240 N 317.792 -0.46758 -1.50504 0
M  V30 3241 C 318.755 0.317059 -2.26996 0
M  V30 3242 C 319.755 0.923513 -1.31635 0
M  V30 3243 O 320.945 0.793239 -1.55091 0
M  V30 3244 C 318.077 1.45134 -3.08462 0
M  V30 3245 H 319.27 -0.353723 -2.97807 0
M  V30 3246 H 316.823 -0.221545 -1.54722 0
M  V30 3247 H 317.558 2.15728 -2.4214 0
M  V30 3248 H 317.343 1.02232 -3.78538 0
M  V30 3249 H 318.833 2.00493 -3.66323 0
M  V30 3250 N 319.27 1.56325 -0.20005 0
M  V30 3251 C 320.217 2.1932 0.718833 0
M  V30 3252 C 321.187 1.14198 1.20615 0
M  V30 3253 O 322.372 1.42469 1.26914 0
M  V30 3254 C 319.512 2.86041 1.93066 0
M  V30 3255 C 318.625 4.05702 1.48425 0
M  V30 3256 C 317.76 4.60266 2.65196 0
M  V30 3257 C 316.799 5.72273 2.17185 0
M  V30 3258 N 315.936 6.21221 3.27152 0
M  V30 3259 H 320.776 2.97486 0.17489 0
M  V30 3260 H 318.313 1.46911 0.0745794 0
M  V30 3261 H 320.271 3.22897 2.64184 0
M  V30 3262 H 318.901 2.1043 2.44783 0
M  V30 3263 H 317.953 3.74475 0.668755 0
M  V30 3264 H 319.265 4.86699 1.09204 0
M  V30 3265 H 318.419 4.99453 3.4443 0
M  V30 3266 H 317.158 3.78386 3.07693 0
M  V30 3267 H 316.163 5.3261 1.36407 0
M  V30 3268 H 317.388 6.55974 1.75713 0
M  V30 3269 H 315.334 5.42263 3.69171 0
M  V30 3270 H 315.251 6.97284 2.92116 0
M  V30 3271 H 316.519 6.65063 4.06585 0
M  V30 3272 N 320.748 -0.0735177 1.57428 0
M  V30 3273 C 321.695 -1.08756 2.0357 0
M  V30 3274 C 322.665 -1.38559 0.916 0
M  V30 3275 O 323.85 -1.49656 1.18354 0
M  V30 3276 C 320.99 -2.39657 2.48311 0
M  V30 3277 C 320.103 -2.16399 3.73892 0
M  V30 3278 C 319.238 -3.40852 4.07423 0
M  V30 3279 C 318.277 -3.1295 5.2605 0
M  V30 3280 N 317.414 -4.29729 5.55228 0
M  V30 3281 H 322.254 -0.687104 2.8997 0
M  V30 3282 H 319.791 -0.327709 1.43403 0
M  V30 3283 H 321.749 -3.16081 2.72303 0
M  V30 3284 H 320.379 -2.77508 1.64891 0
M  V30 3285 H 319.431 -1.30676 3.57251 0
M  V30 3286 H 320.743 -1.91788 4.60455 0
M  V30 3287 H 319.897 -4.25671 4.32306 0
M  V30 3288 H 318.636 -3.68537 3.19425 0
M  V30 3289 H 317.641 -2.26526 5.00965 0
M  V30 3290 H 318.866 -2.86589 6.15665 0
M  V30 3291 H 316.812 -4.57448 4.70188 0
M  V30 3292 H 316.729 -4.08385 6.36206 0
M  V30 3293 H 317.997 -5.1555 5.84661 0
M  V30 3294 N 322.226 -1.5378 -0.344866 0
M  V30 3295 C 323.173 -1.81676 -1.42346 0
M  V30 3296 C 324.143 -0.662376 -1.52321 0
M  V30 3297 O 325.328 -0.906675 -1.67881 0
M  V30 3298 C 322.468 -2.03087 -2.79015 0
M  V30 3299 C 321.581 -3.30799 -2.77842 0
M  V30 3300 C 320.716 -3.42285 -4.0622 0
M  V30 3301 C 319.755 -4.6395 -3.9927 0
M  V30 3302 N 318.892 -4.72477 -5.19336 0
M  V30 3303 H 323.732 -2.73703 -1.17858 0
M  V30 3304 H 321.269 -1.35568 -0.570949 0
M  V30 3305 H 323.227 -2.1349 -3.58438 0
M  V30 3306 H 321.857 -1.14375 -3.01858 0
M  V30 3307 H 320.909 -3.29244 -1.90533 0
M  V30 3308 H 322.221 -4.20314 -2.68584 0
M  V30 3309 H 321.375 -3.52113 -4.94066 0
M  V30 3310 H 320.114 -2.50823 -4.18258 0
M  V30 3311 H 319.119 -4.54201 -3.09809 0
M  V30 3312 H 320.344 -5.56775 -3.88817 0
M  V30 3313 H 318.29 -3.83924 -5.3192 0
M  V30 3314 H 318.207 -5.55927 -5.12329 0
M  V30 3315 H 319.475 -4.86613 -6.08957 0
M  V30 3316 O 323.743 0.490843 -1.5386 0
M  V30 3317 H 324.434 1.14557 -1.56193 0
M  V30 END ATOM
M  V30 BEGIN BOND
M  V30 END BOND
M  V30 END CTAB
M  END
$$$$
