drugbank_target|P10589 COUP transcription factor 1 (DB06732)
 OpenBabel12092121053D

  0  0  0     0  0            999 V3000
M  V30 BEGIN CTAB
M  V30 COUNTS 6412 6487 0 0 0
M  V30 BEGIN ATOM
M  V30 1 H -0.908 1.98254 -0.117106 0
M  V30 2 N 0 1.576 0 0
M  V30 3 C 0.933 2.03868 1.02534 0
M  V30 4 C 1.911 0.928543 1.3348 0
M  V30 5 O 3.095 1.19667 1.45644 0
M  V30 6 C 0.222 2.43627 2.35294 0
M  V30 7 C -0.732 3.65373 2.2001 0
M  V30 8 S 0.101 5.13292 1.52614 0
M  V30 9 C 1.257 5.56322 2.86805 0
M  V30 10 H 1.49 2.90518 0.631377 0
M  V30 11 H -0.977 1.52953 0.210867 0
M  V30 12 H 0.981 2.67203 3.11629 0
M  V30 13 H -0.358 1.57376 2.7183 0
M  V30 14 H -1.165 3.90944 3.18086 0
M  V30 15 H -1.563 3.418 1.51819 0
M  V30 16 H 0.729 5.58782 3.83104 0
M  V30 17 H 1.672 6.56266 2.65933 0
M  V30 18 H 2.08 4.83886 2.90714 0
M  V30 19 N 1.4781 -0.272755 1.55222 0
M  V30 20 C 2.4411 -1.32041 1.87344 0
M  V30 21 C 3.4411 -1.42342 0.74803 0
M  V30 22 O 4.6311 -1.41488 1.0162 0
M  V30 23 C 1.7631 -2.70173 2.07893 0
M  V30 24 H 2.9561 -1.04789 2.80997 0
M  V30 25 H 0.5091 -0.51083 1.47717 0
M  V30 26 H 1.2441 -3.02605 1.16622 0
M  V30 27 H 1.0291 -2.64082 2.89833 0
M  V30 28 H 2.5191 -3.45869 2.34017 0
M  V30 29 N 2.9562 -1.48159 -0.537278 0
M  V30 30 C 3.8892 -1.567 -1.65893 0
M  V30 31 C 4.8672 -0.41787 -1.57139 0
M  V30 32 O 6.0512 -0.628461 -1.77715 0
M  V30 33 C 3.1782 -1.48818 -3.04255 0
M  V30 34 C 2.2242 -2.68482 -3.31391 0
M  V30 35 S 3.0572 -4.30516 -3.1846 0
M  V30 36 C 4.2132 -4.2522 -4.59281 0
M  V30 37 H 4.4462 -2.5159 -1.58397 0
M  V30 38 H 1.9792 -1.36602 -0.719672 0
M  V30 39 H 3.9372 -1.44958 -3.84054 0
M  V30 40 H 2.5982 -0.552777 -3.09198 0
M  V30 41 H 1.7912 -2.59085 -4.32309 0
M  V30 42 H 1.3932 -2.69567 -2.59248 0
M  V30 43 H 3.6852 -3.94703 -5.5065 0
M  V30 44 H 4.6282 -5.26292 -4.73732 0
M  V30 45 H 5.0362 -3.55791 -4.38261 0
M  V30 46 N 4.4343 0.785586 -1.36625 0
M  V30 47 C 5.6803 1.54591 -1.31261 0
M  V30 48 C 6.0133 1.93906 0.106823 0
M  V30 49 O 5.2883 1.63007 1.06108 0
M  V30 50 C 5.5713 2.82038 -2.23889 0
M  V30 51 C 5.4243 2.49066 -3.74548 0
M  V30 52 C 6.7433 3.83887 -2.15217 0
M  V30 53 H 3.8623 0.560846 -0.478143 0
M  V30 54 H 6.5043 0.902278 -1.67209 0
M  V30 55 H 4.6543 3.36961 -1.93363 0
M  V30 56 H 6.3263 2.00164 -4.15611 0
M  V30 57 H 4.5693 1.81954 -3.93796 0
M  V30 58 H 5.2403 3.40109 -4.34776 0
M  V30 59 H 7.7163 3.38421 -2.42096 0
M  V30 60 H 6.5923 4.70806 -2.82193 0
M  V30 61 H 6.8533 4.27131 -1.14068 0
M  V30 62 N 5.9124 1.20967 1.01018 0
M  V30 63 C 7.1584 1.02526 1.74975 0
M  V30 64 C 7.4914 -0.4408 1.89131 0
M  V30 65 O 6.7664 -1.32718 1.42184 0
M  V30 66 C 7.0494 1.71699 3.1653 0
M  V30 67 C 6.9024 3.25791 3.10129 0
M  V30 68 C 8.2214 1.45531 4.15342 0
M  V30 69 H 5.3404 0.373863 0.635134 0
M  V30 70 H 7.9824 1.49071 1.17805 0
M  V30 71 H 6.1324 1.32128 3.65341 0
M  V30 72 H 7.8044 3.74697 2.69072 0
M  V30 73 H 6.0474 3.56363 2.47362 0
M  V30 74 H 6.7184 3.69353 4.10222 0
M  V30 75 H 9.1944 1.79872 3.75213 0
M  V30 76 H 8.0704 1.96453 5.1254 0
M  V30 77 H 8.3314 0.384237 4.40427 0
M  V30 78 N 7.3905 -1.2043 1.01659 0
M  V30 79 C 8.6155 -1.94318 0.724942 0
M  V30 80 C 9.0405 -1.74266 -0.708034 0
M  V30 81 O 8.3985 -1.03694 -1.48719 0
M  V30 82 C 8.4465 -3.44486 1.06591 0
M  V30 83 O 7.5505 -4.12017 0.177599 0
M  V30 84 H 6.8915 -0.60708 0.26898 0
M  V30 85 H 9.4215 -1.52861 1.35995 0
M  V30 86 H 9.4315 -3.95106 1.01762 0
M  V30 87 H 8.1065 -3.58404 2.10997 0
M  V30 88 H 6.6835 -3.71821 0.283421 0
M  V30 89 N 8.8686 -0.792821 -1.36206 0
M  V30 90 C 10.0936 -0.377701 -2.03932 0
M  V30 91 C 10.5186 0.998947 -1.59382 0
M  V30 92 O 9.8766 1.64421 -0.763903 0
M  V30 93 C 9.9246 -0.453635 -3.57735 0
M  V30 94 O 9.0286 0.538151 -4.08874 0
M  V30 95 H 8.3696 -0.159855 -0.644471 0
M  V30 96 H 10.8996 -1.07488 -1.7409 0
M  V30 97 H 10.9096 -0.318464 -4.06755 0
M  V30 98 H 9.5846 -1.45784 -3.89512 0
M  V30 99 H 8.1616 0.364359 -3.71116 0
M  V30 100 N 10.3467 1.47872 -0.545128 0
M  V30 101 C 11.5927 2.03385 -0.0247951 0
M  V30 102 C 11.9477 1.41325 1.30556 0
M  V30 103 O 11.2407 0.5552 1.8338 0
M  V30 104 C 11.4347 3.57131 0.13867 0
M  V30 105 C 11.2637 4.34097 -1.17429 0
M  V30 106 C 10.0337 4.74458 -1.73831 0
M  V30 107 C 12.2317 4.6998 -2.08861 0
M  V30 108 N 10.2137 5.3602 -2.99258 0
M  V30 109 C 11.5847 5.31719 -3.18866 0
M  V30 110 C 13.6397 4.5191 -2.09003 0
M  V30 111 C 12.3427 5.77295 -4.29096 0
M  V30 112 C 14.3687 4.98477 -3.18237 0
M  V30 113 C 13.7307 5.60253 -4.26961 0
M  V30 114 H 9.8297 0.780339 -0.050943 0
M  V30 115 H 12.4137 1.80507 -0.729753 0
M  V30 116 H 10.5847 3.79802 0.812733 0
M  V30 117 H 12.3167 3.99282 0.659976 0
M  V30 118 H 9.0717 4.56037 -1.2778 0
M  V30 119 H 9.4957 5.71355 -3.63157 0
M  V30 120 H 14.1377 4.03516 -1.26234 0
M  V30 121 H 11.8557 6.24687 -5.12633 0
M  V30 122 H 15.4417 4.86274 -3.1942 0
M  V30 123 H 14.3217 5.95631 -5.10091 0
M  V30 124 N 11.8248 0.280983 1.55075 0
M  V30 125 C 13.2408 -0.0729964 1.59433 0
M  V30 126 C 13.4408 -1.5411 1.29817 0
M  V30 127 O 12.4968 -2.29086 1.06187 0
M  V30 128 C 13.8098 0.306921 2.9913 0
M  V30 129 C 15.3578 0.254023 3.11968 0
M  V30 130 C 15.8328 0.608467 4.5394 0
M  V30 131 N 17.3238 0.560241 4.59799 0
M  V30 132 C 18.0588 0.80722 5.6769 0
M  V30 133 N 17.5548 1.11912 6.83701 0
M  V30 134 N 19.3478 0.735623 5.57266 0
M  V30 135 H 11.4988 1.238 1.7259 0
M  V30 136 H 13.7618 0.500547 0.805082 0
M  V30 137 H 13.4678 1.32816 3.25657 0
M  V30 138 H 13.3418 -0.349363 3.75579 0
M  V30 139 H 15.7288 -0.75794 2.852 0
M  V30 140 H 15.8098 0.944649 2.37718 0
M  V30 141 H 15.4538 1.61814 4.81434 0
M  V30 142 H 15.3838 -0.104013 5.26497 0
M  V30 143 H 17.8748 0.329288 3.76463 0
M  V30 144 H 18.1878 1.29409 7.61888 0
M  V30 145 H 16.5328 1.15695 6.85303 0
M  V30 146 H 19.7238 0.491752 4.6551 0
M  V30 147 H 19.8968 0.931482 6.4127 0
M  V30 148 N 13.3029 -1.57598 0.00835791 0
M  V30 149 C 14.5799 -1.82172 -0.712235 0
M  V30 150 C 14.9599 -0.887873 -1.9152 0
M  V30 151 O 14.3079 0.06146 -2.28417 0
M  V30 152 C 14.5179 -3.30875 -1.11008 0
M  V30 153 C 15.8659 -3.96826 -1.51044 0
M  V30 154 O 16.8899 -3.35248 -1.20364 0
M  V30 155 O 15.7489 -5.05318 -2.08125 0
M  V30 156 H 12.8429 -0.750435 -0.347529 0
M  V30 157 H 15.3889 -1.69665 0.0344523 0
M  V30 158 H 14.1609 -3.90481 -0.252982 0
M  V30 159 H 13.7839 -3.48412 -1.9156 0
M  V30 160 N 14.781 0.264519 -1.55364 0
M  V30 161 C 16.192 0.834936 -1.6699 0
M  V30 162 C 16.543 1.86718 -0.602552 0
M  V30 163 O 15.668 2.14899 0.254425 0
M  V30 164 C 16.263 1.5212 -3.02729 0
M  V30 165 C 14.822 2.03954 -3.16354 0
M  V30 166 C 13.969 0.884498 -2.62815 0
M  V30 167 H 16.92 0.0406869 -1.58648 0
M  V30 168 H 16.941 2.38853 -2.96191 0
M  V30 169 H 16.453 0.769668 -3.80392 0
M  V30 170 H 14.554 2.82041 -2.43482 0
M  V30 171 H 14.667 2.24902 -4.23032 0
M  V30 172 H 13.031 1.2802 -2.20188 0
M  V30 173 H 13.814 0.14634 -3.42988 0
M  V30 174 N 16.2591 1.48442 0.529413 0
M  V30 175 C 17.1911 1.59095 1.64989 0
M  V30 176 C 18.2041 0.475212 1.5571 0
M  V30 177 O 19.3931 0.746081 1.6216 0
M  V30 178 C 16.4931 1.50518 3.0364 0
M  V30 179 C 15.6661 2.77142 3.38395 0
M  V30 180 C 14.7251 2.62012 4.56329 0
M  V30 181 O 13.7511 3.35898 4.59522 0
M  V30 182 N 14.9531 1.71667 5.54536 0
M  V30 183 H 17.7181 2.55723 1.56287 0
M  V30 184 H 15.2791 1.45173 0.716697 0
M  V30 185 H 17.2711 1.38091 3.80412 0
M  V30 186 H 15.8411 0.618627 3.06418 0
M  V30 187 H 15.0611 3.0413 2.50796 0
M  V30 188 H 16.3491 3.61146 3.58401 0
M  V30 189 H 15.7471 1.10841 5.54735 0
M  V30 190 H 14.3041 1.65178 6.30523 0
M  V30 191 N 17.7372 -0.778329 1.37039 0
M  V30 192 C 19.0142 -1.52551 1.22424 0
M  V30 193 C 19.3942 -2.10288 -0.184964 0
M  V30 194 O 18.7422 -1.94953 -1.19187 0
M  V30 195 C 18.9522 -2.61164 2.31504 0
M  V30 196 C 20.3002 -3.28746 2.68721 0
M  V30 197 O 21.3242 -2.71455 2.30631 0
M  V30 198 O 20.1832 -4.3231 3.3432 0
M  V30 199 H 17.2772 -0.675343 0.477326 0
M  V30 200 H 19.8232 -0.815859 1.48801 0
M  V30 201 H 18.5952 -2.16574 3.25901 0
M  V30 202 H 18.2182 -3.39737 2.06554 0
M  V30 203 N 19.2153 -1.21501 -1.00376 0
M  V30 204 C 20.4923 -0.941745 -1.71437 0
M  V30 205 C 20.8723 0.546114 -2.03914 0
M  V30 206 O 20.2203 1.51128 -1.71384 0
M  V30 207 C 20.4303 -1.82812 -2.97289 0
M  V30 208 C 21.7783 -2.07771 -3.70292 0
M  V30 209 O 22.8023 -1.80171 -3.07273 0
M  V30 210 O 21.6613 -2.54456 -4.83647 0
M  V30 211 H 18.7553 -0.353243 -0.747762 0
M  V30 212 H 21.3013 -1.32436 -1.06108 0
M  V30 213 H 20.0733 -2.83501 -2.69709 0
M  V30 214 H 19.6963 -1.4464 -3.70358 0
M  V30 215 N 20.6934 1.19889 -1.02296 0
M  V30 216 C 21.9394 1.89701 -0.717033 0
M  V30 217 C 22.2724 1.7905 0.751989 0
M  V30 218 O 21.5474 1.17891 1.547 0
M  V30 219 C 21.8304 3.40858 -1.16136 0
M  V30 220 C 21.6834 3.60411 -2.69117 0
M  V30 221 C 23.0024 4.33876 -0.737549 0
M  V30 222 H 20.1214 0.688874 -0.261957 0
M  V30 223 H 22.7634 1.41154 -1.27183 0
M  V30 224 H 20.9134 3.82335 -0.689342 0
M  V30 225 H 22.5854 3.28145 -3.2422 0
M  V30 226 H 20.8284 3.03665 -3.0979 0
M  V30 227 H 21.4994 4.66396 -2.95261 0
M  V30 228 H 23.9754 4.00081 -1.14344 0
M  V30 229 H 22.8514 5.38242 -1.0764 0
M  V30 230 H 23.1124 4.40628 0.360436 0
M  V30 231 N 22.1715 0.800033 1.35784 0
M  V30 232 C 23.1345 0.211565 2.28221 0
M  V30 233 C 24.1345 -0.59728 1.49296 0
M  V30 234 O 25.3245 -0.416721 1.69142 0
M  V30 235 C 22.4565 -0.705846 3.33513 0
M  V30 236 H 23.6495 1.02677 2.81776 0
M  V30 237 H 21.2025 0.570211 1.45528 0
M  V30 238 H 21.9375 -1.54498 2.85133 0
M  V30 239 H 21.7225 -0.127655 3.91892 0
M  V30 240 H 23.2125 -1.11211 4.02519 0
M  V30 241 N 23.6496 -1.47581 0.552962 0
M  V30 242 C 24.8976 -2.02082 0.0272703 0
M  V30 243 C 25.2186 -1.4301 -1.32563 0
M  V30 244 O 24.4886 -0.603745 -1.86365 0
M  V30 245 H 23.0686 -0.746966 0.00709182 0
M  V30 246 H 25.7306 -1.81033 0.722008 0
M  V30 247 H 24.8266 -3.12034 -0.0639951 0
M  V30 248 N 25.1277 -0.289203 -1.54924 0
M  V30 249 C 26.3757 0.322879 -1.99504 0
M  V30 250 C 26.6967 1.55313 -1.1791 0
M  V30 251 O 25.9667 1.94001 -0.272097 0
M  V30 252 H 24.5467 0.122291 -0.736922 0
M  V30 253 H 27.2087 -0.397802 -1.90797 0
M  V30 254 H 26.3047 0.603061 -3.06218 0
M  V30 255 N 26.6058 1.57591 -0.0167156 0
M  V30 256 C 27.5538 2.10604 0.987353 0
M  V30 257 C 28.5478 1.02977 1.34507 0
M  V30 258 O 29.7538 1.21425 1.32875 0
M  V30 259 H 26.1288 0.672695 0.336134 0
M  V30 260 H 28.0998 2.93925 0.514817 0
M  V30 261 C 26.8488 2.6382 2.26483 0
M  V30 262 H 26.1718 3.46278 1.99829 0
M  V30 263 H 27.6118 3.04573 2.94977 0
M  V30 264 C 26.0708 1.55992 2.9861 0
M  V30 265 O 26.6008 0.952521 3.90243 0
M  V30 266 N 24.8068 1.28335 2.60727 0
M  V30 267 H 24.3538 1.77914 1.86291 0
M  V30 268 H 24.3118 0.564115 3.09298 0
M  V30 269 N 28.0839 -0.256276 1.55502 0
M  V30 270 C 29.4949 -0.826068 1.67431 0
M  V30 271 C 29.8459 -1.86396 0.612446 0
M  V30 272 O 28.9709 -2.15031 -0.243025 0
M  V30 273 C 29.5659 -1.50512 3.03532 0
M  V30 274 C 28.1249 -2.02273 3.17431 0
M  V30 275 C 27.2719 -0.870548 2.63281 0
M  V30 276 H 30.2229 -0.0322728 1.58667 0
M  V30 277 H 30.2439 -2.37279 2.97454 0
M  V30 278 H 29.7559 -0.749484 3.80794 0
M  V30 279 H 27.8569 -2.80746 2.44974 0
M  V30 280 H 27.9699 -2.22655 4.24219 0
M  V30 281 H 26.3339 -1.26851 2.20864 0
M  V30 282 H 27.1169 -0.128149 3.43061 0
M  V30 283 N 29.562 -1.4872 -0.521534 0
M  V30 284 C 30.81 -1.56857 -1.27437 0
M  V30 285 C 31.131 -0.247982 -1.93417 0
M  V30 286 O 30.401 0.731151 -1.81744 0
M  V30 287 H 28.981 -0.577885 -0.473347 0
M  V30 288 H 31.643 -1.85233 -0.606205 0
M  V30 289 H 30.739 -2.35402 -2.0492 0
M  V30 290 N 31.0401 0.771051 -1.3745 0
M  V30 291 C 32.2881 1.52661 -1.32435 0
M  V30 292 C 32.6091 1.9479 0.0905024 0
M  V30 293 O 31.8791 1.66348 1.03466 0
M  V30 294 H 30.4591 0.566218 -0.487244 0
M  V30 295 H 33.1211 0.917636 -1.71946 0
M  V30 296 H 32.2171 2.42568 -1.96385 0
M  V30 297 N 32.5182 1.22032 0.997298 0
M  V30 298 C 33.9292 1.0397 1.55071 0
M  V30 299 C 34.2802 -0.398192 1.92117 0
M  V30 300 O 33.4052 -1.28254 1.74298 0
M  V30 301 C 34.0002 1.88109 2.81781 0
M  V30 302 C 32.5592 1.74357 3.33581 0
M  V30 303 C 31.7062 1.84846 2.06706 0
M  V30 304 H 34.6572 1.35941 0.818883 0
M  V30 305 H 34.6782 1.39589 3.53971 0
M  V30 306 H 34.1902 2.92754 2.54787 0
M  V30 307 H 32.2912 0.72427 3.65493 0
M  V30 308 H 32.4042 2.56772 4.04481 0
M  V30 309 H 30.7682 1.28238 2.20062 0
M  V30 310 H 31.5512 2.91014 1.82114 0
M  V30 311 N 33.9963 -1.19345 1.0293 0
M  V30 312 C 34.9443 -2.24621 0.604001 0
M  V30 313 C 35.9383 -1.65452 -0.363587 0
M  V30 314 O 37.1443 -1.78497 -0.23212 0
M  V30 315 H 33.5193 -0.730858 0.177061 0
M  V30 316 H 35.4903 -2.5781 1.50255 0
M  V30 317 C 34.2393 -3.47688 -0.0289127 0
M  V30 318 H 33.5623 -3.93505 0.706651 0
M  V30 319 H 35.0023 -4.23011 -0.289432 0
M  V30 320 C 33.4613 -3.11817 -1.2756 0
M  V30 321 O 33.9913 -3.2451 -2.36762 0
M  V30 322 N 32.1973 -2.66246 -1.16453 0
M  V30 323 H 31.7443 -2.56118 -0.275914 0
M  V30 324 H 31.7023 -2.42617 -1.99961 0
M  V30 325 N 35.4744 -0.807222 -1.35358 0
M  V30 326 C 36.8854 -0.44876 -1.81226 0
M  V30 327 C 37.2364 1.02929 -1.67033 0
M  V30 328 O 36.3614 1.79991 -1.20133 0
M  V30 329 C 36.9564 -0.807774 -3.2903 0
M  V30 330 C 35.5154 -0.501901 -3.73039 0
M  V30 331 C 34.6624 -1.03304 -2.57339 0
M  V30 332 H 37.6134 -0.998808 -1.23327 0
M  V30 333 H 37.6344 -0.10554 -3.80354 0
M  V30 334 H 37.1464 -1.88357 -3.39328 0
M  V30 335 H 35.2474 0.565128 -3.68289 0
M  V30 336 H 35.3604 -1.03497 -4.67787 0
M  V30 337 H 33.7244 -0.455339 -2.50597 0
M  V30 338 H 34.5074 -2.11496 -2.70415 0
M  V30 339 N 36.9525 1.47285 -0.560781 0
M  V30 340 C 37.9155 2.28535 0.174488 0
M  V30 341 C 38.9155 1.37153 0.839388 0
M  V30 342 O 40.1055 1.59748 0.694702 0
M  V30 343 C 37.2375 3.16934 1.25561 0
M  V30 344 H 38.4305 2.95012 -0.539262 0
M  V30 345 H 35.9835 1.53034 -0.317865 0
M  V30 346 H 36.7185 2.55157 2.00164 0
M  V30 347 H 36.5035 3.8419 0.783604 0
M  V30 348 H 37.9935 3.78143 1.77193 0
M  V30 349 N 38.4306 0.297415 1.54768 0
M  V30 350 C 39.3936 -0.567375 2.22066 0
M  V30 351 C 40.3936 -1.06409 1.20556 0
M  V30 352 O 41.5836 -0.960691 1.45315 0
M  V30 353 C 38.7156 -1.78517 2.90421 0
M  V30 354 H 39.9086 0.0205534 2.99893 0
M  V30 355 H 37.4616 0.0482163 1.56226 0
M  V30 356 H 38.1966 -2.41303 2.16664 0
M  V30 357 H 37.9816 -1.43669 3.64831 0
M  V30 358 H 39.4716 -2.39964 3.41771 0
M  V30 359 N 39.9087 -1.5758 0.0250728 0
M  V30 360 C 40.8407 -2.06869 -0.986796 0
M  V30 361 C 41.8537 -0.991332 -1.29137 0
M  V30 362 O 43.0427 -1.26761 -1.25674 0
M  V30 363 C 40.1427 -2.47486 -2.31525 0
M  V30 364 C 39.3157 -3.78253 -2.19643 0
M  V30 365 C 38.3747 -4.05464 -3.35388 0
M  V30 366 O 37.4007 -4.75774 -3.12454 0
M  V30 367 N 38.6027 -3.55321 -4.59051 0
M  V30 368 H 41.3677 -2.94302 -0.566276 0
M  V30 369 H 38.9287 -1.6109 -0.161776 0
M  V30 370 H 40.9207 -2.62785 -3.07776 0
M  V30 371 H 39.4907 -1.65441 -2.65232 0
M  V30 372 H 38.7107 -3.7279 -1.28144 0
M  V30 373 H 39.9987 -4.63936 -2.08903 0
M  V30 374 H 39.3967 -2.98431 -4.80578 0
M  V30 375 H 37.9537 -3.75905 -5.32483 0
M  V30 376 N 41.3868 0.248026 -1.55636 0
M  V30 377 C 42.3498 1.29044 -1.89421 0
M  V30 378 C 43.3498 1.41134 -0.770581 0
M  V30 379 O 44.5398 1.39854 -1.03858 0
M  V30 380 C 41.6718 2.66831 -2.12165 0
M  V30 381 H 42.8648 1.00305 -2.82629 0
M  V30 382 H 40.4178 0.487265 -1.48511 0
M  V30 383 H 41.1528 3.00711 -1.21422 0
M  V30 384 H 40.9378 2.59438 -2.93997 0
M  V30 385 H 42.4278 3.42103 -2.3949 0
M  V30 386 N 42.8649 1.48995 0.513639 0
M  V30 387 C 43.8279 1.64229 1.59879 0
M  V30 388 C 44.8279 0.514696 1.5234 0
M  V30 389 O 46.0179 0.78087 1.55718 0
M  V30 390 C 43.1499 1.62783 2.99524 0
M  V30 391 H 44.3429 2.61004 1.47705 0
M  V30 392 H 41.8959 1.37837 0.736936 0
M  V30 393 H 42.6309 0.675461 3.17188 0
M  V30 394 H 42.4159 2.4466 3.06404 0
M  V30 395 H 43.9059 1.76669 3.78388 0
M  V30 396 N 44.343 -0.763751 1.37857 0
M  V30 397 C 45.759 -1.06542 1.18832 0
M  V30 398 C 45.959 -2.01478 0.0299722 0
M  V30 399 O 45.015 -2.4458 -0.627447 0
M  V30 400 C 46.328 -1.65525 2.51042 0
M  V30 401 C 47.876 -1.77745 2.57635 0
M  V30 402 C 48.351 -2.4014 3.89996 0
M  V30 403 N 49.842 -2.47582 3.91481 0
M  V30 404 C 50.577 -2.96732 4.9065 0
M  V30 405 N 50.073 -3.45993 6.00217 0
M  V30 406 N 51.866 -2.95679 4.78048 0
M  V30 407 H 44.017 -0.133556 2.1198 0
M  V30 408 H 46.28 -0.121879 0.940133 0
M  V30 409 H 45.986 -1.03236 3.36207 0
M  V30 410 H 45.86 -2.64719 2.68707 0
M  V30 411 H 48.247 -2.39164 1.72872 0
M  V30 412 H 48.328 -0.772836 2.43846 0
M  V30 413 H 47.972 -1.79358 4.75177 0
M  V30 414 H 47.902 -3.41223 4.01092 0
M  V30 415 H 50.393 -2.1273 3.12337 0
M  V30 416 H 50.706 -3.81922 6.7183 0
M  V30 417 H 49.051 -3.44077 6.03851 0
M  V30 418 H 52.242 -2.56499 3.91568 0
M  V30 419 H 52.415 -3.33672 5.55488 0
M  V30 420 N 45.8211 -1.22559 -0.990812 0
M  V30 421 C 47.0691 -1.04933 -1.72724 0
M  V30 422 C 47.3901 0.416158 -1.90508 0
M  V30 423 O 46.6601 1.29918 -1.46622 0
M  V30 424 H 45.2401 -0.385296 -0.639965 0
M  V30 425 H 47.9021 -1.54105 -1.19322 0
M  V30 426 H 46.9981 -1.52886 -2.72089 0
M  V30 427 N 47.2992 1.18797 -1.03562 0
M  V30 428 C 48.5472 1.88278 -0.734569 0
M  V30 429 C 48.8682 1.8043 0.739586 0
M  V30 430 O 48.1382 1.21925 1.53333 0
M  V30 431 H 46.7182 0.696991 -0.268725 0
M  V30 432 H 49.3802 1.44192 -1.31129 0
M  V30 433 H 48.4762 2.94443 -1.03489 0
M  V30 434 N 48.7773 0.814389 1.34928 0
M  V30 435 C 50.0253 0.397636 1.9815 0
M  V30 436 C 50.3463 -1.04069 1.64908 0
M  V30 437 O 49.6163 -1.72121 0.93548 0
M  V30 438 H 48.1963 0.144043 0.732981 0
M  V30 439 H 50.8583 1.04195 1.6471 0
M  V30 440 H 49.9543 0.509688 3.0791 0
M  V30 441 N 50.2554 -1.46986 0.568584 0
M  V30 442 C 51.5034 -2.02041 0.0487022 0
M  V30 443 C 51.8244 -1.44408 -1.31039 0
M  V30 444 O 51.0944 -0.623477 -1.85714 0
M  V30 445 H 49.6744 -0.746849 0.015014 0
M  V30 446 H 52.3364 -1.80257 0.741168 0
M  V30 447 H 51.4324 -3.12085 -0.0308961 0
M  V30 448 N 51.7335 -0.305618 -1.54608 0
M  V30 449 C 52.9815 0.301701 -1.99835 0
M  V30 450 C 53.3025 1.54054 -1.19551 0
M  V30 451 O 52.5725 1.93702 -0.292658 0
M  V30 452 H 51.1525 0.114468 -0.738178 0
M  V30 453 H 53.8145 -0.418016 -1.90364 0
M  V30 454 H 52.9105 0.570548 -3.06841 0
M  V30 455 N 53.2116 1.57565 -0.0334293 0
M  V30 456 C 54.1746 2.09393 0.932048 0
M  V30 457 C 55.1746 1.00986 1.25134 0
M  V30 458 O 56.3646 1.27129 1.19096 0
M  V30 459 C 53.4966 2.56338 2.2473 0
M  V30 460 H 54.6896 2.95984 0.483085 0
M  V30 461 H 52.2426 1.54819 0.21468 0
M  V30 462 H 52.9776 1.7309 2.74245 0
M  V30 463 H 52.7626 3.35542 2.02865 0
M  V30 464 H 54.2526 2.96646 2.93923 0
M  V30 465 N 54.6897 -0.239769 1.55765 0
M  V30 466 C 55.9377 -0.964892 1.77579 0
M  V30 467 C 56.2587 -1.85582 0.598699 0
M  V30 468 O 55.5287 -1.92075 -0.385226 0
M  V30 469 H 54.1087 -0.359265 0.654933 0
M  V30 470 H 56.7707 -0.256001 1.93211 0
M  V30 471 H 55.8667 -1.58243 2.69009 0
M  V30 472 N 56.1678 -1.49265 -0.50573 0
M  V30 473 C 57.0778 -1.68312 -1.63427 0
M  V30 474 C 58.0938 -0.565682 -1.64548 0
M  V30 475 O 59.2698 -0.839801 -1.83055 0
M  V30 476 C 56.3348 -1.74107 -2.99813 0
M  V30 477 C 55.3958 -2.97653 -3.09356 0
M  V30 478 C 54.6288 -3.03163 -4.39236 0
M  V30 479 O 54.8518 -2.16396 -5.27758 0
M  V30 480 O 53.7858 -3.9558 -4.53652 0
M  V30 481 H 57.6118 -2.63907 -1.50289 0
M  V30 482 H 55.1968 -1.32951 -0.681502 0
M  V30 483 H 57.0788 -1.803 -3.80881 0
M  V30 484 H 55.7538 -0.816901 -3.13223 0
M  V30 485 H 54.6608 -2.96981 -2.27493 0
M  V30 486 H 55.9938 -3.89535 -3.00871 0
M  V30 487 N 57.6459 0.756429 -1.3826 0
M  V30 488 C 58.5779 1.87971 -1.31147 0
M  V30 489 C 59.5909 1.61248 -0.224239 0
M  V30 490 O 60.7799 1.71881 -0.481581 0
M  V30 491 C 57.8799 3.23545 -1.00857 0
M  V30 492 C 57.0529 3.77794 -2.20432 0
M  V30 493 C 56.1119 4.91877 -1.86931 0
M  V30 494 O 55.1379 5.06659 -2.59395 0
M  V30 495 N 56.3399 5.74643 -0.822568 0
M  V30 496 H 59.1049 1.94585 -2.2794 0
M  V30 497 H 56.6659 0.936234 -1.32084 0
M  V30 498 H 58.6579 3.97403 -0.765021 0
M  V30 499 H 57.2279 3.12335 -0.128687 0
M  V30 500 H 56.4479 2.95534 -2.6087 0
M  V30 501 H 57.7359 4.10771 -3.00241 0
M  V30 502 H 57.1339 5.65266 -0.221575 0
M  V30 503 H 55.6909 6.48661 -0.638899 0
M  V30 504 N 59.124 1.23083 0.984299 0
M  V30 505 C 60.056 0.96636 2.07832 0
M  V30 506 C 61.069 -0.0582135 1.62696 0
M  V30 507 O 62.258 0.176843 1.77622 0
M  V30 508 C 59.358 0.433397 3.36117 0
M  V30 509 C 58.531 1.51722 4.10243 0
M  V30 510 C 57.59 0.989821 5.16807 0
M  V30 511 O 56.616 1.67794 5.43906 0
M  V30 512 N 57.818 -0.184367 5.80207 0
M  V30 513 H 60.583 1.90824 2.31098 0
M  V30 514 H 58.144 1.13888 1.1507 0
M  V30 515 H 60.136 0.065699 4.04647 0
M  V30 516 H 58.706 -0.413806 3.09849 0
M  V30 517 H 57.926 2.05786 3.36223 0
M  V30 518 H 59.214 2.24619 4.56534 0
M  V30 519 H 58.612 -0.760062 5.60571 0
M  V30 520 H 57.169 -0.493366 6.4993 0
M  V30 521 N 60.6021 -1.18246 1.0419 0
M  V30 522 C 61.5341 -2.2142 0.592088 0
M  V30 523 C 62.5471 -1.59233 -0.338909 0
M  V30 524 O 63.7361 -1.78002 -0.133231 0
M  V30 525 C 60.8361 -3.38546 -0.154854 0
M  V30 526 C 60.0091 -4.3031 0.784328 0
M  V30 527 C 59.0681 -5.26138 0.0804583 0
M  V30 528 O 58.0941 -5.64738 0.711292 0
M  V30 529 N 59.2961 -5.68261 -1.18574 0
M  V30 530 H 62.0611 -2.60636 1.47949 0
M  V30 531 H 59.6221 -1.33044 0.922544 0
M  V30 532 H 61.6141 -3.99678 -0.635606 0
M  V30 533 H 60.1841 -2.98012 -0.943811 0
M  V30 534 H 59.4041 -3.66764 1.44491 0
M  V30 535 H 60.6921 -4.8852 1.42218 0
M  V30 536 H 60.0901 -5.38957 -1.71876 0
M  V30 537 H 58.6471 -6.31584 -1.61074 0
M  V30 538 N 62.0802 -0.821533 -1.34494 0
M  V30 539 C 63.0122 -0.199946 -2.28326 0
M  V30 540 C 64.0252 0.609377 -1.50965 0
M  V30 541 O 65.2142 0.439285 -1.7301 0
M  V30 542 C 62.3142 0.738431 -3.30757 0
M  V30 543 C 61.4872 -0.0277632 -4.37391 0
M  V30 544 C 60.5462 0.831332 -5.19591 0
M  V30 545 O 59.5722 0.276822 -5.68526 0
M  V30 546 N 60.7742 2.15132 -5.39165 0
M  V30 547 H 63.5392 -1.00609 -2.82308 0
M  V30 548 H 61.1002 -0.678366 -1.47003 0
M  V30 549 H 63.0922 1.31773 -3.82646 0
M  V30 550 H 61.6622 1.44533 -2.7718 0
M  V30 551 H 60.8822 -0.788359 -3.86236 0
M  V30 552 H 62.1702 -0.555251 -5.05761 0
M  V30 553 H 61.5682 2.62559 -5.01078 0
M  V30 554 H 60.1252 2.6795 -5.94177 0
M  V30 555 N 63.5583 1.46682 -0.576371 0
M  V30 556 C 64.5213 2.28707 0.150239 0
M  V30 557 C 65.5213 1.38035 0.824794 0
M  V30 558 O 66.7113 1.60476 0.677719 0
M  V30 559 C 63.8433 3.18248 1.22192 0
M  V30 560 H 65.0363 2.94423 -0.570521 0
M  V30 561 H 62.5893 1.52688 -0.334078 0
M  V30 562 H 63.3243 2.57265 1.97447 0
M  V30 563 H 63.1093 3.85 0.742812 0
M  V30 564 H 64.5993 3.80001 1.73172 0
M  V30 565 N 65.0364 0.313813 1.54444 0
M  V30 566 C 66.2844 -0.291099 1.99993 0
M  V30 567 C 66.6054 -1.53418 1.20366 0
M  V30 568 O 65.8754 -1.93544 0.302927 0
M  V30 569 H 64.4554 -0.110552 0.738774 0
M  V30 570 H 67.1174 0.428106 1.9014 0
M  V30 571 H 66.2134 -0.554268 3.07139 0
M  V30 572 N 66.5145 -1.57545 0.0417849 0
M  V30 573 C 67.7395 -1.97035 -0.647455 0
M  V30 574 C 68.1645 -0.918775 -1.64135 0
M  V30 575 O 67.5225 0.119006 -1.80909 0
M  V30 576 C 67.5705 -3.35609 -1.31905 0
M  V30 577 O 66.6745 -3.3287 -2.43457 0
M  V30 578 H 66.0155 -0.64211 -0.169086 0
M  V30 579 H 68.5455 -2.04318 0.107399 0
M  V30 580 H 68.5555 -3.72126 -1.67291 0
M  V30 581 H 67.2305 -4.11685 -0.590586 0
M  V30 582 H 65.8075 -3.08087 -2.10088 0
M  V30 583 N 67.9926 0.231505 -1.5589 0
M  V30 584 C 69.2406 0.955461 -1.78088 0
M  V30 585 C 69.5616 1.85262 -0.608533 0
M  V30 586 O 68.8316 1.92277 0.375035 0
M  V30 587 H 67.4116 0.355787 -0.656829 0
M  V30 588 H 70.0736 0.245751 -1.93344 0
M  V30 589 H 69.1696 1.56814 -2.69844 0
M  V30 590 N 69.4707 1.49531 0.497807 0
M  V30 591 C 70.4337 1.65916 1.58128 0
M  V30 592 C 71.4337 0.530825 1.51786 0
M  V30 593 O 72.6237 0.797342 1.54881 0
M  V30 594 C 69.7557 1.65951 2.9778 0
M  V30 595 H 70.9487 2.62556 1.44929 0
M  V30 596 H 68.5017 1.38611 0.722275 0
M  V30 597 H 69.2367 0.709065 3.16453 0
M  V30 598 H 69.0217 2.47897 3.03792 0
M  V30 599 H 70.5117 1.80673 3.76493 0
M  V30 600 N 70.9488 -0.749086 1.3866 0
M  V30 601 C 72.3598 -1.32664 1.31366 0
M  V30 602 C 72.7108 -1.96179 -0.028484 0
M  V30 603 O 71.8358 -1.9537 -0.93057 0
M  V30 604 C 72.4308 -2.41219 2.37905 0
M  V30 605 C 70.9898 -2.94684 2.34176 0
M  V30 606 C 70.1368 -1.68108 2.20533 0
M  V30 607 H 73.0878 -0.547628 1.48952 0
M  V30 608 H 73.1088 -3.21268 2.0388 0
M  V30 609 H 72.6208 -1.94962 3.35576 0
M  V30 610 H 70.7218 -3.45258 1.401 0
M  V30 611 H 70.8348 -3.48757 3.2849 0
M  V30 612 H 69.1988 -1.91907 1.67463 0
M  V30 613 H 69.9818 -1.23923 3.20153 0
M  V30 614 N 72.4269 -1.23603 -0.977757 0
M  V30 615 C 73.3769 -0.986664 -2.05545 0
M  V30 616 C 74.3609 0.0683009 -1.60755 0
M  V30 617 O 75.5529 -0.144162 -1.76412 0
M  V30 618 C 72.6819 -0.582623 -3.3832 0
M  V30 619 C 71.7679 -1.67313 -3.89701 0
M  V30 620 N 72.1589 -2.90394 -4.14132 0
M  V30 621 C 70.4569 -1.54832 -4.18262 0
M  V30 622 C 71.1579 -3.61017 -4.56116 0
M  V30 623 N 70.1339 -2.8854 -4.60701 0
M  V30 624 H 73.9359 -1.92139 -2.22396 0
M  V30 625 H 71.4499 -1.1358 -1.16074 0
M  V30 626 H 73.4469 -0.38524 -4.15116 0
M  V30 627 H 72.1069 0.34503 -3.22862 0
M  V30 628 H 73.1179 -3.26673 -4.01877 0
M  V30 629 H 69.7949 -0.687969 -4.11793 0
M  V30 630 H 71.1849 -4.66544 -4.83514 0
M  V30 631 N 73.905 1.17692 -1.04816 0
M  V30 632 C 75.133 1.91786 -0.776254 0
M  V30 633 C 75.548 1.76604 0.667577 0
M  V30 634 O 74.905 1.10067 1.45573 0
M  V30 635 C 74.956 3.42967 -1.14263 0
M  V30 636 O 74.677 3.57678 -2.52978 0
M  V30 637 C 76.178 4.34144 -0.896311 0
M  V30 638 H 73.398 0.608624 -0.282519 0
M  V30 639 H 75.942 1.49268 -1.39783 0
M  V30 640 H 74.097 3.83245 -0.565874 0
M  V30 641 H 74.511 4.51319 -2.67229 0
M  V30 642 H 75.985 5.38744 -1.20244 0
M  V30 643 H 76.462 4.38876 0.168636 0
M  V30 644 H 77.068 3.99574 -1.45672 0
M  V30 645 N 75.3831 0.828654 1.34056 0
M  V30 646 C 76.7941 0.477534 1.8049 0
M  V30 647 C 77.1451 -1.00258 1.6865 0
M  V30 648 O 76.2701 -1.78057 1.22982 0
M  V30 649 C 76.8651 0.860018 3.27703 0
M  V30 650 C 75.4241 0.561185 3.72193 0
M  V30 651 C 74.5711 1.07385 2.55663 0
M  V30 652 H 77.5221 1.0183 1.21722 0
M  V30 653 H 77.5431 0.166038 3.80138 0
M  V30 654 H 77.0551 1.93731 3.36288 0
M  V30 655 H 75.1561 -0.506465 3.69142 0
M  V30 656 H 75.2691 1.10926 4.66082 0
M  V30 657 H 73.6331 0.495149 2.49841 0
M  V30 658 H 74.4161 2.15771 2.67016 0
M  V30 659 N 76.8612 -1.46375 0.584142 0
M  V30 660 C 77.7932 -2.28443 -0.186119 0
M  V30 661 C 78.8062 -1.38596 -0.854115 0
M  V30 662 O 79.9952 -1.63183 -0.723438 0
M  V30 663 C 77.0952 -3.13671 -1.28311 0
M  V30 664 C 76.2682 -4.31652 -0.706758 0
M  V30 665 C 75.3272 -4.98267 -1.69163 0
M  V30 666 O 74.3532 -5.55815 -1.22712 0
M  V30 667 N 75.5552 -4.95408 -3.02575 0
M  V30 668 H 78.3202 -2.9519 0.517986 0
M  V30 669 H 75.8812 -1.56303 0.42201 0
M  V30 670 H 77.8732 -3.55101 -1.94128 0
M  V30 671 H 76.4432 -2.48989 -1.89005 0
M  V30 672 H 75.6632 -3.93989 0.128908 0
M  V30 673 H 76.9512 -5.07906 -0.301506 0
M  V30 674 H 76.3492 -4.49902 -3.42936 0
M  V30 675 H 74.9062 -5.40774 -3.63877 0
M  V30 676 N 78.3393 -0.321999 -1.54275 0
M  V30 677 C 79.5673 0.283052 -2.04955 0
M  V30 678 C 79.9823 1.45904 -1.19823 0
M  V30 679 O 79.3393 1.81063 -0.228545 0
M  V30 680 C 79.3903 0.719028 -3.54277 0
M  V30 681 O 79.1113 -0.410175 -4.36176 0
M  V30 682 C 80.6123 1.38705 -4.21041 0
M  V30 683 H 77.8323 0.0584616 -0.668448 0
M  V30 684 H 80.3763 -0.467734 -1.99079 0
M  V30 685 H 78.5313 1.41979 -3.60445 0
M  V30 686 H 78.9453 -0.0669416 -5.24457 0
M  V30 687 H 80.4193 1.64306 -5.2698 0
M  V30 688 H 80.8963 2.33385 -3.72059 0
M  V30 689 H 81.5023 0.728906 -4.19007 0
M  V30 690 N 79.8174 1.5752 -0.0501392 0
M  V30 691 C 81.2284 1.80271 0.485705 0
M  V30 692 C 81.5794 0.96228 1.70981 0
M  V30 693 O 80.7044 0.178578 2.15662 0
M  V30 694 C 81.2994 3.26957 0.887938 0
M  V30 695 C 79.8584 3.5063 1.36877 0
M  V30 696 C 79.0054 2.75165 0.343468 0
M  V30 697 H 81.9564 1.56281 -0.276028 0
M  V30 698 H 81.9774 3.37821 1.75093 0
M  V30 699 H 81.4894 3.881 -0.0031809 0
M  V30 700 H 79.5904 2.94766 2.27911 0
M  V30 701 H 79.7034 4.59343 1.36164 0
M  V30 702 H 78.0674 2.4127 0.816128 0
M  V30 703 H 78.8504 3.39034 -0.539548 0
M  V30 704 N 81.2955 -0.223234 1.56011 0
M  V30 705 C 82.5435 -0.946003 1.78592 0
M  V30 706 C 82.8645 -1.84936 0.618349 0
M  V30 707 O 82.1345 -1.92473 -0.364833 0
M  V30 708 H 80.7145 -0.352298 0.658707 0
M  V30 709 H 83.3765 -0.235494 1.93472 0
M  V30 710 H 82.4725 -1.55381 2.70672 0
M  V30 711 N 82.7736 -1.49793 -0.48987 0
M  V30 712 C 83.7056 -1.63413 -1.60713 0
M  V30 713 C 84.7186 -0.516329 -1.54395 0
M  V30 714 O 85.9076 -0.788812 -1.60125 0
M  V30 715 C 83.0076 -1.58516 -2.99543 0
M  V30 716 C 82.1806 -2.86016 -3.30928 0
M  V30 717 C 81.2396 -2.74018 -4.49222 0
M  V30 718 O 80.2656 -3.47964 -4.50455 0
M  V30 719 N 81.4676 -1.86309 -5.4979 0
M  V30 720 H 84.2326 -2.59777 -1.49452 0
M  V30 721 H 81.7936 -1.47022 -0.677955 0
M  V30 722 H 83.7856 -1.48128 -3.76617 0
M  V30 723 H 82.3556 -0.69965 -3.0467 0
M  V30 724 H 81.5756 -3.10672 -2.42645 0
M  V30 725 H 82.8636 -3.70521 -3.487 0
M  V30 726 H 82.2616 -1.2551 -5.51601 0
M  V30 727 H 80.8186 -1.81837 -6.25922 0
M  V30 728 N 84.2517 0.741722 -1.39055 0
M  V30 729 C 85.6627 1.31966 -1.32068 0
M  V30 730 C 86.0137 1.96192 0.0180797 0
M  V30 731 O 85.1387 1.95861 0.920196 0
M  V30 732 C 85.7337 2.39954 -2.39181 0
M  V30 733 C 84.2927 2.93438 -2.35735 0
M  V30 734 C 83.4397 1.66936 -2.21422 0
M  V30 735 H 86.3907 0.539721 -1.4924 0
M  V30 736 H 86.4117 3.20182 -2.05581 0
M  V30 737 H 85.9237 1.9318 -3.36605 0
M  V30 738 H 84.0247 3.4451 -1.41929 0
M  V30 739 H 84.1377 3.4701 -3.30335 0
M  V30 740 H 82.5017 1.91016 -1.68478 0
M  V30 741 H 83.2847 1.22224 -3.20806 0
M  V30 742 N 85.7298 1.2412 0.971189 0
M  V30 743 C 86.9778 1.07668 1.71032 0
M  V30 744 C 87.2988 -0.385797 1.91146 0
M  V30 745 O 86.5688 -1.27569 1.4867 0
M  V30 746 H 85.1488 0.395429 0.633755 0
M  V30 747 H 87.8108 1.55984 1.16855 0
M  V30 748 H 86.9068 1.57195 2.69622 0
M  V30 749 N 87.2079 -1.17134 1.05439 0
M  V30 750 C 88.1709 -2.19439 0.661764 0
M  V30 751 C 89.1709 -1.58199 -0.288042 0
M  V30 752 O 90.3609 -1.74053 -0.0715803 0
M  V30 753 C 87.4929 -3.40889 -0.0276209 0
M  V30 754 H 88.6859 -2.55688 1.56728 0
M  V30 755 H 86.2389 -1.31259 0.848567 0
M  V30 756 H 86.9739 -3.10187 -0.94629 0
M  V30 757 H 86.7589 -3.86586 0.655238 0
M  V30 758 H 88.2489 -4.16603 -0.288342 0
M  V30 759 N 88.686 -0.835752 -1.33615 0
M  V30 760 C 90.097 -0.487099 -1.80234 0
M  V30 761 C 90.448 0.993627 -1.69179 0
M  V30 762 O 89.573 1.77403 -1.23924 0
M  V30 763 C 90.168 -0.877385 -3.27242 0
M  V30 764 C 88.727 -0.580915 -3.7189 0
M  V30 765 C 87.874 -1.0874 -2.5509 0
M  V30 766 H 90.825 -1.02474 -1.2118 0
M  V30 767 H 90.846 -0.186195 -3.80044 0
M  V30 768 H 90.358 -1.95512 -3.35256 0
M  V30 769 H 88.459 0.486881 -3.69405 0
M  V30 770 H 88.572 -1.13396 -4.65487 0
M  V30 771 H 86.936 -0.508392 -2.49575 0
M  V30 772 H 87.719 -2.17184 -2.65868 0
M  V30 773 N 90.1641 1.46063 -0.591896 0
M  V30 774 C 91.1271 2.28854 0.125973 0
M  V30 775 C 92.1271 1.38903 0.810107 0
M  V30 776 O 93.3171 1.61186 0.66066 0
M  V30 777 C 90.4491 3.19526 1.1881 0
M  V30 778 H 91.6421 2.93802 -0.601717 0
M  V30 779 H 89.1951 1.52325 -0.350254 0
M  V30 780 H 89.9301 2.59345 1.94707 0
M  V30 781 H 89.7151 3.85766 0.701936 0
M  V30 782 H 91.2051 3.81817 1.69132 0
M  V30 783 N 91.6422 0.330177 1.54103 0
M  V30 784 C 92.8702 -0.272179 2.05102 0
M  V30 785 C 93.2852 -1.45267 1.20595 0
M  V30 786 O 92.6422 -1.8094 0.238144 0
M  V30 787 C 92.6932 -0.70023 3.54653 0
M  V30 788 O 92.4142 0.433301 4.35952 0
M  V30 789 C 93.9152 -1.3647 4.21771 0
M  V30 790 H 91.1352 -0.0549159 0.668749 0
M  V30 791 H 93.6792 0.478285 1.98828 0
M  V30 792 H 91.8342 -1.40066 3.61193 0
M  V30 793 H 92.2482 0.0947539 5.24414 0
M  V30 794 H 93.7222 -1.61509 5.27843 0
M  V30 795 H 94.1992 -2.31409 3.73292 0
M  V30 796 H 94.8052 -0.706675 4.19388 0
M  V30 797 N 93.1203 -1.57491 0.0584922 0
M  V30 798 C 94.5313 -1.80526 -0.476138 0
M  V30 799 C 94.8823 -0.971334 -1.70469 0
M  V30 800 O 94.0073 -0.190012 -2.15564 0
M  V30 801 C 94.6023 -3.27424 -0.870587 0
M  V30 802 C 93.1613 -3.51351 -1.35015 0
M  V30 803 C 92.3083 -2.75343 -0.32887 0
M  V30 804 H 95.2593 -1.56133 0.284312 0
M  V30 805 H 95.2803 -3.38745 -1.73299 0
M  V30 806 H 94.7923 -3.88093 0.0237627 0
M  V30 807 H 92.8933 -2.95971 -2.26345 0
M  V30 808 H 93.0063 -4.60059 -1.33726 0
M  V30 809 H 91.3703 -2.417 -0.803321 0
M  V30 810 H 92.1533 -3.38743 0.557521 0
M  V30 811 N 94.5984 0.214957 -1.56127 0
M  V30 812 C 95.8464 0.936518 -1.79091 0
M  V30 813 C 96.1674 1.84606 -0.628148 0
M  V30 814 O 95.4374 1.92664 0.35462 0
M  V30 815 H 94.0174 0.3488 -0.660566 0
M  V30 816 H 96.6794 0.22523 -1.93594 0
M  V30 817 H 95.7754 1.53943 -2.71492 0
M  V30 818 N 96.0765 1.50051 0.48192 0
M  V30 819 C 97.3045 1.64237 1.25832 0
M  V30 820 C 97.7195 0.321336 1.86045 0
M  V30 821 O 97.0765 -0.695478 1.68729 0
M  V30 822 C 97.1275 2.72548 2.37487 0
M  V30 823 O 96.8485 3.99529 1.79745 0
M  V30 824 C 98.3495 2.9761 3.28547 0
M  V30 825 H 95.5695 0.55237 0.380957 0
M  V30 826 H 98.1135 1.96207 0.576467 0
M  V30 827 H 96.2685 2.43303 3.01467 0
M  V30 828 H 96.6825 4.59342 2.5319 0
M  V30 829 H 98.1565 3.77084 4.03127 0
M  V30 830 H 98.6335 2.0826 3.86684 0
M  V30 831 H 99.2395 3.28345 2.70314 0
M  V30 832 N 97.5546 -0.734337 1.39446 0
M  V30 833 C 98.5176 -1.83004 1.37994 0
M  V30 834 C 99.5176 -1.58397 0.276938 0
M  V30 835 O 100.708 -1.65785 0.534875 0
M  V30 836 C 97.8396 -3.20802 1.1532 0
M  V30 837 H 99.0326 -1.85694 2.35494 0
M  V30 838 H 96.5856 -0.938059 1.25021 0
M  V30 839 H 97.3206 -3.23772 0.185036 0
M  V30 840 H 97.1056 -3.4006 1.95197 0
M  V30 841 H 98.5956 -4.00862 1.17046 0
M  V30 842 N 99.0327 -1.24633 -0.964593 0
M  V30 843 C 100.281 -1.08573 -1.70459 0
M  V30 844 C 100.602 0.375655 -1.91347 0
M  V30 845 O 99.8717 1.26779 -1.49345 0
M  V30 846 H 98.4517 -0.398784 -0.631649 0
M  V30 847 H 101.114 -1.56601 -1.16026 0
M  V30 848 H 100.21 -1.58623 -2.68785 0
M  V30 849 N 100.511 1.16574 -1.06058 0
M  V30 850 C 101.788 1.83048 -0.689416 0
M  V30 851 C 102.168 1.94122 0.829443 0
M  V30 852 O 101.516 1.48249 1.7388 0
M  V30 853 C 101.726 3.20186 -1.38859 0
M  V30 854 C 103.074 3.95989 -1.53226 0
M  V30 855 O 104.098 3.29696 -1.3483 0
M  V30 856 O 102.957 5.14813 -1.83384 0
M  V30 857 H 100.051 0.790258 -0.243764 0
M  V30 858 H 102.597 1.23797 -1.16071 0
M  V30 859 H 101.369 3.07146 -2.4244 0
M  V30 860 H 100.992 3.87112 -0.907216 0
M  V30 861 N 101.989 0.842826 1.3317 0
M  V30 862 C 102.936 0.276885 2.29133 0
M  V30 863 C 103.906 -0.609527 1.54512 0
M  V30 864 O 105.091 -0.546955 1.82792 0
M  V30 865 C 102.231 -0.538707 3.40869 0
M  V30 866 C 101.344 0.372169 4.30394 0
M  V30 867 C 100.479 -0.454908 5.29249 0
M  V30 868 C 99.5179 0.45411 6.10413 0
M  V30 869 N 98.6549 -0.335075 7.013 0
M  V30 870 H 103.495 1.10052 2.76934 0
M  V30 871 H 101.032 0.554161 1.36262 0
M  V30 872 H 102.99 -1.02709 4.0436 0
M  V30 873 H 101.62 -1.32727 2.9425 0
M  V30 874 H 100.672 0.97888 3.6759 0
M  V30 875 H 101.984 1.0703 4.87182 0
M  V30 876 H 101.138 -1.00695 5.98285 0
M  V30 877 H 99.8769 -1.18646 4.73048 0
M  V30 878 H 98.8819 1.01813 5.40291 0
M  V30 879 H 100.107 1.18409 6.68697 0
M  V30 880 H 98.0529 -1.04994 6.47543 0
M  V30 881 H 97.9699 0.304262 7.55387 0
M  V30 882 H 99.2379 -0.869224 7.74638 0
M  V30 883 N 103.467 -1.45747 0.599634 0
M  V30 884 C 104.715 -2.01893 0.0915472 0
M  V30 885 C 105.036 -1.47155 -1.27946 0
M  V30 886 O 104.306 -0.66273 -1.84349 0
M  V30 887 H 102.886 -0.746363 0.0308524 0
M  V30 888 H 105.548 -1.78645 0.779237 0
M  V30 889 H 104.644 -3.1208 0.0353086 0
M  V30 890 N 104.945 -0.338344 -1.53925 0
M  V30 891 C 105.877 0.555117 -2.22376 0
M  V30 892 C 106.89 1.06812 -1.22862 0
M  V30 893 O 108.079 0.979163 -1.49247 0
M  V30 894 C 105.179 1.77609 -2.88631 0
M  V30 895 C 104.352 1.39927 -4.14414 0
M  V30 896 C 103.411 2.47936 -4.64127 0
M  V30 897 O 102.437 2.11461 -5.28463 0
M  V30 898 N 103.639 3.79107 -4.39612 0
M  V30 899 H 106.404 -0.0310778 -2.99684 0
M  V30 900 H 103.965 -0.162226 -1.61085 0
M  V30 901 H 105.957 2.49287 -3.18807 0
M  V30 902 H 104.527 2.26978 -2.14941 0
M  V30 903 H 103.747 0.513481 -3.90841 0
M  V30 904 H 105.035 1.12341 -4.96243 0
M  V30 905 H 104.433 4.11531 -3.88148 0
M  V30 906 H 102.99 4.4697 -4.74406 0
M  V30 907 N 106.423 1.57458 -0.0668435 0
M  V30 908 C 107.671 1.92919 0.602214 0
M  V30 909 C 107.992 0.947215 1.70449 0
M  V30 910 O 107.262 -0.00544117 1.95899 0
M  V30 911 H 105.842 0.71217 0.22544 0
M  V30 912 H 108.504 1.94508 -0.123535 0
M  V30 913 H 107.6 2.94589 1.03073 0
M  V30 914 N 107.901 -0.206675 1.56239 0
M  V30 915 C 109.312 -0.772383 1.69974 0
M  V30 916 C 109.663 -1.84353 0.671436 0
M  V30 917 O 108.788 -2.15695 -0.174491 0
M  V30 918 C 109.383 -1.40779 3.08167 0
M  V30 919 C 107.942 -1.92072 3.23706 0
M  V30 920 C 107.089 -0.786347 2.65917 0
M  V30 921 H 110.04 0.0182223 1.5869 0
M  V30 922 H 110.061 -2.27696 3.04852 0
M  V30 923 H 109.573 -0.627958 3.82986 0
M  V30 924 H 107.674 -2.7281 2.53782 0
M  V30 925 H 107.787 -2.09046 4.31087 0
M  V30 926 H 106.151 -1.1976 2.24788 0
M  V30 927 H 106.934 -0.0189416 3.43295 0
M  V30 928 N 109.379 -1.50304 -0.473955 0
M  V30 929 C 110.79 -1.54042 -1.0549 0
M  V30 930 C 111.141 -0.342248 -1.93192 0
M  V30 931 O 110.266 0.545157 -2.09421 0
M  V30 932 C 110.861 -2.79152 -1.91989 0
M  V30 933 C 109.42 -2.8558 -2.45196 0
M  V30 934 C 108.567 -2.48295 -1.2347 0
M  V30 935 H 111.518 -1.5661 -0.256693 0
M  V30 936 H 111.539 -2.60845 -2.7702 0
M  V30 937 H 111.051 -3.66339 -1.28131 0
M  V30 938 H 109.152 -2.02738 -3.12615 0
M  V30 939 H 109.265 -3.88403 -2.80499 0
M  V30 940 H 107.629 -2.00669 -1.56856 0
M  V30 941 H 108.412 -3.37787 -0.612789 0
M  V30 942 N 110.857 0.726932 -1.39834 0
M  V30 943 C 112.105 1.4837 -1.37225 0
M  V30 944 C 112.426 1.94979 0.0284857 0
M  V30 945 O 111.696 1.69555 0.981213 0
M  V30 946 H 110.276 0.55043 -0.505011 0
M  V30 947 H 112.938 0.862468 -1.74778 0
M  V30 948 H 112.034 2.36198 -2.04003 0
M  V30 949 N 112.336 1.25143 0.95797 0
M  V30 950 C 113.561 1.12521 1.74223 0
M  V30 951 C 113.986 -0.317402 1.85403 0
M  V30 952 O 113.344 -1.2299 1.33204 0
M  V30 953 C 113.392 1.78062 3.1357 0
M  V30 954 O 112.496 1.058 3.98598 0
M  V30 955 H 111.837 0.39304 0.535178 0
M  V30 956 H 114.367 1.65641 1.201 0
M  V30 957 H 114.377 1.84213 3.64046 0
M  V30 958 H 113.052 2.83021 3.04749 0
M  V30 959 H 111.629 1.07506 3.57067 0
M  V30 960 N 113.814 -1.1601 1.06675 0
M  V30 961 C 115.062 -1.86264 0.784229 0
M  V30 962 C 115.383 -1.82328 -0.691488 0
M  V30 963 O 114.653 -1.25947 -1.50047 0
M  V30 964 H 113.233 -0.689621 0.28711 0
M  V30 965 H 115.895 -1.40664 1.34906 0
M  V30 966 H 114.991 -2.91595 1.11259 0
M  V30 967 N 115.292 -0.849877 -1.32721 0
M  V30 968 C 116.224 -0.248332 -2.27851 0
M  V30 969 C 117.237 0.577218 -1.52224 0
M  V30 970 O 118.426 0.402489 -1.73903 0
M  V30 971 C 115.526 0.668107 -3.32249 0
M  V30 972 C 114.699 -0.120534 -4.37234 0
M  V30 973 C 113.758 0.720932 -5.21238 0
M  V30 974 O 112.784 0.156166 -5.68986 0
M  V30 975 N 113.986 2.03647 -5.43607 0
M  V30 976 H 116.751 -1.06575 -2.80111 0
M  V30 977 H 114.312 -0.709395 -1.45531 0
M  V30 978 H 116.304 1.23627 -3.85355 0
M  V30 979 H 114.874 1.38621 -2.80184 0
M  V30 980 H 114.094 -0.870108 -3.84477 0
M  V30 981 H 115.382 -0.662406 -5.0447 0
M  V30 982 H 114.78 2.51871 -5.06535 0
M  V30 983 H 113.337 2.55287 -5.99727 0
M  V30 984 N 116.77 1.45427 -0.607355 0
M  V30 985 C 117.995 2.07124 -0.107006 0
M  V30 986 C 118.42 1.44906 1.19933 0
M  V30 987 O 117.778 0.541687 1.73019 0
M  V30 988 C 117.826 3.60595 0.0194119 0
M  V30 989 O 116.93 3.98285 1.0697 0
M  V30 990 H 116.271 0.659868 -0.0739597 0
M  V30 991 H 118.801 1.86683 -0.837297 0
M  V30 992 H 118.811 4.07419 0.2177 0
M  V30 993 H 117.486 4.05266 -0.934453 0
M  V30 994 H 116.063 3.63133 0.847889 0
M  V30 995 N 118.248 0.346503 1.53744 0
M  V30 996 C 119.18 -0.543316 2.22667 0
M  V30 997 C 120.193 -1.06159 1.23427 0
M  V30 998 O 121.382 -0.971235 1.49764 0
M  V30 999 C 118.482 -1.76076 2.89569 0
M  V30 1000 C 117.655 -1.37727 4.15151 0
M  V30 1001 C 116.714 -2.45471 4.65436 0
M  V30 1002 O 115.74 -2.08655 5.29577 0
M  V30 1003 N 116.942 -3.7677 4.41616 0
M  V30 1004 H 119.707 0.0469703 2.99663 0
M  V30 1005 H 117.268 0.170766 1.60997 0
M  V30 1006 H 119.26 -2.47593 3.20125 0
M  V30 1007 H 117.83 -2.25835 2.16142 0
M  V30 1008 H 117.05 -0.492746 3.91108 0
M  V30 1009 H 118.338 -1.09708 4.96832 0
M  V30 1010 H 117.736 -4.09467 3.90325 0
M  V30 1011 H 116.293 -4.44448 4.7677 0
M  V30 1012 N 119.726 -1.57421 0.075193 0
M  V30 1013 C 120.658 -2.09904 -0.920483 0
M  V30 1014 C 121.671 -1.03191 -1.25918 0
M  V30 1015 O 122.86 -1.30695 -1.21577 0
M  V30 1016 C 119.96 -2.54726 -2.23534 0
M  V30 1017 C 119.133 -3.8505 -2.07498 0
M  V30 1018 C 118.192 -4.15929 -3.22319 0
M  V30 1019 O 117.218 -4.85474 -2.9716 0
M  V30 1020 N 118.42 -3.69745 -4.47514 0
M  V30 1021 H 121.185 -2.95954 -0.472359 0
M  V30 1022 H 118.746 -1.61523 -0.110444 0
M  V30 1023 H 120.738 -2.72443 -2.9926 0
M  V30 1024 H 119.308 -1.73795 -2.59835 0
M  V30 1025 H 118.528 -3.76679 -1.16219 0
M  V30 1026 H 119.816 -4.70348 -1.94038 0
M  V30 1027 H 119.214 -3.13569 -4.7084 0
M  V30 1028 H 117.771 -3.92655 -5.20255 0
M  V30 1029 N 121.204 0.198386 -1.56346 0
M  V30 1030 C 122.154 1.2499 -1.90687 0
M  V30 1031 C 123.138 1.41158 -0.772217 0
M  V30 1032 O 124.33 1.43584 -1.03502 0
M  V30 1033 C 121.459 2.59542 -2.24706 0
M  V30 1034 C 120.545 2.47181 -3.44619 0
M  V30 1035 N 120.936 2.04495 -4.62618 0
M  V30 1036 C 119.234 2.78082 -3.48692 0
M  V30 1037 C 119.935 2.03945 -5.44776 0
M  V30 1038 N 118.911 2.45323 -4.85095 0
M  V30 1039 H 122.713 0.911149 -2.7942 0
M  V30 1040 H 120.227 0.40684 -1.57221 0
M  V30 1041 H 122.224 3.3549 -2.47491 0
M  V30 1042 H 120.884 2.94244 -1.37298 0
M  V30 1043 H 121.895 1.75256 -4.87345 0
M  V30 1044 H 118.572 3.17002 -2.71691 0
M  V30 1045 H 119.962 1.72872 -6.4928 0
M  V30 1046 N 122.682 1.50554 0.465978 0
M  V30 1047 C 123.931 1.61038 1.21448 0
M  V30 1048 C 124.244 0.31865 1.92987 0
M  V30 1049 O 125.45 0.302469 2.6981 0
M  V30 1050 C 123.906 2.84283 2.20706 0
M  V30 1051 C 123.514 4.20352 1.54946 0
M  V30 1052 C 125.258 3.04115 2.96166 0
M  V30 1053 C 123.165 5.34778 2.5252 0
M  V30 1054 H 122.095 0.599718 0.457005 0
M  V30 1055 H 124.746 1.7699 0.484424 0
M  V30 1056 H 123.128 2.61901 2.97025 0
M  V30 1057 H 124.302 4.53008 0.843811 0
M  V30 1058 H 122.617 4.06167 0.917475 0
M  V30 1059 H 125.214 3.86774 3.69202 0
M  V30 1060 H 125.557 2.16045 3.55852 0
M  V30 1061 H 126.09 3.26702 2.26959 0
M  V30 1062 H 122.829 6.25018 1.97566 0
M  V30 1063 H 122.349 5.06534 3.21222 0
M  V30 1064 H 124.028 5.65561 3.14245 0
M  V30 1065 N 124.16 -0.719506 1.40217 0
M  V30 1066 C 125.07 -1.86378 1.42479 0
M  V30 1067 C 126.086 -1.71073 0.317834 0
M  V30 1068 O 127.262 -1.93406 0.561794 0
M  V30 1069 C 124.327 -3.22136 1.28178 0
M  V30 1070 C 123.388 -3.49723 2.48982 0
M  V30 1071 C 122.621 -4.79004 2.35353 0
M  V30 1072 O 122.844 -5.53821 1.36524 0
M  V30 1073 O 121.778 -5.06839 3.2465 0
M  V30 1074 H 125.604 -1.87425 2.38968 0
M  V30 1075 H 123.189 -0.869405 1.21498 0
M  V30 1076 H 125.071 -4.03234 1.22395 0
M  V30 1077 H 123.746 -3.21825 0.347934 0
M  V30 1078 H 122.653 -2.6865 2.60342 0
M  V30 1079 H 123.986 -3.54828 3.41113 0
M  V30 1080 N 125.638 -1.25649 -0.95132 0
M  V30 1081 C 126.878 -1.11802 -1.71113 0
M  V30 1082 C 127.242 0.334758 -1.89059 0
M  V30 1083 O 128.443 0.595121 -2.62129 0
M  V30 1084 C 126.714 -1.85512 -3.05483 0
M  V30 1085 S 128.273 -1.87597 -3.96677 0
M  V30 1086 H 125.091 -0.399552 -0.588115 0
M  V30 1087 H 127.693 -1.59222 -1.1344 0
M  V30 1088 H 126.397 -2.90299 -2.90094 0
M  V30 1089 H 125.928 -1.38493 -3.68216 0
M  V30 1090 H 127.943 -0.955389 -4.86916 0
M  V30 1091 N 127.117 1.15442 -1.07289 0
M  V30 1092 C 128.363 1.86489 -0.796846 0
M  V30 1093 C 128.696 1.82078 0.675371 0
M  V30 1094 O 127.971 1.24346 1.4956 0
M  V30 1095 C 128.254 3.35626 -1.30489 0
M  V30 1096 C 128.107 3.48673 -2.84161 0
M  V30 1097 C 129.426 4.30357 -0.920907 0
M  V30 1098 H 126.545 0.677144 -0.290939 0
M  V30 1099 H 129.187 1.35633 -1.33056 0
M  V30 1100 H 127.337 3.79068 -0.850883 0
M  V30 1101 H 129.009 3.14099 -3.37846 0
M  V30 1102 H 127.252 2.90253 -3.22391 0
M  V30 1103 H 127.923 4.53453 -3.14777 0
M  V30 1104 H 130.399 3.94871 -1.3121 0
M  V30 1105 H 129.275 5.33193 -1.30372 0
M  V30 1106 H 129.536 4.4176 0.173226 0
M  V30 1107 N 128.595 0.856903 1.32268 0
M  V30 1108 C 129.841 0.462069 1.97466 0
M  V30 1109 C 130.174 -0.980298 1.67642 0
M  V30 1110 O 129.449 -1.68824 0.965858 0
M  V30 1111 C 129.732 0.704336 3.53145 0
M  V30 1112 C 129.585 2.19529 3.9259 0
M  V30 1113 C 130.904 0.1622 4.39801 0
M  V30 1114 H 128.023 0.169357 0.717278 0
M  V30 1115 H 130.665 1.07574 1.56614 0
M  V30 1116 H 128.815 0.181999 3.88073 0
M  V30 1117 H 130.487 2.78387 3.67829 0
M  V30 1118 H 128.73 2.67292 3.41668 0
M  V30 1119 H 129.401 2.31549 5.01088 0
M  V30 1120 H 131.877 0.608905 4.11621 0
M  V30 1121 H 130.753 0.361265 5.4771 0
M  V30 1122 H 131.014 -0.935158 4.32096 0
M  V30 1123 N 130.073 -1.45103 0.615059 0
M  V30 1124 C 131.313 -2.04069 0.116282 0
M  V30 1125 C 131.677 -1.4721 -1.2326 0
M  V30 1126 O 132.878 -1.97577 -1.82255 0
M  V30 1127 C 131.149 -3.57298 0.085482 0
M  V30 1128 S 132.708 -4.37394 -0.351015 0
M  V30 1129 H 129.526 -0.709006 0.0532183 0
M  V30 1130 H 132.128 -1.77709 0.81484 0
M  V30 1131 H 130.832 -3.9619 1.0706 0
M  V30 1132 H 130.363 -3.88244 -0.634835 0
M  V30 1133 H 132.378 -4.69734 -1.59889 0
M  V30 1134 N 131.551 -0.354651 -1.53558 0
M  V30 1135 C 132.799 0.237972 -2.00694 0
M  V30 1136 C 133.12 1.50173 -1.24391 0
M  V30 1137 O 132.39 1.92673 -0.354135 0
M  V30 1138 H 130.97 0.0909256 -0.741446 0
M  V30 1139 H 133.632 -0.478368 -1.88938 0
M  V30 1140 H 132.728 0.47264 -3.085 0
M  V30 1141 N 133.029 1.57378 -0.0835403 0
M  V30 1142 C 134.306 1.85363 0.624507 0
M  V30 1143 C 134.686 0.978239 1.87066 0
M  V30 1144 O 134.034 0.0475908 2.2845 0
M  V30 1145 C 134.244 3.35795 0.950947 0
M  V30 1146 C 135.592 4.03581 1.31939 0
M  V30 1147 O 136.616 3.40609 1.04232 0
M  V30 1148 O 135.475 5.14672 1.83779 0
M  V30 1149 H 132.569 0.766162 0.311329 0
M  V30 1150 H 135.115 1.69307 -0.115362 0
M  V30 1151 H 133.887 3.91244 0.0663899 0
M  V30 1152 H 133.51 3.57154 1.74719 0
M  V30 1153 N 134.507 -0.190092 1.56449 0
M  V30 1154 C 135.454 -1.23557 1.94942 0
M  V30 1155 C 136.424 -1.44972 0.810696 0
M  V30 1156 O 137.609 -1.58023 1.06927 0
M  V30 1157 C 134.749 -2.57416 2.2985 0
M  V30 1158 C 133.862 -2.43537 3.5681 0
M  V30 1159 C 132.997 -3.70134 3.81017 0
M  V30 1160 C 132.036 -3.51109 5.01387 0
M  V30 1161 N 131.173 -4.6973 5.21822 0
M  V30 1162 H 136.013 -0.900304 2.84075 0
M  V30 1163 H 133.55 -0.43318 1.40577 0
M  V30 1164 H 135.508 -3.35409 2.48106 0
M  V30 1165 H 134.138 -2.88975 1.43852 0
M  V30 1166 H 133.19 -1.56816 3.46573 0
M  V30 1167 H 134.502 -2.25415 4.4496 0
M  V30 1168 H 133.656 -4.56566 3.9954 0
M  V30 1169 H 132.395 -3.91215 2.91207 0
M  V30 1170 H 131.4 -2.63063 4.82782 0
M  V30 1171 H 132.625 -3.31468 5.9271 0
M  V30 1172 H 130.571 -4.91065 4.34961 0
M  V30 1173 H 130.488 -4.54452 6.0416 0
M  V30 1174 H 131.756 -5.57499 5.44808 0
M  V30 1175 N 135.985 -1.50799 -0.457987 0
M  V30 1176 C 137.21 -1.66496 -1.23668 0
M  V30 1177 C 137.635 -0.353288 -1.84752 0
M  V30 1178 O 136.993 0.684346 -1.67888 0
M  V30 1179 C 137.041 -2.76763 -2.3116 0
M  V30 1180 O 136.145 -2.38928 -3.36136 0
M  V30 1181 H 135.486 -0.555828 -0.363252 0
M  V30 1182 H 138.016 -1.9725 -0.543474 0
M  V30 1183 H 138.026 -3.00232 -2.76269 0
M  V30 1184 H 136.701 -3.71954 -1.86073 0
M  V30 1185 H 135.278 -2.25953 -2.96647 0
M  V30 1186 N 137.463 0.71206 -1.40597 0
M  V30 1187 C 138.688 1.50617 -1.42581 0
M  V30 1188 C 139.113 1.88079 -0.0282102 0
M  V30 1189 O 138.471 1.53511 0.964579 0
M  V30 1190 C 138.519 2.7557 -2.3258 0
M  V30 1191 O 137.623 3.72414 -1.77148 0
M  V30 1192 H 136.964 0.453966 -0.484573 0
M  V30 1193 H 139.494 0.876649 -1.84868 0
M  V30 1194 H 139.504 3.2406 -2.47889 0
M  V30 1195 H 138.179 2.47639 -3.34138 0
M  V30 1196 H 136.756 3.31276 -1.71204 0
M  V30 1197 N 138.941 1.26152 0.944643 0
M  V30 1198 C 140.189 1.11271 1.6871 0
M  V30 1199 C 140.51 -0.345166 1.91921 0
M  V30 1200 O 139.78 -1.24387 1.51343 0
M  V30 1201 H 138.36 0.408783 0.625224 0
M  V30 1202 H 141.022 1.58427 1.1352 0
M  V30 1203 H 140.118 1.62879 2.66227 0
M  V30 1204 N 140.419 -1.14872 1.07899 0
M  V30 1205 C 141.366 -2.19791 0.704319 0
M  V30 1206 C 142.336 -1.63238 -0.306987 0
M  V30 1207 O 143.521 -1.8983 -0.192171 0
M  V30 1208 C 140.661 -3.44911 0.114244 0
M  V30 1209 C 139.774 -4.15637 1.1777 0
M  V30 1210 C 138.909 -5.28324 0.552037 0
M  V30 1211 C 137.948 -5.90875 1.59789 0
M  V30 1212 N 137.085 -6.95022 0.994404 0
M  V30 1213 H 141.925 -2.5119 1.60336 0
M  V30 1214 H 139.462 -1.23356 0.801352 0
M  V30 1215 H 141.42 -4.16477 -0.245544 0
M  V30 1216 H 140.05 -3.14011 -0.74813 0
M  V30 1217 H 139.102 -3.42512 1.65499 0
M  V30 1218 H 140.414 -4.5823 1.97046 0
M  V30 1219 H 139.568 -6.06538 0.1402 0
M  V30 1220 H 138.307 -4.86939 -0.272431 0
M  V30 1221 H 137.312 -5.11369 2.01945 0
M  V30 1222 H 138.537 -6.34337 2.42474 0
M  V30 1223 H 136.483 -6.55722 0.190939 0
M  V30 1224 H 136.4 -7.36073 1.72432 0
M  V30 1225 H 137.668 -7.77123 0.608253 0
M  V30 1226 N 141.898 -0.863906 -1.31812 0
M  V30 1227 C 142.848 -0.286898 -2.26188 0
M  V30 1228 C 143.832 0.572577 -1.50367 0
M  V30 1229 O 145.024 0.420447 -1.71934 0
M  V30 1230 C 142.153 0.515849 -3.39402 0
M  V30 1231 C 141.239 -0.356531 -4.22599 0
M  V30 1232 N 141.63 -1.44716 -4.84656 0
M  V30 1233 C 139.928 -0.147898 -4.45755 0
M  V30 1234 C 140.629 -1.98462 -5.46798 0
M  V30 1235 N 139.605 -1.28247 -5.28255 0
M  V30 1236 H 143.407 -1.12055 -2.717 0
M  V30 1237 H 140.921 -0.711012 -1.46008 0
M  V30 1238 H 142.918 0.945701 -4.06032 0
M  V30 1239 H 141.578 1.34718 -2.95434 0
M  V30 1240 H 142.589 -1.83008 -4.84488 0
M  V30 1241 H 139.266 0.647973 -4.12441 0
M  V30 1242 H 140.656 -2.89932 -6.06126 0
M  V30 1243 N 143.376 1.44774 -0.622745 0
M  V30 1244 C 144.606 2.06187 -0.130532 0
M  V30 1245 C 145.014 1.46547 1.19669 0
M  V30 1246 O 144.357 0.579636 1.74316 0
M  V30 1247 C 144.419 3.59437 0.0674983 0
M  V30 1248 C 144.083 4.41496 -1.18026 0
M  V30 1249 C 145.08 4.75512 -2.102 0
M  V30 1250 C 142.765 4.82007 -1.41333 0
M  V30 1251 C 144.759 5.48912 -3.23998 0
M  V30 1252 C 142.446 5.55157 -2.55429 0
M  V30 1253 C 143.444 5.88528 -3.46589 0
M  V30 1254 O 143.132 6.60191 -4.58697 0
M  V30 1255 H 142.864 0.672045 -0.0730162 0
M  V30 1256 H 145.418 1.86768 -0.854802 0
M  V30 1257 H 143.648 3.77314 0.846825 0
M  V30 1258 H 145.337 4.02642 0.513209 0
M  V30 1259 H 146.103 4.4476 -1.93425 0
M  V30 1260 H 141.982 4.55457 -0.712709 0
M  V30 1261 H 145.526 5.74877 -3.95174 0
M  V30 1262 H 141.423 5.85324 -2.72151 0
M  V30 1263 H 142.191 6.78654 -4.57571 0
M  V30 1264 N 144.854 0.36279 1.53368 0
M  V30 1265 C 146.102 -0.227326 2.00817 0
M  V30 1266 C 146.423 -1.49511 1.25186 0
M  V30 1267 O 145.693 -1.92482 0.364348 0
M  V30 1268 H 144.273 -0.0869923 0.741917 0
M  V30 1269 H 146.935 0.488381 1.88682 0
M  V30 1270 H 146.031 -0.456273 3.08747 0
M  V30 1271 N 146.332 -1.57332 0.0918853 0
M  V30 1272 C 147.264 -2.10869 -0.898168 0
M  V30 1273 C 148.277 -1.04521 -1.24817 0
M  V30 1274 O 149.466 -1.31977 -1.20184 0
M  V30 1275 C 146.566 -2.57083 -2.2082 0
M  V30 1276 C 145.739 -3.87229 -2.03402 0
M  V30 1277 C 144.798 -4.19324 -3.17889 0
M  V30 1278 O 143.824 -4.88598 -2.91994 0
M  V30 1279 N 145.026 -3.74471 -4.43567 0
M  V30 1280 H 147.791 -2.96439 -0.440943 0
M  V30 1281 H 145.352 -1.61631 -0.0933064 0
M  V30 1282 H 147.344 -2.75602 -2.96354 0
M  V30 1283 H 145.914 -1.76541 -2.57977 0
M  V30 1284 H 145.134 -3.7789 -1.12218 0
M  V30 1285 H 146.422 -4.72379 -1.89038 0
M  V30 1286 H 145.82 -3.18546 -4.67488 0
M  V30 1287 H 144.377 -3.98151 -5.16061 0
M  V30 1288 N 147.81 0.181792 -1.56548 0
M  V30 1289 C 149.057 0.900097 -1.81396 0
M  V30 1290 C 149.385 1.82695 -0.667281 0
M  V30 1291 O 148.64 1.92614 0.346146 0
M  V30 1292 C 148.939 1.73728 -3.12335 0
M  V30 1293 C 148.605 0.960255 -4.40556 0
M  V30 1294 C 147.267 0.745766 -4.75386 0
M  V30 1295 C 149.619 0.414477 -5.19549 0
M  V30 1296 C 146.947 -0.0257694 -5.86694 0
M  V30 1297 C 149.299 -0.343916 -6.31664 0
M  V30 1298 C 147.963 -0.569301 -6.65068 0
M  V30 1299 H 147.233 0.329369 -0.663775 0
M  V30 1300 H 149.88 0.165647 -1.90782 0
M  V30 1301 H 148.185 2.54081 -2.98245 0
M  V30 1302 H 149.882 2.29591 -3.28769 0
M  V30 1303 H 146.472 1.13746 -4.13231 0
M  V30 1304 H 150.656 0.567554 -4.93044 0
M  V30 1305 H 145.912 -0.210233 -6.11038 0
M  V30 1306 H 150.086 -0.774133 -6.92084 0
M  V30 1307 H 147.713 -1.16903 -7.51158 0
M  V30 1308 N 149.288 1.51039 0.449983 0
M  V30 1309 C 150.516 1.66869 1.2232 0
M  V30 1310 C 150.931 0.360727 1.85322 0
M  V30 1311 O 150.288 -0.659531 1.70166 0
M  V30 1312 C 150.339 2.77524 2.31652 0
M  V30 1313 O 150.06 4.03252 1.7123 0
M  V30 1314 C 151.561 3.04512 3.2216 0
M  V30 1315 H 148.781 0.560326 0.369155 0
M  V30 1316 H 151.325 1.97385 0.534719 0
M  V30 1317 H 149.48 2.49642 2.96239 0
M  V30 1318 H 149.894 4.64609 2.43389 0
M  V30 1319 H 151.368 3.85551 3.95038 0
M  V30 1320 H 151.845 2.16415 3.8218 0
M  V30 1321 H 152.451 3.34005 2.63288 0
M  V30 1322 N 150.766 -0.704594 1.40972 0
M  V30 1323 C 152.006 -1.47691 1.41304 0
M  V30 1324 C 152.37 -1.91992 0.0178582 0
M  V30 1325 O 153.571 -2.68599 -0.103996 0
M  V30 1326 C 151.842 -2.66254 2.38419 0
M  V30 1327 S 153.401 -3.55516 2.57204 0
M  V30 1328 H 150.219 -0.504808 0.500689 0
M  V30 1329 H 152.821 -0.822962 1.77335 0
M  V30 1330 H 151.525 -2.31897 3.38603 0
M  V30 1331 H 151.056 -3.3655 2.03711 0
M  V30 1332 H 153.071 -4.61115 1.83268 0
M  V30 1333 N 152.244 -1.26651 -0.937939 0
M  V30 1334 C 153.154 -1.10276 -2.07066 0
M  V30 1335 C 154.17 -0.0354197 -1.73964 0
M  V30 1336 O 155.346 -0.239816 -1.99967 0
M  V30 1337 C 152.411 -0.740887 -3.38691 0
M  V30 1338 C 151.472 -1.88799 -3.85556 0
M  V30 1339 C 150.705 -1.54329 -5.10899 0
M  V30 1340 O 150.928 -0.446494 -5.6865 0
M  V30 1341 O 149.862 -2.37911 -5.52885 0
M  V30 1342 H 153.688 -2.05309 -2.23789 0
M  V30 1343 H 151.273 -1.05743 -1.0554 0
M  V30 1344 H 153.155 -0.55195 -4.1777 0
M  V30 1345 H 151.83 0.180022 -3.23199 0
M  V30 1346 H 150.737 -2.13191 -3.07409 0
M  V30 1347 H 152.07 -2.78874 -4.05574 0
M  V30 1348 N 153.722 1.14298 -1.08507 0
M  V30 1349 C 154.97 1.84993 -0.813763 0
M  V30 1350 C 155.291 1.83405 0.662393 0
M  V30 1351 O 154.561 1.28319 1.48024 0
M  V30 1352 H 153.141 0.684966 -0.298045 0
M  V30 1353 H 155.803 1.385 -1.37126 0
M  V30 1354 H 154.899 2.89788 -1.15884 0
M  V30 1355 N 155.201 0.870884 1.31352 0
M  V30 1356 C 156.441 0.488783 1.9847 0
M  V30 1357 C 156.805 -0.941536 1.67329 0
M  V30 1358 O 158.006 -1.42903 2.27667 0
M  V30 1359 C 156.277 0.739688 3.49662 0
M  V30 1360 S 157.836 0.457582 4.36408 0
M  V30 1361 H 154.654 0.18242 0.6872 0
M  V30 1362 H 157.256 1.12711 1.59739 0
M  V30 1363 H 155.96 1.77944 3.69816 0
M  V30 1364 H 155.491 0.0883905 3.93301 0
M  V30 1365 H 157.506 -0.709752 4.91098 0
M  V30 1366 N 156.679 -1.44442 0.630414 0
M  V30 1367 C 157.626 -2.30678 -0.0749355 0
M  V30 1368 C 158.596 -1.4344 -0.837502 0
M  V30 1369 O 159.781 -1.72343 -0.818684 0
M  V30 1370 C 156.921 -3.28706 -1.05103 0
M  V30 1371 C 156.034 -4.31046 -0.286954 0
M  V30 1372 C 155.169 -5.16167 -1.2548 0
M  V30 1373 C 154.208 -6.10216 -0.479843 0
M  V30 1374 N 153.345 -6.88039 -1.39811 0
M  V30 1375 H 158.185 -2.90454 0.666386 0
M  V30 1376 H 155.722 -1.43107 0.340404 0
M  V30 1377 H 157.68 -3.84027 -1.63031 0
M  V30 1378 H 156.31 -2.70632 -1.75949 0
M  V30 1379 H 155.362 -3.78203 0.408243 0
M  V30 1380 H 156.674 -4.97794 0.316657 0
M  V30 1381 H 155.828 -5.76002 -1.90544 0
M  V30 1382 H 154.567 -4.49491 -1.89233 0
M  V30 1383 H 153.572 -5.49491 0.184295 0
M  V30 1384 H 154.797 -6.78928 0.152965 0
M  V30 1385 H 152.743 -6.24032 -2.02287 0
M  V30 1386 H 152.66 -7.51223 -0.848508 0
M  V30 1387 H 153.928 -7.52397 -2.03762 0
M  V30 1388 N 158.157 -0.370918 -1.53173 0
M  V30 1389 C 159.382 0.220293 -2.06227 0
M  V30 1390 C 159.807 1.41243 -1.24225 0
M  V30 1391 O 159.165 1.79387 -0.262645 0
M  V30 1392 C 159.213 0.586663 -3.55796 0
M  V30 1393 O 158.317 1.68317 -3.76488 0
M  V30 1394 H 157.658 0.0308099 -0.663285 0
M  V30 1395 H 160.188 -0.533068 -1.97534 0
M  V30 1396 H 160.198 0.85617 -3.98916 0
M  V30 1397 H 158.873 -0.285013 -4.14922 0
M  V30 1398 H 157.45 1.40881 -3.45264 0
M  V30 1399 N 159.635 1.57281 -0.100228 0
M  V30 1400 C 160.882 1.94537 0.562268 0
M  V30 1401 C 161.21 0.982315 1.67871 0
M  V30 1402 O 160.465 0.00280936 1.957 0
M  V30 1403 C 160.764 3.38305 1.15259 0
M  V30 1404 C 160.43 4.50618 0.159409 0
M  V30 1405 C 159.092 4.81066 -0.113741 0
M  V30 1406 C 161.444 5.18615 -0.518461 0
M  V30 1407 C 158.772 5.76835 -1.07137 0
M  V30 1408 C 161.124 6.15412 -1.46459 0
M  V30 1409 C 159.788 6.44262 -1.74592 0
M  V30 1410 H 159.058 0.711863 0.205748 0
M  V30 1411 H 161.705 1.90679 -0.17715 0
M  V30 1412 H 160.01 3.38766 1.96836 0
M  V30 1413 H 161.707 3.64435 1.67297 0
M  V30 1414 H 158.297 4.2689 0.382491 0
M  V30 1415 H 162.481 4.95264 -0.320581 0
M  V30 1416 H 157.737 5.975 -1.29628 0
M  V30 1417 H 161.911 6.67194 -1.99564 0
M  V30 1418 H 159.538 7.1828 -2.48953 0
M  V30 1419 N 161.113 -0.173488 1.56642 0
M  V30 1420 C 162.36 -0.890465 1.81871 0
M  V30 1421 C 162.688 -1.82339 0.67696 0
M  V30 1422 O 161.943 -1.92795 -0.335926 0
M  V30 1423 C 162.242 -1.72069 3.13252 0
M  V30 1424 C 161.908 -0.936878 4.41059 0
M  V30 1425 C 160.57 -0.720545 4.75775 0
M  V30 1426 C 162.922 -0.386919 5.19762 0
M  V30 1427 C 160.25 0.0568829 5.86672 0
M  V30 1428 C 162.602 0.37741 6.31473 0
M  V30 1429 C 161.266 0.604563 6.64757 0
M  V30 1430 H 160.536 -0.325844 0.665512 0
M  V30 1431 H 163.183 -0.155527 1.90867 0
M  V30 1432 H 161.488 -2.52496 2.99588 0
M  V30 1433 H 163.185 -2.27844 3.29982 0
M  V30 1434 H 159.775 -1.11553 4.13828 0
M  V30 1435 H 163.959 -0.541398 4.93338 0
M  V30 1436 H 159.215 0.242635 6.10918 0
M  V30 1437 H 163.389 0.810825 6.91664 0
M  V30 1438 H 161.016 1.20885 7.50527 0
M  V30 1439 N 162.591 -1.51276 -0.441967 0
M  V30 1440 C 163.538 -1.72256 -1.53612 0
M  V30 1441 C 164.508 -0.564164 -1.56225 0
M  V30 1442 O 165.693 -0.798074 -1.73307 0
M  V30 1443 C 162.833 -1.84932 -2.91366 0
M  V30 1444 C 161.946 -3.12459 -2.98317 0
M  V30 1445 C 161.081 -3.15758 -4.27166 0
M  V30 1446 C 160.12 -4.37619 -4.27967 0
M  V30 1447 N 159.257 -4.38493 -5.48333 0
M  V30 1448 H 164.097 -2.65654 -1.35026 0
M  V30 1449 H 161.634 -1.31662 -0.656009 0
M  V30 1450 H 163.592 -1.90263 -3.7129 0
M  V30 1451 H 162.222 -0.949461 -3.08521 0
M  V30 1452 H 161.274 -3.1646 -2.11086 0
M  V30 1453 H 162.586 -4.02382 -2.94771 0
M  V30 1454 H 161.74 -3.19979 -5.15459 0
M  V30 1455 H 160.479 -2.23715 -4.33362 0
M  V30 1456 H 159.484 -4.33579 -3.38067 0
M  V30 1457 H 160.709 -5.30921 -4.23438 0
M  V30 1458 H 158.655 -3.49318 -5.55259 0
M  V30 1459 H 158.572 -5.22219 -5.46647 0
M  V30 1460 H 159.84 -4.469 -6.38671 0
M  V30 1461 N 164.069 0.697108 -1.41344 0
M  V30 1462 C 165.485 1.00751 -1.2378 0
M  V30 1463 C 165.685 2.01105 -0.126066 0
M  V30 1464 O 164.741 2.47295 0.51004 0
M  V30 1465 C 166.054 1.53359 -2.58653 0
M  V30 1466 C 167.602 1.6525 -2.65822 0
M  V30 1467 C 168.077 2.2126 -4.01009 0
M  V30 1468 N 169.568 2.28622 -4.02847 0
M  V30 1469 C 170.303 2.72984 -5.04249 0
M  V30 1470 N 169.799 3.16962 -6.16041 0
M  V30 1471 N 171.592 2.72534 -4.91611 0
M  V30 1472 H 163.743 0.0322662 -2.12375 0
M  V30 1473 H 166.006 0.0768853 -0.944877 0
M  V30 1474 H 165.712 0.870773 -3.4075 0
M  V30 1475 H 165.586 2.51597 -2.81032 0
M  V30 1476 H 167.973 2.30644 -1.84086 0
M  V30 1477 H 168.054 0.655614 -2.47256 0
M  V30 1478 H 167.698 1.56482 -4.83193 0
M  V30 1479 H 167.628 3.21698 -4.16915 0
M  V30 1480 H 170.119 1.97585 -3.22131 0
M  V30 1481 H 170.432 3.49434 -6.89287 0
M  V30 1482 H 168.777 3.14875 -6.1958 0
M  V30 1483 H 171.968 2.37525 -4.0336 0
M  V30 1484 H 172.141 3.06789 -5.70775 0
M  V30 1485 N 165.547 1.27147 0.931209 0
M  V30 1486 C 166.772 1.16191 1.71797 0
M  V30 1487 C 167.197 -0.278004 1.86034 0
M  V30 1488 O 166.555 -1.20137 1.35782 0
M  V30 1489 C 166.603 1.84673 3.09723 0
M  V30 1490 O 165.707 1.14231 3.96264 0
M  V30 1491 H 165.048 0.404303 0.526721 0
M  V30 1492 H 167.578 1.68152 1.1656 0
M  V30 1493 H 167.588 1.91893 3.60057 0
M  V30 1494 H 166.263 2.89421 2.98677 0
M  V30 1495 H 164.84 1.15056 3.54706 0
M  V30 1496 N 167.025 -1.13721 1.09112 0
M  V30 1497 C 168.271 -1.85198 0.826414 0
M  V30 1498 C 168.604 -1.83129 -0.646319 0
M  V30 1499 O 167.879 -1.2671 -1.47563 0
M  V30 1500 C 168.162 -3.33507 1.35812 0
M  V30 1501 C 168.015 -3.44108 2.89672 0
M  V30 1502 C 169.334 -4.28838 0.989256 0
M  V30 1503 H 166.453 -0.67243 0.301675 0
M  V30 1504 H 169.095 -1.33499 1.35197 0
M  V30 1505 H 167.245 -3.77666 0.911082 0
M  V30 1506 H 168.917 -3.08684 3.428 0
M  V30 1507 H 167.16 -2.85087 3.26967 0
M  V30 1508 H 167.831 -4.48388 3.21951 0
M  V30 1509 H 170.307 -3.92734 1.37475 0
M  V30 1510 H 169.183 -5.31051 1.38838 0
M  V30 1511 H 169.444 -4.4198 -0.102924 0
M  V30 1512 N 168.503 -0.877838 -1.30888 0
M  V30 1513 C 169.919 -0.570844 -1.49042 0
M  V30 1514 C 170.119 0.893159 -1.80624 0
M  V30 1515 O 169.175 1.67485 -1.88958 0
M  V30 1516 C 170.488 -1.47784 -2.61878 0
M  V30 1517 C 172.036 -1.48071 -2.75761 0
M  V30 1518 C 172.511 -2.37347 -3.91702 0
M  V30 1519 N 174.002 -2.35271 -3.99001 0
M  V30 1520 C 174.737 -3.01063 -4.88004 0
M  V30 1521 N 174.233 -3.76055 -5.81854 0
M  V30 1522 N 176.026 -2.90332 -4.81315 0
M  V30 1523 H 168.177 -1.82502 -1.0866 0
M  V30 1524 H 170.44 -0.780797 -0.537644 0
M  V30 1525 H 170.146 -2.51993 -2.45341 0
M  V30 1526 H 170.02 -1.18215 -3.58197 0
M  V30 1527 H 172.407 -0.446166 -2.91708 0
M  V30 1528 H 172.488 -1.81668 -1.80085 0
M  V30 1529 H 172.132 -3.40883 -3.76512 0
M  V30 1530 H 172.062 -2.01071 -4.86701 0
M  V30 1531 H 174.553 -1.80768 -3.3186 0
M  V30 1532 H 174.866 -4.23366 -6.46514 0
M  V30 1533 H 173.211 -3.80163 -5.81808 0
M  V30 1534 H 176.402 -2.31278 -4.06974 0
M  V30 1535 H 176.575 -3.41885 -5.50471 0
M  V30 1536 N 169.982 1.44106 -0.638065 0
M  V30 1537 C 171.398 1.56672 -0.304286 0
M  V30 1538 C 171.598 1.6244 1.19228 0
M  V30 1539 O 170.654 1.57121 1.9766 0
M  V30 1540 C 171.967 2.83503 -1.00231 0
M  V30 1541 C 173.515 2.97226 -0.981116 0
M  V30 1542 C 173.99 4.26868 -1.65974 0
M  V30 1543 N 175.481 4.33698 -1.62666 0
M  V30 1544 C 176.216 5.32745 -2.12063 0
M  V30 1545 N 175.712 6.38157 -2.6968 0
M  V30 1546 N 177.505 5.24299 -2.02651 0
M  V30 1547 H 169.656 1.38605 -1.60942 0
M  V30 1548 H 171.919 0.664661 -0.675965 0
M  V30 1549 H 171.625 2.85251 -2.0573 0
M  V30 1550 H 171.499 3.73251 -0.54439 0
M  V30 1551 H 173.886 2.95027 0.0654188 0
M  V30 1552 H 173.967 2.08808 -1.47759 0
M  V30 1553 H 173.611 4.29826 -2.70576 0
M  V30 1554 H 173.541 5.14156 -1.13804 0
M  V30 1555 H 176.032 3.58138 -1.20606 0
M  V30 1556 H 176.345 7.10029 -3.05087 0
M  V30 1557 H 174.69 6.38823 -2.73734 0
M  V30 1558 H 177.881 4.4086 -1.57353 0
M  V30 1559 H 178.054 6.01334 -2.41457 0
M  V30 1560 N 171.46 0.379036 1.52974 0
M  V30 1561 C 172.408 -0.476033 2.27677 0
M  V30 1562 C 173.402 -1.0719 1.31174 0
M  V30 1563 O 174.608 -1.01355 1.48752 0
M  V30 1564 H 170.983 -0.172255 0.732006 0
M  V30 1565 H 172.954 0.175615 2.97883 0
M  V30 1566 C 171.703 -1.5967 3.0887 0
M  V30 1567 H 171.026 -1.1475 3.82978 0
M  V30 1568 H 172.466 -2.16943 3.64296 0
M  V30 1569 C 170.925 -2.54682 2.20542 0
M  V30 1570 O 171.455 -3.57836 1.82527 0
M  V30 1571 N 169.661 -2.24183 1.84907 0
M  V30 1572 H 169.208 -1.40333 2.1602 0
M  V30 1573 H 169.166 -2.88006 1.26096 0
M  V30 1574 N 172.938 -1.57226 0.108567 0
M  V30 1575 C 173.868 -2.17778 -0.84232 0
M  V30 1576 C 174.849 -1.11487 -1.2847 0
M  V30 1577 O 176.034 -1.39681 -1.34918 0
M  V30 1578 C 173.164 -2.76888 -2.09644 0
M  V30 1579 C 172.118 -3.88669 -1.79221 0
M  V30 1580 C 171.444 -4.34541 -3.11574 0
M  V30 1581 C 172.744 -5.11251 -1.06864 0
M  V30 1582 H 174.438 -2.97489 -0.337774 0
M  V30 1583 H 171.984 -1.43097 -0.161025 0
M  V30 1584 H 173.937 -3.17904 -2.76614 0
M  V30 1585 H 172.661 -1.94451 -2.62405 0
M  V30 1586 H 171.32 -3.48213 -1.14644 0
M  V30 1587 H 170.968 -3.48977 -3.62249 0
M  V30 1588 H 170.668 -5.09914 -2.91996 0
M  V30 1589 H 172.192 -4.782 -3.7968 0
M  V30 1590 H 173.606 -5.49352 -1.63968 0
M  V30 1591 H 172.003 -5.9214 -0.974178 0
M  V30 1592 H 173.073 -4.8487 -0.0536168 0
M  V30 1593 N 174.416 0.165178 -1.56732 0
M  V30 1594 C 175.644 0.896218 -1.86482 0
M  V30 1595 C 176.059 1.75555 -0.694675 0
M  V30 1596 O 175.416 1.79379 0.33607 0
M  V30 1597 C 175.467 1.76792 -3.1532 0
M  V30 1598 O 175.188 0.943239 -4.27825 0
M  V30 1599 C 176.689 2.6081 -3.58459 0
M  V30 1600 H 173.909 0.260064 -0.618553 0
M  V30 1601 H 176.453 0.163428 -2.03846 0
M  V30 1602 H 174.608 2.45398 -2.99764 0
M  V30 1603 H 175.022 1.53998 -5.01383 0
M  V30 1604 H 176.496 3.17579 -4.51495 0
M  V30 1605 H 176.973 3.35977 -2.82872 0
M  V30 1606 H 177.579 1.97526 -3.76648 0
M  V30 1607 N 175.894 1.51508 0.433938 0
M  V30 1608 C 177.124 1.67914 1.20369 0
M  V30 1609 C 177.532 0.377461 1.85397 0
M  V30 1610 O 176.875 -0.654255 1.71654 0
M  V30 1611 C 176.937 2.74045 2.32679 0
M  V30 1612 C 176.601 4.16543 1.87991 0
M  V30 1613 C 177.598 5.01211 1.38145 0
M  V30 1614 C 175.283 4.6266 1.95579 0
M  V30 1615 C 177.277 6.30056 0.964774 0
M  V30 1616 C 174.964 5.91501 1.53523 0
M  V30 1617 C 175.962 6.75027 1.04055 0
M  V30 1618 O 175.65 8.01459 0.625964 0
M  V30 1619 H 175.382 0.566578 0.368735 0
M  V30 1620 H 177.936 1.98709 0.51999 0
M  V30 1621 H 176.166 2.38572 3.04336 0
M  V30 1622 H 177.855 2.79295 2.94532 0
M  V30 1623 H 178.621 4.66783 1.31675 0
M  V30 1624 H 174.5 3.97767 2.33029 0
M  V30 1625 H 178.044 6.95202 0.57796 0
M  V30 1626 H 173.941 6.25442 1.59665 0
M  V30 1627 H 174.709 8.15043 0.751509 0
M  V30 1628 N 177.372 -0.689602 1.41712 0
M  V30 1629 C 178.6 -1.47827 1.44758 0
M  V30 1630 C 179.015 -1.88721 0.0545703 0
M  V30 1631 O 178.372 -1.57176 -0.927463 0
M  V30 1632 C 178.423 -2.73698 2.3616 0
M  V30 1633 O 178.144 -2.34524 3.7004 0
M  V30 1634 C 179.645 -3.67389 2.48072 0
M  V30 1635 H 176.865 -0.455357 0.49284 0
M  V30 1636 H 179.409 -0.848574 1.86063 0
M  V30 1637 H 177.564 -3.32891 1.98148 0
M  V30 1638 H 177.978 -3.15701 4.18847 0
M  V30 1639 H 179.452 -4.52475 3.16181 0
M  V30 1640 H 179.929 -4.12284 1.51388 0
M  V30 1641 H 180.535 -3.14097 2.86746 0
M  V30 1642 N 178.85 -1.27639 -0.924453 0
M  V30 1643 C 180.09 -1.15407 -1.68703 0
M  V30 1644 C 180.454 0.294581 -1.89727 0
M  V30 1645 O 181.655 0.539385 -2.63333 0
M  V30 1646 C 179.926 -1.9195 -3.0148 0
M  V30 1647 S 181.485 -1.95969 -3.92609 0
M  V30 1648 H 178.303 -0.411937 -0.579507 0
M  V30 1649 H 180.905 -1.61592 -1.10038 0
M  V30 1650 H 179.609 -2.96387 -2.83871 0
M  V30 1651 H 179.14 -1.46272 -3.65196 0
M  V30 1652 H 181.155 -1.05846 -4.84779 0
M  V30 1653 N 180.328 1.1314 -1.09713 0
M  V30 1654 C 181.744 1.36477 -0.827423 0
M  V30 1655 C 181.944 1.93654 0.556817 0
M  V30 1656 O 181 2.15791 1.31112 0
M  V30 1657 C 182.313 2.31334 -1.92106 0
M  V30 1658 C 183.861 2.44943 -1.94864 0
M  V30 1659 C 184.336 3.4311 -3.0338 0
M  V30 1660 N 185.827 3.50662 -3.02639 0
M  V30 1661 C 186.562 4.2651 -3.83246 0
M  V30 1662 N 186.058 5.05485 -4.73768 0
M  V30 1663 N 187.851 4.2184 -3.71493 0
M  V30 1664 H 180.002 0.743807 -1.9895 0
M  V30 1665 H 182.265 0.389823 -0.864143 0
M  V30 1666 H 181.971 1.96483 -2.91698 0
M  V30 1667 H 181.845 3.31381 -1.80184 0
M  V30 1668 H 184.232 2.79079 -0.959099 0
M  V30 1669 H 184.313 1.4481 -2.10864 0
M  V30 1670 H 183.957 3.09704 -4.02549 0
M  V30 1671 H 183.887 4.43055 -2.84622 0
M  V30 1672 H 186.378 2.94315 -2.37039 0
M  V30 1673 H 186.691 5.60675 -5.3185 0
M  V30 1674 H 185.036 5.04708 -4.77802 0
M  V30 1675 H 188.227 3.5922 -3.00131 0
M  V30 1676 H 188.4 4.80697 -4.3455 0
M  V30 1677 N 181.806 0.884767 1.30421 0
M  V30 1678 C 182.769 0.356277 2.26414 0
M  V30 1679 C 183.769 -0.501124 1.52792 0
M  V30 1680 O 184.959 -0.30831 1.7145 0
M  V30 1681 C 182.091 -0.492316 3.37326 0
M  V30 1682 H 183.284 1.20389 2.74675 0
M  V30 1683 H 180.837 0.661607 1.41607 0
M  V30 1684 H 181.572 -1.36052 2.94381 0
M  V30 1685 H 181.357 0.121832 3.91911 0
M  V30 1686 H 182.847 -0.853871 4.08777 0
M  V30 1687 N 183.284 -1.43765 0.645699 0
M  V30 1688 C 184.232 -2.32516 -0.0624849 0
M  V30 1689 C 185.226 -1.48183 -0.820855 0
M  V30 1690 O 186.432 -1.64439 -0.732106 0
M  V30 1691 H 182.807 -0.750989 -0.0389864 0
M  V30 1692 H 184.778 -2.89979 0.703892 0
M  V30 1693 C 183.527 -3.32389 -1.02044 0
M  V30 1694 H 182.85 -3.97301 -0.446312 0
M  V30 1695 H 184.29 -3.97138 -1.48517 0
M  V30 1696 C 182.749 -2.62416 -2.11281 0
M  V30 1697 O 183.279 -2.434 -3.19561 0
M  V30 1698 N 181.485 -2.21913 -1.87624 0
M  V30 1699 H 181.032 -2.37578 -0.995703 0
M  V30 1700 H 180.99 -1.75424 -2.6091 0
M  V30 1701 N 184.763 -0.387143 -1.52771 0
M  V30 1702 C 186.179 -0.037007 -1.59557 0
M  V30 1703 C 186.379 1.44801 -1.40124 0
M  V30 1704 O 185.435 2.21227 -1.21716 0
M  V30 1705 C 186.748 -0.512256 -2.96305 0
M  V30 1706 C 188.296 -0.468328 -3.09476 0
M  V30 1707 C 188.771 -0.919731 -4.4867 0
M  V30 1708 N 190.262 -0.875656 -4.54848 0
M  V30 1709 C 190.997 -1.19637 -5.6078 0
M  V30 1710 N 190.493 -1.58745 -6.74368 0
M  V30 1711 N 192.286 -1.11776 -5.50874 0
M  V30 1712 H 184.437 -1.35395 -1.63652 0
M  V30 1713 H 186.7 -0.554818 -0.768688 0
M  V30 1714 H 186.406 -1.54935 -3.15734 0
M  V30 1715 H 186.28 0.089805 -3.77093 0
M  V30 1716 H 188.667 0.559671 -2.89744 0
M  V30 1717 H 188.748 -1.10616 -2.30646 0
M  V30 1718 H 188.392 -1.94595 -4.69143 0
M  V30 1719 H 188.322 -0.258927 -5.25963 0
M  V30 1720 H 190.813 -0.587843 -3.733 0
M  V30 1721 H 191.126 -1.81586 -7.51163 0
M  V30 1722 H 189.471 -1.6263 -6.75705 0
M  V30 1723 H 192.662 -0.811264 -4.61016 0
M  V30 1724 H 192.835 -1.37103 -6.3333 0
M  V30 1725 N 186.241 1.57166 -0.116904 0
M  V30 1726 C 187.189 2.16457 0.851418 0
M  V30 1727 C 188.183 1.11323 1.27686 0
M  V30 1728 O 189.389 1.2963 1.24884 0
M  V30 1729 H 185.764 0.69271 0.292672 0
M  V30 1730 H 187.735 2.96605 0.32685 0
M  V30 1731 C 186.484 2.77689 2.09246 0
M  V30 1732 H 185.807 3.58285 1.77402 0
M  V30 1733 H 187.247 3.22716 2.7501 0
M  V30 1734 C 185.706 1.74667 2.88085 0
M  V30 1735 O 186.236 1.19877 3.83396 0
M  V30 1736 N 184.442 1.44656 2.52038 0
M  V30 1737 H 183.989 1.89402 1.74599 0
M  V30 1738 H 183.947 0.759675 3.05084 0
M  V30 1739 N 187.719 -0.156864 1.56817 0
M  V30 1740 C 188.959 -0.877453 1.84608 0
M  V30 1741 C 189.323 -1.78791 0.699845 0
M  V30 1742 O 190.524 -2.5472 0.858553 0
M  V30 1743 C 188.795 -1.63992 3.17555 0
M  V30 1744 S 190.354 -2.40729 3.66872 0
M  V30 1745 H 187.172 -0.293612 0.647544 0
M  V30 1746 H 189.774 -0.138099 1.95012 0
M  V30 1747 H 188.478 -0.962363 3.98957 0
M  V30 1748 H 188.009 -2.42038 3.10131 0
M  V30 1749 H 190.024 -3.65725 3.3535 0
M  V30 1750 N 189.197 -1.51736 -0.425897 0
M  V30 1751 C 190.608 -1.5732 -1.00536 0
M  V30 1752 C 190.959 -0.403537 -1.92005 0
M  V30 1753 O 190.084 0.478256 -2.11049 0
M  V30 1754 C 190.679 -2.85119 -1.8301 0
M  V30 1755 C 189.238 -2.93236 -2.35987 0
M  V30 1756 C 188.385 -2.52098 -1.15508 0
M  V30 1757 H 191.336 -1.57348 -0.206739 0
M  V30 1758 H 191.357 -2.69526 -2.68581 0
M  V30 1759 H 190.869 -3.7023 -1.16411 0
M  V30 1760 H 188.97 -2.12581 -3.06007 0
M  V30 1761 H 189.083 -3.9713 -2.68001 0
M  V30 1762 H 187.447 -2.05558 -1.50393 0
M  V30 1763 H 188.23 -3.39565 -0.505014 0
M  V30 1764 N 190.675 0.682077 -1.42076 0
M  V30 1765 C 191.924 1.43786 -1.41451 0
M  V30 1766 C 192.237 1.95574 -0.0317074 0
M  V30 1767 O 193.443 2.71326 0.0971462 0
M  V30 1768 C 191.899 2.60071 -2.48779 0
M  V30 1769 C 191.507 2.15013 -3.93031 0
M  V30 1770 C 193.251 3.37626 -2.57311 0
M  V30 1771 C 191.158 3.28336 -4.91883 0
M  V30 1772 H 190.088 0.540143 -0.526082 0
M  V30 1773 H 192.739 0.739157 -1.67955 0
M  V30 1774 H 191.121 3.32275 -2.15429 0
M  V30 1775 H 192.295 1.5001 -4.35699 0
M  V30 1776 H 190.61 1.50416 -3.88284 0
M  V30 1777 H 193.207 4.22012 -3.28345 0
M  V30 1778 H 193.55 3.83727 -1.61429 0
M  V30 1779 H 194.083 2.72488 -2.89819 0
M  V30 1780 H 190.822 2.87234 -5.89217 0
M  V30 1781 H 190.342 3.92145 -4.53853 0
M  V30 1782 H 192.021 3.93913 -5.13265 0
M  V30 1783 N 192.153 1.28127 0.917671 0
M  V30 1784 C 193.43 1.05761 1.64542 0
M  V30 1785 C 193.81 -0.404344 2.07191 0
M  V30 1786 O 193.158 -1.38963 1.81388 0
M  V30 1787 C 193.368 2.02857 2.83989 0
M  V30 1788 C 194.716 2.32786 3.551 0
M  V30 1789 O 195.74 2.0091 2.94132 0
M  V30 1790 O 194.599 2.87169 4.64969 0
M  V30 1791 H 191.693 0.403916 0.721652 0
M  V30 1792 H 194.239 1.39431 0.967322 0
M  V30 1793 H 193.011 3.01407 2.49538 0
M  V30 1794 H 192.634 1.69809 3.59514 0
M  V30 1795 N 193.631 -1.12557 1.10312 0
M  V30 1796 C 194.563 -2.17971 0.708625 0
M  V30 1797 C 195.576 -1.60806 -0.254027 0
M  V30 1798 O 196.765 -1.78458 -0.0386891 0
M  V30 1799 C 193.865 -3.38891 0.0248198 0
M  V30 1800 C 193.038 -4.25548 1.01132 0
M  V30 1801 C 192.097 -5.24972 0.35924 0
M  V30 1802 O 191.123 -5.60174 1.00965 0
M  V30 1803 N 192.325 -5.73747 -0.882847 0
M  V30 1804 H 195.09 -2.52427 1.61557 0
M  V30 1805 H 192.651 -1.27967 0.991771 0
M  V30 1806 H 194.643 -4.02485 -0.422852 0
M  V30 1807 H 193.213 -3.02596 -0.784514 0
M  V30 1808 H 192.433 -3.58589 1.6373 0
M  V30 1809 H 193.721 -4.80294 1.67914 0
M  V30 1810 H 193.119 -5.4731 -1.43065 0
M  V30 1811 H 191.676 -6.39234 -1.27369 0
M  V30 1812 N 195.109 -0.891671 -1.2995 0
M  V30 1813 C 196.059 -0.334811 -2.25528 0
M  V30 1814 C 197.043 0.540553 -1.51548 0
M  V30 1815 O 198.235 0.383882 -1.72787 0
M  V30 1816 C 195.364 0.44374 -3.4042 0
M  V30 1817 C 194.45 -0.44609 -4.21747 0
M  V30 1818 N 194.841 -1.54963 -4.81477 0
M  V30 1819 C 193.139 -0.242415 -4.45341 0
M  V30 1820 C 193.84 -2.10015 -5.42465 0
M  V30 1821 N 192.816 -1.39423 -5.25416 0
M  V30 1822 H 196.618 -1.17792 -2.69262 0
M  V30 1823 H 194.132 -0.741822 -1.44467 0
M  V30 1824 H 196.129 0.859362 -4.07947 0
M  V30 1825 H 194.789 1.28421 -2.98225 0
M  V30 1826 H 195.8 -1.93244 -4.80497 0
M  V30 1827 H 192.477 0.560342 -4.13723 0
M  V30 1828 H 193.867 -3.02724 -5.9984 0
M  V30 1829 N 196.587 1.43421 -0.653314 0
M  V30 1830 C 197.537 2.2792 0.060558 0
M  V30 1831 C 198.521 1.39906 0.794677 0
M  V30 1832 O 199.713 1.63536 0.677128 0
M  V30 1833 C 196.842 3.27603 1.0262 0
M  V30 1834 C 195.928 4.23104 0.290551 0
M  V30 1835 N 196.319 5.01031 -0.692967 0
M  V30 1836 C 194.617 4.42816 0.531984 0
M  V30 1837 C 195.318 5.70626 -1.12963 0
M  V30 1838 N 194.294 5.41617 -0.463867 0
M  V30 1839 H 198.096 2.85585 -0.694143 0
M  V30 1840 H 195.61 1.55126 -0.480602 0
M  V30 1841 H 197.607 3.86918 1.55242 0
M  V30 1842 H 196.267 2.71499 1.78096 0
M  V30 1843 H 197.278 5.0669 -1.07169 0
M  V30 1844 H 193.955 3.97782 1.26791 0
M  V30 1845 H 195.345 6.4318 -1.94343 0
M  V30 1846 N 198.065 0.39524 1.52563 0
M  V30 1847 C 199.481 0.0454682 1.59535 0
M  V30 1848 C 199.681 -1.44056 1.4089 0
M  V30 1849 O 198.737 -2.20579 1.22888 0
M  V30 1850 C 200.05 0.527963 2.96029 0
M  V30 1851 C 201.598 0.484733 3.09224 0
M  V30 1852 C 202.073 0.943512 4.48176 0
M  V30 1853 N 203.564 0.899765 4.54377 0
M  V30 1854 C 204.299 1.22609 5.60138 0
M  V30 1855 N 203.795 1.62319 6.73516 0
M  V30 1856 N 205.588 1.14696 5.50274 0
M  V30 1857 H 197.739 1.36261 1.62931 0
M  V30 1858 H 200.002 0.558887 0.765735 0
M  V30 1859 H 199.708 1.56607 3.14908 0
M  V30 1860 H 199.582 -0.0698056 3.77135 0
M  V30 1861 H 201.969 -0.544298 2.90037 0
M  V30 1862 H 202.05 1.11838 2.30056 0
M  V30 1863 H 201.694 1.9708 4.68104 0
M  V30 1864 H 201.624 0.286817 5.25818 0
M  V30 1865 H 204.115 0.607632 3.72983 0
M  V30 1866 H 204.428 1.85567 7.5019 0
M  V30 1867 H 202.773 1.66211 6.74833 0
M  V30 1868 H 205.964 0.835701 4.6058 0
M  V30 1869 H 206.137 1.40459 6.32594 0
M  V30 1870 N 199.544 -1.57102 0.125237 0
M  V30 1871 C 200.492 -2.16905 -0.839927 0
M  V30 1872 C 201.486 -1.11998 -1.27094 0
M  V30 1873 O 202.692 -1.3029 -1.24195 0
M  V30 1874 H 199.067 -0.694252 -0.288995 0
M  V30 1875 H 201.038 -2.96774 -0.311115 0
M  V30 1876 C 199.787 -2.78795 -2.07771 0
M  V30 1877 H 199.11 -3.59221 -1.755 0
M  V30 1878 H 200.55 -3.2417 -2.73295 0
M  V30 1879 C 199.009 -1.76193 -2.87155 0
M  V30 1880 O 199.539 -1.21909 -3.82755 0
M  V30 1881 N 197.745 -1.45991 -2.51267 0
M  V30 1882 H 197.292 -1.90325 -1.73592 0
M  V30 1883 H 197.25 -0.775844 -3.04677 0
M  V30 1884 N 201.022 0.148545 -1.56898 0
M  V30 1885 C 201.954 1.20852 -1.9475 0
M  V30 1886 C 202.967 1.39265 -0.843152 0
M  V30 1887 O 204.156 1.38864 -1.12156 0
M  V30 1888 C 201.256 2.57362 -2.20495 0
M  V30 1889 C 200.429 2.59947 -3.51776 0
M  V30 1890 C 199.488 3.77984 -3.6608 0
M  V30 1891 O 198.514 3.62929 -4.38487 0
M  V30 1892 N 199.716 4.95375 -3.02629 0
M  V30 1893 H 202.481 0.886804 -2.86279 0
M  V30 1894 H 200.042 0.338121 -1.5833 0
M  V30 1895 H 202.034 3.34833 -2.27307 0
M  V30 1896 H 200.604 2.81832 -1.35238 0
M  V30 1897 H 199.824 1.68403 -3.56419 0
M  V30 1898 H 201.112 2.58704 -4.38121 0
M  V30 1899 H 200.51 5.10509 -2.43715 0
M  V30 1900 H 199.067 5.70627 -3.15004 0
M  V30 1901 N 202.5 1.5196 0.417844 0
M  V30 1902 C 203.74 1.67262 1.17486 0
M  V30 1903 C 204.104 0.38983 1.88001 0
M  V30 1904 O 205.305 0.418845 2.65517 0
M  V30 1905 C 203.576 2.85526 2.14965 0
M  V30 1906 S 205.135 3.21263 2.98891 0
M  V30 1907 H 201.953 0.589077 0.398132 0
M  V30 1908 H 204.555 1.89927 0.463452 0
M  V30 1909 H 203.259 3.77145 1.61833 0
M  V30 1910 H 202.79 2.65107 2.90657 0
M  V30 1911 H 204.805 2.69208 4.16823 0
M  V30 1912 N 203.978 -0.674533 1.42435 0
M  V30 1913 C 204.91 -1.80005 1.41883 0
M  V30 1914 C 205.923 -1.59667 0.31787 0
M  V30 1915 O 207.112 -1.68781 0.580973 0
M  V30 1916 C 204.212 -3.17114 1.19549 0
M  V30 1917 C 203.385 -3.64299 2.42084 0
M  V30 1918 C 202.444 -4.80142 2.15291 0
M  V30 1919 O 201.47 -4.90673 2.88493 0
M  V30 1920 N 202.672 -5.68869 1.1562 0
M  V30 1921 H 205.437 -1.80964 2.38898 0
M  V30 1922 H 202.998 -0.857633 1.37318 0
M  V30 1923 H 204.99 -3.92267 0.995417 0
M  V30 1924 H 203.56 -3.11053 0.310569 0
M  V30 1925 H 202.78 -2.79822 2.77657 0
M  V30 1926 H 204.068 -3.92567 3.23679 0
M  V30 1927 H 203.466 -5.63012 0.550765 0
M  V30 1928 H 202.023 -6.43833 1.016 0
M  V30 1929 N 205.456 -1.28612 -0.910864 0
M  V30 1930 C 206.686 -1.1862 -1.69153 0
M  V30 1931 C 207.094 0.257324 -1.87442 0
M  V30 1932 O 206.437 1.18543 -1.40332 0
M  V30 1933 C 206.499 -1.81606 -3.10257 0
M  V30 1934 C 206.163 -3.30864 -3.15243 0
M  V30 1935 C 207.16 -4.27256 -2.96223 0
M  V30 1936 C 204.845 -3.71871 -3.37664 0
M  V30 1937 C 206.839 -5.62631 -2.99541 0
M  V30 1938 C 204.526 -5.07371 -3.40614 0
M  V30 1939 C 205.524 -6.02561 -3.21573 0
M  V30 1940 O 205.212 -7.35589 -3.2429 0
M  V30 1941 H 204.944 -0.412633 -0.535453 0
M  V30 1942 H 207.498 -1.70306 -1.14827 0
M  V30 1943 H 205.728 -1.24418 -3.66138 0
M  V30 1944 H 207.417 -1.66092 -3.70362 0
M  V30 1945 H 208.183 -3.9691 -2.78725 0
M  V30 1946 H 204.062 -2.98241 -3.5153 0
M  V30 1947 H 207.606 -6.36907 -2.84597 0
M  V30 1948 H 203.503 -5.37366 -3.57642 0
M  V30 1949 H 204.271 -7.44252 -3.40633 0
M  V30 1950 N 206.934 1.1197 -1.10907 0
M  V30 1951 C 208.174 1.85224 -0.864378 0
M  V30 1952 C 208.538 1.82411 0.599178 0
M  V30 1953 O 209.739 2.51057 0.960416 0
M  V30 1954 C 208.01 3.2868 -1.40371 0
M  V30 1955 S 209.569 4.1925 -1.29518 0
M  V30 1956 H 206.387 0.63878 -0.312219 0
M  V30 1957 H 208.989 1.3485 -1.41548 0
M  V30 1958 H 207.693 3.28289 -2.46281 0
M  V30 1959 H 207.224 3.84121 -0.849402 0
M  V30 1960 H 209.239 4.95539 -0.256059 0
M  V30 1961 N 208.412 0.89855 1.29475 0
M  V30 1962 C 209.828 0.594483 1.48115 0
M  V30 1963 C 210.028 -0.86431 1.82022 0
M  V30 1964 O 209.084 -1.64457 1.91599 0
M  V30 1965 C 210.397 1.51932 2.59494 0
M  V30 1966 C 211.945 1.5244 2.7337 0
M  V30 1967 C 212.42 2.43548 3.87877 0
M  V30 1968 N 213.911 2.41589 3.95208 0
M  V30 1969 C 214.646 3.08789 4.83153 0
M  V30 1970 N 214.142 3.85265 5.75798 0
M  V30 1971 N 215.935 2.97952 4.76635 0
M  V30 1972 H 208.086 1.84207 1.05742 0
M  V30 1973 H 210.349 0.789251 0.525154 0
M  V30 1974 H 210.055 2.55865 2.41301 0
M  V30 1975 H 209.929 1.23899 3.56271 0
M  V30 1976 H 212.316 0.492518 2.90961 0
M  V30 1977 H 212.397 1.8451 1.77172 0
M  V30 1978 H 212.041 3.46829 3.71041 0
M  V30 1979 H 211.971 2.08788 4.83441 0
M  V30 1980 H 214.462 1.86025 3.28943 0
M  V30 1981 H 214.775 4.33598 6.39697 0
M  V30 1982 H 213.12 3.89371 5.75687 0
M  V30 1983 H 216.311 2.37723 4.03244 0
M  V30 1984 H 216.484 3.50599 5.44962 0
M  V30 1985 N 209.89 -1.43072 0.660911 0
M  V30 1986 C 210.82 -2.33497 -0.0122829 0
M  V30 1987 C 211.801 -1.49903 -0.803925 0
M  V30 1988 O 212.986 -1.78546 -0.763864 0
M  V30 1989 C 210.116 -3.33363 -0.973994 0
M  V30 1990 C 209.07 -4.27003 -0.291928 0
M  V30 1991 C 208.396 -5.16967 -1.36562 0
M  V30 1992 C 209.696 -5.15816 0.820462 0
M  V30 1993 H 211.39 -2.90038 0.742873 0
M  V30 1994 H 208.936 -1.39461 0.358688 0
M  V30 1995 H 210.889 -3.95524 -1.45392 0
M  V30 1996 H 209.613 -2.75095 -1.7604 0
M  V30 1997 H 208.272 -3.66217 0.167623 0
M  V30 1998 H 207.92 -4.55034 -2.14366 0
M  V30 1999 H 207.62 -5.80441 -0.914454 0
M  V30 2000 H 209.144 -5.82003 -1.84675 0
M  V30 2001 H 210.558 -5.71742 0.422366 0
M  V30 2002 H 208.955 -5.8805 1.19656 0
M  V30 2003 H 210.025 -4.55045 1.67518 0
M  V30 2004 N 211.368 -0.403325 -1.52352 0
M  V30 2005 C 212.315 0.425011 -2.26853 0
M  V30 2006 C 213.285 1.04598 -1.29029 0
M  V30 2007 O 214.47 1.07135 -1.57882 0
M  V30 2008 C 211.61 1.53888 -3.08889 0
M  V30 2009 C 210.723 0.939396 -4.21663 0
M  V30 2010 C 209.858 2.02547 -4.91068 0
M  V30 2011 C 208.897 1.40263 -5.95813 0
M  V30 2012 N 208.034 2.4286 -6.58759 0
M  V30 2013 H 212.874 -0.21674 -2.97211 0
M  V30 2014 H 210.411 -0.118722 -1.4662 0
M  V30 2015 H 212.369 2.19558 -3.54753 0
M  V30 2016 H 210.999 2.15074 -2.40714 0
M  V30 2017 H 210.051 0.171898 -3.80011 0
M  V30 2018 H 211.363 0.44436 -4.96817 0
M  V30 2019 H 210.517 2.75958 -5.40308 0
M  V30 2020 H 209.256 2.55415 -4.15469 0
M  V30 2021 H 208.261 0.653833 -5.45898 0
M  V30 2022 H 209.486 0.881719 -6.73352 0
M  V30 2023 H 207.432 2.94871 -5.85992 0
M  V30 2024 H 207.349 1.98152 -7.2957 0
M  V30 2025 H 208.617 3.15858 -7.12639 0
M  V30 2026 N 212.846 1.57033 -0.133567 0
M  V30 2027 C 213.793 2.16074 0.811208 0
M  V30 2028 C 214.763 1.08979 1.2535 0
M  V30 2029 O 215.948 1.36958 1.32843 0
M  V30 2030 C 213.088 2.77595 2.05024 0
M  V30 2031 C 212.201 3.99042 1.65498 0
M  V30 2032 C 211.336 4.48603 2.84479 0
M  V30 2033 C 210.375 5.62547 2.41262 0
M  V30 2034 N 209.512 6.06787 3.53206 0
M  V30 2035 H 214.352 2.96477 0.300906 0
M  V30 2036 H 211.889 1.46462 0.136822 0
M  V30 2037 H 213.847 3.11402 2.77642 0
M  V30 2038 H 212.477 1.99859 2.53488 0
M  V30 2039 H 211.529 3.71302 0.826981 0
M  V30 2040 H 212.841 4.81629 1.29748 0
M  V30 2041 H 211.995 4.84395 3.65303 0
M  V30 2042 H 210.734 3.64995 3.23465 0
M  V30 2043 H 209.739 5.26345 1.58874 0
M  V30 2044 H 210.964 6.47931 2.03377 0
M  V30 2045 H 208.91 5.26117 3.91838 0
M  V30 2046 H 208.827 6.84266 3.21427 0
M  V30 2047 H 210.095 6.4722 4.34427 0
M  V30 2048 N 214.325 -0.140222 1.56975 0
M  V30 2049 C 215.565 -0.857823 1.85528 0
M  V30 2050 C 215.929 -1.78039 0.718768 0
M  V30 2051 O 217.13 -2.53795 0.885521 0
M  V30 2052 C 215.401 -1.60615 3.19277 0
M  V30 2053 S 216.96 -2.36824 3.69405 0
M  V30 2054 H 213.778 -0.286727 0.650622 0
M  V30 2055 H 216.38 -0.117408 1.95147 0
M  V30 2056 H 215.084 -0.919994 3.99955 0
M  V30 2057 H 214.615 -2.38735 3.12681 0
M  V30 2058 H 216.63 -3.62148 3.3921 0
M  V30 2059 N 215.803 -1.52179 -0.40978 0
M  V30 2060 C 216.733 -1.78435 -1.5061 0
M  V30 2061 C 217.714 -0.635295 -1.57791 0
M  V30 2062 O 218.899 -0.880823 -1.73076 0
M  V30 2063 C 216.029 -1.93444 -2.88439 0
M  V30 2064 C 214.983 -3.09038 -2.96108 0
M  V30 2065 C 214.309 -3.09268 -4.36185 0
M  V30 2066 C 215.609 -4.48508 -2.67652 0
M  V30 2067 H 217.303 -2.70237 -1.28889 0
M  V30 2068 H 214.849 -1.30036 -0.618605 0
M  V30 2069 H 216.802 -2.10394 -3.65119 0
M  V30 2070 H 215.526 -0.983129 -3.11452 0
M  V30 2071 H 214.185 -2.91837 -2.21872 0
M  V30 2072 H 213.833 -2.11861 -4.56206 0
M  V30 2073 H 213.533 -3.86907 -4.42241 0
M  V30 2074 H 215.057 -3.28348 -5.14801 0
M  V30 2075 H 216.471 -4.65918 -3.34056 0
M  V30 2076 H 214.868 -5.28059 -2.85085 0
M  V30 2077 H 215.938 -4.56649 -1.63095 0
M  V30 2078 N 217.281 0.66697 -1.42791 0
M  V30 2079 C 218.228 1.7803 -1.4688 0
M  V30 2080 C 219.198 1.6299 -0.319919 0
M  V30 2081 O 220.383 1.83432 -0.525118 0
M  V30 2082 C 217.523 3.1611 -1.38451 0
M  V30 2083 C 216.636 3.42381 -2.63437 0
M  V30 2084 C 215.771 4.70232 -2.47094 0
M  V30 2085 C 214.81 4.89564 -3.67415 0
M  V30 2086 N 213.947 6.08661 -3.49966 0
M  V30 2087 H 218.787 1.7387 -2.42019 0
M  V30 2088 H 216.324 0.84868 -1.20149 0
M  V30 2089 H 218.282 3.95914 -1.31561 0
M  V30 2090 H 216.912 3.19374 -0.469033 0
M  V30 2091 H 215.964 2.56774 -2.80662 0
M  V30 2092 H 217.276 3.52557 -3.52853 0
M  V30 2093 H 216.43 5.5814 -2.37834 0
M  V30 2094 H 215.169 4.62353 -1.5518 0
M  V30 2095 H 214.174 4.00096 -3.77099 0
M  V30 2096 H 215.399 4.99282 -4.6032 0
M  V30 2097 H 213.345 6.0194 -2.60776 0
M  V30 2098 H 213.262 6.19733 -4.32975 0
M  V30 2099 H 214.53 6.99226 -3.44532 0
M  V30 2100 N 218.759 1.29093 0.90403 0
M  V30 2101 C 220.005 1.16986 1.65656 0
M  V30 2102 C 220.338 -0.278925 1.92186 0
M  V30 2103 O 219.613 -1.2019 1.5292 0
M  V30 2104 C 219.896 1.97908 3.0084 0
M  V30 2105 C 219.749 3.50903 2.81403 0
M  V30 2106 C 221.068 1.80208 4.01513 0
M  V30 2107 H 218.187 0.426346 0.601164 0
M  V30 2108 H 220.829 1.58518 1.04747 0
M  V30 2109 H 218.979 1.62616 3.52829 0
M  V30 2110 H 220.651 3.96153 2.36348 0
M  V30 2111 H 218.894 3.76045 2.1627 0
M  V30 2112 H 219.565 4.02791 3.77443 0
M  V30 2113 H 222.041 2.11025 3.58619 0
M  V30 2114 H 220.917 2.39184 4.94047 0
M  V30 2115 H 221.178 0.756119 4.35586 0
M  V30 2116 N 220.237 -1.11381 1.11499 0
M  V30 2117 C 221.485 -1.8277 0.862524 0
M  V30 2118 C 221.806 -1.85097 -0.613534 0
M  V30 2119 O 221.076 -1.32198 -1.4457 0
M  V30 2120 H 219.656 -0.676823 0.316101 0
M  V30 2121 H 222.318 -1.34816 1.4075 0
M  V30 2122 H 221.414 -2.86614 1.23527 0
M  V30 2123 N 221.715 -0.905404 -1.28997 0
M  V30 2124 C 222.648 -0.331959 -2.25773 0
M  V30 2125 C 223.626 0.559099 -1.52685 0
M  V30 2126 O 224.81 0.50463 -1.8162 0
M  V30 2127 C 221.937 0.526276 -3.34586 0
M  V30 2128 C 220.983 -0.298249 -4.25456 0
M  V30 2129 S 221.816 -1.69968 -5.0781 0
M  V30 2130 C 222.972 -0.848519 -6.20122 0
M  V30 2131 H 223.205 -1.15222 -2.74064 0
M  V30 2132 H 220.738 -0.706112 -1.37308 0
M  V30 2133 H 222.696 1.01565 -3.97737 0
M  V30 2134 H 221.357 1.32084 -2.84978 0
M  V30 2135 H 220.55 0.357607 -5.0273 0
M  V30 2136 H 220.152 -0.720968 -3.66985 0
M  V30 2137 H 222.444 -0.0744325 -6.77459 0
M  V30 2138 H 223.387 -1.59353 -6.89937 0
M  V30 2139 H 223.795 -0.400383 -5.63078 0
M  V30 2140 N 223.193 1.4272 -0.668489 0
M  V30 2141 C 224.609 1.55992 -0.33745 0
M  V30 2142 C 224.809 1.64933 1.15756 0
M  V30 2143 O 223.865 1.61278 1.94282 0
M  V30 2144 C 225.178 2.81314 -1.06222 0
M  V30 2145 C 226.726 2.95078 -1.04394 0
M  V30 2146 C 227.201 4.23252 -1.74991 0
M  V30 2147 N 228.692 4.3015 -1.71829 0
M  V30 2148 C 229.427 5.28127 -2.23315 0
M  V30 2149 N 228.923 6.32293 -2.83156 0
M  V30 2150 N 230.716 5.19882 -2.13726 0
M  V30 2151 H 222.867 1.3516 -1.63846 0
M  V30 2152 H 225.13 0.650174 -0.689912 0
M  V30 2153 H 224.836 2.80823 -2.11734 0
M  V30 2154 H 224.71 3.72012 -0.62344 0
M  V30 2155 H 227.097 2.951 0.0028244 0
M  V30 2156 H 227.178 2.05627 -1.52155 0
M  V30 2157 H 226.822 4.2399 -2.79633 0
M  V30 2158 H 226.752 5.11626 -1.24685 0
M  V30 2159 H 229.243 3.55499 -1.28175 0
M  V30 2160 H 229.556 7.03398 -3.20079 0
M  V30 2161 H 227.901 6.32873 -2.87223 0
M  V30 2162 H 231.092 4.37423 -1.66669 0
M  V30 2163 H 231.265 5.96077 -2.54158 0
M  V30 2164 N 224.671 0.411399 1.52136 0
M  V30 2165 C 226.087 0.0623865 1.59478 0
M  V30 2166 C 226.287 -1.42554 1.4241 0
M  V30 2167 O 225.343 -2.19263 1.2522 0
M  V30 2168 C 226.656 0.559331 2.95452 0
M  V30 2169 C 228.204 0.517503 3.08692 0
M  V30 2170 C 228.679 0.990994 4.4715 0
M  V30 2171 N 230.17 0.947908 4.53397 0
M  V30 2172 C 230.905 1.28544 5.58806 0
M  V30 2173 N 230.401 1.69454 6.71757 0
M  V30 2174 N 232.194 1.20526 5.49026 0
M  V30 2175 H 224.345 1.37982 1.61477 0
M  V30 2176 H 226.608 0.566977 0.759764 0
M  V30 2177 H 226.314 1.59938 3.1323 0
M  V30 2178 H 226.188 -0.0298014 3.77188 0
M  V30 2179 H 228.575 -0.513505 2.90598 0
M  V30 2180 H 228.656 1.14272 2.28857 0
M  V30 2181 H 228.3 2.02034 4.65988 0
M  V30 2182 H 228.23 0.34257 5.25485 0
M  V30 2183 H 230.721 0.647157 3.72317 0
M  V30 2184 H 231.034 1.93513 7.48179 0
M  V30 2185 H 229.379 1.73359 6.73032 0
M  V30 2186 H 232.57 0.884505 4.59667 0
M  V30 2187 H 232.743 1.47161 6.31069 0
M  V30 2188 N 226.149 -1.5696 0.141893 0
M  V30 2189 C 227.059 -2.20066 -0.812905 0
M  V30 2190 C 228.075 -1.18344 -1.27557 0
M  V30 2191 O 229.251 -1.50902 -1.33381 0
M  V30 2192 C 226.316 -2.80583 -2.03652 0
M  V30 2193 C 225.377 -3.97414 -1.62359 0
M  V30 2194 C 224.61 -4.55036 -2.78887 0
M  V30 2195 O 224.833 -4.11538 -3.94959 0
M  V30 2196 O 223.767 -5.45376 -2.54653 0
M  V30 2197 H 227.593 -3.02157 -0.305746 0
M  V30 2198 H 225.178 -1.49159 -0.0848799 0
M  V30 2199 H 227.06 -3.19067 -2.75272 0
M  V30 2200 H 225.735 -2.01508 -2.5333 0
M  V30 2201 H 224.642 -3.63656 -0.877775 0
M  V30 2202 H 225.975 -4.77994 -1.17401 0
M  V30 2203 N 227.627 0.131896 -1.57047 0
M  V30 2204 C 228.59 1.14638 -1.98471 0
M  V30 2205 C 229.59 1.35029 -0.873148 0
M  V30 2206 O 230.78 1.31764 -1.13946 0
M  V30 2207 C 227.912 2.50358 -2.31373 0
M  V30 2208 H 229.105 0.79064 -2.8929 0
M  V30 2209 H 226.658 0.375761 -1.51716 0
M  V30 2210 H 227.393 2.90876 -1.43393 0
M  V30 2211 H 227.178 2.36915 -3.12432 0
M  V30 2212 H 228.668 3.23395 -2.64207 0
M  V30 2213 N 229.106 1.52395 0.401703 0
M  V30 2214 C 230.352 1.67065 1.14966 0
M  V30 2215 C 230.685 0.403052 1.89971 0
M  V30 2216 O 229.96 -0.598774 1.85054 0
M  V30 2217 C 230.243 2.8975 2.13815 0
M  V30 2218 C 230.096 4.26578 1.42658 0
M  V30 2219 C 231.415 3.07965 3.14397 0
M  V30 2220 H 228.534 0.607968 0.416587 0
M  V30 2221 H 231.176 1.84965 0.434511 0
M  V30 2222 H 229.326 2.74619 2.74803 0
M  V30 2223 H 230.998 4.53451 0.847329 0
M  V30 2224 H 229.241 4.27639 0.72849 0
M  V30 2225 H 229.912 5.08483 2.14823 0
M  V30 2226 H 232.388 3.22043 2.63491 0
M  V30 2227 H 231.264 3.95308 3.80819 0
M  V30 2228 H 231.525 2.21611 3.82545 0
M  V30 2229 N 230.584 -0.659388 1.43143 0
M  V30 2230 C 231.516 -1.7849 1.43784 0
M  V30 2231 C 232.529 -1.5932 0.334787 0
M  V30 2232 O 233.718 -1.68155 0.598842 0
M  V30 2233 C 230.818 -3.15828 1.22906 0
M  V30 2234 C 229.991 -3.61711 2.45934 0
M  V30 2235 C 229.05 -4.77831 2.20371 0
M  V30 2236 O 228.076 -4.87586 2.93681 0
M  V30 2237 N 229.278 -5.67611 1.21647 0
M  V30 2238 H 232.043 -1.7842 2.40803 0
M  V30 2239 H 229.604 -0.84302 1.3822 0
M  V30 2240 H 231.596 -3.91189 1.03697 0
M  V30 2241 H 230.166 -3.10707 0.343542 0
M  V30 2242 H 229.386 -2.76861 2.80609 0
M  V30 2243 H 230.674 -3.89112 3.27825 0
M  V30 2244 H 230.072 -5.62397 0.610449 0
M  V30 2245 H 228.629 -6.42719 1.08423 0
M  V30 2246 N 232.062 -1.29571 -0.897171 0
M  V30 2247 C 233.478 -1.07637 -1.17841 0
M  V30 2248 C 233.678 0.170713 -2.00776 0
M  V30 2249 O 232.734 0.867768 -2.3712 0
M  V30 2250 C 234.047 -2.3332 -1.8969 0
M  V30 2251 C 235.595 -2.38664 -2.02505 0
M  V30 2252 C 236.07 -3.64157 -2.77765 0
M  V30 2253 N 237.561 -3.64894 -2.85318 0
M  V30 2254 C 238.296 -4.58679 -3.44094 0
M  V30 2255 N 237.792 -5.62799 -4.04017 0
M  V30 2256 N 239.585 -4.46245 -3.41793 0
M  V30 2257 H 231.736 -2.09598 -0.343883 0
M  V30 2258 H 233.999 -0.923333 -0.214848 0
M  V30 2259 H 233.705 -3.24262 -1.36187 0
M  V30 2260 H 233.579 -2.41025 -2.9015 0
M  V30 2261 H 235.966 -1.48208 -2.55183 0
M  V30 2262 H 236.047 -2.34943 -1.01171 0
M  V30 2263 H 235.691 -4.54965 -2.25763 0
M  V30 2264 H 235.621 -3.65137 -3.7945 0
M  V30 2265 H 238.112 -2.89613 -2.42761 0
M  V30 2266 H 238.425 -6.3048 -4.46895 0
M  V30 2267 H 236.77 -5.66605 -4.02472 0
M  V30 2268 H 239.961 -3.64094 -2.94199 0
M  V30 2269 H 240.134 -5.19518 -3.87304 0
M  V30 2270 N 233.54 1.10788 -1.12088 0
M  V30 2271 C 234.788 1.8231 -0.872205 0
M  V30 2272 C 235.109 1.85419 0.603709 0
M  V30 2273 O 234.379 1.32963 1.43867 0
M  V30 2274 H 232.959 0.675137 -0.319686 0
M  V30 2275 H 235.621 1.34068 -1.41463 0
M  V30 2276 H 234.717 2.85955 -1.25045 0
M  V30 2277 N 235.018 0.912232 1.28515 0
M  V30 2278 C 236.434 0.610159 1.47476 0
M  V30 2279 C 236.634 -0.844955 1.82928 0
M  V30 2280 O 235.69 -1.62416 1.93332 0
M  V30 2281 C 237.003 1.54675 2.57868 0
M  V30 2282 C 238.551 1.55331 2.71738 0
M  V30 2283 C 239.026 2.47649 3.85272 0
M  V30 2284 N 240.517 2.45767 3.92623 0
M  V30 2285 C 241.252 3.13896 4.79851 0
M  V30 2286 N 240.748 3.9135 5.71679 0
M  V30 2287 N 242.541 3.02991 4.73448 0
M  V30 2288 H 234.692 1.85318 1.03783 0
M  V30 2289 H 236.955 0.794777 0.516753 0
M  V30 2290 H 236.661 2.5841 2.38574 0
M  V30 2291 H 236.535 1.27671 3.54937 0
M  V30 2292 H 238.922 0.52335 2.90422 0
M  V30 2293 H 239.003 1.86378 1.75205 0
M  V30 2294 H 238.647 3.50745 3.67342 0
M  V30 2295 H 238.577 2.13904 4.81199 0
M  V30 2296 H 241.068 1.89503 3.26951 0
M  V30 2297 H 241.381 4.40359 6.35062 0
M  V30 2298 H 239.726 3.95455 5.71524 0
M  V30 2299 H 242.917 2.41987 4.007 0
M  V30 2300 H 243.09 3.5636 5.41213 0
M  V30 2301 N 236.496 -1.42363 0.676048 0
M  V30 2302 C 237.429 -2.28141 -0.0516916 0
M  V30 2303 C 238.407 -1.41135 -0.807439 0
M  V30 2304 O 239.591 -1.70573 -0.802305 0
M  V30 2305 C 236.718 -3.21007 -1.08039 0
M  V30 2306 C 235.764 -4.24426 -0.420076 0
M  V30 2307 S 236.597 -5.29134 0.823246 0
M  V30 2308 C 237.753 -6.25566 -0.204344 0
M  V30 2309 H 237.986 -2.89515 0.675884 0
M  V30 2310 H 235.519 -1.47211 0.465635 0
M  V30 2311 H 237.477 -3.75048 -1.66881 0
M  V30 2312 H 236.138 -2.58766 -1.78042 0
M  V30 2313 H 235.331 -4.89596 -1.19633 0
M  V30 2314 H 234.933 -3.7388 0.0947845 0
M  V30 2315 H 237.225 -6.69098 -1.06369 0
M  V30 2316 H 238.168 -7.06895 0.412915 0
M  V30 2317 H 238.576 -5.61811 -0.55038 0
M  V30 2318 N 237.974 -0.419461 -1.51915 0
M  V30 2319 C 239.385 0.0477853 -1.86639 0
M  V30 2320 C 239.736 1.43531 -1.33766 0
M  V30 2321 O 238.861 2.05401 -0.68113 0
M  V30 2322 C 239.456 0.0934885 -3.38671 0
M  V30 2323 C 238.015 0.505097 -3.72996 0
M  V30 2324 C 237.162 -0.313792 -2.75519 0
M  V30 2325 H 240.113 -0.636088 -1.45395 0
M  V30 2326 H 240.134 0.906667 -3.6954 0
M  V30 2327 H 239.646 -0.916501 -3.77123 0
M  V30 2328 H 237.747 1.52135 -3.40126 0
M  V30 2329 H 237.86 0.242309 -4.78487 0
M  V30 2330 H 236.224 0.225363 -2.53701 0
M  V30 2331 H 237.007 -1.32232 -3.16812 0
M  V30 2332 N 239.452 1.56882 -0.150215 0
M  V30 2333 C 240.863 1.82995 0.370076 0
M  V30 2334 C 241.214 1.06907 1.64515 0
M  V30 2335 O 240.339 0.315369 2.1409 0
M  V30 2336 C 240.934 3.31942 0.678208 0
M  V30 2337 C 239.493 3.58625 1.14301 0
M  V30 2338 C 238.64 2.76792 0.167778 0
M  V30 2339 H 241.591 1.54209 -0.374858 0
M  V30 2340 H 241.612 3.48272 1.53254 0
M  V30 2341 H 241.124 3.87294 -0.249991 0
M  V30 2342 H 239.225 3.08664 2.08704 0
M  V30 2343 H 239.338 4.67073 1.06676 0
M  V30 2344 H 237.702 2.45972 0.661037 0
M  V30 2345 H 238.485 3.34916 -0.754069 0
M  V30 2346 N 240.93 -0.123565 1.57115 0
M  V30 2347 C 242.158 -0.846461 1.88793 0
M  V30 2348 C 242.573 -1.73652 0.740976 0
M  V30 2349 O 241.93 -1.80207 -0.288393 0
M  V30 2350 C 241.981 -1.6837 3.19897 0
M  V30 2351 O 241.702 -0.829477 4.30176 0
M  V30 2352 C 243.203 -2.51214 3.65248 0
M  V30 2353 H 240.423 -0.243573 0.625231 0
M  V30 2354 H 242.967 -0.109324 2.04208 0
M  V30 2355 H 241.122 -2.37364 3.06165 0
M  V30 2356 H 241.536 -1.40651 5.0529 0
M  V30 2357 H 243.01 -3.05497 4.59756 0
M  V30 2358 H 243.487 -3.28359 2.9168 0
M  V30 2359 H 244.093 -1.8747 3.81752 0
M  V30 2360 N 242.408 -1.52605 -0.393616 0
M  V30 2361 C 243.34 -1.73303 -1.49995 0
M  V30 2362 C 244.353 -0.613473 -1.50799 0
M  V30 2363 O 245.542 -0.889049 -1.54784 0
M  V30 2364 C 242.642 -1.77245 -2.88855 0
M  V30 2365 C 241.815 -3.06483 -3.12069 0
M  V30 2366 C 240.874 -3.02033 -4.30886 0
M  V30 2367 O 239.9 -3.75907 -4.27414 0
M  V30 2368 N 241.102 -2.20897 -5.36828 0
M  V30 2369 H 243.867 -2.68756 -1.32629 0
M  V30 2370 H 241.428 -1.51036 -0.583083 0
M  V30 2371 H 243.42 -1.7178 -3.66434 0
M  V30 2372 H 241.99 -0.891993 -2.99603 0
M  V30 2373 H 241.21 -3.25474 -2.22396 0
M  V30 2374 H 242.498 -3.91947 -3.2443 0
M  V30 2375 H 241.896 -1.60336 -5.42502 0
M  V30 2376 H 240.453 -2.21275 -6.13091 0
M  V30 2377 N 243.887 0.651787 -1.4349 0
M  V30 2378 C 245.298 1.233 -1.40193 0
M  V30 2379 C 245.649 1.9591 -0.106727 0
M  V30 2380 O 244.774 2.01316 0.793773 0
M  V30 2381 C 245.369 2.24257 -2.53957 0
M  V30 2382 C 243.928 2.77852 -2.5392 0
M  V30 2383 C 243.075 1.52517 -2.3159 0
M  V30 2384 H 246.026 0.443717 -1.52371 0
M  V30 2385 H 246.047 3.0646 -2.25528 0
M  V30 2386 H 245.559 1.71382 -3.4821 0
M  V30 2387 H 243.66 3.34786 -1.63551 0
M  V30 2388 H 243.773 3.25299 -3.51735 0
M  V30 2389 H 242.137 1.79915 -1.80285 0
M  V30 2390 H 242.92 1.01574 -3.27929 0
M  V30 2391 N 245.365 1.30045 0.890287 0
M  V30 2392 C 246.313 1.15873 2.01683 0
M  V30 2393 C 247.307 0.0719403 1.69247 0
M  V30 2394 O 248.513 0.232414 1.78493 0
M  V30 2395 H 244.888 0.358203 0.661207 0
M  V30 2396 H 246.859 2.11229 2.10772 0
M  V30 2397 C 245.608 0.861842 3.36849 0
M  V30 2398 H 244.931 1.69016 3.62317 0
M  V30 2399 H 246.371 0.802762 4.16331 0
M  V30 2400 C 244.83 -0.435132 3.34078 0
M  V30 2401 O 245.36 -1.4583 3.74295 0
M  V30 2402 N 243.566 -0.444377 2.87182 0
M  V30 2403 H 243.113 0.388723 2.5465 0
M  V30 2404 H 243.071 -1.31213 2.85711 0
M  V30 2405 N 246.843 -1.10192 1.12674 0
M  V30 2406 C 248.254 -1.63707 0.897604 0
M  V30 2407 C 248.605 -1.87812 -0.567546 0
M  V30 2408 O 247.73 -1.62196 -1.43253 0
M  V30 2409 C 248.325 -2.974 1.62292 0
M  V30 2410 C 246.884 -3.47772 1.43986 0
M  V30 2411 C 246.031 -2.22332 1.65722 0
M  V30 2412 H 248.982 -0.936587 1.28116 0
M  V30 2413 H 249.003 -3.64986 1.07541 0
M  V30 2414 H 248.515 -2.79824 2.68924 0
M  V30 2415 H 246.616 -3.70487 0.396206 0
M  V30 2416 H 246.729 -4.25723 2.19765 0
M  V30 2417 H 245.093 -2.30599 1.08149 0
M  V30 2418 H 245.876 -2.07285 2.73657 0
M  V30 2419 N 248.321 -0.919034 -1.28029 0
M  V30 2420 C 249.569 -0.553838 -1.94363 0
M  V30 2421 C 249.89 0.906357 -1.72656 0
M  V30 2422 O 249.16 1.64143 -1.0693 0
M  V30 2423 H 247.74 -0.201834 -0.719216 0
M  V30 2424 H 250.402 -1.16954 -1.55909 0
M  V30 2425 H 249.498 -0.752758 -3.02886 0
M  V30 2426 N 249.799 1.42003 -0.683588 0
M  V30 2427 C 250.731 2.29183 0.0283068 0
M  V30 2428 C 251.744 1.4415 0.756611 0
M  V30 2429 O 252.933 1.67779 0.609306 0
M  V30 2430 C 250.033 3.21765 1.06398 0
M  V30 2431 C 249.206 4.35496 0.407723 0
M  V30 2432 C 248.265 5.08737 1.34437 0
M  V30 2433 O 247.291 5.62948 0.841318 0
M  V30 2434 N 248.493 5.15075 2.67728 0
M  V30 2435 H 251.258 2.9092 -0.720105 0
M  V30 2436 H 248.819 1.53025 -0.528682 0
M  V30 2437 H 250.811 3.6763 1.69204 0
M  V30 2438 H 249.381 2.61418 1.71404 0
M  V30 2439 H 248.601 3.92165 -0.400012 0
M  V30 2440 H 249.889 5.08776 -0.0490956 0
M  V30 2441 H 249.287 4.72457 3.11129 0
M  V30 2442 H 247.844 5.64556 3.2576 0
M  V30 2443 N 251.277 0.427512 1.51691 0
M  V30 2444 C 252.507 -0.140986 2.06118 0
M  V30 2445 C 252.915 -1.37854 1.29588 0
M  V30 2446 O 252.258 -1.80411 0.346036 0
M  V30 2447 C 252.32 -0.538276 3.55447 0
M  V30 2448 C 251.984 0.591095 4.53161 0
M  V30 2449 C 252.981 1.46027 4.98971 0
M  V30 2450 C 250.666 0.769028 4.96378 0
M  V30 2451 C 252.66 2.49216 5.8666 0
M  V30 2452 C 250.347 1.80421 5.83859 0
M  V30 2453 C 251.345 2.66417 6.28897 0
M  V30 2454 O 251.033 3.68159 7.14643 0
M  V30 2455 H 250.765 -0.0157455 0.675817 0
M  V30 2456 H 253.319 0.602495 1.96365 0
M  V30 2457 H 251.549 -1.33432 3.6295 0
M  V30 2458 H 253.238 -1.0368 3.92435 0
M  V30 2459 H 254.004 1.33429 4.66285 0
M  V30 2460 H 249.883 0.109273 4.6087 0
M  V30 2461 H 253.427 3.16372 6.21735 0
M  V30 2462 H 249.324 1.93042 6.15959 0
M  V30 2463 H 250.092 3.64622 7.32798 0
M  V30 2464 N 252.755 -1.56801 0.158532 0
M  V30 2465 C 253.718 -2.16138 -0.762705 0
M  V30 2466 C 254.718 -1.1061 -1.16713 0
M  V30 2467 O 255.908 -1.36191 -1.08617 0
M  V30 2468 C 253.04 -2.73386 -2.03649 0
M  V30 2469 H 254.233 -2.98886 -0.246354 0
M  V30 2470 H 251.786 -1.56035 -0.0909744 0
M  V30 2471 H 252.521 -1.94335 -2.59623 0
M  V30 2472 H 252.306 -3.50601 -1.75559 0
M  V30 2473 H 253.796 -3.19065 -2.6942 0
M  V30 2474 N 254.233 0.115231 -1.57178 0
M  V30 2475 C 255.163 1.1423 -2.03651 0
M  V30 2476 C 256.144 1.42967 -0.921655 0
M  V30 2477 O 257.329 1.53343 -1.19162 0
M  V30 2478 C 254.459 2.4675 -2.44401 0
M  V30 2479 C 253.413 2.32467 -3.59365 0
M  V30 2480 C 252.739 3.69984 -3.86026 0
M  V30 2481 C 254.039 1.78203 -4.90959 0
M  V30 2482 H 255.733 0.755749 -2.89705 0
M  V30 2483 H 253.279 0.362093 -1.39373 0
M  V30 2484 H 255.232 3.18854 -2.75517 0
M  V30 2485 H 253.956 2.87302 -1.55322 0
M  V30 2486 H 252.615 1.62811 -3.28463 0
M  V30 2487 H 252.263 4.08028 -2.94147 0
M  V30 2488 H 251.963 3.61279 -4.63412 0
M  V30 2489 H 253.487 4.43587 -4.19599 0
M  V30 2490 H 254.901 2.40128 -5.20587 0
M  V30 2491 H 253.298 1.8031 -5.72371 0
M  V30 2492 H 254.368 0.739876 -4.79222 0
M  V30 2493 N 255.711 1.52812 0.385517 0
M  V30 2494 C 256.939 1.71907 1.15133 0
M  V30 2495 C 257.354 0.439004 1.83625 0
M  V30 2496 O 256.711 -0.586765 1.7281 0
M  V30 2497 C 256.762 2.87099 2.19673 0
M  V30 2498 O 256.483 4.10151 1.53973 0
M  V30 2499 C 257.984 3.17902 3.08955 0
M  V30 2500 H 255.204 0.575479 0.345057 0
M  V30 2501 H 257.748 1.99476 0.45052 0
M  V30 2502 H 255.903 2.61982 2.85384 0
M  V30 2503 H 256.317 4.74514 2.23465 0
M  V30 2504 H 257.791 4.01959 3.7833 0
M  V30 2505 H 258.268 2.3243 3.72657 0
M  V30 2506 H 258.874 3.44871 2.48885 0
M  V30 2507 N 257.189 -0.644168 1.43834 0
M  V30 2508 C 258.137 -1.77793 1.49974 0
M  V30 2509 C 259.131 -1.65253 0.372536 0
M  V30 2510 O 260.337 -1.7149 0.546924 0
M  V30 2511 H 256.712 -0.58675 0.47035 0
M  V30 2512 H 258.683 -1.69736 2.45423 0
M  V30 2513 C 257.432 -3.16087 1.4486 0
M  V30 2514 H 256.755 -3.26378 2.30905 0
M  V30 2515 H 258.195 -3.95349 1.53217 0
M  V30 2516 C 256.654 -3.36484 0.167463 0
M  V30 2517 O 257.184 -3.94298 -0.767609 0
M  V30 2518 N 255.39 -2.90504 0.0747556 0
M  V30 2519 H 254.937 -2.4364 0.836507 0
M  V30 2520 H 254.895 -3.04527 -0.781714 0
M  V30 2521 N 258.668 -1.30515 -0.883378 0
M  V30 2522 C 259.916 -1.19194 -1.63209 0
M  V30 2523 C 260.237 0.253205 -1.93349 0
M  V30 2524 O 259.507 1.17025 -1.57105 0
M  V30 2525 H 258.087 -0.438148 -0.605009 0
M  V30 2526 H 260.749 -1.63663 -1.05832 0
M  V30 2527 H 259.845 -1.75396 -2.58153 0
M  V30 2528 N 260.146 1.09593 -1.13257 0
M  V30 2529 C 261.423 1.78293 -0.804432 0
M  V30 2530 C 261.803 1.99004 0.70431 0
M  V30 2531 O 261.151 1.59007 1.641 0
M  V30 2532 C 261.361 3.10707 -1.5894 0
M  V30 2533 C 262.709 3.85443 -1.78099 0
M  V30 2534 O 263.733 3.20454 -1.55525 0
M  V30 2535 O 262.592 5.02108 -2.15753 0
M  V30 2536 H 259.686 0.773156 -0.293528 0
M  V30 2537 H 262.232 1.16164 -1.23709 0
M  V30 2538 H 261.004 2.91106 -2.61482 0
M  V30 2539 H 260.627 3.80558 -1.15157 0
M  V30 2540 N 261.624 0.925811 1.2754 0
M  V30 2541 C 263.035 0.610102 1.7645 0
M  V30 2542 C 263.386 -0.874723 1.75622 0
M  V30 2543 O 262.511 -1.68444 1.35851 0
M  V30 2544 C 263.106 1.10073 3.20421 0
M  V30 2545 C 261.665 0.835723 3.67005 0
M  V30 2546 C 260.812 1.26054 2.46993 0
M  V30 2547 H 263.763 1.10579 1.13833 0
M  V30 2548 H 263.784 0.447557 3.77859 0
M  V30 2549 H 263.296 2.18143 3.20991 0
M  V30 2550 H 261.397 -0.231249 3.71882 0
M  V30 2551 H 261.51 1.45193 4.56569 0
M  V30 2552 H 259.874 0.679111 2.45479 0
M  V30 2553 H 260.657 2.34984 2.50275 0
M  V30 2554 N 263.102 -1.41638 0.69111 0
M  V30 2555 C 264.032 -2.3347 0.037248 0
M  V30 2556 C 265.013 -1.51575 -0.771947 0
M  V30 2557 O 266.198 -1.80126 -0.72582 0
M  V30 2558 C 263.328 -3.35354 -0.903064 0
M  V30 2559 C 262.282 -4.27526 -0.201288 0
M  V30 2560 C 261.608 -5.19747 -1.25565 0
M  V30 2561 C 262.908 -5.13959 0.929689 0
M  V30 2562 H 264.602 -2.88397 0.804227 0
M  V30 2563 H 262.148 -1.38669 0.388189 0
M  V30 2564 H 264.101 -3.98519 -1.36969 0
M  V30 2565 H 262.825 -2.78767 -1.70166 0
M  V30 2566 H 261.484 -3.65779 0.245265 0
M  V30 2567 H 261.132 -4.59479 -2.04666 0
M  V30 2568 H 260.832 -5.8225 -0.791128 0
M  V30 2569 H 262.356 -5.85789 -1.72288 0
M  V30 2570 H 263.77 -5.70718 0.543546 0
M  V30 2571 H 262.167 -5.85379 1.32103 0
M  V30 2572 H 263.237 -4.51389 1.77133 0
M  V30 2573 N 264.58 -0.43555 -1.51462 0
M  V30 2574 C 265.528 0.391205 -2.29287 0
M  V30 2575 C 266.522 1.02247 -1.35062 0
M  V30 2576 O 267.728 0.957646 -1.52411 0
M  V30 2577 H 264.103 0.144968 -0.737895 0
M  V30 2578 H 266.074 -0.286051 -2.97026 0
M  V30 2579 C 264.823 1.48096 -3.14583 0
M  V30 2580 H 264.146 1.00457 -3.86973 0
M  V30 2581 H 265.586 2.03273 -3.72097 0
M  V30 2582 C 264.045 2.46321 -2.29843 0
M  V30 2583 O 264.575 3.50815 -1.95682 0
M  V30 2584 N 262.781 2.17166 -1.931 0
M  V30 2585 H 262.328 1.32218 -2.21079 0
M  V30 2586 H 262.286 2.83127 -1.36698 0
M  V30 2587 N 266.058 1.56714 -0.166846 0
M  V30 2588 C 267.306 1.96358 0.478305 0
M  V30 2589 C 267.627 1.0537 1.6408 0
M  V30 2590 O 266.897 0.119154 1.95537 0
M  V30 2591 H 265.477 0.725065 0.179692 0
M  V30 2592 H 268.139 1.93329 -0.246985 0
M  V30 2593 H 267.235 3.00547 0.841292 0
M  V30 2594 N 267.536 -0.106894 1.57237 0
M  V30 2595 C 268.486 -1.1366 1.9765 0
M  V30 2596 C 269.47 -1.36416 0.853203 0
M  V30 2597 O 270.662 -1.37305 1.11697 0
M  V30 2598 C 267.791 -2.46 2.39455 0
M  V30 2599 C 266.877 -2.26668 3.58445 0
M  V30 2600 N 267.268 -1.77176 4.73754 0
M  V30 2601 C 265.566 -2.57279 3.64312 0
M  V30 2602 C 266.267 -1.71836 5.5574 0
M  V30 2603 N 265.243 -2.16623 4.98573 0
M  V30 2604 H 269.045 -0.74669 2.84256 0
M  V30 2605 H 266.559 -0.314483 1.59326 0
M  V30 2606 H 268.556 -3.2049 2.6663 0
M  V30 2607 H 267.216 -2.85738 1.54219 0
M  V30 2608 H 268.227 -1.46545 4.96734 0
M  V30 2609 H 264.904 -3.00622 2.89711 0
M  V30 2610 H 266.294 -1.34723 6.58255 0
M  V30 2611 N 269.014 -1.53014 -0.377408 0
M  V30 2612 C 270.254 -1.70318 -1.1301 0
M  V30 2613 C 270.618 -0.439538 -1.86901 0
M  V30 2614 O 271.819 -0.489095 -2.64313 0
M  V30 2615 C 270.09 -2.91125 -2.07319 0
M  V30 2616 S 271.649 -3.29075 -2.90268 0
M  V30 2617 H 268.467 -0.599426 -0.382374 0
M  V30 2618 H 271.069 -1.91089 -0.412933 0
M  V30 2619 H 269.773 -3.81303 -1.51777 0
M  V30 2620 H 269.304 -2.7272 -2.83526 0
M  V30 2621 H 271.319 -2.80165 -4.09539 0
M  V30 2622 N 270.492 0.636531 -1.44174 0
M  V30 2623 C 271.722 1.42146 -1.49927 0
M  V30 2624 C 272.13 1.88812 -0.121063 0
M  V30 2625 O 271.473 1.61126 0.882267 0
M  V30 2626 C 271.535 2.67883 -2.39748 0
M  V30 2627 C 271.199 2.43048 -3.8701 0
M  V30 2628 C 272.196 2.05216 -4.77684 0
M  V30 2629 C 269.881 2.56856 -4.3166 0
M  V30 2630 C 271.875 1.81512 -6.11009 0
M  V30 2631 C 269.562 2.32766 -5.65034 0
M  V30 2632 C 270.56 1.95152 -6.54526 0
M  V30 2633 O 270.248 1.71326 -7.85431 0
M  V30 2634 H 269.98 0.442567 -0.51099 0
M  V30 2635 H 272.534 0.786158 -1.8976 0
M  V30 2636 H 270.764 3.34032 -1.94832 0
M  V30 2637 H 272.453 3.29874 -2.36513 0
M  V30 2638 H 273.219 1.94111 -4.44462 0
M  V30 2639 H 269.098 2.85104 -3.62266 0
M  V30 2640 H 272.642 1.52077 -6.80822 0
M  V30 2641 H 268.539 2.43479 -5.97819 0
M  V30 2642 H 269.307 1.85616 -7.97176 0
M  V30 2643 N 271.97 1.30982 0.876444 0
M  V30 2644 C 272.9 1.20668 1.99903 0
M  V30 2645 C 273.881 0.095354 1.69833 0
M  V30 2646 O 275.066 0.27885 1.92188 0
M  V30 2647 C 272.196 0.90655 3.3526 0
M  V30 2648 C 271.15 1.97675 3.79617 0
M  V30 2649 C 270.476 1.52943 5.1236 0
M  V30 2650 C 271.776 3.389 3.97422 0
M  V30 2651 H 273.47 2.14586 2.0879 0
M  V30 2652 H 271.016 1.03308 1.00317 0
M  V30 2653 H 272.969 0.821025 4.13324 0
M  V30 2654 H 271.693 -0.0682969 3.26529 0
M  V30 2655 H 270.352 2.05205 3.03787 0
M  V30 2656 H 270 0.54262 5.00065 0
M  V30 2657 H 269.7 2.24532 5.43009 0
M  V30 2658 H 271.224 1.45786 5.92941 0
M  V30 2659 H 272.638 3.34081 4.659 0
M  V30 2660 H 271.035 4.0865 4.3946 0
M  V30 2661 H 272.105 3.80163 3.01006 0
M  V30 2662 N 273.449 -1.08991 1.13837 0
M  V30 2663 C 274.674 -1.85551 0.926585 0
M  V30 2664 C 275.099 -1.80782 -0.519566 0
M  V30 2665 O 274.457 -1.18855 -1.36906 0
M  V30 2666 C 274.505 -3.31266 1.42462 0
M  V30 2667 O 273.609 -4.07822 0.612789 0
M  V30 2668 H 272.95 -0.575192 0.331738 0
M  V30 2669 H 275.48 -1.37604 1.51414 0
M  V30 2670 H 275.49 -3.82112 1.43019 0
M  V30 2671 H 274.165 -3.34052 2.47754 0
M  V30 2672 H 272.742 -3.66731 0.675463 0
M  V30 2673 N 274.927 -0.932562 -1.27047 0
M  V30 2674 C 276.175 -0.574422 -1.93765 0
M  V30 2675 C 276.496 0.887993 -1.73608 0
M  V30 2676 O 275.766 1.62999 -1.08665 0
M  V30 2677 H 274.346 -0.209451 -0.717035 0
M  V30 2678 H 277.008 -1.18601 -1.5466 0
M  V30 2679 H 276.104 -0.784841 -3.02071 0
M  V30 2680 N 276.405 1.4127 -0.698611 0
M  V30 2681 C 277.635 2.05205 -0.239644 0
M  V30 2682 C 278.043 1.52684 1.11733 0
M  V30 2683 O 277.386 0.671222 1.70998 0
M  V30 2684 C 277.448 3.59289 -0.123126 0
M  V30 2685 C 277.112 4.34619 -1.41263 0
M  V30 2686 C 278.109 4.63701 -2.35111 0
M  V30 2687 C 275.794 4.73837 -1.66684 0
M  V30 2688 C 277.788 5.30966 -3.52639 0
M  V30 2689 C 275.475 5.40837 -2.84498 0
M  V30 2690 C 276.473 5.69329 -3.77298 0
M  V30 2691 O 276.161 6.34949 -4.93047 0
M  V30 2692 H 275.893 0.66723 -0.108537 0
M  V30 2693 H 278.447 1.81974 -0.952602 0
M  V30 2694 H 276.677 3.81272 0.645628 0
M  V30 2695 H 278.366 4.04797 0.299056 0
M  V30 2696 H 279.132 4.33882 -2.16729 0
M  V30 2697 H 275.011 4.51039 -0.953135 0
M  V30 2698 H 278.555 5.53121 -4.25091 0
M  V30 2699 H 274.452 5.70075 -3.02795 0
M  V30 2700 H 275.22 6.53445 -4.92902 0
M  V30 2701 N 277.883 0.443576 1.51229 0
M  V30 2702 C 279.132 -0.122332 2.01329 0
M  V30 2703 C 279.445 -1.43237 1.33201 0
M  V30 2704 O 280.651 -2.0816 1.74304 0
M  V30 2705 C 279.107 -0.268551 3.58897 0
M  V30 2706 C 278.715 1.03142 4.35965 0
M  V30 2707 C 280.459 -0.787894 4.17124 0
M  V30 2708 C 278.366 0.850504 5.85252 0
M  V30 2709 H 277.296 -0.0494929 0.752374 0
M  V30 2710 H 279.947 0.574289 1.74282 0
M  V30 2711 H 278.329 -1.02832 3.82415 0
M  V30 2712 H 279.503 1.80001 4.24189 0
M  V30 2713 H 277.818 1.47977 3.89219 0
M  V30 2714 H 280.415 -0.939841 5.26375 0
M  V30 2715 H 280.758 -1.77201 3.76703 0
M  V30 2716 H 281.291 -0.0862669 3.97706 0
M  V30 2717 H 278.03 1.80718 6.30096 0
M  V30 2718 H 277.55 0.121825 5.99676 0
M  V30 2719 H 279.229 0.506163 6.45017 0
M  V30 2720 N 279.361 -1.56624 0.175154 0
M  V30 2721 C 280.586 -2.01813 -0.478137 0
M  V30 2722 C 281.011 -1.05457 -1.55757 0
M  V30 2723 O 280.369 -0.0347439 -1.81267 0
M  V30 2724 C 280.417 -3.45581 -1.02987 0
M  V30 2725 O 279.521 -3.52305 -2.14371 0
M  V30 2726 H 278.862 -0.65413 -0.114059 0
M  V30 2727 H 281.392 -2.02673 0.280173 0
M  V30 2728 H 281.402 -3.84965 -1.35151 0
M  V30 2729 H 280.077 -4.1521 -0.239556 0
M  V30 2730 H 278.654 -3.24783 -1.83222 0
M  V30 2731 N 280.839 0.0985539 -1.57292 0
M  V30 2732 C 281.769 1.12064 -2.04851 0
M  V30 2733 C 282.75 1.41981 -0.936767 0
M  V30 2734 O 283.935 1.52071 -1.20781 0
M  V30 2735 C 281.065 2.44144 -2.47004 0
M  V30 2736 C 280.019 2.28643 -3.6181 0
M  V30 2737 C 279.345 3.65869 -3.89929 0
M  V30 2738 C 280.645 1.72986 -4.92822 0
M  V30 2739 H 282.339 0.724979 -2.9049 0
M  V30 2740 H 279.885 0.34729 -1.39749 0
M  V30 2741 H 281.838 3.15914 -2.78884 0
M  V30 2742 H 280.562 2.85639 -1.5836 0
M  V30 2743 H 279.221 1.59318 -3.30172 0
M  V30 2744 H 278.869 4.04885 -2.98458 0
M  V30 2745 H 278.569 3.56344 -4.67218 0
M  V30 2746 H 280.093 4.39112 -4.2428 0
M  V30 2747 H 281.507 2.34593 -5.23105 0
M  V30 2748 H 279.904 1.74229 -5.74251 0
M  V30 2749 H 280.974 0.689007 -4.7998 0
M  V30 2750 N 282.317 1.53212 0.369288 0
M  V30 2751 C 283.247 1.82365 1.45826 0
M  V30 2752 C 284.228 0.676907 1.56051 0
M  V30 2753 O 285.413 0.926401 1.70679 0
M  V30 2754 C 282.543 2.01023 2.83208 0
M  V30 2755 C 281.497 3.1678 2.8781 0
M  V30 2756 C 280.823 3.20724 4.27832 0
M  V30 2757 C 282.123 4.55447 2.55667 0
M  V30 2758 H 283.817 2.73559 1.21678 0
M  V30 2759 H 281.363 1.3163 0.583911 0
M  V30 2760 H 283.316 2.20001 3.59413 0
M  V30 2761 H 282.04 1.06536 3.08736 0
M  V30 2762 H 280.699 2.97616 2.14056 0
M  V30 2763 H 280.347 2.23882 4.50429 0
M  V30 2764 H 280.047 3.98496 4.31827 0
M  V30 2765 H 281.571 3.41881 5.05915 0
M  V30 2766 H 282.985 4.74611 3.21586 0
M  V30 2767 H 281.382 5.35432 2.70984 0
M  V30 2768 H 282.452 4.60812 1.5093 0
M  V30 2769 N 283.795 -0.628877 1.44509 0
M  V30 2770 C 284.725 -1.75187 1.54376 0
M  V30 2771 C 285.706 -1.65411 0.396618 0
M  V30 2772 O 286.891 -1.84137 0.617031 0
M  V30 2773 C 284.021 -3.13725 1.48976 0
M  V30 2774 C 282.975 -3.38291 2.62189 0
M  V30 2775 C 282.301 -4.76883 2.41841 0
M  V30 2776 C 283.601 -3.30632 4.04326 0
M  V30 2777 H 285.295 -1.67187 2.48373 0
M  V30 2778 H 282.841 -0.802909 1.19538 0
M  V30 2779 H 284.794 -3.92064 1.54478 0
M  V30 2780 H 283.518 -3.22515 0.514961 0
M  V30 2781 H 282.177 -2.62334 2.56079 0
M  V30 2782 H 281.825 -4.82378 1.42548 0
M  V30 2783 H 281.525 -4.94278 3.17747 0
M  V30 2784 H 283.049 -5.57449 2.49165 0
M  V30 2785 H 284.463 -3.98873 4.11793 0
M  V30 2786 H 282.86 -3.59561 4.80454 0
M  V30 2787 H 283.93 -2.28404 4.27738 0
M  V30 2788 N 285.273 -1.31445 -0.869486 0
M  V30 2789 C 286.689 -1.10113 -1.15531 0
M  V30 2790 C 286.889 0.128087 -2.01092 0
M  V30 2791 O 285.945 0.817276 -2.38908 0
M  V30 2792 C 287.258 -2.37291 -1.84698 0
M  V30 2793 C 288.806 -2.42906 -1.97397 0
M  V30 2794 C 289.281 -3.69967 -2.69979 0
M  V30 2795 N 290.772 -3.70864 -2.77514 0
M  V30 2796 C 291.507 -4.65875 -3.34287 0
M  V30 2797 N 291.003 -5.71242 -3.91988 0
M  V30 2798 N 292.796 -4.53394 -3.3225 0
M  V30 2799 H 284.947 -2.1028 -0.299347 0
M  V30 2800 H 287.21 -0.927683 -0.195214 0
M  V30 2801 H 286.916 -3.27078 -1.29278 0
M  V30 2802 H 286.79 -2.47125 -2.84972 0
M  V30 2803 H 289.177 -1.53588 -2.51982 0
M  V30 2804 H 289.258 -2.37036 -0.961643 0
M  V30 2805 H 288.902 -4.59652 -2.16062 0
M  V30 2806 H 288.832 -3.73103 -3.7162 0
M  V30 2807 H 291.323 -2.94697 -2.36563 0
M  V30 2808 H 291.636 -6.39817 -4.33421 0
M  V30 2809 H 289.981 -5.75015 -3.90362 0
M  V30 2810 H 293.172 -3.70252 -2.8641 0
M  V30 2811 H 293.345 -5.27617 -3.76197 0
M  V30 2812 N 286.751 1.08385 -1.14413 0
M  V30 2813 C 287.714 2.13486 -0.834048 0
M  V30 2814 C 288.714 1.59988 0.161418 0
M  V30 2815 O 289.904 1.74071 -0.0669575 0
M  V30 2816 C 287.036 3.4003 -0.243354 0
M  V30 2817 H 288.229 2.42425 -1.7655 0
M  V30 2818 H 285.782 1.24101 -0.950189 0
M  V30 2819 H 286.517 3.16726 0.696807 0
M  V30 2820 H 286.302 3.80157 -0.960367 0
M  V30 2821 H 287.792 4.17577 -0.0436242 0
M  V30 2822 N 288.23 0.939286 1.26551 0
M  V30 2823 C 289.14 0.453432 2.30176 0
M  V30 2824 C 290.156 -0.471649 1.67486 0
M  V30 2825 O 291.332 -0.35164 1.98306 0
M  V30 2826 C 288.397 -0.275326 3.45605 0
M  V30 2827 C 287.458 0.686084 4.23782 0
M  V30 2828 C 286.691 -0.00798994 5.33699 0
M  V30 2829 O 286.914 -1.22528 5.57085 0
M  V30 2830 O 285.848 0.669746 5.98162 0
M  V30 2831 H 289.674 1.31416 2.73795 0
M  V30 2832 H 287.259 0.705095 1.31715 0
M  V30 2833 H 289.141 -0.685911 4.1578 0
M  V30 2834 H 287.816 -1.11147 3.0402 0
M  V30 2835 H 286.723 1.14658 3.56096 0
M  V30 2836 H 288.056 1.48979 4.69112 0
M  V30 2837 N 289.708 -1.40897 0.706093 0
M  V30 2838 C 291.119 -1.84023 0.315052 0
M  V30 2839 C 291.47 -1.5906 -1.14866 0
M  V30 2840 O 290.595 -1.06651 -1.88293 0
M  V30 2841 C 291.19 -3.34055 0.565038 0
M  V30 2842 C 289.749 -3.7571 0.227806 0
M  V30 2843 C 288.896 -2.64204 0.842122 0
M  V30 2844 H 291.847 -1.303 0.905963 0
M  V30 2845 H 291.868 -3.80107 -0.172843 0
M  V30 2846 H 291.38 -3.52192 1.63042 0
M  V30 2847 H 289.481 -3.63172 -0.832895 0
M  V30 2848 H 289.594 -4.74103 0.690174 0
M  V30 2849 H 287.958 -2.53255 0.270893 0
M  V30 2850 H 288.741 -2.85155 1.91158 0
M  V30 2851 N 291.186 -0.45159 -1.50991 0
M  V30 2852 C 292.416 0.108177 -2.06317 0
M  V30 2853 C 292.824 1.35774 -1.31765 0
M  V30 2854 O 292.167 1.79838 -0.374694 0
M  V30 2855 C 292.229 0.481659 -3.56259 0
M  V30 2856 C 291.893 -0.663114 -4.52163 0
M  V30 2857 C 292.89 -1.53947 -4.96585 0
M  V30 2858 C 290.575 -0.8479 -4.95092 0
M  V30 2859 C 292.569 -2.58518 -5.82621 0
M  V30 2860 C 290.256 -1.89686 -5.80915 0
M  V30 2861 C 291.254 -2.76388 -6.24579 0
M  V30 2862 O 290.942 -3.79482 -7.08695 0
M  V30 2863 H 290.674 0.00499183 -0.675982 0
M  V30 2864 H 293.228 -0.633659 -1.95381 0
M  V30 2865 H 291.458 1.27641 -3.65027 0
M  V30 2866 H 293.147 0.974233 -3.94035 0
M  V30 2867 H 293.913 -1.4083 -4.64103 0
M  V30 2868 H 289.792 -0.18258 -4.60638 0
M  V30 2869 H 293.336 -3.26224 -6.16623 0
M  V30 2870 H 289.233 -2.02817 -6.12809 0
M  V30 2871 H 290.001 -3.76234 -7.26905 0
M  V30 2872 N 292.664 1.56529 -0.183458 0
M  V30 2873 C 294.075 1.83739 0.331177 0
M  V30 2874 C 294.426 1.10373 1.62211 0
M  V30 2875 O 293.551 0.36071 2.13373 0
M  V30 2876 C 294.146 3.33306 0.607646 0
M  V30 2877 C 292.705 3.60969 1.06668 0
M  V30 2878 C 291.852 2.77086 0.109029 0
M  V30 2879 H 294.803 1.53379 -0.407484 0
M  V30 2880 H 294.824 3.51444 1.45832 0
M  V30 2881 H 294.336 3.86677 -0.332086 0
M  V30 2882 H 292.437 3.13021 2.0211 0
M  V30 2883 H 292.55 4.69231 0.967447 0
M  V30 2884 H 290.914 2.47319 0.608714 0
M  V30 2885 H 291.697 3.33241 -0.82494 0
M  V30 2886 N 294.142 -0.090211 1.57342 0
M  V30 2887 C 295.37 -0.806224 1.90546 0
M  V30 2888 C 295.785 -1.72041 0.777644 0
M  V30 2889 O 295.142 -1.80778 -0.250103 0
M  V30 2890 C 295.193 -1.61546 3.23396 0
M  V30 2891 O 294.914 -0.738043 4.31839 0
M  V30 2892 C 296.415 -2.4341 3.70495 0
M  V30 2893 H 293.635 -0.230256 0.630257 0
M  V30 2894 H 296.179 -0.0659843 2.04394 0
M  V30 2895 H 294.334 -2.30816 3.11131 0
M  V30 2896 H 294.748 -1.29901 5.08159 0
M  V30 2897 H 296.222 -2.95676 4.66133 0
M  V30 2898 H 296.699 -3.22098 2.98579 0
M  V30 2899 H 297.305 -1.79331 3.85643 0
M  V30 2900 N 295.62 -1.53406 -0.361157 0
M  V30 2901 C 296.845 -1.74024 -1.12829 0
M  V30 2902 C 297.27 -0.470069 -1.82132 0
M  V30 2903 O 296.628 0.57619 -1.719 0
M  V30 2904 C 296.676 -2.90903 -2.13091 0
M  V30 2905 O 295.78 -2.59821 -3.20261 0
M  V30 2906 H 295.121 -0.577804 -0.327168 0
M  V30 2907 H 297.651 -2.00307 -0.41693 0
M  V30 2908 H 297.661 -3.17194 -2.56616 0
M  V30 2909 H 296.336 -3.83034 -1.62042 0
M  V30 2910 H 294.913 -2.44362 -2.81677 0
M  V30 2911 N 297.098 0.621204 -1.44841 0
M  V30 2912 C 298.514 0.94048 -1.28946 0
M  V30 2913 C 298.714 2.00154 -0.23249 0
M  V30 2914 O 297.77 2.49651 0.378237 0
M  V30 2915 C 299.083 1.39433 -2.66419 0
M  V30 2916 C 300.631 1.50927 -2.74208 0
M  V30 2917 C 301.106 1.99692 -4.12174 0
M  V30 2918 N 302.597 2.06947 -4.144 0
M  V30 2919 C 303.332 2.45871 -5.1801 0
M  V30 2920 N 302.828 2.83862 -6.31977 0
M  V30 2921 N 304.621 2.46092 -5.05366 0
M  V30 2922 H 296.772 -0.0803548 -2.12248 0
M  V30 2923 H 299.035 0.0266913 -0.947624 0
M  V30 2924 H 298.741 0.688925 -3.44887 0
M  V30 2925 H 298.615 2.36347 -2.93973 0
M  V30 2926 H 301.002 2.20561 -1.96053 0
M  V30 2927 H 301.083 0.523627 -2.50383 0
M  V30 2928 H 300.727 1.30649 -4.90809 0
M  V30 2929 H 300.657 2.99146 -4.33381 0
M  V30 2930 H 303.148 1.80232 -3.32152 0
M  V30 2931 H 303.461 3.12405 -7.0684 0
M  V30 2932 H 301.806 2.8159 -6.35399 0
M  V30 2933 H 304.997 2.1581 -4.15384 0
M  V30 2934 H 305.17 2.76102 -5.86235 0
M  V30 2935 N 298.576 1.31904 0.862503 0
M  V30 2936 C 299.806 1.24817 1.64634 0
M  V30 2937 C 300.214 -0.187579 1.88268 0
M  V30 2938 O 299.557 -1.13253 1.44635 0
M  V30 2939 C 299.619 1.92996 3.03303 0
M  V30 2940 C 299.283 3.42336 3.02746 0
M  V30 2941 C 300.28 4.37956 2.80162 0
M  V30 2942 C 297.965 3.84147 3.2363 0
M  V30 2943 C 299.959 5.73361 2.78453 0
M  V30 2944 C 297.646 5.19663 3.21549 0
M  V30 2945 C 298.644 6.14081 2.98988 0
M  V30 2946 O 298.332 7.47118 2.96766 0
M  V30 2947 H 298.064 0.432222 0.519769 0
M  V30 2948 H 300.618 1.7445 1.08427 0
M  V30 2949 H 298.848 1.37922 3.61268 0
M  V30 2950 H 300.537 1.79723 3.63943 0
M  V30 2951 H 301.303 4.06981 2.63802 0
M  V30 2952 H 297.182 3.11083 3.40218 0
M  V30 2953 H 300.726 6.4703 2.60763 0
M  V30 2954 H 296.623 5.5027 3.37451 0
M  V30 2955 H 297.391 7.56382 3.12775 0
M  V30 2956 N 300.054 -1.07777 1.14986 0
M  V30 2957 C 301.302 -1.79934 0.920235 0
M  V30 2958 C 301.623 -1.86955 -0.554336 0
M  V30 2959 O 300.893 -1.36731 -1.40291 0
M  V30 2960 H 299.473 -0.666424 0.337473 0
M  V30 2961 H 302.135 -1.3027 1.44968 0
M  V30 2962 H 301.231 -2.82539 1.32583 0
M  V30 2963 N 301.532 -0.945985 -1.26051 0
M  V30 2964 C 302.757 -0.612525 -1.98149 0
M  V30 2965 C 303.182 0.806623 -1.69927 0
M  V30 2966 O 302.54 1.54411 -0.950108 0
M  V30 2967 C 302.588 -0.866981 -3.50023 0
M  V30 2968 O 301.692 0.0585333 -4.12358 0
M  V30 2969 H 301.033 -0.23379 -0.621481 0
M  V30 2970 H 303.563 -1.27023 -1.60395 0
M  V30 2971 H 303.573 -0.789792 -4.00283 0
M  V30 2972 H 302.248 -1.90135 -3.69894 0
M  V30 2973 H 300.825 -0.0701241 -3.72834 0
M  V30 2974 N 303.011 1.40521 -0.713556 0
M  V30 2975 C 303.943 2.29191 -0.0203126 0
M  V30 2976 C 304.956 1.45723 0.725864 0
M  V30 2977 O 306.145 1.69033 0.573581 0
M  V30 2978 C 303.245 3.2395 0.995486 0
M  V30 2979 C 302.418 4.36262 0.315256 0
M  V30 2980 C 301.477 5.11474 1.23616 0
M  V30 2981 O 300.503 5.64606 0.721719 0
M  V30 2982 N 301.705 5.20638 2.56743 0
M  V30 2983 H 304.47 2.89327 -0.781652 0
M  V30 2984 H 302.031 1.51869 -0.561022 0
M  V30 2985 H 304.023 3.71137 1.61368 0
M  V30 2986 H 302.593 2.64995 1.6582 0
M  V30 2987 H 301.813 3.91228 -0.483106 0
M  V30 2988 H 303.101 5.08558 -0.157004 0
M  V30 2989 H 302.499 4.7895 3.01037 0
M  V30 2990 H 301.056 5.71339 3.13712 0
M  V30 2991 N 304.489 0.459591 1.5075 0
M  V30 2992 C 305.729 -0.09824 2.04164 0
M  V30 2993 C 306.093 -1.3801 1.33481 0
M  V30 2994 O 307.294 -2.01959 1.77387 0
M  V30 2995 C 305.565 -0.289467 3.56226 0
M  V30 2996 S 307.124 -0.807507 4.31306 0
M  V30 2997 H 303.942 -0.0213845 0.710678 0
M  V30 2998 H 306.544 0.624098 1.85271 0
M  V30 2999 H 305.248 0.649461 4.05229 0
M  V30 3000 H 304.779 -1.03825 3.79452 0
M  V30 3001 H 306.794 -2.0824 4.50389 0
M  V30 3002 N 305.967 -1.56429 0.191757 0
M  V30 3003 C 306.9 -2.14829 -0.76967 0
M  V30 3004 C 307.878 -1.08405 -1.2119 0
M  V30 3005 O 309.062 -1.36498 -1.30002 0
M  V30 3006 C 306.189 -2.70446 -2.03903 0
M  V30 3007 C 305.235 -3.89428 -1.7392 0
M  V30 3008 S 306.068 -5.28048 -0.890265 0
M  V30 3009 C 307.224 -5.87085 -2.16984 0
M  V30 3010 H 307.457 -2.96042 -0.273204 0
M  V30 3011 H 304.99 -1.54383 -0.0231975 0
M  V30 3012 H 306.948 -3.03134 -2.76803 0
M  V30 3013 H 305.609 -1.89281 -2.50662 0
M  V30 3014 H 304.802 -4.26742 -2.68155 0
M  V30 3015 H 304.404 -3.57732 -1.09103 0
M  V30 3016 H 306.696 -6.01244 -3.12269 0
M  V30 3017 H 307.639 -6.83747 -1.84108 0
M  V30 3018 H 308.047 -5.15663 -2.29678 0
M  V30 3019 N 307.445 0.0818655 -1.57387 0
M  V30 3020 C 308.377 1.12484 -1.997 0
M  V30 3021 C 309.39 1.35564 -0.90146 0
M  V30 3022 O 310.579 1.33982 -1.17945 0
M  V30 3023 C 307.679 2.47778 -2.31213 0
M  V30 3024 C 306.852 2.44793 -3.62485 0
M  V30 3025 C 305.911 3.62117 -3.81782 0
M  V30 3026 O 304.937 3.44005 -4.53486 0
M  V30 3027 N 306.139 4.82094 -3.23367 0
M  V30 3028 H 308.904 0.764585 -2.89783 0
M  V30 3029 H 306.465 0.270664 -1.59621 0
M  V30 3030 H 308.457 3.24891 -2.41304 0
M  V30 3031 H 307.027 2.75843 -1.4707 0
M  V30 3032 H 306.247 1.53134 -3.6324 0
M  V30 3033 H 307.535 2.39889 -4.48699 0
M  V30 3034 H 306.933 4.99713 -2.65148 0
M  V30 3035 H 305.49 5.56753 -3.38923 0
M  V30 3036 N 308.923 1.53595 0.353017 0
M  V30 3037 C 310.334 1.61937 0.929153 0
M  V30 3038 C 310.685 0.494686 1.89861 0
M  V30 3039 O 309.81 -0.377017 2.1309 0
M  V30 3040 C 310.405 2.93526 1.69199 0
M  V30 3041 C 308.964 3.04161 2.21727 0
M  V30 3042 C 308.111 2.57322 1.03348 0
M  V30 3043 H 311.062 1.58155 0.131431 0
M  V30 3044 H 311.083 2.82034 2.55416 0
M  V30 3045 H 310.595 3.75362 0.986144 0
M  V30 3046 H 308.696 2.26938 2.95516 0
M  V30 3047 H 308.809 4.09465 2.48748 0
M  V30 3048 H 307.173 2.12499 1.40414 0
M  V30 3049 H 307.956 3.41588 0.342428 0
M  V30 3050 N 310.401 -0.613514 1.45168 0
M  V30 3051 C 311.349 -1.74572 1.53712 0
M  V30 3052 C 312.343 -1.64426 0.407505 0
M  V30 3053 O 313.549 -1.70291 0.583176 0
M  V30 3054 H 309.924 -0.576641 0.48269 0
M  V30 3055 H 311.895 -1.64492 2.48968 0
M  V30 3056 C 310.644 -3.12943 1.51532 0
M  V30 3057 H 309.967 -3.21407 2.37776 0
M  V30 3058 H 311.407 -3.9201 1.61569 0
M  V30 3059 C 309.866 -3.36053 0.238798 0
M  V30 3060 O 310.396 -3.95837 -0.6838 0
M  V30 3061 N 308.602 -2.9028 0.136359 0
M  V30 3062 H 308.149 -2.41811 0.887999 0
M  V30 3063 H 308.107 -3.06116 -0.716944 0
M  V30 3064 N 311.879 -1.3236 -0.855495 0
M  V30 3065 C 312.827 -1.2118 -1.9854 0
M  V30 3066 C 313.821 -0.116788 -1.68997 0
M  V30 3067 O 315.027 -0.279657 -1.77814 0
M  V30 3068 H 311.402 -0.375608 -0.651477 0
M  V30 3069 H 313.373 -2.16743 -2.05098 0
M  V30 3070 C 312.122 -0.950849 -3.34446 0
M  V30 3071 H 311.445 -1.78563 -3.57708 0
M  V30 3072 H 312.885 -0.912863 -4.14057 0
M  V30 3073 C 311.344 0.346404 -3.35114 0
M  V30 3074 O 311.874 1.35855 -3.7803 0
M  V30 3075 N 310.08 0.36808 -2.88259 0
M  V30 3076 H 309.627 -0.456102 -2.5353 0
M  V30 3077 H 309.585 1.23591 -2.89089 0
M  V30 3078 N 313.357 1.07166 -1.15556 0
M  V30 3079 C 314.606 1.79181 -0.926132 0
M  V30 3080 C 314.919 1.87768 0.547967 0
M  V30 3081 O 316.125 2.56323 0.895036 0
M  V30 3082 C 314.581 3.22 -1.60761 0
M  V30 3083 C 314.189 3.21607 -3.11886 0
M  V30 3084 C 315.933 3.9861 -1.4598 0
M  V30 3085 C 313.84 4.59092 -3.72812 0
M  V30 3086 H 312.77 0.67154 -0.342856 0
M  V30 3087 H 315.421 1.2027 -1.3859 0
M  V30 3088 H 313.803 3.81115 -1.07553 0
M  V30 3089 H 314.977 2.72127 -3.71865 0
M  V30 3090 H 313.292 2.58495 -3.2645 0
M  V30 3091 H 315.889 5.00225 -1.88888 0
M  V30 3092 H 316.232 4.143 -0.407541 0
M  V30 3093 H 316.765 3.45996 -1.96295 0
M  V30 3094 H 313.504 4.48606 -4.77946 0
M  V30 3095 H 313.024 5.08803 -3.17616 0
M  V30 3096 H 314.703 5.28059 -3.73848 0
M  V30 3097 N 314.835 0.952656 1.25548 0
M  V30 3098 C 315.768 0.415525 2.24385 0
M  V30 3099 C 316.746 -0.502046 1.54655 0
M  V30 3100 O 317.93 -0.436875 1.83368 0
M  V30 3101 C 315.057 -0.401734 3.36309 0
M  V30 3102 C 314.103 0.455949 4.24056 0
M  V30 3103 S 314.936 1.88698 5.01152 0
M  V30 3104 C 316.092 1.07809 6.16545 0
M  V30 3105 H 316.325 1.25315 2.69599 0
M  V30 3106 H 313.858 0.756587 1.34592 0
M  V30 3107 H 315.816 -0.867329 4.01233 0
M  V30 3108 H 314.477 -1.21416 2.89684 0
M  V30 3109 H 313.67 -0.170776 5.03711 0
M  V30 3110 H 313.272 0.856675 3.64056 0
M  V30 3111 H 315.564 0.325816 6.76716 0
M  V30 3112 H 316.507 1.84849 6.83547 0
M  V30 3113 H 316.915 0.60909 5.61204 0
M  V30 3114 N 316.313 -1.40141 0.720998 0
M  V30 3115 C 317.561 -2.0039 0.262323 0
M  V30 3116 C 317.882 -1.57469 -1.15015 0
M  V30 3117 O 317.152 -0.816582 -1.78069 0
M  V30 3118 H 315.732 -0.741063 0.093996 0
M  V30 3119 H 318.394 -1.71398 0.927835 0
M  V30 3120 H 317.49 -3.10658 0.299671 0
M  V30 3121 N 317.792 -0.46758 -1.50504 0
M  V30 3122 C 319.041 0.0902868 -2.01498 0
M  V30 3123 C 319.354 1.411 -1.35463 0
M  V30 3124 O 320.56 2.0536 -1.77594 0
M  V30 3125 C 319.016 0.21142 -3.59278 0
M  V30 3126 C 318.624 -1.10065 -4.34269 0
M  V30 3127 C 320.368 0.721433 -4.18325 0
M  V30 3128 C 318.275 -0.943505 -5.83825 0
M  V30 3129 H 317.205 0.037517 -0.753066 0
M  V30 3130 H 319.856 -0.601943 -1.73346 0
M  V30 3131 H 318.238 0.967352 -3.84003 0
M  V30 3132 H 319.412 -1.86726 -4.21272 0
M  V30 3133 H 317.727 -1.5415 -3.86816 0
M  V30 3134 H 320.324 0.85598 -5.27804 0
M  V30 3135 H 320.667 1.71186 -3.79475 0
M  V30 3136 H 321.2 0.0229843 -3.97793 0
M  V30 3137 H 317.939 -1.90719 -6.27141 0
M  V30 3138 H 317.459 -0.217213 -5.99407 0
M  V30 3139 H 319.138 -0.608715 -6.4413 0
M  V30 3140 N 319.27 1.56325 -0.20005 0
M  V30 3141 C 320.18 2.22931 0.730668 0
M  V30 3142 C 321.196 1.22997 1.23076 0
M  V30 3143 O 322.372 1.55748 1.27689 0
M  V30 3144 C 319.437 2.87948 1.93098 0
M  V30 3145 C 318.498 4.03166 1.47497 0
M  V30 3146 C 317.731 4.65073 2.61807 0
M  V30 3147 O 317.954 4.25913 3.79413 0
M  V30 3148 O 316.888 5.54452 2.34237 0
M  V30 3149 H 320.714 3.03084 0.193391 0
M  V30 3150 H 318.299 1.49371 0.0294621 0
M  V30 3151 H 320.181 3.29063 2.6324 0
M  V30 3152 H 318.856 2.10771 2.45677 0
M  V30 3153 H 317.763 3.66664 0.742201 0
M  V30 3154 H 319.096 4.82022 0.995796 0
M  V30 3155 N 320.748 -0.0735177 1.57428 0
M  V30 3156 C 321.696 -1.10628 2.04607 0
M  V30 3157 C 322.69 -1.40181 0.951088 0
M  V30 3158 O 323.896 -1.39608 1.1362 0
M  V30 3159 H 320.271 -0.374088 0.652351 0
M  V30 3160 H 322.242 -0.682218 2.90497 0
M  V30 3161 C 320.991 -2.41212 2.50423 0
M  V30 3162 H 320.314 -2.19322 3.34272 0
M  V30 3163 H 321.754 -3.11927 2.87189 0
M  V30 3164 C 320.213 -3.0705 1.38644 0
M  V30 3165 O 320.743 -3.95056 0.727582 0
M  V30 3166 N 318.949 -2.67645 1.132 0
M  V30 3167 H 318.496 -1.96169 1.66959 0
M  V30 3168 H 318.454 -3.1202 0.386147 0
M  V30 3169 N 322.226 -1.5378 -0.344866 0
M  V30 3170 C 323.475 -1.7018 -1.08267 0
M  V30 3171 C 323.788 -0.471 -1.89845 0
M  V30 3172 O 324.994 -0.515917 -2.66553 0
M  V30 3173 C 323.45 -3.00923 -1.97417 0
M  V30 3174 C 323.058 -4.31335 -1.21053 0
M  V30 3175 C 324.802 -3.26688 -2.71063 0
M  V30 3176 C 322.709 -5.53153 -2.09225 0
M  V30 3177 H 321.639 -0.634138 -0.407903 0
M  V30 3178 H 324.29 -1.8028 -0.342246 0
M  V30 3179 H 322.672 -2.84676 -2.75274 0
M  V30 3180 H 323.846 -4.58281 -0.481159 0
M  V30 3181 H 322.161 -4.12173 -0.591813 0
M  V30 3182 H 324.758 -4.1489 -3.37299 0
M  V30 3183 H 325.101 -2.43639 -3.37558 0
M  V30 3184 H 325.634 -3.43705 -2.0028 0
M  V30 3185 H 322.373 -6.38741 -1.47274 0
M  V30 3186 H 321.893 -5.30458 -2.79955 0
M  V30 3187 H 323.572 -5.88744 -2.68308 0
M  V30 3188 N 323.704 0.605807 -1.45491 0
M  V30 3189 C 324.944 1.37606 -1.51142 0
M  V30 3190 C 325.308 1.91413 -0.150075 0
M  V30 3191 O 326.509 2.68677 -0.0812828 0
M  V30 3192 C 324.78 2.49197 -2.56195 0
M  V30 3193 S 326.339 3.36953 -2.81083 0
M  V30 3194 H 323.157 0.469118 -0.534275 0
M  V30 3195 H 325.759 0.698845 -1.82583 0
M  V30 3196 H 324.463 2.0802 -3.53773 0
M  V30 3197 H 323.994 3.21717 -2.26411 0
M  V30 3198 H 326.009 4.47395 -2.14598 0
M  V30 3199 N 325.182 1.32811 0.848464 0
M  V30 3200 C 326.092 1.24278 1.98978 0
M  V30 3201 C 327.108 0.155176 1.73307 0
M  V30 3202 O 328.284 0.376999 1.9784 0
M  V30 3203 C 325.349 0.972444 3.32783 0
M  V30 3204 C 324.41 2.14911 3.71634 0
M  V30 3205 C 323.643 1.89157 4.99054 0
M  V30 3206 O 323.866 0.837165 5.64223 0
M  V30 3207 O 322.8 2.75433 5.35183 0
M  V30 3208 H 326.626 2.20238 2.09115 0
M  V30 3209 H 324.211 1.12762 0.980052 0
M  V30 3210 H 326.093 0.838432 4.12975 0
M  V30 3211 H 324.768 0.043051 3.23671 0
M  V30 3212 H 323.675 2.33862 2.91992 0
M  V30 3213 H 325.008 3.06151 3.85399 0
M  V30 3214 N 326.66 -1.06551 1.16123 0
M  V30 3215 C 327.59 -2.15935 0.88851 0
M  V30 3216 C 328.571 -1.69306 -0.164135 0
M  V30 3217 O 329.756 -1.94193 -0.0167857 0
M  V30 3218 C 326.886 -3.45149 0.385942 0
M  V30 3219 C 325.84 -4.05271 1.3762 0
M  V30 3220 C 325.166 -5.29664 0.732137 0
M  V30 3221 C 326.466 -4.44355 2.74493 0
M  V30 3222 H 328.16 -2.39006 1.80323 0
M  V30 3223 H 325.706 -1.14866 0.868435 0
M  V30 3224 H 327.659 -4.21004 0.182647 0
M  V30 3225 H 326.383 -3.21689 -0.564274 0
M  V30 3226 H 325.042 -3.3147 1.56599 0
M  V30 3227 H 324.69 -5.02499 -0.224483 0
M  V30 3228 H 324.39 -5.70848 1.39307 0
M  V30 3229 H 325.914 -6.08218 0.538802 0
M  V30 3230 H 327.328 -5.11303 2.59311 0
M  V30 3231 H 325.725 -4.96515 3.37035 0
M  V30 3232 H 326.795 -3.55339 3.29943 0
M  V30 3233 N 328.138 -0.959301 -1.25041 0
M  V30 3234 C 329.101 -0.487677 -2.23952 0
M  V30 3235 C 330.101 0.41119 -1.55454 0
M  V30 3236 O 331.291 0.207825 -1.72956 0
M  V30 3237 C 328.423 0.294807 -3.39623 0
M  V30 3238 H 329.616 -1.36198 -2.67189 0
M  V30 3239 H 327.169 -0.743042 -1.37508 0
M  V30 3240 H 327.904 1.18658 -3.01813 0
M  V30 3241 H 327.689 -0.35012 -3.90534 0
M  V30 3242 H 329.179 0.614089 -4.1306 0
M  V30 3243 N 329.616 1.39756 -0.72842 0
M  V30 3244 C 330.579 2.29012 -0.0927297 0
M  V30 3245 C 331.579 1.45992 0.674025 0
M  V30 3246 O 332.769 1.66749 0.50402 0
M  V30 3247 C 329.901 3.29396 0.878137 0
M  V30 3248 H 331.094 2.86729 -0.879011 0
M  V30 3249 H 328.647 1.48293 -0.493847 0
M  V30 3250 H 329.382 2.76722 1.69101 0
M  V30 3251 H 329.167 3.907 0.331051 0
M  V30 3252 H 330.657 3.96199 1.3197 0
M  V30 3253 N 331.094 0.475555 1.50254 0
M  V30 3254 C 332.51 0.12997 1.5907 0
M  V30 3255 C 332.71 -1.36385 1.48328 0
M  V30 3256 O 331.766 -2.13754 1.34407 0
M  V30 3257 C 333.079 0.684139 2.92814 0
M  V30 3258 C 334.627 0.647965 3.0622 0
M  V30 3259 C 335.102 1.17975 4.42545 0
M  V30 3260 N 336.593 1.13936 4.48969 0
M  V30 3261 C 337.328 1.52129 5.52851 0
M  V30 3262 N 336.824 1.97793 6.63965 0
M  V30 3263 N 338.617 1.43704 5.4342 0
M  V30 3264 H 330.768 1.44706 1.55479 0
M  V30 3265 H 333.031 0.598691 0.735033 0
M  V30 3266 H 332.737 1.73079 3.06164 0
M  V30 3267 H 332.611 0.130204 3.76975 0
M  V30 3268 H 334.998 -0.38979 2.92514 0
M  V30 3269 H 335.079 1.23876 2.23805 0
M  V30 3270 H 334.723 2.21616 4.57 0
M  V30 3271 H 334.653 0.565138 5.23559 0
M  V30 3272 H 337.144 0.804488 3.69238 0
M  V30 3273 H 337.457 2.25072 7.39299 0
M  V30 3274 H 335.802 2.01749 6.65073 0
M  V30 3275 H 338.993 1.07867 4.55502 0
M  V30 3276 H 339.166 1.73794 6.24259 0
M  V30 3277 N 332.573 -1.56217 0.208337 0
M  V30 3278 C 333.503 -2.22694 -0.702116 0
M  V30 3279 C 334.484 -1.19432 -1.2112 0
M  V30 3280 O 335.669 -1.47978 -1.25762 0
M  V30 3281 C 332.799 -2.8966 -1.9161 0
M  V30 3282 C 331.753 -3.9928 -1.5414 0
M  V30 3283 C 331.079 -4.53476 -2.83308 0
M  V30 3284 C 332.379 -5.17012 -0.741339 0
M  V30 3285 H 334.073 -2.99034 -0.147898 0
M  V30 3286 H 331.619 -1.43831 -0.0696951 0
M  V30 3287 H 333.572 -3.34852 -2.55836 0
M  V30 3288 H 332.296 -2.10746 -2.49507 0
M  V30 3289 H 330.955 -3.54799 -0.922668 0
M  V30 3290 H 330.603 -3.71308 -3.39322 0
M  V30 3291 H 330.303 -5.27451 -2.58976 0
M  V30 3292 H 331.827 -5.01378 -3.485 0
M  V30 3293 H 333.241 -5.58667 -1.28699 0
M  V30 3294 H 331.638 -5.97137 -0.595627 0
M  V30 3295 H 332.708 -4.8423 0.254851 0
M  V30 3296 N 334.051 0.0651679 -1.57465 0
M  V30 3297 C 334.981 1.07693 -2.07182 0
M  V30 3298 C 335.962 1.39962 -0.966673 0
M  V30 3299 O 337.147 1.49475 -1.2398 0
M  V30 3300 C 334.277 2.3885 -2.52127 0
M  V30 3301 C 333.231 2.20917 -3.66579 0
M  V30 3302 C 332.557 3.57515 -3.97601 0
M  V30 3303 C 333.857 1.62493 -4.9638 0
M  V30 3304 H 335.551 0.663199 -2.91962 0
M  V30 3305 H 333.097 0.317569 -1.40455 0
M  V30 3306 H 335.05 3.09928 -2.85522 0
M  V30 3307 H 333.774 2.82215 -1.64384 0
M  V30 3308 H 332.433 1.52279 -3.33477 0
M  V30 3309 H 332.081 3.98463 -3.06979 0
M  V30 3310 H 331.781 3.46353 -4.74672 0
M  V30 3311 H 333.305 4.30013 -4.33499 0
M  V30 3312 H 334.719 2.23445 -5.27963 0
M  V30 3313 H 333.116 1.62009 -5.77818 0
M  V30 3314 H 334.186 0.587041 -4.81333 0
M  V30 3315 N 335.529 1.53961 0.336706 0
M  V30 3316 C 336.776 1.71536 1.07618 0
M  V30 3317 C 337.104 0.482125 1.8843 0
M  V30 3318 O 336.359 -0.536142 1.88213 0
M  V30 3319 C 336.658 2.93493 2.03953 0
M  V30 3320 C 336.324 4.28811 1.39399 0
M  V30 3321 C 334.986 4.65602 1.21523 0
M  V30 3322 C 337.338 5.12844 0.929541 0
M  V30 3323 C 334.666 5.84037 0.558312 0
M  V30 3324 C 337.018 6.31951 0.286505 0
M  V30 3325 C 335.682 6.67432 0.0954869 0
M  V30 3326 H 334.952 0.627696 0.393801 0
M  V30 3327 H 337.599 1.88186 0.354715 0
M  V30 3328 H 335.904 2.71475 2.82504 0
M  V30 3329 H 337.601 3.04285 2.61174 0
M  V30 3330 H 334.191 3.99858 1.54311 0
M  V30 3331 H 338.375 4.84947 1.05548 0
M  V30 3332 H 333.631 6.10097 0.398995 0
M  V30 3333 H 337.805 6.96352 -0.0814376 0
M  V30 3334 H 335.432 7.59063 -0.415579 0
M  V30 3335 N 337.007 -0.598083 1.45811 0
M  V30 3336 C 338.232 -1.3881 1.54099 0
M  V30 3337 C 338.657 -1.8726 0.177578 0
M  V30 3338 O 338.015 -1.6069 -0.839541 0
M  V30 3339 C 338.063 -2.56217 2.53743 0
M  V30 3340 O 337.167 -3.5716 2.06182 0
M  V30 3341 H 336.508 -0.414024 0.519115 0
M  V30 3342 H 339.038 -0.726971 1.91249 0
M  V30 3343 H 339.048 -3.03337 2.72856 0
M  V30 3344 H 337.723 -2.20303 3.5276 0
M  V30 3345 H 336.3 -3.16624 1.96987 0
M  V30 3346 N 338.485 -1.33259 -0.841409 0
M  V30 3347 C 339.448 -1.23221 -1.9326 0
M  V30 3348 C 340.448 -0.151895 -1.60081 0
M  V30 3349 O 341.638 -0.403246 -1.69468 0
M  V30 3350 C 338.77 -0.898123 -3.28856 0
M  V30 3351 H 339.963 -2.2021 -2.03587 0
M  V30 3352 H 337.516 -1.17281 -1.03319 0
M  V30 3353 H 338.251 0.0693841 -3.24226 0
M  V30 3354 H 338.036 -1.67934 -3.54317 0
M  V30 3355 H 339.526 -0.852563 -4.08805 0
M  V30 3356 N 339.963 1.05934 -1.16686 0
M  V30 3357 C 341.209 1.79065 -0.95203 0
M  V30 3358 C 341.542 1.87147 0.518629 0
M  V30 3359 O 340.817 1.36574 1.38484 0
M  V30 3360 C 341.1 3.23359 -1.58464 0
M  V30 3361 C 340.953 3.23336 -3.12689 0
M  V30 3362 C 342.272 4.21004 -1.28232 0
M  V30 3363 H 339.391 0.65005 -0.34728 0
M  V30 3364 H 342.033 1.23868 -1.44072 0
M  V30 3365 H 340.183 3.70493 -1.16908 0
M  V30 3366 H 341.855 2.84336 -3.6325 0
M  V30 3367 H 340.098 2.61886 -3.4583 0
M  V30 3368 H 340.769 4.25144 -3.52075 0
M  V30 3369 H 343.245 3.8233 -1.64203 0
M  V30 3370 H 342.121 5.20225 -1.75092 0
M  V30 3371 H 342.382 4.41639 -0.201791 0
M  V30 3372 N 341.441 0.965919 1.2453 0
M  V30 3373 C 342.351 0.502154 2.29163 0
M  V30 3374 C 343.367 -0.436017 1.68448 0
M  V30 3375 O 344.543 -0.309497 1.99008 0
M  V30 3376 C 341.608 -0.201956 3.46111 0
M  V30 3377 C 340.669 0.775821 4.22232 0
M  V30 3378 C 339.902 0.105217 5.33596 0
M  V30 3379 O 340.125 -1.10683 5.59558 0
M  V30 3380 O 339.059 0.796475 5.96607 0
M  V30 3381 H 342.885 1.37194 2.70946 0
M  V30 3382 H 340.47 0.732875 1.30189 0
M  V30 3383 H 342.352 -0.597564 4.17142 0
M  V30 3384 H 341.027 -1.04673 3.06309 0
M  V30 3385 H 339.934 1.22185 3.53584 0
M  V30 3386 H 341.267 1.58896 4.65846 0
M  V30 3387 N 342.919 -1.39368 0.735821 0
M  V30 3388 C 344.165 -2.01272 0.293439 0
M  V30 3389 C 344.52 -1.57344 -1.10728 0
M  V30 3390 O 343.813 -0.792744 -1.74431 0
M  V30 3391 C 344.007 -3.5583 0.334651 0
M  V30 3392 C 343.836 -4.14764 1.73784 0
M  V30 3393 C 342.606 -4.47315 2.35026 0
M  V30 3394 C 344.804 -4.38246 2.69157 0
M  V30 3395 N 342.786 -4.91756 3.6749 0
M  V30 3396 C 344.157 -4.849 3.86357 0
M  V30 3397 C 346.212 -4.20315 2.66908 0
M  V30 3398 C 344.915 -5.15505 5.01645 0
M  V30 3399 C 346.941 -4.52033 3.8134 0
M  V30 3400 C 346.303 -4.98895 4.97276 0
M  V30 3401 H 342.402 -0.766756 0.153652 0
M  V30 3402 H 344.986 -1.69276 0.961967 0
M  V30 3403 H 343.157 -3.87212 -0.303527 0
M  V30 3404 H 344.889 -4.04503 -0.126358 0
M  V30 3405 H 341.644 -4.35143 1.86943 0
M  V30 3406 H 342.068 -5.18333 4.35499 0
M  V30 3407 H 346.71 -3.83287 1.78468 0
M  V30 3408 H 344.428 -5.51437 5.90713 0
M  V30 3409 H 348.014 -4.39781 3.80899 0
M  V30 3410 H 346.894 -5.22973 5.84353 0
M  V30 3411 N 344.397 -0.483516 -1.5 0
M  V30 3412 C 345.36 0.292965 -2.2732 0
M  V30 3413 C 346.36 0.909499 -1.32608 0
M  V30 3414 O 347.55 0.776745 -1.55924 0
M  V30 3415 C 344.682 1.41854 -3.09984 0
M  V30 3416 H 345.875 -0.385289 -2.97415 0
M  V30 3417 H 343.428 -0.237942 -1.54478 0
M  V30 3418 H 344.163 2.13148 -2.44414 0
M  V30 3419 H 343.948 0.982114 -3.79601 0
M  V30 3420 H 345.438 1.96597 -3.68429 0
M  V30 3421 N 345.875 1.56104 -0.216619 0
M  V30 3422 C 347.291 1.58995 0.13886 0
M  V30 3423 C 347.491 1.23333 1.59346 0
M  V30 3424 O 346.547 0.966234 2.33281 0
M  V30 3425 C 347.86 3.00143 -0.182968 0
M  V30 3426 C 349.408 3.12751 -0.124807 0
M  V30 3427 C 349.883 4.56068 -0.420241 0
M  V30 3428 N 351.374 4.61723 -0.369634 0
M  V30 3429 C 352.109 5.70542 -0.571789 0
M  V30 3430 N 351.605 6.87744 -0.835453 0
M  V30 3431 N 353.398 5.59831 -0.504563 0
M  V30 3432 H 345.549 1.77562 -1.16557 0
M  V30 3433 H 347.812 0.825091 -0.466828 0
M  V30 3434 H 347.518 3.30871 -1.19237 0
M  V30 3435 H 347.392 3.73813 0.504367 0
M  V30 3436 H 349.779 2.81822 0.875223 0
M  V30 3437 H 349.86 2.41421 -0.845544 0
M  V30 3438 H 349.504 4.87713 -1.41769 0
M  V30 3439 H 349.434 5.25617 0.321631 0
M  V30 3440 H 351.925 3.77502 -0.173338 0
M  V30 3441 H 352.238 7.66587 -0.977938 0
M  V30 3442 H 350.583 6.895 -0.872592 0
M  V30 3443 H 353.774 4.67145 -0.298842 0
M  V30 3444 H 353.947 6.44573 -0.665519 0
M  V30 3445 N 347.353 -0.0568162 1.57498 0
M  V30 3446 C 348.301 -1.08452 2.05769 0
M  V30 3447 C 349.295 -1.39164 0.965903 0
M  V30 3448 O 350.501 -1.38395 1.15095 0
M  V30 3449 H 346.876 -0.367148 0.656282 0
M  V30 3450 H 348.847 -0.651368 2.91204 0
M  V30 3451 C 347.596 -2.38543 2.52968 0
M  V30 3452 H 346.919 -2.15765 3.36579 0
M  V30 3453 H 348.359 -3.08863 2.90481 0
M  V30 3454 C 346.818 -3.05562 1.41893 0
M  V30 3455 O 347.348 -3.94262 0.769442 0
M  V30 3456 N 345.554 -2.6643 1.16032 0
M  V30 3457 H 345.101 -1.94387 1.6903 0
M  V30 3458 H 345.059 -3.11593 0.419219 0
M  V30 3459 N 348.832 -1.54138 -0.328536 0
M  V30 3460 C 350.081 -1.71318 -1.06456 0
M  V30 3461 C 350.394 -0.491109 -1.89334 0
M  V30 3462 O 351.6 -0.54416 -2.65991 0
M  V30 3463 C 350.056 -3.03 -1.94214 0
M  V30 3464 C 349.664 -4.32595 -1.16471 0
M  V30 3465 C 351.408 -3.29544 -2.67583 0
M  V30 3466 C 349.315 -5.55341 -2.03347 0
M  V30 3467 H 348.245 -0.638429 -0.401155 0
M  V30 3468 H 350.896 -1.80633 -0.323106 0
M  V30 3469 H 349.278 -2.87579 -2.72239 0
M  V30 3470 H 350.452 -4.58766 -0.432525 0
M  V30 3471 H 348.767 -4.12777 -0.548063 0
M  V30 3472 H 351.364 -4.18444 -3.3288 0
M  V30 3473 H 351.707 -2.47206 -3.34955 0
M  V30 3474 H 352.24 -3.45809 -1.96623 0
M  V30 3475 H 348.979 -6.40268 -1.40491 0
M  V30 3476 H 348.499 -5.33397 -2.74313 0
M  V30 3477 H 350.178 -5.91557 -2.62049 0
M  V30 3478 N 350.31 0.590341 -1.46126 0
M  V30 3479 C 351.721 1.17243 -1.45296 0
M  V30 3480 C 352.072 1.95281 -0.189723 0
M  V30 3481 O 351.197 2.04502 0.707674 0
M  V30 3482 C 351.792 2.13284 -2.6324 0
M  V30 3483 C 350.351 2.66832 -2.65476 0
M  V30 3484 C 349.498 1.42557 -2.3785 0
M  V30 3485 H 352.449 0.378692 -1.54116 0
M  V30 3486 H 352.47 2.96619 -2.38323 0
M  V30 3487 H 351.982 1.56459 -3.55165 0
M  V30 3488 H 350.083 3.27548 -1.77603 0
M  V30 3489 H 350.196 3.10088 -3.65215 0
M  V30 3490 H 348.56 1.72107 -1.87753 0
M  V30 3491 H 349.343 0.875741 -3.31942 0
M  V30 3492 N 351.788 1.33704 0.83433 0
M  V30 3493 C 353.035 1.25417 1.58987 0
M  V30 3494 C 353.363 -0.178869 1.93676 0
M  V30 3495 O 352.618 -1.13723 1.59265 0
M  V30 3496 C 352.917 2.07926 2.90692 0
M  V30 3497 C 352.583 3.57066 2.75345 0
M  V30 3498 C 351.245 3.97724 2.70867 0
M  V30 3499 C 353.597 4.51817 2.59828 0
M  V30 3500 C 350.925 5.31344 2.48778 0
M  V30 3501 C 353.277 5.85604 2.39272 0
M  V30 3502 C 351.941 6.25439 2.33199 0
M  V30 3503 H 351.211 0.458934 0.581774 0
M  V30 3504 H 353.858 1.65335 0.966261 0
M  V30 3505 H 352.163 1.608 3.57282 0
M  V30 3506 H 353.86 1.98868 3.48213 0
M  V30 3507 H 350.45 3.24785 2.79665 0
M  V30 3508 H 354.634 4.21311 2.62319 0
M  V30 3509 H 349.89 5.61241 2.42526 0
M  V30 3510 H 354.064 6.58623 2.2625 0
M  V30 3511 H 351.691 7.28914 2.15843 0
M  V30 3512 N 353.266 -1.05314 1.17247 0
M  V30 3513 C 354.513 -1.78293 0.960091 0
M  V30 3514 C 354.841 -1.87658 -0.51136 0
M  V30 3515 O 354.096 -1.3718 -1.39571 0
M  V30 3516 C 354.395 -3.2229 1.54479 0
M  V30 3517 C 354.061 -3.32987 3.04024 0
M  V30 3518 C 352.723 -3.35613 3.44844 0
M  V30 3519 C 355.075 -3.34102 4.00031 0
M  V30 3520 C 352.403 -3.36982 4.8027 0
M  V30 3521 C 354.755 -3.3701 5.35357 0
M  V30 3522 C 353.419 -3.37923 5.75642 0
M  V30 3523 H 352.689 -0.652422 0.351322 0
M  V30 3524 H 355.336 -1.23782 1.46117 0
M  V30 3525 H 353.641 -3.7972 0.965391 0
M  V30 3526 H 355.338 -3.77376 1.35603 0
M  V30 3527 H 351.928 -3.31655 2.71483 0
M  V30 3528 H 356.112 -3.31276 3.69554 0
M  V30 3529 H 351.368 -3.35999 5.10798 0
M  V30 3530 H 355.542 -3.36822 6.09528 0
M  V30 3531 H 353.169 -3.38738 6.80559 0
M  V30 3532 N 354.744 -0.972509 -1.24016 0
M  V30 3533 C 356.155 -0.67517 -1.74064 0
M  V30 3534 C 356.506 0.808939 -1.78747 0
M  V30 3535 O 355.631 1.63286 -1.42009 0
M  V30 3536 C 356.226 -1.21889 -3.16115 0
M  V30 3537 C 354.785 -0.971358 -3.6365 0
M  V30 3538 C 353.932 -1.35134 -2.42145 0
M  V30 3539 H 356.883 -1.14727 -1.09651 0
M  V30 3540 H 356.904 -0.587489 -3.75937 0
M  V30 3541 H 356.416 -2.29906 -3.12674 0
M  V30 3542 H 354.517 0.0930686 -3.72484 0
M  V30 3543 H 354.63 -1.62039 -4.50866 0
M  V30 3544 H 352.994 -0.769751 -2.4279 0
M  V30 3545 H 353.777 -2.4411 -2.41381 0
M  V30 3546 N 356.222 1.38976 -0.743202 0
M  V30 3547 C 357.499 1.94351 -0.220705 0
M  V30 3548 C 357.879 1.67935 1.2791 0
M  V30 3549 O 357.227 1.01211 2.04862 0
M  V30 3550 C 357.437 3.44426 -0.563171 0
M  V30 3551 C 358.785 4.2144 -0.517046 0
M  V30 3552 O 359.809 3.52661 -0.500846 0
M  V30 3553 O 358.668 5.44032 -0.518806 0
M  V30 3554 H 355.762 0.825879 -0.043047 0
M  V30 3555 H 358.308 1.48429 -0.822618 0
M  V30 3556 H 357.08 3.5712 -1.59941 0
M  V30 3557 H 356.703 3.97543 0.0672883 0
M  V30 3558 N 357.7 0.491464 1.49741 0
M  V30 3559 C 358.63 -0.28154 2.31796 0
M  V30 3560 C 359.611 -0.971473 1.3963 0
M  V30 3561 O 360.796 -0.964719 1.68543 0
M  V30 3562 C 357.926 -1.35203 3.19902 0
M  V30 3563 C 356.88 -0.782529 4.20786 0
M  V30 3564 C 356.206 -1.95283 4.97764 0
M  V30 3565 C 357.506 0.21999 5.21837 0
M  V30 3566 H 359.2 0.403355 2.96671 0
M  V30 3567 H 356.746 0.195425 1.42668 0
M  V30 3568 H 358.699 -1.90045 3.76113 0
M  V30 3569 H 357.423 -2.06598 2.52953 0
M  V30 3570 H 356.082 -0.255928 3.65706 0
M  V30 3571 H 355.73 -2.65423 4.2727 0
M  V30 3572 H 355.43 -1.57789 5.66018 0
M  V30 3573 H 356.954 -2.50577 5.56816 0
M  V30 3574 H 358.368 -0.23996 5.72798 0
M  V30 3575 H 356.765 0.51026 5.97927 0
M  V30 3576 H 357.835 1.13911 4.7133 0
M  V30 3577 N 359.178 -1.55987 0.224894 0
M  V30 3578 C 360.11 -2.17722 -0.716224 0
M  V30 3579 C 361.123 -1.14723 -1.15509 0
M  V30 3580 O 362.312 -1.41688 -1.08567 0
M  V30 3581 C 359.412 -2.74873 -1.98238 0
M  V30 3582 C 358.585 -4.03074 -1.69853 0
M  V30 3583 C 357.644 -4.44757 -2.81208 0
M  V30 3584 O 356.67 -5.11587 -2.49534 0
M  V30 3585 N 357.872 -4.10716 -4.10235 0
M  V30 3586 H 360.637 -2.99109 -0.188123 0
M  V30 3587 H 358.198 -1.6184 0.0440123 0
M  V30 3588 H 360.19 -2.99727 -2.7193 0
M  V30 3589 H 358.76 -1.9777 -2.42086 0
M  V30 3590 H 357.98 -3.86041 -0.797875 0
M  V30 3591 H 359.268 -4.86701 -1.48324 0
M  V30 3592 H 358.666 -3.57019 -4.38809 0
M  V30 3593 H 357.223 -4.40455 -4.80461 0
M  V30 3594 N 360.656 0.0484629 -1.57525 0
M  V30 3595 C 361.905 0.742065 -1.87553 0
M  V30 3596 C 362.218 1.77545 -0.820802 0
M  V30 3597 O 363.424 2.52027 -1.00967 0
M  V30 3598 C 361.88 1.37081 -3.32771 0
M  V30 3599 C 361.488 0.374786 -4.4643 0
M  V30 3600 C 363.232 2.04542 -3.71972 0
M  V30 3601 C 361.139 1.01077 -5.82698 0
M  V30 3602 H 360.069 0.280903 -0.699721 0
M  V30 3603 H 362.72 -0.00411877 -1.835 0
M  V30 3604 H 361.102 2.16605 -3.31509 0
M  V30 3605 H 362.276 -0.392331 -4.59127 0
M  V30 3606 H 360.591 -0.196653 -4.15935 0
M  V30 3607 H 363.188 2.52943 -4.71088 0
M  V30 3608 H 363.531 2.85515 -3.02964 0
M  V30 3609 H 364.064 1.31819 -3.75325 0
M  V30 3610 H 360.803 0.240878 -6.55057 0
M  V30 3611 H 360.323 1.74819 -5.73758 0
M  V30 3612 H 362.002 1.52383 -6.28799 0
M  V30 3613 N 362.134 1.5431 0.320358 0
M  V30 3614 C 363.362 1.76636 1.07738 0
M  V30 3615 C 363.777 0.51649 1.81598 0
M  V30 3616 O 363.134 -0.512942 1.75143 0
M  V30 3617 C 363.185 2.96158 2.07299 0
M  V30 3618 O 362.906 4.16313 1.36438 0
M  V30 3619 C 364.407 3.3072 2.95193 0
M  V30 3620 H 361.627 0.589597 0.320339 0
M  V30 3621 H 364.171 2.01207 0.36551 0
M  V30 3622 H 362.326 2.73851 2.74016 0
M  V30 3623 H 362.74 4.83565 2.03138 0
M  V30 3624 H 364.214 4.17643 3.60941 0
M  V30 3625 H 364.691 2.48026 3.62463 0
M  V30 3626 H 365.297 3.55117 2.34034 0
M  V30 3627 N 363.613 -0.582584 1.46437 0
M  V30 3628 C 364.89 -1.34276 1.4223 0
M  V30 3629 C 365.27 -2.10835 0.10583 0
M  V30 3630 O 364.618 -2.09485 -0.912596 0
M  V30 3631 C 364.828 -2.26865 2.65204 0
M  V30 3632 C 366.176 -2.88691 3.11356 0
M  V30 3633 O 367.2 -2.37178 2.65753 0
M  V30 3634 O 366.059 -3.82255 3.90568 0
M  V30 3635 H 363.153 -0.603326 0.565621 0
M  V30 3636 H 365.699 -0.603591 1.58603 0
M  V30 3637 H 364.471 -1.69724 3.52576 0
M  V30 3638 H 364.094 -3.08122 2.5129 0
M  V30 3639 N 365.091 -1.34144 -0.827227 0
M  V30 3640 C 366.023 -1.21206 -1.9453 0
M  V30 3641 C 367.036 -0.140176 -1.62195 0
M  V30 3642 O 368.225 -0.391647 -1.7415 0
M  V30 3643 C 365.325 -0.839141 -3.28347 0
M  V30 3644 C 364.498 -2.0051 -3.88734 0
M  V30 3645 C 363.557 -1.61128 -5.00923 0
M  V30 3646 O 362.583 -2.32726 -5.19449 0
M  V30 3647 N 363.785 -0.522958 -5.7814 0
M  V30 3648 H 366.55 -2.17525 -2.06162 0
M  V30 3649 H 364.111 -1.27043 -1.00358 0
M  V30 3650 H 366.103 -0.557556 -4.00841 0
M  V30 3651 H 364.673 0.0337293 -3.12582 0
M  V30 3652 H 363.893 -2.45166 -3.08686 0
M  V30 3653 H 365.181 -2.78498 -4.25812 0
M  V30 3654 H 364.579 0.0723518 -5.65654 0
M  V30 3655 H 363.136 -0.301089 -6.51104 0
M  V30 3656 N 366.569 1.04691 -1.17803 0
M  V30 3657 C 367.815 1.78045 -0.970969 0
M  V30 3658 C 368.148 1.87686 0.498751 0
M  V30 3659 O 367.423 1.38035 1.37027 0
M  V30 3660 C 367.706 3.2166 -1.61884 0
M  V30 3661 C 367.559 3.20001 -3.161 0
M  V30 3662 C 368.878 4.1962 -1.3269 0
M  V30 3663 H 365.997 0.64633 -0.354155 0
M  V30 3664 H 368.639 1.22333 -1.45378 0
M  V30 3665 H 366.789 3.69232 -1.20831 0
M  V30 3666 H 368.461 2.80467 -3.66246 0
M  V30 3667 H 366.704 2.58203 -3.48588 0
M  V30 3668 H 367.375 4.21386 -3.56564 0
M  V30 3669 H 369.851 3.80567 -1.68249 0
M  V30 3670 H 368.727 5.18339 -1.80599 0
M  V30 3671 H 368.988 4.414 -0.248622 0
M  V30 3672 N 368.047 0.979072 1.23499 0
M  V30 3673 C 369.272 0.664845 1.96455 0
M  V30 3674 C 369.697 -0.761287 1.72006 0
M  V30 3675 O 369.055 -1.51837 0.990713 0
M  V30 3676 C 369.103 0.959479 3.47601 0
M  V30 3677 O 368.207 0.0508168 4.12369 0
M  V30 3678 H 367.548 0.250185 0.615064 0
M  V30 3679 H 370.078 1.31231 1.5697 0
M  V30 3680 H 370.088 0.895642 3.98048 0
M  V30 3681 H 368.763 1.99876 3.64723 0
M  V30 3682 H 367.34 0.16895 3.72517 0
M  V30 3683 N 369.525 -1.3858 0.750561 0
M  V30 3684 C 370.455 -2.33102 0.136237 0
M  V30 3685 C 371.436 -1.54713 -0.706965 0
M  V30 3686 O 372.621 -1.83043 -0.648769 0
M  V30 3687 C 369.751 -3.38882 -0.760017 0
M  V30 3688 C 368.705 -4.27995 -0.0197785 0
M  V30 3689 C 368.031 -5.24605 -1.03408 0
M  V30 3690 C 369.331 -5.09554 1.14684 0
M  V30 3691 H 371.025 -2.84726 0.925822 0
M  V30 3692 H 368.571 -1.36898 0.446654 0
M  V30 3693 H 370.524 -4.0397 -1.19943 0
M  V30 3694 H 369.248 -2.85734 -1.58189 0
M  V30 3695 H 367.907 -3.64409 0.400184 0
M  V30 3696 H 367.555 -4.67746 -1.84994 0
M  V30 3697 H 367.255 -5.85081 -0.543464 0
M  V30 3698 H 368.779 -5.9257 -1.47288 0
M  V30 3699 H 370.193 -5.67899 0.785118 0
M  V30 3700 H 368.59 -5.7925 1.56812 0
M  V30 3701 H 369.66 -4.4347 1.96118 0
M  V30 3702 N 371.003 -0.499398 -1.49478 0
M  V30 3703 C 371.933 0.269244 -2.31943 0
M  V30 3704 C 372.914 0.964054 -1.40143 0
M  V30 3705 O 374.099 0.955767 -1.69052 0
M  V30 3706 C 371.229 1.33504 -3.20615 0
M  V30 3707 C 370.183 0.760202 -4.21195 0
M  V30 3708 C 369.509 1.9264 -4.98792 0
M  V30 3709 C 370.809 -0.247661 -5.21712 0
M  V30 3710 H 372.503 -0.419082 -2.96452 0
M  V30 3711 H 370.049 -0.202988 -1.42562 0
M  V30 3712 H 372.002 1.88048 -3.77115 0
M  V30 3713 H 370.726 2.05253 -2.54045 0
M  V30 3714 H 369.385 0.23653 -3.65836 0
M  V30 3715 H 369.033 2.63154 -4.28671 0
M  V30 3716 H 368.733 1.54785 -5.66847 0
M  V30 3717 H 370.257 2.4762 -5.58137 0
M  V30 3718 H 371.671 0.209579 -5.72917 0
M  V30 3719 H 370.068 -0.541962 -5.97648 0
M  V30 3720 H 371.138 -1.16409 -4.7072 0
M  V30 3721 N 372.481 1.55866 -0.233164 0
M  V30 3722 C 373.897 1.59133 0.121988 0
M  V30 3723 C 374.097 1.25016 1.58029 0
M  V30 3724 O 373.153 0.990922 2.32243 0
M  V30 3725 C 374.466 2.99932 -0.214792 0
M  V30 3726 C 376.014 3.12601 -0.157971 0
M  V30 3727 C 376.489 4.55597 -0.46859 0
M  V30 3728 N 377.98 4.61305 -0.418585 0
M  V30 3729 C 378.715 5.69903 -0.63227 0
M  V30 3730 N 378.211 6.86819 -0.90835 0
M  V30 3731 N 380.004 5.59264 -0.563913 0
M  V30 3732 H 372.155 1.76315 -1.18434 0
M  V30 3733 H 374.418 0.820093 -0.475553 0
M  V30 3734 H 374.124 3.29588 -1.22739 0
M  V30 3735 H 373.998 3.74327 0.464691 0
M  V30 3736 H 376.385 2.82735 0.845283 0
M  V30 3737 H 376.466 2.40511 -0.871102 0
M  V30 3738 H 376.11 4.86182 -1.46934 0
M  V30 3739 H 376.04 5.25928 0.265865 0
M  V30 3740 H 378.531 3.77297 -0.213368 0
M  V30 3741 H 378.844 7.65507 -1.05919 0
M  V30 3742 H 377.189 6.88536 -0.945673 0
M  V30 3743 H 380.38 4.66802 -0.348372 0
M  V30 3744 H 380.553 6.43831 -0.733847 0
M  V30 3745 N 373.959 -0.0401083 1.57549 0
M  V30 3746 C 374.889 -1.04384 2.08869 0
M  V30 3747 C 375.87 -1.38407 0.988817 0
M  V30 3748 O 377.055 -1.47483 1.26342 0
M  V30 3749 C 374.185 -2.34808 2.55895 0
M  V30 3750 C 373.139 -2.15057 3.70047 0
M  V30 3751 C 372.465 -3.51145 4.03239 0
M  V30 3752 C 373.765 -1.54576 4.98902 0
M  V30 3753 H 375.459 -0.616666 2.92981 0
M  V30 3754 H 373.005 -0.295184 1.40942 0
M  V30 3755 H 374.958 -3.05346 2.90417 0
M  V30 3756 H 373.682 -2.79565 1.68853 0
M  V30 3757 H 372.341 -1.46954 3.35857 0
M  V30 3758 H 371.989 -3.93529 3.13279 0
M  V30 3759 H 371.689 -3.38758 4.80122 0
M  V30 3760 H 373.213 -4.23062 4.40285 0
M  V30 3761 H 374.627 -2.15017 5.31451 0
M  V30 3762 H 373.024 -1.52796 5.80322 0
M  V30 3763 H 374.094 -0.51039 4.82206 0
M  V30 3764 N 375.437 -1.54477 -0.31217 0
M  V30 3765 C 376.665 -1.77205 -1.068 0
M  V30 3766 C 377.08 -0.526114 -1.81321 0
M  V30 3767 O 376.437 0.503647 -1.75413 0
M  V30 3768 C 376.488 -2.97253 -2.05725 0
M  V30 3769 O 376.209 -4.1703 -1.34228 0
M  V30 3770 C 377.71 -3.32281 -2.93435 0
M  V30 3771 H 374.93 -0.591287 -0.317208 0
M  V30 3772 H 377.474 -2.01398 -0.354834 0
M  V30 3773 H 375.629 -2.753 -2.72559 0
M  V30 3774 H 376.043 -4.84636 -2.00571 0
M  V30 3775 H 377.517 -4.19551 -3.58721 0
M  V30 3776 H 377.994 -2.49945 -3.61143 0
M  V30 3777 H 378.6 -3.56353 -2.32147 0
M  V30 3778 N 376.915 0.57481 -1.46744 0
M  V30 3779 C 378.161 1.33251 -1.53674 0
M  V30 3780 C 378.516 1.91468 -0.189125 0
M  V30 3781 O 377.809 1.73954 0.803151 0
M  V30 3782 C 378.003 2.476 -2.57738 0
M  V30 3783 C 377.832 2.00586 -4.02487 0
M  V30 3784 C 376.602 1.85237 -4.70123 0
M  V30 3785 C 378.8 1.56078 -4.90045 0
M  V30 3786 N 376.782 1.32377 -5.99458 0
M  V30 3787 C 378.153 1.14863 -6.09267 0
M  V30 3788 C 380.208 1.43968 -4.76632 0
M  V30 3789 C 378.911 0.627435 -7.16558 0
M  V30 3790 C 380.937 0.932512 -5.84002 0
M  V30 3791 C 380.299 0.53019 -7.02402 0
M  V30 3792 H 376.398 0.480284 -0.617131 0
M  V30 3793 H 378.982 0.653592 -1.83402 0
M  V30 3794 H 377.153 3.13045 -2.29907 0
M  V30 3795 H 378.885 3.14567 -2.54616 0
M  V30 3796 H 375.64 2.07423 -4.25761 0
M  V30 3797 H 376.064 1.08085 -6.68316 0
M  V30 3798 H 380.706 1.73689 -3.85476 0
M  V30 3799 H 378.424 0.317821 -8.07475 0
M  V30 3800 H 382.01 0.842611 -5.75666 0
M  V30 3801 H 380.89 0.14381 -7.84068 0
M  V30 3802 N 378.394 1.34581 0.820102 0
M  V30 3803 C 379.619 1.30333 1.61332 0
M  V30 3804 C 380.044 -0.119339 1.87721 0
M  V30 3805 O 379.402 -1.08197 1.45475 0
M  V30 3806 C 379.45 2.10258 2.92957 0
M  V30 3807 O 378.554 1.47404 3.85157 0
M  V30 3808 H 377.895 0.447488 0.490561 0
M  V30 3809 H 380.425 1.77425 1.01889 0
M  V30 3810 H 380.435 2.21718 3.42498 0
M  V30 3811 H 379.11 3.13693 2.73074 0
M  V30 3812 H 377.687 1.44703 3.43679 0
M  V30 3813 N 379.872 -1.04064 1.18357 0
M  V30 3814 C 380.782 -2.15569 0.925596 0
M  V30 3815 C 381.798 -1.7365 -0.110295 0
M  V30 3816 O 382.974 -2.01273 0.0716218 0
M  V30 3817 C 380.039 -3.43704 0.454836 0
M  V30 3818 C 379.1 -4.00004 1.55869 0
M  V30 3819 C 378.333 -5.22023 1.1103 0
M  V30 3820 O 378.556 -5.70392 -0.0309756 0
M  V30 3821 O 377.49 -5.70856 1.90805 0
M  V30 3822 H 381.316 -2.40187 1.8586 0
M  V30 3823 H 378.901 -1.1402 0.965394 0
M  V30 3824 H 380.783 -4.20923 0.200382 0
M  V30 3825 H 379.458 -3.20559 -0.449876 0
M  V30 3826 H 378.365 -3.24172 1.86716 0
M  V30 3827 H 379.698 -4.2749 2.43953 0
M  V30 3828 N 381.35 -0.985608 -1.22978 0
M  V30 3829 C 382.28 -0.549649 -2.26939 0
M  V30 3830 C 383.261 0.419803 -1.64838 0
M  V30 3831 O 384.446 0.31203 -1.91677 0
M  V30 3832 C 381.576 0.143652 -3.47003 0
M  V30 3833 C 380.53 -0.743606 -4.21491 0
M  V30 3834 C 379.856 0.0822027 -5.34637 0
M  V30 3835 C 381.156 -2.03694 -4.80943 0
M  V30 3836 H 382.85 -1.41862 -2.63658 0
M  V30 3837 H 380.396 -0.683571 -1.26741 0
M  V30 3838 H 382.349 0.459985 -4.18882 0
M  V30 3839 H 381.073 1.04711 -3.09359 0
M  V30 3840 H 379.732 -1.04347 -3.51436 0
M  V30 3841 H 379.38 0.986359 -4.93234 0
M  V30 3842 H 379.08 -0.508377 -5.85397 0
M  V30 3843 H 380.604 0.392797 -6.09335 0
M  V30 3844 H 382.018 -1.78504 -5.44802 0
M  V30 3845 H 380.415 -2.57573 -5.42011 0
M  V30 3846 H 381.485 -2.72042 -4.01399 0
M  V30 3847 N 382.828 1.3818 -0.7579 0
M  V30 3848 C 384.075 2.00019 -0.315985 0
M  V30 3849 C 384.403 1.60163 1.10355 0
M  V30 3850 O 383.658 0.83264 1.77103 0
M  V30 3851 C 383.957 3.55252 -0.391218 0
M  V30 3852 C 383.623 4.14834 -1.76702 0
M  V30 3853 C 382.285 4.30821 -2.14353 0
M  V30 3854 C 384.637 4.47658 -2.66931 0
M  V30 3855 C 381.965 4.76928 -3.41696 0
M  V30 3856 C 384.317 4.95184 -3.93669 0
M  V30 3857 C 382.981 5.09377 -4.31383 0
M  V30 3858 H 382.251 0.731923 -0.115627 0
M  V30 3859 H 384.898 1.65161 -0.969223 0
M  V30 3860 H 383.203 3.90273 0.34558 0
M  V30 3861 H 384.9 4.00988 -0.030805 0
M  V30 3862 H 381.49 4.02808 -1.46435 0
M  V30 3863 H 385.674 4.34904 -2.39106 0
M  V30 3864 H 380.93 4.86103 -3.70829 0
M  V30 3865 H 385.104 5.19551 -4.63724 0
M  V30 3866 H 382.731 5.44865 -5.30119 0
M  V30 3867 N 384.306 0.507319 1.49211 0
M  V30 3868 C 385.552 -0.0350047 2.0277 0
M  V30 3869 C 385.885 -1.3606 1.38569 0
M  V30 3870 O 385.16 -1.87321 0.523542 0
M  V30 3871 C 385.443 -0.180916 3.59645 0
M  V30 3872 C 385.296 1.16825 4.34364 0
M  V30 3873 C 386.615 -0.918558 4.30407 0
M  V30 3874 H 383.734 -0.0112473 0.736914 0
M  V30 3875 H 386.376 0.659956 1.7817 0
M  V30 3876 H 384.526 -0.772826 3.80736 0
M  V30 3877 H 386.198 1.79952 4.24753 0
M  V30 3878 H 384.441 1.75594 3.96673 0
M  V30 3879 H 385.112 1.01939 5.42506 0
M  V30 3880 H 387.588 -0.41649 4.1401 0
M  V30 3881 H 386.464 -0.989505 5.39907 0
M  V30 3882 H 386.725 -1.96373 3.96093 0
M  V30 3883 N 385.784 -1.5574 0.241426 0
M  V30 3884 C 386.714 -2.24133 -0.654722 0
M  V30 3885 C 387.695 -1.21974 -1.1856 0
M  V30 3886 O 388.88 -1.50612 -1.22595 0
M  V30 3887 C 386.01 -2.93659 -1.85423 0
M  V30 3888 C 384.964 -4.0246 -1.45636 0
M  V30 3889 C 384.29 -4.59383 -2.73626 0
M  V30 3890 C 385.59 -5.18468 -0.631506 0
M  V30 3891 H 387.284 -2.99281 -0.0844353 0
M  V30 3892 H 384.83 -1.43947 -0.0391707 0
M  V30 3893 H 386.783 -3.40203 -2.48676 0
M  V30 3894 H 385.507 -2.15991 -2.44981 0
M  V30 3895 H 384.166 -3.56676 -0.847202 0
M  V30 3896 H 383.814 -3.78422 -3.3137 0
M  V30 3897 H 383.514 -5.32826 -2.4773 0
M  V30 3898 H 385.038 -5.08658 -3.37786 0
M  V30 3899 H 386.452 -5.61272 -1.1682 0
M  V30 3900 H 384.849 -5.98266 -0.468831 0
M  V30 3901 H 385.919 -4.8358 0.357506 0
M  V30 3902 N 387.262 0.0317525 -1.57568 0
M  V30 3903 C 388.21 1.05165 -2.07468 0
M  V30 3904 C 389.204 1.3761 -0.98792 0
M  V30 3905 O 390.41 1.36546 -1.17282 0
M  V30 3906 H 386.785 0.35666 -0.66204 0
M  V30 3907 H 388.756 0.604958 -2.92203 0
M  V30 3908 C 387.505 2.34488 -2.56731 0
M  V30 3909 H 386.828 2.10383 -3.39969 0
M  V30 3910 H 388.268 3.04203 -2.95358 0
M  V30 3911 C 386.727 3.03266 -1.46736 0
M  V30 3912 O 387.257 3.92988 -0.832069 0
M  V30 3913 N 385.463 2.6455 -1.20256 0
M  V30 3914 H 385.01 1.91674 -1.72102 0
M  V30 3915 H 384.968 3.10886 -0.468737 0
M  V30 3916 N 388.74 1.54641 0.303973 0
M  V30 3917 C 389.703 1.84646 1.35789 0
M  V30 3918 C 390.703 0.7192 1.4382 0
M  V30 3919 O 391.893 0.987491 1.43507 0
M  V30 3920 C 389.025 2.02407 2.74307 0
M  V30 3921 H 390.218 2.78829 1.10429 0
M  V30 3922 H 387.771 1.46658 0.540487 0
M  V30 3923 H 388.506 1.10502 3.04893 0
M  V30 3924 H 388.291 2.84453 2.69868 0
M  V30 3925 H 389.781 2.27002 3.50514 0
M  V30 3926 N 390.218 -0.567019 1.47046 0
M  V30 3927 C 391.181 -1.65696 1.58359 0
M  V30 3928 C 392.181 -1.54097 0.459441 0
M  V30 3929 O 393.371 -1.58432 0.724225 0
M  V30 3930 C 390.503 -3.05197 1.51879 0
M  V30 3931 H 391.696 -1.57019 2.5551 0
M  V30 3932 H 389.249 -0.786148 1.3509 0
M  V30 3933 H 389.984 -3.19417 0.560673 0
M  V30 3934 H 389.769 -3.15025 2.33455 0
M  V30 3935 H 391.259 -3.84511 1.62913 0
M  V30 3936 N 391.696 -1.35014 -0.812953 0
M  V30 3937 C 392.628 -1.23262 -1.93233 0
M  V30 3938 C 393.641 -0.157371 -1.62038 0
M  V30 3939 O 394.83 -0.410096 -1.73725 0
M  V30 3940 C 391.93 -0.87392 -3.27438 0
M  V30 3941 C 391.103 -2.04622 -3.86586 0
M  V30 3942 C 390.162 -1.66432 -4.99186 0
M  V30 3943 O 389.188 -2.38222 -5.16951 0
M  V30 3944 N 390.39 -0.584248 -5.77552 0
M  V30 3945 H 393.155 -2.19699 -2.03844 0
M  V30 3946 H 390.716 -1.281 -0.99005 0
M  V30 3947 H 392.708 -0.600039 -4.00227 0
M  V30 3948 H 391.278 0.00057392 -3.126 0
M  V30 3949 H 390.498 -2.48427 -3.06068 0
M  V30 3950 H 391.786 -2.82999 -4.22835 0
M  V30 3951 H 391.184 0.0123526 -5.65699 0
M  V30 3952 H 389.741 -0.37013 -6.50748 0
M  V30 3953 N 393.175 1.03435 -1.18907 0
M  V30 3954 C 394.415 1.78302 -0.999391 0
M  V30 3955 C 394.779 1.86353 0.462219 0
M  V30 3956 O 395.98 2.57489 0.771543 0
M  V30 3957 C 394.251 3.17362 -1.64365 0
M  V30 3958 S 395.81 4.08488 -1.6026 0
M  V30 3959 H 392.628 0.613861 -0.358742 0
M  V30 3960 H 395.23 1.23979 -1.51161 0
M  V30 3961 H 393.934 3.09116 -2.69955 0
M  V30 3962 H 393.465 3.76762 -1.13199 0
M  V30 3963 H 395.48 4.92274 -0.622932 0
M  V30 3964 N 394.653 0.992116 1.22453 0
M  V30 3965 C 395.878 0.685644 1.95739 0
M  V30 3966 C 396.303 -0.743 1.72804 0
M  V30 3967 O 395.661 -1.50778 1.00676 0
M  V30 3968 C 395.709 0.996293 3.46564 0
M  V30 3969 O 394.813 0.0945512 4.12292 0
M  V30 3970 H 394.154 0.256694 0.612376 0
M  V30 3971 H 396.684 1.32888 1.5557 0
M  V30 3972 H 396.694 0.93781 3.97076 0
M  V30 3973 H 395.369 2.03733 3.62582 0
M  V30 3974 H 393.946 0.208451 3.72317 0
M  V30 3975 N 396.131 -1.37776 0.765217 0
M  V30 3976 C 397.064 -2.28008 0.0935025 0
M  V30 3977 C 398.042 -1.45985 -0.716047 0
M  V30 3978 O 399.226 -1.75331 -0.692203 0
M  V30 3979 C 396.353 -3.27228 -0.874052 0
M  V30 3980 C 395.399 -4.26239 -0.149307 0
M  V30 3981 S 396.232 -5.22827 1.15809 0
M  V30 3982 C 397.388 -6.256 0.193906 0
M  V30 3983 H 397.621 -2.84631 0.858637 0
M  V30 3984 H 395.154 -1.43952 0.558313 0
M  V30 3985 H 397.112 -3.84902 -1.42691 0
M  V30 3986 H 395.773 -2.69565 -1.61225 0
M  V30 3987 H 394.966 -4.96213 -0.88254 0
M  V30 3988 H 394.568 -3.7252 0.332366 0
M  V30 3989 H 396.86 -6.74508 -0.636011 0
M  V30 3990 H 397.803 -7.02838 0.861638 0
M  V30 3991 H 398.211 -5.64173 -0.191975 0
M  V30 3992 N 397.609 -0.515225 -1.4894 0
M  V30 3993 C 399.02 -0.0710067 -1.86565 0
M  V30 3994 C 399.371 1.34733 -1.42623 0
M  V30 3995 O 398.496 2.00653 -0.810379 0
M  V30 3996 C 399.091 -0.122083 -3.3858 0
M  V30 3997 C 397.65 0.266863 -3.75453 0
M  V30 3998 C 396.797 -0.488376 -2.72966 0
M  V30 3999 H 399.748 -0.727266 -1.41055 0
M  V30 4000 H 399.769 0.669818 -3.74558 0
M  V30 4001 H 399.281 -1.15448 -3.70531 0
M  V30 4002 H 397.382 1.30196 -3.49113 0
M  V30 4003 H 397.495 -0.0624811 -4.79059 0
M  V30 4004 H 395.859 0.0635622 -2.54621 0
M  V30 4005 H 396.642 -1.52113 -3.07761 0
M  V30 4006 N 399.087 1.5561 -0.249682 0
M  V30 4007 C 400.017 2.24477 0.642826 0
M  V30 4008 C 400.998 1.22601 1.17911 0
M  V30 4009 O 402.183 1.5126 1.21795 0
M  V30 4010 C 399.313 2.94638 1.83863 0
M  V30 4011 C 398.267 4.03227 1.435 0
M  V30 4012 C 397.593 4.60828 2.71186 0
M  V30 4013 C 398.893 5.18796 0.604002 0
M  V30 4014 H 400.587 2.99321 0.0685625 0
M  V30 4015 H 398.133 1.43965 0.0315363 0
M  V30 4016 H 400.086 3.41517 2.46868 0
M  V30 4017 H 398.81 2.17287 2.43832 0
M  V30 4018 H 397.469 3.57121 0.828275 0
M  V30 4019 H 397.117 3.80174 3.29358 0
M  V30 4020 H 396.817 5.34132 2.44901 0
M  V30 4021 H 398.341 5.10442 3.35084 0
M  V30 4022 H 399.755 5.61883 1.13842 0
M  V30 4023 H 398.152 5.98506 0.437097 0
M  V30 4024 H 399.222 4.83384 -0.383147 0
M  V30 4025 N 400.565 -0.0233959 1.57583 0
M  V30 4026 C 401.515 -1.03023 2.03397 0
M  V30 4027 C 402.499 -1.31701 0.924315 0
M  V30 4028 O 403.691 -1.31191 1.18819 0
M  V30 4029 C 400.82 -2.32961 2.52159 0
M  V30 4030 C 399.906 -2.07349 3.69956 0
M  V30 4031 N 400.297 -1.51814 4.82479 0
M  V30 4032 C 398.595 -2.37606 3.77438 0
M  V30 4033 C 399.296 -1.42136 5.64068 0
M  V30 4034 N 398.272 -1.89891 5.09355 0
M  V30 4035 H 402.074 -0.594962 2.87815 0
M  V30 4036 H 399.588 -0.229586 1.60769 0
M  V30 4037 H 401.585 -3.05906 2.83244 0
M  V30 4038 H 400.245 -2.77162 1.69149 0
M  V30 4039 H 401.256 -1.20008 5.03804 0
M  V30 4040 H 397.933 -2.84842 3.05239 0
M  V30 4041 H 399.323 -0.996405 6.64471 0
M  V30 4042 N 402.043 -1.548 -0.295768 0
M  V30 4043 C 403.289 -1.74588 -1.03184 0
M  V30 4044 C 403.622 -0.532962 -1.86744 0
M  V30 4045 O 402.897 0.469872 -1.88739 0
M  V30 4046 C 403.18 -3.03791 -1.93347 0
M  V30 4047 C 403.033 -4.35392 -1.12933 0
M  V30 4048 C 404.352 -3.28892 -2.92435 0
M  V30 4049 H 401.471 -0.635221 -0.373715 0
M  V30 4050 H 404.113 -1.87519 -0.30606 0
M  V30 4051 H 402.263 -2.92898 -2.55232 0
M  V30 4052 H 403.935 -4.58211 -0.532943 0
M  V30 4053 H 402.178 -4.31642 -0.432168 0
M  V30 4054 H 402.849 -5.22074 -1.79284 0
M  V30 4055 H 405.325 -3.39429 -2.4068 0
M  V30 4056 H 404.201 -4.20603 -3.52682 0
M  V30 4057 H 404.462 -2.47437 -3.6637 0
M  V30 4058 N 403.521 0.559213 -1.47345 0
M  V30 4059 C 404.484 1.64854 -1.59235 0
M  V30 4060 C 405.484 1.53851 -0.467607 0
M  V30 4061 O 406.674 1.58045 -0.732617 0
M  V30 4062 C 403.806 3.04388 -1.53496 0
M  V30 4063 H 404.999 1.55662 -2.56339 0
M  V30 4064 H 402.552 0.778973 -1.35505 0
M  V30 4065 H 403.287 3.19115 -0.577604 0
M  V30 4066 H 403.072 3.13783 -2.35123 0
M  V30 4067 H 404.562 3.83642 -1.6495 0
M  V30 4068 N 404.999 1.35443 0.805782 0
M  V30 4069 C 406.41 1.25768 1.37983 0
M  V30 4070 C 406.761 -0.10958 1.95894 0
M  V30 4071 O 405.886 -1.01056 1.91355 0
M  V30 4072 C 406.481 2.27727 2.5085 0
M  V30 4073 C 405.04 2.2179 3.04115 0
M  V30 4074 C 404.187 2.13393 1.77084 0
M  V30 4075 H 407.138 1.4656 0.608752 0
M  V30 4076 H 407.159 1.90422 3.29424 0
M  V30 4077 H 406.671 3.27227 2.08671 0
M  V30 4078 H 404.772 1.25703 3.50756 0
M  V30 4079 H 404.885 3.13788 3.62042 0
M  V30 4080 H 403.249 1.59384 1.98668 0
M  V30 4081 H 404.032 3.14755 1.37056 0
M  V30 4082 N 406.477 -1.02803 1.19454 0
M  V30 4083 C 407.407 -2.12999 0.956758 0
M  V30 4084 C 408.388 -1.69743 -0.110188 0
M  V30 4085 O 409.573 -1.94148 0.0450038 0
M  V30 4086 C 406.703 -3.43746 0.495553 0
M  V30 4087 C 405.657 -4.00688 1.50443 0
M  V30 4088 C 404.983 -5.27067 0.900275 0
M  V30 4089 C 406.283 -4.35397 2.8849 0
M  V30 4090 H 407.977 -2.33148 1.87836 0
M  V30 4091 H 405.523 -1.12045 0.904539 0
M  V30 4092 H 407.476 -4.2021 0.316493 0
M  V30 4093 H 406.2 -3.23321 -0.461646 0
M  V30 4094 H 404.859 -3.2632 1.67065 0
M  V30 4095 H 404.507 -5.02959 -0.064503 0
M  V30 4096 H 404.207 -5.66127 1.57397 0
M  V30 4097 H 405.731 -6.06196 0.73203 0
M  V30 4098 H 407.145 -5.02795 2.75446 0
M  V30 4099 H 405.542 -4.85541 3.52661 0
M  V30 4100 H 406.612 -3.44662 3.41081 0
M  V30 4101 N 407.956 -0.998596 -1.21925 0
M  V30 4102 C 408.886 -0.573688 -2.26343 0
M  V30 4103 C 409.867 0.402296 -1.65274 0
M  V30 4104 O 411.052 0.291683 -1.91997 0
M  V30 4105 C 408.182 0.106839 -3.47136 0
M  V30 4106 C 407.136 -0.788269 -4.20678 0
M  V30 4107 C 406.462 0.0254927 -5.34694 0
M  V30 4108 C 407.762 -2.08784 -4.78755 0
M  V30 4109 H 409.456 -1.44651 -2.62138 0
M  V30 4110 H 407.002 -0.696975 -1.26009 0
M  V30 4111 H 408.955 0.415531 -4.19346 0
M  V30 4112 H 407.679 1.01424 -3.10452 0
M  V30 4113 H 406.338 -1.08069 -3.50309 0
M  V30 4114 H 405.986 0.933989 -4.94253 0
M  V30 4115 H 405.686 -0.570437 -5.84825 0
M  V30 4116 H 407.21 0.328147 -6.09718 0
M  V30 4117 H 408.624 -1.84272 -5.42878 0
M  V30 4118 H 407.021 -2.63307 -5.39249 0
M  V30 4119 H 408.091 -2.76284 -3.98491 0
M  V30 4120 N 409.434 1.37368 -0.772513 0
M  V30 4121 C 410.397 2.28601 -0.165541 0
M  V30 4122 C 411.397 1.48062 0.627238 0
M  V30 4123 O 412.587 1.68268 0.450715 0
M  V30 4124 C 409.719 3.32023 0.772897 0
M  V30 4125 H 410.912 2.83787 -0.969787 0
M  V30 4126 H 408.465 1.46647 -0.540775 0
M  V30 4127 H 409.2 2.81962 1.60212 0
M  V30 4128 H 408.985 3.91555 0.206585 0
M  V30 4129 H 410.475 4.00197 1.19298 0
M  V30 4130 N 410.912 0.523116 1.48665 0
M  V30 4131 C 411.875 -0.232592 2.28017 0
M  V30 4132 C 412.875 -0.874021 1.34972 0
M  V30 4133 O 414.065 -0.735132 1.57929 0
M  V30 4134 C 411.197 -1.33586 3.13636 0
M  V30 4135 H 412.39 0.464008 2.96289 0
M  V30 4136 H 409.943 0.278816 1.53793 0
M  V30 4137 H 410.678 -2.06593 2.4998 0
M  V30 4138 H 410.463 -0.881125 3.82071 0
M  V30 4139 H 411.953 -1.86759 3.73511 0
M  V30 4140 N 412.39 -1.55475 0.257931 0
M  V30 4141 C 413.353 -2.20551 -0.623706 0
M  V30 4142 C 414.353 -1.17809 -1.09443 0
M  V30 4143 O 415.543 -1.42823 -0.997362 0
M  V30 4144 C 412.675 -2.85784 -1.8585 0
M  V30 4145 H 413.868 -2.99848 -0.0557743 0
M  V30 4146 H 411.421 -1.56298 0.0084422 0
M  V30 4147 H 412.156 -2.10453 -2.46739 0
M  V30 4148 H 411.941 -3.61057 -1.52907 0
M  V30 4149 H 413.431 -3.35553 -2.48584 0
M  V30 4150 N 413.868 0.0150385 -1.57593 0
M  V30 4151 C 415.116 0.701613 -1.8953 0
M  V30 4152 C 415.437 1.75139 -0.857396 0
M  V30 4153 O 414.707 1.95607 0.107194 0
M  V30 4154 H 413.287 0.26213 -0.699498 0
M  V30 4155 H 415.949 -0.0223304 -1.94887 0
M  V30 4156 H 415.045 1.18236 -2.88837 0
M  V30 4157 N 415.346 1.54954 0.287554 0
M  V30 4158 C 416.276 1.89839 1.35954 0
M  V30 4159 C 417.257 0.758675 1.52244 0
M  V30 4160 O 418.442 1.01557 1.65529 0
M  V30 4161 C 415.572 2.15753 2.72154 0
M  V30 4162 C 414.526 3.3159 2.70614 0
M  V30 4163 C 413.852 3.42952 4.10229 0
M  V30 4164 C 415.152 4.68359 2.31165 0
M  V30 4165 H 416.846 2.79625 1.07007 0
M  V30 4166 H 414.392 1.3454 0.513316 0
M  V30 4167 H 416.345 2.38743 3.47246 0
M  V30 4168 H 415.069 1.22752 3.02654 0
M  V30 4169 H 413.728 3.08545 1.97979 0
M  V30 4170 H 413.376 2.47443 4.37928 0
M  V30 4171 H 413.076 4.20826 4.10097 0
M  V30 4172 H 414.6 3.68218 4.87081 0
M  V30 4173 H 416.014 4.9099 2.95976 0
M  V30 4174 H 414.411 5.49044 2.42221 0
M  V30 4175 H 415.481 4.68165 1.26291 0
M  V30 4176 N 416.824 -0.551391 1.4764 0
M  V30 4177 C 417.774 -1.65362 1.56969 0
M  V30 4178 C 418.758 -1.55098 0.428189 0
M  V30 4179 O 419.95 -1.63481 0.678441 0
M  V30 4180 C 417.079 -3.04129 1.59249 0
M  V30 4181 C 416.165 -3.19576 2.78804 0
M  V30 4182 N 416.556 -3.05067 4.03445 0
M  V30 4183 C 414.854 -3.50588 2.75688 0
M  V30 4184 C 415.555 -3.2336 4.83543 0
M  V30 4185 N 414.531 -3.4996 4.15968 0
M  V30 4186 H 418.333 -1.52722 2.51104 0
M  V30 4187 H 415.847 -0.756303 1.43714 0
M  V30 4188 H 417.844 -3.83278 1.64024 0
M  V30 4189 H 416.504 -3.17877 0.662148 0
M  V30 4190 H 417.515 -2.82273 4.34215 0
M  V30 4191 H 414.192 -3.70827 1.91817 0
M  V30 4192 H 415.582 -3.17061 5.92387 0
M  V30 4193 N 418.302 -1.35869 -0.798587 0
M  V30 4194 C 419.265 -1.29307 -1.89242 0
M  V30 4195 C 420.265 -0.202747 -1.59517 0
M  V30 4196 O 421.455 -0.456957 -1.681 0
M  V30 4197 C 418.587 -1.00229 -3.25833 0
M  V30 4198 H 419.78 -2.26576 -1.96478 0
M  V30 4199 H 417.333 -1.20509 -0.995358 0
M  V30 4200 H 418.068 -0.033801 -3.24282 0
M  V30 4201 H 417.853 -1.79121 -3.48795 0
M  V30 4202 H 419.343 -0.98219 -4.05885 0
M  V30 4203 N 419.78 1.02168 -1.19998 0
M  V30 4204 C 421.005 1.79833 -1.03319 0
M  V30 4205 C 421.43 1.83504 0.413281 0
M  V30 4206 O 420.788 1.26635 1.29743 0
M  V30 4207 C 420.836 3.22396 -1.61533 0
M  V30 4208 O 419.94 4.03555 -0.849519 0
M  V30 4209 H 419.281 0.554872 -0.364709 0
M  V30 4210 H 421.811 1.28542 -1.59179 0
M  V30 4211 H 421.821 3.73124 -1.65054 0
M  V30 4212 H 420.496 3.19039 -2.66809 0
M  V30 4213 H 419.073 3.62169 -0.888129 0
M  V30 4214 N 421.258 1.00505 1.21394 0
M  V30 4215 C 422.669 0.721082 1.72213 0
M  V30 4216 C 423.02 -0.761263 1.80829 0
M  V30 4217 O 422.145 -1.59464 1.46288 0
M  V30 4218 C 422.74 1.30228 3.12772 0
M  V30 4219 C 421.299 1.06743 3.60947 0
M  V30 4220 C 420.446 1.41507 2.38477 0
M  V30 4221 H 423.397 1.17594 1.06571 0
M  V30 4222 H 423.418 0.686955 3.74247 0
M  V30 4223 H 422.93 2.38115 3.06468 0
M  V30 4224 H 421.031 0.00572162 3.726 0
M  V30 4225 H 421.144 1.73936 4.46411 0
M  V30 4226 H 419.508 0.833852 2.40664 0
M  V30 4227 H 420.291 2.50424 2.34824 0
M  V30 4228 N 422.737 -1.36956 0.779787 0
M  V30 4229 C 423.67 -2.27896 0.117681 0
M  V30 4230 C 424.648 -1.46736 -0.700523 0
M  V30 4231 O 425.832 -1.76055 -0.673568 0
M  V30 4232 C 422.959 -3.28136 -0.839296 0
M  V30 4233 C 422.005 -4.26373 -0.10409 0
M  V30 4234 S 422.838 -5.2157 1.21348 0
M  V30 4235 C 423.994 -6.25359 0.260249 0
M  V30 4236 H 424.227 -2.83704 0.888778 0
M  V30 4237 H 421.76 -1.43352 0.57355 0
M  V30 4238 H 423.718 -3.86394 -1.38601 0
M  V30 4239 H 422.379 -2.7126 -1.58356 0
M  V30 4240 H 421.572 -4.97121 -0.82986 0
M  V30 4241 H 421.174 -3.72147 0.371858 0
M  V30 4242 H 423.466 -6.75145 -0.564435 0
M  V30 4243 H 424.409 -7.01885 0.936135 0
M  V30 4244 H 424.817 -5.64345 -0.132127 0
M  V30 4245 N 424.215 -0.530993 -1.48385 0
M  V30 4246 C 425.44 0.000729535 -2.074 0
M  V30 4247 C 425.865 1.27298 -1.3848 0
M  V30 4248 O 425.223 1.75599 -0.451081 0
M  V30 4249 C 425.271 0.206697 -3.60007 0
M  V30 4250 O 424.375 1.27514 -3.92191 0
M  V30 4251 H 423.716 -0.039583 -0.662819 0
M  V30 4252 H 426.246 -0.739194 -1.9078 0
M  V30 4253 H 426.256 0.42904 -4.05738 0
M  V30 4254 H 424.931 -0.722675 -4.09573 0
M  V30 4255 H 423.508 1.03537 -3.58238 0
M  V30 4256 N 425.693 1.55336 -0.266172 0
M  V30 4257 C 426.656 2.20878 0.612001 0
M  V30 4258 C 427.656 1.18388 1.08816 0
M  V30 4259 O 428.846 1.4335 0.989774 0
M  V30 4260 C 425.978 2.86765 1.84332 0
M  V30 4261 H 427.171 2.99873 0.0398718 0
M  V30 4262 H 424.724 1.56291 -0.0167309 0
M  V30 4263 H 425.459 2.11759 2.45619 0
M  V30 4264 H 425.244 3.61862 1.5099 0
M  V30 4265 H 426.734 3.36867 2.46801 0
M  V30 4266 N 427.171 -0.0066808 1.57599 0
M  V30 4267 C 428.448 -0.729586 1.81484 0
M  V30 4268 C 428.828 -1.92359 0.869558 0
M  V30 4269 O 428.176 -2.28348 -0.0832533 0
M  V30 4270 C 428.386 -1.1416 3.29801 0
M  V30 4271 C 429.734 -1.54823 3.95367 0
M  V30 4272 O 430.758 -1.23558 3.34084 0
M  V30 4273 O 429.617 -2.12937 5.03309 0
M  V30 4274 H 426.711 -0.354674 0.747085 0
M  V30 4275 H 429.257 0.0182609 1.6969 0
M  V30 4276 H 428.029 -0.290231 3.90222 0
M  V30 4277 H 427.652 -1.94876 3.46568 0
M  V30 4278 N 428.649 -1.55105 -0.279332 0
M  V30 4279 C 430.065 -1.46803 -0.626187 0
M  V30 4280 C 430.265 -0.676939 -1.89789 0
M  V30 4281 O 429.321 -0.19326 -2.51759 0
M  V30 4282 C 430.634 -2.90962 -0.759034 0
M  V30 4283 C 432.182 -3.01138 -0.853504 0
M  V30 4284 C 432.657 -4.46539 -1.01818 0
M  V30 4285 N 434.148 -4.50341 -1.08386 0
M  V30 4286 C 434.883 -5.60053 -1.22996 0
M  V30 4287 N 434.379 -6.79645 -1.34366 0
M  V30 4288 N 436.172 -5.47783 -1.26056 0
M  V30 4289 H 428.323 -2.04996 0.555921 0
M  V30 4290 H 430.586 -0.929325 0.187239 0
M  V30 4291 H 430.292 -3.51544 0.104852 0
M  V30 4292 H 430.166 -3.39619 -1.64131 0
M  V30 4293 H 432.553 -2.40658 -1.70786 0
M  V30 4294 H 432.634 -2.55745 0.0532466 0
M  V30 4295 H 432.278 -5.0762 -0.168504 0
M  V30 4296 H 432.208 -4.89583 -1.93948 0
M  V30 4297 H 434.699 -3.64191 -1.00864 0
M  V30 4298 H 435.012 -7.59012 -1.4533 0
M  V30 4299 H 433.357 -6.82469 -1.31382 0
M  V30 4300 H 436.548 -4.53294 -1.168 0
M  V30 4301 H 436.721 -6.33331 -1.37098 0
M  V30 4302 N 430.127 0.543554 -1.4793 0
M  V30 4303 C 431.373 1.30201 -1.55485 0
M  V30 4304 C 431.706 1.92925 -0.222201 0
M  V30 4305 O 430.981 1.78586 0.77053 0
M  V30 4306 C 431.264 2.40174 -2.68307 0
M  V30 4307 C 431.117 1.8223 -4.11233 0
M  V30 4308 C 432.436 3.42024 -2.76961 0
M  V30 4309 H 429.555 0.472036 -0.565996 0
M  V30 4310 H 432.197 0.606914 -1.80046 0
M  V30 4311 H 430.347 2.99463 -2.47495 0
M  V30 4312 H 432.019 1.27096 -4.43446 0
M  V30 4313 H 430.262 1.12832 -4.18869 0
M  V30 4314 H 430.933 2.61793 -4.85972 0
M  V30 4315 H 433.409 2.92672 -2.95774 0
M  V30 4316 H 432.285 4.16383 -3.57654 0
M  V30 4317 H 432.546 4.0173 -1.84568 0
M  V30 4318 N 431.605 1.3629 0.791371 0
M  V30 4319 C 432.851 1.30605 1.55146 0
M  V30 4320 C 433.184 -0.115042 1.93859 0
M  V30 4321 O 432.459 -1.06798 1.62556 0
M  V30 4322 C 432.742 2.22692 2.82985 0
M  V30 4323 C 432.595 3.73489 2.50651 0
M  V30 4324 C 433.914 2.13588 3.84796 0
M  V30 4325 H 431.033 0.475761 0.562868 0
M  V30 4326 H 433.675 1.66825 0.909358 0
M  V30 4327 H 431.825 1.91933 3.37778 0
M  V30 4328 H 433.497 4.14758 2.01924 0
M  V30 4329 H 431.74 3.93021 1.83622 0
M  V30 4330 H 432.411 4.3333 3.41949 0
M  V30 4331 H 434.887 2.40659 3.39445 0
M  V30 4332 H 433.763 2.80195 4.71998 0
M  V30 4333 H 434.024 1.12256 4.27611 0
M  V30 4334 N 433.083 -1.0153 1.20538 0
M  V30 4335 C 434.046 -2.0826 0.957098 0
M  V30 4336 C 435.046 -1.60657 -0.0678655 0
M  V30 4337 O 436.236 -1.73385 0.168332 0
M  V30 4338 C 433.368 -3.38033 0.441188 0
M  V30 4339 H 434.561 -2.31719 1.90384 0
M  V30 4340 H 432.114 -1.1835 1.02093 0
M  V30 4341 H 432.849 -3.20249 -0.510961 0
M  V30 4342 H 432.634 -3.73911 1.18038 0
M  V30 4343 H 434.124 -4.16613 0.287009 0
M  V30 4344 N 434.561 -1.01147 -1.20859 0
M  V30 4345 C 435.808 -0.697865 -1.90095 0
M  V30 4346 C 436.136 0.772014 -1.78522 0
M  V30 4347 O 435.391 1.57595 -1.16027 0
M  V30 4348 C 435.69 -1.0727 -3.40922 0
M  V30 4349 C 435.356 -2.53792 -3.72693 0
M  V30 4350 C 434.018 -2.93829 -3.81075 0
M  V30 4351 C 436.37 -3.48674 -3.87397 0
M  V30 4352 C 433.698 -4.27696 -4.01613 0
M  V30 4353 C 436.05 -4.82223 -4.09444 0
M  V30 4354 C 434.714 -5.21973 -4.16054 0
M  V30 4355 H 433.984 -0.255367 -0.695607 0
M  V30 4356 H 436.631 -1.27111 -1.43231 0
M  V30 4357 H 434.936 -0.417799 -3.89566 0
M  V30 4358 H 436.633 -0.807818 -3.92779 0
M  V30 4359 H 433.223 -2.21768 -3.66765 0
M  V30 4360 H 437.407 -3.18904 -3.80281 0
M  V30 4361 H 432.663 -4.58055 -4.04964 0
M  V30 4362 H 436.837 -5.55672 -4.19763 0
M  V30 4363 H 434.464 -6.25717 -4.31721 0
M  V30 4364 N 436.039 1.36541 -0.78704 0
M  V30 4365 C 436.972 2.27831 -0.129765 0
M  V30 4366 C 437.95 1.47105 0.692732 0
M  V30 4367 O 439.134 1.7641 0.664222 0
M  V30 4368 C 436.261 3.28577 0.821883 0
M  V30 4369 C 435.307 4.26422 0.0814771 0
M  V30 4370 S 436.14 5.20919 -1.24112 0
M  V30 4371 C 437.296 6.25212 -0.293409 0
M  V30 4372 H 437.529 2.83229 -0.903811 0
M  V30 4373 H 435.062 1.43046 -0.581144 0
M  V30 4374 H 437.02 3.87123 1.3655 0
M  V30 4375 H 435.681 2.72096 1.56916 0
M  V30 4376 H 434.874 4.97554 0.803485 0
M  V30 4377 H 434.476 3.71944 -0.391589 0
M  V30 4378 H 436.768 6.75435 0.528622 0
M  V30 4379 H 437.711 7.01378 -0.973344 0
M  V30 4380 H 438.119 5.64407 0.102196 0
M  V30 4381 N 437.518 0.538854 1.48102 0
M  V30 4382 C 438.795 -0.0568108 1.95517 0
M  V30 4383 C 439.175 -1.50408 1.48124 0
M  V30 4384 O 438.523 -2.17133 0.711727 0
M  V30 4385 C 438.733 0.0696262 3.48931 0
M  V30 4386 C 440.081 -0.0851202 4.24515 0
M  V30 4387 O 441.105 -0.0037347 3.562 0
M  V30 4388 O 439.964 -0.257025 5.45895 0
M  V30 4389 H 437.058 -0.0743695 0.823649 0
M  V30 4390 H 439.604 0.604081 1.58584 0
M  V30 4391 H 438.376 1.07744 3.76174 0
M  V30 4392 H 437.999 -0.629714 3.92582 0
M  V30 4393 N 438.996 -1.55193 0.274407 0
M  V30 4394 C 439.946 -2.19184 -0.627882 0
M  V30 4395 C 440.93 -1.15625 -1.11892 0
M  V30 4396 O 442.122 -1.41441 -1.06411 0
M  V30 4397 C 439.251 -2.91591 -1.81189 0
M  V30 4398 C 438.337 -4.02438 -1.33807 0
M  V30 4399 N 438.728 -5.0246 -0.580349 0
M  V30 4400 C 437.026 -4.15496 -1.62109 0
M  V30 4401 C 437.727 -5.80756 -0.331344 0
M  V30 4402 N 436.703 -5.36038 -0.903556 0
M  V30 4403 H 440.505 -2.93871 -0.0411216 0
M  V30 4404 H 438.019 -1.62213 0.0779348 0
M  V30 4405 H 440.016 -3.35883 -2.46957 0
M  V30 4406 H 438.676 -2.18414 -2.40261 0
M  V30 4407 H 439.687 -5.17399 -0.227762 0
M  V30 4408 H 436.364 -3.53509 -2.22121 0
M  V30 4409 H 437.754 -6.71335 0.275454 0
M  V30 4410 N 440.474 -0.00167713 -1.576 0
M  V30 4411 C 441.723 0.682021 -1.89819 0
M  V30 4412 C 442.036 1.74844 -0.876871 0
M  V30 4413 O 443.242 2.48688 -1.08934 0
M  V30 4414 C 441.698 1.26425 -3.36964 0
M  V30 4415 C 441.306 0.232568 -4.47396 0
M  V30 4416 C 443.05 1.92604 -3.78291 0
M  V30 4417 C 440.957 0.824882 -5.85619 0
M  V30 4418 H 439.887 0.258499 -0.708304 0
M  V30 4419 H 442.538 -0.0624957 -1.83394 0
M  V30 4420 H 440.92 2.05949 -3.38232 0
M  V30 4421 H 442.094 -0.5382 -4.57646 0
M  V30 4422 H 440.409 -0.32888 -4.15099 0
M  V30 4423 H 443.006 2.37827 -4.78897 0
M  V30 4424 H 443.349 2.75732 -3.11894 0
M  V30 4425 H 443.882 1.19812 -3.79328 0
M  V30 4426 H 440.621 0.0323542 -6.55492 0
M  V30 4427 H 440.141 1.56477 -5.79029 0
M  V30 4428 H 441.82 1.32301 -6.33329 0
M  V30 4429 N 441.952 1.55251 0.271103 0
M  V30 4430 C 443.368 1.47133 0.618393 0
M  V30 4431 C 443.568 0.686994 1.89427 0
M  V30 4432 O 442.624 0.206609 2.51653 0
M  V30 4433 C 443.937 2.91361 0.743593 0
M  V30 4434 C 445.485 3.01587 0.837522 0
M  V30 4435 C 445.96 4.47073 0.994483 0
M  V30 4436 N 447.451 4.50909 1.05996 0
M  V30 4437 C 448.186 5.60698 1.20024 0
M  V30 4438 N 447.682 6.80348 1.30759 0
M  V30 4439 N 449.475 5.48444 1.23149 0
M  V30 4440 H 441.626 2.04698 -0.566784 0
M  V30 4441 H 443.889 0.928319 -0.192165 0
M  V30 4442 H 443.595 3.51483 -0.123493 0
M  V30 4443 H 443.469 3.40484 1.62328 0
M  V30 4444 H 445.856 2.4156 1.69507 0
M  V30 4445 H 445.937 2.55713 -0.0668086 0
M  V30 4446 H 445.581 5.07703 0.141582 0
M  V30 4447 H 445.511 4.90605 1.91349 0
M  V30 4448 H 448.002 3.6472 0.989316 0
M  V30 4449 H 448.315 7.59772 1.41303 0
M  V30 4450 H 446.66 6.83156 1.27761 0
M  V30 4451 H 449.851 4.53907 1.14394 0
M  V30 4452 H 450.024 6.34049 1.33738 0
M  V30 4453 N 443.43 -0.535701 1.48216 0
M  V30 4454 C 444.679 -1.28828 1.55197 0
M  V30 4455 C 444.992 -1.94263 0.228278 0
M  V30 4456 O 446.198 -2.70927 0.176278 0
M  V30 4457 C 444.654 -2.33727 2.73678 0
M  V30 4458 C 444.262 -1.74386 4.12666 0
M  V30 4459 C 446.006 -3.1003 2.89968 0
M  V30 4460 C 443.913 -2.77192 5.22416 0
M  V30 4461 H 442.843 -0.484484 0.577747 0
M  V30 4462 H 445.494 -0.56646 1.74538 0
M  V30 4463 H 443.876 -3.08919 2.4776 0
M  V30 4464 H 445.05 -1.05421 4.48579 0
M  V30 4465 H 443.365 -1.10595 4.01445 0
M  V30 4466 H 445.962 -3.86842 3.6913 0
M  V30 4467 H 446.305 -3.65542 1.9921 0
M  V30 4468 H 446.838 -2.41952 3.15759 0
M  V30 4469 H 443.577 -2.26507 6.15122 0
M  V30 4470 H 443.097 -3.44502 4.90998 0
M  V30 4471 H 444.776 -3.40285 5.50286 0
M  V30 4472 N 444.908 -1.36708 -0.784132 0
M  V30 4473 C 446.155 -1.31231 -1.54222 0
M  V30 4474 C 446.483 0.106864 -1.94206 0
M  V30 4475 O 445.738 1.07734 -1.63376 0
M  V30 4476 C 446.037 -2.18571 -2.82774 0
M  V30 4477 C 445.703 -3.67039 -2.61903 0
M  V30 4478 C 444.365 -4.07503 -2.55919 0
M  V30 4479 C 446.717 -4.61149 -2.4288 0
M  V30 4480 C 444.045 -5.40211 -2.28886 0
M  V30 4481 C 446.397 -5.94081 -2.17373 0
M  V30 4482 C 445.061 -6.33664 -2.09825 0
M  V30 4483 H 444.331 -0.48021 -0.56434 0
M  V30 4484 H 446.978 -1.68807 -0.904233 0
M  V30 4485 H 445.283 -1.73949 -3.51068 0
M  V30 4486 H 446.98 -2.11655 -3.40592 0
M  V30 4487 H 443.57 -3.34941 -2.67418 0
M  V30 4488 H 447.754 -4.30756 -2.46501 0
M  V30 4489 H 443.01 -5.69855 -2.21529 0
M  V30 4490 H 447.184 -6.66566 -2.01649 0
M  V30 4491 H 444.811 -7.36423 -1.88641 0
M  V30 4492 N 446.386 1.0089 -1.21074 0
M  V30 4493 C 447.318 2.09737 -0.924291 0
M  V30 4494 C 448.331 1.62546 0.0909809 0
M  V30 4495 O 449.52 1.77942 -0.141021 0
M  V30 4496 C 446.62 3.36922 -0.36559 0
M  V30 4497 C 445.793 4.13216 -1.43426 0
M  V30 4498 C 444.852 5.18696 -0.885496 0
M  V30 4499 O 443.878 5.47176 -1.56801 0
M  V30 4500 N 445.08 5.79718 0.301227 0
M  V30 4501 H 447.845 2.34895 -1.8613 0
M  V30 4502 H 445.406 1.17341 -1.11546 0
M  V30 4503 H 447.398 4.04697 0.0158407 0
M  V30 4504 H 445.968 3.08952 0.476149 0
M  V30 4505 H 445.188 3.40301 -1.9897 0
M  V30 4506 H 446.476 4.60967 -2.15376 0
M  V30 4507 H 445.874 5.58926 0.872849 0
M  V30 4508 H 444.431 6.48804 0.624211 0
M  V30 4509 N 447.864 1.01787 1.20321 0
M  V30 4510 C 448.774 0.598898 2.26827 0
M  V30 4511 C 449.79 -0.36418 1.70146 0
M  V30 4512 O 450.966 -0.224812 2.00141 0
M  V30 4513 C 448.031 -0.0549769 3.46656 0
M  V30 4514 C 447.092 0.954205 4.18561 0
M  V30 4515 C 446.325 0.331439 5.3267 0
M  V30 4516 O 446.548 -0.86851 5.63749 0
M  V30 4517 O 445.482 1.0488 5.92692 0
M  V30 4518 H 449.308 1.48562 2.64883 0
M  V30 4519 H 446.893 0.787434 1.26964 0
M  V30 4520 H 448.775 -0.420102 4.19301 0
M  V30 4521 H 447.45 -0.915876 3.10473 0
M  V30 4522 H 446.357 1.37072 3.48083 0
M  V30 4523 H 447.69 1.78511 4.58688 0
M  V30 4524 N 449.342 -1.36122 0.79427 0
M  V30 4525 C 450.274 -2.28683 0.153903 0
M  V30 4526 C 451.287 -1.49707 -0.639669 0
M  V30 4527 O 452.476 -1.7209 -0.474054 0
M  V30 4528 C 449.576 -3.29202 -0.804921 0
M  V30 4529 C 448.749 -4.37358 -0.060366 0
M  V30 4530 C 447.808 -5.17811 -0.935849 0
M  V30 4531 O 446.834 -5.67853 -0.391309 0
M  V30 4532 N 448.036 -5.34721 -2.25951 0
M  V30 4533 H 450.801 -2.84278 0.949008 0
M  V30 4534 H 448.362 -1.4834 0.648611 0
M  V30 4535 H 450.354 -3.79914 -1.39455 0
M  V30 4536 H 448.924 -2.74212 -1.50088 0
M  V30 4537 H 448.144 -3.87746 0.710382 0
M  V30 4538 H 449.432 -5.06777 0.45324 0
M  V30 4539 H 448.83 -4.95687 -2.72601 0
M  V30 4540 H 447.387 -5.88657 -2.79867 0
M  V30 4541 N 450.82 -0.546701 -1.47814 0
M  V30 4542 C 452.066 -0.0187684 -2.02791 0
M  V30 4543 C 452.399 1.32338 -1.42128 0
M  V30 4544 O 451.674 1.85867 -0.573023 0
M  V30 4545 C 451.957 0.0854985 -3.59998 0
M  V30 4546 C 451.81 -1.283 -4.31114 0
M  V30 4547 C 453.129 0.80412 -4.32691 0
M  V30 4548 H 450.248 -0.0082946 -0.736953 0
M  V30 4549 H 452.89 -0.706962 -1.76358 0
M  V30 4550 H 451.04 0.671609 -3.82651 0
M  V30 4551 H 452.712 -1.91151 -4.19832 0
M  V30 4552 H 450.955 -1.86049 -3.91878 0
M  V30 4553 H 451.626 -1.16287 -5.39612 0
M  V30 4554 H 454.102 0.306576 -4.14969 0
M  V30 4555 H 452.978 0.846011 -5.42341 0
M  V30 4556 H 453.239 1.85802 -4.01161 0
M  V30 4557 N 452.299 1.55045 -0.282633 0
M  V30 4558 C 453.209 2.26491 0.61147 0
M  V30 4559 C 454.225 1.29348 1.16384 0
M  V30 4560 O 455.401 1.62298 1.19253 0
M  V30 4561 C 452.466 2.97779 1.77563 0
M  V30 4562 C 451.527 4.10418 1.25919 0
M  V30 4563 C 450.76 4.78297 2.36786 0
M  V30 4564 O 450.983 4.45426 3.56303 0
M  V30 4565 O 449.917 5.66089 2.04517 0
M  V30 4566 H 453.743 3.03683 0.0324615 0
M  V30 4567 H 451.328 1.49317 -0.0497576 0
M  V30 4568 H 453.21 3.42554 2.45427 0
M  V30 4569 H 451.885 2.23498 2.34159 0
M  V30 4570 H 450.792 3.70082 0.546797 0
M  V30 4571 H 452.125 4.86622 0.738887 0
M  V30 4572 N 453.777 0.010035 1.57597 0
M  V30 4573 C 454.724 -0.978122 2.09049 0
M  V30 4574 C 455.694 -1.33509 0.988159 0
M  V30 4575 O 456.879 -1.43172 1.26121 0
M  V30 4576 C 454.019 -2.26158 2.60666 0
M  V30 4577 C 453.132 -1.96275 3.84838 0
M  V30 4578 C 452.267 -3.18776 4.24918 0
M  V30 4579 C 451.306 -2.84625 5.41899 0
M  V30 4580 N 450.443 -3.99693 5.77226 0
M  V30 4581 H 455.283 -0.532431 2.93205 0
M  V30 4582 H 452.82 -0.251234 1.44939 0
M  V30 4583 H 454.778 -3.01202 2.88675 0
M  V30 4584 H 453.408 -2.68378 1.79369 0
M  V30 4585 H 452.46 -1.11555 3.63675 0
M  V30 4586 H 453.772 -1.67111 4.69974 0
M  V30 4587 H 452.926 -4.02157 4.54262 0
M  V30 4588 H 451.665 -3.51087 3.38511 0
M  V30 4589 H 450.67 -1.99653 5.12268 0
M  V30 4590 H 451.895 -2.53551 6.29991 0
M  V30 4591 H 449.841 -4.31882 4.93776 0
M  V30 4592 H 449.758 -3.74087 6.56959 0
M  V30 4593 H 451.026 -4.83834 6.11167 0
M  V30 4594 N 455.255 -1.55392 -0.262866 0
M  V30 4595 C 456.185 -1.91978 -1.32917 0
M  V30 4596 C 457.166 -0.7828 -1.51017 0
M  V30 4597 O 458.351 -1.04178 -1.63892 0
M  V30 4598 C 455.481 -2.20055 -2.68687 0
M  V30 4599 C 454.435 -3.35854 -2.65304 0
M  V30 4600 C 453.761 -3.49435 -4.04721 0
M  V30 4601 C 455.061 -4.71977 -2.23685 0
M  V30 4602 H 456.755 -2.81292 -1.02544 0
M  V30 4603 H 454.301 -1.3534 -0.491846 0
M  V30 4604 H 456.254 -2.44237 -3.43404 0
M  V30 4605 H 454.978 -1.27551 -3.00663 0
M  V30 4606 H 453.637 -3.11655 -1.93045 0
M  V30 4607 H 453.285 -2.54379 -4.33936 0
M  V30 4608 H 452.985 -4.27297 -4.0335 0
M  V30 4609 H 454.509 -3.7592 -4.81161 0
M  V30 4610 H 455.923 -4.95637 -2.88127 0
M  V30 4611 H 454.32 -5.52828 -2.33456 0
M  V30 4612 H 455.39 -4.70115 -1.18827 0
M  V30 4613 N 456.733 0.527833 -1.48498 0
M  V30 4614 C 457.68 1.6322 -1.6318 0
M  V30 4615 C 458.65 1.59199 -0.473815 0
M  V30 4616 O 459.835 1.77591 -0.697563 0
M  V30 4617 C 456.975 3.01474 -1.67951 0
M  V30 4618 C 456.088 3.15713 -2.94871 0
M  V30 4619 C 455.223 4.44539 -2.90789 0
M  V30 4620 C 454.262 4.52315 -4.12404 0
M  V30 4621 N 453.399 5.72533 -4.06387 0
M  V30 4622 H 458.239 1.50011 -2.57489 0
M  V30 4623 H 455.776 0.730298 -1.27691 0
M  V30 4624 H 457.734 3.81572 -1.68698 0
M  V30 4625 H 456.364 3.1345 -0.771306 0
M  V30 4626 H 455.416 2.28854 -3.03859 0
M  V30 4627 H 456.728 3.1732 -3.8485 0
M  V30 4628 H 455.882 5.3293 -2.89949 0
M  V30 4629 H 454.621 4.45457 -1.98542 0
M  V30 4630 H 453.626 3.62331 -4.13517 0
M  V30 4631 H 454.851 4.53134 -5.05812 0
M  V30 4632 H 452.797 5.74344 -3.16962 0
M  V30 4633 H 452.714 5.75643 -4.90073 0
M  V30 4634 H 453.982 6.63204 -4.0961 0
M  V30 4635 N 458.211 1.37122 0.776871 0
M  V30 4636 C 459.174 1.32301 1.8716 0
M  V30 4637 C 460.174 0.228099 1.59174 0
M  V30 4638 O 461.364 0.483642 1.67352 0
M  V30 4639 C 458.496 1.054 3.24197 0
M  V30 4640 H 459.689 2.29673 1.92848 0
M  V30 4641 H 457.242 1.22077 0.97606 0
M  V30 4642 H 457.977 0.0853872 3.24188 0
M  V30 4643 H 457.762 1.84648 3.45901 0
M  V30 4644 H 459.252 1.04664 4.04271 0
M  V30 4645 N 459.689 -1.00246 1.21608 0
M  V30 4646 C 460.619 -2.10921 1.00172 0
M  V30 4647 C 461.6 -1.69938 -0.0741587 0
M  V30 4648 O 462.785 -1.94009 0.0861753 0
M  V30 4649 C 459.915 -3.42618 0.568355 0
M  V30 4650 C 458.869 -3.97407 1.58909 0
M  V30 4651 C 458.195 -5.25038 1.01187 0
M  V30 4652 C 459.495 -4.2918 2.97661 0
M  V30 4653 H 461.189 -2.29112 1.92739 0
M  V30 4654 H 458.735 -1.10101 0.928102 0
M  V30 4655 H 460.688 -4.19444 0.405555 0
M  V30 4656 H 459.412 -3.24227 -0.392961 0
M  V30 4657 H 458.071 -3.22703 1.73949 0
M  V30 4658 H 457.719 -5.02982 0.0421965 0
M  V30 4659 H 457.419 -5.62661 1.6937 0
M  V30 4660 H 458.943 -6.04507 0.860448 0
M  V30 4661 H 460.357 -4.96839 2.86049 0
M  V30 4662 H 458.754 -4.77952 3.6288 0
M  V30 4663 H 459.824 -3.3735 3.48315 0
M  V30 4664 N 461.167 -1.02423 -1.1978 0
M  V30 4665 C 462.117 -0.571689 -2.20716 0
M  V30 4666 C 463.101 0.377077 -1.56419 0
M  V30 4667 O 464.293 0.198801 -1.7588 0
M  V30 4668 C 461.422 0.0808555 -3.43205 0
M  V30 4669 C 460.508 -0.890073 -4.14655 0
M  V30 4670 N 460.899 -2.05065 -4.62366 0
M  V30 4671 C 459.197 -0.71252 -4.40272 0
M  V30 4672 C 459.898 -2.66264 -5.17183 0
M  V30 4673 N 458.874 -1.94264 -5.07703 0
M  V30 4674 H 462.676 -1.45636 -2.55279 0
M  V30 4675 H 460.19 -0.890596 -1.35802 0
M  V30 4676 H 462.187 0.422654 -4.14752 0
M  V30 4677 H 460.847 0.961274 -3.10144 0
M  V30 4678 H 461.858 -2.43026 -4.57339 0
M  V30 4679 H 458.535 0.119199 -4.1733 0
M  V30 4680 H 459.925 -3.64526 -5.64421 0
M  V30 4681 N 462.645 1.35699 -0.801477 0
M  V30 4682 C 463.891 1.99208 -0.380022 0
M  V30 4683 C 464.224 1.63445 1.04878 0
M  V30 4684 O 463.499 0.895223 1.72673 0
M  V30 4685 C 463.782 3.55755 -0.557708 0
M  V30 4686 C 463.635 4.01332 -2.03107 0
M  V30 4687 C 464.954 4.40096 0.0197968 0
M  V30 4688 H 462.073 0.723667 -0.139552 0
M  V30 4689 H 464.715 1.60928 -1.01006 0
M  V30 4690 H 462.865 3.88494 -0.0213741 0
M  V30 4691 H 464.537 3.79026 -2.62939 0
M  V30 4692 H 462.78 3.52429 -2.52936 0
M  V30 4693 H 463.451 5.10234 -2.1063 0
M  V30 4694 H 465.927 4.13786 -0.438179 0
M  V30 4695 H 464.803 5.48735 -0.134477 0
M  V30 4696 H 465.064 4.2786 1.11303 0
M  V30 4697 N 464.123 0.554532 1.47522 0
M  V30 4698 C 465.4 -0.0360704 1.95567 0
M  V30 4699 C 465.78 -1.48828 1.49711 0
M  V30 4700 O 465.128 -2.16366 0.734717 0
M  V30 4701 C 465.338 0.106631 3.48837 0
M  V30 4702 C 466.686 -0.0400899 4.24581 0
M  V30 4703 O 467.71 0.0340453 3.56184 0
M  V30 4704 O 466.569 -0.199111 5.46137 0
M  V30 4705 H 463.663 -0.0656294 0.824392 0
M  V30 4706 H 466.209 0.620867 1.57935 0
M  V30 4707 H 464.981 1.11727 3.7501 0
M  V30 4708 H 464.604 -0.58804 3.93227 0
M  V30 4709 N 465.601 -1.54893 0.290851 0
M  V30 4710 C 466.826 -2.04804 -0.32712 0
M  V30 4711 C 467.251 -1.16721 -1.47506 0
M  V30 4712 O 466.609 -0.169107 -1.8051 0
M  V30 4713 C 466.657 -3.52268 -0.770689 0
M  V30 4714 O 465.761 -3.67236 -1.87647 0
M  V30 4715 H 465.102 -0.660789 -0.0652227 0
M  V30 4716 H 467.632 -2.00036 0.429739 0
M  V30 4717 H 467.642 -3.9393 -1.06223 0
M  V30 4718 H 466.317 -4.15843 0.069096 0
M  V30 4719 H 464.894 -3.37479 -1.58626 0
M  V30 4720 N 467.08 -0.0183926 -1.57589 0
M  V30 4721 C 468.043 0.951986 -2.08494 0
M  V30 4722 C 469.043 1.26092 -0.997874 0
M  V30 4723 O 470.233 1.20304 -1.25987 0
M  V30 4724 C 467.365 2.27165 -2.54182 0
M  V30 4725 H 468.558 0.511307 -2.95509 0
M  V30 4726 H 466.111 0.229444 -1.54607 0
M  V30 4727 H 466.846 2.75884 -1.70465 0
M  V30 4728 H 466.631 2.06057 -3.33591 0
M  V30 4729 H 468.121 2.9674 -2.93828 0
M  V30 4730 N 468.558 1.5553 0.254621 0
M  V30 4731 C 469.468 1.92789 1.33677 0
M  V30 4732 C 470.484 0.827356 1.53071 0
M  V30 4733 O 471.66 1.12807 1.66843 0
M  V30 4734 C 468.725 2.20827 2.67275 0
M  V30 4735 C 467.786 3.4427 2.5647 0
M  V30 4736 C 467.019 3.70961 3.83697 0
M  V30 4737 O 467.242 2.99852 4.85227 0
M  V30 4738 O 466.176 4.64491 3.82794 0
M  V30 4739 H 470.002 2.84945 1.05071 0
M  V30 4740 H 467.587 1.42312 0.454723 0
M  V30 4741 H 469.469 2.40204 3.46237 0
M  V30 4742 H 468.144 1.31851 2.9563 0
M  V30 4743 H 467.051 3.30209 1.75821 0
M  V30 4744 H 468.384 4.33524 2.33062 0
M  V30 4745 N 470.036 -0.519951 1.48776 0
M  V30 4746 C 471.266 -1.29783 1.60748 0
M  V30 4747 C 471.674 -1.87253 0.27072 0
M  V30 4748 O 471.017 -1.67628 -0.751438 0
M  V30 4749 C 471.079 -2.47984 2.60277 0
M  V30 4750 C 470.743 -2.11526 4.051 0
M  V30 4751 C 471.74 -1.66608 4.92481 0
M  V30 4752 C 469.425 -2.21742 4.50706 0
M  V30 4753 C 471.419 -1.32384 6.23501 0
M  V30 4754 C 469.106 -1.87129 5.81744 0
M  V30 4755 C 470.104 -1.42523 6.67964 0
M  V30 4756 O 469.792 -1.0837 7.96562 0
M  V30 4757 H 469.524 -0.400562 0.544542 0
M  V30 4758 H 472.078 -0.632879 1.95407 0
M  V30 4759 H 470.308 -3.17493 2.2076 0
M  V30 4760 H 471.997 -3.10036 2.61978 0
M  V30 4761 H 472.763 -1.58178 4.58481 0
M  V30 4762 H 468.642 -2.55415 3.83776 0
M  V30 4763 H 472.186 -0.974949 6.90754 0
M  V30 4764 H 468.083 -1.95204 6.15277 0
M  V30 4765 H 468.851 -1.21681 8.09405 0
M  V30 4766 N 471.514 -1.37532 -0.769588 0
M  V30 4767 C 472.739 -1.36231 -1.56384 0
M  V30 4768 C 473.164 0.0495849 -1.88035 0
M  V30 4769 O 472.522 1.02723 -1.49391 0
M  V30 4770 C 472.57 -2.20986 -2.84952 0
M  V30 4771 O 471.674 -1.61597 -3.79421 0
M  V30 4772 H 471.015 -0.465387 -0.473615 0
M  V30 4773 H 473.545 -1.81085 -0.952342 0
M  V30 4774 H 473.555 -2.34277 -3.34034 0
M  V30 4775 H 472.23 -3.23612 -2.61243 0
M  V30 4776 H 470.807 -1.57359 -3.38072 0
M  V30 4777 N 472.992 0.995999 -1.22138 0
M  V30 4778 C 474.232 1.75032 -1.05561 0
M  V30 4779 C 474.596 1.87729 0.402698 0
M  V30 4780 O 475.797 2.59813 0.689234 0
M  V30 4781 C 474.068 3.11973 -1.74379 0
M  V30 4782 S 475.627 4.03182 -1.73175 0
M  V30 4783 H 472.445 0.602137 -0.37809 0
M  V30 4784 H 475.047 1.19107 -1.55028 0
M  V30 4785 H 473.751 3.00371 -2.79652 0
M  V30 4786 H 473.282 3.7297 -1.25128 0
M  V30 4787 H 475.297 4.90043 -0.77923 0
M  V30 4788 N 474.47 1.03057 1.19235 0
M  V30 4789 C 475.4 0.633497 2.24742 0
M  V30 4790 C 476.381 -0.358335 1.66283 0
M  V30 4791 O 477.566 -0.240676 1.92703 0
M  V30 4792 C 474.696 -0.0147648 3.47297 0
M  V30 4793 C 473.65 0.899527 4.18441 0
M  V30 4794 C 472.976 0.116281 5.34574 0
M  V30 4795 C 474.276 2.21404 4.73051 0
M  V30 4796 H 475.97 1.5155 2.58211 0
M  V30 4797 H 473.516 0.73014 1.24117 0
M  V30 4798 H 475.469 -0.304202 4.20301 0
M  V30 4799 H 474.193 -0.931577 3.13032 0
M  V30 4800 H 472.852 1.17319 3.47321 0
M  V30 4801 H 472.5 -0.802619 4.96555 0
M  V30 4802 H 472.2 0.725293 5.83107 0
M  V30 4803 H 473.724 -0.166376 6.10373 0
M  V30 4804 H 475.138 1.98601 5.37802 0
M  V30 4805 H 473.535 2.77512 5.32078 0
M  V30 4806 H 474.605 2.86752 3.91026 0
M  V30 4807 N 475.948 -1.35272 0.808662 0
M  V30 4808 C 476.895 -2.29764 0.218482 0
M  V30 4809 C 477.865 -1.52911 -0.648652 0
M  V30 4810 O 479.05 -1.81341 -0.593297 0
M  V30 4811 C 476.19 -3.39388 -0.625282 0
M  V30 4812 C 475.303 -4.31202 0.262516 0
M  V30 4813 C 474.438 -5.27919 -0.589451 0
M  V30 4814 C 473.477 -6.11371 0.298617 0
M  V30 4815 N 472.614 -7.0022 -0.513443 0
M  V30 4816 H 477.454 -2.79645 1.02968 0
M  V30 4817 H 474.991 -1.37629 0.519303 0
M  V30 4818 H 476.949 -4.01615 -1.12966 0
M  V30 4819 H 475.579 -2.90777 -1.40173 0
M  V30 4820 H 474.631 -3.69962 0.885013 0
M  V30 4821 H 475.943 -4.89748 0.945971 0
M  V30 4822 H 475.097 -5.95529 -1.15888 0
M  V30 4823 H 473.836 -4.69875 -1.30647 0
M  V30 4824 H 472.841 -5.42707 0.880301 0
M  V30 4825 H 474.066 -6.71494 1.01352 0
M  V30 4826 H 472.012 -6.44662 -1.21439 0
M  V30 4827 H 471.929 -7.55917 0.111922 0
M  V30 4828 H 473.197 -7.72175 -1.06608 0
M  V30 4829 N 477.426 -0.562348 -1.47226 0
M  V30 4830 C 478.389 0.172056 -2.28553 0
M  V30 4831 C 479.389 0.837928 -1.37242 0
M  V30 4832 O 480.579 0.693001 -1.59822 0
M  V30 4833 C 477.711 1.25223 -3.17068 0
M  V30 4834 H 478.904 -0.542401 -2.94954 0
M  V30 4835 H 476.457 -0.319493 -1.53 0
M  V30 4836 H 477.192 1.99892 -2.55369 0
M  V30 4837 H 476.977 0.779515 -3.84273 0
M  V30 4838 H 478.467 1.76791 -3.78332 0
M  V30 4839 N 478.904 1.54736 -0.299062 0
M  V30 4840 C 480.153 1.99279 0.311549 0
M  V30 4841 C 480.466 1.19107 1.55154 0
M  V30 4842 O 481.672 1.53908 2.23662 0
M  V30 4843 C 480.128 3.54768 0.605632 0
M  V30 4844 C 479.736 4.43746 -0.615914 0
M  V30 4845 C 481.48 4.07841 1.17754 0
M  V30 4846 C 479.387 5.90663 -0.29509 0
M  V30 4847 H 478.317 0.744359 0.120187 0
M  V30 4848 H 480.968 1.78919 -0.407464 0
M  V30 4849 H 479.35 3.71021 1.38419 0
M  V30 4850 H 480.524 4.39267 -1.39218 0
M  V30 4851 H 478.839 4.01434 -1.10633 0
M  V30 4852 H 481.436 5.15174 1.43179 0
M  V30 4853 H 481.779 3.58324 2.11918 0
M  V30 4854 H 482.312 3.95123 0.460739 0
M  V30 4855 H 479.051 6.44325 -1.20524 0
M  V30 4856 H 478.571 5.98155 0.44394 0
M  V30 4857 H 480.25 6.46916 0.104048 0
M  V30 4858 N 480.382 0.0267497 1.57577 0
M  V30 4859 C 481.628 -0.653371 1.91987 0
M  V30 4860 C 481.961 -1.71915 0.903263 0
M  V30 4861 O 481.236 -1.94358 -0.0743387 0
M  V30 4862 C 481.519 -1.272 3.36886 0
M  V30 4863 C 481.372 -0.215938 4.49281 0
M  V30 4864 C 482.691 -2.19069 3.81703 0
M  V30 4865 H 479.81 -0.236047 0.698177 0
M  V30 4866 H 482.452 0.0835236 1.89816 0
M  V30 4867 H 480.602 -1.90005 3.38866 0
M  V30 4868 H 482.274 0.41449 4.59434 0
M  V30 4869 H 480.517 0.458855 4.31366 0
M  V30 4870 H 481.188 -0.688347 5.47691 0
M  V30 4871 H 483.664 -1.66253 3.81444 0
M  V30 4872 H 482.54 -2.59307 4.83788 0
M  V30 4873 H 482.801 -3.08087 3.17072 0
M  V30 4874 N 481.861 -1.55662 -0.24637 0
M  V30 4875 C 482.791 -1.93377 -1.30873 0
M  V30 4876 C 483.772 -0.798773 -1.50179 0
M  V30 4877 O 484.957 -1.0591 -1.62778 0
M  V30 4878 C 482.087 -2.22893 -2.66338 0
M  V30 4879 C 481.041 -3.38649 -2.61727 0
M  V30 4880 C 480.367 -3.53708 -4.00992 0
M  V30 4881 C 481.667 -4.74323 -2.18666 0
M  V30 4882 H 483.361 -2.82363 -0.995552 0
M  V30 4883 H 480.907 -1.35854 -0.477464 0
M  V30 4884 H 482.86 -2.47866 -3.40794 0
M  V30 4885 H 481.584 -1.30733 -2.99293 0
M  V30 4886 H 480.243 -3.13685 -1.89729 0
M  V30 4887 H 479.891 -2.58967 -4.31214 0
M  V30 4888 H 479.591 -4.31551 -3.98795 0
M  V30 4889 H 481.115 -3.81003 -4.77147 0
M  V30 4890 H 482.529 -4.98665 -2.82854 0
M  V30 4891 H 480.926 -5.55273 -2.27579 0
M  V30 4892 H 481.996 -4.71349 -1.13834 0
M  V30 4893 N 483.339 0.512053 -1.4905 0
M  V30 4894 C 484.586 1.26686 -1.57978 0
M  V30 4895 C 484.914 1.92733 -0.261553 0
M  V30 4896 O 484.169 1.80772 0.749667 0
M  V30 4897 C 484.468 2.36446 -2.68008 0
M  V30 4898 C 484.134 1.87932 -4.09869 0
M  V30 4899 C 482.796 1.74419 -4.48477 0
M  V30 4900 C 485.148 1.5149 -4.98698 0
M  V30 4901 C 482.476 1.22827 -5.73699 0
M  V30 4902 C 484.828 1.01355 -6.24428 0
M  V30 4903 C 483.492 0.864735 -6.61875 0
M  V30 4904 H 482.762 0.463577 -0.578081 0
M  V30 4905 H 485.409 0.569421 -1.82838 0
M  V30 4906 H 483.714 3.11933 -2.37076 0
M  V30 4907 H 485.411 2.9453 -2.72127 0
M  V30 4908 H 482.001 1.99405 -3.79389 0
M  V30 4909 H 486.185 1.60782 -4.69535 0
M  V30 4910 H 481.441 1.10008 -6.01422 0
M  V30 4911 H 485.615 0.722351 -6.92644 0
M  V30 4912 H 483.242 0.462777 -7.5879 0
M  V30 4913 N 484.817 1.37938 0.762283 0
M  V30 4914 C 486.045 1.36883 1.55147 0
M  V30 4915 C 486.46 -0.0435348 1.8875 0
M  V30 4916 O 485.817 -1.00786 1.52146 0
M  V30 4917 C 485.868 2.21624 2.85596 0
M  V30 4918 O 485.589 3.57358 2.5343 0
M  V30 4919 C 487.09 2.28653 3.7978 0
M  V30 4920 H 484.31 0.468521 0.480343 0
M  V30 4921 H 486.854 1.81404 0.944079 0
M  V30 4922 H 485.009 1.80588 3.42734 0
M  V30 4923 H 485.423 4.01883 3.37032 0
M  V30 4924 H 486.897 2.9225 4.68288 0
M  V30 4925 H 487.374 1.29767 4.19592 0
M  V30 4926 H 487.98 2.70043 3.28568 0
M  V30 4927 N 486.295 -0.989507 1.22664 0
M  V30 4928 C 487.52 -1.77031 1.08051 0
M  V30 4929 C 487.945 -1.84535 -0.364483 0
M  V30 4930 O 487.303 -1.3003 -1.2634 0
M  V30 4931 C 487.351 -3.18 1.70024 0
M  V30 4932 O 486.455 -4.01161 0.956216 0
M  V30 4933 H 485.796 -0.545008 0.379292 0
M  V30 4934 H 488.326 -1.24277 1.62531 0
M  V30 4935 H 488.336 -3.68616 1.74888 0
M  V30 4936 H 487.011 -3.11853 2.75174 0
M  V30 4937 H 485.588 -3.59687 0.98384 0
M  V30 4938 N 487.773 -1.03688 -1.18687 0
M  V30 4939 C 489.05 -0.652397 -1.84399 0
M  V30 4940 C 489.43 0.868386 -1.92412 0
M  V30 4941 O 488.778 1.76832 -1.44716 0
M  V30 4942 C 488.988 -1.3238 -3.22919 0
M  V30 4943 C 490.336 -1.45216 -3.98996 0
M  V30 4944 O 491.36 -1.2816 -3.32345 0
M  V30 4945 O 490.219 -1.72975 -5.18403 0
M  V30 4946 H 487.313 -0.227793 -0.795009 0
M  V30 4947 H 489.859 -1.13553 -1.2611 0
M  V30 4948 H 488.631 -2.36202 -3.11968 0
M  V30 4949 H 488.254 -0.829039 -3.88861 0
M  V30 4950 N 489.251 1.34841 -0.815825 0
M  V30 4951 C 490.214 2.27959 -0.238185 0
M  V30 4952 C 491.214 1.49983 0.579816 0
M  V30 4953 O 492.404 1.69617 0.396953 0
M  V30 4954 C 489.536 3.34314 0.666876 0
M  V30 4955 H 490.729 2.80558 -1.05958 0
M  V30 4956 H 488.282 1.44852 -0.587156 0
M  V30 4957 H 489.017 2.86916 1.5116 0
M  V30 4958 H 488.802 3.92014 0.0819106 0
M  V30 4959 H 490.292 4.0379 1.06506 0
M  V30 4960 N 490.729 0.570148 1.46925 0
M  V30 4961 C 491.969 0.0534743 2.0433 0
M  V30 4962 C 492.333 -1.27729 1.4335 0
M  V30 4963 O 493.534 -1.88244 1.91879 0
M  V30 4964 C 491.805 -0.0244296 3.57392 0
M  V30 4965 S 493.364 -0.485351 4.36108 0
M  V30 4966 H 490.182 0.0313908 0.710307 0
M  V30 4967 H 492.784 0.759808 1.80131 0
M  V30 4968 H 491.488 0.948261 3.99295 0
M  V30 4969 H 491.019 -0.753922 3.86108 0
M  V30 4970 H 493.034 -1.74258 4.64595 0
M  V30 4971 N 492.207 -1.54576 0.307264 0
M  V30 4972 C 493.455 -1.99867 -0.299574 0
M  V30 4973 C 493.776 -1.19714 -1.53927 0
M  V30 4974 O 493.046 -0.29472 -1.9367 0
M  V30 4975 H 491.626 -0.738299 -0.113683 0
M  V30 4976 H 494.288 -1.9032 0.420042 0
M  V30 4977 H 493.384 -3.06901 -0.567283 0
M  V30 4978 N 493.685 -0.035106 -1.57561 0
M  V30 4979 C 494.615 0.942993 -2.13612 0
M  V30 4980 C 495.596 1.33531 -1.05373 0
M  V30 4981 O 496.781 1.41287 -1.33235 0
M  V30 4982 C 493.911 2.22332 -2.66807 0
M  V30 4983 C 492.865 1.97156 -3.79886 0
M  V30 4984 C 492.191 3.31506 -4.19533 0
M  V30 4985 C 493.491 1.30596 -5.05709 0
M  V30 4986 H 495.185 0.476179 -2.95589 0
M  V30 4987 H 492.731 0.227602 -1.4219 0
M  V30 4988 H 494.684 2.91142 -3.04654 0
M  V30 4989 H 493.408 2.7119 -1.81999 0
M  V30 4990 H 492.067 1.30763 -3.42486 0
M  V30 4991 H 491.715 3.78134 -3.31698 0
M  V30 4992 H 491.415 3.15465 -4.95738 0
M  V30 4993 H 492.939 4.01574 -4.59968 0
M  V30 4994 H 494.353 1.89416 -5.41105 0
M  V30 4995 H 492.75 1.24934 -5.86951 0
M  V30 4996 H 493.82 0.279742 -4.84092 0
M  V30 4997 N 495.163 1.55791 0.238111 0
M  V30 4998 C 496.388 1.8244 0.986432 0
M  V30 4999 C 496.813 0.613314 1.7782 0
M  V30 5000 O 496.171 -0.437767 1.75935 0
M  V30 5001 C 496.219 3.06917 1.893 0
M  V30 5002 O 495.323 2.84449 2.98601 0
M  V30 5003 H 494.664 0.601975 0.280218 0
M  V30 5004 H 497.194 2.02987 0.256437 0
M  V30 5005 H 497.204 3.36583 2.30598 0
M  V30 5006 H 495.879 3.947 1.31091 0
M  V30 5007 H 494.456 2.65972 2.61368 0
M  V30 5008 N 496.642 -0.504142 1.49319 0
M  V30 5009 C 497.919 -1.26548 1.49147 0
M  V30 5010 C 498.299 -2.09977 0.21744 0
M  V30 5011 O 497.647 -2.14028 -0.800269 0
M  V30 5012 C 497.857 -2.12489 2.76857 0
M  V30 5013 C 499.205 -2.7178 3.26222 0
M  V30 5014 O 500.229 -2.22758 2.77952 0
M  V30 5015 O 499.088 -3.61015 4.10281 0
M  V30 5016 H 496.182 -0.572495 0.596806 0
M  V30 5017 H 498.728 -0.51867 1.61579 0
M  V30 5018 H 497.5 -1.50796 3.61077 0
M  V30 5019 H 497.123 -2.94368 2.6727 0
M  V30 5020 N 498.12 -1.38341 -0.754957 0
M  V30 5021 C 499.083 -1.35262 -1.85032 0
M  V30 5022 C 500.083 -0.253393 -1.58791 0
M  V30 5023 O 501.273 -0.510205 -1.66561 0
M  V30 5024 C 498.405 -1.10544 -3.22479 0
M  V30 5025 H 499.598 -2.32712 -1.8917 0
M  V30 5026 H 497.151 -1.23614 -0.956515 0
M  V30 5027 H 497.886 -0.136952 -3.24011 0
M  V30 5028 H 497.671 -1.90127 -3.4292 0
M  V30 5029 H 499.161 -1.11082 -4.02555 0
M  V30 5030 N 499.598 0.982988 -1.23187 0
M  V30 5031 C 500.561 2.05649 -1.01198 0
M  V30 5032 C 501.561 1.6078 0.0252464 0
M  V30 5033 O 502.751 1.72878 -0.214243 0
M  V30 5034 C 499.883 3.36744 -0.530656 0
M  V30 5035 H 501.076 2.2659 -1.96461 0
M  V30 5036 H 498.629 1.15602 -1.05195 0
M  V30 5037 H 499.364 3.21492 0.425873 0
M  V30 5038 H 499.149 3.7065 -1.2791 0
M  V30 5039 H 500.639 4.15705 -0.397366 0
M  V30 5040 N 501.076 1.04316 1.18135 0
M  V30 5041 C 502.026 0.606731 2.19779 0
M  V30 5042 C 503.01 -0.352144 1.56999 0
M  V30 5043 O 504.202 -0.170795 1.76174 0
M  V30 5044 C 501.331 -0.0262443 3.4329 0
M  V30 5045 C 500.417 0.955928 4.13186 0
M  V30 5046 N 500.808 2.12395 4.59045 0
M  V30 5047 C 499.106 0.782473 4.39082 0
M  V30 5048 C 499.807 2.74458 5.12882 0
M  V30 5049 N 498.783 2.02316 5.04548 0
M  V30 5050 H 502.585 1.49679 2.5293 0
M  V30 5051 H 500.099 0.912088 1.34368 0
M  V30 5052 H 502.096 -0.356617 4.15372 0
M  V30 5053 H 500.756 -0.911811 3.11635 0
M  V30 5054 H 501.767 2.50272 4.53414 0
M  V30 5055 H 498.444 -0.0527906 4.17467 0
M  V30 5056 H 499.834 3.73459 5.5855 0
M  V30 5057 N 502.554 -1.34406 0.822964 0
M  V30 5058 C 503.803 -1.97542 0.407458 0
M  V30 5059 C 504.116 -1.65973 -1.035 0
M  V30 5060 O 505.322 -2.22598 -1.55442 0
M  V30 5061 C 503.778 -3.53463 0.677623 0
M  V30 5062 C 503.386 -3.93925 2.1337 0
M  V30 5063 C 505.13 -4.23229 0.328284 0
M  V30 5064 C 503.037 -5.42759 2.34876 0
M  V30 5065 H 501.967 -0.739207 0.148623 0
M  V30 5066 H 504.618 -1.53248 1.00932 0
M  V30 5067 H 503 -3.96 0.00558965 0
M  V30 5068 H 504.174 -3.62494 2.8449 0
M  V30 5069 H 502.489 -3.37097 2.44448 0
M  V30 5070 H 505.086 -5.32659 0.466794 0
M  V30 5071 H 505.429 -4.09899 -0.727224 0
M  V30 5072 H 505.962 -3.86169 0.954896 0
M  V30 5073 H 502.701 -5.61075 3.38932 0
M  V30 5074 H 502.221 -5.75704 1.68299 0
M  V30 5075 H 503.9 -6.0944 2.17236 0
M  V30 5076 N 504.032 -0.577932 -1.46621 0
M  V30 5077 C 504.942 0.160651 -2.34049 0
M  V30 5078 C 505.958 0.890911 -1.49462 0
M  V30 5079 O 507.134 0.855166 -1.82343 0
M  V30 5080 C 504.199 1.16447 -3.26559 0
M  V30 5081 C 503.26 0.4394 -4.27045 0
M  V30 5082 C 502.493 1.3954 -5.15135 0
M  V30 5083 O 502.716 2.63162 -5.06065 0
M  V30 5084 O 501.65 0.908585 -5.95003 0
M  V30 5085 H 505.476 -0.557057 -2.98547 0
M  V30 5086 H 503.061 -0.338369 -1.45518 0
M  V30 5087 H 504.943 1.7434 -3.83645 0
M  V30 5088 H 503.618 1.86373 -2.64663 0
M  V30 5089 H 502.525 -0.181247 -3.73661 0
M  V30 5090 H 503.858 -0.218799 -4.91713 0
M  V30 5091 N 505.51 1.54411 -0.315457 0
M  V30 5092 C 506.735 2.05299 0.294496 0
M  V30 5093 C 507.16 1.19052 1.4563 0
M  V30 5094 O 506.518 0.197804 1.80218 0
M  V30 5095 C 506.566 3.5345 0.714549 0
M  V30 5096 O 505.67 3.70175 1.81781 0
M  V30 5097 H 505.011 0.661743 0.0547019 0
M  V30 5098 H 507.541 1.99327 -0.461508 0
M  V30 5099 H 507.551 3.9557 0.999426 0
M  V30 5100 H 506.226 4.1568 -0.135244 0
M  V30 5101 H 504.803 3.3996 1.53236 0
M  V30 5102 N 506.988 0.0434614 1.5754 0
M  V30 5103 C 507.918 -0.931651 2.14109 0
M  V30 5104 C 508.899 -1.32971 1.06079 0
M  V30 5105 O 510.084 -1.40579 1.33982 0
M  V30 5106 C 507.214 -2.20914 2.67982 0
M  V30 5107 C 506.168 -1.95139 3.80926 0
M  V30 5108 C 505.494 -3.29276 4.21285 0
M  V30 5109 C 506.794 -1.27913 5.06395 0
M  V30 5110 H 508.488 -0.460497 2.95837 0
M  V30 5111 H 506.034 -0.220058 1.42309 0
M  V30 5112 H 507.987 -2.89522 3.06194 0
M  V30 5113 H 506.711 -2.70221 1.83434 0
M  V30 5114 H 505.37 -1.28945 3.43175 0
M  V30 5115 H 505.018 -3.76369 3.33699 0
M  V30 5116 H 504.718 -3.12831 4.97404 0
M  V30 5117 H 506.242 -3.99129 4.62091 0
M  V30 5118 H 507.656 -1.86544 5.42102 0
M  V30 5119 H 506.053 -1.2182 5.87605 0
M  V30 5120 H 507.123 -0.254066 4.84234 0
M  V30 5121 N 508.466 -1.55915 -0.229846 0
M  V30 5122 C 509.398 -1.88209 -1.30805 0
M  V30 5123 C 510.411 -0.769672 -1.43457 0
M  V30 5124 O 511.6 -1.04792 -1.44502 0
M  V30 5125 C 508.7 -2.06829 -2.68468 0
M  V30 5126 C 507.873 -3.37798 -2.77869 0
M  V30 5127 C 506.932 -3.45952 -3.96489 0
M  V30 5128 O 505.958 -4.19043 -3.85216 0
M  V30 5129 N 507.16 -2.76488 -5.10426 0
M  V30 5130 H 509.925 -2.81286 -1.03431 0
M  V30 5131 H 507.486 -1.5636 -0.41991 0
M  V30 5132 H 509.478 -2.09608 -3.46189 0
M  V30 5133 H 508.048 -1.20416 -2.88477 0
M  V30 5134 H 507.268 -3.4719 -1.86689 0
M  V30 5135 H 508.556 -4.24091 -2.81113 0
M  V30 5136 H 507.954 -2.16868 -5.2248 0
M  V30 5137 H 506.511 -2.84938 -5.8622 0
M  V30 5138 N 509.944 0.496216 -1.49584 0
M  V30 5139 C 510.854 1.62352 -1.69349 0
M  V30 5140 C 511.87 1.64184 -0.576147 0
M  V30 5141 O 513.046 1.82517 -0.85144 0
M  V30 5142 C 510.111 2.98698 -1.76013 0
M  V30 5143 C 509.172 3.07454 -2.99617 0
M  V30 5144 C 508.405 4.37296 -3.05953 0
M  V30 5145 O 508.628 5.2637 -2.19752 0
M  V30 5146 O 507.562 4.51124 -3.9846 0
M  V30 5147 H 511.388 1.48606 -2.64859 0
M  V30 5148 H 508.973 0.673022 -1.33382 0
M  V30 5149 H 510.855 3.79725 -1.82721 0
M  V30 5150 H 509.53 3.12696 -0.836828 0
M  V30 5151 H 508.437 2.25597 -2.98424 0
M  V30 5152 H 509.77 2.98385 -3.91443 0
M  V30 5153 N 511.423 1.38739 0.74761 0
M  V30 5154 C 512.37 1.36449 1.86146 0
M  V30 5155 C 513.34 0.226098 1.64554 0
M  V30 5156 O 514.525 0.41926 1.86137 0
M  V30 5157 C 511.665 1.2013 3.23516 0
M  V30 5158 C 510.778 2.43407 3.56899 0
M  V30 5159 C 509.913 2.19773 4.83605 0
M  V30 5160 C 508.952 3.3879 5.09792 0
M  V30 5161 N 508.089 3.14553 6.27695 0
M  V30 5162 H 512.929 2.3167 1.87438 0
M  V30 5163 H 510.466 1.15094 0.916063 0
M  V30 5164 H 512.424 1.08683 4.02795 0
M  V30 5165 H 511.054 0.285453 3.21535 0
M  V30 5166 H 510.106 2.65504 2.72418 0
M  V30 5167 H 511.418 3.32094 3.72176 0
M  V30 5168 H 510.572 2.05496 5.70838 0
M  V30 5169 H 509.311 1.28461 4.70478 0
M  V30 5170 H 508.316 3.53579 4.21025 0
M  V30 5171 H 509.541 4.30986 5.24812 0
M  V30 5172 H 507.487 2.25893 6.1588 0
M  V30 5173 H 507.404 3.96791 6.435 0
M  V30 5174 H 508.672 3.03943 7.17801 0
M  V30 5175 N 512.901 -0.976442 1.23707 0
M  V30 5176 C 514.126 -1.75875 1.09922 0
M  V30 5177 C 514.551 -1.84911 -0.34489 0
M  V30 5178 O 513.909 -1.31363 -1.24954 0
M  V30 5179 C 513.957 -3.16179 1.73388 0
M  V30 5180 O 513.061 -4.00124 0.99871 0
M  V30 5181 H 512.402 -0.540954 0.385052 0
M  V30 5182 H 514.932 -1.22546 1.6384 0
M  V30 5183 H 514.942 -3.66741 1.78788 0
M  V30 5184 H 513.617 -3.08917 2.78466 0
M  V30 5185 H 512.194 -3.58624 1.02193 0
M  V30 5186 N 514.379 -1.04941 -1.1758 0
M  V30 5187 C 515.311 -0.606174 -2.21039 0
M  V30 5188 C 516.324 0.328763 -1.59446 0
M  V30 5189 O 517.513 0.121895 -1.78083 0
M  V30 5190 C 514.613 0.133294 -3.38638 0
M  V30 5191 C 513.786 -0.811711 -4.29802 0
M  V30 5192 C 512.845 -0.113958 -5.26077 0
M  V30 5193 O 511.871 -0.747237 -5.64274 0
M  V30 5194 N 513.073 1.14953 -5.69004 0
M  V30 5195 H 515.838 -1.49606 -2.59689 0
M  V30 5196 H 513.399 -0.930997 -1.32454 0
M  V30 5197 H 515.391 0.610144 -4.00074 0
M  V30 5198 H 513.961 0.924816 -2.98607 0
M  V30 5199 H 513.181 -1.46824 -3.65837 0
M  V30 5200 H 514.469 -1.45326 -4.87604 0
M  V30 5201 H 513.867 1.68441 -5.40041 0
M  V30 5202 H 512.424 1.57049 -6.32597 0
M  V30 5203 N 515.857 1.33968 -0.830081 0
M  V30 5204 C 517.097 1.99879 -0.427521 0
M  V30 5205 C 517.461 1.64355 0.992546 0
M  V30 5206 O 518.662 2.23164 1.49837 0
M  V30 5207 C 516.933 3.51771 -0.631815 0
M  V30 5208 S 518.492 4.37608 -0.323168 0
M  V30 5209 H 515.31 0.692485 -0.161202 0
M  V30 5210 H 517.912 1.63129 -1.07745 0
M  V30 5211 H 516.616 3.75113 -1.66488 0
M  V30 5212 H 516.147 3.93386 0.0325936 0
M  V30 5213 H 518.162 4.88683 0.860432 0
M  V30 5214 N 517.335 0.585699 1.46312 0
M  V30 5215 C 518.298 -0.135673 2.28798 0
M  V30 5216 C 519.298 -0.815988 1.38558 0
M  V30 5217 O 520.488 -0.667487 1.60904 0
M  V30 5218 C 517.62 -1.20163 3.1902 0
M  V30 5219 H 518.813 0.589257 2.94054 0
M  V30 5220 H 516.366 0.343794 1.52472 0
M  V30 5221 H 517.101 -1.95804 2.58517 0
M  V30 5222 H 516.886 -0.718282 3.85465 0
M  V30 5223 H 518.376 -1.70749 3.81096 0
M  V30 5224 N 518.813 -1.54241 0.323641 0
M  V30 5225 C 519.743 -2.27289 -0.534993 0
M  V30 5226 C 520.724 -1.28087 -1.11927 0
M  V30 5227 O 521.909 -1.56899 -1.14439 0
M  V30 5228 C 519.039 -3.03075 -1.69596 0
M  V30 5229 C 517.993 -4.09614 -1.24098 0
M  V30 5230 C 517.319 -4.73242 -2.4889 0
M  V30 5231 C 518.619 -5.21087 -0.355789 0
M  V30 5232 H 520.313 -2.99308 0.0743257 0
M  V30 5233 H 517.859 -1.43952 0.0371874 0
M  V30 5234 H 519.812 -3.52907 -2.30293 0
M  V30 5235 H 518.536 -2.28673 -2.33187 0
M  V30 5236 H 517.195 -3.60666 -0.656945 0
M  V30 5237 H 516.843 -3.95455 -3.10845 0
M  V30 5238 H 516.543 -5.45209 -2.19138 0
M  V30 5239 H 518.067 -5.25848 -3.10348 0
M  V30 5240 H 519.481 -5.66675 -0.869042 0
M  V30 5241 H 517.878 -5.9991 -0.151045 0
M  V30 5242 H 518.948 -4.81005 0.613339 0
M  V30 5243 N 520.291 -0.0518155 -1.57515 0
M  V30 5244 C 521.201 0.937539 -2.15052 0
M  V30 5245 C 522.217 1.34121 -1.10849 0
M  V30 5246 O 523.393 1.418 -1.4302 0
M  V30 5247 C 520.458 2.19379 -2.68466 0
M  V30 5248 C 519.519 1.84841 -3.87469 0
M  V30 5249 C 518.752 3.04477 -4.38326 0
M  V30 5250 O 518.975 4.17868 -3.88256 0
M  V30 5251 O 517.909 2.85453 -5.29906 0
M  V30 5252 H 521.735 0.478201 -2.99912 0
M  V30 5253 H 519.32 0.17012 -1.48428 0
M  V30 5254 H 521.202 2.93084 -3.02787 0
M  V30 5255 H 519.877 2.64449 -1.86677 0
M  V30 5256 H 518.784 1.08449 -3.58036 0
M  V30 5257 H 520.117 1.44569 -4.7049 0
M  V30 5258 N 521.769 1.56035 0.221574 0
M  V30 5259 C 522.679 1.95581 1.29558 0
M  V30 5260 C 523.695 0.859639 1.51282 0
M  V30 5261 O 524.871 1.16321 1.64413 0
M  V30 5262 C 521.936 2.26447 2.62531 0
M  V30 5263 C 520.997 3.49632 2.4911 0
M  V30 5264 C 520.23 3.79017 3.75742 0
M  V30 5265 O 520.453 3.10077 4.78757 0
M  V30 5266 O 519.387 4.72507 3.72855 0
M  V30 5267 H 523.213 2.8711 0.990035 0
M  V30 5268 H 520.798 1.43244 0.424434 0
M  V30 5269 H 522.68 2.47494 3.41064 0
M  V30 5270 H 521.355 1.38092 2.92766 0
M  V30 5271 H 520.262 3.33864 1.68777 0
M  V30 5272 H 521.595 4.3837 2.23814 0
M  V30 5273 N 523.247 -0.488276 1.49845 0
M  V30 5274 C 524.477 -1.26344 1.63465 0
M  V30 5275 C 524.885 -1.86637 0.310379 0
M  V30 5276 O 524.228 -1.69184 -0.715712 0
M  V30 5277 C 524.29 -2.42407 2.65479 0
M  V30 5278 C 523.954 -2.02886 4.09495 0
M  V30 5279 C 524.951 -1.56124 4.95904 0
M  V30 5280 C 522.636 -2.12131 4.55308 0
M  V30 5281 C 524.63 -1.19129 6.26169 0
M  V30 5282 C 522.317 -1.74747 5.85582 0
M  V30 5283 C 523.315 -1.28322 6.70837 0
M  V30 5284 O 523.003 -0.914491 7.98682 0
M  V30 5285 H 522.735 -0.388921 0.552916 0
M  V30 5286 H 525.289 -0.591288 1.96705 0
M  V30 5287 H 523.519 -3.12739 2.27445 0
M  V30 5288 H 525.208 -3.04409 2.68495 0
M  V30 5289 H 525.974 -1.48417 4.61733 0
M  V30 5290 H 521.853 -2.47217 3.89107 0
M  V30 5291 H 525.397 -0.828211 6.92666 0
M  V30 5292 H 521.294 -1.82109 6.19279 0
M  V30 5293 H 522.062 -1.04485 8.11804 0
M  V30 5294 N 524.725 -1.39134 -0.740242 0
M  V30 5295 C 525.971 -1.36273 -1.50192 0
M  V30 5296 C 526.304 0.0430136 -1.94152 0
M  V30 5297 O 525.579 1.00691 -1.66408 0
M  V30 5298 C 525.862 -2.33041 -2.74525 0
M  V30 5299 C 525.715 -3.82535 -2.36617 0
M  V30 5300 C 527.034 -2.27723 -3.76604 0
M  V30 5301 H 524.153 -0.496323 -0.544823 0
M  V30 5302 H 526.795 -1.70085 -0.846815 0
M  V30 5303 H 524.945 -2.04337 -3.30422 0
M  V30 5304 H 526.617 -4.21967 -1.86391 0
M  V30 5305 H 524.86 -3.99565 -1.68909 0
M  V30 5306 H 525.531 -4.45723 -3.2563 0
M  V30 5307 H 528.007 -2.53091 -3.30279 0
M  V30 5308 H 526.883 -2.97519 -4.61274 0
M  V30 5309 H 527.144 -1.28049 -4.2315 0
M  V30 5310 N 526.204 0.969867 -1.24223 0
M  V30 5311 C 527.62 1.23809 -1.00716 0
M  V30 5312 C 527.82 1.99469 0.285358 0
M  V30 5313 O 526.876 2.31764 1.00207 0
M  V30 5314 C 528.189 2.02734 -2.2208 0
M  V30 5315 C 529.737 2.15834 -2.26681 0
M  V30 5316 C 530.212 2.98154 -3.47661 0
M  V30 5317 N 531.703 3.05737 -3.47964 0
M  V30 5318 C 532.438 3.69785 -4.38231 0
M  V30 5319 N 531.934 4.35569 -5.3875 0
M  V30 5320 N 533.727 3.66775 -4.25949 0
M  V30 5321 H 525.878 0.463294 -2.07286 0
M  V30 5322 H 528.141 0.267348 -0.909521 0
M  V30 5323 H 527.847 1.54524 -3.15935 0
M  V30 5324 H 527.721 3.0347 -2.24021 0
M  V30 5325 H 530.108 2.63248 -1.33359 0
M  V30 5326 H 530.189 1.14453 -2.28767 0
M  V30 5327 H 529.833 2.51435 -4.41297 0
M  V30 5328 H 529.763 3.99729 -3.42818 0
M  V30 5329 H 532.254 2.58941 -2.75242 0
M  V30 5330 H 532.567 4.82251 -6.03866 0
M  V30 5331 H 530.912 4.34244 -5.42639 0
M  V30 5332 H 534.103 3.14558 -3.46657 0
M  V30 5333 H 534.276 4.16407 -4.96497 0
M  V30 5334 N 527.682 1.05563 1.17022 0
M  V30 5335 C 528.907 0.788437 1.91829 0
M  V30 5336 C 529.332 -0.650356 1.76499 0
M  V30 5337 O 528.69 -1.45229 1.08527 0
M  V30 5338 C 528.738 1.1786 3.40795 0
M  V30 5339 O 527.842 0.312965 4.11211 0
M  V30 5340 H 527.183 0.288794 0.597908 0
M  V30 5341 H 529.713 1.40948 1.48307 0
M  V30 5342 H 529.723 1.14697 3.91546 0
M  V30 5343 H 528.398 2.22666 3.51273 0
M  V30 5344 H 526.975 0.405515 3.70689 0
M  V30 5345 N 529.16 -1.33526 0.837174 0
M  V30 5346 C 530.092 -2.28077 0.226579 0
M  V30 5347 C 531.105 -1.51666 -0.591717 0
M  V30 5348 O 532.294 -1.73511 -0.419064 0
M  V30 5349 C 529.394 -3.31597 -0.69978 0
M  V30 5350 C 528.567 -4.37329 0.0788067 0
M  V30 5351 C 527.626 -5.20526 -0.770637 0
M  V30 5352 O 526.652 -5.68811 -0.210453 0
M  V30 5353 N 527.854 -5.41639 -2.08825 0
M  V30 5354 H 530.619 -2.81115 1.03897 0
M  V30 5355 H 528.18 -1.46201 0.695476 0
M  V30 5356 H 530.172 -3.84158 -1.27298 0
M  V30 5357 H 528.742 -2.78848 -1.41288 0
M  V30 5358 H 527.962 -3.8529 0.833381 0
M  V30 5359 H 529.25 -5.05079 0.614238 0
M  V30 5360 H 528.648 -5.04108 -2.56693 0
M  V30 5361 H 527.205 -5.97263 -2.60998 0
M  V30 5362 N 530.638 -0.59345 -1.46 0
M  V30 5363 C 531.868 -0.0889642 -2.06408 0
M  V30 5364 C 532.276 1.22597 -1.44106 0
M  V30 5365 O 531.619 1.75448 -0.544398 0
M  V30 5366 C 531.681 0.139902 -3.59228 0
M  V30 5367 C 531.345 -1.09107 -4.43784 0
M  V30 5368 C 532.342 -2.00577 -4.79651 0
M  V30 5369 C 530.027 -1.31593 -4.84756 0
M  V30 5370 C 532.021 -3.12873 -5.55328 0
M  V30 5371 C 529.708 -2.44192 -5.60191 0
M  V30 5372 C 530.706 -3.34661 -5.95392 0
M  V30 5373 O 530.394 -4.45302 -6.69299 0
M  V30 5374 H 530.126 -0.0594613 -0.67338 0
M  V30 5375 H 532.68 -0.817 -1.88452 0
M  V30 5376 H 530.91 0.922672 -3.75531 0
M  V30 5377 H 532.599 0.594228 -4.01527 0
M  V30 5378 H 533.365 -1.84425 -4.48567 0
M  V30 5379 H 529.244 -0.620801 -4.56801 0
M  V30 5380 H 532.788 -3.83511 -5.82722 0
M  V30 5381 H 528.685 -2.60303 -5.90688 0
M  V30 5382 H 529.453 -4.43805 -6.87735 0
M  V30 5383 N 532.116 1.54067 -0.331816 0
M  V30 5384 C 533.527 1.86059 0.15454 0
M  V30 5385 C 533.878 1.25331 1.50952 0
M  V30 5386 O 533.003 0.562441 2.08963 0
M  V30 5387 C 533.598 3.37581 0.287192 0
M  V30 5388 C 532.157 3.69493 0.717773 0
M  V30 5389 C 531.304 2.76863 -0.155569 0
M  V30 5390 H 534.255 1.48797 -0.55182 0
M  V30 5391 H 534.276 3.63744 1.11671 0
M  V30 5392 H 533.788 3.81751 -0.699131 0
M  V30 5393 H 531.889 3.3086 1.71354 0
M  V30 5394 H 532.002 4.76315 0.5158 0
M  V30 5395 H 530.366 2.51995 0.370213 0
M  V30 5396 H 531.149 3.23861 -1.13881 0
M  V30 5397 N 533.594 0.0601682 1.57485 0
M  V30 5398 C 534.542 -0.928899 2.13247 0
M  V30 5399 C 535.536 -1.31616 1.06647 0
M  V30 5400 O 536.742 -1.29476 1.25043 0
M  V30 5401 H 533.117 -0.317455 0.681708 0
M  V30 5402 H 535.088 -0.433566 2.95233 0
M  V30 5403 C 533.837 -2.19121 2.69965 0
M  V30 5404 H 533.16 -1.90204 3.51657 0
M  V30 5405 H 534.6 -2.86465 3.12592 0
M  V30 5406 C 533.059 -2.94195 1.64168 0
M  V30 5407 O 533.589 -3.87468 1.05978 0
M  V30 5408 N 531.795 -2.57089 1.35476 0
M  V30 5409 H 531.342 -1.81314 1.82984 0
M  V30 5410 H 531.3 -3.07624 0.649196 0
M  V30 5411 N 535.072 -1.5615 -0.213296 0
M  V30 5412 C 536.004 -1.89586 -1.28802 0
M  V30 5413 C 537.017 -0.784844 -1.42633 0
M  V30 5414 O 538.206 -1.06319 -1.43383 0
M  V30 5415 C 535.306 -2.09665 -2.66259 0
M  V30 5416 C 534.479 -3.40726 -2.7427 0
M  V30 5417 C 533.538 -3.50137 -3.92798 0
M  V30 5418 O 532.564 -4.23105 -3.8075 0
M  V30 5419 N 533.766 -2.81886 -5.07465 0
M  V30 5420 H 536.531 -2.82368 -1.00442 0
M  V30 5421 H 534.092 -1.56796 -0.403302 0
M  V30 5422 H 536.084 -2.13268 -3.43946 0
M  V30 5423 H 534.654 -1.23469 -2.87183 0
M  V30 5424 H 533.874 -3.4915 -1.82997 0
M  V30 5425 H 535.162 -4.27048 -2.76599 0
M  V30 5426 H 534.56 -2.22397 -5.2015 0
M  V30 5427 H 533.117 -2.91139 -5.83165 0
M  V30 5428 N 536.55 0.480323 -1.50102 0
M  V30 5429 C 537.961 1.06142 -1.53593 0
M  V30 5430 C 538.312 1.93335 -0.334055 0
M  V30 5431 O 537.437 2.09188 0.55403 0
M  V30 5432 C 538.032 1.9317 -2.78336 0
M  V30 5433 C 536.591 2.46405 -2.84538 0
M  V30 5434 C 535.738 1.24521 -2.4777 0
M  V30 5435 H 538.689 0.26333 -1.565 0
M  V30 5436 H 538.71 2.78123 -2.59669 0
M  V30 5437 H 538.222 1.29683 -3.65792 0
M  V30 5438 H 536.323 3.13472 -2.01411 0
M  V30 5439 H 536.436 2.82143 -3.87211 0
M  V30 5440 H 534.8 1.57706 -2.00003 0
M  V30 5441 H 535.583 0.627102 -3.37524 0
M  V30 5442 N 538.028 1.39524 0.732853 0
M  V30 5443 C 539.253 1.40329 1.52717 0
M  V30 5444 C 539.678 0.000286574 1.881 0
M  V30 5445 O 539.036 -0.987262 1.52062 0
M  V30 5446 C 539.084 2.28464 2.78992 0
M  V30 5447 O 538.188 1.716 3.75003 0
M  V30 5448 H 537.529 0.47778 0.461109 0
M  V30 5449 H 540.059 1.83546 0.903996 0
M  V30 5450 H 540.069 2.43051 3.27705 0
M  V30 5451 H 538.744 3.30425 2.52572 0
M  V30 5452 H 537.321 1.66267 3.33781 0
M  V30 5453 N 539.506 -0.963266 1.24736 0
M  V30 5454 C 540.922 -1.23273 1.01371 0
M  V30 5455 C 541.122 -1.99618 -0.274776 0
M  V30 5456 O 540.178 -2.32293 -0.989769 0
M  V30 5457 C 541.491 -2.01554 2.23152 0
M  V30 5458 C 543.039 -2.14629 2.27823 0
M  V30 5459 C 543.514 -2.96307 3.49237 0
M  V30 5460 N 545.005 -3.03887 3.49581 0
M  V30 5461 C 545.74 -3.67456 4.40186 0
M  V30 5462 N 545.236 -4.32706 5.41052 0
M  V30 5463 N 547.029 -3.64511 4.27888 0
M  V30 5464 H 539.18 -0.452294 2.07528 0
M  V30 5465 H 541.443 -0.262521 0.910926 0
M  V30 5466 H 541.149 -1.52847 3.1675 0
M  V30 5467 H 541.023 -3.02278 2.25628 0
M  V30 5468 H 543.41 -2.62537 1.34753 0
M  V30 5469 H 543.491 -1.13238 2.2937 0
M  V30 5470 H 543.135 -2.49091 4.42624 0
M  V30 5471 H 543.065 -3.97905 3.44933 0
M  V30 5472 H 545.556 -2.57477 2.76611 0
M  V30 5473 H 545.869 -4.79042 6.06415 0
M  V30 5474 H 544.214 -4.31361 5.44934 0
M  V30 5475 H 547.405 -3.12715 3.4832 0
M  V30 5476 H 547.578 -4.13768 4.98698 0
M  V30 5477 N 540.985 -1.06182 -1.16461 0
M  V30 5478 C 542.232 -0.777863 -1.86964 0
M  V30 5479 C 542.56 0.695602 -1.81636 0
M  V30 5480 O 541.815 1.52532 -1.22607 0
M  V30 5481 C 542.114 -1.21633 -3.36066 0
M  V30 5482 C 541.78 -2.69371 -3.61594 0
M  V30 5483 C 540.442 -3.09727 -3.6827 0
M  V30 5484 C 542.794 -3.64791 -3.7226 0
M  V30 5485 C 540.122 -4.44345 -3.83112 0
M  V30 5486 C 542.474 -4.99155 -3.88623 0
M  V30 5487 C 541.138 -5.39149 -3.93541 0
M  V30 5488 H 540.408 -0.28464 -0.68415 0
M  V30 5489 H 543.055 -1.33071 -1.37711 0
M  V30 5490 H 541.36 -0.582651 -3.87443 0
M  V30 5491 H 543.057 -0.973682 -3.88999 0
M  V30 5492 H 539.647 -2.37124 -3.57029 0
M  V30 5493 H 543.831 -3.34746 -3.66413 0
M  V30 5494 H 539.087 -4.74819 -3.85172 0
M  V30 5495 H 543.261 -5.72976 -3.95817 0
M  V30 5496 H 540.888 -6.43464 -4.04794 0
M  V30 5497 N 542.463 1.3308 -0.844243 0
M  V30 5498 C 543.711 1.97215 -0.441676 0
M  V30 5499 C 544.032 1.67185 1.0037 0
M  V30 5500 O 543.302 0.973588 1.69994 0
M  V30 5501 H 541.882 0.72959 -0.160335 0
M  V30 5502 H 544.544 1.62348 -1.07838 0
M  V30 5503 H 543.64 3.06698 -0.57815 0
M  V30 5504 N 543.941 0.601185 1.45683 0
M  V30 5505 C 544.888 -0.121396 2.30481 0
M  V30 5506 C 545.858 -0.866232 1.41724 0
M  V30 5507 O 547.043 -0.85324 1.70659 0
M  V30 5508 C 544.183 -1.11704 3.26521 0
M  V30 5509 C 543.296 -0.373741 4.3038 0
M  V30 5510 C 542.431 -1.35854 5.13534 0
M  V30 5511 C 541.47 -0.602689 6.09126 0
M  V30 5512 N 540.607 -1.53645 6.85082 0
M  V30 5513 H 545.447 0.607732 2.91737 0
M  V30 5514 H 542.984 0.311502 1.43764 0
M  V30 5515 H 544.942 -1.70735 3.80664 0
M  V30 5516 H 543.572 -1.81366 2.67032 0
M  V30 5517 H 542.624 0.331962 3.78949 0
M  V30 5518 H 543.936 0.2163 4.98331 0
M  V30 5519 H 543.09 -2.02111 5.72046 0
M  V30 5520 H 541.829 -1.98251 4.45587 0
M  V30 5521 H 540.834 0.0735482 5.49751 0
M  V30 5522 H 542.059 0.0161467 6.79098 0
M  V30 5523 H 540.005 -2.14819 6.1983 0
M  V30 5524 H 539.922 -0.999688 7.49361 0
M  V30 5525 H 541.19 -2.1888 7.48139 0
M  V30 5526 N 545.419 -1.53889 0.339982 0
M  V30 5527 C 546.349 -2.27843 -0.510856 0
M  V30 5528 C 547.33 -1.29267 -1.10563 0
M  V30 5529 O 548.515 -1.58104 -1.12768 0
M  V30 5530 C 545.645 -3.04857 -1.66372 0
M  V30 5531 C 544.599 -4.10907 -1.19746 0
M  V30 5532 C 543.925 -4.75855 -2.43857 0
M  V30 5533 C 545.225 -5.21435 -0.300501 0
M  V30 5534 H 546.919 -2.99212 0.106067 0
M  V30 5535 H 544.465 -1.43904 0.0524533 0
M  V30 5536 H 546.418 -3.5533 -2.26537 0
M  V30 5537 H 545.142 -2.31133 -2.30749 0
M  V30 5538 H 543.801 -3.61342 -0.618654 0
M  V30 5539 H 543.449 -3.9873 -3.06633 0
M  V30 5540 H 543.149 -5.47502 -2.13343 0
M  V30 5541 H 544.673 -5.2911 -3.04754 0
M  V30 5542 H 546.087 -5.67565 -0.80889 0
M  V30 5543 H 544.484 -6.00036 -0.0874076 0
M  V30 5544 H 545.554 -4.80328 0.664321 0
M  V30 5545 N 546.897 -0.0685191 -1.57451 0
M  V30 5546 C 547.827 0.89747 -2.15564 0
M  V30 5547 C 548.808 1.31266 -1.08181 0
M  V30 5548 O 549.993 1.38429 -1.36202 0
M  V30 5549 C 547.123 2.16623 -2.71463 0
M  V30 5550 C 546.077 1.89054 -3.83982 0
M  V30 5551 C 545.403 3.22532 -4.26471 0
M  V30 5552 C 546.703 1.1984 -5.08366 0
M  V30 5553 H 548.397 0.413373 -2.96533 0
M  V30 5554 H 545.943 0.197391 -1.42641 0
M  V30 5555 H 547.896 2.84614 -3.10761 0
M  V30 5556 H 546.62 2.67269 -1.8771 0
M  V30 5557 H 545.279 1.23469 -3.45183 0
M  V30 5558 H 544.927 3.71013 -3.39644 0
M  V30 5559 H 544.627 3.04879 -5.02317 0
M  V30 5560 H 546.151 3.91727 -4.68383 0
M  V30 5561 H 547.565 1.77896 -5.45001 0
M  V30 5562 H 545.962 1.12456 -5.89469 0
M  V30 5563 H 547.032 0.176996 -4.84577 0
M  V30 5564 N 548.375 1.56261 0.205012 0
M  V30 5565 C 549.305 1.96779 1.257 0
M  V30 5566 C 550.286 0.838309 1.48008 0
M  V30 5567 O 551.471 1.10189 1.59913 0
M  V30 5568 C 548.601 2.29876 2.60335 0
M  V30 5569 C 547.555 3.45469 2.52656 0
M  V30 5570 C 546.881 3.64215 3.91473 0
M  V30 5571 C 548.181 4.79954 2.06014 0
M  V30 5572 H 549.875 2.84904 0.920338 0
M  V30 5573 H 547.421 1.37072 0.441277 0
M  V30 5574 H 549.374 2.56814 3.34102 0
M  V30 5575 H 548.098 1.38622 2.95722 0
M  V30 5576 H 546.757 3.18605 1.81345 0
M  V30 5577 H 546.405 2.70309 4.24196 0
M  V30 5578 H 546.105 4.41973 3.87213 0
M  V30 5579 H 547.629 3.93519 4.66878 0
M  V30 5580 H 549.043 5.05989 2.69533 0
M  V30 5581 H 547.44 5.61111 2.12777 0
M  V30 5582 H 548.51 4.74201 1.01297 0
M  V30 5583 N 549.853 -0.472356 1.50355 0
M  V30 5584 C 551.269 -0.806001 1.37753 0
M  V30 5585 C 551.469 -1.968 0.432649 0
M  V30 5586 O 550.525 -2.52189 -0.12519 0
M  V30 5587 C 551.838 -1.11926 2.79093 0
M  V30 5588 C 553.386 -1.22579 2.87999 0
M  V30 5589 C 553.861 -1.57218 4.3017 0
M  V30 5590 N 555.352 -1.64212 4.33115 0
M  V30 5591 C 556.087 -1.92517 5.40116 0
M  V30 5592 N 555.583 -2.1885 6.57325 0
M  V30 5593 N 557.376 -1.94008 5.27558 0
M  V30 5594 H 549.527 0.293451 2.10363 0
M  V30 5595 H 551.79 0.0687672 0.945503 0
M  V30 5596 H 551.496 -0.338504 3.50067 0
M  V30 5597 H 551.37 -2.05577 3.16256 0
M  V30 5598 H 553.757 -1.99722 2.17245 0
M  V30 5599 H 553.838 -0.269107 2.54381 0
M  V30 5600 H 553.482 -0.806154 5.01461 0
M  V30 5601 H 553.412 -2.54034 4.61275 0
M  V30 5602 H 555.903 -1.45906 3.48597 0
M  V30 5603 H 556.216 -2.39718 7.3468 0
M  V30 5604 H 554.561 -2.16245 6.60502 0
M  V30 5605 H 557.752 -1.72931 4.34986 0
M  V30 5606 H 557.925 -2.15731 6.11035 0
M  V30 5607 N 551.331 -1.39911 -0.725443 0
M  V30 5608 C 552.261 -1.42138 -1.85254 0
M  V30 5609 C 553.242 -0.283513 -1.67721 0
M  V30 5610 O 554.427 -0.490717 -1.87898 0
M  V30 5611 C 551.557 -1.27354 -3.23107 0
M  V30 5612 C 550.511 -2.3864 -3.55296 0
M  V30 5613 C 549.837 -2.08939 -4.92188 0
M  V30 5614 C 551.137 -3.8097 -3.57295 0
M  V30 5615 H 552.831 -2.36461 -1.83648 0
M  V30 5616 H 550.377 -1.13817 -0.882138 0
M  V30 5617 H 552.33 -1.2753 -4.01639 0
M  V30 5618 H 551.054 -0.295025 -3.25265 0
M  V30 5619 H 549.713 -2.37696 -2.79099 0
M  V30 5620 H 549.361 -1.09502 -4.90936 0
M  V30 5621 H 549.061 -2.83491 -5.14691 0
M  V30 5622 H 550.585 -2.10781 -5.73065 0
M  V30 5623 H 551.999 -3.8379 -4.25885 0
M  V30 5624 H 550.396 -4.5496 -3.9132 0
M  V30 5625 H 551.466 -4.11261 -2.5689 0
M  V30 5626 N 552.809 0.956637 -1.25245 0
M  V30 5627 C 554.22 1.51569 -1.09012 0
M  V30 5628 C 554.571 1.93322 0.334813 0
M  V30 5629 O 553.696 1.78421 1.22454 0
M  V30 5630 C 554.291 2.75444 -1.97271 0
M  V30 5631 C 552.85 3.27669 -1.8523 0
M  V30 5632 C 551.997 2.00517 -1.91542 0
M  V30 5633 H 554.948 0.773746 -1.3856 0
M  V30 5634 H 554.969 3.4919 -1.51151 0
M  V30 5635 H 554.481 2.45024 -3.00973 0
M  V30 5636 H 552.582 3.62914 -0.844045 0
M  V30 5637 H 552.695 3.9582 -2.69932 0
M  V30 5638 H 551.059 2.15727 -1.35404 0
M  V30 5639 H 551.842 1.72448 -2.96844 0
M  V30 5640 N 554.287 1.06798 1.15896 0
M  V30 5641 C 555.512 0.808739 1.90982 0
M  V30 5642 C 555.937 -0.6316 1.77179 0
M  V30 5643 O 555.295 -1.4407 1.10061 0
M  V30 5644 C 555.343 1.21468 3.39526 0
M  V30 5645 O 554.447 0.356562 4.10856 0
M  V30 5646 H 553.788 0.29512 0.594811 0
M  V30 5647 H 556.318 1.42513 1.46804 0
M  V30 5648 H 556.328 1.18844 3.90308 0
M  V30 5649 H 555.003 2.26379 3.48891 0
M  V30 5650 H 553.58 0.444808 3.70238 0
M  V30 5651 N 555.766 -1.3263 0.851289 0
M  V30 5652 C 556.696 -2.31449 0.308771 0
M  V30 5653 C 557.677 -1.59531 -0.590255 0
M  V30 5654 O 558.862 -1.87351 -0.511205 0
M  V30 5655 C 555.992 -3.43586 -0.506548 0
M  V30 5656 C 554.946 -4.26963 0.297753 0
M  V30 5657 C 554.272 -5.30831 -0.642094 0
M  V30 5658 C 555.572 -4.99643 1.52166 0
M  V30 5659 H 557.266 -2.77074 1.13447 0
M  V30 5660 H 554.812 -1.33207 0.546971 0
M  V30 5661 H 556.765 -4.11754 -0.896474 0
M  V30 5662 H 555.489 -2.96681 -1.36558 0
M  V30 5663 H 554.148 -3.60437 0.669391 0
M  V30 5664 H 553.796 -4.8018 -1.49788 0
M  V30 5665 H 553.496 -5.87501 -0.107968 0
M  V30 5666 H 555.02 -6.01862 -1.02927 0
M  V30 5667 H 556.434 -5.6051 1.20421 0
M  V30 5668 H 554.831 -5.66022 1.99347 0
M  V30 5669 H 555.901 -4.27701 2.28474 0
M  V30 5670 N 557.244 -0.608902 -1.45362 0
M  V30 5671 C 558.66 -0.272659 -1.57254 0
M  V30 5672 C 558.86 1.22477 -1.60005 0
M  V30 5673 O 557.916 2.00785 -1.53106 0
M  V30 5674 C 559.229 -0.944991 -2.85465 0
M  V30 5675 C 560.777 -0.921033 -2.99142 0
M  V30 5676 C 561.252 -1.5734 -4.30126 0
M  V30 5677 N 562.743 -1.53895 -4.36887 0
M  V30 5678 C 563.478 -2.01286 -5.36909 0
M  V30 5679 N 562.974 -2.56768 -6.43461 0
M  V30 5680 N 564.767 -1.92046 -5.28275 0
M  V30 5681 H 556.918 -1.58117 -1.4182 0
M  V30 5682 H 559.181 -0.662437 -0.678146 0
M  V30 5683 H 558.887 -1.99941 -2.89338 0
M  V30 5684 H 558.761 -0.469079 -3.74272 0
M  V30 5685 H 561.148 0.124846 -2.94836 0
M  V30 5686 H 561.229 -1.43522 -2.11743 0
M  V30 5687 H 560.873 -2.61862 -4.35191 0
M  V30 5688 H 560.803 -1.03422 -5.16344 0
M  V30 5689 H 563.294 -1.13366 -3.60495 0
M  V30 5690 H 563.607 -2.9072 -7.16032 0
M  V30 5691 H 561.952 -2.60808 -6.44208 0
M  V30 5692 H 565.143 -1.48439 -4.43941 0
M  V30 5693 H 565.316 -2.29293 -6.06077 0
M  V30 5694 N 558.722 1.53707 -0.348139 0
M  V30 5695 C 559.95 2.05406 0.248224 0
M  V30 5696 C 560.365 1.22282 1.43849 0
M  V30 5697 O 559.722 0.259244 1.80649 0
M  V30 5698 C 559.773 3.55446 0.658793 0
M  V30 5699 O 559.494 4.35417 -0.484149 0
M  V30 5700 C 560.995 4.23335 1.31539 0
M  V30 5701 H 558.215 0.669344 0.0471075 0
M  V30 5702 H 560.759 1.98257 -0.501456 0
M  V30 5703 H 558.914 3.62803 1.35841 0
M  V30 5704 H 559.328 5.24268 -0.155949 0
M  V30 5705 H 560.802 5.29692 1.55338 0
M  V30 5706 H 561.279 3.75967 2.27036 0
M  V30 5707 H 561.885 4.20184 0.657683 0
M  V30 5708 N 560.2 0.0768682 1.57412 0
M  V30 5709 C 561.446 -0.591961 1.93968 0
M  V30 5710 C 561.779 -1.68954 0.9575 0
M  V30 5711 O 561.054 -1.94496 -0.0124675 0
M  V30 5712 C 561.337 -1.16418 3.40762 0
M  V30 5713 C 561.19 -0.0728933 4.49741 0
M  V30 5714 C 562.509 -2.06814 3.88479 0
M  V30 5715 H 559.628 -0.213716 0.705333 0
M  V30 5716 H 562.27 0.14387 1.89455 0
M  V30 5717 H 560.42 -1.79128 3.4474 0
M  V30 5718 H 562.092 0.560446 4.57883 0
M  V30 5719 H 560.335 0.595859 4.29688 0
M  V30 5720 H 561.006 -0.513755 5.49604 0
M  V30 5721 H 563.482 -1.54033 3.8654 0
M  V30 5722 H 562.358 -2.43785 4.91793 0
M  V30 5723 H 562.619 -2.97844 3.26713 0
M  V30 5724 N 561.678 -1.56367 -0.196722 0
M  V30 5725 C 562.903 -1.84991 -0.937714 0
M  V30 5726 C 563.328 -0.660244 -1.76132 0
M  V30 5727 O 562.686 0.390967 -1.77034 0
M  V30 5728 C 562.734 -3.11828 -1.81096 0
M  V30 5729 O 561.838 -2.92266 -2.90955 0
M  V30 5730 H 561.179 -0.609193 -0.264159 0
M  V30 5731 H 563.709 -2.03595 -0.202529 0
M  V30 5732 H 563.719 -3.42579 -2.21594 0
M  V30 5733 H 562.394 -3.98037 -1.2058 0
M  V30 5734 H 560.971 -2.72809 -2.54224 0
M  V30 5735 N 563.156 0.464375 -1.50603 0
M  V30 5736 C 564.381 1.24372 -1.65971 0
M  V30 5737 C 564.806 1.84901 -0.345453 0
M  V30 5738 O 564.164 1.67596 0.691457 0
M  V30 5739 C 564.212 2.32331 -2.7578 0
M  V30 5740 O 563.316 3.37146 -2.375 0
M  V30 5741 H 562.657 0.365604 -0.554283 0
M  V30 5742 H 565.187 0.55183 -1.97018 0
M  V30 5743 H 565.197 2.77539 -2.99059 0
M  V30 5744 H 563.872 1.87648 -3.71162 0
M  V30 5745 H 562.449 2.97602 -2.24694 0
M  V30 5746 N 564.634 1.40294 0.718013 0
M  V30 5747 C 565.859 1.41941 1.5122 0
M  V30 5748 C 566.284 0.0202371 1.88089 0
M  V30 5749 O 565.642 -0.971078 1.53101 0
M  V30 5750 C 565.69 2.3141 2.76554 0
M  V30 5751 O 564.794 1.75567 3.73162 0
M  V30 5752 H 564.135 0.482644 0.456016 0
M  V30 5753 H 566.665 1.84494 0.884478 0
M  V30 5754 H 566.675 2.46513 3.25108 0
M  V30 5755 H 565.35 3.33085 2.49053 0
M  V30 5756 H 563.927 1.69798 3.31999 0
M  V30 5757 N 566.112 -0.949982 1.2575 0
M  V30 5758 C 567.358 -1.69766 1.10938 0
M  V30 5759 C 567.691 -1.91056 -0.348028 0
M  V30 5760 O 566.966 -1.48488 -1.25625 0
M  V30 5761 C 567.249 -3.07779 1.86933 0
M  V30 5762 C 567.102 -2.9387 3.4053 0
M  V30 5763 C 568.421 -4.07749 1.65616 0
M  V30 5764 H 565.54 -0.616144 0.404396 0
M  V30 5765 H 568.182 -1.10394 1.54639 0
M  V30 5766 H 566.332 -3.58462 1.4979 0
M  V30 5767 H 568.004 -2.50476 3.87375 0
M  V30 5768 H 566.247 -2.29686 3.68004 0
M  V30 5769 H 566.918 -3.91719 3.88922 0
M  V30 5770 H 569.394 -3.65994 1.97959 0
M  V30 5771 H 568.27 -5.02348 2.21218 0
M  V30 5772 H 568.531 -4.38029 0.598595 0
M  V30 5773 N 567.59 -1.07411 -1.15328 0
M  V30 5774 C 568.839 -0.792643 -1.85473 0
M  V30 5775 C 569.152 0.683789 -1.83259 0
M  V30 5776 O 570.358 1.08005 -2.49093 0
M  V30 5777 C 568.814 -1.36787 -3.32892 0
M  V30 5778 C 568.422 -2.87536 -3.43551 0
M  V30 5779 C 570.166 -1.16444 -4.08217 0
M  V30 5780 C 568.073 -3.38247 -4.85122 0
M  V30 5781 H 567.003 -0.292838 -0.694811 0
M  V30 5782 H 569.654 -1.29426 -1.30082 0
M  V30 5783 H 568.036 -0.793993 -3.87958 0
M  V30 5784 H 569.21 -3.50973 -2.98588 0
M  V30 5785 H 567.525 -3.06676 -2.81672 0
M  V30 5786 H 570.122 -1.51808 -5.12697 0
M  V30 5787 H 570.465 -0.10353 -4.16171 0
M  V30 5788 H 570.998 -1.70472 -3.59422 0
M  V30 5789 H 567.737 -4.43866 -4.82351 0
M  V30 5790 H 567.257 -2.79564 -5.30664 0
M  V30 5791 H 568.936 -3.34238 -5.5398 0
M  V30 5792 N 569.068 1.32177 -0.85831 0
M  V30 5793 C 569.978 2.32561 -0.308606 0
M  V30 5794 C 570.994 1.64209 0.575462 0
M  V30 5795 O 572.17 1.95719 0.474961 0
M  V30 5796 C 569.235 3.43207 0.490909 0
M  V30 5797 C 568.296 4.27243 -0.419733 0
M  V30 5798 C 567.529 5.32605 0.341719 0
M  V30 5799 O 567.752 5.48332 1.57125 0
M  V30 5800 O 566.686 6.0118 -0.294379 0
M  V30 5801 H 570.512 2.81477 -1.14037 0
M  V30 5802 H 568.097 1.35866 -0.621349 0
M  V30 5803 H 569.979 4.10677 0.944574 0
M  V30 5804 H 568.654 2.96474 1.29941 0
M  V30 5805 H 567.561 3.62569 -0.921652 0
M  V30 5806 H 568.894 4.7751 -1.19352 0
M  V30 5807 N 570.547 0.616602 1.45037 0
M  V30 5808 C 571.479 -0.135186 2.28801 0
M  V30 5809 C 572.492 -0.82303 1.40464 0
M  V30 5810 O 573.681 -0.686909 1.64754 0
M  V30 5811 C 570.781 -1.21292 3.16451 0
M  V30 5812 C 569.954 -0.61043 4.3312 0
M  V30 5813 C 569.013 -1.58022 5.01912 0
M  V30 5814 O 568.039 -1.10301 5.58411 0
M  V30 5815 N 569.241 -2.91464 5.02025 0
M  V30 5816 H 572.006 0.583612 2.93963 0
M  V30 5817 H 569.567 0.456723 1.55324 0
M  V30 5818 H 571.559 -1.86169 3.59337 0
M  V30 5819 H 570.129 -1.83412 2.53138 0
M  V30 5820 H 569.349 0.216638 3.93604 0
M  V30 5821 H 570.637 -0.188293 5.08451 0
M  V30 5822 H 570.035 -3.32829 4.57429 0
M  V30 5823 H 568.592 -3.51741 5.48745 0
M  V30 5824 N 572.025 -1.5352 0.356285 0
M  V30 5825 C 572.955 -2.28372 -0.486661 0
M  V30 5826 C 573.936 -1.30432 -1.09185 0
M  V30 5827 O 575.121 -1.59291 -1.11085 0
M  V30 5828 C 572.251 -3.06604 -1.63129 0
M  V30 5829 C 571.205 -4.12154 -1.15381 0
M  V30 5830 C 570.531 -4.78415 -2.38796 0
M  V30 5831 C 571.831 -5.21724 -0.245179 0
M  V30 5832 H 573.525 -2.99083 0.137797 0
M  V30 5833 H 571.071 -1.43841 0.0677134 0
M  V30 5834 H 573.024 -3.57712 -2.22755 0
M  V30 5835 H 571.748 -2.33568 -2.28284 0
M  V30 5836 H 570.407 -3.61978 -0.580294 0
M  V30 5837 H 570.055 -4.01959 -3.02387 0
M  V30 5838 H 569.755 -5.49734 -2.07524 0
M  V30 5839 H 571.279 -5.32313 -2.99125 0
M  V30 5840 H 572.693 -5.68391 -0.748646 0
M  V30 5841 H 571.09 -6.00095 -0.0237608 0
M  V30 5842 H 572.16 -4.79596 0.715229 0
M  V30 5843 N 573.503 -0.0852151 -1.57369 0
M  V30 5844 C 574.75 0.580806 -1.93992 0
M  V30 5845 C 575.078 1.68801 -0.966252 0
M  V30 5846 O 574.333 1.95694 0.0158649 0
M  V30 5847 C 574.632 1.18482 -3.3719 0
M  V30 5848 C 574.298 0.2024 -4.50446 0
M  V30 5849 C 572.96 -0.0678318 -4.81152 0
M  V30 5850 C 575.312 -0.46895 -5.19086 0
M  V30 5851 C 572.64 -1.01627 -5.77831 0
M  V30 5852 C 574.992 -1.4058 -6.16782 0
M  V30 5853 C 573.656 -1.68436 -6.45899 0
M  V30 5854 H 572.926 0.212532 -0.709867 0
M  V30 5855 H 575.573 -0.158947 -1.90839 0
M  V30 5856 H 573.878 2.0006 -3.36873 0
M  V30 5857 H 575.575 1.70767 -3.62822 0
M  V30 5858 H 572.165 0.423208 -4.26505 0
M  V30 5859 H 576.349 -0.273307 -4.95547 0
M  V30 5860 H 571.605 -1.2392 -5.9871 0
M  V30 5861 H 575.779 -1.93188 -6.69068 0
M  V30 5862 H 573.406 -2.42088 -7.20623 0
M  V30 5863 N 574.981 1.5647 0.188427 0
M  V30 5864 C 576.228 1.81013 0.907779 0
M  V30 5865 C 576.556 0.65953 1.82977 0
M  V30 5866 O 575.811 -0.354308 1.92466 0
M  V30 5867 C 576.11 3.11596 1.7505 0
M  V30 5868 C 575.776 4.40145 0.978922 0
M  V30 5869 C 574.438 4.75066 0.765912 0
M  V30 5870 C 576.79 5.19369 0.436498 0
M  V30 5871 C 574.118 5.867 -0.00089868 0
M  V30 5872 C 576.47 6.31805 -0.317136 0
M  V30 5873 C 575.134 6.65303 -0.541103 0
M  V30 5874 H 574.404 0.662373 0.33218 0
M  V30 5875 H 577.051 1.9071 0.173732 0
M  V30 5876 H 575.356 2.97165 2.55343 0
M  V30 5877 H 577.053 3.27793 2.30983 0
M  V30 5878 H 573.643 4.12745 1.15497 0
M  V30 5879 H 577.827 4.92799 0.588449 0
M  V30 5880 H 573.083 6.11122 -0.184329 0
M  V30 5881 H 577.257 6.92406 -0.744788 0
M  V30 5882 H 574.884 7.51646 -1.13718 0
M  V30 5883 N 576.459 -0.456382 1.50847 0
M  V30 5884 C 577.705 -1.20914 1.62811 0
M  V30 5885 C 578.038 -1.91301 0.334304 0
M  V30 5886 O 577.313 -1.82775 -0.665098 0
M  V30 5887 C 577.596 -2.24122 2.81853 0
M  V30 5888 C 577.449 -1.57944 4.21158 0
M  V30 5889 C 578.768 -3.25295 2.96431 0
M  V30 5890 H 575.887 -0.438233 0.592554 0
M  V30 5891 H 578.529 -0.50091 1.83278 0
M  V30 5892 H 576.679 -2.84524 2.64534 0
M  V30 5893 H 578.351 -1.01025 4.50102 0
M  V30 5894 H 576.594 -0.882185 4.24735 0
M  V30 5895 H 577.265 -2.33014 5.00408 0
M  V30 5896 H 579.741 -2.7493 3.12335 0
M  V30 5897 H 578.617 -3.94822 3.81322 0
M  V30 5898 H 578.878 -3.90286 2.07676 0
M  V30 5899 N 577.937 -1.40673 -0.710563 0
M  V30 5900 C 579.353 -1.22813 -1.01928 0
M  V30 5901 C 579.553 -0.10687 -2.01216 0
M  V30 5902 O 578.609 0.533614 -2.46797 0
M  V30 5903 C 579.922 -2.57178 -1.5582 0
M  V30 5904 C 581.47 -2.64233 -1.67779 0
M  V30 5905 C 581.945 -3.98879 -2.25076 0
M  V30 5906 N 583.436 -4.00647 -2.32456 0
M  V30 5907 C 584.171 -5.01621 -2.77784 0
M  V30 5908 N 583.667 -6.12989 -3.22826 0
M  V30 5909 N 585.46 -4.88988 -2.77213 0
M  V30 5910 H 577.611 -2.12335 -0.05253 0
M  V30 5911 H 579.874 -0.9441 -0.085898 0
M  V30 5912 H 579.58 -3.39903 -0.903249 0
M  V30 5913 H 579.454 -2.78618 -2.54267 0
M  V30 5914 H 581.841 -1.81876 -2.3239 0
M  V30 5915 H 581.922 -2.46619 -0.679178 0
M  V30 5916 H 581.566 -4.81678 -1.61086 0
M  V30 5917 H 581.496 -4.13826 -3.25661 0
M  V30 5918 H 583.987 -3.20231 -2.0065 0
M  V30 5919 H 584.3 -6.85921 -3.55995 0
M  V30 5920 H 582.645 -6.16547 -3.20773 0
M  V30 5921 H 585.836 -4.01075 -2.41363 0
M  V30 5922 H 586.009 -5.67822 -3.12221 0
M  V30 5923 N 579.415 0.9433 -1.26252 0
M  V30 5924 C 580.345 2.05902 -1.10122 0
M  V30 5925 C 581.326 1.70099 -0.00700552 0
M  V30 5926 O 582.511 1.93377 -0.178641 0
M  V30 5927 C 579.641 3.39516 -0.731175 0
M  V30 5928 C 578.595 3.89372 -1.77688 0
M  V30 5929 C 577.921 5.19613 -1.26122 0
M  V30 5930 C 579.221 4.14489 -3.17799 0
M  V30 5931 H 580.915 2.19655 -2.03451 0
M  V30 5932 H 578.461 1.05548 -0.979576 0
M  V30 5933 H 580.414 4.17031 -0.605215 0
M  V30 5934 H 579.138 3.25733 0.23782 0
M  V30 5935 H 577.797 3.14036 -1.89148 0
M  V30 5936 H 577.445 5.02208 -0.282128 0
M  V30 5937 H 577.145 5.53939 -1.96023 0
M  V30 5938 H 578.669 5.99713 -1.14789 0
M  V30 5939 H 580.083 4.82625 -3.09428 0
M  V30 5940 H 578.48 4.60094 -3.85271 0
M  V30 5941 H 579.55 3.20347 -3.64014 0
M  V30 5942 N 580.893 1.08022 1.14757 0
M  V30 5943 C 582.139 0.808705 1.85978 0
M  V30 5944 C 582.472 -0.663764 1.82504 0
M  V30 5945 O 581.747 -1.48765 1.25296 0
M  V30 5946 C 582.03 1.32623 3.34788 0
M  V30 5947 C 581.883 2.86375 3.46856 0
M  V30 5948 C 583.202 0.948291 4.29762 0
M  V30 5949 H 580.321 0.295244 0.675278 0
M  V30 5950 H 582.963 1.33917 1.34783 0
M  V30 5951 H 581.113 0.875002 3.78518 0
M  V30 5952 H 582.785 3.39839 3.11941 0
M  V30 5953 H 581.028 3.24232 2.88194 0
M  V30 5954 H 581.699 3.17658 4.51439 0
M  V30 5955 H 584.175 1.33722 3.94028 0
M  V30 5956 H 583.051 1.33765 5.32352 0
M  V30 5957 H 583.312 -0.145094 4.41862 0
M  V30 5958 N 582.371 -1.3172 0.865308 0
M  V30 5959 C 583.619 -1.96487 0.472995 0
M  V30 5960 C 583.94 -1.68761 -0.976975 0
M  V30 5961 O 583.21 -1.00051 -1.68424 0
M  V30 5962 H 581.79 -0.726947 0.171922 0
M  V30 5963 H 584.452 -1.60612 1.10407 0
M  V30 5964 H 583.548 -3.0574 0.62687 0
M  V30 5965 N 583.85 -0.624285 -1.44708 0
M  V30 5966 C 584.797 0.0847135 -2.30644 0
M  V30 5967 C 585.767 0.843575 -1.43084 0
M  V30 5968 O 586.952 0.825982 -1.71995 0
M  V30 5969 C 584.091 1.06495 -3.28257 0
M  V30 5970 C 583.205 0.305224 -4.3092 0
M  V30 5971 C 582.34 1.27667 -5.1563 0
M  V30 5972 C 581.379 0.505706 -6.10007 0
M  V30 5973 N 580.516 1.42727 -6.8744 0
M  V30 5974 H 585.356 -0.654068 -2.90733 0
M  V30 5975 H 582.893 -0.334334 -1.4325 0
M  V30 5976 H 584.851 1.64658 -3.83332 0
M  V30 5977 H 583.481 1.77094 -2.69884 0
M  V30 5978 H 582.533 -0.392207 -3.78373 0
M  V30 5979 H 583.845 -0.295553 -4.97924 0
M  V30 5980 H 582.999 1.92984 -5.75189 0
M  V30 5981 H 581.738 1.91137 -4.48685 0
M  V30 5982 H 580.743 -0.160999 -5.49564 0
M  V30 5983 H 581.968 -0.124183 -6.78986 0
M  V30 5984 H 579.913 2.04931 -6.23169 0
M  V30 5985 H 579.831 0.880345 -7.50857 0
M  V30 5986 H 581.099 2.0695 -7.51526 0
M  V30 5987 N 585.328 1.53329 -0.364422 0
M  V30 5988 C 586.556 2.05657 0.226424 0
M  V30 5989 C 586.971 1.23801 1.42544 0
M  V30 5990 O 586.328 0.27839 1.80364 0
M  V30 5991 C 586.379 3.56125 0.621056 0
M  V30 5992 O 586.1 4.34879 -0.530304 0
M  V30 5993 C 587.601 4.24706 1.27041 0
M  V30 5994 H 584.821 0.669806 0.0400056 0
M  V30 5995 H 587.365 1.97714 -0.522456 0
M  V30 5996 H 585.52 3.64223 1.31985 0
M  V30 5997 H 585.934 5.24073 -0.211546 0
M  V30 5998 H 587.408 5.3131 1.49711 0
M  V30 5999 H 587.885 3.78354 2.23036 0
M  V30 6000 H 588.491 4.20858 0.613079 0
M  V30 6001 N 586.806 0.0935595 1.57322 0
M  V30 6002 C 588.217 -0.435807 1.81542 0
M  V30 6003 C 588.568 -1.68263 1.00907 0
M  V30 6004 O 587.693 -2.15087 0.237983 0
M  V30 6005 C 588.288 -0.797436 3.29282 0
M  V30 6006 C 586.847 -1.27155 3.54272 0
M  V30 6007 C 585.994 -0.267455 2.76007 0
M  V30 6008 H 588.945 0.31902 1.5546 0
M  V30 6009 H 588.966 -1.6571 3.42521 0
M  V30 6010 H 588.478 0.110206 3.87943 0
M  V30 6011 H 586.579 -2.19696 3.00939 0
M  V30 6012 H 586.692 -1.23445 4.62923 0
M  V30 6013 H 585.056 -0.749282 2.43429 0
M  V30 6014 H 585.839 0.632839 3.37417 0
M  V30 6015 N 588.284 -1.56567 -0.180126 0
M  V30 6016 C 589.533 -1.80685 -0.896426 0
M  V30 6017 C 589.846 -0.669335 -1.83791 0
M  V30 6018 O 591.052 -0.795209 -2.59593 0
M  V30 6019 C 589.508 -3.20132 -1.6445 0
M  V30 6020 C 589.116 -4.41727 -0.747088 0
M  V30 6021 C 590.86 -3.53549 -2.34955 0
M  V30 6022 C 588.767 -5.72195 -1.49489 0
M  V30 6023 H 587.697 -0.673758 -0.338477 0
M  V30 6024 H 590.348 -1.8289 -0.149467 0
M  V30 6025 H 588.73 -3.12218 -2.43589 0
M  V30 6026 H 589.904 -4.608 0.00671129 0
M  V30 6027 H 588.219 -4.16122 -0.152134 0
M  V30 6028 H 590.816 -4.48267 -2.91481 0
M  V30 6029 H 591.159 -2.78006 -3.09868 0
M  V30 6030 H 591.692 -3.62976 -1.62768 0
M  V30 6031 H 588.431 -6.50743 -0.788251 0
M  V30 6032 H 587.951 -5.57115 -2.22224 0
M  V30 6033 H 589.63 -6.1384 -2.04472 0
M  V30 6034 N 589.762 0.448376 -1.51087 0
M  V30 6035 C 590.672 1.56882 -1.74428 0
M  V30 6036 C 591.688 1.62268 -0.62809 0
M  V30 6037 O 592.864 1.79716 -0.909075 0
M  V30 6038 C 589.929 2.92947 -1.85426 0
M  V30 6039 C 588.99 2.97766 -3.09247 0
M  V30 6040 C 588.223 4.27341 -3.19711 0
M  V30 6041 O 588.446 5.19112 -2.36387 0
M  V30 6042 O 587.38 4.38219 -4.12611 0
M  V30 6043 H 591.206 1.40104 -2.69452 0
M  V30 6044 H 588.791 0.630247 -1.35456 0
M  V30 6045 H 590.673 3.73719 -1.94709 0
M  V30 6046 H 589.348 3.09876 -0.935887 0
M  V30 6047 H 588.255 2.15989 -3.0545 0
M  V30 6048 H 589.588 2.8578 -4.00738 0
M  V30 6049 N 591.24 1.41047 0.703093 0
M  V30 6050 C 592.468 1.4334 1.49202 0
M  V30 6051 C 592.883 0.0365596 1.88765 0
M  V30 6052 O 592.24 -0.942419 1.56284 0
M  V30 6053 C 592.291 2.33538 2.75939 0
M  V30 6054 O 592.012 3.67786 2.38045 0
M  V30 6055 C 593.513 2.44555 3.6974 0
M  V30 6056 H 590.733 0.488472 0.460039 0
M  V30 6057 H 593.277 1.85245 0.86629 0
M  V30 6058 H 591.432 1.94962 3.34766 0
M  V30 6059 H 591.846 4.15816 3.19683 0
M  V30 6060 H 593.32 3.11849 4.55471 0
M  V30 6061 H 593.797 1.47447 4.1371 0
M  V30 6062 H 594.403 2.83735 3.16819 0
M  V30 6063 N 592.718 -0.936591 1.26751 0
M  V30 6064 C 593.648 -2.05315 1.11212 0
M  V30 6065 C 594.629 -1.70092 0.0160262 0
M  V30 6066 O 595.814 -1.93279 0.188894 0
M  V30 6067 C 592.944 -3.39123 0.749171 0
M  V30 6068 C 591.898 -3.88425 1.79751 0
M  V30 6069 C 591.224 -5.18936 1.28876 0
M  V30 6070 C 592.524 -4.12798 3.19992 0
M  V30 6071 H 594.218 -2.18573 2.04613 0
M  V30 6072 H 591.764 -1.05027 0.985159 0
M  V30 6073 H 593.717 -4.16704 0.627323 0
M  V30 6074 H 592.441 -3.25855 -0.220543 0
M  V30 6075 H 591.1 -3.13028 1.90811 0
M  V30 6076 H 590.748 -5.02051 0.308757 0
M  V30 6077 H 590.448 -5.52892 1.98958 0
M  V30 6078 H 591.972 -5.99096 1.17967 0
M  V30 6079 H 593.386 -4.80977 3.11983 0
M  V30 6080 H 591.783 -4.58044 3.87705 0
M  V30 6081 H 592.853 -3.18412 3.65707 0
M  V30 6082 N 594.196 -1.08629 -1.14182 0
M  V30 6083 C 595.445 -0.812271 -1.84621 0
M  V30 6084 C 595.758 0.664313 -1.83973 0
M  V30 6085 O 596.964 1.05357 -2.50224 0
M  V30 6086 C 595.42 -1.4031 -3.31423 0
M  V30 6087 C 595.028 -2.91164 -3.40481 0
M  V30 6088 C 596.772 -1.20767 -4.06959 0
M  V30 6089 C 594.679 -3.43373 -4.81507 0
M  V30 6090 H 593.609 -0.30019 -0.691666 0
M  V30 6091 H 596.26 -1.30798 -1.28701 0
M  V30 6092 H 594.642 -0.835096 -3.87094 0
M  V30 6093 H 595.816 -3.5412 -2.94848 0
M  V30 6094 H 594.131 -3.09646 -2.78403 0
M  V30 6095 H 596.728 -1.57237 -5.11058 0
M  V30 6096 H 597.071 -0.147664 -4.16038 0
M  V30 6097 H 597.604 -1.74274 -3.57594 0
M  V30 6098 H 594.343 -4.48958 -4.77616 0
M  V30 6099 H 593.863 -2.85176 -5.27669 0
M  V30 6100 H 595.542 -3.40095 -5.50404 0
M  V30 6101 N 595.674 1.31259 -0.872281 0
M  V30 6102 C 597.09 1.49283 -0.564521 0
M  V30 6103 C 597.29 1.80243 0.900807 0
M  V30 6104 O 596.346 1.88246 1.68284 0
M  V30 6105 C 597.659 2.62503 -1.46673 0
M  V30 6106 C 599.207 2.76386 -1.46901 0
M  V30 6107 C 599.682 3.92705 -2.35684 0
M  V30 6108 N 601.173 3.99995 -2.33577 0
M  V30 6109 C 601.908 4.89276 -2.98992 0
M  V30 6110 N 601.404 5.83443 -3.73585 0
M  V30 6111 N 603.197 4.82541 -2.88289 0
M  V30 6112 H 595.348 1.09432 -1.82039 0
M  V30 6113 H 597.611 0.540949 -0.77851 0
M  V30 6114 H 597.317 2.46407 -2.50951 0
M  V30 6115 H 597.191 3.58695 -1.16696 0
M  V30 6116 H 599.578 2.91894 -0.433796 0
M  V30 6117 H 599.659 1.80853 -1.80903 0
M  V30 6118 H 599.303 3.77954 -3.39283 0
M  V30 6119 H 599.233 4.87549 -1.99006 0
M  V30 6120 H 601.724 3.32624 -1.7936 0
M  V30 6121 H 602.037 6.48303 -4.20622 0
M  V30 6122 H 600.382 5.83415 -3.77694 0
M  V30 6123 H 603.573 4.07951 -2.2955 0
M  V30 6124 H 603.746 5.51916 -3.39549 0
M  V30 6125 N 597.152 0.631951 1.44375 0
M  V30 6126 C 598.429 0.067646 1.95483 0
M  V30 6127 C 598.809 -1.40683 1.57389 0
M  V30 6128 O 598.157 -2.12167 0.848375 0
M  V30 6129 C 598.367 0.291392 3.47781 0
M  V30 6130 C 599.715 0.185028 4.24197 0
M  V30 6131 O 600.739 0.222803 3.55503 0
M  V30 6132 O 599.598 0.0906642 5.46425 0
M  V30 6133 H 596.692 -0.0218379 0.826712 0
M  V30 6134 H 599.238 0.703711 1.54421 0
M  V30 6135 H 598.01 1.31449 3.68561 0
M  V30 6136 H 597.633 -0.378772 3.95792 0
M  V30 6137 N 598.631 -1.53133 0.372548 0
M  V30 6138 C 599.564 -2.22328 -0.514361 0
M  V30 6139 C 600.542 -1.21776 -1.07747 0
M  V30 6140 O 601.726 -1.50704 -1.13228 0
M  V30 6141 C 598.853 -2.92343 -1.71035 0
M  V30 6142 C 597.899 -4.07026 -1.27405 0
M  V30 6143 S 598.732 -5.34821 -0.269526 0
M  V30 6144 C 599.888 -6.08352 -1.47168 0
M  V30 6145 H 600.121 -2.9721 0.0732683 0
M  V30 6146 H 597.654 -1.53603 0.156673 0
M  V30 6147 H 599.612 -3.33296 -2.39634 0
M  V30 6148 H 598.273 -2.17173 -2.26925 0
M  V30 6149 H 597.466 -4.55056 -2.16656 0
M  V30 6150 H 597.068 -3.68001 -0.66719 0
M  V30 6151 H 599.36 -6.33507 -2.40157 0
M  V30 6152 H 600.303 -7.0053 -1.03263 0
M  V30 6153 H 600.711 -5.38893 -1.6809 0
M  V30 6154 N 600.109 -0.101901 -1.5727 0
M  V30 6155 C 601.039 0.851544 -2.17419 0
M  V30 6156 C 602.02 1.28942 -1.10941 0
M  V30 6157 O 603.205 1.35509 -1.39107 0
M  V30 6158 C 600.335 2.10816 -2.75996 0
M  V30 6159 C 599.289 1.80867 -3.87906 0
M  V30 6160 C 598.615 3.13413 -4.33216 0
M  V30 6161 C 599.915 1.0903 -5.10793 0
M  V30 6162 H 601.609 0.350381 -2.97343 0
M  V30 6163 H 599.155 0.16709 -1.43027 0
M  V30 6164 H 601.108 2.77959 -3.16729 0
M  V30 6165 H 599.832 2.63227 -1.93337 0
M  V30 6166 H 598.491 1.16119 -3.47724 0
M  V30 6167 H 598.139 3.63725 -3.47438 0
M  V30 6168 H 597.839 2.94155 -5.08671 0
M  V30 6169 H 599.363 3.81704 -4.76586 0
M  V30 6170 H 600.777 1.66295 -5.48652 0
M  V30 6171 H 599.174 0.99927 -5.91722 0
M  V30 6172 H 600.244 0.0741704 -4.84843 0
M  V30 6173 N 601.587 1.56661 0.17182 0
M  V30 6174 C 602.517 1.99401 1.21498 0
M  V30 6175 C 603.498 0.869516 1.46197 0
M  V30 6176 O 604.683 1.13556 1.57539 0
M  V30 6177 C 601.813 2.35346 2.55401 0
M  V30 6178 C 600.767 3.5075 2.45272 0
M  V30 6179 C 600.093 3.72437 3.8366 0
M  V30 6180 C 601.393 4.84216 1.95787 0
M  V30 6181 H 603.087 2.86792 0.859699 0
M  V30 6182 H 600.633 1.37977 0.412103 0
M  V30 6183 H 602.586 2.63843 3.2858 0
M  V30 6184 H 601.31 1.44864 2.92715 0
M  V30 6185 H 599.969 3.2238 1.74547 0
M  V30 6186 H 599.617 2.79246 4.18367 0
M  V30 6187 H 599.317 4.50087 3.77751 0
M  V30 6188 H 600.841 4.03334 4.58426 0
M  V30 6189 H 602.255 5.11592 2.5874 0
M  V30 6190 H 600.652 5.65498 2.00827 0
M  V30 6191 H 601.722 4.76243 0.912159 0
M  V30 6192 N 603.065 -0.440357 1.51323 0
M  V30 6193 C 604.29 -1.21716 1.67928 0
M  V30 6194 C 604.715 -1.84328 0.374826 0
M  V30 6195 O 604.073 -1.68675 -0.664706 0
M  V30 6196 C 604.121 -2.27914 2.79442 0
M  V30 6197 O 603.225 -3.33325 2.42834 0
M  V30 6198 H 602.566 -0.35674 0.560029 0
M  V30 6199 H 605.096 -0.520417 1.97871 0
M  V30 6200 H 605.106 -2.72746 3.03436 0
M  V30 6201 H 603.781 -1.8172 3.741 0
M  V30 6202 H 602.358 -2.9399 2.294 0
M  V30 6203 N 604.543 -1.41418 -0.695603 0
M  V30 6204 C 605.791 -1.40496 -1.45277 0
M  V30 6205 C 606.112 -0.0149538 -1.94994 0
M  V30 6206 O 605.382 0.9432 -1.71699 0
M  V30 6207 H 603.962 -0.517147 -0.539044 0
M  V30 6208 H 606.624 -1.76656 -0.823321 0
M  V30 6209 H 605.72 -2.09214 -2.31595 0
M  V30 6210 N 606.021 0.929856 -1.27246 0
M  V30 6211 C 607.246 1.71674 -1.16374 0
M  V30 6212 C 607.671 1.86064 0.276024 0
M  V30 6213 O 607.029 1.3591 1.19992 0
M  V30 6214 C 607.077 3.09526 -1.85003 0
M  V30 6215 O 606.181 3.96142 -1.14653 0
M  V30 6216 H 605.522 0.52629 -0.404863 0
M  V30 6217 H 608.052 1.16381 -1.68276 0
M  V30 6218 H 608.062 3.59852 -1.92276 0
M  V30 6219 H 606.737 2.98369 -2.89739 0
M  V30 6220 H 605.314 3.54584 -1.15433 0
M  V30 6221 N 607.499 1.09233 1.13605 0
M  V30 6222 C 608.724 0.849067 1.89224 0
M  V30 6223 C 609.149 -0.593875 1.78479 0
M  V30 6224 O 608.507 -1.41703 1.13092 0
M  V30 6225 C 608.555 1.28642 3.36873 0
M  V30 6226 O 607.659 0.44363 4.10007 0
M  V30 6227 H 607 0.30767 0.588417 0
M  V30 6228 H 609.53 1.45595 1.43748 0
M  V30 6229 H 609.54 1.27096 3.87699 0
M  V30 6230 H 608.215 2.33729 3.44011 0
M  V30 6231 H 606.792 0.523241 3.69211 0
M  V30 6232 N 608.977 -1.30795 0.87923 0
M  V30 6233 C 610.224 -1.96362 0.494786 0
M  V30 6234 C 610.552 -1.69448 -0.954868 0
M  V30 6235 O 609.807 -0.988711 -1.68888 0
M  V30 6236 C 610.106 -3.50287 0.709476 0
M  V30 6237 C 609.772 -3.9724 2.13333 0
M  V30 6238 C 608.434 -4.09772 2.52271 0
M  V30 6239 C 610.786 -4.21807 3.06151 0
M  V30 6240 C 608.114 -4.44227 3.83248 0
M  V30 6241 C 610.466 -4.5773 4.36654 0
M  V30 6242 C 609.13 -4.68469 4.75492 0
M  V30 6243 H 608.4 -0.71854 0.181055 0
M  V30 6244 H 611.047 -1.55764 1.11399 0
M  V30 6245 H 609.352 -3.91799 0.0072 0
M  V30 6246 H 611.049 -3.99082 0.391703 0
M  V30 6247 H 607.639 -3.87988 1.82107 0
M  V30 6248 H 611.823 -4.11611 2.77291 0
M  V30 6249 H 607.079 -4.50741 4.13089 0
M  V30 6250 H 611.253 -4.7569 5.08617 0
M  V30 6251 H 608.88 -4.94923 5.77022 0
M  V30 6252 N 610.455 -0.639598 -1.44038 0
M  V30 6253 C 611.403 0.0723409 -2.32487 0
M  V30 6254 C 612.397 0.827129 -1.47834 0
M  V30 6255 O 613.603 0.73907 -1.64127 0
M  V30 6256 H 609.978 0.0421696 -0.750817 0
M  V30 6257 H 611.949 -0.691593 -2.90275 0
M  V30 6258 C 610.698 1.03452 -3.31953 0
M  V30 6259 H 610.021 0.46315 -3.97108 0
M  V30 6260 H 611.461 1.502 -3.96505 0
M  V30 6261 C 609.92 2.12392 -2.61518 0
M  V30 6262 O 610.45 3.2059 -2.42044 0
M  V30 6263 N 608.656 1.88563 -2.21116 0
M  V30 6264 H 608.203 1.00577 -2.37154 0
M  V30 6265 H 608.161 2.61651 -1.74316 0
M  V30 6266 N 611.933 1.52934 -0.380664 0
M  V30 6267 C 613.179 2.02443 0.197089 0
M  V30 6268 C 613.534 1.26249 1.45186 0
M  V30 6269 O 612.827 0.351964 1.8834 0
M  V30 6270 C 613.021 3.5349 0.527199 0
M  V30 6271 C 612.85 4.44312 -0.694027 0
M  V30 6272 C 611.62 4.90582 -1.21068 0
M  V30 6273 C 613.818 4.8995 -1.56377 0
M  V30 6274 N 611.8 5.65451 -2.39036 0
M  V30 6275 C 613.171 5.63313 -2.58995 0
M  V30 6276 C 615.226 4.72002 -1.58488 0
M  V30 6277 C 613.929 6.20635 -3.63599 0
M  V30 6278 C 615.955 5.30201 -2.61995 0
M  V30 6279 C 615.317 6.03463 -3.63335 0
M  V30 6280 H 611.416 0.781241 0.0344357 0
M  V30 6281 H 614 1.87387 -0.528609 0
M  V30 6282 H 612.171 3.68677 1.22196 0
M  V30 6283 H 613.903 3.89707 1.09135 0
M  V30 6284 H 610.658 4.67249 -0.772995 0
M  V30 6285 H 611.082 6.07541 -2.98701 0
M  V30 6286 H 615.724 4.14873 -0.814891 0
M  V30 6287 H 613.442 6.76852 -4.41472 0
M  V30 6288 H 617.028 5.182 -2.645 0
M  V30 6289 H 615.908 6.47693 -4.42113 0
M  V30 6290 N 613.412 0.11024 1.57214 0
M  V30 6291 C 614.823 -0.416527 1.81994 0
M  V30 6292 C 615.174 -1.67183 1.02686 0
M  V30 6293 O 614.299 -2.14823 0.260782 0
M  V30 6294 C 614.894 -0.762466 3.30109 0
M  V30 6295 C 613.453 -1.23391 3.556 0
M  V30 6296 C 612.6 -0.238166 2.76275 0
M  V30 6297 H 615.551 0.335491 1.55113 0
M  V30 6298 H 615.572 -1.62068 3.44259 0
M  V30 6299 H 615.084 0.151346 3.87805 0
M  V30 6300 H 613.185 -2.16492 3.03253 0
M  V30 6301 H 613.298 -1.18528 4.64207 0
M  V30 6302 H 611.662 -0.723421 2.4421 0
M  V30 6303 H 612.445 0.668591 3.36727 0
M  V30 6304 N 614.89 -1.56749 -0.16351 0
M  V30 6305 C 616.12 -1.86307 -0.892936 0
M  V30 6306 C 616.528 -0.6945 -1.75992 0
M  V30 6307 O 615.871 0.345384 -1.80424 0
M  V30 6308 C 615.933 -3.10372 -1.81409 0
M  V30 6309 C 615.597 -4.42913 -1.12593 0
M  V30 6310 C 616.594 -5.17608 -0.487661 0
M  V30 6311 C 614.279 -4.89646 -1.12035 0
M  V30 6312 C 616.273 -6.3723 0.14699 0
M  V30 6313 C 613.96 -6.09197 -0.481883 0
M  V30 6314 C 614.958 -6.82834 0.150678 0
M  V30 6315 O 614.646 -8.00116 0.779065 0
M  V30 6316 H 614.378 -0.622126 -0.264452 0
M  V30 6317 H 616.932 -2.04728 -0.166063 0
M  V30 6318 H 615.162 -2.87917 -2.58148 0
M  V30 6319 H 616.851 -3.26312 -2.41403 0
M  V30 6320 H 617.617 -4.8258 -0.483888 0
M  V30 6321 H 613.496 -4.32265 -1.60212 0
M  V30 6322 H 617.04 -6.94646 0.641325 0
M  V30 6323 H 612.937 -6.43688 -0.483266 0
M  V30 6324 H 613.705 -8.15678 0.679089 0
M  V30 6325 N 616.368 0.432326 -1.51554 0
M  V30 6326 C 617.301 1.54525 -1.6792 0
M  V30 6327 C 618.279 1.53831 -0.526764 0
M  V30 6328 O 619.463 1.72884 -0.751233 0
M  V30 6329 C 616.59 2.931 -1.69736 0
M  V30 6330 C 615.636 3.11799 -2.91005 0
M  V30 6331 S 616.469 2.87565 -4.51737 0
M  V30 6332 C 617.625 4.28412 -4.56305 0
M  V30 6333 H 617.858 1.4041 -2.62054 0
M  V30 6334 H 615.391 0.622357 -1.41301 0
M  V30 6335 H 617.349 3.72974 -1.71467 0
M  V30 6336 H 616.01 3.04574 -0.767705 0
M  V30 6337 H 615.203 4.13127 -2.8869 0
M  V30 6338 H 614.805 2.39757 -2.87041 0
M  V30 6339 H 617.097 5.21692 -4.32254 0
M  V30 6340 H 618.04 4.35758 -5.58141 0
M  V30 6341 H 618.448 4.12301 -3.85576 0
M  V30 6342 N 617.846 1.41785 0.688094 0
M  V30 6343 C 619.071 1.45117 1.48175 0
M  V30 6344 C 619.496 0.060129 1.88004 0
M  V30 6345 O 618.854 -0.938385 1.55126 0
M  V30 6346 C 618.902 2.37224 2.71583 0
M  V30 6347 O 618.006 1.83443 3.69354 0
M  V30 6348 H 617.347 0.492208 0.445676 0
M  V30 6349 H 619.877 1.86329 0.845145 0
M  V30 6350 H 619.887 2.53353 3.19806 0
M  V30 6351 H 618.562 3.38293 2.41931 0
M  V30 6352 H 617.139 1.76802 3.28322 0
M  V30 6353 N 619.324 -0.923095 1.27737 0
M  V30 6354 C 620.573 -1.66581 1.13727 0
M  V30 6355 C 620.886 -1.9304 -0.315433 0
M  V30 6356 O 622.092 -2.65309 -0.57651 0
M  V30 6357 C 620.548 -3.00047 1.98745 0
M  V30 6358 C 620.156 -2.8127 3.48699 0
M  V30 6359 C 621.9 -3.77887 1.93395 0
M  V30 6360 C 619.807 -4.1032 4.25901 0
M  V30 6361 H 618.737 -0.624834 0.422017 0
M  V30 6362 H 621.388 -1.02514 1.52194 0
M  V30 6363 H 619.77 -3.65197 1.53125 0
M  V30 6364 H 620.944 -2.24859 4.02213 0
M  V30 6365 H 619.259 -2.16854 3.55476 0
M  V30 6366 H 621.856 -4.73526 2.48348 0
M  V30 6367 H 622.199 -4.06264 0.908605 0
M  V30 6368 H 622.732 -3.19541 2.36935 0
M  V30 6369 H 619.471 -3.8712 5.28978 0
M  V30 6370 H 618.991 -4.66377 3.77163 0
M  V30 6371 H 620.67 -4.78648 4.35321 0
M  V30 6372 N 620.802 -1.09834 -1.13024 0
M  V30 6373 C 621.734 -0.699379 -2.18269 0
M  V30 6374 C 622.747 0.260841 -1.60697 0
M  V30 6375 O 623.936 0.0462538 -1.7844 0
M  V30 6376 C 621.036 -0.0104537 -3.38898 0
M  V30 6377 C 620.209 -0.993275 -4.25973 0
M  V30 6378 C 619.268 -0.336982 -5.2512 0
M  V30 6379 O 618.294 -0.985892 -5.60597 0
M  V30 6380 N 619.496 0.90716 -5.73368 0
M  V30 6381 H 622.261 -1.60486 -2.5311 0
M  V30 6382 H 619.822 -0.986337 -1.28386 0
M  V30 6383 H 621.814 0.43991 -4.02302 0
M  V30 6384 H 620.384 0.797335 -3.0226 0
M  V30 6385 H 619.604 -1.62208 -3.5928 0
M  V30 6386 H 620.892 -1.65876 -4.81002 0
M  V30 6387 H 620.29 1.45384 -5.46699 0
M  V30 6388 H 618.847 1.30077 -6.38689 0
M  V30 6389 N 622.28 1.30327 -0.886154 0
M  V30 6390 C 623.52 1.97886 -0.511912 0
M  V30 6391 C 623.884 1.68417 0.921944 0
M  V30 6392 O 625.085 2.29319 1.40237 0
M  V30 6393 C 623.356 3.48775 -0.780444 0
M  V30 6394 S 624.915 4.35844 -0.508482 0
M  V30 6395 H 621.733 0.685024 -0.190428 0
M  V30 6396 H 624.335 1.58413 -1.14567 0
M  V30 6397 H 623.039 3.67714 -1.82248 0
M  V30 6398 H 622.57 3.93171 -0.134284 0
M  V30 6399 H 624.585 4.91893 0.65239 0
M  V30 6400 N 623.758 0.647228 1.43697 0
M  V30 6401 C 624.983 0.164083 2.0675 0
M  V30 6402 C 625.408 -1.15892 1.48158 0
M  V30 6403 O 624.766 -1.71459 0.589194 0
M  V30 6404 C 624.814 0.0800368 3.60511 0
M  V30 6405 O 623.918 -0.959453 4.01084 0
M  V30 6406 H 623.259 0.0921288 0.657578 0
M  V30 6407 H 625.789 0.88846 1.84303 0
M  V30 6408 H 625.799 -0.105263 4.07864 0
M  V30 6409 H 624.474 1.04586 4.02535 0
M  V30 6410 H 623.051 -0.747425 3.65333 0
M  V30 6411 O 625.275 -1.52523 0.530952 0
M  V30 6412 H 625.966 -1.93688 0.0212942 0
M  V30 END ATOM
M  V30 BEGIN BOND
M  V30 END BOND
M  V30 END CTAB
M  END
$$$$
