drugbank_target|P10620 Microsomal glutathione S-transferase 1 (DB00143; DB03310)
 OpenBabel12092120083D

  0  0  0     0  0            999 V3000
M  V30 BEGIN CTAB
M  V30 COUNTS 2510 2538 0 0 0
M  V30 BEGIN ATOM
M  V30 1 H -0.908 1.98254 -0.117106 0
M  V30 2 N 0 1.576 0 0
M  V30 3 C 0.933 2.03868 1.02534 0
M  V30 4 C 1.911 0.928543 1.3348 0
M  V30 5 O 3.095 1.19667 1.45644 0
M  V30 6 C 0.222 2.43627 2.35294 0
M  V30 7 C -0.732 3.65373 2.2001 0
M  V30 8 S 0.101 5.13292 1.52614 0
M  V30 9 C 1.257 5.56322 2.86805 0
M  V30 10 H 1.49 2.90518 0.631377 0
M  V30 11 H -0.977 1.52953 0.210867 0
M  V30 12 H 0.981 2.67203 3.11629 0
M  V30 13 H -0.358 1.57376 2.7183 0
M  V30 14 H -1.165 3.90944 3.18086 0
M  V30 15 H -1.563 3.418 1.51819 0
M  V30 16 H 0.729 5.58782 3.83104 0
M  V30 17 H 1.672 6.56266 2.65933 0
M  V30 18 H 2.08 4.83886 2.90714 0
M  V30 19 N 1.4781 -0.272755 1.55222 0
M  V30 20 C 2.7241 -1.00581 1.761 0
M  V30 21 C 3.0571 -1.85932 0.560625 0
M  V30 22 O 2.3321 -1.89416 -0.441801 0
M  V30 23 C 2.6151 -1.88816 3.06628 0
M  V30 24 C 2.4681 -1.06457 4.37021 0
M  V30 25 C 3.7871 -2.8752 3.33197 0
M  V30 26 H 0.9061 -0.364244 0.640699 0
M  V30 27 H 3.5481 -0.278189 1.87952 0
M  V30 28 H 1.6981 -2.50856 2.96654 0
M  V30 29 H 3.3701 -0.464863 4.58952 0
M  V30 30 H 1.6131 -0.368043 4.32236 0
M  V30 31 H 2.2841 -1.71514 5.24678 0
M  V30 32 H 4.7601 -2.35615 3.42965 0
M  V30 33 H 3.6361 -3.46399 4.25792 0
M  V30 34 H 3.8971 -3.62657 2.52849 0
M  V30 35 N 2.9562 -1.48159 -0.537278 0
M  V30 36 C 4.2332 -1.46291 -1.29839 0
M  V30 37 C 4.6132 -0.170613 -2.10409 0
M  V30 38 O 3.9612 0.847746 -2.12192 0
M  V30 39 C 4.1712 -2.72055 -2.18603 0
M  V30 40 C 5.5192 -3.20087 -2.7898 0
M  V30 41 O 6.5432 -2.72921 -2.28894 0
M  V30 42 O 5.4022 -4.02138 -3.70064 0
M  V30 43 H 2.4962 -0.583906 -0.585647 0
M  V30 44 H 5.0422 -1.60384 -0.554534 0
M  V30 45 H 3.8142 -3.57628 -1.58801 0
M  V30 46 H 3.4372 -2.60646 -3.00249 0
M  V30 47 N 4.4343 0.785586 -1.36625 0
M  V30 48 C 5.3643 1.91259 -1.33949 0
M  V30 49 C 6.3453 1.68795 -0.210325 0
M  V30 50 O 7.5303 1.89854 -0.408561 0
M  V30 51 C 4.6603 3.28339 -1.13186 0
M  V30 52 C 3.6143 3.65335 -2.22967 0
M  V30 53 C 2.9403 5.00806 -1.87342 0
M  V30 54 C 4.2403 3.7352 -3.65075 0
M  V30 55 H 5.9343 1.93755 -2.28253 0
M  V30 56 H 3.4803 0.930788 -1.09874 0
M  V30 57 H 5.4333 4.06804 -1.09948 0
M  V30 58 H 4.1573 3.2624 -0.153332 0
M  V30 59 H 2.8163 2.89169 -2.25337 0
M  V30 60 H 2.4643 4.95233 -0.880545 0
M  V30 61 H 2.1643 5.26529 -2.60846 0
M  V30 62 H 3.6883 5.81687 -1.85667 0
M  V30 63 H 5.1023 4.42168 -3.64911 0
M  V30 64 H 3.4993 4.10731 -4.37516 0
M  V30 65 H 4.5693 2.74527 -3.99703 0
M  V30 66 N 5.9124 1.20967 1.01018 0
M  V30 67 C 7.1404 1.04956 1.78303 0
M  V30 68 C 7.5554 -0.400915 1.84494 0
M  V30 69 O 6.9124 -1.27826 1.30257 0
M  V30 70 C 6.9634 1.63403 3.22462 0
M  V30 71 O 6.6844 3.02775 3.16637 0
M  V30 72 C 8.1854 1.52432 4.16268 0
M  V30 73 H 5.4054 0.368858 0.560522 0
M  V30 74 H 7.9494 1.60193 1.27116 0
M  V30 75 H 6.1044 1.1227 3.70775 0
M  V30 76 H 6.5184 3.30626 4.07169 0
M  V30 77 H 7.9924 1.98078 5.15237 0
M  V30 78 H 8.4694 0.477875 4.36592 0
M  V30 79 H 9.0754 2.02787 3.73841 0
M  V30 80 N 7.3905 -1.2043 1.01659 0
M  V30 81 C 8.3225 -2.22626 0.544988 0
M  V30 82 C 9.3355 -1.58479 -0.372609 0
M  V30 83 O 10.5245 -1.77679 -0.170958 0
M  V30 84 C 7.6245 -3.38141 -0.22663 0
M  V30 85 C 6.7975 -4.31877 0.692876 0
M  V30 86 C 5.8565 -5.26191 -0.0311616 0
M  V30 87 O 4.8825 -5.6612 0.591343 0
M  V30 88 N 6.0845 -5.65618 -1.30601 0
M  V30 89 H 8.8495 -2.63716 1.42388 0
M  V30 90 H 6.4105 -1.34971 0.894116 0
M  V30 91 H 8.4025 -3.98239 -0.72024 0
M  V30 92 H 6.9725 -2.95943 -1.00681 0
M  V30 93 H 6.1925 -3.69746 1.36679 0
M  V30 94 H 7.4805 -4.91426 1.31824 0
M  V30 95 H 6.8785 -5.3519 -1.83269 0
M  V30 96 H 5.4355 -6.28025 -1.74435 0
M  V30 97 N 8.8686 -0.792821 -1.36206 0
M  V30 98 C 10.1146 -0.36733 -1.99446 0
M  V30 99 C 10.4476 1.05917 -1.62774 0
M  V30 100 O 9.7226 1.7324 -0.88421 0
M  V30 101 C 10.0056 -0.535044 -3.56103 0
M  V30 102 C 9.8586 -2.00548 -4.02617 0
M  V30 103 C 11.1776 0.0478191 -4.40074 0
M  V30 104 H 8.2966 -0.134941 -0.724541 0
M  V30 105 H 10.9386 -0.999794 -1.61568 0
M  V30 106 H 9.0886 0.00336329 -3.885 0
M  V30 107 H 10.7606 -2.60521 -3.80692 0
M  V30 108 H 9.0036 -2.50686 -3.54032 0
M  V30 109 H 9.6746 -2.07377 -5.11565 0
M  V30 110 H 12.1506 -0.411822 -4.14057 0
M  V30 111 H 11.0266 -0.0995336 -5.4881 0
M  V30 112 H 11.2876 1.14025 -4.27142 0
M  V30 113 N 10.3467 1.47872 -0.545128 0
M  V30 114 C 11.2797 2.2675 0.256885 0
M  V30 115 C 12.2577 1.33293 0.931228 0
M  V30 116 O 13.4417 1.62657 0.95262 0
M  V30 117 C 10.5687 3.09976 1.36501 0
M  V30 118 C 9.6147 4.1892 0.800496 0
M  V30 119 S 10.4477 5.34397 -0.343505 0
M  V30 120 C 11.6037 6.21186 0.766733 0
M  V30 121 H 11.8367 2.94425 -0.412479 0
M  V30 122 H 9.3697 1.50806 -0.331204 0
M  V30 123 H 11.3277 3.585 1.9997 0
M  V30 124 H 9.9887 2.41686 2.00616 0
M  V30 125 H 9.1817 4.76836 1.63227 0
M  V30 126 H 8.7837 3.73215 0.242217 0
M  V30 127 H 11.0757 6.56804 1.66178 0
M  V30 128 H 12.0187 7.07742 0.225204 0
M  V30 129 H 12.4267 5.54574 1.05396 0
M  V30 130 N 11.8248 0.280983 1.55075 0
M  V30 131 C 13.1018 -0.386207 1.91749 0
M  V30 132 C 13.4818 -1.73264 1.20594 0
M  V30 133 O 12.8298 -2.26034 0.334784 0
M  V30 134 C 13.0398 -0.520687 3.45094 0
M  V30 135 C 14.3878 -0.800865 4.16979 0
M  V30 136 O 15.4118 -0.605271 3.5102 0
M  V30 137 O 14.2708 -1.1753 5.33712 0
M  V30 138 H 11.3648 -0.212408 0.799257 0
M  V30 139 H 13.9108 0.327568 1.66509 0
M  V30 140 H 12.6828 0.426633 3.88967 0
M  V30 141 H 12.3058 -1.2837 3.76307 0
M  V30 142 N 13.3029 -1.57598 0.00835791 0
M  V30 143 C 14.5799 -1.82172 -0.712235 0
M  V30 144 C 14.9599 -0.887873 -1.9152 0
M  V30 145 O 14.3079 0.06146 -2.28417 0
M  V30 146 C 14.5179 -3.30875 -1.11008 0
M  V30 147 C 15.8659 -3.96826 -1.51044 0
M  V30 148 O 16.8899 -3.35248 -1.20364 0
M  V30 149 O 15.7489 -5.05318 -2.08125 0
M  V30 150 H 12.8429 -0.750435 -0.347529 0
M  V30 151 H 15.3889 -1.69665 0.0344523 0
M  V30 152 H 14.1609 -3.90481 -0.252982 0
M  V30 153 H 13.7839 -3.48412 -1.9156 0
M  V30 154 N 14.781 0.264519 -1.55364 0
M  V30 155 C 15.691 1.34902 -1.91934 0
M  V30 156 C 16.707 1.53595 -0.817593 0
M  V30 157 O 17.883 1.67558 -1.11742 0
M  V30 158 C 14.948 2.68676 -2.19121 0
M  V30 159 C 14.009 2.58657 -3.4263 0
M  V30 160 C 13.242 3.86051 -3.68511 0
M  V30 161 O 13.465 4.87126 -2.96757 0
M  V30 162 O 12.399 3.85744 -4.62045 0
M  V30 163 H 16.225 1.06883 -2.8427 0
M  V30 164 H 13.81 0.463775 -1.42019 0
M  V30 165 H 15.692 3.47759 -2.37995 0
M  V30 166 H 14.367 2.96463 -1.29966 0
M  V30 167 H 13.274 1.7792 -3.29082 0
M  V30 168 H 14.607 2.35818 -4.32031 0
M  V30 169 N 16.2591 1.48442 0.529413 0
M  V30 170 C 17.5051 1.5672 1.28711 0
M  V30 171 C 17.8381 0.2406 1.92704 0
M  V30 172 O 17.1131 -0.753454 1.79313 0
M  V30 173 C 17.3961 2.70587 2.37603 0
M  V30 174 C 17.2491 4.12953 1.78297 0
M  V30 175 C 18.5681 2.80212 3.39366 0
M  V30 176 H 15.6871 0.570474 0.466613 0
M  V30 177 H 18.3291 1.80617 0.589706 0
M  V30 178 H 16.4791 2.50342 2.97088 0
M  V30 179 H 18.1511 4.44639 1.22858 0
M  V30 180 H 16.3941 4.19927 1.0883 0
M  V30 181 H 17.0651 4.88448 2.57144 0
M  V30 182 H 19.5411 2.98553 2.89836 0
M  V30 183 H 18.4171 3.61611 4.12951 0
M  V30 184 H 18.6781 1.88393 3.99951 0
M  V30 185 N 17.7372 -0.778329 1.37039 0
M  V30 186 C 18.9842 -1.53665 1.31884 0
M  V30 187 C 19.3122 -1.9425 -0.0986303 0
M  V30 188 O 18.5672 -1.63832 -1.07041 0
M  V30 189 C 18.8662 -2.81845 2.19768 0
M  V30 190 C 18.5322 -2.60345 3.68146 0
M  V30 191 C 17.1942 -2.5419 4.08584 0
M  V30 192 C 19.5462 -2.40923 4.62175 0
M  V30 193 C 16.8742 -2.26594 5.41177 0
M  V30 194 C 19.2262 -2.14852 5.94997 0
M  V30 195 C 17.8902 -2.07137 6.34547 0
M  V30 196 H 17.1602 -0.562299 0.482598 0
M  V30 197 H 19.8072 -0.897069 1.69189 0
M  V30 198 H 18.1122 -3.50328 1.75436 0
M  V30 199 H 19.8092 -3.39692 2.13097 0
M  V30 200 H 16.3992 -2.65996 3.36072 0
M  V30 201 H 20.5832 -2.44673 4.31797 0
M  V30 202 H 15.8392 -2.19111 5.70789 0
M  V30 203 H 20.0132 -1.98822 6.67415 0
M  V30 204 H 17.6402 -1.85518 7.37216 0
M  V30 205 N 19.2153 -1.21501 -1.00376 0
M  V30 206 C 20.1483 -0.918669 -2.08892 0
M  V30 207 C 21.1263 0.134277 -1.62045 0
M  V30 208 O 22.3103 0.00504255 -1.88499 0
M  V30 209 C 19.4373 -0.379645 -3.36566 0
M  V30 210 C 18.4833 -1.41559 -4.02323 0
M  V30 211 S 19.3163 -2.98521 -4.44574 0
M  V30 212 C 20.4723 -2.46228 -5.75433 0
M  V30 213 H 20.7053 -1.83761 -2.33707 0
M  V30 214 H 18.2383 -1.04489 -1.13673 0
M  V30 215 H 20.1963 -0.0752195 -4.10431 0
M  V30 216 H 18.8573 0.518008 -3.09799 0
M  V30 217 H 18.0503 -0.988076 -4.9422 0
M  V30 218 H 17.6523 -1.66815 -3.34737 0
M  V30 219 H 19.9443 -1.86791 -6.51241 0
M  V30 220 H 20.8873 -3.36572 -6.22997 0
M  V30 221 H 21.2953 -1.87894 -5.32312 0
M  V30 222 N 20.6934 1.19889 -1.02296 0
M  V30 223 C 21.6564 2.21116 -0.603351 0
M  V30 224 C 22.6564 1.5738 0.329884 0
M  V30 225 O 23.8464 1.73802 0.117702 0
M  V30 226 C 20.9784 3.40696 0.117992 0
M  V30 227 H 22.1714 2.59754 -1.49893 0
M  V30 228 H 19.7244 1.33463 -0.813468 0
M  V30 229 H 20.4594 3.07569 1.0282 0
M  V30 230 H 20.2444 3.88188 -0.552511 0
M  V30 231 H 21.7344 4.15692 0.398696 0
M  V30 232 N 22.1715 0.800033 1.35784 0
M  V30 233 C 23.4185 0.377342 1.98953 0
M  V30 234 C 23.7465 -1.05378 1.6348 0
M  V30 235 O 23.0015 -1.74459 0.886707 0
M  V30 236 C 23.3005 0.500276 3.53881 0
M  V30 237 C 22.9665 1.89375 4.09204 0
M  V30 238 C 21.6285 2.27499 4.24025 0
M  V30 239 C 23.9805 2.8057 4.39238 0
M  V30 240 C 21.3085 3.562 4.66195 0
M  V30 241 C 23.6605 4.0871 4.82844 0
M  V30 242 C 22.3245 4.46843 4.95871 0
M  V30 243 H 21.5945 0.138079 0.728021 0
M  V30 244 H 24.2415 1.01955 1.62103 0
M  V30 245 H 22.5465 -0.225405 3.91151 0
M  V30 246 H 24.2435 0.154097 4.00704 0
M  V30 247 H 20.8335 1.58753 3.98115 0
M  V30 248 H 25.0175 2.52367 4.27346 0
M  V30 249 H 20.2735 3.85602 4.74469 0
M  V30 250 H 24.4475 4.79481 5.05046 0
M  V30 251 H 22.0745 5.46623 5.28306 0
M  V30 252 N 23.6496 -1.47581 0.552962 0
M  V30 253 C 24.6126 -2.28439 -0.186605 0
M  V30 254 C 25.6126 -1.36706 -0.84665 0
M  V30 255 O 26.8026 -1.59378 -0.703164 0
M  V30 256 C 23.9346 -3.16264 -1.2724 0
M  V30 257 H 25.1276 -2.95294 0.523609 0
M  V30 258 H 22.6806 -1.532 0.309745 0
M  V30 259 H 23.4156 -2.54091 -2.01514 0
M  V30 260 H 23.2006 -3.83769 -0.803968 0
M  V30 261 H 24.6906 -3.77198 -1.79196 0
M  V30 262 N 25.1277 -0.289203 -1.54924 0
M  V30 263 C 26.3527 0.329299 -2.04769 0
M  V30 264 C 26.7777 1.4763 -1.16564 0
M  V30 265 O 26.1357 1.80527 -0.167186 0
M  V30 266 C 26.1837 0.774438 -3.52186 0
M  V30 267 O 25.2877 1.88038 -3.67036 0
M  V30 268 H 24.6287 0.0659259 -0.660719 0
M  V30 269 H 27.1587 -0.42761 -2.00082 0
M  V30 270 H 27.1687 1.06642 -3.93816 0
M  V30 271 H 25.8437 -0.0646707 -4.1585 0
M  V30 272 H 24.4207 1.58985 -3.3731 0
M  V30 273 N 26.6058 1.57591 -0.0167156 0
M  V30 274 C 27.8358 1.95292 0.674149 0
M  V30 275 C 28.2438 0.891097 1.66901 0
M  V30 276 O 27.5868 -0.136908 1.83189 0
M  V30 277 C 27.6488 3.29072 1.44747 0
M  V30 278 C 27.3128 4.52879 0.612331 0
M  V30 279 C 28.3098 5.1979 -0.107126 0
M  V30 280 C 25.9948 4.99242 0.553381 0
M  V30 281 C 27.9888 6.31375 -0.874339 0
M  V30 282 C 25.6758 6.10713 -0.217546 0
M  V30 283 C 26.6738 6.76637 -0.930123 0
M  V30 284 O 26.3618 7.85969 -1.68844 0
M  V30 285 H 26.0938 0.648275 0.191615 0
M  V30 286 H 28.6478 2.05284 -0.0690148 0
M  V30 287 H 26.8778 3.15535 2.2355 0
M  V30 288 H 28.5668 3.51764 2.02526 0
M  V30 289 H 29.3328 4.84948 -0.0708392 0
M  V30 290 H 25.2118 4.47744 1.09757 0
M  V30 291 H 28.7558 6.82764 -1.43106 0
M  V30 292 H 24.6528 6.44994 -0.255593 0
M  V30 293 H 25.4208 8.02571 -1.6069 0
M  V30 294 N 28.0839 -0.256276 1.55502 0
M  V30 295 C 29.0469 -1.30047 1.88734 0
M  V30 296 C 30.0469 -1.4154 0.763086 0
M  V30 297 O 31.2369 -1.40403 1.03115 0
M  V30 298 C 28.3689 -2.67953 2.10747 0
M  V30 299 H 29.5619 -1.01802 2.82093 0
M  V30 300 H 27.1149 -0.495134 1.4825 0
M  V30 301 H 27.8499 -3.01351 1.19825 0
M  V30 302 H 27.6349 -2.60993 2.92617 0
M  V30 303 H 29.1249 -3.43368 2.37673 0
M  V30 304 N 29.562 -1.4872 -0.521534 0
M  V30 305 C 30.79 -1.60843 -1.30142 0
M  V30 306 C 31.205 -0.271897 -1.86832 0
M  V30 307 O 30.562 0.739969 -1.66825 0
M  V30 308 C 30.613 -2.66155 -2.4463 0
M  V30 309 O 30.334 -3.94623 -1.90275 0
M  V30 310 C 31.835 -2.88795 -3.36322 0
M  V30 311 H 29.055 -0.542075 -0.395468 0
M  V30 312 H 31.599 -1.94609 -0.628285 0
M  V30 313 H 29.754 -2.35224 -3.07812 0
M  V30 314 H 30.168 -4.52468 -2.65279 0
M  V30 315 H 31.642 -3.66264 -4.12983 0
M  V30 316 H 32.119 -1.97934 -3.9207 0
M  V30 317 H 32.725 -3.21063 -2.78924 0
M  V30 318 N 31.0401 0.771051 -1.3745 0
M  V30 319 C 32.2891 1.52491 -1.3202 0
M  V30 320 C 32.6021 1.9538 0.0927347 0
M  V30 321 O 33.8081 2.70159 0.269503 0
M  V30 322 C 32.2641 2.75366 -2.31736 0
M  V30 323 C 31.8721 2.39573 -3.78562 0
M  V30 324 C 33.6161 3.53307 -2.35318 0
M  V30 325 C 31.5231 3.58954 -4.70007 0
M  V30 326 H 30.4531 0.572506 -0.490666 0
M  V30 327 H 33.1041 0.844474 -1.62914 0
M  V30 328 H 31.4861 3.45303 -1.93861 0
M  V30 329 H 32.6601 1.77415 -4.25277 0
M  V30 330 H 30.9751 1.74805 -3.77932 0
M  V30 331 H 33.5721 4.42039 -3.00842 0
M  V30 332 H 33.9151 3.93217 -1.36698 0
M  V30 333 H 34.4481 2.90367 -2.71904 0
M  V30 334 H 31.1871 3.24125 -5.69757 0
M  V30 335 H 30.7071 4.20214 -4.27996 0
M  V30 336 H 32.3861 4.25758 -4.87175 0
M  V30 337 N 32.5182 1.22032 0.997298 0
M  V30 338 C 33.7672 1.03637 1.73038 0
M  V30 339 C 34.0802 -0.429475 1.90827 0
M  V30 340 O 35.2862 -0.732995 2.61418 0
M  V30 341 C 33.7422 1.80582 3.11317 0
M  V30 342 C 33.3502 3.31387 3.01474 0
M  V30 343 C 35.0942 1.70621 3.88701 0
M  V30 344 C 33.0012 4.00791 4.3488 0
M  V30 345 H 31.9312 0.384179 0.648785 0
M  V30 346 H 34.5822 1.4584 1.11368 0
M  V30 347 H 32.9642 1.31175 3.73643 0
M  V30 348 H 34.1382 3.88155 2.4834 0
M  V30 349 H 32.4532 3.41976 2.37575 0
M  V30 350 H 35.0502 2.19799 4.87434 0
M  V30 351 H 35.3932 0.665823 4.10941 0
M  V30 352 H 35.9262 2.17547 3.33044 0
M  V30 353 H 32.6652 5.05064 4.1784 0
M  V30 354 H 32.1852 3.48811 4.87945 0
M  V30 355 H 33.8642 4.06139 5.03647 0
M  V30 356 N 33.9963 -1.19345 1.0293 0
M  V30 357 C 34.9263 -2.2481 0.631105 0
M  V30 358 C 35.9073 -1.66245 -0.360104 0
M  V30 359 O 37.0923 -1.92677 -0.242726 0
M  V30 360 C 34.2223 -3.47295 -0.0184607 0
M  V30 361 C 33.1763 -4.18536 0.895073 0
M  V30 362 C 32.5023 -5.34586 0.110592 0
M  V30 363 C 33.8023 -4.73287 2.209 0
M  V30 364 H 35.4963 -2.58372 1.51275 0
M  V30 365 H 33.0423 -1.24194 0.728818 0
M  V30 366 H 34.9953 -4.20268 -0.308675 0
M  V30 367 H 33.7193 -3.12933 -0.934907 0
M  V30 368 H 32.3783 -3.47446 1.16949 0
M  V30 369 H 32.0263 -4.96469 -0.807902 0
M  V30 370 H 31.7263 -5.83183 0.719087 0
M  V30 371 H 33.2503 -6.10355 -0.172871 0
M  V30 372 H 34.6643 -5.38013 1.98028 0
M  V30 373 H 33.0613 -5.32373 2.76946 0
M  V30 374 H 34.1313 -3.91331 2.86336 0
M  V30 375 N 35.4744 -0.807222 -1.35358 0
M  V30 376 C 36.6994 -0.399309 -2.0352 0
M  V30 377 C 37.1244 0.981986 -1.60433 0
M  V30 378 O 36.4824 1.63601 -0.781299 0
M  V30 379 C 36.5304 -0.491552 -3.57234 0
M  V30 380 O 35.6344 0.494754 -4.09421 0
M  V30 381 H 34.9754 -0.166682 -0.642739 0
M  V30 382 H 37.5054 -1.09328 -1.72941 0
M  V30 383 H 37.5154 -0.361588 -4.06395 0
M  V30 384 H 36.1904 -1.49907 -3.87944 0
M  V30 385 H 34.7674 0.324977 -3.71481 0
M  V30 386 N 36.9525 1.47285 -0.560781 0
M  V30 387 C 37.8995 2.30058 0.18491 0
M  V30 388 C 38.8695 1.39281 0.904986 0
M  V30 389 O 40.0545 1.68241 0.899979 0
M  V30 390 C 37.1945 3.23317 1.20666 0
M  V30 391 C 36.3075 4.29186 0.492285 0
M  V30 392 C 35.4425 5.09592 1.49964 0
M  V30 393 C 34.4815 6.07232 0.770439 0
M  V30 394 N 33.6185 6.80584 1.72479 0
M  V30 395 H 38.4585 2.93302 -0.527048 0
M  V30 396 H 35.9955 1.44568 -0.271738 0
M  V30 397 H 37.9535 3.75811 1.81168 0
M  V30 398 H 36.5835 2.61929 1.88661 0
M  V30 399 H 35.6355 3.7972 -0.227333 0
M  V30 400 H 36.9475 4.98738 -0.0787929 0
M  V30 401 H 36.1015 5.66254 2.17809 0
M  V30 402 H 34.8405 4.3995 2.10464 0
M  V30 403 H 33.8455 5.49745 0.0780846 0
M  V30 404 H 35.0705 6.78884 0.171134 0
M  V30 405 H 33.0165 6.1367 2.3183 0
M  V30 406 H 32.9335 7.46319 1.20596 0
M  V30 407 H 34.2015 7.41818 2.39428 0
M  V30 408 N 38.4306 0.297415 1.54768 0
M  V30 409 C 39.3636 -0.622188 2.19554 0
M  V30 410 C 40.3416 -1.13558 1.16376 0
M  V30 411 O 41.5256 -1.20444 1.45002 0
M  V30 412 C 38.6526 -1.8509 2.83653 0
M  V30 413 C 37.6986 -1.47106 4.00328 0
M  V30 414 S 38.5316 -0.53006 5.3287 0
M  V30 415 C 39.6876 -1.76665 6.0045 0
M  V30 416 H 39.9206 -0.0717806 2.97213 0
M  V30 417 H 37.4536 0.0815678 1.54184 0
M  V30 418 H 39.4116 -2.55605 3.21211 0
M  V30 419 H 38.0726 -2.37247 2.05846 0
M  V30 420 H 37.2656 -2.38594 4.43947 0
M  V30 421 H 36.8676 -0.845885 3.64309 0
M  V30 422 H 39.1596 -2.7077 6.21039 0
M  V30 423 H 40.1026 -1.37308 6.9466 0
M  V30 424 H 40.5106 -1.94174 5.30054 0
M  V30 425 N 39.9087 -1.5758 0.0250728 0
M  V30 426 C 40.8417 -2.05473 -0.992777 0
M  V30 427 C 41.8197 -0.949661 -1.31986 0
M  V30 428 O 43.0037 -1.21969 -1.43722 0
M  V30 429 C 40.1307 -2.4734 -2.31389 0
M  V30 430 C 39.1767 -3.68827 -2.1417 0
M  V30 431 S 40.0097 -5.15655 -1.44429 0
M  V30 432 C 41.1657 -5.60814 -2.77918 0
M  V30 433 H 41.3987 -2.91486 -0.585078 0
M  V30 434 H 38.9317 -1.53269 -0.186507 0
M  V30 435 H 40.8897 -2.72127 -3.07339 0
M  V30 436 H 39.5507 -1.6168 -2.69292 0
M  V30 437 H 38.7437 -3.95955 -3.11826 0
M  V30 438 H 38.3457 -3.44172 -1.46362 0
M  V30 439 H 40.6377 -5.64806 -3.74166 0
M  V30 440 H 41.5807 -6.60414 -2.55459 0
M  V30 441 H 41.9887 -4.8845 -2.82979 0
M  V30 442 N 41.3868 0.248026 -1.55636 0
M  V30 443 C 42.3168 1.31079 -1.93237 0
M  V30 444 C 43.2978 1.50264 -0.797174 0
M  V30 445 O 44.4828 1.62891 -1.05737 0
M  V30 446 C 41.6128 2.66575 -2.22609 0
M  V30 447 C 40.5668 2.62087 -3.3837 0
M  V30 448 C 39.8928 4.01369 -3.53281 0
M  V30 449 C 41.1928 2.19171 -4.7409 0
M  V30 450 H 42.8868 0.998556 -2.82257 0
M  V30 451 H 40.4328 0.47891 -1.35803 0
M  V30 452 H 42.3858 3.41057 -2.47503 0
M  V30 453 H 41.1098 2.99432 -1.30414 0
M  V30 454 H 39.7688 1.90063 -3.13483 0
M  V30 455 H 39.4168 4.31489 -2.58508 0
M  V30 456 H 39.1168 3.99254 -4.31127 0
M  V30 457 H 40.6408 4.77552 -3.80495 0
M  V30 458 H 42.0548 2.83384 -4.98363 0
M  V30 459 H 40.4518 2.2817 -5.5503 0
M  V30 460 H 41.5218 1.14336 -4.71227 0
M  V30 461 N 42.8649 1.48995 0.513639 0
M  V30 462 C 43.7979 1.59319 1.63379 0
M  V30 463 C 44.7759 0.442816 1.56454 0
M  V30 464 O 45.9599 0.656655 1.76693 0
M  V30 465 C 43.0869 1.5364 3.01848 0
M  V30 466 C 42.1329 2.7372 3.27078 0
M  V30 467 S 42.9659 4.35528 3.1157 0
M  V30 468 C 44.1219 4.32473 4.52458 0
M  V30 469 H 44.3549 2.54079 1.54374 0
M  V30 470 H 41.8879 1.3773 0.697849 0
M  V30 471 H 43.8459 1.51049 3.81699 0
M  V30 472 H 42.5069 0.601898 3.08279 0
M  V30 473 H 41.6999 2.6593 4.28132 0
M  V30 474 H 41.3019 2.73657 2.54927 0
M  V30 475 H 43.5939 4.03414 5.44301 0
M  V30 476 H 44.5369 5.33762 4.65299 0
M  V30 477 H 44.9449 3.62718 4.32546 0
M  V30 478 N 44.343 -0.763751 1.37857 0
M  V30 479 C 45.568 -1.55805 1.36893 0
M  V30 480 C 45.993 -1.88054 -0.0416135 0
M  V30 481 O 45.351 -1.49825 -1.02089 0
M  V30 482 C 45.399 -2.84012 2.22192 0
M  V30 483 O 44.503 -3.78732 1.63204 0
M  V30 484 H 43.844 -0.471638 0.46739 0
M  V30 485 H 46.374 -0.944657 1.81487 0
M  V30 486 H 46.384 -3.33037 2.35691 0
M  V30 487 H 45.059 -2.59869 3.24716 0
M  V30 488 H 43.636 -3.37402 1.58791 0
M  V30 489 N 45.8211 -1.22559 -0.990812 0
M  V30 490 C 47.0491 -1.07779 -1.76611 0
M  V30 491 C 47.4641 0.371513 -1.85109 0
M  V30 492 O 46.8211 1.25737 -1.32274 0
M  V30 493 C 46.8721 -1.68512 -3.19822 0
M  V30 494 O 46.5931 -3.07774 -3.1178 0
M  V30 495 C 48.0941 -1.59035 -4.13791 0
M  V30 496 H 45.3141 -0.377729 -0.554583 0
M  V30 497 H 47.8581 -1.62195 -1.24551 0
M  V30 498 H 46.0131 -1.18154 -3.68942 0
M  V30 499 H 46.4271 -3.37062 -4.01858 0
M  V30 500 H 47.9011 -2.0625 -5.1202 0
M  V30 501 H 48.3781 -0.547273 -4.35777 0
M  V30 502 H 48.9841 -2.08709 -3.70568 0
M  V30 503 N 47.2992 1.18797 -1.03562 0
M  V30 504 C 48.2622 2.20464 -0.626769 0
M  V30 505 C 49.2622 1.57721 0.313173 0
M  V30 506 O 50.4522 1.73917 0.0992615 0
M  V30 507 C 47.5842 3.40802 0.0818498 0
M  V30 508 H 48.7772 2.58149 -1.5264 0
M  V30 509 H 46.3302 1.32593 -0.827578 0
M  V30 510 H 47.0652 3.08642 0.995518 0
M  V30 511 H 46.8502 3.8758 -0.593652 0
M  V30 512 H 48.3402 4.16092 0.354584 0
M  V30 513 N 48.7773 0.814389 1.34928 0
M  V30 514 C 50.0053 0.411136 2.02774 0
M  V30 515 C 50.4203 -0.980316 1.61354 0
M  V30 516 O 49.7773 -1.63299 0.814847 0
M  V30 517 C 49.8283 0.493865 3.58111 0
M  V30 518 O 49.5493 1.83047 3.98027 0
M  V30 519 C 51.0503 0.0844174 4.4322 0
M  V30 520 H 48.2703 0.166037 0.650133 0
M  V30 521 H 50.8143 1.10018 1.72384 0
M  V30 522 H 48.9693 -0.147006 3.87121 0
M  V30 523 H 49.3833 1.79872 4.92693 0
M  V30 524 H 50.8573 0.193404 5.51661 0
M  V30 525 H 51.3343 -0.97113 4.28329 0
M  V30 526 H 51.9403 0.69875 4.19521 0
M  V30 527 N 50.2554 -1.46986 0.568584 0
M  V30 528 C 51.2184 -2.28624 -0.162366 0
M  V30 529 C 52.2184 -1.37596 -0.832103 0
M  V30 530 O 53.4084 -1.60115 -0.68622 0
M  V30 531 C 50.5404 -3.17596 -1.23878 0
M  V30 532 H 51.7334 -2.94722 0.554899 0
M  V30 533 H 49.2864 -1.52863 0.325976 0
M  V30 534 H 50.0214 -2.56214 -1.98808 0
M  V30 535 H 49.8064 -3.846 -0.763219 0
M  V30 536 H 51.2964 -3.79078 -1.75185 0
M  V30 537 N 51.7335 -0.305618 -1.54608 0
M  V30 538 C 52.9805 0.302298 -2.00231 0
M  V30 539 C 53.3085 1.5354 -1.19398 0
M  V30 540 O 52.5635 1.93973 -0.259423 0
M  V30 541 C 52.8625 0.698983 -3.50498 0
M  V30 542 C 52.5285 -0.432903 -4.48817 0
M  V30 543 C 51.1905 -0.743622 -4.75419 0
M  V30 544 C 53.5425 -1.19409 -5.07337 0
M  V30 545 C 50.8705 -1.81857 -5.57804 0
M  V30 546 C 53.2225 -2.25899 -5.90891 0
M  V30 547 C 51.8865 -2.57572 -6.15803 0
M  V30 548 H 51.1565 0.110619 -0.732697 0
M  V30 549 H 53.8035 -0.425674 -1.86709 0
M  V30 550 H 52.1085 1.50711 -3.61654 0
M  V30 551 H 53.8055 1.1806 -3.83227 0
M  V30 552 H 50.3955 -0.18063 -4.28219 0
M  V30 553 H 54.5795 -0.967295 -4.86782 0
M  V30 554 H 49.8355 -2.06864 -5.75341 0
M  V30 555 H 54.0095 -2.85335 -6.35261 0
M  V30 556 H 51.6365 -3.40998 -6.7943 0
M  V30 557 N 53.2116 1.57565 -0.0334293 0
M  V30 558 C 54.4416 1.95996 0.653398 0
M  V30 559 C 54.8496 0.908749 1.65947 0
M  V30 560 O 54.1926 -0.117471 1.83324 0
M  V30 561 C 54.2546 3.30589 1.41249 0
M  V30 562 C 53.9186 4.53503 0.564263 0
M  V30 563 C 54.9156 5.19647 -0.16225 0
M  V30 564 C 52.6006 4.99801 0.500398 0
M  V30 565 C 54.5946 6.30412 -0.941255 0
M  V30 566 C 52.2816 6.10448 -0.282308 0
M  V30 567 C 53.2796 6.75612 -1.00184 0
M  V30 568 O 52.9676 7.84134 -1.77171 0
M  V30 569 H 52.6996 0.65027 0.184728 0
M  V30 570 H 55.2536 2.05199 -0.0907841 0
M  V30 571 H 53.4836 3.17888 2.20191 0
M  V30 572 H 55.1726 3.53892 1.98784 0
M  V30 573 H 55.9386 4.84846 -0.12227 0
M  V30 574 H 51.8176 4.48883 1.05002 0
M  V30 575 H 55.3616 6.81208 -1.50339 0
M  V30 576 H 51.2586 6.44686 -0.323989 0
M  V30 577 H 52.0266 8.00822 -1.69194 0
M  V30 578 N 54.6897 -0.239769 1.55765 0
M  V30 579 C 56.1057 -0.588624 1.48349 0
M  V30 580 C 56.3057 -1.88005 0.72502 0
M  V30 581 O 55.3617 -2.51186 0.257269 0
M  V30 582 C 56.6747 -0.68474 2.928 0
M  V30 583 C 58.2227 -0.77659 3.03213 0
M  V30 584 C 58.6977 -0.904207 4.48986 0
M  V30 585 N 60.1887 -0.968896 4.52953 0
M  V30 586 C 60.9237 -1.08703 5.63002 0
M  V30 587 N 60.4197 -1.17026 6.82845 0
M  V30 588 N 62.2127 -1.12074 5.50814 0
M  V30 589 H 54.3637 0.607911 2.03515 0
M  V30 590 H 56.6267 0.21083 0.924259 0
M  V30 591 H 56.3327 0.194284 3.51163 0
M  V30 592 H 56.2067 -1.55435 3.43686 0
M  V30 593 H 58.5937 -1.64606 2.44926 0
M  V30 594 H 58.6747 0.118315 2.55526 0
M  V30 595 H 58.3187 -0.0392633 5.07885 0
M  V30 596 H 58.2487 -1.81426 4.9436 0
M  V30 597 H 60.7397 -0.915633 3.6664 0
M  V30 598 H 61.0527 -1.25966 7.62465 0
M  V30 599 H 59.3977 -1.13971 6.85591 0
M  V30 600 H 62.5887 -1.05226 4.5612 0
M  V30 601 H 62.7617 -1.20936 6.36615 0
M  V30 602 N 56.1678 -1.49265 -0.50573 0
M  V30 603 C 57.0978 -1.68495 -1.61653 0
M  V30 604 C 58.0788 -0.53366 -1.61512 0
M  V30 605 O 59.2638 -0.76897 -1.78327 0
M  V30 606 C 56.3938 -1.74709 -3.00157 0
M  V30 607 C 55.3478 -2.89581 -3.15162 0
M  V30 608 C 54.6738 -2.80903 -4.5497 0
M  V30 609 C 55.9738 -4.30578 -2.95634 0
M  V30 610 H 57.6678 -2.61493 -1.45814 0
M  V30 611 H 55.2138 -1.25838 -0.70005 0
M  V30 612 H 57.1668 -1.86748 -3.77761 0
M  V30 613 H 55.8908 -0.783067 -3.17074 0
M  V30 614 H 54.5498 -2.77136 -2.39982 0
M  V30 615 H 54.1978 -1.82419 -4.68756 0
M  V30 616 H 53.8978 -3.57999 -4.65951 0
M  V30 617 H 55.4218 -2.94944 -5.34641 0
M  V30 618 H 56.8358 -4.4373 -3.63011 0
M  V30 619 H 55.2328 -5.0886 -3.18091 0
M  V30 620 H 56.3028 -4.45352 -1.91806 0
M  V30 621 N 57.6459 0.756429 -1.3826 0
M  V30 622 C 58.8739 1.54565 -1.3754 0
M  V30 623 C 59.2889 1.88767 0.0355331 0
M  V30 624 O 58.6459 1.52572 1.0014 0
M  V30 625 C 58.6969 2.84654 -2.22833 0
M  V30 626 O 58.4179 2.51912 -3.5843 0
M  V30 627 C 59.9189 3.78807 -2.30261 0
M  V30 628 H 57.1389 0.478353 -0.470553 0
M  V30 629 H 59.6829 0.936381 -1.81803 0
M  V30 630 H 57.8379 3.41965 -1.8204 0
M  V30 631 H 58.2519 3.35325 -4.03308 0
M  V30 632 H 59.7259 4.67045 -2.94233 0
M  V30 633 H 60.2029 4.19038 -1.31545 0
M  V30 634 H 60.8089 3.2742 -2.71433 0
M  V30 635 N 59.124 1.23083 0.984299 0
M  V30 636 C 60.54 0.992637 1.24975 0
M  V30 637 C 60.74 -0.308618 1.99123 0
M  V30 638 O 59.796 -1.02905 2.30579 0
M  V30 639 C 61.109 2.19698 2.05312 0
M  V30 640 C 62.657 2.24147 2.18465 0
M  V30 641 C 63.132 3.44157 3.02192 0
M  V30 642 N 64.623 3.44372 3.09777 0
M  V30 643 C 65.358 4.33886 3.74874 0
M  V30 644 N 64.854 5.3363 4.41827 0
M  V30 645 N 66.647 4.21639 3.71721 0
M  V30 646 H 58.798 2.06731 0.487453 0
M  V30 647 H 61.061 0.906339 0.277944 0
M  V30 648 H 60.767 3.1411 1.58201 0
M  V30 649 H 60.641 2.20465 3.06064 0
M  V30 650 H 63.028 1.30277 2.64786 0
M  V30 651 H 63.109 2.27415 1.17115 0
M  V30 652 H 62.753 4.38332 2.56568 0
M  V30 653 H 62.683 3.3813 4.03702 0
M  V30 654 H 65.174 2.72201 2.62135 0
M  V30 655 H 65.487 5.98196 4.89266 0
M  V30 656 H 63.832 5.37534 4.40548 0
M  V30 657 H 67.023 3.42962 3.18582 0
M  V30 658 H 67.196 4.91604 4.22173 0
M  V30 659 N 60.6021 -1.18246 1.0419 0
M  V30 660 C 61.5491 -2.2192 0.634037 0
M  V30 661 C 62.5191 -1.62179 -0.358765 0
M  V30 662 O 63.7041 -1.89122 -0.252466 0
M  V30 663 C 60.8441 -3.451 0.00445535 0
M  V30 664 C 59.9571 -4.19174 1.04487 0
M  V30 665 C 59.0921 -5.29813 0.383676 0
M  V30 666 C 58.1311 -5.9566 1.4091 0
M  V30 667 N 57.2681 -6.97834 0.772784 0
M  V30 668 H 62.1081 -2.56164 1.52263 0
M  V30 669 H 59.6451 -1.25843 0.761701 0
M  V30 670 H 61.6031 -4.15485 -0.377919 0
M  V30 671 H 60.2331 -3.11472 -0.847652 0
M  V30 672 H 59.2851 -3.47604 1.54518 0
M  V30 673 H 60.5971 -4.64267 1.82368 0
M  V30 674 H 59.7511 -6.06677 -0.0528366 0
M  V30 675 H 58.4901 -4.85825 -0.427208 0
M  V30 676 H 57.4951 -5.17535 1.85574 0
M  V30 677 H 58.7201 -6.4173 2.22171 0
M  V30 678 H 56.6661 -6.55998 -0.0177708 0
M  V30 679 H 56.5831 -7.41186 1.48928 0
M  V30 680 H 57.8511 -7.78665 0.36071 0
M  V30 681 N 62.0802 -0.821533 -1.34494 0
M  V30 682 C 63.3262 -0.409552 -1.98622 0
M  V30 683 C 63.6592 1.0244 -1.64984 0
M  V30 684 O 62.9342 1.71325 -0.920758 0
M  V30 685 C 63.2172 -0.610458 -3.54888 0
M  V30 686 C 63.0702 -2.09043 -3.98273 0
M  V30 687 C 64.3892 -0.0455379 -4.40076 0
M  V30 688 H 61.5082 -0.15028 -0.721516 0
M  V30 689 H 64.1502 -1.03384 -1.59411 0
M  V30 690 H 62.3002 -0.079044 -3.8842 0
M  V30 691 H 63.9722 -2.68537 -3.75081 0
M  V30 692 H 62.2152 -2.58139 -3.48635 0
M  V30 693 H 62.8862 -2.18182 -5.07051 0
M  V30 694 H 65.3622 -0.499557 -4.1309 0
M  V30 695 H 64.2382 -0.215922 -5.48475 0
M  V30 696 H 64.4992 1.04939 -4.29465 0
M  V30 697 N 63.5583 1.46682 -0.576371 0
M  V30 698 C 64.8053 2.02412 -0.0595339 0
M  V30 699 C 65.1333 1.44859 1.29793 0
M  V30 700 O 64.3883 0.601099 1.8624 0
M  V30 701 C 64.6873 3.57345 0.062886 0
M  V30 702 C 64.3533 4.33908 -1.22616 0
M  V30 703 C 63.0153 4.54544 -1.57933 0
M  V30 704 C 65.3673 4.77919 -2.07948 0
M  V30 705 C 62.6953 5.16444 -2.78393 0
M  V30 706 C 65.0473 5.41149 -3.27629 0
M  V30 707 C 63.7113 5.60014 -3.63236 0
M  V30 708 H 62.9813 0.74068 -0.021785 0
M  V30 709 H 65.6283 1.76128 -0.751735 0
M  V30 710 H 63.9333 3.82729 0.838178 0
M  V30 711 H 65.6303 3.98136 0.478439 0
M  V30 712 H 62.2203 4.18138 -0.941202 0
M  V30 713 H 66.4043 4.61738 -1.81967 0
M  V30 714 H 61.6603 5.29242 -3.06126 0
M  V30 715 H 65.8343 5.74211 -3.94023 0
M  V30 716 H 63.4613 6.07748 -4.56669 0
M  V30 717 N 65.0364 0.313813 1.54444 0
M  V30 718 C 65.9994 -0.54379 2.22656 0
M  V30 719 C 66.9994 -1.05124 1.21678 0
M  V30 720 O 68.1894 -0.945225 1.46325 0
M  V30 721 C 65.3214 -1.75427 2.92298 0
M  V30 722 H 66.5144 0.0523599 2.99854 0
M  V30 723 H 64.0674 0.0647834 1.56166 0
M  V30 724 H 64.8024 -2.38991 2.19211 0
M  V30 725 H 64.5874 -1.39791 3.66334 0
M  V30 726 H 66.0774 -2.36325 3.44297 0
M  V30 727 N 66.5145 -1.57545 0.0417849 0
M  V30 728 C 67.4625 -2.12148 -0.953723 0
M  V30 729 C 68.4565 -1.05104 -1.32852 0
M  V30 730 O 69.6625 -1.23524 -1.30927 0
M  V30 731 H 66.0375 -0.677957 -0.325389 0
M  V30 732 H 68.0085 -2.94707 -0.467991 0
M  V30 733 C 66.7575 -2.6739 -2.22257 0
M  V30 734 H 66.0805 -3.49413 -1.94295 0
M  V30 735 H 67.5205 -3.09227 -2.90094 0
M  V30 736 C 65.9795 -1.60723 -2.96091 0
M  V30 737 O 66.5095 -1.01449 -3.88679 0
M  V30 738 N 64.7155 -1.32466 -2.58652 0
M  V30 739 H 64.2625 -1.80856 -1.83437 0
M  V30 740 H 64.2205 -0.61325 -3.08361 0
M  V30 741 N 67.9926 0.231505 -1.5589 0
M  V30 742 C 69.4036 0.799327 -1.68724 0
M  V30 743 C 69.7546 1.85398 -0.642022 0
M  V30 744 O 68.8796 2.1539 0.208784 0
M  V30 745 C 69.4746 1.45664 -3.05888 0
M  V30 746 C 68.0336 1.97197 -3.20609 0
M  V30 747 C 67.1806 0.828552 -2.64632 0
M  V30 748 H 70.1316 0.00702616 -1.58698 0
M  V30 749 H 70.1526 2.32517 -3.01191 0
M  V30 750 H 69.6646 0.688808 -3.81939 0
M  V30 751 H 67.7656 2.76813 -2.4941 0
M  V30 752 H 67.8786 2.15878 -4.27707 0
M  V30 753 H 66.2426 1.23321 -2.22854 0
M  V30 754 H 67.0256 0.0735544 -3.43221 0
M  V30 755 N 69.4707 1.49531 0.497807 0
M  V30 756 C 70.3807 1.69176 1.62532 0
M  V30 757 C 71.3967 0.5744 1.64246 0
M  V30 758 O 72.5727 0.849497 1.82608 0
M  V30 759 C 69.6377 1.75695 2.98885 0
M  V30 760 C 68.6987 2.9929 3.07773 0
M  V30 761 C 67.9317 3.05488 4.37622 0
M  V30 762 O 68.1547 2.19192 5.26603 0
M  V30 763 O 67.0887 3.9798 4.51548 0
M  V30 764 H 70.9147 2.647 1.48887 0
M  V30 765 H 68.4997 1.3331 0.674441 0
M  V30 766 H 70.3817 1.82317 3.79919 0
M  V30 767 H 69.0567 0.8335 3.12785 0
M  V30 768 H 67.9637 2.98183 2.25915 0
M  V30 769 H 69.2967 3.91125 2.98801 0
M  V30 770 N 70.9488 -0.749086 1.3866 0
M  V30 771 C 72.2258 -1.4992 1.25632 0
M  V30 772 C 72.6058 -2.10633 -0.140317 0
M  V30 773 O 71.9538 -1.97437 -1.15025 0
M  V30 774 C 72.1638 -2.56195 2.36992 0
M  V30 775 C 73.5118 -3.22972 2.75634 0
M  V30 776 O 74.5358 -2.66502 2.36337 0
M  V30 777 O 73.3948 -4.25122 3.43415 0
M  V30 778 H 70.4888 -0.665067 0.491544 0
M  V30 779 H 73.0348 -0.784113 1.50498 0
M  V30 780 H 71.8068 -2.09612 3.30422 0
M  V30 781 H 71.4298 -3.35279 2.13714 0
M  V30 782 N 72.4269 -1.23603 -0.977757 0
M  V30 783 C 73.6669 -1.08148 -1.73446 0
M  V30 784 C 74.0309 0.374785 -1.88307 0
M  V30 785 O 75.2319 0.650588 -2.60808 0
M  V30 786 C 73.5029 -1.78991 -3.0935 0
M  V30 787 S 75.0619 -1.79141 -4.00567 0
M  V30 788 H 71.8799 -0.386987 -0.596458 0
M  V30 789 H 74.4819 -1.5678 -1.16792 0
M  V30 790 H 73.1859 -2.8408 -2.96187 0
M  V30 791 H 72.7169 -1.30651 -3.71071 0
M  V30 792 H 74.7319 -0.851892 -4.88833 0
M  V30 793 N 73.905 1.17692 -1.04816 0
M  V30 794 C 75.151 1.88137 -0.75711 0
M  V30 795 C 75.484 1.80604 0.713841 0
M  V30 796 O 74.759 1.21146 1.52164 0
M  V30 797 C 75.042 3.38318 -1.2334 0
M  V30 798 C 74.895 3.54622 -2.76701 0
M  V30 799 C 76.214 4.32214 -0.829415 0
M  V30 800 H 73.333 0.683163 -0.27651 0
M  V30 801 H 75.975 1.38424 -1.30149 0
M  V30 802 H 74.125 3.80787 -0.770286 0
M  V30 803 H 75.797 3.21194 -3.31107 0
M  V30 804 H 74.04 2.97026 -3.16161 0
M  V30 805 H 74.711 4.60028 -3.05088 0
M  V30 806 H 77.187 3.97565 -1.22805 0
M  V30 807 H 76.063 5.35838 -1.19033 0
M  V30 808 H 76.324 4.41294 0.266891 0
M  V30 809 N 75.3831 0.828654 1.34056 0
M  V30 810 C 76.3461 0.259927 2.27721 0
M  V30 811 C 77.3461 -0.565478 1.50529 0
M  V30 812 O 78.5361 -0.38075 1.69988 0
M  V30 813 C 75.6681 -0.634944 3.34935 0
M  V30 814 H 76.8611 1.0863 2.79534 0
M  V30 815 H 74.4141 0.600951 1.44285 0
M  V30 816 H 75.1491 -1.48416 2.88346 0
M  V30 817 H 74.9341 -0.0444999 3.92075 0
M  V30 818 H 76.4241 -1.02648 4.04788 0
M  V30 819 N 76.8612 -1.46375 0.584142 0
M  V30 820 C 78.1082 -2.02378 0.0702675 0
M  V30 821 C 78.4362 -1.45545 -1.29023 0
M  V30 822 O 77.6912 -0.610967 -1.85918 0
M  V30 823 C 77.9902 -3.57373 -0.0439342 0
M  V30 824 C 77.6562 -4.33252 1.24915 0
M  V30 825 C 76.3182 -4.53701 1.60341 0
M  V30 826 C 78.6702 -4.7681 2.1048 0
M  V30 827 C 75.9982 -5.1496 2.81128 0
M  V30 828 C 78.3502 -5.39404 3.30494 0
M  V30 829 C 77.0142 -5.5808 3.66201 0
M  V30 830 H 76.2842 -0.740554 0.0257127 0
M  V30 831 H 78.9312 -1.75727 0.761065 0
M  V30 832 H 77.2362 -3.83169 -0.817869 0
M  V30 833 H 78.9332 -3.98384 -0.457318 0
M  V30 834 H 75.5232 -4.17633 0.963364 0
M  V30 835 H 79.7072 -4.60766 1.84414 0
M  V30 836 H 74.9632 -5.27611 3.08928 0
M  V30 837 H 79.1372 -5.72114 3.97063 0
M  V30 838 H 76.7642 -6.05318 4.59885 0
M  V30 839 N 78.3393 -0.321999 -1.54275 0
M  V30 840 C 79.5873 0.280489 -2.00144 0
M  V30 841 C 79.9083 1.52777 -1.21178 0
M  V30 842 O 79.1783 1.9338 -0.313187 0
M  V30 843 H 77.7583 0.106632 -0.73935 0
M  V30 844 H 80.4203 -0.438184 -1.8991 0
M  V30 845 H 79.5163 0.537972 -3.07428 0
M  V30 846 N 79.8174 1.5752 -0.0501392 0
M  V30 847 C 80.7644 2.1147 0.924603 0
M  V30 848 C 81.7344 1.02182 1.30951 0
M  V30 849 O 82.9194 1.29723 1.39916 0
M  V30 850 C 80.0594 2.66337 2.19451 0
M  V30 851 C 79.1724 3.89708 1.86418 0
M  V30 852 C 78.3074 4.32893 3.07859 0
M  V30 853 C 77.3464 5.48967 2.70742 0
M  V30 854 N 76.4834 5.87211 3.84874 0
M  V30 855 H 81.3234 2.94465 0.457639 0
M  V30 856 H 78.8604 1.45531 0.214266 0
M  V30 857 H 80.8184 2.96247 2.93758 0
M  V30 858 H 79.4484 1.86141 2.63726 0
M  V30 859 H 78.5004 3.66396 1.02264 0
M  V30 860 H 79.8124 4.74074 1.55096 0
M  V30 861 H 78.9664 4.6435 3.90466 0
M  V30 862 H 77.7054 3.47336 3.42358 0
M  V30 863 H 76.7104 5.17183 1.86551 0
M  V30 864 H 77.9354 6.3624 2.37436 0
M  V30 865 H 75.8814 5.04607 4.19175 0
M  V30 866 H 75.7984 6.66266 3.57247 0
M  V30 867 H 77.0664 6.23282 4.68123 0
M  V30 868 N 81.2955 -0.223234 1.56011 0
M  V30 869 C 82.5435 -0.946003 1.78592 0
M  V30 870 C 82.8645 -1.84936 0.618349 0
M  V30 871 O 82.1345 -1.92473 -0.364833 0
M  V30 872 H 80.7145 -0.352298 0.658707 0
M  V30 873 H 83.3765 -0.235494 1.93472 0
M  V30 874 H 82.4725 -1.55381 2.70672 0
M  V30 875 N 82.7736 -1.49793 -0.48987 0
M  V30 876 C 83.6836 -1.70036 -1.61632 0
M  V30 877 C 84.6996 -0.583102 -1.63939 0
M  V30 878 O 85.8756 -0.859169 -1.82154 0
M  V30 879 C 82.9406 -1.77277 -2.97949 0
M  V30 880 C 82.0016 -3.00918 -3.06181 0
M  V30 881 C 81.2346 -3.07804 -4.35996 0
M  V30 882 O 81.4576 -2.21982 -5.25433 0
M  V30 883 O 80.3916 -4.00369 -4.49431 0
M  V30 884 H 84.2176 -2.65486 -1.47482 0
M  V30 885 H 81.8026 -1.33666 -0.667362 0
M  V30 886 H 83.6846 -1.84329 -3.78947 0
M  V30 887 H 82.3596 -0.850076 -3.12339 0
M  V30 888 H 81.2666 -2.99377 -2.2433 0
M  V30 889 H 82.5996 -3.92704 -2.96723 0
M  V30 890 N 84.2517 0.741722 -1.39055 0
M  V30 891 C 85.1997 1.87702 -1.3737 0
M  V30 892 C 86.1937 1.67427 -0.257812 0
M  V30 893 O 87.3997 1.7485 -0.427489 0
M  V30 894 H 83.7747 0.617757 -0.428812 0
M  V30 895 H 85.7457 1.86239 -2.33147 0
M  V30 896 C 84.4947 3.25315 -1.22741 0
M  V30 897 H 83.8177 3.41509 -2.07873 0
M  V30 898 H 85.2577 4.04964 -1.25618 0
M  V30 899 C 83.7167 3.36838 0.0647316 0
M  V30 900 O 84.2467 3.88073 1.03741 0
M  V30 901 N 82.4527 2.90329 0.125544 0
M  V30 902 H 81.9997 2.48823 -0.666682 0
M  V30 903 H 81.9577 2.98418 0.989639 0
M  V30 904 N 85.7298 1.2412 0.971189 0
M  V30 905 C 86.6928 1.03156 2.04674 0
M  V30 906 C 87.6928 -0.00990322 1.60797 0
M  V30 907 O 88.8828 0.230729 1.72665 0
M  V30 908 C 86.0148 0.562765 3.36223 0
M  V30 909 H 87.2078 1.98614 2.24705 0
M  V30 910 H 84.7608 1.06293 1.14593 0
M  V30 911 H 85.4958 -0.395176 3.21883 0
M  V30 912 H 85.2808 1.31441 3.69413 0
M  V30 913 H 86.7708 0.437015 4.15307 0
M  V30 914 N 87.2079 -1.17134 1.05439 0
M  V30 915 C 88.1549 -2.21235 0.657539 0
M  V30 916 C 89.1249 -1.62551 -0.341543 0
M  V30 917 O 90.3099 -1.89379 -0.232393 0
M  V30 918 C 87.4499 -3.45076 0.0410575 0
M  V30 919 C 86.5629 -4.18042 1.08927 0
M  V30 920 C 85.6979 -5.29376 0.439848 0
M  V30 921 C 84.7369 -5.94132 1.4722 0
M  V30 922 N 83.8739 -6.96975 0.846756 0
M  V30 923 H 88.7139 -2.54534 1.54972 0
M  V30 924 H 86.2509 -1.25028 0.775006 0
M  V30 925 H 88.2089 -4.15862 -0.33383 0
M  V30 926 H 86.8389 -3.12353 -0.814568 0
M  V30 927 H 85.8909 -3.45945 1.58196 0
M  V30 928 H 87.2029 -4.62306 1.87282 0
M  V30 929 H 86.3569 -6.06699 0.0115125 0
M  V30 930 H 85.0959 -4.86251 -0.375656 0
M  V30 931 H 84.1009 -5.15538 1.91052 0
M  V30 932 H 85.3259 -6.39337 2.28965 0
M  V30 933 H 83.2719 -6.5598 0.0518075 0
M  V30 934 H 83.1889 -7.39565 1.5678 0
M  V30 935 H 84.4569 -7.78239 0.443277 0
M  V30 936 N 88.686 -0.835752 -1.33615 0
M  V30 937 C 89.633 -0.26473 -2.29277 0
M  V30 938 C 90.603 0.617712 -1.54187 0
M  V30 939 O 91.788 0.556641 -1.825 0
M  V30 940 C 88.928 0.556777 -3.40579 0
M  V30 941 C 88.041 -0.349339 -4.30585 0
M  V30 942 C 87.176 0.482969 -5.29 0
M  V30 943 C 86.215 -0.421732 -6.10645 0
M  V30 944 N 85.352 0.372262 -7.01112 0
M  V30 945 H 90.192 -1.08582 -2.77514 0
M  V30 946 H 87.729 -0.546927 -1.36554 0
M  V30 947 H 89.687 1.04852 -4.03809 0
M  V30 948 H 88.317 1.34286 -2.93542 0
M  V30 949 H 87.369 -0.959372 -3.68104 0
M  V30 950 H 88.681 -1.04445 -4.87742 0
M  V30 951 H 87.835 1.03866 -5.97743 0
M  V30 952 H 86.574 1.21153 -4.72412 0
M  V30 953 H 85.579 -0.989464 -5.40823 0
M  V30 954 H 86.804 -1.14861 -6.69316 0
M  V30 955 H 84.75 1.08426 -6.46977 0
M  V30 956 H 84.667 -0.264198 -7.55538 0
M  V30 957 H 85.935 0.910293 -7.74167 0
M  V30 958 N 90.1641 1.46063 -0.591896 0
M  V30 959 C 91.3941 2.06418 -0.0867676 0
M  V30 960 C 91.8021 1.43975 1.22751 0
M  V30 961 O 91.1451 0.542531 1.75506 0
M  V30 962 C 91.2071 3.59213 0.143725 0
M  V30 963 C 90.8711 4.439 -1.08635 0
M  V30 964 C 91.8681 4.79864 -2.00067 0
M  V30 965 C 89.5531 4.84896 -1.31077 0
M  V30 966 C 91.5471 5.55661 -3.12282 0
M  V30 967 C 89.2341 5.6045 -2.43596 0
M  V30 968 C 90.2321 5.95747 -3.34027 0
M  V30 969 O 89.9201 6.69772 -4.4459 0
M  V30 970 H 89.6521 0.673443 -0.0587447 0
M  V30 971 H 92.2061 1.88539 -0.814994 0
M  V30 972 H 90.4361 3.75433 0.926668 0
M  V30 973 H 92.1251 4.01463 0.5985 0
M  V30 974 H 92.8911 4.48763 -1.83947 0
M  V30 975 H 88.7701 4.56867 -0.61594 0
M  V30 976 H 92.3141 5.8313 -3.82891 0
M  V30 977 H 88.2111 5.90965 -2.59674 0
M  V30 978 H 88.9791 6.88207 -4.43073 0
M  V30 979 N 91.6422 0.330177 1.54103 0
M  V30 980 C 92.5722 -0.525353 2.27513 0
M  V30 981 C 93.5532 -1.11383 1.2856 0
M  V30 982 O 94.7382 -1.13773 1.57383 0
M  V30 983 C 91.8682 -1.6831 3.03791 0
M  V30 984 C 90.8222 -1.2236 4.10137 0
M  V30 985 C 90.1482 -2.46882 4.74293 0
M  V30 986 C 91.4482 -0.333697 5.21233 0
M  V30 987 H 93.1422 0.087013 2.99274 0
M  V30 988 H 90.6882 0.0432893 1.43935 0
M  V30 989 H 92.6412 -2.28795 3.5388 0
M  V30 990 H 91.3652 -2.32216 2.29659 0
M  V30 991 H 90.0242 -0.64165 3.60941 0
M  V30 992 H 89.6722 -3.09165 3.96769 0
M  V30 993 H 89.3722 -2.16825 5.46133 0
M  V30 994 H 90.8962 -3.08117 5.27159 0
M  V30 995 H 92.3102 -0.845013 5.67038 0
M  V30 996 H 90.7072 -0.125612 5.99969 0
M  V30 997 H 91.7772 0.633724 4.80741 0
M  V30 998 N 93.1203 -1.57491 0.0584922 0
M  V30 999 C 94.5363 -1.56792 -0.298091 0
M  V30 1000 C 94.7363 -1.06679 -1.70944 0
M  V30 1001 O 93.7923 -0.726672 -2.41818 0
M  V30 1002 C 95.1053 -3.00461 -0.119879 0
M  V30 1003 C 96.6533 -3.1242 -0.190428 0
M  V30 1004 C 97.1283 -4.57982 -0.0406567 0
M  V30 1005 N 98.6193 -4.63099 -0.0966958 0
M  V30 1006 C 99.3543 -5.734 -0.00502943 0
M  V30 1007 N 98.8503 -6.9266 0.139402 0
M  V30 1008 N 100.643 -5.62067 -0.0611391 0
M  V30 1009 H 92.7943 -1.88386 0.98105 0
M  V30 1010 H 95.0573 -0.867865 0.381463 0
M  V30 1011 H 94.7633 -3.41187 0.85349 0
M  V30 1012 H 94.6373 -3.66843 -0.877833 0
M  V30 1013 H 97.0243 -2.71589 -1.15427 0
M  V30 1014 H 97.1053 -2.48702 0.598405 0
M  V30 1015 H 96.7493 -4.995 0.919897 0
M  V30 1016 H 96.6793 -5.19715 -0.848727 0
M  V30 1017 H 99.1703 -3.77331 -0.207277 0
M  V30 1018 H 99.4833 -7.72536 0.201855 0
M  V30 1019 H 97.8283 -6.94781 0.174586 0
M  V30 1020 H 101.019 -4.67782 -0.172583 0
M  V30 1021 H 101.192 -6.47999 0.0137562 0
M  V30 1022 N 94.5984 0.214957 -1.56127 0
M  V30 1023 C 95.8264 0.955092 -1.83536 0
M  V30 1024 C 96.2414 1.77677 -0.638472 0
M  V30 1025 O 95.5984 1.78219 0.392968 0
M  V30 1026 C 95.6494 1.86734 -3.09536 0
M  V30 1027 O 95.3704 1.07887 -4.24608 0
M  V30 1028 C 96.8714 2.72082 -3.4998 0
M  V30 1029 H 94.0914 0.279611 -0.609966 0
M  V30 1030 H 96.6354 0.228197 -2.03223 0
M  V30 1031 H 94.7904 2.5481 -2.91806 0
M  V30 1032 H 95.2044 1.69872 -4.9623 0
M  V30 1033 H 96.6784 3.31782 -4.41163 0
M  V30 1034 H 97.1554 3.44806 -2.7204 0
M  V30 1035 H 97.7614 2.09409 -3.70173 0
M  V30 1036 N 96.0765 1.50051 0.48192 0
M  V30 1037 C 97.3535 1.51009 1.2432 0
M  V30 1038 C 97.7335 0.248587 2.09631 0
M  V30 1039 O 97.0815 -0.768409 2.15192 0
M  V30 1040 C 97.2915 2.79981 2.08355 0
M  V30 1041 C 98.6395 3.3022 2.66908 0
M  V30 1042 O 99.6635 2.81228 2.18607 0
M  V30 1043 O 98.5225 4.15595 3.54884 0
M  V30 1044 H 95.6165 0.605239 0.563573 0
M  V30 1045 H 98.1625 1.62332 0.494627 0
M  V30 1046 H 96.9345 3.63275 1.45419 0
M  V30 1047 H 96.5575 2.7161 2.90368 0
M  V30 1048 N 97.5546 -0.734337 1.39446 0
M  V30 1049 C 98.8316 -1.48579 1.27215 0
M  V30 1050 C 99.2116 -2.1077 -0.117968 0
M  V30 1051 O 98.5596 -1.98646 -1.12924 0
M  V30 1052 C 98.7696 -2.53667 2.39696 0
M  V30 1053 C 100.118 -3.20031 2.79044 0
M  V30 1054 O 101.142 -2.6398 2.39151 0
M  V30 1055 O 100.001 -4.21455 3.47905 0
M  V30 1056 H 97.0946 -0.659816 0.49857 0
M  V30 1057 H 99.6406 -0.768106 1.51322 0
M  V30 1058 H 98.4126 -2.06096 3.32626 0
M  V30 1059 H 98.0356 -3.32994 2.17258 0
M  V30 1060 N 99.0327 -1.24633 -0.964593 0
M  V30 1061 C 100.449 -1.01239 -1.2338 0
M  V30 1062 C 100.649 0.2769 -1.99588 0
M  V30 1063 O 99.7047 0.992241 -2.32187 0
M  V30 1064 C 101.018 -2.22937 -2.01791 0
M  V30 1065 C 102.566 -2.27594 -2.14872 0
M  V30 1066 C 103.041 -3.48921 -2.96678 0
M  V30 1067 N 104.532 -3.49257 -3.04259 0
M  V30 1068 C 105.267 -4.39795 -3.67924 0
M  V30 1069 N 104.763 -5.40591 -4.33281 0
M  V30 1070 N 106.556 -4.275 -3.64966 0
M  V30 1071 H 98.7067 -2.0748 -0.454502 0
M  V30 1072 H 100.97 -0.910647 -0.26349 0
M  V30 1073 H 100.676 -3.16587 -1.53184 0
M  V30 1074 H 100.55 -2.25306 -3.02518 0
M  V30 1075 H 102.937 -1.34473 -2.6268 0
M  V30 1076 H 103.018 -2.2925 -1.13482 0
M  V30 1077 H 102.662 -4.42359 -2.49562 0
M  V30 1078 H 102.592 -3.4451 -3.98272 0
M  V30 1079 H 105.083 -2.76337 -2.57771 0
M  V30 1080 H 105.396 -6.05904 -4.79687 0
M  V30 1081 H 103.741 -5.44475 -4.3194 0
M  V30 1082 H 106.932 -3.47987 -3.13086 0
M  V30 1083 H 107.105 -4.98258 -4.14298 0
M  V30 1084 N 100.511 1.16574 -1.06058 0
M  V30 1085 C 101.757 1.87324 -0.777022 0
M  V30 1086 C 102.09 1.81351 0.694645 0
M  V30 1087 O 101.365 1.22753 1.50871 0
M  V30 1088 C 101.648 3.36991 -1.26922 0
M  V30 1089 C 101.501 3.51667 -2.80447 0
M  V30 1090 C 102.82 4.3131 -0.87521 0
M  V30 1091 H 99.9388 0.680191 -0.28374 0
M  V30 1092 H 102.581 1.37036 -1.3161 0
M  V30 1093 H 100.731 3.79949 -0.81063 0
M  V30 1094 H 102.403 3.17664 -3.34495 0
M  V30 1095 H 100.646 2.93656 -3.19294 0
M  V30 1096 H 101.317 4.56766 -3.0995 0
M  V30 1097 H 103.793 3.9624 -1.27014 0
M  V30 1098 H 102.669 5.34545 -1.2471 0
M  V30 1099 H 102.93 4.41552 0.220071 0
M  V30 1100 N 101.989 0.842826 1.3317 0
M  V30 1101 C 102.899 0.281444 2.32906 0
M  V30 1102 C 103.915 -0.594587 1.63526 0
M  V30 1103 O 105.091 -0.49777 1.95152 0
M  V30 1104 C 102.156 -0.530929 3.42611 0
M  V30 1105 C 101.217 0.369843 4.27704 0
M  V30 1106 C 100.45 -0.403853 5.3217 0
M  V30 1107 O 100.673 -1.63513 5.46461 0
M  V30 1108 O 99.6069 0.224199 6.01482 0
M  V30 1109 H 103.433 1.10744 2.82789 0
M  V30 1110 H 101.018 0.60545 1.36582 0
M  V30 1111 H 102.9 -0.992437 4.09547 0
M  V30 1112 H 101.575 -1.33392 2.94938 0
M  V30 1113 H 100.482 0.879275 3.6362 0
M  V30 1114 H 101.815 1.13771 4.78871 0
M  V30 1115 N 103.467 -1.45747 0.599634 0
M  V30 1116 C 104.883 -1.57424 0.26264 0
M  V30 1117 C 105.083 -1.59222 -1.23493 0
M  V30 1118 O 104.139 -1.51825 -2.01756 0
M  V30 1119 C 105.452 -2.86061 0.926795 0
M  V30 1120 C 107 -2.99722 0.901967 0
M  V30 1121 C 107.475 -4.31119 1.54598 0
M  V30 1122 N 108.966 -4.37858 1.5111 0
M  V30 1123 C 109.701 -5.3818 1.97863 0
M  V30 1124 N 109.197 -6.45083 2.52666 0
M  V30 1125 N 110.99 -5.29487 1.88679 0
M  V30 1126 H 103.141 -1.42823 1.57211 0
M  V30 1127 H 105.404 -0.68235 0.658105 0
M  V30 1128 H 105.11 -2.90605 1.98095 0
M  V30 1129 H 104.984 -3.74563 0.445238 0
M  V30 1130 H 107.371 -2.9475 -0.143617 0
M  V30 1131 H 107.452 -2.12652 1.42171 0
M  V30 1132 H 107.096 -4.36849 2.59085 0
M  V30 1133 H 107.026 -5.16992 1.00132 0
M  V30 1134 H 109.517 -3.61209 1.11068 0
M  V30 1135 H 109.83 -7.17869 2.86155 0
M  V30 1136 H 108.175 -6.45856 2.56701 0
M  V30 1137 H 111.366 -4.44877 1.4561 0
M  V30 1138 H 111.539 -6.07524 2.25429 0
M  V30 1139 N 104.945 -0.338344 -1.53925 0
M  V30 1140 C 106.191 0.260143 -2.01125 0
M  V30 1141 C 106.524 1.50617 -1.22589 0
M  V30 1142 O 105.799 1.91979 -0.312113 0
M  V30 1143 C 106.082 0.579499 -3.55407 0
M  V30 1144 C 105.935 -0.678264 -4.44657 0
M  V30 1145 C 107.254 1.39122 -4.17532 0
M  V30 1146 H 104.373 0.0930772 -0.731099 0
M  V30 1147 H 107.015 -0.457852 -1.84401 0
M  V30 1148 H 105.165 1.19118 -3.69788 0
M  V30 1149 H 106.837 -1.31631 -4.42121 0
M  V30 1150 H 105.08 -1.3042 -4.13731 0
M  V30 1151 H 105.751 -0.410143 -5.50474 0
M  V30 1152 H 108.227 0.874035 -4.06817 0
M  V30 1153 H 107.103 1.58342 -5.25565 0
M  V30 1154 H 107.364 2.39178 -3.71815 0
M  V30 1155 N 106.423 1.57458 -0.0668435 0
M  V30 1156 C 107.839 1.56947 0.289772 0
M  V30 1157 C 108.039 1.07584 1.70376 0
M  V30 1158 O 107.095 0.739486 2.41429 0
M  V30 1159 C 108.408 3.0052 0.103943 0
M  V30 1160 C 109.956 3.12517 0.173857 0
M  V30 1161 C 110.431 4.57997 0.0163682 0
M  V30 1162 N 111.922 4.63144 0.0721352 0
M  V30 1163 C 112.657 5.73394 -0.0253794 0
M  V30 1164 N 112.153 6.92576 -0.176133 0
M  V30 1165 N 113.946 5.62091 0.0313305 0
M  V30 1166 H 106.097 1.87863 -0.991027 0
M  V30 1167 H 108.36 0.86583 -0.38606 0
M  V30 1168 H 108.066 3.40729 -0.871572 0
M  V30 1169 H 107.94 3.67304 0.858366 0
M  V30 1170 H 110.327 2.72197 1.13985 0
M  V30 1171 H 110.408 2.48381 -0.611586 0
M  V30 1172 H 110.052 4.99005 -0.946374 0
M  V30 1173 H 109.982 5.20158 0.821153 0
M  V30 1174 H 112.473 3.77436 0.187263 0
M  V30 1175 H 112.786 7.72418 -0.242821 0
M  V30 1176 H 111.131 6.94678 -0.211429 0
M  V30 1177 H 114.322 4.67867 0.147773 0
M  V30 1178 H 114.495 6.47982 -0.048121 0
M  V30 1179 N 107.901 -0.206675 1.56239 0
M  V30 1180 C 109.317 -0.557025 1.49564 0
M  V30 1181 C 109.517 -1.86424 0.764735 0
M  V30 1182 O 108.573 -2.50584 0.310491 0
M  V30 1183 C 109.886 -0.622478 2.94186 0
M  V30 1184 C 111.434 -0.712099 3.04792 0
M  V30 1185 C 111.909 -0.808767 4.50803 0
M  V30 1186 N 113.4 -0.8726 4.54907 0
M  V30 1187 C 114.135 -0.967365 5.65181 0
M  V30 1188 N 113.631 -1.02515 6.85173 0
M  V30 1189 N 115.424 -1.00366 5.53067 0
M  V30 1190 H 107.575 0.650943 2.02179 0
M  V30 1191 H 109.838 0.230387 0.919579 0
M  V30 1192 H 109.544 0.268727 3.50672 0
M  V30 1193 H 109.418 -1.4811 3.46905 0
M  V30 1194 H 111.805 -1.59374 2.48363 0
M  V30 1195 H 111.886 0.172489 2.55218 0
M  V30 1196 H 111.53 0.0684754 5.07854 0
M  V30 1197 H 111.46 -1.70899 4.98098 0
M  V30 1198 H 113.951 -0.837657 3.68499 0
M  V30 1199 H 114.264 -1.09765 7.64965 0
M  V30 1200 H 112.609 -0.994026 6.87855 0
M  V30 1201 H 115.8 -0.95527 4.58249 0
M  V30 1202 H 115.973 -1.07405 6.39037 0
M  V30 1203 N 109.379 -1.50304 -0.473955 0
M  V30 1204 C 110.342 -1.6841 -1.55469 0
M  V30 1205 C 111.342 -0.554905 -1.50922 0
M  V30 1206 O 112.532 -0.821882 -1.53593 0
M  V30 1207 C 109.664 -1.70667 -2.95102 0
M  V30 1208 H 110.857 -2.64828 -1.40733 0
M  V30 1209 H 108.41 -1.39742 -0.700132 0
M  V30 1210 H 109.145 -0.75932 -3.15285 0
M  V30 1211 H 108.93 -2.52698 -2.9981 0
M  V30 1212 H 110.42 -1.8664 -3.73571 0
M  V30 1213 N 110.857 0.726932 -1.39834 0
M  V30 1214 C 111.807 1.83232 -1.35683 0
M  V30 1215 C 112.791 1.59155 -0.236295 0
M  V30 1216 O 113.983 1.70522 -0.474488 0
M  V30 1217 C 111.112 3.21246 -1.21062 0
M  V30 1218 C 110.198 3.51125 -2.37849 0
M  V30 1219 N 110.589 3.51889 -3.63329 0
M  V30 1220 C 108.887 3.81527 -2.30982 0
M  V30 1221 C 109.588 3.79791 -4.40606 0
M  V30 1222 N 108.564 3.97971 -3.70297 0
M  V30 1223 H 112.366 1.8214 -2.30656 0
M  V30 1224 H 109.88 0.925545 -1.33444 0
M  V30 1225 H 111.877 4.00387 -1.16171 0
M  V30 1226 H 110.537 3.23572 -0.270458 0
M  V30 1227 H 111.548 3.33008 -3.96643 0
M  V30 1228 H 108.225 3.91411 -1.45272 0
M  V30 1229 H 109.615 3.86783 -5.49408 0
M  V30 1230 N 112.336 1.25143 0.95797 0
M  V30 1231 C 113.266 1.07711 2.07173 0
M  V30 1232 C 114.247 -0.0128462 1.70095 0
M  V30 1233 O 115.432 0.156061 1.93572 0
M  V30 1234 C 112.562 0.691503 3.40346 0
M  V30 1235 C 111.516 1.73132 3.9142 0
M  V30 1236 C 110.842 1.20049 5.21049 0
M  V30 1237 C 112.142 3.1294 4.1817 0
M  V30 1238 H 113.836 2.00873 2.22014 0
M  V30 1239 H 111.382 0.967191 1.06684 0
M  V30 1240 H 113.335 0.556505 4.17709 0
M  V30 1241 H 112.059 -0.275819 3.25433 0
M  V30 1242 H 110.718 1.8547 3.16222 0
M  V30 1243 H 110.366 0.223499 5.02503 0
M  V30 1244 H 110.066 1.89545 5.56189 0
M  V30 1245 H 111.59 1.07782 6.01012 0
M  V30 1246 H 113.004 3.03775 4.86203 0
M  V30 1247 H 111.401 3.79875 4.64559 0
M  V30 1248 H 112.471 3.6025 3.24573 0
M  V30 1249 N 113.814 -1.1601 1.06675 0
M  V30 1250 C 114.762 -2.22586 0.675157 0
M  V30 1251 C 115.756 -1.66525 -0.310766 0
M  V30 1252 O 116.962 -1.79145 -0.175215 0
M  V30 1253 H 113.337 -0.724855 0.200223 0
M  V30 1254 H 115.308 -2.52899 1.58381 0
M  V30 1255 C 114.057 -3.47604 0.0817162 0
M  V30 1256 H 113.38 -3.91058 0.831484 0
M  V30 1257 H 114.82 -4.23718 -0.154708 0
M  V30 1258 C 113.279 -3.15718 -1.17576 0
M  V30 1259 O 113.809 -3.31878 -2.26318 0
M  V30 1260 N 112.015 -2.69816 -1.07923 0
M  V30 1261 H 111.562 -2.56866 -0.194293 0
M  V30 1262 H 111.52 -2.48855 -1.92141 0
M  V30 1263 N 115.292 -0.849877 -1.32721 0
M  V30 1264 C 116.569 -0.372405 -1.92022 0
M  V30 1265 C 116.949 1.1435 -1.77447 0
M  V30 1266 O 116.297 1.96296 -1.16962 0
M  V30 1267 C 116.507 -0.831482 -3.3895 0
M  V30 1268 C 117.855 -0.845882 -4.16089 0
M  V30 1269 O 118.879 -0.775806 -3.47649 0
M  V30 1270 O 117.738 -0.943753 -5.38289 0
M  V30 1271 H 114.832 -0.107667 -0.819961 0
M  V30 1272 H 117.378 -0.93646 -1.41522 0
M  V30 1273 H 116.15 -1.87448 -3.4348 0
M  V30 1274 H 115.773 -0.24461 -3.96847 0
M  V30 1275 N 116.77 1.45427 -0.607355 0
M  V30 1276 C 117.7 2.3329 0.0989352 0
M  V30 1277 C 118.681 1.46816 0.859007 0
M  V30 1278 O 119.866 1.75588 0.829604 0
M  V30 1279 C 116.996 3.29518 1.09705 0
M  V30 1280 C 115.95 4.25626 0.450206 0
M  V30 1281 C 115.276 5.11542 1.55655 0
M  V30 1282 C 116.576 5.18505 -0.628455 0
M  V30 1283 H 118.27 2.92595 -0.634716 0
M  V30 1284 H 115.816 1.40696 -0.306681 0
M  V30 1285 H 117.769 3.89855 1.59971 0
M  V30 1286 H 116.493 2.68372 1.86129 0
M  V30 1287 H 115.152 3.66586 -0.0315886 0
M  V30 1288 H 114.8 4.46765 2.31107 0
M  V30 1289 H 114.5 5.76647 1.12925 0
M  V30 1290 H 116.024 5.74748 2.06148 0
M  V30 1291 H 117.438 5.72916 -0.209877 0
M  V30 1292 H 115.835 5.92085 -0.977489 0
M  V30 1293 H 116.905 4.60948 -1.50514 0
M  V30 1294 N 118.248 0.346503 1.53744 0
M  V30 1295 C 119.158 -0.517293 2.28826 0
M  V30 1296 C 120.174 -1.10935 1.3405 0
M  V30 1297 O 121.35 -1.1244 1.6709 0
M  V30 1298 C 118.415 -1.65098 3.04866 0
M  V30 1299 C 117.476 -1.0884 4.15274 0
M  V30 1300 C 116.709 -2.16806 4.87679 0
M  V30 1301 O 116.932 -3.3758 4.59778 0
M  V30 1302 O 115.866 -1.80934 5.74061 0
M  V30 1303 H 119.692 0.0931396 3.03557 0
M  V30 1304 H 117.277 0.111458 1.48984 0
M  V30 1305 H 119.159 -2.31053 3.5241 0
M  V30 1306 H 117.834 -2.24717 2.32989 0
M  V30 1307 H 116.741 -0.3933 3.72027 0
M  V30 1308 H 118.074 -0.537036 4.89261 0
M  V30 1309 N 119.726 -1.57421 0.075193 0
M  V30 1310 C 120.674 -2.14124 -0.908508 0
M  V30 1311 C 121.668 -1.07898 -1.30592 0
M  V30 1312 O 122.874 -1.26273 -1.28277 0
M  V30 1313 H 119.249 -0.684707 -0.310935 0
M  V30 1314 H 121.22 -2.95634 -0.405374 0
M  V30 1315 C 119.969 -2.72044 -2.16535 0
M  V30 1316 H 119.292 -3.53456 -1.86839 0
M  V30 1317 H 120.732 -3.15311 -2.83469 0
M  V30 1318 C 119.191 -1.66968 -2.92615 0
M  V30 1319 O 119.721 -1.0967 -3.86439 0
M  V30 1320 N 117.927 -1.37923 -2.55784 0
M  V30 1321 H 117.474 -1.84706 -1.79559 0
M  V30 1322 H 117.432 -0.67852 -3.06991 0
M  V30 1323 N 121.204 0.198386 -1.56346 0
M  V30 1324 C 122.453 0.917451 -1.79627 0
M  V30 1325 C 122.766 1.8456 -0.64784 0
M  V30 1326 O 123.972 2.60504 -0.764859 0
M  V30 1327 C 122.428 1.68175 -3.18191 0
M  V30 1328 C 122.036 0.798589 -4.40825 0
M  V30 1329 C 123.78 2.39065 -3.50782 0
M  V30 1330 C 121.687 1.56157 -5.70411 0
M  V30 1331 H 120.617 0.346317 -0.669762 0
M  V30 1332 H 123.268 0.170801 -1.82703 0
M  V30 1333 H 121.65 2.47216 -3.09354 0
M  V30 1334 H 122.824 0.0470665 -4.60776 0
M  V30 1335 H 121.139 0.200686 -4.15916 0
M  V30 1336 H 123.736 2.96692 -4.44835 0
M  V30 1337 H 124.079 3.13091 -2.74371 0
M  V30 1338 H 124.612 1.66993 -3.61052 0
M  V30 1339 H 121.351 0.864142 -6.49779 0
M  V30 1340 H 120.871 2.2871 -5.54483 0
M  V30 1341 H 122.55 2.11622 -6.11412 0
M  V30 1342 N 122.682 1.50554 0.465978 0
M  V30 1343 C 123.931 1.61038 1.21448 0
M  V30 1344 C 124.244 0.31865 1.92987 0
M  V30 1345 O 125.45 0.302469 2.6981 0
M  V30 1346 C 123.906 2.84283 2.20706 0
M  V30 1347 C 123.514 4.20352 1.54946 0
M  V30 1348 C 125.258 3.04115 2.96166 0
M  V30 1349 C 123.165 5.34778 2.5252 0
M  V30 1350 H 122.095 0.599718 0.457005 0
M  V30 1351 H 124.746 1.7699 0.484424 0
M  V30 1352 H 123.128 2.61901 2.97025 0
M  V30 1353 H 124.302 4.53008 0.843811 0
M  V30 1354 H 122.617 4.06167 0.917475 0
M  V30 1355 H 125.214 3.86774 3.69202 0
M  V30 1356 H 125.557 2.16045 3.55852 0
M  V30 1357 H 126.09 3.26702 2.26959 0
M  V30 1358 H 122.829 6.25018 1.97566 0
M  V30 1359 H 122.349 5.06534 3.21222 0
M  V30 1360 H 124.028 5.65561 3.14245 0
M  V30 1361 N 124.16 -0.719506 1.40217 0
M  V30 1362 C 125.571 -1.29848 1.34151 0
M  V30 1363 C 125.922 -1.96196 0.0131349 0
M  V30 1364 O 125.047 -1.973 -0.88892 0
M  V30 1365 C 125.642 -2.36118 2.42968 0
M  V30 1366 C 124.201 -2.8965 2.40374 0
M  V30 1367 C 123.348 -1.63393 2.24049 0
M  V30 1368 H 126.299 -0.51591 1.5008 0
M  V30 1369 H 126.32 -3.16871 2.10649 0
M  V30 1370 H 125.832 -1.878 3.39636 0
M  V30 1371 H 123.933 -3.42208 1.47392 0
M  V30 1372 H 124.046 -3.4171 3.35814 0
M  V30 1373 H 122.41 -1.88312 1.71495 0
M  V30 1374 H 123.193 -1.17104 3.2271 0
M  V30 1375 N 125.638 -1.25649 -0.95132 0
M  V30 1376 C 126.885 -1.10594 -1.69633 0
M  V30 1377 C 127.213 0.352515 -1.91279 0
M  V30 1378 O 126.468 1.27601 -1.4838 0
M  V30 1379 C 126.767 -1.80909 -3.08231 0
M  V30 1380 C 126.433 -3.30825 -3.06375 0
M  V30 1381 C 125.095 -3.71722 -3.05576 0
M  V30 1382 C 127.447 -4.26589 -2.99452 0
M  V30 1383 C 124.775 -5.06788 -2.95606 0
M  V30 1384 C 127.127 -5.61683 -2.91024 0
M  V30 1385 C 125.791 -6.01904 -2.88562 0
M  V30 1386 H 125.061 -0.404691 -0.620731 0
M  V30 1387 H 127.708 -1.55964 -1.11119 0
M  V30 1388 H 126.013 -1.27979 -3.70309 0
M  V30 1389 H 127.71 -1.6671 -3.64704 0
M  V30 1390 H 124.3 -2.98287 -3.07771 0
M  V30 1391 H 128.484 -3.95982 -2.99185 0
M  V30 1392 H 123.74 -5.37126 -2.92071 0
M  V30 1393 H 127.914 -6.35578 -2.84629 0
M  V30 1394 H 125.541 -7.06521 -2.80593 0
M  V30 1395 N 127.117 1.15442 -1.07289 0
M  V30 1396 C 128.047 2.22312 -0.714107 0
M  V30 1397 C 129.028 1.67467 0.298155 0
M  V30 1398 O 130.213 1.93445 0.171048 0
M  V30 1399 C 127.343 3.47124 -0.110448 0
M  V30 1400 C 126.297 4.14926 -1.04979 0
M  V30 1401 C 125.623 5.33807 -0.308924 0
M  V30 1402 C 126.923 4.64762 -2.38314 0
M  V30 1403 H 128.617 2.5258 -1.6076 0
M  V30 1404 H 126.163 1.21404 -0.77441 0
M  V30 1405 H 128.116 4.21124 0.152482 0
M  V30 1406 H 126.84 3.16187 0.81812 0
M  V30 1407 H 125.499 3.42866 -1.29764 0
M  V30 1408 H 125.147 4.99126 0.623084 0
M  V30 1409 H 124.847 5.80113 -0.935036 0
M  V30 1410 H 126.371 6.10576 -0.0537771 0
M  V30 1411 H 127.785 5.30292 -2.1786 0
M  V30 1412 H 126.182 5.21728 -2.96514 0
M  V30 1413 H 127.252 3.80434 -3.00663 0
M  V30 1414 N 128.595 0.856903 1.32268 0
M  V30 1415 C 129.843 0.460474 1.96784 0
M  V30 1416 C 130.164 -0.987701 1.68135 0
M  V30 1417 O 129.434 -1.69058 0.989765 0
M  V30 1418 H 128.014 0.167289 0.728027 0
M  V30 1419 H 130.676 1.09383 1.61312 0
M  V30 1420 H 129.772 0.60739 3.06133 0
M  V30 1421 N 130.073 -1.45103 0.615059 0
M  V30 1422 C 131.322 -2.01396 0.110718 0
M  V30 1423 C 131.635 -1.48834 -1.26916 0
M  V30 1424 O 132.841 -1.97152 -1.86664 0
M  V30 1425 C 131.297 -3.59599 0.14723 0
M  V30 1426 C 130.905 -4.21158 1.52743 0
M  V30 1427 C 132.649 -4.23428 -0.30148 0
M  V30 1428 C 130.556 -5.71535 1.51992 0
M  V30 1429 H 129.486 -0.753061 0.0376241 0
M  V30 1430 H 132.137 -1.66494 0.77149 0
M  V30 1431 H 130.519 -3.91724 -0.580339 0
M  V30 1432 H 131.693 -4.00594 2.2773 0
M  V30 1433 H 130.008 -3.69552 1.91886 0
M  V30 1434 H 132.605 -5.33703 -0.326392 0
M  V30 1435 H 132.948 -3.94629 -1.32565 0
M  V30 1436 H 133.481 -3.96047 0.373065 0
M  V30 1437 H 130.22 -6.05044 2.52193 0
M  V30 1438 H 129.74 -5.94268 0.81274 0
M  V30 1439 H 131.419 -6.34873 1.24681 0
M  V30 1440 N 131.551 -0.354651 -1.53558 0
M  V30 1441 C 132.799 0.237972 -2.00694 0
M  V30 1442 C 133.12 1.50173 -1.24391 0
M  V30 1443 O 132.39 1.92673 -0.354135 0
M  V30 1444 H 130.97 0.0909256 -0.741446 0
M  V30 1445 H 133.632 -0.478368 -1.88938 0
M  V30 1446 H 132.728 0.47264 -3.085 0
M  V30 1447 N 133.029 1.57378 -0.0835403 0
M  V30 1448 C 133.959 2.1641 0.87686 0
M  V30 1449 C 134.94 1.09429 1.30228 0
M  V30 1450 O 136.125 1.37516 1.37124 0
M  V30 1451 C 133.255 2.73517 2.14022 0
M  V30 1452 C 132.209 3.85769 1.85381 0
M  V30 1453 C 131.535 4.29529 3.18448 0
M  V30 1454 C 132.835 5.09486 1.14984 0
M  V30 1455 H 134.529 2.96914 0.385059 0
M  V30 1456 H 132.075 1.42823 0.18377 0
M  V30 1457 H 134.028 3.13463 2.81636 0
M  V30 1458 H 132.752 1.90252 2.65465 0
M  V30 1459 H 131.411 3.46345 1.20169 0
M  V30 1460 H 131.059 3.43169 3.67755 0
M  V30 1461 H 130.759 5.05204 3.00071 0
M  V30 1462 H 132.283 4.72099 3.8724 0
M  V30 1463 H 133.697 5.46674 1.72687 0
M  V30 1464 H 132.094 5.90515 1.06826 0
M  V30 1465 H 133.164 4.84724 0.130749 0
M  V30 1466 N 134.507 -0.190092 1.56449 0
M  V30 1467 C 135.437 -1.23816 1.97969 0
M  V30 1468 C 136.418 -1.47201 0.852395 0
M  V30 1469 O 137.603 -1.58854 1.1171 0
M  V30 1470 C 134.733 -2.5813 2.3235 0
M  V30 1471 C 133.687 -2.49348 3.47864 0
M  V30 1472 C 133.013 -3.8798 3.67934 0
M  V30 1473 C 134.313 -2.01424 4.81898 0
M  V30 1474 H 136.007 -0.89311 2.85769 0
M  V30 1475 H 133.553 -0.428177 1.37487 0
M  V30 1476 H 135.506 -3.31637 2.59991 0
M  V30 1477 H 134.23 -2.94386 1.41438 0
M  V30 1478 H 132.889 -1.78297 3.20321 0
M  V30 1479 H 132.537 -4.21597 2.74344 0
M  V30 1480 H 132.237 -3.82978 4.45648 0
M  V30 1481 H 133.761 -4.63101 3.97957 0
M  V30 1482 H 135.175 -2.64693 5.08538 0
M  V30 1483 H 133.572 -2.07413 5.63116 0
M  V30 1484 H 134.642 -0.967677 4.75146 0
M  V30 1485 N 135.985 -1.50799 -0.457987 0
M  V30 1486 C 137.215 -1.65977 -1.23025 0
M  V30 1487 C 137.623 -0.347918 -1.85974 0
M  V30 1488 O 136.966 0.68148 -1.70592 0
M  V30 1489 C 137.028 -2.70309 -2.3701 0
M  V30 1490 C 136.692 -4.135 -1.94594 0
M  V30 1491 C 137.689 -4.98949 -1.46101 0
M  V30 1492 C 135.374 -4.5949 -2.02915 0
M  V30 1493 C 137.368 -6.28442 -1.06489 0
M  V30 1494 C 135.055 -5.88984 -1.62914 0
M  V30 1495 C 136.053 -6.73286 -1.1478 0
M  V30 1496 O 135.741 -8.00362 -0.75339 0
M  V30 1497 H 135.473 -0.56064 -0.377702 0
M  V30 1498 H 138.027 -1.97857 -0.551537 0
M  V30 1499 H 136.257 -2.337 -3.08093 0
M  V30 1500 H 137.946 -2.74574 -2.98938 0
M  V30 1501 H 138.712 -4.6463 -1.39084 0
M  V30 1502 H 134.591 -3.94009 -2.39328 0
M  V30 1503 H 138.135 -6.94194 -0.688488 0
M  V30 1504 H 134.032 -6.22822 -1.69595 0
M  V30 1505 H 134.8 -8.13744 -0.88108 0
M  V30 1506 N 137.463 0.71206 -1.40597 0
M  V30 1507 C 138.688 1.50617 -1.42581 0
M  V30 1508 C 139.113 1.88079 -0.0282102 0
M  V30 1509 O 138.471 1.53511 0.964579 0
M  V30 1510 C 138.519 2.7557 -2.3258 0
M  V30 1511 O 137.623 3.72414 -1.77148 0
M  V30 1512 H 136.964 0.453966 -0.484573 0
M  V30 1513 H 139.494 0.876649 -1.84868 0
M  V30 1514 H 139.504 3.2406 -2.47889 0
M  V30 1515 H 138.179 2.47639 -3.34138 0
M  V30 1516 H 136.756 3.31276 -1.71204 0
M  V30 1517 N 138.941 1.26152 0.944643 0
M  V30 1518 C 139.871 1.09902 2.06019 0
M  V30 1519 C 140.852 0.00519538 1.70099 0
M  V30 1520 O 142.037 0.176583 1.93396 0
M  V30 1521 C 139.167 0.727562 3.39594 0
M  V30 1522 C 138.121 1.77274 3.89561 0
M  V30 1523 C 137.447 1.25569 5.19747 0
M  V30 1524 C 138.747 3.17357 4.14827 0
M  V30 1525 H 140.441 2.03217 2.19871 0
M  V30 1526 H 137.987 0.978452 1.05652 0
M  V30 1527 H 139.94 0.600777 4.17095 0
M  V30 1528 H 138.664 -0.241287 3.25707 0
M  V30 1529 H 137.323 1.88814 3.14237 0
M  V30 1530 H 136.971 0.276783 5.02238 0
M  V30 1531 H 136.671 1.95433 5.54148 0
M  V30 1532 H 138.195 1.1415 5.99835 0
M  V30 1533 H 139.609 3.08914 4.82954 0
M  V30 1534 H 138.006 3.84781 4.60504 0
M  V30 1535 H 139.076 3.63673 3.20734 0
M  V30 1536 N 140.419 -1.14872 1.07899 0
M  V30 1537 C 141.644 -1.90202 0.826926 0
M  V30 1538 C 142.069 -1.77774 -0.614664 0
M  V30 1539 O 141.427 -1.11431 -1.43013 0
M  V30 1540 C 141.475 -3.38352 1.24702 0
M  V30 1541 O 140.579 -4.10497 0.39575 0
M  V30 1542 H 139.92 -0.591968 0.300782 0
M  V30 1543 H 142.45 -1.45437 1.43907 0
M  V30 1544 H 142.46 -3.89156 1.22563 0
M  V30 1545 H 141.135 -3.46715 2.29698 0
M  V30 1546 H 139.712 -3.69796 0.480117 0
M  V30 1547 N 141.898 -0.863906 -1.31812 0
M  V30 1548 C 143.146 -0.470904 -1.96537 0
M  V30 1549 C 143.467 0.978771 -1.68657 0
M  V30 1550 O 142.737 1.6853 -0.998717 0
M  V30 1551 H 141.317 -0.171148 -0.72713 0
M  V30 1552 H 143.979 -1.10236 -1.60729 0
M  V30 1553 H 143.075 -0.623616 -3.05806 0
M  V30 1554 N 143.376 1.44774 -0.622745 0
M  V30 1555 C 144.787 1.85546 -0.207226 0
M  V30 1556 C 145.138 1.52093 1.23944 0
M  V30 1557 O 144.263 0.95492 1.94191 0
M  V30 1558 C 144.858 3.36781 -0.369313 0
M  V30 1559 C 143.417 3.76399 -0.00836847 0
M  V30 1560 C 142.564 2.68664 -0.686651 0
M  V30 1561 H 145.515 1.3536 -0.828454 0
M  V30 1562 H 145.536 3.78453 0.394162 0
M  V30 1563 H 145.048 3.61098 -1.42231 0
M  V30 1564 H 143.149 3.57698 1.04322 0
M  V30 1565 H 143.262 4.7732 -0.412584 0
M  V30 1566 H 141.626 2.54404 -0.122777 0
M  V30 1567 H 142.409 2.95815 -1.74208 0
M  V30 1568 N 144.854 0.36279 1.53368 0
M  V30 1569 C 146.131 -0.284021 1.93527 0
M  V30 1570 C 146.511 -1.66628 1.29608 0
M  V30 1571 O 145.859 -2.23942 0.45413 0
M  V30 1572 C 146.069 -0.337028 3.47369 0
M  V30 1573 C 147.417 -0.578708 4.20638 0
M  V30 1574 O 148.441 -0.418352 3.53735 0
M  V30 1575 O 147.3 -0.89074 5.39192 0
M  V30 1576 H 144.394 -0.169743 0.809393 0
M  V30 1577 H 146.94 0.41537 1.64538 0
M  V30 1578 H 145.712 0.632217 3.86159 0
M  V30 1579 H 145.335 -1.08243 3.82582 0
M  V30 1580 N 146.332 -1.57332 0.0918853 0
M  V30 1581 C 147.743 -1.81496 -0.437739 0
M  V30 1582 C 148.094 -1.00727 -1.6837 0
M  V30 1583 O 147.219 -0.235694 -2.15113 0
M  V30 1584 C 147.814 -3.29197 -0.800939 0
M  V30 1585 C 146.373 -3.54136 -1.27532 0
M  V30 1586 C 145.52 -2.75979 -0.270392 0
M  V30 1587 H 148.471 -1.55494 0.317366 0
M  V30 1588 H 148.492 -3.42344 -1.66074 0
M  V30 1589 H 148.004 -3.87955 0.106078 0
M  V30 1590 H 146.105 -3.00705 -2.20016 0
M  V30 1591 H 146.218 -4.62792 -1.23938 0
M  V30 1592 H 144.582 -2.43349 -0.751872 0
M  V30 1593 H 145.365 -3.37484 0.629248 0
M  V30 1594 N 147.81 0.181792 -1.56548 0
M  V30 1595 C 149.035 0.920019 -1.85877 0
M  V30 1596 C 149.46 1.75494 -0.677021 0
M  V30 1597 O 148.818 1.77399 0.374056 0
M  V30 1598 C 148.866 1.78112 -3.13542 0
M  V30 1599 O 147.97 2.88152 -2.95029 0
M  V30 1600 H 147.311 0.258334 -0.611686 0
M  V30 1601 H 149.841 0.183092 -2.03779 0
M  V30 1602 H 149.851 2.18314 -3.44678 0
M  V30 1603 H 148.526 1.16777 -3.99169 0
M  V30 1604 H 147.103 2.51609 -2.75222 0
M  V30 1605 N 149.288 1.51039 0.449983 0
M  V30 1606 C 150.516 1.66869 1.2232 0
M  V30 1607 C 150.931 0.360727 1.85322 0
M  V30 1608 O 150.288 -0.659531 1.70166 0
M  V30 1609 C 150.339 2.77524 2.31652 0
M  V30 1610 O 150.06 4.03252 1.7123 0
M  V30 1611 C 151.561 3.04512 3.2216 0
M  V30 1612 H 148.781 0.560326 0.369155 0
M  V30 1613 H 151.325 1.97385 0.534719 0
M  V30 1614 H 149.48 2.49642 2.96239 0
M  V30 1615 H 149.894 4.64609 2.43389 0
M  V30 1616 H 151.368 3.85551 3.95038 0
M  V30 1617 H 151.845 2.16415 3.8218 0
M  V30 1618 H 152.451 3.34005 2.63288 0
M  V30 1619 N 150.766 -0.704594 1.40972 0
M  V30 1620 C 151.729 -1.80035 1.41845 0
M  V30 1621 C 152.729 -1.57774 0.310474 0
M  V30 1622 O 153.919 -1.64613 0.56992 0
M  V30 1623 C 151.051 -3.18284 1.22098 0
M  V30 1624 H 152.244 -1.80658 2.3938 0
M  V30 1625 H 149.797 -0.911329 1.26982 0
M  V30 1626 H 150.532 -3.23306 0.253672 0
M  V30 1627 H 150.317 -3.35843 2.02366 0
M  V30 1628 H 151.807 -3.98289 1.25522 0
M  V30 1629 N 152.244 -1.26651 -0.937939 0
M  V30 1630 C 153.493 -1.11775 -1.67897 0
M  V30 1631 C 153.806 0.33794 -1.92659 0
M  V30 1632 O 155.012 0.607434 -2.64618 0
M  V30 1633 C 153.468 -1.9523 -3.02346 0
M  V30 1634 C 153.076 -3.45393 -2.8532 0
M  V30 1635 C 154.82 -1.88972 -3.80118 0
M  V30 1636 C 152.727 -4.21083 -4.15263 0
M  V30 1637 H 151.657 -0.414696 -0.629717 0
M  V30 1638 H 154.308 -1.50988 -1.04283 0
M  V30 1639 H 152.69 -1.48853 -3.66959 0
M  V30 1640 H 153.864 -3.99561 -2.29537 0
M  V30 1641 H 152.179 -3.52921 -2.20988 0
M  V30 1642 H 154.776 -2.42805 -4.76392 0
M  V30 1643 H 155.119 -0.86113 -4.07296 0
M  V30 1644 H 155.652 -2.33189 -3.22285 0
M  V30 1645 H 152.391 -5.24425 -3.93267 0
M  V30 1646 H 151.911 -3.71695 -4.70747 0
M  V30 1647 H 153.59 -4.29706 -4.83696 0
M  V30 1648 N 153.722 1.14298 -1.08507 0
M  V30 1649 C 154.652 2.21542 -0.737646 0
M  V30 1650 C 155.633 1.67773 0.280377 0
M  V30 1651 O 156.818 1.93616 0.150521 0
M  V30 1652 C 153.948 3.46988 -0.147259 0
M  V30 1653 C 152.902 4.13789 -1.09374 0
M  V30 1654 C 152.228 5.33449 -0.365524 0
M  V30 1655 C 153.528 4.62208 -2.4323 0
M  V30 1656 H 155.222 2.5086 -1.6343 0
M  V30 1657 H 152.768 1.20576 -0.787243 0
M  V30 1658 H 154.721 4.21262 0.107808 0
M  V30 1659 H 153.445 3.17037 0.784538 0
M  V30 1660 H 152.104 3.4147 -1.33393 0
M  V30 1661 H 151.752 4.99759 0.57011 0
M  V30 1662 H 151.452 5.79088 -0.996512 0
M  V30 1663 H 152.976 6.10485 -0.118534 0
M  V30 1664 H 154.39 5.27952 -2.23472 0
M  V30 1665 H 152.787 5.18553 -3.02031 0
M  V30 1666 H 153.857 3.77224 -3.04681 0
M  V30 1667 N 155.201 0.870884 1.31352 0
M  V30 1668 C 156.151 0.298889 2.26032 0
M  V30 1669 C 157.135 -0.564595 1.50669 0
M  V30 1670 O 158.327 -0.411323 1.72154 0
M  V30 1671 C 155.456 -0.497842 3.39671 0
M  V30 1672 C 154.542 0.378937 4.22404 0
M  V30 1673 N 154.933 1.47284 4.83881 0
M  V30 1674 C 153.231 0.171535 4.4567 0
M  V30 1675 C 153.932 2.01359 5.45738 0
M  V30 1676 N 152.908 1.31047 5.27568 0
M  V30 1677 H 156.71 1.13494 2.71102 0
M  V30 1678 H 154.224 0.718745 1.45629 0
M  V30 1679 H 156.221 -0.924155 4.06528 0
M  V30 1680 H 154.881 -1.33149 2.96144 0
M  V30 1681 H 155.892 1.85575 4.8351 0
M  V30 1682 H 152.569 -0.626091 4.12779 0
M  V30 1683 H 153.959 2.93143 6.0458 0
M  V30 1684 N 156.679 -1.44442 0.630414 0
M  V30 1685 C 157.926 -2.02052 0.134617 0
M  V30 1686 C 158.254 -1.49576 -1.24327 0
M  V30 1687 O 157.509 -0.669806 -1.83881 0
M  V30 1688 C 157.808 -3.57332 0.0697835 0
M  V30 1689 C 157.474 -4.29058 1.38635 0
M  V30 1690 C 156.136 -4.4837 1.74694 0
M  V30 1691 C 158.488 -4.69872 2.25543 0
M  V30 1692 C 155.816 -5.05756 2.97369 0
M  V30 1693 C 158.168 -5.28616 3.47487 0
M  V30 1694 C 156.832 -5.46147 3.8377 0
M  V30 1695 H 156.102 -0.739361 0.0492598 0
M  V30 1696 H 158.749 -1.73217 0.816586 0
M  V30 1697 H 157.054 -3.85577 -0.695553 0
M  V30 1698 H 158.751 -3.99637 -0.330344 0
M  V30 1699 H 155.341 -4.14357 1.09574 0
M  V30 1700 H 159.525 -4.54666 1.98979 0
M  V30 1701 H 154.781 -5.17515 3.25558 0
M  V30 1702 H 158.955 -5.59192 4.15063 0
M  V30 1703 H 156.582 -5.9038 4.7891 0
M  V30 1704 N 158.157 -0.370918 -1.53173 0
M  V30 1705 C 159.573 -0.0200818 -1.59587 0
M  V30 1706 C 159.773 1.46279 -1.38581 0
M  V30 1707 O 158.829 2.22506 -1.19363 0
M  V30 1708 C 160.142 -0.4808 -2.96831 0
M  V30 1709 C 161.69 -0.435477 -3.09956 0
M  V30 1710 C 162.165 -0.872092 -4.4962 0
M  V30 1711 N 163.656 -0.827364 -4.55751 0
M  V30 1712 C 164.391 -1.13683 -5.62018 0
M  V30 1713 N 163.887 -1.51584 -6.76014 0
M  V30 1714 N 165.68 -1.05927 -5.52029 0
M  V30 1715 H 157.831 -1.33652 -1.65079 0
M  V30 1716 H 160.094 -0.546634 -0.774529 0
M  V30 1717 H 159.8 -1.51577 -3.1736 0
M  V30 1718 H 159.674 0.129796 -3.76977 0
M  V30 1719 H 162.061 0.590371 -2.89134 0
M  V30 1720 H 162.142 -1.08164 -2.31806 0
M  V30 1721 H 161.786 -1.89608 -4.71181 0
M  V30 1722 H 161.716 -0.203127 -5.26208 0
M  V30 1723 H 164.207 -0.548216 -3.73902 0
M  V30 1724 H 164.52 -1.73609 -7.53047 0
M  V30 1725 H 162.865 -1.55454 -6.77391 0
M  V30 1726 H 166.056 -0.762321 -4.61851 0
M  V30 1727 H 166.229 -1.30378 -6.34749 0
M  V30 1728 N 159.635 1.57281 -0.100228 0
M  V30 1729 C 160.565 2.17328 0.853857 0
M  V30 1730 C 161.546 1.10804 1.2906 0
M  V30 1731 O 162.731 1.38963 1.35657 0
M  V30 1732 C 159.861 2.75772 2.11109 0
M  V30 1733 C 158.815 3.87713 1.81279 0
M  V30 1734 C 158.141 4.32882 3.13874 0
M  V30 1735 C 159.441 5.10677 1.09574 0
M  V30 1736 H 161.135 2.97305 0.353545 0
M  V30 1737 H 158.681 1.43009 0.168612 0
M  V30 1738 H 160.634 3.16433 2.78296 0
M  V30 1739 H 159.358 1.93057 2.63432 0
M  V30 1740 H 158.017 3.476 1.16489 0
M  V30 1741 H 157.665 3.47051 3.64095 0
M  V30 1742 H 157.365 5.08358 2.94696 0
M  V30 1743 H 158.889 4.7618 3.82211 0
M  V30 1744 H 160.303 5.48474 1.66879 0
M  V30 1745 H 158.7 5.91615 1.00557 0
M  V30 1746 H 159.77 4.84835 0.0793299 0
M  V30 1747 N 161.113 -0.173488 1.56642 0
M  V30 1748 C 162.36 -0.890465 1.81871 0
M  V30 1749 C 162.688 -1.82339 0.67696 0
M  V30 1750 O 161.943 -1.92795 -0.335926 0
M  V30 1751 C 162.242 -1.72069 3.13252 0
M  V30 1752 C 161.908 -0.936878 4.41059 0
M  V30 1753 C 160.57 -0.720545 4.75775 0
M  V30 1754 C 162.922 -0.386919 5.19762 0
M  V30 1755 C 160.25 0.0568829 5.86672 0
M  V30 1756 C 162.602 0.37741 6.31473 0
M  V30 1757 C 161.266 0.604563 6.64757 0
M  V30 1758 H 160.536 -0.325844 0.665512 0
M  V30 1759 H 163.183 -0.155527 1.90867 0
M  V30 1760 H 161.488 -2.52496 2.99588 0
M  V30 1761 H 163.185 -2.27844 3.29982 0
M  V30 1762 H 159.775 -1.11553 4.13828 0
M  V30 1763 H 163.959 -0.541398 4.93338 0
M  V30 1764 H 159.215 0.242635 6.10918 0
M  V30 1765 H 163.389 0.810825 6.91664 0
M  V30 1766 H 161.016 1.20885 7.50527 0
M  V30 1767 N 162.591 -1.51276 -0.441967 0
M  V30 1768 C 163.837 -1.63958 -1.19355 0
M  V30 1769 C 164.17 -0.352543 -1.90973 0
M  V30 1770 O 163.445 0.647627 -1.83401 0
M  V30 1771 C 163.728 -2.83979 -2.21422 0
M  V30 1772 C 163.581 -4.22646 -1.53918 0
M  V30 1773 C 164.9 -2.99521 -3.22451 0
M  V30 1774 H 162.019 -0.596709 -0.432559 0
M  V30 1775 H 164.661 -1.83748 -0.483398 0
M  V30 1776 H 162.811 -2.67237 -2.81987 0
M  V30 1777 H 164.483 -4.51045 -0.967256 0
M  V30 1778 H 162.726 -4.25558 -0.841615 0
M  V30 1779 H 163.397 -5.02609 -2.28229 0
M  V30 1780 H 165.873 -3.14944 -2.71937 0
M  V30 1781 H 164.749 -3.85072 -3.91166 0
M  V30 1782 H 165.01 -2.11391 -3.88287 0
M  V30 1783 N 164.069 0.697108 -1.41344 0
M  V30 1784 C 165.317 1.45426 -1.40341 0
M  V30 1785 C 165.638 1.94996 -0.0128787 0
M  V30 1786 O 164.908 1.71599 0.945027 0
M  V30 1787 H 163.488 0.539594 -0.516573 0
M  V30 1788 H 166.15 0.825201 -1.76569 0
M  V30 1789 H 165.246 2.31817 -2.08967 0
M  V30 1790 N 165.547 1.27147 0.931209 0
M  V30 1791 C 166.51 1.09615 2.01289 0
M  V30 1792 C 167.51 0.0412581 1.60747 0
M  V30 1793 O 168.7 0.285545 1.71844 0
M  V30 1794 C 165.832 0.669447 3.34262 0
M  V30 1795 H 167.025 2.05662 2.18273 0
M  V30 1796 H 164.578 1.09885 1.11153 0
M  V30 1797 H 165.313 -0.292572 3.22978 0
M  V30 1798 H 165.098 1.43127 3.65044 0
M  V30 1799 H 166.588 0.568921 4.13706 0
M  V30 1800 N 167.025 -1.13721 1.09112 0
M  V30 1801 C 168.441 -1.36914 0.820174 0
M  V30 1802 C 168.641 -1.93356 -0.567079 0
M  V30 1803 O 167.697 -2.15093 -1.32255 0
M  V30 1804 C 169.01 -2.3235 1.90877 0
M  V30 1805 C 170.558 -2.45973 1.93562 0
M  V30 1806 C 171.033 -3.44714 3.01556 0
M  V30 1807 N 172.524 -3.52263 3.00775 0
M  V30 1808 C 173.259 -4.28536 3.80978 0
M  V30 1809 N 172.755 -5.07991 4.71081 0
M  V30 1810 N 174.548 -4.23804 3.69251 0
M  V30 1811 H 166.699 -0.754348 1.98553 0
M  V30 1812 H 168.962 -0.3944 0.862063 0
M  V30 1813 H 168.668 -1.98027 2.90651 0
M  V30 1814 H 168.542 -3.32332 1.78424 0
M  V30 1815 H 170.929 -2.79584 0.944286 0
M  V30 1816 H 171.01 -1.45926 2.10093 0
M  V30 1817 H 170.654 -3.11835 4.00901 0
M  V30 1818 H 170.584 -4.44558 2.82269 0
M  V30 1819 H 173.075 -2.95567 2.35475 0
M  V30 1820 H 173.388 -5.63487 5.28869 0
M  V30 1821 H 171.733 -5.07235 4.75119 0
M  V30 1822 H 174.924 -3.60806 2.98222 0
M  V30 1823 H 175.097 -4.82995 4.31995 0
M  V30 1824 N 168.503 -0.877838 -1.30888 0
M  V30 1825 C 169.752 -0.488793 -1.95688 0
M  V30 1826 C 170.065 0.965485 -1.70111 0
M  V30 1827 O 171.271 1.46104 -2.28836 0
M  V30 1828 C 169.727 -0.823201 -3.50359 0
M  V30 1829 C 169.335 -2.29477 -3.84765 0
M  V30 1830 C 171.079 -0.503009 -4.21509 0
M  V30 1831 C 168.986 -2.57118 -5.32583 0
M  V30 1832 H 167.916 -0.179062 -0.732429 0
M  V30 1833 H 170.567 -1.07183 -1.48943 0
M  V30 1834 H 168.949 -0.169331 -3.95638 0
M  V30 1835 H 170.123 -2.99236 -3.5042 0
M  V30 1836 H 168.438 -2.58178 -3.267 0
M  V30 1837 H 171.035 -0.68665 -5.30273 0
M  V30 1838 H 171.378 0.557109 -4.12555 0
M  V30 1839 H 171.911 -1.11376 -3.8189 0
M  V30 1840 H 168.65 -3.61843 -5.4658 0
M  V30 1841 H 168.17 -1.91961 -5.68253 0
M  V30 1842 H 169.849 -2.42251 -5.99936 0
M  V30 1843 N 169.982 1.44106 -0.638065 0
M  V30 1844 C 171.212 2.06037 -0.152394 0
M  V30 1845 C 171.62 1.47808 1.18108 0
M  V30 1846 O 170.963 0.598092 1.73691 0
M  V30 1847 C 171.025 3.59488 0.0293714 0
M  V30 1848 C 170.689 4.4022 -1.22702 0
M  V30 1849 C 171.686 4.73256 -2.15232 0
M  V30 1850 C 169.371 4.8048 -1.46437 0
M  V30 1851 C 171.365 5.45444 -3.29802 0
M  V30 1852 C 169.052 5.52417 -2.61303 0
M  V30 1853 C 170.05 5.84819 -3.52811 0
M  V30 1854 O 169.738 6.55289 -4.65673 0
M  V30 1855 H 169.47 0.671233 -0.0801401 0
M  V30 1856 H 172.024 1.85851 -0.874563 0
M  V30 1857 H 170.254 3.78191 0.806758 0
M  V30 1858 H 171.943 4.03164 0.470475 0
M  V30 1859 H 172.709 4.42684 -1.98131 0
M  V30 1860 H 168.588 4.54676 -0.760977 0
M  V30 1861 H 172.132 5.70653 -4.01249 0
M  V30 1862 H 168.029 5.82404 -2.78344 0
M  V30 1863 H 168.797 6.73762 -4.64744 0
M  V30 1864 N 171.46 0.379036 1.52974 0
M  V30 1865 C 172.41 -0.477772 2.22938 0
M  V30 1866 C 173.394 -1.03792 1.22948 0
M  V30 1867 O 174.586 -0.965725 1.48333 0
M  V30 1868 C 171.715 -1.60994 3.03209 0
M  V30 1869 C 170.801 -1.06203 4.10587 0
M  V30 1870 N 171.192 -0.238214 5.05239 0
M  V30 1871 C 169.49 -1.33554 4.25534 0
M  V30 1872 C 170.191 0.0633235 5.81666 0
M  V30 1873 N 169.167 -0.537901 5.40932 0
M  V30 1874 H 172.969 0.158295 2.93473 0
M  V30 1875 H 170.483 0.187778 1.61311 0
M  V30 1876 H 172.48 -2.23607 3.5186 0
M  V30 1877 H 171.14 -2.24893 2.34207 0
M  V30 1878 H 172.151 0.123695 5.17752 0
M  V30 1879 H 168.828 -1.97632 3.6776 0
M  V30 1880 H 170.218 0.730161 6.67921 0
M  V30 1881 N 172.938 -1.57226 0.108567 0
M  V30 1882 C 174.166 -1.99179 -0.559954 0
M  V30 1883 C 174.581 -0.988022 -1.60884 0
M  V30 1884 O 173.938 0.0205512 -1.82488 0
M  V30 1885 C 173.989 -3.41159 -1.19552 0
M  V30 1886 O 173.71 -4.37694 -0.188577 0
M  V30 1887 C 175.211 -3.98188 -1.94837 0
M  V30 1888 H 172.431 -0.654228 -0.149088 0
M  V30 1889 H 174.975 -2.03598 0.19183 0
M  V30 1890 H 173.13 -3.37711 -1.89815 0
M  V30 1891 H 173.544 -5.20469 -0.649014 0
M  V30 1892 H 175.018 -4.99644 -2.34648 0
M  V30 1893 H 175.495 -3.3675 -2.81951 0
M  V30 1894 H 176.101 -4.0515 -1.2936 0
M  V30 1895 N 174.416 0.165178 -1.56732 0
M  V30 1896 C 175.665 0.879143 -1.81532 0
M  V30 1897 C 175.978 1.83144 -0.686842 0
M  V30 1898 O 177.184 2.58823 -0.819944 0
M  V30 1899 C 175.64 1.61388 -3.21686 0
M  V30 1900 C 175.248 0.704904 -4.4242 0
M  V30 1901 C 176.992 2.3157 -3.55774 0
M  V30 1902 C 174.899 1.44022 -5.73595 0
M  V30 1903 H 173.829 0.332033 -0.676957 0
M  V30 1904 H 176.48 0.132008 -1.83025 0
M  V30 1905 H 174.862 2.40599 -3.14529 0
M  V30 1906 H 176.036 -0.0506815 -4.60772 0
M  V30 1907 H 174.351 0.112419 -4.16248 0
M  V30 1908 H 176.948 2.8719 -4.51028 0
M  V30 1909 H 177.291 3.07201 -2.8095 0
M  V30 1910 H 177.824 1.59297 -3.64513 0
M  V30 1911 H 174.563 0.72612 -6.51466 0
M  V30 1912 H 174.083 2.16898 -5.5921 0
M  V30 1913 H 175.762 1.98606 -6.15764 0
M  V30 1914 N 175.894 1.51508 0.433938 0
M  V30 1915 C 176.857 1.72473 1.50949 0
M  V30 1916 C 177.857 0.594725 1.49398 0
M  V30 1917 O 179.047 0.862315 1.5136 0
M  V30 1918 C 176.179 1.78431 2.90474 0
M  V30 1919 H 177.372 2.68467 1.33662 0
M  V30 1920 H 174.925 1.41549 0.662836 0
M  V30 1921 H 175.66 0.842645 3.13161 0
M  V30 1922 H 175.445 2.60558 2.93005 0
M  V30 1923 H 176.935 1.96479 3.68491 0
M  V30 1924 N 177.372 -0.689602 1.41712 0
M  V30 1925 C 178.602 -1.47613 1.44548 0
M  V30 1926 C 179.01 -1.89132 0.0509034 0
M  V30 1927 O 178.353 -1.57741 -0.94146 0
M  V30 1928 C 178.415 -2.76596 2.2964 0
M  V30 1929 C 178.079 -2.57245 3.77722 0
M  V30 1930 C 179.076 -2.22804 4.69739 0
M  V30 1931 C 176.761 -2.727 4.2183 0
M  V30 1932 C 178.755 -2.04064 6.03851 0
M  V30 1933 C 176.442 -2.53576 5.56006 0
M  V30 1934 C 177.44 -2.1931 6.46832 0
M  V30 1935 O 177.128 -2.00359 7.78532 0
M  V30 1936 H 176.86 -0.461227 0.494212 0
M  V30 1937 H 179.414 -0.856045 1.86711 0
M  V30 1938 H 177.644 -3.41033 1.82301 0
M  V30 1939 H 179.333 -3.38424 2.24107 0
M  V30 1940 H 180.099 -2.10473 4.36951 0
M  V30 1941 H 175.978 -2.98353 3.51435 0
M  V30 1942 H 179.522 -1.77241 6.74708 0
M  V30 1943 H 175.419 -2.65499 5.88371 0
M  V30 1944 H 176.187 -2.15075 7.89737 0
M  V30 1945 N 178.85 -1.27639 -0.924453 0
M  V30 1946 C 179.78 -1.13166 -2.04244 0
M  V30 1947 C 180.761 -0.032256 -1.70069 0
M  V30 1948 O 181.946 -0.207328 -1.9309 0
M  V30 1949 C 179.076 -0.781496 -3.38393 0
M  V30 1950 C 178.03 -1.83449 -3.86692 0
M  V30 1951 C 177.356 -1.33822 -5.17683 0
M  V30 1952 C 178.656 -3.23917 -4.09726 0
M  V30 1953 H 180.35 -2.06689 -2.1661 0
M  V30 1954 H 177.896 -0.995136 -1.04082 0
M  V30 1955 H 179.849 -0.667057 -4.16087 0
M  V30 1956 H 178.573 0.189439 -3.2605 0
M  V30 1957 H 177.232 -1.93789 -3.11193 0
M  V30 1958 H 176.88 -0.35665 -5.01734 0
M  V30 1959 H 176.58 -2.04224 -5.50968 0
M  V30 1960 H 178.104 -1.23679 -5.97943 0
M  V30 1961 H 179.518 -3.16559 -4.77978 0
M  V30 1962 H 177.915 -3.92059 -4.54324 0
M  V30 1963 H 178.985 -3.68729 -3.14908 0
M  V30 1964 N 180.328 1.1314 -1.09713 0
M  V30 1965 C 181.556 1.88321 -0.856898 0
M  V30 1966 C 181.971 1.79276 0.592073 0
M  V30 1967 O 181.328 1.16142 1.40774 0
M  V30 1968 C 181.379 3.37812 -1.28706 0
M  V30 1969 O 181.1 3.46627 -2.67921 0
M  V30 1970 C 182.601 4.29952 -1.07964 0
M  V30 1971 H 179.821 0.596094 -0.308079 0
M  V30 1972 H 182.365 1.43205 -1.45988 0
M  V30 1973 H 180.52 3.805 -0.727912 0
M  V30 1974 H 180.934 4.39579 -2.8613 0
M  V30 1975 H 182.408 5.33159 -1.42986 0
M  V30 1976 H 182.885 4.39196 -0.0176577 0
M  V30 1977 H 183.491 3.93036 -1.62489 0
M  V30 1978 N 181.806 0.884767 1.30421 0
M  V30 1979 C 183.217 0.553656 1.78302 0
M  V30 1980 C 183.568 -0.930153 1.7275 0
M  V30 1981 O 182.693 -1.72681 1.30423 0
M  V30 1982 C 183.288 0.998234 3.2376 0
M  V30 1983 C 181.847 0.71854 3.69478 0
M  V30 1984 C 180.994 1.18132 2.50879 0
M  V30 1985 H 183.945 1.06901 1.17294 0
M  V30 1986 H 183.966 0.327118 3.79091 0
M  V30 1987 H 183.478 2.0782 3.27769 0
M  V30 1988 H 181.579 -0.349444 3.70958 0
M  V30 1989 H 181.692 1.30595 4.60958 0
M  V30 1990 H 180.056 0.600669 2.47516 0
M  V30 1991 H 180.839 2.26902 2.57624 0
M  V30 1992 N 183.284 -1.43765 0.645699 0
M  V30 1993 C 184.214 -2.33471 -0.0370477 0
M  V30 1994 C 185.195 -1.49042 -0.819779 0
M  V30 1995 O 186.38 -1.77726 -0.782758 0
M  V30 1996 C 183.51 -3.32311 -1.0093 0
M  V30 1997 C 182.464 -4.2667 -0.337201 0
M  V30 1998 C 181.79 -5.1549 -1.42037 0
M  V30 1999 C 183.09 -5.16657 0.765706 0
M  V30 2000 H 184.784 -2.90809 0.712069 0
M  V30 2001 H 182.33 -1.39834 0.343876 0
M  V30 2002 H 184.283 -3.9396 -1.49578 0
M  V30 2003 H 183.007 -2.73213 -1.78948 0
M  V30 2004 H 181.666 -3.66374 0.128771 0
M  V30 2005 H 181.314 -4.52735 -2.1918 0
M  V30 2006 H 181.014 -5.79438 -0.975966 0
M  V30 2007 H 182.538 -5.80012 -1.90838 0
M  V30 2008 H 183.952 -5.72158 0.361702 0
M  V30 2009 H 182.349 -5.89286 1.13413 0
M  V30 2010 H 183.419 -4.56796 1.62683 0
M  V30 2011 N 184.763 -0.387143 -1.52771 0
M  V30 2012 C 186.174 0.0873634 -1.86495 0
M  V30 2013 C 186.525 1.46336 -1.30691 0
M  V30 2014 O 185.65 2.068 -0.637409 0
M  V30 2015 C 186.245 0.165305 -3.38396 0
M  V30 2016 C 184.804 0.584101 -3.7184 0
M  V30 2017 C 183.951 -0.255279 -2.76122 0
M  V30 2018 H 186.902 -0.605104 -1.46711 0
M  V30 2019 H 186.923 0.984848 -3.67534 0
M  V30 2020 H 186.435 -0.836301 -3.78982 0
M  V30 2021 H 184.536 1.59315 -3.36823 0
M  V30 2022 H 184.649 0.343749 -4.77865 0
M  V30 2023 H 183.013 0.279126 -2.53166 0
M  V30 2024 H 183.796 -1.25482 -3.19545 0
M  V30 2025 N 186.241 1.57166 -0.116904 0
M  V30 2026 C 187.173 2.12271 0.864507 0
M  V30 2027 C 188.186 1.06494 1.23138 0
M  V30 2028 O 189.375 1.33873 1.18069 0
M  V30 2029 C 186.475 2.60564 2.16702 0
M  V30 2030 C 185.648 3.90416 1.97216 0
M  V30 2031 C 184.707 4.24329 3.11178 0
M  V30 2032 O 183.733 4.93182 2.84184 0
M  V30 2033 N 184.935 3.8148 4.37554 0
M  V30 2034 H 187.7 2.97102 0.393726 0
M  V30 2035 H 185.261 1.61759 0.0675805 0
M  V30 2036 H 187.253 2.80282 2.91932 0
M  V30 2037 H 185.823 1.80623 2.55135 0
M  V30 2038 H 185.043 3.79627 1.06192 0
M  V30 2039 H 186.331 4.75327 1.81499 0
M  V30 2040 H 185.729 3.25943 4.62361 0
M  V30 2041 H 184.286 4.06311 5.09661 0
M  V30 2042 N 187.719 -0.156864 1.56817 0
M  V30 2043 C 189.13 -0.717916 1.72345 0
M  V30 2044 C 189.481 -1.82124 0.729747 0
M  V30 2045 O 188.606 -2.16141 -0.105781 0
M  V30 2046 C 189.201 -1.30904 3.12489 0
M  V30 2047 C 187.76 -1.81676 3.29653 0
M  V30 2048 C 186.907 -0.701349 2.68284 0
M  V30 2049 H 189.858 0.0686989 1.58551 0
M  V30 2050 H 189.879 -2.17882 3.11942 0
M  V30 2051 H 189.391 -0.505796 3.8479 0
M  V30 2052 H 187.492 -2.64598 2.62333 0
M  V30 2053 H 187.605 -1.95226 4.3752 0
M  V30 2054 H 185.969 -1.12548 2.28484 0
M  V30 2055 H 186.752 0.0902846 3.43181 0
M  V30 2056 N 189.197 -1.51736 -0.425897 0
M  V30 2057 C 190.145 -1.74464 -1.53834 0
M  V30 2058 C 191.139 -0.611241 -1.57988 0
M  V30 2059 O 192.345 -0.792899 -1.61596 0
M  V30 2060 H 188.72 -0.551437 -0.511293 0
M  V30 2061 H 190.691 -2.67694 -1.31843 0
M  V30 2062 C 189.44 -1.8972 -2.91379 0
M  V30 2063 H 188.763 -2.76344 -2.88919 0
M  V30 2064 H 190.203 -2.09629 -3.68553 0
M  V30 2065 C 188.662 -0.65992 -3.30374 0
M  V30 2066 O 189.192 0.180083 -4.01296 0
M  V30 2067 N 187.398 -0.500677 -2.86254 0
M  V30 2068 H 186.945 -1.18532 -2.28709 0
M  V30 2069 H 186.903 0.325903 -3.12706 0
M  V30 2070 N 190.675 0.682077 -1.42076 0
M  V30 2071 C 192.091 0.994324 -1.24841 0
M  V30 2072 C 192.291 2.0096 -0.147389 0
M  V30 2073 O 191.347 2.47822 0.483782 0
M  V30 2074 C 192.66 1.50607 -2.60265 0
M  V30 2075 C 194.208 1.62421 -2.6756 0
M  V30 2076 C 194.683 2.16994 -4.03333 0
M  V30 2077 N 196.174 2.24337 -4.0525 0
M  V30 2078 C 196.909 2.67621 -5.07116 0
M  V30 2079 N 196.405 3.1041 -6.19368 0
M  V30 2080 N 198.198 2.67305 -4.94474 0
M  V30 2081 H 190.349 0.00973908 -2.12398 0
M  V30 2082 H 192.612 0.0668593 -0.945639 0
M  V30 2083 H 192.318 0.834583 -3.41654 0
M  V30 2084 H 192.192 2.48602 -2.83684 0
M  V30 2085 H 194.579 2.28678 -1.86521 0
M  V30 2086 H 194.66 0.629352 -2.47937 0
M  V30 2087 H 194.304 1.51349 -4.84826 0
M  V30 2088 H 194.234 3.17258 -4.20304 0
M  V30 2089 H 196.725 1.94158 -3.24209 0
M  V30 2090 H 197.038 3.42103 -6.92954 0
M  V30 2091 H 195.383 3.08286 -6.22884 0
M  V30 2092 H 198.574 2.33233 -4.05857 0
M  V30 2093 H 198.747 3.00718 -5.73997 0
M  V30 2094 N 192.153 1.28127 0.917671 0
M  V30 2095 C 193.116 1.11744 2.00115 0
M  V30 2096 C 194.116 0.0583052 1.60694 0
M  V30 2097 O 195.306 0.303755 1.71531 0
M  V30 2098 C 192.438 0.704862 3.33533 0
M  V30 2099 H 193.631 2.07966 2.16079 0
M  V30 2100 H 191.184 1.11058 1.09981 0
M  V30 2101 H 191.919 -0.258299 3.2327 0
M  V30 2102 H 191.704 1.4699 3.63505 0
M  V30 2103 H 193.194 0.612768 4.1308 0
M  V30 2104 N 193.631 -1.12557 1.10312 0
M  V30 2105 C 194.561 -2.20341 0.772798 0
M  V30 2106 C 195.542 -1.68198 -0.25365 0
M  V30 2107 O 196.727 -1.93831 -0.119699 0
M  V30 2108 C 193.857 -3.46709 0.202443 0
M  V30 2109 C 192.811 -4.11996 1.15943 0
M  V30 2110 C 192.137 -5.328 0.450345 0
M  V30 2111 C 193.437 -4.5828 2.50552 0
M  V30 2112 H 195.131 -2.48229 1.674 0
M  V30 2113 H 192.677 -1.19308 0.806326 0
M  V30 2114 H 194.63 -4.2138 -0.0407752 0
M  V30 2115 H 193.354 -3.18245 -0.734001 0
M  V30 2116 H 192.013 -3.39305 1.38808 0
M  V30 2117 H 191.661 -5.00602 -0.490531 0
M  V30 2118 H 191.361 -5.7743 1.08851 0
M  V30 2119 H 192.885 -6.10219 0.215642 0
M  V30 2120 H 194.299 -5.2433 2.31843 0
M  V30 2121 H 192.696 -5.13683 3.10242 0
M  V30 2122 H 193.766 -3.72329 3.10643 0
M  V30 2123 N 195.109 -0.891671 -1.2995 0
M  V30 2124 C 196.334 -0.527932 -2.00568 0
M  V30 2125 C 196.759 0.877969 -1.66353 0
M  V30 2126 O 196.117 1.58301 -0.883762 0
M  V30 2127 C 196.165 -0.717745 -3.53385 0
M  V30 2128 O 195.269 0.233376 -4.11739 0
M  V30 2129 H 194.61 -0.20722 -0.630837 0
M  V30 2130 H 197.14 -1.20105 -1.65638 0
M  V30 2131 H 197.15 -0.619307 -4.03272 0
M  V30 2132 H 195.825 -1.74276 -3.77625 0
M  V30 2133 H 194.402 0.0880706 -3.72796 0
M  V30 2134 N 196.587 1.43421 -0.653314 0
M  V30 2135 C 197.834 2.01812 -0.166745 0
M  V30 2136 C 198.162 1.51535 1.21931 0
M  V30 2137 O 197.417 0.698975 1.82792 0
M  V30 2138 C 197.716 3.57176 -0.126623 0
M  V30 2139 C 197.382 4.26798 -1.45444 0
M  V30 2140 C 196.044 4.45534 -1.81805 0
M  V30 2141 C 198.396 4.66225 -2.32989 0
M  V30 2142 C 195.724 5.00961 -3.05377 0
M  V30 2143 C 198.076 5.23021 -3.55853 0
M  V30 2144 C 196.74 5.39973 -3.9241 0
M  V30 2145 H 196.01 0.738484 -0.0610162 0
M  V30 2146 H 198.657 1.71896 -0.84404 0
M  V30 2147 H 196.962 3.86634 0.634123 0
M  V30 2148 H 198.659 4.00112 0.266723 0
M  V30 2149 H 195.249 4.12561 -1.16153 0
M  V30 2150 H 199.433 4.51443 -2.06187 0
M  V30 2151 H 194.689 5.12271 -3.3375 0
M  V30 2152 H 198.863 5.52518 -4.23907 0
M  V30 2153 H 196.49 5.82687 -4.88242 0
M  V30 2154 N 198.065 0.39524 1.52563 0
M  V30 2155 C 199.312 -0.185044 2.01653 0
M  V30 2156 C 199.64 -1.46317 1.28146 0
M  V30 2157 O 198.895 -1.9213 0.372074 0
M  V30 2158 C 199.194 -0.493444 3.53977 0
M  V30 2159 C 198.86 0.69384 4.4553 0
M  V30 2160 C 197.522 1.01954 4.70275 0
M  V30 2161 C 199.874 1.48785 4.99512 0
M  V30 2162 C 197.202 2.14069 5.46252 0
M  V30 2163 C 199.554 2.59965 5.76716 0
M  V30 2164 C 198.218 2.93037 5.99738 0
M  V30 2165 H 197.488 -0.0677123 0.7379 0
M  V30 2166 H 200.135 0.533807 1.8391 0
M  V30 2167 H 198.44 -1.29369 3.69825 0
M  V30 2168 H 200.137 -0.955163 3.89458 0
M  V30 2169 H 196.727 0.429987 4.26438 0
M  V30 2170 H 200.911 1.24946 4.80315 0
M  V30 2171 H 196.167 2.40056 5.62302 0
M  V30 2172 H 200.341 3.21887 6.17545 0
M  V30 2173 H 197.968 3.8003 6.58393 0
M  V30 2174 N 199.544 -1.57102 0.125237 0
M  V30 2175 C 200.79 -1.95697 -0.532035 0
M  V30 2176 C 201.123 -1.009 -1.6593 0
M  V30 2177 O 200.398 -0.047347 -1.94442 0
M  V30 2178 C 200.681 -3.44181 -1.05884 0
M  V30 2179 C 200.534 -4.49752 0.0654392 0
M  V30 2180 C 201.853 -3.94655 -1.9477 0
M  V30 2181 H 198.972 -0.711571 -0.191925 0
M  V30 2182 H 201.614 -1.88923 0.20206 0
M  V30 2183 H 199.764 -3.50085 -1.68442 0
M  V30 2184 H 201.436 -4.55943 0.700982 0
M  V30 2185 H 199.679 -4.27653 0.727709 0
M  V30 2186 H 200.35 -5.50924 -0.344505 0
M  V30 2187 H 202.826 -3.91094 -1.42074 0
M  V30 2188 H 201.702 -4.99057 -2.28546 0
M  V30 2189 H 201.963 -3.35718 -2.87656 0
M  V30 2190 N 201.022 0.148545 -1.56898 0
M  V30 2191 C 202.27 0.859717 -1.82902 0
M  V30 2192 C 202.591 1.81775 -0.70588 0
M  V30 2193 O 201.861 1.93994 0.272586 0
M  V30 2194 H 200.441 0.320469 -0.674766 0
M  V30 2195 H 203.103 0.142918 -1.94375 0
M  V30 2196 H 202.199 1.4229 -2.77777 0
M  V30 2197 N 202.5 1.5196 0.417844 0
M  V30 2198 C 203.73 1.69181 1.18581 0
M  V30 2199 C 204.138 0.397104 1.84986 0
M  V30 2200 O 203.481 -0.636011 1.72339 0
M  V30 2201 C 203.543 2.76497 2.29759 0
M  V30 2202 C 203.207 4.18514 1.83563 0
M  V30 2203 C 204.204 5.02648 1.32821 0
M  V30 2204 C 201.889 4.64708 1.90661 0
M  V30 2205 C 203.883 6.31044 0.897894 0
M  V30 2206 C 201.57 5.93096 1.47241 0
M  V30 2207 C 202.568 6.76093 0.968891 0
M  V30 2208 O 202.256 8.02078 0.540924 0
M  V30 2209 H 201.988 0.570457 0.362705 0
M  V30 2210 H 204.542 1.99249 0.498885 0
M  V30 2211 H 202.772 2.41786 3.01789 0
M  V30 2212 H 204.461 2.82403 2.91553 0
M  V30 2213 H 205.227 4.68154 1.26716 0
M  V30 2214 H 201.106 4.00216 2.28797 0
M  V30 2215 H 204.65 6.95776 0.504192 0
M  V30 2216 H 200.547 6.271 1.53022 0
M  V30 2217 H 201.315 8.15794 0.66502 0
M  V30 2218 N 203.978 -0.674533 1.42435 0
M  V30 2219 C 205.226 -1.43175 1.42637 0
M  V30 2220 C 205.547 -1.94951 0.0438992 0
M  V30 2221 O 204.817 -1.7308 -0.917607 0
M  V30 2222 H 203.397 -0.531307 0.525092 0
M  V30 2223 H 206.059 -0.797006 1.77859 0
M  V30 2224 H 205.155 -2.28463 2.12629 0
M  V30 2225 N 205.456 -1.28612 -0.910864 0
M  V30 2226 C 206.702 -1.16106 -1.66274 0
M  V30 2227 C 207.035 0.289113 -1.92036 0
M  V30 2228 O 206.31 1.21 -1.52281 0
M  V30 2229 C 206.593 -1.96309 -3.01885 0
M  V30 2230 C 206.446 -3.49405 -2.8326 0
M  V30 2231 C 207.765 -1.78076 -4.02463 0
M  V30 2232 H 204.884 -0.423152 -0.603417 0
M  V30 2233 H 207.526 -1.57961 -1.05586 0
M  V30 2234 H 205.676 -1.60742 -3.53687 0
M  V30 2235 H 207.348 -3.94894 -2.38446 0
M  V30 2236 H 205.591 -3.74893 -2.18261 0
M  V30 2237 H 206.262 -4.00784 -3.79574 0
M  V30 2238 H 208.738 -2.0912 -3.59733 0
M  V30 2239 H 207.614 -2.36561 -4.95308 0
M  V30 2240 H 207.875 -0.733008 -4.35981 0
M  V30 2241 N 206.934 1.1197 -1.10907 0
M  V30 2242 C 208.162 1.87402 -0.876824 0
M  V30 2243 C 208.577 1.79894 0.573025 0
M  V30 2244 O 207.934 1.17629 1.39534 0
M  V30 2245 C 207.985 3.36428 -1.32282 0
M  V30 2246 O 207.706 3.43765 -2.71582 0
M  V30 2247 C 209.207 4.28783 -1.12518 0
M  V30 2248 H 206.427 0.592793 -0.314384 0
M  V30 2249 H 208.971 1.41649 -1.47499 0
M  V30 2250 H 207.126 3.79706 -0.768229 0
M  V30 2251 H 207.54 4.3652 -2.90776 0
M  V30 2252 H 209.014 5.31613 -1.48633 0
M  V30 2253 H 209.491 4.39153 -0.0642394 0
M  V30 2254 H 210.097 3.91291 -1.66648 0
M  V30 2255 N 208.412 0.89855 1.29475 0
M  V30 2256 C 209.342 0.39201 2.30186 0
M  V30 2257 C 210.323 -0.532359 1.61555 0
M  V30 2258 O 211.508 -0.443331 1.89072 0
M  V30 2259 C 208.638 -0.382353 3.45189 0
M  V30 2260 C 207.592 0.451483 4.25612 0
M  V30 2261 C 206.918 -0.450307 5.328 0
M  V30 2262 C 208.218 1.70079 4.93832 0
M  V30 2263 H 209.912 1.23362 2.72804 0
M  V30 2264 H 207.458 0.594638 1.31149 0
M  V30 2265 H 209.411 -0.747451 4.14718 0
M  V30 2266 H 208.135 -1.25774 3.01411 0
M  V30 2267 H 206.794 0.798897 3.57789 0
M  V30 2268 H 206.442 -1.32379 4.85268 0
M  V30 2269 H 206.142 0.103902 5.87508 0
M  V30 2270 H 207.666 -0.811623 6.05182 0
M  V30 2271 H 209.08 1.40549 5.55805 0
M  V30 2272 H 207.477 2.19623 5.58467 0
M  V30 2273 H 208.547 2.43744 4.19186 0
M  V30 2274 N 209.89 -1.43072 0.660911 0
M  V30 2275 C 211.115 -2.06584 0.183805 0
M  V30 2276 C 211.54 -1.49257 -1.14472 0
M  V30 2277 O 210.898 -0.605528 -1.70889 0
M  V30 2278 C 210.946 -3.60418 0.114434 0
M  V30 2279 O 210.05 -4.01981 -0.921137 0
M  V30 2280 H 209.391 -0.656669 0.0983994 0
M  V30 2281 H 211.921 -1.83447 0.906006 0
M  V30 2282 H 211.931 -4.07946 -0.0663394 0
M  V30 2283 H 210.606 -4.01519 1.08422 0
M  V30 2284 H 209.183 -3.66029 -0.71253 0
M  V30 2285 N 211.368 -0.403325 -1.52352 0
M  V30 2286 C 212.301 0.469463 -2.23319 0
M  V30 2287 C 213.279 1.05272 -1.23922 0
M  V30 2288 O 214.463 1.10169 -1.52954 0
M  V30 2289 C 211.59 1.6511 -2.9573 0
M  V30 2290 C 210.636 1.19178 -4.0951 0
M  V30 2291 S 211.469 0.161718 -5.35256 0
M  V30 2292 C 212.625 1.34882 -6.11194 0
M  V30 2293 H 212.858 -0.133134 -2.97002 0
M  V30 2294 H 210.391 -0.187588 -1.53256 0
M  V30 2295 H 212.349 2.3287 -3.38056 0
M  V30 2296 H 211.01 2.22503 -2.21701 0
M  V30 2297 H 210.203 2.07444 -4.59329 0
M  V30 2298 H 209.805 0.592911 -3.6927 0
M  V30 2299 H 212.097 2.27345 -6.38217 0
M  V30 2300 H 213.04 0.89128 -7.02468 0
M  V30 2301 H 213.448 1.57198 -5.42171 0
M  V30 2302 N 212.846 1.57033 -0.133567 0
M  V30 2303 C 213.809 2.14897 0.796995 0
M  V30 2304 C 214.809 1.0874 1.18458 0
M  V30 2305 O 215.999 1.34446 1.1077 0
M  V30 2306 C 213.131 2.70112 2.07973 0
M  V30 2307 H 214.324 2.98457 0.293873 0
M  V30 2308 H 211.877 1.55871 0.115787 0
M  V30 2309 H 212.612 1.9018 2.62682 0
M  V30 2310 H 212.397 3.47764 1.81115 0
M  V30 2311 H 213.887 3.14738 2.74462 0
M  V30 2312 N 214.325 -0.140222 1.56975 0
M  V30 2313 C 215.555 -0.865181 1.87612 0
M  V30 2314 C 215.963 -1.74942 0.72055 0
M  V30 2315 O 215.306 -1.80917 -0.318561 0
M  V30 2316 C 215.368 -1.76782 3.13031 0
M  V30 2317 C 215.032 -1.06005 4.44536 0
M  V30 2318 C 216.029 -0.410768 5.18275 0
M  V30 2319 C 213.714 -1.04754 4.91255 0
M  V30 2320 C 215.708 0.241572 6.36942 0
M  V30 2321 C 213.395 -0.391394 6.09845 0
M  V30 2322 C 214.393 0.252029 6.82535 0
M  V30 2323 O 214.081 0.897757 7.98871 0
M  V30 2324 H 213.813 -0.255188 0.625983 0
M  V30 2325 H 216.367 -0.135653 2.04952 0
M  V30 2326 H 214.597 -2.53846 2.91718 0
M  V30 2327 H 216.286 -2.36533 3.29859 0
M  V30 2328 H 217.052 -0.412195 4.83245 0
M  V30 2329 H 212.931 -1.53777 4.34596 0
M  V30 2330 H 216.475 0.744375 6.93617 0
M  V30 2331 H 212.372 -0.387656 6.44335 0
M  V30 2332 H 213.14 0.800102 8.1458 0
M  V30 2333 N 215.803 -1.52179 -0.40978 0
M  V30 2334 C 217.219 -1.40968 -0.74835 0
M  V30 2335 C 217.419 -0.513657 -1.94843 0
M  V30 2336 O 216.475 0.0208026 -2.52491 0
M  V30 2337 C 217.788 -2.83483 -1.0029 0
M  V30 2338 C 219.336 -2.92821 -1.10565 0
M  V30 2339 C 219.811 -4.36303 -1.39296 0
M  V30 2340 N 221.302 -4.39535 -1.46162 0
M  V30 2341 C 222.037 -5.47614 -1.70018 0
M  V30 2342 N 221.533 -6.65812 -1.91483 0
M  V30 2343 N 223.326 -5.35129 -1.72027 0
M  V30 2344 H 215.477 -2.0897 0.380186 0
M  V30 2345 H 217.74 -0.94185 0.107805 0
M  V30 2346 H 217.446 -3.51168 -0.193461 0
M  V30 2347 H 217.32 -3.24487 -1.92323 0
M  V30 2348 H 219.707 -2.25318 -1.90568 0
M  V30 2349 H 219.788 -2.55276 -0.16369 0
M  V30 2350 H 219.432 -5.04366 -0.598109 0
M  V30 2351 H 219.362 -4.71385 -2.34743 0
M  V30 2352 H 221.853 -3.54332 -1.31367 0
M  V30 2353 H 222.166 -7.43964 -2.09134 0
M  V30 2354 H 220.511 -6.68879 -1.88749 0
M  V30 2355 H 223.702 -4.41764 -1.54796 0
M  V30 2356 H 223.875 -6.19433 -1.9028 0
M  V30 2357 N 217.281 0.66697 -1.42791 0
M  V30 2358 C 218.211 1.79218 -1.49677 0
M  V30 2359 C 219.192 1.66405 -0.352623 0
M  V30 2360 O 220.377 1.85708 -0.567993 0
M  V30 2361 C 217.507 3.17565 -1.40605 0
M  V30 2362 C 216.461 3.45124 -2.53127 0
M  V30 2363 C 215.787 4.83127 -2.29112 0
M  V30 2364 C 217.087 3.41236 -3.95418 0
M  V30 2365 H 218.781 1.73713 -2.43853 0
M  V30 2366 H 216.327 0.83432 -1.17367 0
M  V30 2367 H 218.28 3.96022 -1.44029 0
M  V30 2368 H 217.004 3.23767 -0.429271 0
M  V30 2369 H 215.663 2.69031 -2.49034 0
M  V30 2370 H 215.311 4.85988 -1.29709 0
M  V30 2371 H 215.011 5.02528 -3.04531 0
M  V30 2372 H 216.535 5.63859 -2.34297 0
M  V30 2373 H 217.949 4.09651 -4.01073 0
M  V30 2374 H 216.346 3.72173 -4.70752 0
M  V30 2375 H 217.416 2.39665 -4.21532 0
M  V30 2376 N 218.759 1.29093 0.90403 0
M  V30 2377 C 219.689 1.16401 2.02418 0
M  V30 2378 C 220.67 0.0593085 1.69997 0
M  V30 2379 O 221.855 0.238021 1.92736 0
M  V30 2380 C 218.985 0.835233 3.37107 0
M  V30 2381 C 217.939 1.89578 3.83724 0
M  V30 2382 C 217.265 1.42041 5.15489 0
M  V30 2383 C 218.565 3.30394 4.04521 0
M  V30 2384 H 220.259 2.10109 2.13295 0
M  V30 2385 H 217.805 1.01157 1.02486 0
M  V30 2386 H 219.758 0.733169 4.14973 0
M  V30 2387 H 218.482 -0.137543 3.2631 0
M  V30 2388 H 217.141 1.98715 3.08071 0
M  V30 2389 H 216.789 0.436426 5.01103 0
M  V30 2390 H 216.489 2.12964 5.4765 0
M  V30 2391 H 218.013 1.33176 5.959 0
M  V30 2392 H 219.427 3.24123 4.72882 0
M  V30 2393 H 217.824 3.99237 4.48029 0
M  V30 2394 H 218.894 3.73692 3.09002 0
M  V30 2395 N 220.237 -1.11381 1.11499 0
M  V30 2396 C 221.184 -2.17439 0.773887 0
M  V30 2397 C 222.154 -1.64132 -0.254899 0
M  V30 2398 O 223.339 -1.90345 -0.13168 0
M  V30 2399 C 220.479 -3.44373 0.223917 0
M  V30 2400 C 219.592 -4.1168 1.30934 0
M  V30 2401 C 218.727 -5.263 0.71984 0
M  V30 2402 C 217.766 -5.85493 1.78507 0
M  V30 2403 N 216.903 -6.91507 1.21502 0
M  V30 2404 H 221.743 -2.45962 1.68246 0
M  V30 2405 H 219.28 -1.20744 0.840191 0
M  V30 2406 H 221.238 -4.17047 -0.112921 0
M  V30 2407 H 219.868 -3.16232 -0.647851 0
M  V30 2408 H 218.92 -3.37073 1.76312 0
M  V30 2409 H 220.232 -4.51729 2.11524 0
M  V30 2410 H 219.386 -6.05785 0.333094 0
M  V30 2411 H 218.125 -4.87559 -0.117377 0
M  V30 2412 H 217.13 -5.04686 2.18111 0
M  V30 2413 H 218.355 -6.26301 2.62533 0
M  V30 2414 H 216.301 -6.54783 0.399455 0
M  V30 2415 H 216.218 -7.30214 1.95763 0
M  V30 2416 H 217.486 -7.74795 0.855181 0
M  V30 2417 N 221.715 -0.905404 -1.28997 0
M  V30 2418 C 222.94 -0.549175 -1.99997 0
M  V30 2419 C 223.365 0.860276 -1.67275 0
M  V30 2420 O 222.723 1.57355 -0.900502 0
M  V30 2421 C 222.771 -0.755185 -3.52604 0
M  V30 2422 O 221.875 0.189692 -4.11964 0
M  V30 2423 H 221.216 -0.213899 -0.628604 0
M  V30 2424 H 223.746 -1.21856 -1.64354 0
M  V30 2425 H 223.756 -0.662045 -4.02593 0
M  V30 2426 H 222.431 -1.78271 -3.75755 0
M  V30 2427 H 221.008 0.0485257 -3.72868 0
M  V30 2428 N 223.193 1.4272 -0.668489 0
M  V30 2429 C 224.14 2.30796 0.0137489 0
M  V30 2430 C 225.11 1.4561 0.799177 0
M  V30 2431 O 226.295 1.74453 0.772702 0
M  V30 2432 C 223.435 3.31377 0.963507 0
M  V30 2433 C 222.548 4.31655 0.172569 0
M  V30 2434 C 221.683 5.19312 1.1175 0
M  V30 2435 C 220.722 6.11274 0.317886 0
M  V30 2436 N 219.859 6.91504 1.2152 0
M  V30 2437 H 224.699 2.88585 -0.743161 0
M  V30 2438 H 222.236 1.42154 -0.378226 0
M  V30 2439 H 224.194 3.88214 1.52792 0
M  V30 2440 H 222.824 2.75202 1.68712 0
M  V30 2441 H 221.876 3.76988 -0.508374 0
M  V30 2442 H 223.188 4.96779 -0.448527 0
M  V30 2443 H 222.342 5.80851 1.75206 0
M  V30 2444 H 221.081 4.5435 1.77249 0
M  V30 2445 H 220.086 5.48809 -0.329918 0
M  V30 2446 H 221.311 6.78283 -0.332917 0
M  V30 2447 H 219.257 6.29176 1.85671 0
M  V30 2448 H 219.174 7.53209 0.649036 0
M  V30 2449 H 220.442 7.57535 1.83742 0
M  V30 2450 N 224.671 0.411399 1.52136 0
M  V30 2451 C 225.601 -0.404015 2.29978 0
M  V30 2452 C 226.582 -1.04412 1.34284 0
M  V30 2453 O 227.767 -1.0527 1.63192 0
M  V30 2454 C 224.897 -1.5197 3.12286 0
M  V30 2455 C 223.851 -1.00448 4.16046 0
M  V30 2456 C 223.177 -2.21393 4.86712 0
M  V30 2457 C 224.477 -0.0569336 5.22269 0
M  V30 2458 H 226.171 0.245529 2.98392 0
M  V30 2459 H 223.717 0.119525 1.43503 0
M  V30 2460 H 225.67 -2.09715 3.6551 0
M  V30 2461 H 224.394 -2.19716 2.41646 0
M  V30 2462 H 223.053 -0.449421 3.63835 0
M  V30 2463 H 222.701 -2.87699 4.12599 0
M  V30 2464 H 222.401 -1.87571 5.56858 0
M  V30 2465 H 223.925 -2.7974 5.4275 0
M  V30 2466 H 225.339 -0.54325 5.7072 0
M  V30 2467 H 223.736 0.192594 5.99791 0
M  V30 2468 H 224.806 0.887663 4.76706 0
M  V30 2469 N 226.149 -1.5696 0.141893 0
M  V30 2470 C 227.379 -2.00031 -0.516828 0
M  V30 2471 C 227.787 -1.02091 -1.59293 0
M  V30 2472 O 227.13 -0.00909657 -1.83698 0
M  V30 2473 C 227.192 -3.39534 -1.1814 0
M  V30 2474 C 226.856 -4.56313 -0.250513 0
M  V30 2475 C 227.853 -5.17295 0.519839 0
M  V30 2476 C 225.538 -5.02061 -0.154907 0
M  V30 2477 C 227.532 -6.2243 1.3733 0
M  V30 2478 C 225.219 -6.07053 0.702161 0
M  V30 2479 C 226.217 -6.67106 1.46487 0
M  V30 2480 O 225.905 -7.70066 2.30767 0
M  V30 2481 H 225.637 -0.661451 -0.139493 0
M  V30 2482 H 228.191 -2.04086 0.231926 0
M  V30 2483 H 226.421 -3.32302 -1.97769 0
M  V30 2484 H 228.11 -3.66745 -1.73933 0
M  V30 2485 H 228.876 -4.82852 0.45598 0
M  V30 2486 H 224.755 -4.5505 -0.7383 0
M  V30 2487 H 228.299 -6.69233 1.96909 0
M  V30 2488 H 224.196 -6.40923 0.76733 0
M  V30 2489 H 224.964 -7.87264 2.23959 0
M  V30 2490 N 227.627 0.131896 -1.57047 0
M  V30 2491 C 228.557 1.16384 -2.02428 0
M  V30 2492 C 229.538 1.43936 -0.90644 0
M  V30 2493 O 230.723 1.54599 -1.17528 0
M  V30 2494 C 227.853 2.49328 -2.4177 0
M  V30 2495 C 226.807 2.36266 -3.56879 0
M  V30 2496 C 226.133 3.74057 -3.8208 0
M  V30 2497 C 227.433 1.834 -4.89042 0
M  V30 2498 H 229.127 0.786433 -2.88887 0
M  V30 2499 H 226.673 0.376855 -1.38981 0
M  V30 2500 H 228.626 3.21759 -2.7212 0
M  V30 2501 H 227.35 2.88934 -1.52266 0
M  V30 2502 H 226.009 1.66286 -3.26718 0
M  V30 2503 H 225.657 4.11125 -2.89803 0
M  V30 2504 H 225.357 3.66174 -4.59554 0
M  V30 2505 H 226.881 4.48012 -4.1487 0
M  V30 2506 H 228.295 2.45636 -5.18011 0
M  V30 2507 H 226.692 1.8637 -5.70426 0
M  V30 2508 H 227.762 0.790662 -4.7841 0
M  V30 2509 O 229.144 1.59117 0.276399 0
M  V30 2510 H 229.835 1.70359 0.921826 0
M  V30 END ATOM
M  V30 BEGIN BOND
M  V30 END BOND
M  V30 END CTAB
M  END
$$$$
