drugbank_target|P10696 Alkaline phosphatase, placental-like (DB00848; DB01143)
 OpenBabel12092119423D

  0  0  0     0  0            999 V3000
M  V30 BEGIN CTAB
M  V30 COUNTS 8017 8108 0 0 0
M  V30 BEGIN ATOM
M  V30 1 H -0.908 1.98254 -0.117106 0
M  V30 2 N 0 1.576 0 0
M  V30 3 C 0.933 2.03868 1.02534 0
M  V30 4 C 1.911 0.928543 1.3348 0
M  V30 5 O 3.095 1.19667 1.45644 0
M  V30 6 C 0.222 2.43627 2.35294 0
M  V30 7 C -0.732 3.65373 2.2001 0
M  V30 8 S 0.101 5.13292 1.52614 0
M  V30 9 C 1.257 5.56322 2.86805 0
M  V30 10 H 1.49 2.90518 0.631377 0
M  V30 11 H -0.977 1.52953 0.210867 0
M  V30 12 H 0.981 2.67203 3.11629 0
M  V30 13 H -0.358 1.57376 2.7183 0
M  V30 14 H -1.165 3.90944 3.18086 0
M  V30 15 H -1.563 3.418 1.51819 0
M  V30 16 H 0.729 5.58782 3.83104 0
M  V30 17 H 1.672 6.56266 2.65933 0
M  V30 18 H 2.08 4.83886 2.90714 0
M  V30 19 N 1.4781 -0.272755 1.55222 0
M  V30 20 C 2.4101 -1.35946 1.8453 0
M  V30 21 C 3.4231 -1.45525 0.729818 0
M  V30 22 O 4.6121 -1.47337 1.00767 0
M  V30 23 C 1.7121 -2.74069 1.99347 0
M  V30 24 C 0.8851 -2.87079 3.30007 0
M  V30 25 C -0.0559 -4.05879 3.34886 0
M  V30 26 O -1.0299 -3.96626 4.08261 0
M  V30 27 N 0.1721 -5.17857 2.62307 0
M  V30 28 H 2.9371 -1.11149 2.78327 0
M  V30 29 H 0.4981 -0.462869 1.55142 0
M  V30 30 H 2.4901 -3.51838 1.99981 0
M  V30 31 H 1.0601 -2.91688 1.12415 0
M  V30 32 H 0.2801 -1.96193 3.41909 0
M  V30 33 H 1.5681 -2.92701 4.16177 0
M  V30 34 H 0.9661 -5.28261 2.02377 0
M  V30 35 H -0.4769 -5.93855 2.68663 0
M  V30 36 N 2.9562 -1.48159 -0.537278 0
M  V30 37 C 4.2042 -1.55497 -1.29094 0
M  V30 38 C 4.5252 -0.227454 -1.93669 0
M  V30 39 O 3.7952 0.750386 -1.80959 0
M  V30 40 H 2.3752 -0.572832 -0.47945 0
M  V30 41 H 5.0372 -1.84579 -0.625818 0
M  V30 42 H 4.1332 -2.33216 -2.07405 0
M  V30 43 N 4.4343 0.785586 -1.36625 0
M  V30 44 C 5.8453 1.36101 -1.27803 0
M  V30 45 C 6.1963 1.96035 0.0804875 0
M  V30 46 O 5.3213 1.92834 0.982042 0
M  V30 47 C 5.9163 2.47442 -2.31426 0
M  V30 48 C 4.4753 3.00789 -2.26281 0
M  V30 49 C 3.6223 1.73896 -2.15999 0
M  V30 50 H 6.5733 0.586928 -1.47448 0
M  V30 51 H 6.5943 3.2656 -1.95291 0
M  V30 52 H 6.1063 2.03791 -3.30289 0
M  V30 53 H 4.2073 3.48851 -1.30896 0
M  V30 54 H 4.3203 3.57343 -3.19128 0
M  V30 55 H 2.6843 1.9628 -1.62316 0
M  V30 56 H 3.4673 1.32368 -3.16755 0
M  V30 57 N 5.9124 1.20967 1.01018 0
M  V30 58 C 7.1584 1.0353 1.7508 0
M  V30 59 C 7.5134 -0.42734 1.87594 0
M  V30 60 O 6.8064 -1.31298 1.3954 0
M  V30 61 C 7.0004 1.65997 3.16512 0
M  V30 62 C 6.8294 3.18184 3.17788 0
M  V30 63 C 5.5994 3.87198 3.24662 0
M  V30 64 C 7.7974 4.15334 3.03319 0
M  V30 65 N 5.7794 5.26618 3.15509 0
M  V30 66 C 7.1504 5.41472 3.02007 0
M  V30 67 C 9.2054 4.06449 2.87583 0
M  V30 68 C 7.9084 6.5975 2.86571 0
M  V30 69 C 9.9344 5.24357 2.73503 0
M  V30 70 C 9.2964 6.49404 2.72862 0
M  V30 71 H 5.3954 0.433137 0.651089 0
M  V30 72 H 7.9794 1.5324 1.20107 0
M  V30 73 H 6.1504 1.18863 3.69765 0
M  V30 74 H 7.8824 1.41816 3.79039 0
M  V30 75 H 4.6374 3.38093 3.31648 0
M  V30 76 H 5.0614 5.99626 3.14289 0
M  V30 77 H 9.7034 3.10573 2.86887 0
M  V30 78 H 7.4214 7.55792 2.86015 0
M  V30 79 H 11.0074 5.19299 2.62334 0
M  V30 80 H 9.8874 7.39105 2.62093 0
M  V30 81 N 7.3905 -1.2043 1.01659 0
M  V30 82 C 8.6365 -1.90079 0.706963 0
M  V30 83 C 8.9695 -1.78648 -0.761474 0
M  V30 84 O 8.2445 -1.17069 -1.55323 0
M  V30 85 C 8.5275 -3.41469 1.14327 0
M  V30 86 C 8.3805 -3.61833 2.67201 0
M  V30 87 C 9.6995 -4.34261 0.714529 0
M  V30 88 H 6.8185 -0.690254 0.2583 0
M  V30 89 H 9.4605 -1.41826 1.26433 0
M  V30 90 H 7.6105 -3.82696 0.669056 0
M  V30 91 H 9.2825 -3.2986 3.22475 0
M  V30 92 H 7.5255 -3.05304 3.08175 0
M  V30 93 H 8.1965 -4.67955 2.92783 0
M  V30 94 H 10.6725 -4.00682 1.12221 0
M  V30 95 H 9.5485 -5.38806 1.04784 0
M  V30 96 H 9.8095 -4.40431 -0.383799 0
M  V30 97 N 8.8686 -0.792821 -1.36206 0
M  V30 98 C 9.7986 -0.207853 -2.32573 0
M  V30 99 C 10.7796 0.659055 -1.56813 0
M  V30 100 O 11.9646 0.592176 -1.84951 0
M  V30 101 C 9.0946 0.655449 -3.41059 0
M  V30 102 C 8.0486 -0.111842 -4.27854 0
M  V30 103 C 7.3746 0.872274 -5.27537 0
M  V30 104 C 8.6746 -1.30299 -5.05786 0
M  V30 105 H 10.3686 -1.01294 -2.81744 0
M  V30 106 H 7.9146 -0.48854 -1.3546 0
M  V30 107 H 9.8676 1.07464 -4.07467 0
M  V30 108 H 8.5916 1.49328 -2.90463 0
M  V30 109 H 7.2506 -0.512053 -3.63006 0
M  V30 110 H 6.8986 1.70523 -4.73214 0
M  V30 111 H 6.5986 0.363291 -5.86476 0
M  V30 112 H 8.1226 1.28996 -5.96818 0
M  V30 113 H 9.5366 -0.959379 -5.65216 0
M  V30 114 H 7.9336 -1.7455 -5.74154 0
M  V30 115 H 9.0036 -2.09663 -4.37229 0
M  V30 116 N 10.3467 1.47872 -0.545128 0
M  V30 117 C 11.2767 2.32661 0.197793 0
M  V30 118 C 12.2577 1.43041 0.920504 0
M  V30 119 O 13.4427 1.71912 0.90333 0
M  V30 120 C 10.5727 3.24569 1.23582 0
M  V30 121 C 9.5267 4.23333 0.630323 0
M  V30 122 C 8.8527 5.0448 1.77211 0
M  V30 123 C 10.1527 5.20704 -0.407974 0
M  V30 124 H 11.8467 2.95024 -0.510045 0
M  V30 125 H 9.3927 1.4187 -0.246731 0
M  V30 126 H 11.3457 3.8272 1.76362 0
M  V30 127 H 10.0697 2.60236 1.97344 0
M  V30 128 H 8.7287 3.6639 0.123922 0
M  V30 129 H 8.3767 4.36561 2.49847 0
M  V30 130 H 8.0767 5.71339 1.37281 0
M  V30 131 H 9.6007 5.65487 2.3034 0
M  V30 132 H 11.0147 5.7329 0.033305 0
M  V30 133 H 9.4117 5.95699 -0.725486 0
M  V30 134 H 10.4817 4.66917 -1.30828 0
M  V30 135 N 11.8248 0.280983 1.55075 0
M  V30 136 C 12.7548 -0.597469 2.25727 0
M  V30 137 C 13.7358 -1.15417 1.24952 0
M  V30 138 O 14.9208 -1.18722 1.53684 0
M  V30 139 C 12.0508 -1.7789 2.98283 0
M  V30 140 C 11.0048 -1.35347 4.06036 0
M  V30 141 C 10.3308 -2.61846 4.66198 0
M  V30 142 C 11.6308 -0.499354 5.19907 0
M  V30 143 H 13.3248 -0.00824265 2.99399 0
M  V30 144 H 10.8708 -0.0025244 1.44 0
M  V30 145 H 12.8238 -2.39937 3.46422 0
M  V30 146 H 11.5478 -2.39405 2.22155 0
M  V30 147 H 10.2068 -0.756156 3.58717 0
M  V30 148 H 9.8548 -3.21632 3.86732 0
M  V30 149 H 9.5548 -2.3409 5.38958 0
M  V30 150 H 11.0788 -3.24732 5.1709 0
M  V30 151 H 12.4928 -1.02498 5.64063 0
M  V30 152 H 10.8898 -0.316424 5.99265 0
M  V30 153 H 11.9598 0.480459 4.82514 0
M  V30 154 N 13.3029 -1.57598 0.00835791 0
M  V30 155 C 14.2329 -2.1198 -0.979113 0
M  V30 156 C 15.2139 -1.03091 -1.35301 0
M  V30 157 O 16.3989 -1.30818 -1.43528 0
M  V30 158 C 13.5289 -2.62995 -2.26828 0
M  V30 159 C 12.4829 -3.76485 -2.03576 0
M  V30 160 C 11.8089 -4.13846 -3.38579 0
M  V30 161 C 13.1089 -5.0342 -1.39161 0
M  V30 162 H 14.8029 -2.94738 -0.526281 0
M  V30 163 H 12.3489 -1.41783 -0.251704 0
M  V30 164 H 14.3019 -2.99669 -2.96271 0
M  V30 165 H 13.0259 -1.7737 -2.7424 0
M  V30 166 H 11.6849 -3.40217 -1.36557 0
M  V30 167 H 11.3329 -3.25232 -3.83709 0
M  V30 168 H 11.0329 -4.90312 -3.23834 0
M  V30 169 H 12.5569 -4.53086 -4.09323 0
M  V30 170 H 13.9709 -5.37812 -1.98573 0
M  V30 171 H 12.3679 -5.84746 -1.34878 0
M  V30 172 H 13.4379 -4.83548 -0.361868 0
M  V30 173 N 14.781 0.264519 -1.55364 0
M  V30 174 C 16.029 0.993021 -1.76021 0
M  V30 175 C 16.35 1.86511 -0.569099 0
M  V30 176 O 15.62 1.91438 0.415735 0
M  V30 177 H 14.2 0.369639 -0.649135 0
M  V30 178 H 16.862 0.286707 -1.9278 0
M  V30 179 H 15.958 1.62502 -2.66457 0
M  V30 180 N 16.2591 1.48442 0.529413 0
M  V30 181 C 17.1891 1.65902 1.64313 0
M  V30 182 C 18.1701 0.507897 1.6234 0
M  V30 183 O 19.3551 0.740503 1.79528 0
M  V30 184 C 16.4851 1.69911 3.02898 0
M  V30 185 C 15.4391 2.8453 3.19729 0
M  V30 186 C 14.7651 2.73629 4.59381 0
M  V30 187 C 16.0651 4.25821 3.02447 0
M  V30 188 H 17.7591 2.5914 1.49955 0
M  V30 189 H 15.3051 1.24709 0.719982 0
M  V30 190 H 17.2581 1.80715 3.80684 0
M  V30 191 H 15.9821 0.732524 3.18279 0
M  V30 192 H 14.6411 2.73283 2.44361 0
M  V30 193 H 14.2891 1.74938 4.71599 0
M  V30 194 H 13.9891 3.50541 4.71588 0
M  V30 195 H 15.5131 2.86401 5.39265 0
M  V30 196 H 16.9271 4.37898 3.70024 0
M  V30 197 H 15.3241 5.03735 3.26146 0
M  V30 198 H 16.3941 4.42244 1.98867 0
M  V30 199 N 17.7372 -0.778329 1.37039 0
M  V30 200 C 19.1532 -1.07796 1.17695 0
M  V30 201 C 19.3532 -2.01498 0.00860115 0
M  V30 202 O 18.4092 -2.43901 -0.653352 0
M  V30 203 C 19.7222 -1.68178 2.49272 0
M  V30 204 C 21.2702 -1.80467 2.55735 0
M  V30 205 C 21.7452 -2.44263 3.87427 0
M  V30 206 N 23.2362 -2.51721 3.88833 0
M  V30 207 C 23.9712 -3.01919 4.87476 0
M  V30 208 N 23.4672 -3.5234 5.96513 0
M  V30 209 N 25.2602 -3.00733 4.74885 0
M  V30 210 H 17.4112 -0.156032 2.11826 0
M  V30 211 H 19.6742 -0.131844 0.938787 0
M  V30 212 H 19.3802 -1.06796 3.35093 0
M  V30 213 H 19.2542 -2.67554 2.65885 0
M  V30 214 H 21.6412 -2.40984 1.70325 0
M  V30 215 H 21.7222 -0.798656 2.43013 0
M  V30 216 H 21.3662 -1.84388 4.73248 0
M  V30 217 H 21.2962 -3.45458 3.9745 0
M  V30 218 H 23.7872 -2.1603 3.10063 0
M  V30 219 H 24.1002 -3.89027 6.67741 0
M  V30 220 H 22.4452 -3.50462 6.00168 0
M  V30 221 H 25.6362 -2.60638 3.88826 0
M  V30 222 H 25.8092 -3.39545 5.51918 0
M  V30 223 N 19.2153 -1.21501 -1.00376 0
M  V30 224 C 20.1453 -0.999478 -2.11028 0
M  V30 225 C 21.1263 0.0759671 -1.6993 0
M  V30 226 O 22.3113 -0.0841106 -1.94018 0
M  V30 227 C 19.4413 -0.564709 -3.42678 0
M  V30 228 C 18.3953 -1.58486 -3.97576 0
M  V30 229 C 17.7213 -1.00628 -5.25146 0
M  V30 230 C 19.0213 -2.97204 -4.29496 0
M  V30 231 H 20.7153 -1.92495 -2.29317 0
M  V30 232 H 18.2613 -0.92693 -1.102 0
M  V30 233 H 20.2143 -0.401091 -4.19487 0
M  V30 234 H 18.9383 0.396411 -3.24185 0
M  V30 235 H 17.5973 -1.73606 -3.22888 0
M  V30 236 H 17.2453 -0.0368439 -5.02987 0
M  V30 237 H 16.9453 -1.68771 -5.62841 0
M  V30 238 H 18.4693 -0.854015 -6.04598 0
M  V30 239 H 19.8833 -2.8552 -4.97143 0
M  V30 240 H 18.2803 -3.62372 -4.78338 0
M  V30 241 H 19.3503 -3.47956 -3.3772 0
M  V30 242 N 20.6934 1.19889 -1.02296 0
M  V30 243 C 21.6254 2.22334 -0.556787 0
M  V30 244 C 22.6384 1.58674 0.364199 0
M  V30 245 O 23.8274 1.77768 0.161533 0
M  V30 246 C 20.9274 3.38257 0.208694 0
M  V30 247 C 20.1004 4.31504 -0.71577 0
M  V30 248 C 19.1594 5.262 0.00325597 0
M  V30 249 O 18.1854 5.65798 -0.621357 0
M  V30 250 N 19.3874 5.66303 1.27599 0
M  V30 251 H 22.1524 2.62957 -1.43784 0
M  V30 252 H 19.7134 1.34495 -0.901261 0
M  V30 253 H 21.7054 3.98616 0.699111 0
M  V30 254 H 20.2754 2.96472 0.991102 0
M  V30 255 H 19.4954 3.69016 -1.38638 0
M  V30 256 H 20.7834 4.9072 -1.34428 0
M  V30 257 H 20.1814 5.36155 1.80429 0
M  V30 258 H 18.7384 6.28942 1.71102 0
M  V30 259 N 22.1715 0.800033 1.35784 0
M  V30 260 C 23.1015 0.220184 2.3246 0
M  V30 261 C 24.0825 -0.65073 1.57161 0
M  V30 262 O 25.2675 -0.582359 1.85263 0
M  V30 263 C 22.3975 -0.637353 3.41402 0
M  V30 264 C 21.3515 0.134531 4.27789 0
M  V30 265 C 20.6775 -0.844285 5.27992 0
M  V30 266 C 21.9775 1.32979 5.05088 0
M  V30 267 H 23.6715 1.02787 2.81203 0
M  V30 268 H 21.2175 0.495717 1.35199 0
M  V30 269 H 23.1705 -1.05302 4.08031 0
M  V30 270 H 21.8945 -1.47785 2.91251 0
M  V30 271 H 20.5535 0.531296 3.6273 0
M  V30 272 H 20.2015 -1.68011 4.74111 0
M  V30 273 H 19.9015 -0.332184 5.8666 0
M  V30 274 H 21.4255 -1.2583 5.97494 0
M  V30 275 H 22.8395 0.98934 5.64699 0
M  V30 276 H 21.2365 1.77593 5.7322 0
M  V30 277 H 22.3065 2.11978 4.36111 0
M  V30 278 N 23.6496 -1.47581 0.552962 0
M  V30 279 C 24.8746 -2.07378 0.0300593 0
M  V30 280 C 25.2996 -1.40355 -1.25229 0
M  V30 281 O 24.6576 -0.477099 -1.7491 0
M  V30 282 C 24.7056 -3.60274 -0.153231 0
M  V30 283 O 23.8096 -3.94041 -1.21678 0
M  V30 284 H 23.1506 -0.662158 0.0494182 0
M  V30 285 H 25.6806 -1.89662 0.767434 0
M  V30 286 H 25.6906 -4.0633 -0.368761 0
M  V30 287 H 24.3656 -4.08455 0.783397 0
M  V30 288 H 22.9426 -3.59735 -0.982079 0
M  V30 289 N 25.1277 -0.289203 -1.54924 0
M  V30 290 C 26.0577 0.58549 -2.2604 0
M  V30 291 C 27.0387 1.14753 -1.25562 0
M  V30 292 O 28.2237 1.17906 -1.54311 0
M  V30 293 C 25.3537 1.76305 -2.99222 0
M  V30 294 C 24.3077 1.33191 -4.06748 0
M  V30 295 C 23.6337 2.5937 -4.6758 0
M  V30 296 C 24.9337 0.471775 -5.20165 0
M  V30 297 H 26.6277 -0.00763532 -2.99399 0
M  V30 298 H 24.1737 -0.00511229 -1.43999 0
M  V30 299 H 26.1267 2.38097 -3.47689 0
M  V30 300 H 24.8507 2.38223 -2.23422 0
M  V30 301 H 23.5097 0.737121 -3.59113 0
M  V30 302 H 23.1577 3.19576 -3.88433 0
M  V30 303 H 22.8577 2.31228 -5.40192 0
M  V30 304 H 24.3817 3.21985 -5.18804 0
M  V30 305 H 25.7957 0.995056 -5.64599 0
M  V30 306 H 24.1927 0.284639 -5.99425 0
M  V30 307 H 25.2627 -0.506041 -4.82252 0
M  V30 308 N 26.6058 1.57591 -0.0167156 0
M  V30 309 C 27.8538 1.90906 0.663285 0
M  V30 310 C 28.1748 0.892509 1.73376 0
M  V30 311 O 27.4448 -0.0677623 1.95783 0
M  V30 312 H 26.0248 0.704637 0.247983 0
M  V30 313 H 28.6868 1.94803 -0.0615909 0
M  V30 314 H 27.7828 2.9116 1.12393 0
M  V30 315 N 28.0839 -0.256276 1.55502 0
M  V30 316 C 29.3329 -0.983486 1.76098 0
M  V30 317 C 29.6459 -1.86837 0.578896 0
M  V30 318 O 30.8519 -2.63163 0.667648 0
M  V30 319 C 29.3079 -1.79868 3.1173 0
M  V30 320 C 28.9159 -0.961648 4.37557 0
M  V30 321 C 30.6599 -2.51919 3.41668 0
M  V30 322 C 28.5669 -1.77219 5.64223 0
M  V30 323 H 27.4969 -0.370936 0.656447 0
M  V30 324 H 30.1479 -0.238492 1.81944 0
M  V30 325 H 28.5299 -2.58527 2.99966 0
M  V30 326 H 29.7039 -0.218048 4.60284 0
M  V30 327 H 28.0189 -0.354913 4.14885 0
M  V30 328 H 30.6159 -3.12998 4.33516 0
M  V30 329 H 30.9589 -3.23059 2.62562 0
M  V30 330 H 31.4919 -1.80278 3.54605 0
M  V30 331 H 28.2309 -1.10471 6.46124 0
M  V30 332 H 27.7509 -2.49132 5.45613 0
M  V30 333 H 29.4299 -2.34169 6.03137 0
M  V30 334 N 29.562 -1.4872 -0.521534 0
M  V30 335 C 30.811 -1.56419 -1.27341 0
M  V30 336 C 31.124 -0.246805 -1.94037 0
M  V30 337 O 32.33 -0.202122 -2.70747 0
M  V30 338 C 30.786 -2.75896 -2.31105 0
M  V30 339 C 30.394 -4.14311 -1.70441 0
M  V30 340 C 32.138 -2.92913 -3.07249 0
M  V30 341 C 30.045 -5.25038 -2.72194 0
M  V30 342 H 28.975 -0.582344 -0.478949 0
M  V30 343 H 31.626 -1.75071 -0.549779 0
M  V30 344 H 30.008 -2.50697 -3.06541 0
M  V30 345 H 31.182 -4.49564 -1.01136 0
M  V30 346 H 29.497 -4.02482 -1.06759 0
M  V30 347 H 32.094 -3.72805 -3.83302 0
M  V30 348 H 32.437 -2.02689 -3.63625 0
M  V30 349 H 32.97 -3.18054 -2.38928 0
M  V30 350 H 29.709 -6.17255 -2.20627 0
M  V30 351 H 29.229 -4.94263 -3.39801 0
M  V30 352 H 30.908 -5.53508 -3.35019 0
M  V30 353 N 31.0401 0.771051 -1.3745 0
M  V30 354 C 32.4511 1.34737 -1.29239 0
M  V30 355 C 32.8021 1.96109 0.0596908 0
M  V30 356 O 31.9271 1.93865 0.961534 0
M  V30 357 C 32.5221 2.44973 -2.34037 0
M  V30 358 C 31.0811 2.98372 -2.29458 0
M  V30 359 C 30.2281 1.71595 -2.17831 0
M  V30 360 H 33.1791 0.571256 -1.48062 0
M  V30 361 H 33.2001 3.24471 -1.98744 0
M  V30 362 H 32.7121 2.00276 -3.32432 0
M  V30 363 H 30.8131 3.47443 -1.34589 0
M  V30 364 H 30.9261 3.53939 -3.229 0
M  V30 365 H 29.2901 1.94547 -1.64388 0
M  V30 366 H 30.0731 1.29001 -3.18141 0
M  V30 367 N 32.5182 1.22032 0.997298 0
M  V30 368 C 33.7642 1.04376 1.73878 0
M  V30 369 C 34.0972 -0.420716 1.89588 0
M  V30 370 O 33.3722 -1.31202 1.43583 0
M  V30 371 C 33.6552 1.75047 3.14691 0
M  V30 372 C 33.5082 3.29062 3.06656 0
M  V30 373 C 34.8272 1.49928 4.13775 0
M  V30 374 H 31.9462 0.380578 0.631133 0
M  V30 375 H 34.5882 1.50312 1.16217 0
M  V30 376 H 32.7382 1.35996 3.63919 0
M  V30 377 H 34.4102 3.7753 2.65083 0
M  V30 378 H 32.6532 3.58967 2.43568 0
M  V30 379 H 33.3242 3.73683 4.06282 0
M  V30 380 H 35.8002 1.83842 3.73285 0
M  V30 381 H 34.6762 2.01878 5.10428 0
M  V30 382 H 34.9372 0.430929 4.39995 0
M  V30 383 N 33.9963 -1.19345 1.0293 0
M  V30 384 C 34.9063 -2.26245 0.620515 0
M  V30 385 C 35.9223 -1.70486 -0.347928 0
M  V30 386 O 37.0983 -2.00347 -0.205704 0
M  V30 387 C 34.1633 -3.46693 -0.0218957 0
M  V30 388 C 33.2243 -4.17632 0.994102 0
M  V30 389 C 32.4573 -5.32329 0.382253 0
M  V30 390 O 32.6803 -5.64552 -0.814676 0
M  V30 391 O 31.6143 -5.91664 1.10531 0
M  V30 392 H 35.4403 -2.63453 1.51083 0
M  V30 393 H 33.0253 -1.26207 0.799513 0
M  V30 394 H 34.9073 -4.19683 -0.380072 0
M  V30 395 H 33.5823 -3.11333 -0.886209 0
M  V30 396 H 32.4893 -3.4676 1.40387 0
M  V30 397 H 33.8223 -4.56964 1.8288 0
M  V30 398 N 35.4744 -0.807222 -1.35358 0
M  V30 399 C 36.3844 -0.219594 -2.3357 0
M  V30 400 C 37.4004 0.637734 -1.61892 0
M  V30 401 O 38.5764 0.549336 -1.93763 0
M  V30 402 C 35.6414 0.62158 -3.41083 0
M  V30 403 C 34.7024 -0.256315 -4.28534 0
M  V30 404 C 33.9354 0.544807 -5.30912 0
M  V30 405 O 34.1584 1.77944 -5.41934 0
M  V30 406 O 33.0924 -0.0646478 -6.01865 0
M  V30 407 H 36.9184 -1.03208 -2.85625 0
M  V30 408 H 34.5034 -0.569025 -1.38139 0
M  V30 409 H 36.3854 1.10067 -4.06772 0
M  V30 410 H 35.0604 1.41165 -2.91297 0
M  V30 411 H 33.9674 -0.782559 -3.65823 0
M  V30 412 H 35.3004 -1.01034 -4.81719 0
M  V30 413 N 36.9525 1.47285 -0.560781 0
M  V30 414 C 37.8625 2.33846 0.187954 0
M  V30 415 C 38.8785 1.48412 0.908293 0
M  V30 416 O 40.0545 1.81332 0.876388 0
M  V30 417 C 37.1195 3.25178 1.2025 0
M  V30 418 C 36.1805 4.26504 0.489208 0
M  V30 419 C 35.4135 5.13472 1.45542 0
M  V30 420 O 35.6365 5.02959 2.6905 0
M  V30 421 O 34.5705 5.93902 0.977963 0
M  V30 422 H 38.3965 2.99177 -0.522177 0
M  V30 423 H 35.9815 1.45903 -0.321364 0
M  V30 424 H 37.8635 3.81584 1.78805 0
M  V30 425 H 36.5385 2.6247 1.89449 0
M  V30 426 H 35.4455 3.73847 -0.137627 0
M  V30 427 H 36.7785 4.91935 -0.161399 0
M  V30 428 N 38.4306 0.297415 1.54768 0
M  V30 429 C 39.3786 -0.596051 2.24833 0
M  V30 430 C 40.3726 -1.13992 1.25308 0
M  V30 431 O 41.5786 -1.09098 1.4317 0
M  V30 432 H 37.9536 -0.210814 0.721846 0
M  V30 433 H 39.9246 0.0174667 2.98395 0
M  V30 434 C 38.6736 -1.75818 2.99972 0
M  V30 435 H 37.9966 -1.3489 3.76357 0
M  V30 436 H 39.4366 -2.35949 3.52284 0
M  V30 437 C 37.8956 -2.66014 2.06732 0
M  V30 438 O 38.4256 -3.67009 1.63302 0
M  V30 439 N 36.6316 -2.33669 1.72763 0
M  V30 440 H 36.1786 -1.51586 2.08277 0
M  V30 441 H 36.1366 -2.94285 1.10652 0
M  V30 442 N 39.9087 -1.5758 0.0250728 0
M  V30 443 C 41.3197 -1.79476 -0.514323 0
M  V30 444 C 41.6707 -0.934956 -1.72491 0
M  V30 445 O 40.7957 -0.144245 -2.15919 0
M  V30 446 C 41.3907 -3.25503 -0.939842 0
M  V30 447 C 39.9497 -3.48408 -1.42438 0
M  V30 448 C 39.0967 -2.74583 -0.387201 0
M  V30 449 H 42.0477 -1.567 0.25113 0
M  V30 450 H 42.0687 -3.34992 -1.80445 0
M  V30 451 H 41.5807 -3.88056 -0.0585628 0
M  V30 452 H 39.6817 -2.91103 -2.32572 0
M  V30 453 H 39.7947 -4.57119 -1.43455 0
M  V30 454 H 38.1587 -2.39942 -0.854409 0
M  V30 455 H 38.9417 -3.39849 0.485543 0
M  V30 456 N 41.3868 0.248026 -1.55636 0
M  V30 457 C 42.6638 0.998988 -1.68165 0
M  V30 458 C 43.0438 2.03409 -0.564621 0
M  V30 459 O 42.3918 2.24378 0.432076 0
M  V30 460 C 42.6018 1.63334 -3.0842 0
M  V30 461 C 43.9498 2.13562 -3.66983 0
M  V30 462 O 44.9738 1.73277 -3.11213 0
M  V30 463 O 43.8328 2.87526 -4.64749 0
M  V30 464 H 40.9268 0.464933 -0.683935 0
M  V30 465 H 43.4728 0.241902 -1.67967 0
M  V30 466 H 42.2448 0.884583 -3.8117 0
M  V30 467 H 41.8678 2.45666 -3.12624 0
M  V30 468 N 42.8649 1.48995 0.513639 0
M  V30 469 C 44.1119 1.57843 1.26854 0
M  V30 470 C 44.4399 0.259501 1.92761 0
M  V30 471 O 43.6949 -0.75159 1.80692 0
M  V30 472 C 43.9939 2.67756 2.36731 0
M  V30 473 C 43.6599 4.09669 1.88368 0
M  V30 474 C 42.3219 4.48291 1.74896 0
M  V30 475 C 44.6739 4.98537 1.52021 0
M  V30 476 C 42.0019 5.73568 1.23438 0
M  V30 477 C 44.3539 6.24319 1.0202 0
M  V30 478 C 43.0179 6.61783 0.871778 0
M  V30 479 H 42.2879 0.577587 0.464192 0
M  V30 480 H 44.9349 1.82778 0.571366 0
M  V30 481 H 43.2399 2.36743 3.12185 0
M  V30 482 H 44.9369 2.71813 2.9482 0
M  V30 483 H 41.5269 3.79176 1.99808 0
M  V30 484 H 45.7109 4.69363 1.61281 0
M  V30 485 H 40.9669 6.01304 1.10648 0
M  V30 486 H 45.1409 6.92566 0.729722 0
M  V30 487 H 42.7679 7.5874 0.470852 0
M  V30 488 N 44.343 -0.763751 1.37857 0
M  V30 489 C 45.589 -1.52396 1.3471 0
M  V30 490 C 45.944 -1.92288 -0.0656435 0
M  V30 491 O 45.237 -1.6181 -1.02606 0
M  V30 492 C 45.431 -2.79499 2.22745 0
M  V30 493 C 45.26 -2.52031 3.72438 0
M  V30 494 C 44.03 -2.45759 4.4151 0
M  V30 495 C 46.228 -2.19489 4.65112 0
M  V30 496 N 44.21 -2.1046 5.76697 0
M  V30 497 C 45.581 -1.94396 5.88736 0
M  V30 498 C 47.636 -2.05712 4.53417 0
M  V30 499 C 46.339 -1.56917 7.01975 0
M  V30 500 C 48.365 -1.69634 5.66549 0
M  V30 501 C 47.727 -1.45407 6.89229 0
M  V30 502 H 43.826 -0.55765 0.548225 0
M  V30 503 H 46.41 -0.890302 1.73152 0
M  V30 504 H 44.581 -3.4069 1.86507 0
M  V30 505 H 46.313 -3.45465 2.10798 0
M  V30 506 H 43.068 -2.61885 3.94605 0
M  V30 507 H 43.492 -1.95484 6.48163 0
M  V30 508 H 48.134 -2.23123 3.59133 0
M  V30 509 H 45.852 -1.38246 7.96187 0
M  V30 510 H 49.438 -1.59621 5.59475 0
M  V30 511 H 48.318 -1.17904 7.75286 0
M  V30 512 N 45.8211 -1.22559 -0.990812 0
M  V30 513 C 46.7691 -0.994798 -2.10253 0
M  V30 514 C 47.7631 0.0627798 -1.69284 0
M  V30 515 O 48.9691 -0.0898392 -1.79776 0
M  V30 516 H 45.3441 -0.304527 -0.687581 0
M  V30 517 H 47.3151 -1.93812 -2.26891 0
M  V30 518 C 46.0641 -0.591439 -3.42633 0
M  V30 519 H 45.3871 -1.3969 -3.74602 0
M  V30 520 H 46.8271 -0.469385 -4.21394 0
M  V30 521 C 45.2861 0.699232 -3.29564 0
M  V30 522 O 45.8161 1.75112 -3.61523 0
M  V30 523 N 44.0221 0.671182 -2.82743 0
M  V30 524 H 43.5691 -0.185136 -2.56934 0
M  V30 525 H 43.5271 1.53502 -2.7438 0
M  V30 526 N 47.2992 1.18797 -1.03562 0
M  V30 527 C 48.7152 1.40671 -0.753917 0
M  V30 528 C 48.9152 1.9043 0.658686 0
M  V30 529 O 47.9712 2.08538 1.42366 0
M  V30 530 C 49.2842 2.41192 -1.79574 0
M  V30 531 C 50.8322 2.54928 -1.81606 0
M  V30 532 C 51.3072 3.58709 -2.84766 0
M  V30 533 N 52.7982 3.66212 -2.83625 0
M  V30 534 C 53.5332 4.46225 -3.60098 0
M  V30 535 N 53.0292 5.29888 -4.46308 0
M  V30 536 N 54.8222 4.40939 -3.4861 0
M  V30 537 H 46.9732 0.848221 -1.94728 0
M  V30 538 H 49.2362 0.435081 -0.842264 0
M  V30 539 H 48.9422 2.11669 -2.80872 0
M  V30 540 H 48.8162 3.40467 -1.62365 0
M  V30 541 H 51.2032 2.83771 -0.809817 0
M  V30 542 H 51.2842 1.55784 -2.02891 0
M  V30 543 H 50.9282 3.30607 -3.85566 0
M  V30 544 H 50.8582 4.57519 -2.60737 0
M  V30 545 H 53.3492 3.06466 -2.21105 0
M  V30 546 H 53.6622 5.88078 -5.01382 0
M  V30 547 H 52.0072 5.29326 -4.50377 0
M  V30 548 H 55.1982 3.74624 -2.80668 0
M  V30 549 H 55.3712 5.03056 -4.08459 0
M  V30 550 N 48.7773 0.814389 1.34928 0
M  V30 551 C 49.7093 0.187834 2.28429 0
M  V30 552 C 50.7223 -0.617374 1.5064 0
M  V30 553 O 51.9113 -0.448454 1.72775 0
M  V30 554 C 49.0113 -0.755962 3.30361 0
M  V30 555 C 48.1843 0.00456686 4.374 0
M  V30 556 C 47.2433 -0.858876 5.19143 0
M  V30 557 O 46.2693 -0.306968 5.68372 0
M  V30 558 N 47.4713 -2.17988 5.38016 0
M  V30 559 H 50.2363 0.991105 2.82838 0
M  V30 560 H 47.7973 0.670561 1.4736 0
M  V30 561 H 49.7893 -1.338 3.81942 0
M  V30 562 H 48.3593 -1.46001 2.7641 0
M  V30 563 H 47.5793 0.767865 3.86649 0
M  V30 564 H 48.8673 0.528422 5.06049 0
M  V30 565 H 48.2653 -2.65212 4.99679 0
M  V30 566 H 46.8223 -2.71098 5.92747 0
M  V30 567 N 50.2554 -1.46986 0.568584 0
M  V30 568 C 51.2184 -2.28624 -0.162366 0
M  V30 569 C 52.2184 -1.37596 -0.832103 0
M  V30 570 O 53.4084 -1.60115 -0.68622 0
M  V30 571 C 50.5404 -3.17596 -1.23878 0
M  V30 572 H 51.7334 -2.94722 0.554899 0
M  V30 573 H 49.2864 -1.52863 0.325976 0
M  V30 574 H 50.0214 -2.56214 -1.98808 0
M  V30 575 H 49.8064 -3.846 -0.763219 0
M  V30 576 H 51.2964 -3.79078 -1.75185 0
M  V30 577 N 51.7335 -0.305618 -1.54608 0
M  V30 578 C 52.6965 0.555591 -2.22364 0
M  V30 579 C 53.6965 1.05768 -1.21119 0
M  V30 580 O 54.8865 0.952972 -1.45822 0
M  V30 581 C 52.0185 1.76974 -2.91364 0
M  V30 582 H 53.2115 -0.0364572 -2.99878 0
M  V30 583 H 50.7645 -0.0565007 -1.56198 0
M  V30 584 H 51.4995 2.40151 -2.17941 0
M  V30 585 H 51.2845 1.41732 -3.65588 0
M  V30 586 H 52.7745 2.38148 -3.43038 0
M  V30 587 N 53.2116 1.57565 -0.0334293 0
M  V30 588 C 54.1216 2.13943 0.962572 0
M  V30 589 C 55.1376 1.09276 1.35406 0
M  V30 590 O 56.3136 1.41355 1.4346 0
M  V30 591 C 53.3786 2.65887 2.22497 0
M  V30 592 C 52.4396 3.85286 1.8935 0
M  V30 593 C 51.6726 4.34743 3.09571 0
M  V30 594 O 51.8956 3.83352 4.22371 0
M  V30 595 O 50.8296 5.26538 2.91618 0
M  V30 596 H 54.6556 2.99333 0.513169 0
M  V30 597 H 52.2406 1.4822 0.18743 0
M  V30 598 H 54.1226 2.99346 2.96598 0
M  V30 599 H 52.7976 1.83578 2.6661 0
M  V30 600 H 51.7046 3.56746 1.1262 0
M  V30 601 H 53.0376 4.68771 1.5005 0
M  V30 602 N 54.6897 -0.239769 1.55765 0
M  V30 603 C 55.6527 -1.28038 1.90103 0
M  V30 604 C 56.6527 -1.40723 0.778055 0
M  V30 605 O 57.8427 -1.39301 1.04599 0
M  V30 606 C 54.9747 -2.65702 2.13577 0
M  V30 607 H 56.1677 -0.988048 2.83157 0
M  V30 608 H 53.7207 -0.479382 1.48767 0
M  V30 609 H 54.4557 -3.00063 1.23015 0
M  V30 610 H 54.2407 -2.57875 2.95369 0
M  V30 611 H 55.7307 -3.40828 2.41301 0
M  V30 612 N 56.1678 -1.49265 -0.50573 0
M  V30 613 C 57.0978 -1.68495 -1.61653 0
M  V30 614 C 58.0788 -0.53366 -1.61512 0
M  V30 615 O 59.2638 -0.76897 -1.78327 0
M  V30 616 C 56.3938 -1.74709 -3.00157 0
M  V30 617 C 55.3478 -2.89581 -3.15162 0
M  V30 618 C 54.6738 -2.80903 -4.5497 0
M  V30 619 C 55.9738 -4.30578 -2.95634 0
M  V30 620 H 57.6678 -2.61493 -1.45814 0
M  V30 621 H 55.2138 -1.25838 -0.70005 0
M  V30 622 H 57.1668 -1.86748 -3.77761 0
M  V30 623 H 55.8908 -0.783067 -3.17074 0
M  V30 624 H 54.5498 -2.77136 -2.39982 0
M  V30 625 H 54.1978 -1.82419 -4.68756 0
M  V30 626 H 53.8978 -3.57999 -4.65951 0
M  V30 627 H 55.4218 -2.94944 -5.34641 0
M  V30 628 H 56.8358 -4.4373 -3.63011 0
M  V30 629 H 55.2328 -5.0886 -3.18091 0
M  V30 630 H 56.3028 -4.45352 -1.91806 0
M  V30 631 N 57.6459 0.756429 -1.3826 0
M  V30 632 C 58.8939 1.51248 -1.34047 0
M  V30 633 C 59.2149 1.94875 0.0698372 0
M  V30 634 O 58.4849 1.67436 1.01696 0
M  V30 635 H 57.0649 0.561018 -0.493222 0
M  V30 636 H 59.7269 0.899347 -1.7291 0
M  V30 637 H 58.8229 2.40472 -1.98947 0
M  V30 638 N 59.124 1.23083 0.984299 0
M  V30 639 C 60.087 1.00979 2.05757 0
M  V30 640 C 61.087 -0.0269573 1.60777 0
M  V30 641 O 62.277 0.212403 1.729 0
M  V30 642 C 59.409 0.527072 3.36801 0
M  V30 643 H 60.602 1.9622 2.26799 0
M  V30 644 H 58.155 1.05072 1.15714 0
M  V30 645 H 58.89 -0.429294 3.21446 0
M  V30 646 H 58.675 1.27515 3.70786 0
M  V30 647 H 60.165 0.392942 4.15747 0
M  V30 648 N 60.6021 -1.18246 1.0419 0
M  V30 649 C 61.5651 -2.20128 0.638452 0
M  V30 650 C 62.5651 -1.57885 -0.304805 0
M  V30 651 O 63.7551 -1.73967 -0.0900369 0
M  V30 652 C 60.8871 -3.4084 -0.0637751 0
M  V30 653 H 62.0801 -2.57336 1.54007 0
M  V30 654 H 59.6331 -1.32152 0.834598 0
M  V30 655 H 60.3681 -3.09166 -0.979136 0
M  V30 656 H 60.1531 -3.8726 0.614198 0
M  V30 657 H 61.6431 -4.16274 -0.332512 0
M  V30 658 N 62.0802 -0.821533 -1.34494 0
M  V30 659 C 63.0272 -0.240397 -2.29545 0
M  V30 660 C 63.9972 0.634031 -1.53523 0
M  V30 661 O 65.1822 0.575966 -1.81899 0
M  V30 662 C 62.3222 0.592869 -3.39969 0
M  V30 663 C 61.4352 -0.30365 -4.30932 0
M  V30 664 C 60.5702 0.539049 -5.28458 0
M  V30 665 C 59.6092 -0.356942 -6.11058 0
M  V30 666 N 58.7462 0.446603 -7.00678 0
M  V30 667 H 63.5862 -1.05632 -2.7865 0
M  V30 668 H 61.1232 -0.532413 -1.37127 0
M  V30 669 H 63.0812 1.09129 -4.02675 0
M  V30 670 H 61.7112 1.37392 -2.92102 0
M  V30 671 H 60.7632 -0.920276 -3.691 0
M  V30 672 H 62.0752 -0.992661 -4.88823 0
M  V30 673 H 61.2292 1.102 -5.96608 0
M  V30 674 H 59.9682 1.26157 -4.71101 0
M  V30 675 H 58.9732 -0.932047 -5.41842 0
M  V30 676 H 60.1982 -1.07755 -6.70497 0
M  V30 677 H 58.1442 1.15282 -6.45791 0
M  V30 678 H 58.0612 -0.184048 -7.55776 0
M  V30 679 H 59.3292 0.992352 -7.73158 0
M  V30 680 N 63.5583 1.46682 -0.576371 0
M  V30 681 C 64.5053 2.30241 0.160499 0
M  V30 682 C 65.4753 1.40233 0.890162 0
M  V30 683 O 66.6603 1.69186 0.882084 0
M  V30 684 C 63.8003 3.24578 1.1723 0
M  V30 685 C 62.9133 4.29684 0.446736 0
M  V30 686 C 62.0483 5.11154 1.44551 0
M  V30 687 C 61.0873 6.08015 0.70599 0
M  V30 688 N 60.2243 6.82376 1.65251 0
M  V30 689 H 65.0643 2.92727 -0.558127 0
M  V30 690 H 62.6013 1.44272 -0.287056 0
M  V30 691 H 64.5593 3.77711 1.77172 0
M  V30 692 H 63.1893 2.63916 1.85872 0
M  V30 693 H 62.2413 3.79458 -0.267594 0
M  V30 694 H 63.5533 4.98626 -0.131686 0
M  V30 695 H 62.7073 5.68533 2.11791 0
M  V30 696 H 61.4463 4.42158 2.05786 0
M  V30 697 H 60.4513 5.49796 0.0197725 0
M  V30 698 H 61.6763 6.79028 0.09912 0
M  V30 699 H 59.6223 6.16094 2.25308 0
M  V30 700 H 59.5393 7.47556 1.12673 0
M  V30 701 H 60.8073 7.44316 2.31546 0
M  V30 702 N 65.0364 0.313813 1.54444 0
M  V30 703 C 65.9664 -0.549454 2.26943 0
M  V30 704 C 66.9474 -1.12741 1.27372 0
M  V30 705 O 68.1324 -1.15436 1.56167 0
M  V30 706 C 65.2624 -1.71523 3.01989 0
M  V30 707 C 64.2164 -1.26703 4.08816 0
M  V30 708 C 63.5424 -2.51898 4.71647 0
M  V30 709 C 64.8424 -0.388962 5.2085 0
M  V30 710 H 66.5364 0.0552661 2.99349 0
M  V30 711 H 64.0824 0.0280207 1.43973 0
M  V30 712 H 66.0354 -2.32535 3.51433 0
M  V30 713 H 64.7594 -2.34639 2.27183 0
M  V30 714 H 63.4184 -0.679896 3.6024 0
M  V30 715 H 63.0664 -3.13356 3.93468 0
M  V30 716 H 62.7664 -2.22605 5.43802 0
M  V30 717 H 64.2904 -3.1369 5.23861 0
M  V30 718 H 65.7044 -0.905107 5.6611 0
M  V30 719 H 64.1014 -0.18924 5.99802 0
M  V30 720 H 65.1714 0.582699 4.81386 0
M  V30 721 N 66.5145 -1.57545 0.0417849 0
M  V30 722 C 67.4465 -2.07904 -0.964799 0
M  V30 723 C 68.4595 -1.00497 -1.28079 0
M  V30 724 O 69.6485 -1.28087 -1.24322 0
M  V30 725 C 66.7485 -2.49928 -2.28887 0
M  V30 726 C 65.9215 -3.80562 -2.15619 0
M  V30 727 C 64.9805 -4.08999 -3.31069 0
M  V30 728 O 64.0065 -4.79061 -3.0739 0
M  V30 729 N 65.2085 -3.6017 -4.55256 0
M  V30 730 H 67.9735 -2.94886 -0.535029 0
M  V30 731 H 65.5345 -1.61252 -0.144681 0
M  V30 732 H 67.5265 -2.66034 -3.04972 0
M  V30 733 H 66.0965 -1.68245 -2.63463 0
M  V30 734 H 65.3165 -3.74129 -1.24183 0
M  V30 735 H 66.6045 -4.66126 -2.03971 0
M  V30 736 H 66.0025 -3.03512 -4.77386 0
M  V30 737 H 64.5595 -3.81532 -5.28466 0
M  V30 738 N 67.9926 0.231505 -1.5589 0
M  V30 739 C 69.4036 0.799327 -1.68724 0
M  V30 740 C 69.7546 1.85398 -0.642022 0
M  V30 741 O 68.8796 2.1539 0.208784 0
M  V30 742 C 69.4746 1.45664 -3.05888 0
M  V30 743 C 68.0336 1.97197 -3.20609 0
M  V30 744 C 67.1806 0.828552 -2.64632 0
M  V30 745 H 70.1316 0.00702616 -1.58698 0
M  V30 746 H 70.1526 2.32517 -3.01191 0
M  V30 747 H 69.6646 0.688808 -3.81939 0
M  V30 748 H 67.7656 2.76813 -2.4941 0
M  V30 749 H 67.8786 2.15878 -4.27707 0
M  V30 750 H 66.2426 1.23321 -2.22854 0
M  V30 751 H 67.0256 0.0735544 -3.43221 0
M  V30 752 N 69.4707 1.49531 0.497807 0
M  V30 753 C 70.4337 1.65916 1.58128 0
M  V30 754 C 71.4337 0.530825 1.51786 0
M  V30 755 O 72.6237 0.797342 1.54881 0
M  V30 756 C 69.7557 1.65951 2.9778 0
M  V30 757 H 70.9487 2.62556 1.44929 0
M  V30 758 H 68.5017 1.38611 0.722275 0
M  V30 759 H 69.2367 0.709065 3.16453 0
M  V30 760 H 69.0217 2.47897 3.03792 0
M  V30 761 H 70.5117 1.80673 3.76493 0
M  V30 762 N 70.9488 -0.749086 1.3866 0
M  V30 763 C 71.8808 -1.87273 1.32142 0
M  V30 764 C 72.8938 -1.61127 0.232787 0
M  V30 765 O 74.0828 -1.71623 0.49069 0
M  V30 766 C 71.1828 -3.23005 1.02571 0
M  V30 767 C 70.3558 -3.7662 2.22433 0
M  V30 768 C 69.4148 -4.90879 1.89537 0
M  V30 769 O 68.4408 -5.05276 2.62078 0
M  V30 770 N 69.6428 -5.74198 0.853031 0
M  V30 771 H 72.4078 -1.93373 2.28969 0
M  V30 772 H 69.9688 -0.929216 1.32579 0
M  V30 773 H 71.9608 -3.96992 0.786085 0
M  V30 774 H 70.5308 -3.12262 0.145249 0
M  V30 775 H 69.7508 -2.94147 2.62434 0
M  V30 776 H 71.0388 -4.09173 3.02415 0
M  V30 777 H 70.4368 -5.6514 0.25155 0
M  V30 778 H 68.9938 -6.48313 0.67329 0
M  V30 779 N 72.4269 -1.23603 -0.977757 0
M  V30 780 C 73.6549 -1.09646 -1.75458 0
M  V30 781 C 74.0699 0.351859 -1.85492 0
M  V30 782 O 73.4269 1.24327 -1.336 0
M  V30 783 C 73.4779 -1.71895 -3.18016 0
M  V30 784 O 73.1989 -3.11063 -3.08498 0
M  V30 785 C 74.6999 -1.63415 -4.12081 0
M  V30 786 H 71.9199 -0.38359 -0.550545 0
M  V30 787 H 74.4639 -1.63507 -1.22824 0
M  V30 788 H 72.6189 -1.22061 -3.67668 0
M  V30 789 H 73.0329 -3.41305 -3.9826 0
M  V30 790 H 74.5069 -2.11669 -5.09804 0
M  V30 791 H 74.9839 -0.593462 -4.35172 0
M  V30 792 H 75.5899 -2.12628 -3.68334 0
M  V30 793 N 73.905 1.17692 -1.04816 0
M  V30 794 C 74.868 2.19787 -0.650117 0
M  V30 795 C 75.868 1.58044 0.296427 0
M  V30 796 O 77.058 1.74012 0.0808097 0
M  V30 797 C 74.19 3.40869 0.0456987 0
M  V30 798 H 75.383 2.56516 -1.5537 0
M  V30 799 H 72.936 1.31708 -0.841594 0
M  V30 800 H 73.671 3.09681 0.962726 0
M  V30 801 H 73.456 3.86928 -0.634727 0
M  V30 802 H 74.946 4.16445 0.310432 0
M  V30 803 N 75.3831 0.828654 1.34056 0
M  V30 804 C 76.3461 0.259927 2.27721 0
M  V30 805 C 77.3461 -0.565478 1.50529 0
M  V30 806 O 78.5361 -0.38075 1.69988 0
M  V30 807 C 75.6681 -0.634944 3.34935 0
M  V30 808 H 76.8611 1.0863 2.79534 0
M  V30 809 H 74.4141 0.600951 1.44285 0
M  V30 810 H 75.1491 -1.48416 2.88346 0
M  V30 811 H 74.9341 -0.0444999 3.92075 0
M  V30 812 H 76.4241 -1.02648 4.04788 0
M  V30 813 N 76.8612 -1.46375 0.584142 0
M  V30 814 C 77.8082 -2.30323 -0.148286 0
M  V30 815 C 78.7782 -1.40703 -0.882713 0
M  V30 816 O 79.9632 -1.69651 -0.873099 0
M  V30 817 C 77.1032 -3.25196 -1.15507 0
M  V30 818 C 76.2162 -4.29915 -0.423943 0
M  V30 819 C 75.3512 -5.11914 -1.41838 0
M  V30 820 C 74.3902 -6.08381 -0.673736 0
M  V30 821 N 73.5272 -6.83242 -1.6163 0
M  V30 822 H 78.3672 -2.92427 0.573644 0
M  V30 823 H 75.9042 -1.44118 0.294703 0
M  V30 824 H 77.8622 -3.78646 -1.75166 0
M  V30 825 H 76.4922 -2.64898 -1.8447 0
M  V30 826 H 75.5442 -3.7931 0.287714 0
M  V30 827 H 76.8562 -4.98549 0.158128 0
M  V30 828 H 76.0102 -5.69648 -2.08773 0
M  V30 829 H 74.7492 -4.43243 -2.03438 0
M  V30 830 H 73.7542 -5.49799 0.00938483 0
M  V30 831 H 74.9792 -6.79071 -0.0631082 0
M  V30 832 H 72.9252 -6.1728 -2.22038 0
M  V30 833 H 72.8422 -7.48144 -1.08707 0
M  V30 834 H 74.1102 -7.45534 -2.27596 0
M  V30 835 N 78.3393 -0.321999 -1.54275 0
M  V30 836 C 79.2873 0.560206 -2.25753 0
M  V30 837 C 80.2813 1.11984 -1.27106 0
M  V30 838 O 81.4873 1.06806 -1.44888 0
M  V30 839 H 77.8623 0.199304 -0.725108 0
M  V30 840 H 79.8333 -0.0649365 -2.98329 0
M  V30 841 C 78.5823 1.71023 -3.02731 0
M  V30 842 H 77.9053 1.28885 -3.78456 0
M  V30 843 H 79.3453 2.30314 -3.55993 0
M  V30 844 C 77.8043 2.62692 -2.10938 0
M  V30 845 O 78.3343 3.64364 -1.6912 0
M  V30 846 N 76.5403 2.30891 -1.76459 0
M  V30 847 H 76.0873 1.48253 -2.10663 0
M  V30 848 H 76.0453 2.92487 -1.1532 0
M  V30 849 N 79.8174 1.5752 -0.0501392 0
M  V30 850 C 80.7474 2.14502 0.922566 0
M  V30 851 C 81.7284 1.06642 1.3252 0
M  V30 852 O 82.9134 1.34577 1.4001 0
M  V30 853 C 80.0434 2.68916 2.19776 0
M  V30 854 C 78.9974 3.8175 1.93523 0
M  V30 855 C 78.3234 4.22677 3.27487 0
M  V30 856 C 79.6234 5.06932 1.25765 0
M  V30 857 H 81.3174 2.9603 0.447952 0
M  V30 858 H 78.8634 1.42401 0.214024 0
M  V30 859 H 80.8164 3.07419 2.88222 0
M  V30 860 H 79.5404 1.84578 2.69441 0
M  V30 861 H 78.1994 3.43718 1.27489 0
M  V30 862 H 77.8474 3.35291 3.74952 0
M  V30 863 H 77.5474 4.98725 3.1072 0
M  V30 864 H 79.0714 4.63779 3.97166 0
M  V30 865 H 80.4854 5.42888 1.84244 0
M  V30 866 H 78.8824 5.88116 1.19328 0
M  V30 867 H 79.9524 4.84337 0.233536 0
M  V30 868 N 81.2955 -0.223234 1.56011 0
M  V30 869 C 82.5445 -0.945912 1.78144 0
M  V30 870 C 82.8575 -1.85567 0.618396 0
M  V30 871 O 84.0635 -2.61688 0.723318 0
M  V30 872 C 82.5195 -1.73216 3.15475 0
M  V30 873 C 82.1275 -0.868619 4.39499 0
M  V30 874 C 83.8715 -2.44615 3.46935 0
M  V30 875 C 81.7785 -1.65212 5.67855 0
M  V30 876 H 80.7085 -0.356929 0.664167 0
M  V30 877 H 83.3595 -0.199845 1.82409 0
M  V30 878 H 81.7415 -2.52107 3.05382 0
M  V30 879 H 82.9155 -0.120366 4.60643 0
M  V30 880 H 81.2305 -0.26683 4.15544 0
M  V30 881 H 83.8275 -3.03732 4.40058 0
M  V30 882 H 84.1705 -3.17417 2.69355 0
M  V30 883 H 84.7035 -1.72715 3.58349 0
M  V30 884 H 81.4425 -0.967407 6.48322 0
M  V30 885 H 80.9625 -2.37503 5.50774 0
M  V30 886 H 82.6415 -2.21322 6.07968 0
M  V30 887 N 82.7736 -1.49793 -0.48987 0
M  V30 888 C 84.0226 -1.59085 -1.23995 0
M  V30 889 C 84.3356 -0.287907 -1.9347 0
M  V30 890 O 85.5416 -0.259506 -2.70257 0
M  V30 891 C 83.9976 -2.80736 -2.252 0
M  V30 892 C 83.6056 -4.17833 -1.61614 0
M  V30 893 C 85.3496 -2.99364 -3.00967 0
M  V30 894 C 83.2566 -5.30693 -2.60996 0
M  V30 895 H 82.1866 -0.592372 -0.466488 0
M  V30 896 H 84.8376 -1.76197 -0.51252 0
M  V30 897 H 83.2196 -2.57142 -3.01154 0
M  V30 898 H 84.3936 -4.51608 -0.915774 0
M  V30 899 H 82.7086 -4.04656 -0.981977 0
M  V30 900 H 85.3056 -3.80851 -3.75308 0
M  V30 901 H 85.6486 -2.10356 -3.59244 0
M  V30 902 H 86.1816 -3.2305 -2.32128 0
M  V30 903 H 82.9206 -6.21796 -2.07485 0
M  V30 904 H 82.4406 -5.01359 -3.2924 0
M  V30 905 H 84.1196 -5.6049 -3.23202 0
M  V30 906 N 84.2517 0.741722 -1.39055 0
M  V30 907 C 85.4987 1.50114 -1.35912 0
M  V30 908 C 85.8267 1.94443 0.0470937 0
M  V30 909 O 85.0817 1.66612 1.02659 0
M  V30 910 C 85.3807 2.7592 -2.27163 0
M  V30 911 C 85.0467 2.50493 -3.74919 0
M  V30 912 C 83.7087 2.43267 -4.1518 0
M  V30 913 C 86.0607 2.28585 -4.684 0
M  V30 914 C 83.3887 2.12166 -5.46994 0
M  V30 915 C 85.7407 1.99002 -6.00484 0
M  V30 916 C 84.4047 1.90241 -6.39816 0
M  V30 917 H 83.6747 0.549306 -0.497336 0
M  V30 918 H 86.3217 0.851896 -1.71508 0
M  V30 919 H 84.6267 3.45553 -1.84663 0
M  V30 920 H 86.3237 3.33923 -2.22028 0
M  V30 921 H 82.9137 2.56992 -3.43006 0
M  V30 922 H 87.0977 2.33139 -4.38132 0
M  V30 923 H 82.3537 2.03901 -5.76398 0
M  V30 924 H 86.5277 1.81057 -6.72452 0
M  V30 925 H 84.1547 1.65907 -7.41875 0
M  V30 926 N 85.7298 1.2412 0.971189 0
M  V30 927 C 86.6598 1.05508 2.08304 0
M  V30 928 C 87.6408 -0.0308864 1.70072 0
M  V30 929 O 88.8258 0.135521 1.93727 0
M  V30 930 C 85.9558 0.655365 3.4106 0
M  V30 931 C 84.9098 1.68971 3.93234 0
M  V30 932 C 84.2358 1.14516 5.22293 0
M  V30 933 C 85.5358 3.08487 4.21465 0
M  V30 934 H 87.2298 1.98507 2.24132 0
M  V30 935 H 84.7758 0.955821 1.07704 0
M  V30 936 H 86.7288 0.51217 4.18276 0
M  V30 937 H 85.4528 -0.31032 3.25122 0
M  V30 938 H 84.1118 1.82106 3.18171 0
M  V30 939 H 83.7598 0.170189 5.02712 0
M  V30 940 H 83.4598 1.83635 5.58168 0
M  V30 941 H 84.9838 1.01401 6.02121 0
M  V30 942 H 86.3978 2.98601 4.89398 0
M  V30 943 H 84.7948 3.74926 4.68562 0
M  V30 944 H 85.8648 3.56787 3.28376 0
M  V30 945 N 87.2079 -1.17134 1.05439 0
M  V30 946 C 88.4559 -1.87085 0.764429 0
M  V30 947 C 88.7769 -1.81584 -0.710787 0
M  V30 948 O 88.0469 -1.24349 -1.51374 0
M  V30 949 H 86.6269 -0.692627 0.279779 0
M  V30 950 H 89.2889 -1.42087 1.33406 0
M  V30 951 H 88.3849 -2.92759 1.0816 0
M  V30 952 N 88.686 -0.835752 -1.33615 0
M  V30 953 C 89.963 -0.352017 -1.92406 0
M  V30 954 C 90.343 1.16225 -1.76224 0
M  V30 955 O 89.691 1.97526 -1.14873 0
M  V30 956 C 89.901 -0.795485 -3.39813 0
M  V30 957 C 91.249 -0.801703 -4.16963 0
M  V30 958 O 92.273 -0.738889 -3.48452 0
M  V30 959 O 91.132 -0.886607 -5.3926 0
M  V30 960 H 88.226 -0.0989641 -0.821057 0
M  V30 961 H 90.772 -0.921397 -1.42507 0
M  V30 962 H 89.544 -1.83795 -3.45449 0
M  V30 963 H 89.167 -0.202505 -3.97084 0
M  V30 964 N 90.1641 1.46063 -0.591896 0
M  V30 965 C 91.4121 2.01938 -0.0808391 0
M  V30 966 C 91.7331 1.46475 1.28725 0
M  V30 967 O 91.0031 0.652944 1.84698 0
M  V30 968 H 89.5831 0.746516 -0.0268938 0
M  V30 969 H 92.2451 1.79055 -0.769752 0
M  V30 970 H 91.3411 3.12094 -0.0187578 0
M  V30 971 N 91.6422 0.330177 1.54103 0
M  V30 972 C 92.5752 -0.575477 2.20825 0
M  V30 973 C 93.5532 -1.11064 1.18758 0
M  V30 974 O 94.7372 -1.17341 1.47524 0
M  V30 975 C 91.8642 -1.79032 2.87516 0
M  V30 976 C 90.9102 -1.38581 4.03358 0
M  V30 977 S 91.7432 -0.416911 5.33875 0
M  V30 978 C 92.8992 -1.63889 6.04062 0
M  V30 979 H 93.1322 -0.00872114 2.97299 0
M  V30 980 H 90.6652 0.114254 1.53977 0
M  V30 981 H 92.6232 -2.48734 3.2656 0
M  V30 982 H 91.2842 -2.32827 2.10832 0
M  V30 983 H 90.4772 -2.29123 4.48908 0
M  V30 984 H 90.0792 -0.768419 3.66021 0
M  V30 985 H 92.3712 -2.57536 6.26643 0
M  V30 986 H 93.3142 -1.22542 6.97416 0
M  V30 987 H 93.7222 -1.82887 5.34053 0
M  V30 988 N 93.1203 -1.57491 0.0584922 0
M  V30 989 C 94.3683 -1.92597 -0.612436 0
M  V30 990 C 94.6893 -0.938162 -1.70949 0
M  V30 991 O 93.9593 0.0158301 -1.95894 0
M  V30 992 H 92.5393 -0.710964 -0.229214 0
M  V30 993 H 95.2013 -1.94571 0.113218 0
M  V30 994 H 94.2973 -2.94038 -1.04633 0
M  V30 995 N 94.5984 0.214957 -1.56127 0
M  V30 996 C 95.8444 0.939762 -1.79712 0
M  V30 997 C 96.1774 1.83723 -0.629247 0
M  V30 998 O 95.4524 1.90925 0.371197 0
M  V30 999 C 95.7354 1.77306 -3.13424 0
M  V30 1000 C 95.5884 0.90164 -4.40671 0
M  V30 1001 C 96.9074 2.74956 -3.43638 0
M  V30 1002 H 94.0264 0.340214 -0.653776 0
M  V30 1003 H 96.6684 0.20824 -1.88855 0
M  V30 1004 H 94.8184 2.39673 -3.0576 0
M  V30 1005 H 96.4904 0.294206 -4.60361 0
M  V30 1006 H 94.7334 0.207368 -4.33304 0
M  V30 1007 H 95.4044 1.51923 -5.30682 0
M  V30 1008 H 97.8804 2.22724 -3.51473 0
M  V30 1009 H 96.7564 3.30358 -4.38355 0
M  V30 1010 H 97.0174 3.53023 -2.66134 0
M  V30 1011 N 96.0765 1.50051 0.48192 0
M  V30 1012 C 97.3015 1.64508 1.26301 0
M  V30 1013 C 97.7265 0.323851 1.85291 0
M  V30 1014 O 97.0845 -0.710969 1.66778 0
M  V30 1015 C 97.1325 2.7305 2.35533 0
M  V30 1016 O 96.2365 2.3355 3.39895 0
M  V30 1017 H 95.5775 0.549978 0.372048 0
M  V30 1018 H 98.1075 1.9636 0.574786 0
M  V30 1019 H 98.1175 2.95799 2.8101 0
M  V30 1020 H 96.7925 3.68946 1.91967 0
M  V30 1021 H 95.3695 2.21205 3.00204 0
M  V30 1022 N 97.5546 -0.734337 1.39446 0
M  V30 1023 C 98.7826 -1.52358 1.39981 0
M  V30 1024 C 99.1976 -1.88799 -0.0054975 0
M  V30 1025 O 98.5546 -1.54146 -0.976998 0
M  V30 1026 C 98.6056 -2.81072 2.27333 0
M  V30 1027 O 98.3266 -2.46178 3.62392 0
M  V30 1028 C 99.8276 -3.75096 2.36259 0
M  V30 1029 H 97.0476 -0.470806 0.478103 0
M  V30 1030 H 99.5916 -0.907339 1.83269 0
M  V30 1031 H 97.7466 -3.39026 1.87457 0
M  V30 1032 H 98.1606 -3.28866 4.08592 0
M  V30 1033 H 99.6346 -4.62305 3.01626 0
M  V30 1034 H 100.112 -4.16892 1.38194 0
M  V30 1035 H 100.718 -3.23061 2.76608 0
M  V30 1036 N 99.0327 -1.24633 -0.964593 0
M  V30 1037 C 100.279 -1.08949 -1.71049 0
M  V30 1038 C 100.612 0.370302 -1.90637 0
M  V30 1039 O 99.8867 1.27349 -1.47011 0
M  V30 1040 C 100.17 -1.83329 -3.0994 0
M  V30 1041 C 100.023 -3.37077 -2.97824 0
M  V30 1042 C 101.342 -1.60846 -4.09654 0
M  V30 1043 H 98.4607 -0.397178 -0.620821 0
M  V30 1044 H 101.103 -1.5334 -1.12191 0
M  V30 1045 H 99.2527 -1.45597 -3.60186 0
M  V30 1046 H 100.925 -3.84425 -2.5498 0
M  V30 1047 H 99.1677 -3.65298 -2.33965 0
M  V30 1048 H 99.8387 -3.84324 -3.96231 0
M  V30 1049 H 102.315 -1.93674 -3.68279 0
M  V30 1050 H 101.191 -2.1534 -5.04896 0
M  V30 1051 H 101.452 -0.547434 -4.38698 0
M  V30 1052 N 100.511 1.16574 -1.06058 0
M  V30 1053 C 101.739 1.90952 -0.796552 0
M  V30 1054 C 102.154 1.77302 0.648808 0
M  V30 1055 O 101.511 1.11605 1.44397 0
M  V30 1056 C 101.562 3.41736 -1.17894 0
M  V30 1057 O 101.283 3.54975 -2.56758 0
M  V30 1058 C 102.784 4.33169 -0.942308 0
M  V30 1059 H 100.004 0.605594 -0.288959 0
M  V30 1060 H 102.548 1.47777 -1.41358 0
M  V30 1061 H 100.703 3.82623 -0.606491 0
M  V30 1062 H 101.117 4.4846 -2.72 0
M  V30 1063 H 102.591 5.37439 -1.25952 0
M  V30 1064 H 103.068 4.3903 0.122078 0
M  V30 1065 H 103.674 3.98007 -1.49902 0
M  V30 1066 N 101.989 0.842826 1.3317 0
M  V30 1067 C 102.952 0.284065 2.27433 0
M  V30 1068 C 103.952 -0.54948 1.5112 0
M  V30 1069 O 105.142 -0.362699 1.70382 0
M  V30 1070 C 102.274 -0.599384 3.35589 0
M  V30 1071 H 103.467 1.11589 2.78366 0
M  V30 1072 H 101.02 0.616221 1.4364 0
M  V30 1073 H 101.755 -1.45349 2.89904 0
M  V30 1074 H 101.54 -0.00291266 3.921 0
M  V30 1075 H 103.03 -0.983488 4.05854 0
M  V30 1076 N 103.467 -1.45747 0.599634 0
M  V30 1077 C 104.43 -2.28917 -0.113835 0
M  V30 1078 C 105.43 -1.3933 -0.802729 0
M  V30 1079 O 106.62 -1.61534 -0.652103 0
M  V30 1080 C 103.752 -3.20152 -1.17114 0
M  V30 1081 H 104.945 -2.93478 0.617289 0
M  V30 1082 H 102.498 -1.52137 0.358327 0
M  V30 1083 H 103.233 -2.60374 -1.93329 0
M  V30 1084 H 103.018 -3.86133 -0.681468 0
M  V30 1085 H 104.508 -3.82708 -1.67105 0
M  V30 1086 N 104.945 -0.338344 -1.53925 0
M  V30 1087 C 106.361 0.0137736 -1.59594 0
M  V30 1088 C 106.561 1.49186 -1.35447 0
M  V30 1089 O 105.617 2.24987 -1.14616 0
M  V30 1090 C 106.93 -0.41773 -2.97784 0
M  V30 1091 C 108.478 -0.369633 -3.1081 0
M  V30 1092 C 108.953 -0.776524 -4.51369 0
M  V30 1093 N 110.444 -0.730506 -4.57403 0
M  V30 1094 C 111.179 -1.01736 -5.64303 0
M  V30 1095 N 110.675 -1.3721 -6.79077 0
M  V30 1096 N 112.468 -0.941942 -5.54151 0
M  V30 1097 H 104.619 -1.3012 -1.67876 0
M  V30 1098 H 106.882 -0.530082 -0.78595 0
M  V30 1099 H 106.588 -1.44811 -3.20504 0
M  V30 1100 H 106.462 0.209729 -3.76616 0
M  V30 1101 H 108.849 0.651568 -2.87817 0
M  V30 1102 H 108.93 -1.03223 -2.34049 0
M  V30 1103 H 108.574 -1.79571 -4.75096 0
M  V30 1104 H 108.504 -0.0914649 -5.26521 0
M  V30 1105 H 110.995 -0.468783 -3.74981 0
M  V30 1106 H 111.308 -1.57597 -7.5656 0
M  V30 1107 H 109.653 -1.4105 -6.80536 0
M  V30 1108 H 112.844 -0.664184 -4.63364 0
M  V30 1109 H 113.017 -1.16884 -6.37371 0
M  V30 1110 N 106.423 1.57458 -0.0668435 0
M  V30 1111 C 107.672 1.92477 0.602947 0
M  V30 1112 C 107.985 0.948419 1.71068 0
M  V30 1113 O 109.191 1.19124 2.43971 0
M  V30 1114 C 107.647 3.41903 1.12383 0
M  V30 1115 C 107.255 4.47975 0.04737 0
M  V30 1116 C 108.999 3.85931 1.76797 0
M  V30 1117 C 106.906 5.88529 0.582022 0
M  V30 1118 H 105.836 0.718387 0.22899 0
M  V30 1119 H 108.487 1.82978 -0.138276 0
M  V30 1120 H 106.869 3.46459 1.91787 0
M  V30 1121 H 108.043 4.55029 -0.726978 0
M  V30 1122 H 106.358 4.13384 -0.500243 0
M  V30 1123 H 108.955 4.88322 2.17821 0
M  V30 1124 H 109.298 3.23029 2.62599 0
M  V30 1125 H 109.831 3.83958 1.04024 0
M  V30 1126 H 106.57 6.55065 -0.238721 0
M  V30 1127 H 106.09 5.85004 1.324 0
M  V30 1128 H 107.769 6.38258 1.05999 0
M  V30 1129 N 107.901 -0.206675 1.56239 0
M  V30 1130 C 108.831 -1.25909 1.96645 0
M  V30 1131 C 109.812 -1.48097 0.836734 0
M  V30 1132 O 110.997 -1.6003 1.10019 0
M  V30 1133 C 108.127 -2.6058 2.29599 0
M  V30 1134 C 107.081 -2.53024 3.452 0
M  V30 1135 C 106.407 -3.91861 3.63798 0
M  V30 1136 C 107.707 -2.06524 4.79734 0
M  V30 1137 H 109.401 -0.923369 2.84806 0
M  V30 1138 H 106.947 -0.442735 1.37025 0
M  V30 1139 H 108.9 -3.34375 2.56459 0
M  V30 1140 H 107.624 -2.95869 1.38307 0
M  V30 1141 H 106.283 -1.81684 3.18412 0
M  V30 1142 H 105.931 -4.24483 2.69857 0
M  V30 1143 H 105.631 -3.87683 4.4156 0
M  V30 1144 H 107.155 -4.67296 3.93022 0
M  V30 1145 H 108.569 -2.70072 5.05702 0
M  V30 1146 H 106.966 -2.13374 5.60885 0
M  V30 1147 H 108.036 -1.01802 4.74093 0
M  V30 1148 N 109.379 -1.50304 -0.473955 0
M  V30 1149 C 110.326 -1.68959 -1.57231 0
M  V30 1150 C 111.296 -0.530899 -1.57387 0
M  V30 1151 O 112.481 -0.761133 -1.74961 0
M  V30 1152 C 109.621 -1.7871 -2.95223 0
M  V30 1153 C 108.734 -3.06061 -3.04878 0
M  V30 1154 C 107.869 -3.06626 -4.33767 0
M  V30 1155 C 106.908 -4.28443 -4.37154 0
M  V30 1156 N 106.045 -4.26763 -5.5751 0
M  V30 1157 H 110.885 -2.6273 -1.40631 0
M  V30 1158 H 108.422 -1.30241 -0.683789 0
M  V30 1159 H 110.38 -1.82344 -3.75242 0
M  V30 1160 H 109.01 -0.883806 -3.10465 0
M  V30 1161 H 108.062 -3.11911 -2.17751 0
M  V30 1162 H 109.374 -3.96039 -3.0324 0
M  V30 1163 H 108.528 -3.08973 -5.22131 0
M  V30 1164 H 107.267 -2.14473 -4.3801 0
M  V30 1165 H 106.272 -4.2631 -3.47188 0
M  V30 1166 H 107.497 -5.2182 -4.34605 0
M  V30 1167 H 105.443 -3.37462 -5.62544 0
M  V30 1168 H 105.36 -5.10507 -5.57601 0
M  V30 1169 H 106.628 -4.33253 -6.48006 0
M  V30 1170 N 110.857 0.726932 -1.39834 0
M  V30 1171 C 112.105 1.4837 -1.37225 0
M  V30 1172 C 112.426 1.94979 0.0284857 0
M  V30 1173 O 111.696 1.69555 0.981213 0
M  V30 1174 H 110.276 0.55043 -0.505011 0
M  V30 1175 H 112.938 0.862468 -1.74778 0
M  V30 1176 H 112.034 2.36198 -2.04003 0
M  V30 1177 N 112.336 1.25143 0.95797 0
M  V30 1178 C 113.268 1.01023 2.05735 0
M  V30 1179 C 114.281 -0.0236902 1.62783 0
M  V30 1180 O 115.47 0.21448 1.77207 0
M  V30 1181 C 112.57 0.504595 3.35122 0
M  V30 1182 C 111.743 1.6039 4.06932 0
M  V30 1183 C 110.802 1.09922 5.14591 0
M  V30 1184 O 109.828 1.79293 5.40225 0
M  V30 1185 N 111.03 -0.0612545 5.80468 0
M  V30 1186 H 113.795 1.95683 2.26998 0
M  V30 1187 H 111.356 1.16303 1.12629 0
M  V30 1188 H 113.348 0.151516 4.04416 0
M  V30 1189 H 111.918 -0.347989 3.10657 0
M  V30 1190 H 111.138 2.12872 3.31782 0
M  V30 1191 H 112.426 2.34252 4.51667 0
M  V30 1192 H 111.824 -0.640985 5.62057 0
M  V30 1193 H 110.381 -0.355395 6.5083 0
M  V30 1194 N 113.814 -1.1601 1.06675 0
M  V30 1195 C 114.761 -2.20525 0.680967 0
M  V30 1196 C 115.731 -1.62904 -0.324283 0
M  V30 1197 O 116.916 -1.89615 -0.212294 0
M  V30 1198 C 114.056 -3.45013 0.0776551 0
M  V30 1199 C 113.169 -4.16863 1.13355 0
M  V30 1200 C 112.304 -5.2888 0.49597 0
M  V30 1201 C 111.343 -5.92537 1.53513 0
M  V30 1202 N 110.48 -6.96038 0.920631 0
M  V30 1203 H 115.32 -2.52876 1.57663 0
M  V30 1204 H 112.857 -1.24199 0.788223 0
M  V30 1205 H 114.815 -4.16193 -0.289704 0
M  V30 1206 H 113.445 -3.132 -0.781393 0
M  V30 1207 H 112.497 -3.44248 1.61857 0
M  V30 1208 H 113.809 -4.60294 1.92174 0
M  V30 1209 H 112.963 -6.06653 0.0758604 0
M  V30 1210 H 111.702 -4.86622 -0.324062 0
M  V30 1211 H 110.707 -5.13482 1.9651 0
M  V30 1212 H 111.932 -6.36873 2.35733 0
M  V30 1213 H 109.878 -6.55888 0.12138 0
M  V30 1214 H 109.795 -7.3786 1.64616 0
M  V30 1215 H 111.063 -7.77725 0.525795 0
M  V30 1216 N 115.292 -0.849877 -1.32721 0
M  V30 1217 C 116.239 -0.289033 -2.28983 0
M  V30 1218 C 117.209 0.601324 -1.54833 0
M  V30 1219 O 118.394 0.537253 -1.8308 0
M  V30 1220 C 115.534 0.520623 -3.4115 0
M  V30 1221 C 114.647 -0.394989 -4.3019 0
M  V30 1222 C 113.782 0.426834 -5.29482 0
M  V30 1223 C 112.821 -0.486476 -6.10164 0
M  V30 1224 N 111.958 0.297879 -7.01468 0
M  V30 1225 H 116.798 -1.11519 -2.76347 0
M  V30 1226 H 114.335 -0.56138 -1.35967 0
M  V30 1227 H 116.293 1.00563 -4.04899 0
M  V30 1228 H 114.923 1.31165 -2.9495 0
M  V30 1229 H 113.975 -0.99836 -3.67065 0
M  V30 1230 H 115.287 -1.09612 -4.86607 0
M  V30 1231 H 114.441 0.975205 -5.98811 0
M  V30 1232 H 113.18 1.16136 -4.73671 0
M  V30 1233 H 112.185 -1.04677 -5.39743 0
M  V30 1234 H 113.41 -1.21953 -6.6806 0
M  V30 1235 H 111.356 1.01558 -6.48091 0
M  V30 1236 H 111.273 -0.344318 -7.55216 0
M  V30 1237 H 112.541 0.828131 -7.75089 0
M  V30 1238 N 116.77 1.45427 -0.607355 0
M  V30 1239 C 118.047 1.9557 -0.0344566 0
M  V30 1240 C 118.427 1.54979 1.43334 0
M  V30 1241 O 117.775 0.812241 2.13576 0
M  V30 1242 C 117.985 3.48226 -0.232321 0
M  V30 1243 C 119.333 4.2445 -0.113001 0
M  V30 1244 O 120.357 3.55829 -0.162431 0
M  V30 1245 O 119.216 5.465 0.00209442 0
M  V30 1246 H 116.31 0.826222 0.0358667 0
M  V30 1247 H 118.856 1.55594 -0.6774 0
M  V30 1248 H 117.628 3.70739 -1.25174 0
M  V30 1249 H 117.251 3.95092 0.445896 0
M  V30 1250 N 118.248 0.346503 1.53744 0
M  V30 1251 C 119.195 -0.508914 2.25119 0
M  V30 1252 C 120.165 -1.09315 1.25058 0
M  V30 1253 O 121.35 -1.12921 1.53797 0
M  V30 1254 C 118.49 -1.65246 3.02965 0
M  V30 1255 C 117.603 -1.09525 4.17886 0
M  V30 1256 C 116.738 -2.20634 4.83212 0
M  V30 1257 C 115.777 -1.62279 5.90196 0
M  V30 1258 N 114.914 -2.67143 6.49291 0
M  V30 1259 H 119.754 0.106283 2.9781 0
M  V30 1260 H 117.291 0.0642227 1.4696 0
M  V30 1261 H 119.249 -2.32574 3.4636 0
M  V30 1262 H 117.879 -2.2386 2.32565 0
M  V30 1263 H 116.931 -0.312818 3.79112 0
M  V30 1264 H 118.243 -0.628444 4.94825 0
M  V30 1265 H 117.397 -2.95821 5.29693 0
M  V30 1266 H 116.136 -2.70659 4.05703 0
M  V30 1267 H 115.141 -0.855989 5.43096 0
M  V30 1268 H 116.366 -1.13102 6.69615 0
M  V30 1269 H 114.312 -3.16417 5.74645 0
M  V30 1270 H 114.229 -2.25093 7.21713 0
M  V30 1271 H 115.497 -3.4209 7.00425 0
M  V30 1272 N 119.726 -1.57421 0.075193 0
M  V30 1273 C 120.656 -2.15942 -0.888324 0
M  V30 1274 C 121.637 -1.08737 -1.30806 0
M  V30 1275 O 122.822 -1.36787 -1.37851 0
M  V30 1276 C 119.952 -2.72379 -2.1547 0
M  V30 1277 C 118.906 -3.8478 -1.87425 0
M  V30 1278 C 118.232 -4.27834 -3.20721 0
M  V30 1279 C 119.532 -5.08869 -1.17684 0
M  V30 1280 H 121.226 -2.96705 -0.400799 0
M  V30 1281 H 118.772 -1.42723 -0.191342 0
M  V30 1282 H 120.725 -3.11965 -2.83295 0
M  V30 1283 H 119.449 -1.88841 -2.6647 0
M  V30 1284 H 118.108 -3.45703 -1.22004 0
M  V30 1285 H 117.756 -3.41214 -3.6957 0
M  V30 1286 H 117.456 -5.03605 -3.02746 0
M  V30 1287 H 118.98 -4.70039 -3.89738 0
M  V30 1288 H 120.394 -5.4575 -1.75584 0
M  V30 1289 H 118.791 -5.8994 -1.09956 0
M  V30 1290 H 119.861 -4.84648 -0.156453 0
M  V30 1291 N 121.204 0.198386 -1.56346 0
M  V30 1292 C 122.452 0.91747 -1.80075 0
M  V30 1293 C 122.773 1.83929 -0.647692 0
M  V30 1294 O 122.043 1.93029 0.334166 0
M  V30 1295 H 120.623 0.341774 -0.664228 0
M  V30 1296 H 123.285 0.204684 -1.93822 0
M  V30 1297 H 122.381 1.51055 -2.7311 0
M  V30 1298 N 122.682 1.50554 0.465978 0
M  V30 1299 C 124.093 1.54599 1.04671 0
M  V30 1300 C 124.444 0.352488 1.93008 0
M  V30 1301 O 123.569 -0.534044 2.09707 0
M  V30 1302 C 124.164 2.80166 1.90505 0
M  V30 1303 C 122.723 2.86876 2.43678 0
M  V30 1304 C 121.87 2.48947 1.22151 0
M  V30 1305 H 124.821 1.56744 0.248384 0
M  V30 1306 H 124.842 2.62311 2.75633 0
M  V30 1307 H 124.354 3.67013 1.26186 0
M  V30 1308 H 122.455 2.04393 3.11536 0
M  V30 1309 H 122.568 3.89885 2.78436 0
M  V30 1310 H 120.932 2.01498 1.5579 0
M  V30 1311 H 121.715 3.38107 0.594866 0
M  V30 1312 N 124.16 -0.719506 1.40217 0
M  V30 1313 C 125.07 -1.86378 1.42479 0
M  V30 1314 C 126.086 -1.71073 0.317834 0
M  V30 1315 O 127.262 -1.93406 0.561794 0
M  V30 1316 C 124.327 -3.22136 1.28178 0
M  V30 1317 C 123.388 -3.49723 2.48982 0
M  V30 1318 C 122.621 -4.79004 2.35353 0
M  V30 1319 O 122.844 -5.53821 1.36524 0
M  V30 1320 O 121.778 -5.06839 3.2465 0
M  V30 1321 H 125.604 -1.87425 2.38968 0
M  V30 1322 H 123.189 -0.869405 1.21498 0
M  V30 1323 H 125.071 -4.03234 1.22395 0
M  V30 1324 H 123.746 -3.21825 0.347934 0
M  V30 1325 H 122.653 -2.6865 2.60342 0
M  V30 1326 H 123.986 -3.54828 3.41113 0
M  V30 1327 N 125.638 -1.25649 -0.95132 0
M  V30 1328 C 126.866 -1.13343 -1.73092 0
M  V30 1329 C 127.281 0.312434 -1.86197 0
M  V30 1330 O 126.638 1.21465 -1.36207 0
M  V30 1331 C 126.689 -1.78602 -3.14299 0
M  V30 1332 O 126.41 -3.17537 -3.01831 0
M  V30 1333 C 127.911 -1.72119 -4.08522 0
M  V30 1334 H 125.131 -0.395181 -0.542285 0
M  V30 1335 H 127.675 -1.66076 -1.19328 0
M  V30 1336 H 125.83 -1.29832 -3.64996 0
M  V30 1337 H 126.244 -3.49676 -3.90931 0
M  V30 1338 H 127.718 -2.22435 -5.052 0
M  V30 1339 H 128.195 -0.685635 -4.33815 0
M  V30 1340 H 128.801 -2.20393 -3.63741 0
M  V30 1341 N 127.117 1.15442 -1.07289 0
M  V30 1342 C 128.364 1.86213 -0.795668 0
M  V30 1343 C 128.692 1.82291 0.678238 0
M  V30 1344 O 127.947 1.24057 1.51355 0
M  V30 1345 C 128.246 3.3489 -1.24834 0
M  V30 1346 C 127.912 3.59007 -2.72809 0
M  V30 1347 C 126.574 3.65298 -3.13227 0
M  V30 1348 C 128.926 3.68762 -3.68326 0
M  V30 1349 C 126.254 3.78854 -4.4798 0
M  V30 1350 C 128.606 3.83842 -5.0284 0
M  V30 1351 C 127.27 3.88378 -5.4288 0
M  V30 1352 H 126.54 0.681403 -0.291155 0
M  V30 1353 H 129.187 1.36435 -1.34379 0
M  V30 1354 H 127.492 3.8687 -0.619595 0
M  V30 1355 H 129.189 3.88052 -1.01076 0
M  V30 1356 H 125.779 3.5475 -2.40521 0
M  V30 1357 H 129.963 3.63202 -3.38227 0
M  V30 1358 H 125.219 3.80623 -4.78472 0
M  V30 1359 H 129.393 3.90332 -5.76727 0
M  V30 1360 H 127.02 3.98635 -6.47298 0
M  V30 1361 N 128.595 0.856903 1.32268 0
M  V30 1362 C 129.525 0.31858 2.31316 0
M  V30 1363 C 130.506 -0.583487 1.59779 0
M  V30 1364 O 131.691 -0.503259 1.87566 0
M  V30 1365 C 128.821 -0.491979 3.43798 0
M  V30 1366 C 127.775 0.315849 4.26833 0
M  V30 1367 C 127.101 -0.619586 5.31098 0
M  V30 1368 C 128.401 1.54282 4.98993 0
M  V30 1369 H 130.095 1.14621 2.76591 0
M  V30 1370 H 127.641 0.552613 1.32974 0
M  V30 1371 H 129.594 -0.879012 4.1213 0
M  V30 1372 H 128.318 -1.35299 2.97257 0
M  V30 1373 H 126.977 0.684664 3.6015 0
M  V30 1374 H 126.625 -1.47751 4.8081 0
M  V30 1375 H 126.325 -0.0830621 5.87541 0
M  V30 1376 H 127.849 -1.00375 6.02293 0
M  V30 1377 H 129.263 1.22796 5.59995 0
M  V30 1378 H 127.66 2.01745 5.65172 0
M  V30 1379 H 128.73 2.30285 4.26728 0
M  V30 1380 N 130.073 -1.45103 0.615059 0
M  V30 1381 C 131.036 -2.29025 -0.0895485 0
M  V30 1382 C 132.036 -1.40174 -0.787906 0
M  V30 1383 O 133.226 -1.62217 -0.634933 0
M  V30 1384 C 130.358 -3.21376 -1.13711 0
M  V30 1385 H 131.551 -2.92807 0.648382 0
M  V30 1386 H 129.104 -1.51749 0.374444 0
M  V30 1387 H 129.839 -2.6241 -1.90556 0
M  V30 1388 H 129.624 -3.86834 -0.640475 0
M  V30 1389 H 131.114 -3.84459 -1.63036 0
M  V30 1390 N 131.551 -0.354651 -1.53558 0
M  V30 1391 C 132.484 0.540273 -2.21712 0
M  V30 1392 C 133.462 1.09161 -1.2051 0
M  V30 1393 O 134.646 1.14979 -1.49372 0
M  V30 1394 C 131.773 1.74435 -2.90328 0
M  V30 1395 C 130.819 1.32146 -4.05512 0
M  V30 1396 S 131.652 0.331924 -5.3447 0
M  V30 1397 C 132.808 1.54258 -6.06593 0
M  V30 1398 H 133.041 -0.0385776 -2.97275 0
M  V30 1399 H 130.574 -0.138736 -1.53775 0
M  V30 1400 H 132.532 2.43507 -3.30476 0
M  V30 1401 H 131.193 2.29444 -2.1451 0
M  V30 1402 H 130.386 2.21952 -4.52497 0
M  V30 1403 H 129.988 0.710091 -3.67197 0
M  V30 1404 H 132.28 2.47534 -6.30661 0
M  V30 1405 H 133.223 1.11431 -6.99277 0
M  V30 1406 H 133.631 1.74367 -5.36895 0
M  V30 1407 N 133.029 1.57378 -0.0835403 0
M  V30 1408 C 134.306 1.85363 0.624507 0
M  V30 1409 C 134.686 0.978239 1.87066 0
M  V30 1410 O 134.034 0.0475908 2.2845 0
M  V30 1411 C 134.244 3.35795 0.950947 0
M  V30 1412 C 135.592 4.03581 1.31939 0
M  V30 1413 O 136.616 3.40609 1.04232 0
M  V30 1414 O 135.475 5.14672 1.83779 0
M  V30 1415 H 132.569 0.766162 0.311329 0
M  V30 1416 H 135.115 1.69307 -0.115362 0
M  V30 1417 H 133.887 3.91244 0.0663899 0
M  V30 1418 H 133.51 3.57154 1.74719 0
M  V30 1419 N 134.507 -0.190092 1.56449 0
M  V30 1420 C 135.923 -0.54113 1.50146 0
M  V30 1421 C 136.123 -1.85603 0.784465 0
M  V30 1422 O 135.179 -2.5024 0.337051 0
M  V30 1423 C 136.492 -0.591241 2.9483 0
M  V30 1424 C 138.04 -0.679732 3.0553 0
M  V30 1425 C 138.515 -0.760908 4.51635 0
M  V30 1426 N 140.006 -0.824302 4.55806 0
M  V30 1427 C 140.741 -0.907365 5.66175 0
M  V30 1428 N 140.237 -0.952422 6.86222 0
M  V30 1429 N 142.03 -0.94494 5.541 0
M  V30 1430 H 134.181 0.67235 2.01478 0
M  V30 1431 H 136.444 0.240127 0.917084 0
M  V30 1432 H 136.15 0.305905 3.50367 0
M  V30 1433 H 136.024 -1.44422 3.48457 0
M  V30 1434 H 138.411 -1.56731 2.50039 0
M  V30 1435 H 138.492 0.199549 2.5502 0
M  V30 1436 H 138.136 0.122336 5.07753 0
M  V30 1437 H 138.066 -1.65606 4.99882 0
M  V30 1438 H 140.557 -0.798526 3.69367 0
M  V30 1439 H 140.87 -1.01645 7.66086 0
M  V30 1440 H 139.215 -0.921014 6.8887 0
M  V30 1441 H 142.406 -0.906612 4.59236 0
M  V30 1442 H 142.579 -1.00622 6.4014 0
M  V30 1443 N 135.985 -1.50799 -0.457987 0
M  V30 1444 C 137.232 -1.62442 -1.20908 0
M  V30 1445 C 137.56 -0.330865 -1.91665 0
M  V30 1446 O 136.815 0.68401 -1.83357 0
M  V30 1447 C 137.114 -2.76358 -2.2663 0
M  V30 1448 C 136.78 -4.16378 -1.73033 0
M  V30 1449 C 135.442 -4.54473 -1.58138 0
M  V30 1450 C 137.794 -5.03836 -1.33413 0
M  V30 1451 C 135.122 -5.77754 -1.02065 0
M  V30 1452 C 137.474 -6.27676 -0.78778 0
M  V30 1453 C 136.138 -6.64562 -0.625561 0
M  V30 1454 H 135.408 -0.594417 -0.442435 0
M  V30 1455 H 138.055 -1.84772 -0.503136 0
M  V30 1456 H 136.36 -2.48167 -3.03184 0
M  V30 1457 H 138.057 -2.82568 -2.84528 0
M  V30 1458 H 134.647 -3.86331 -1.85598 0
M  V30 1459 H 138.831 -4.75026 -1.4375 0
M  V30 1460 H 134.087 -6.04997 -0.882547 0
M  V30 1461 H 138.261 -6.94797 -0.472177 0
M  V30 1462 H 135.888 -7.59965 -0.188926 0
M  V30 1463 N 137.463 0.71206 -1.40597 0
M  V30 1464 C 138.874 1.29135 -1.34837 0
M  V30 1465 C 139.225 1.96186 -0.0235395 0
M  V30 1466 O 138.35 1.97768 0.878444 0
M  V30 1467 C 138.945 2.34827 -2.44217 0
M  V30 1468 C 137.504 2.88371 -2.41907 0
M  V30 1469 C 136.651 1.62202 -2.24913 0
M  V30 1470 H 139.602 0.507944 -1.50352 0
M  V30 1471 H 139.623 3.15749 -2.12327 0
M  V30 1472 H 139.135 1.85996 -3.40627 0
M  V30 1473 H 137.236 3.41422 -1.49204 0
M  V30 1474 H 137.349 3.39925 -3.37621 0
M  V30 1475 H 135.713 1.874 -1.72492 0
M  V30 1476 H 136.496 1.15391 -3.23326 0
M  V30 1477 N 138.941 1.26152 0.944643 0
M  V30 1478 C 140.171 1.14094 1.72239 0
M  V30 1479 C 140.579 -0.306931 1.86694 0
M  V30 1480 O 139.922 -1.22222 1.3714 0
M  V30 1481 C 139.984 1.73316 3.14963 0
M  V30 1482 C 139.648 3.2239 3.23904 0
M  V30 1483 C 140.645 4.19252 3.07447 0
M  V30 1484 C 138.33 3.62788 3.47405 0
M  V30 1485 C 140.324 5.54491 3.14353 0
M  V30 1486 C 138.011 4.98162 3.53947 0
M  V30 1487 C 139.009 5.93823 3.37436 0
M  V30 1488 O 138.697 7.26732 3.43679 0
M  V30 1489 H 138.429 0.398292 0.546205 0
M  V30 1490 H 140.983 1.67201 1.19301 0
M  V30 1491 H 139.213 1.14667 3.69308 0
M  V30 1492 H 140.902 1.56214 3.74636 0
M  V30 1493 H 141.668 3.8938 2.8915 0
M  V30 1494 H 137.547 2.88816 3.59313 0
M  V30 1495 H 141.091 6.29137 3.01384 0
M  V30 1496 H 136.988 5.27695 3.71763 0
M  V30 1497 H 137.756 7.3496 3.60245 0
M  V30 1498 N 140.419 -1.14872 1.07899 0
M  V30 1499 C 141.665 -1.86064 0.806725 0
M  V30 1500 C 141.998 -1.82434 -0.665706 0
M  V30 1501 O 141.273 -1.25138 -1.48899 0
M  V30 1502 C 141.556 -3.34929 1.32267 0
M  V30 1503 C 141.409 -3.47161 2.86006 0
M  V30 1504 C 142.728 -4.29863 0.943717 0
M  V30 1505 H 139.847 -0.675591 0.294526 0
M  V30 1506 H 142.489 -1.34925 1.33773 0
M  V30 1507 H 140.639 -3.78611 0.870974 0
M  V30 1508 H 142.311 -3.12302 3.39507 0
M  V30 1509 H 140.554 -2.88539 3.23925 0
M  V30 1510 H 141.225 -4.51777 3.17177 0
M  V30 1511 H 143.701 -3.9417 1.33302 0
M  V30 1512 H 142.577 -5.32494 1.33198 0
M  V30 1513 H 142.838 -4.41846 -0.149796 0
M  V30 1514 N 141.898 -0.863906 -1.31812 0
M  V30 1515 C 142.861 -0.320212 -2.26952 0
M  V30 1516 C 143.861 0.525369 -1.51975 0
M  V30 1517 O 145.051 0.335547 -1.70938 0
M  V30 1518 C 142.183 0.545919 -3.365 0
M  V30 1519 H 143.376 -1.16004 -2.76556 0
M  V30 1520 H 140.929 -0.638995 -1.42641 0
M  V30 1521 H 141.664 1.40718 -2.92179 0
M  V30 1522 H 141.449 -0.0594674 -3.92055 0
M  V30 1523 H 142.939 0.918796 -4.07367 0
M  V30 1524 N 143.376 1.44774 -0.622745 0
M  V30 1525 C 144.306 2.33382 0.0741861 0
M  V30 1526 C 145.287 1.47719 0.843387 0
M  V30 1527 O 146.472 1.76458 0.810934 0
M  V30 1528 C 143.602 3.30663 1.06204 0
M  V30 1529 C 142.556 4.26079 0.405037 0
M  V30 1530 C 141.882 5.13165 1.5022 0
M  V30 1531 C 143.182 5.1781 -0.683414 0
M  V30 1532 H 144.876 2.91905 -0.665713 0
M  V30 1533 H 142.422 1.40363 -0.321587 0
M  V30 1534 H 144.375 3.9153 1.55827 0
M  V30 1535 H 143.099 2.70331 1.83272 0
M  V30 1536 H 141.758 3.66532 -0.0704683 0
M  V30 1537 H 141.406 4.49191 2.26355 0
M  V30 1538 H 141.106 5.77812 1.06803 0
M  V30 1539 H 142.63 5.76902 2.00041 0
M  V30 1540 H 144.044 5.72661 -0.270631 0
M  V30 1541 H 142.441 5.91015 -1.04023 0
M  V30 1542 H 143.511 4.59326 -1.55395 0
M  V30 1543 N 144.854 0.36279 1.53368 0
M  V30 1544 C 146.079 -0.231226 2.06107 0
M  V30 1545 C 146.504 -1.419 1.23474 0
M  V30 1546 O 145.862 -1.79524 0.253128 0
M  V30 1547 C 145.91 -0.605523 3.5548 0
M  V30 1548 O 145.014 -1.70312 3.7559 0
M  V30 1549 H 144.355 -0.034327 0.663112 0
M  V30 1550 H 146.885 0.522584 1.97814 0
M  V30 1551 H 146.895 -0.877314 3.98456 0
M  V30 1552 H 145.57 0.263004 4.15068 0
M  V30 1553 H 144.147 -1.4271 3.44512 0
M  V30 1554 N 146.332 -1.57332 0.0918853 0
M  V30 1555 C 147.279 -2.13847 -0.868211 0
M  V30 1556 C 148.249 -1.05618 -1.28196 0
M  V30 1557 O 149.434 -1.33387 -1.36427 0
M  V30 1558 C 146.574 -2.72062 -2.12312 0
M  V30 1559 C 145.687 -3.94514 -1.7602 0
M  V30 1560 C 144.822 -4.40903 -2.96273 0
M  V30 1561 C 143.861 -5.55953 -2.56092 0
M  V30 1562 N 142.998 -5.97209 -3.69169 0
M  V30 1563 H 147.838 -2.95575 -0.379406 0
M  V30 1564 H 145.375 -1.46048 -0.175606 0
M  V30 1565 H 147.333 -3.03931 -2.858 0
M  V30 1566 H 145.963 -1.93068 -2.58698 0
M  V30 1567 H 145.015 -3.68979 -0.925135 0
M  V30 1568 H 146.327 -4.7802 -1.42472 0
M  V30 1569 H 145.481 -4.74539 -3.78018 0
M  V30 1570 H 144.22 -3.56291 -3.33029 0
M  V30 1571 H 143.225 -5.21948 -1.72773 0
M  V30 1572 H 144.45 -6.42311 -2.20484 0
M  V30 1573 H 142.396 -5.15543 -4.05649 0
M  V30 1574 H 142.313 -6.75504 -3.39456 0
M  V30 1575 H 143.581 -6.35475 -4.51434 0
M  V30 1576 N 147.81 0.181792 -1.56548 0
M  V30 1577 C 149.038 0.915947 -1.85521 0
M  V30 1578 C 149.453 1.76282 -0.676016 0
M  V30 1579 O 148.81 1.79012 0.355077 0
M  V30 1580 C 148.861 1.80126 -3.13427 0
M  V30 1581 O 148.582 0.988562 -4.26801 0
M  V30 1582 C 150.083 2.64597 -3.55673 0
M  V30 1583 H 147.303 0.26661 -0.61576 0
M  V30 1584 H 149.847 0.185039 -2.03661 0
M  V30 1585 H 148.002 2.48563 -2.97145 0
M  V30 1586 H 148.416 1.59308 -4.99721 0
M  V30 1587 H 149.89 3.2235 -4.48101 0
M  V30 1588 H 150.367 3.38958 -2.79292 0
M  V30 1589 H 150.973 2.0151 -3.74532 0
M  V30 1590 N 149.288 1.51039 0.449983 0
M  V30 1591 C 150.518 1.66627 1.22143 0
M  V30 1592 C 150.926 0.357776 1.85786 0
M  V30 1593 O 150.269 -0.672424 1.70951 0
M  V30 1594 C 150.331 2.71562 2.35573 0
M  V30 1595 C 149.995 4.14526 1.92399 0
M  V30 1596 C 150.992 4.99717 1.43453 0
M  V30 1597 C 148.677 4.60559 2.00475 0
M  V30 1598 C 150.671 6.28998 1.03155 0
M  V30 1599 C 148.358 5.8984 1.59788 0
M  V30 1600 C 149.356 6.73886 1.11208 0
M  V30 1601 O 149.044 8.0075 0.710935 0
M  V30 1602 H 148.776 0.562635 0.374724 0
M  V30 1603 H 151.33 1.98146 0.541036 0
M  V30 1604 H 149.56 2.3533 3.06849 0
M  V30 1605 H 151.249 2.76156 2.97478 0
M  V30 1606 H 152.015 4.65361 1.36618 0
M  V30 1607 H 147.894 3.95273 2.37235 0
M  V30 1608 H 151.438 6.9455 0.651663 0
M  V30 1609 H 147.335 6.23713 1.66289 0
M  V30 1610 H 148.103 8.142 0.837913 0
M  V30 1611 N 150.766 -0.704594 1.40972 0
M  V30 1612 C 151.991 -1.49858 1.43378 0
M  V30 1613 C 152.416 -1.88061 0.038184 0
M  V30 1614 O 151.774 -1.5402 -0.956425 0
M  V30 1615 C 151.822 -2.74333 2.34038 0
M  V30 1616 O 150.926 -3.7147 1.7912 0
M  V30 1617 H 150.267 -0.45139 0.486974 0
M  V30 1618 H 152.797 -0.866832 1.8533 0
M  V30 1619 H 152.807 -3.22741 2.49604 0
M  V30 1620 H 151.482 -2.45863 3.35446 0
M  V30 1621 H 150.059 -3.30363 1.72958 0
M  V30 1622 N 152.244 -1.26651 -0.937939 0
M  V30 1623 C 153.49 -1.12553 -1.687 0
M  V30 1624 C 153.823 0.329782 -1.91379 0
M  V30 1625 O 153.098 1.24202 -1.4968 0
M  V30 1626 C 153.381 -1.89862 -3.05981 0
M  V30 1627 C 153.234 -3.43318 -2.90607 0
M  V30 1628 C 154.553 -1.69499 -4.0615 0
M  V30 1629 H 151.672 -0.410257 -0.612257 0
M  V30 1630 H 154.314 -1.55685 -1.08913 0
M  V30 1631 H 152.464 -1.53204 -3.57017 0
M  V30 1632 H 154.136 -3.89747 -2.46769 0
M  V30 1633 H 152.379 -3.70179 -2.26164 0
M  V30 1634 H 153.05 -3.92642 -3.8799 0
M  V30 1635 H 155.526 -2.01442 -3.64088 0
M  V30 1636 H 154.402 -2.26002 -5.00214 0
M  V30 1637 H 154.663 -0.640365 -4.37438 0
M  V30 1638 N 153.722 1.14298 -1.08507 0
M  V30 1639 C 154.999 1.81544 -0.728088 0
M  V30 1640 C 155.379 1.95838 0.78808 0
M  V30 1641 O 154.727 1.51904 1.70697 0
M  V30 1642 C 154.937 3.17169 -1.45619 0
M  V30 1643 C 156.285 3.9265 -1.61591 0
M  V30 1644 O 157.309 3.26762 -1.41793 0
M  V30 1645 O 156.168 5.10807 -1.94263 0
M  V30 1646 H 153.262 0.78491 -0.260471 0
M  V30 1647 H 155.808 1.21307 -1.18671 0
M  V30 1648 H 154.58 3.01934 -2.489 0
M  V30 1649 H 154.203 3.851 -0.989124 0
M  V30 1650 N 155.201 0.870884 1.31352 0
M  V30 1651 C 156.148 0.325425 2.28494 0
M  V30 1652 C 157.118 -0.576615 1.5577 0
M  V30 1653 O 158.303 -0.508059 1.83911 0
M  V30 1654 C 155.443 -0.466283 3.41935 0
M  V30 1655 C 154.556 0.463378 4.29508 0
M  V30 1656 C 153.691 -0.342544 5.30094 0
M  V30 1657 C 152.73 0.583486 6.09313 0
M  V30 1658 N 151.867 -0.186244 7.01853 0
M  V30 1659 H 156.707 1.15901 2.74538 0
M  V30 1660 H 154.244 0.58294 1.35056 0
M  V30 1661 H 156.202 -0.941085 4.06447 0
M  V30 1662 H 154.832 -1.26456 2.97 0
M  V30 1663 H 153.884 1.05663 3.65431 0
M  V30 1664 H 155.196 1.1734 4.84802 0
M  V30 1665 H 154.35 -0.879816 6.00287 0
M  V30 1666 H 153.089 -1.08585 4.75458 0
M  V30 1667 H 152.094 1.13251 5.3801 0
M  V30 1668 H 153.319 1.32566 6.66035 0
M  V30 1669 H 151.265 -0.912348 6.49625 0
M  V30 1670 H 151.182 0.464422 7.54572 0
M  V30 1671 H 152.45 -0.704716 7.76308 0
M  V30 1672 N 156.679 -1.44442 0.630414 0
M  V30 1673 C 157.629 -2.27794 -0.0968103 0
M  V30 1674 C 158.613 -1.38624 -0.816834 0
M  V30 1675 O 159.805 -1.62438 -0.70306 0
M  V30 1676 C 156.934 -3.25929 -1.07819 0
M  V30 1677 C 156.02 -4.22588 -0.357826 0
M  V30 1678 N 156.411 -5.0207 0.613169 0
M  V30 1679 C 154.709 -4.41914 -0.602365 0
M  V30 1680 C 155.41 -5.72351 1.03871 0
M  V30 1681 N 154.386 -5.42287 0.377642 0
M  V30 1682 H 158.188 -2.86653 0.648621 0
M  V30 1683 H 155.702 -1.55871 0.455862 0
M  V30 1684 H 157.699 -3.84399 -1.61378 0
M  V30 1685 H 156.359 -2.68631 -1.82393 0
M  V30 1686 H 157.37 -5.08331 0.990947 0
M  V30 1687 H 154.047 -3.95714 -1.33103 0
M  V30 1688 H 155.437 -6.4619 1.84086 0
M  V30 1689 N 158.157 -0.370918 -1.53173 0
M  V30 1690 C 159.403 0.217423 -2.01631 0
M  V30 1691 C 159.736 1.47983 -1.25756 0
M  V30 1692 O 159.011 1.91274 -0.352764 0
M  V30 1693 C 159.294 0.503982 -3.56556 0
M  V30 1694 C 159.147 -0.77243 -4.43118 0
M  V30 1695 C 160.466 1.30234 -4.20389 0
M  V30 1696 H 157.585 0.0775486 -0.732909 0
M  V30 1697 H 160.227 -0.496863 -1.83388 0
M  V30 1698 H 158.377 1.11248 -3.72231 0
M  V30 1699 H 160.049 -1.4098 -4.39229 0
M  V30 1700 H 158.292 -1.39167 -4.10871 0
M  V30 1701 H 158.963 -0.526815 -5.4948 0
M  V30 1702 H 161.439 0.787546 -4.08579 0
M  V30 1703 H 160.315 1.47158 -5.28806 0
M  V30 1704 H 160.576 2.31237 -3.76805 0
M  V30 1705 N 159.635 1.57281 -0.100228 0
M  V30 1706 C 161.046 1.81725 0.428107 0
M  V30 1707 C 161.397 1.01619 1.67833 0
M  V30 1708 O 160.522 0.247098 2.14985 0
M  V30 1709 C 161.117 3.29617 0.78347 0
M  V30 1710 C 159.676 3.54808 1.25653 0
M  V30 1711 C 158.823 2.76118 0.255752 0
M  V30 1712 H 161.774 1.55324 -0.325608 0
M  V30 1713 H 161.795 3.4322 1.64256 0
M  V30 1714 H 161.307 3.87893 -0.12665 0
M  V30 1715 H 159.408 3.01868 2.18418 0
M  V30 1716 H 159.521 4.63443 1.21482 0
M  V30 1717 H 157.885 2.43745 0.738956 0
M  V30 1718 H 158.668 3.37145 -0.647136 0
M  V30 1719 N 161.113 -0.173488 1.56642 0
M  V30 1720 C 162.39 -0.917617 1.7274 0
M  V30 1721 C 162.77 -2.00484 0.661027 0
M  V30 1722 O 162.118 -2.26184 -0.32453 0
M  V30 1723 C 162.328 -1.48433 3.15862 0
M  V30 1724 C 163.676 -1.95809 3.76754 0
M  V30 1725 O 164.7 -1.58231 3.19126 0
M  V30 1726 O 163.559 -2.65024 4.77938 0
M  V30 1727 H 160.653 -0.431772 0.705338 0
M  V30 1728 H 163.199 -0.161487 1.6893 0
M  V30 1729 H 161.971 -0.701715 3.84957 0
M  V30 1730 H 161.594 -2.30471 3.23989 0
M  V30 1731 N 162.591 -1.51276 -0.441967 0
M  V30 1732 C 163.816 -1.67799 -1.21895 0
M  V30 1733 C 164.241 -0.372864 -1.84367 0
M  V30 1734 O 163.599 0.666501 -1.68604 0
M  V30 1735 C 163.647 -2.79199 -2.28211 0
M  V30 1736 O 162.751 -2.42479 -3.33583 0
M  V30 1737 H 162.092 -0.559649 -0.357336 0
M  V30 1738 H 164.622 -1.97815 -0.522522 0
M  V30 1739 H 164.632 -3.03146 -2.73069 0
M  V30 1740 H 163.307 -3.73906 -1.82118 0
M  V30 1741 H 161.884 -2.29087 -2.94234 0
M  V30 1742 N 164.069 0.697108 -1.41344 0
M  V30 1743 C 165.317 1.45426 -1.40341 0
M  V30 1744 C 165.638 1.94996 -0.0128787 0
M  V30 1745 O 164.908 1.71599 0.945027 0
M  V30 1746 H 163.488 0.539594 -0.516573 0
M  V30 1747 H 166.15 0.825201 -1.76569 0
M  V30 1748 H 165.246 2.31817 -2.08967 0
M  V30 1749 N 165.547 1.27147 0.931209 0
M  V30 1750 C 166.51 1.09615 2.01289 0
M  V30 1751 C 167.51 0.0412581 1.60747 0
M  V30 1752 O 168.7 0.285545 1.71844 0
M  V30 1753 C 165.832 0.669447 3.34262 0
M  V30 1754 H 167.025 2.05662 2.18273 0
M  V30 1755 H 164.578 1.09885 1.11153 0
M  V30 1756 H 165.313 -0.292572 3.22978 0
M  V30 1757 H 165.098 1.43127 3.65044 0
M  V30 1758 H 166.588 0.568921 4.13706 0
M  V30 1759 N 167.025 -1.13721 1.09112 0
M  V30 1760 C 168.253 -1.88773 0.846899 0
M  V30 1761 C 168.668 -1.7896 -0.601572 0
M  V30 1762 O 168.025 -1.15394 -1.41388 0
M  V30 1763 C 168.076 -3.3849 1.26913 0
M  V30 1764 O 167.797 -3.48043 2.66079 0
M  V30 1765 C 169.298 -4.30518 1.05682 0
M  V30 1766 H 166.518 -0.59772 0.304914 0
M  V30 1767 H 169.062 -1.43977 1.45227 0
M  V30 1768 H 167.217 -3.80881 0.707723 0
M  V30 1769 H 167.631 -4.4109 2.83795 0
M  V30 1770 H 169.105 -5.3391 1.40156 0
M  V30 1771 H 169.582 -4.392 -0.00563416 0
M  V30 1772 H 170.188 -3.93893 1.60402 0
M  V30 1773 N 168.503 -0.877838 -1.30888 0
M  V30 1774 C 169.466 -0.344265 -2.266 0
M  V30 1775 C 170.466 0.50922 -1.52524 0
M  V30 1776 O 171.656 0.317398 -1.71284 0
M  V30 1777 C 168.788 0.510198 -3.37061 0
M  V30 1778 H 169.981 -1.1893 -2.7531 0
M  V30 1779 H 167.534 -0.654088 -1.41956 0
M  V30 1780 H 168.269 1.37612 -2.93655 0
M  V30 1781 H 168.054 -0.101047 -3.9197 0
M  V30 1782 H 169.544 0.875537 -4.08319 0
M  V30 1783 N 169.982 1.44106 -0.638065 0
M  V30 1784 C 171.21 2.06336 -0.152615 0
M  V30 1785 C 171.625 1.47731 1.17563 0
M  V30 1786 O 170.982 0.602806 1.72257 0
M  V30 1787 C 171.033 3.61479 -0.0391491 0
M  V30 1788 O 170.754 4.17903 -1.31487 0
M  V30 1789 C 172.255 4.40757 0.474176 0
M  V30 1790 H 169.475 0.665862 -0.0828776 0
M  V30 1791 H 172.019 1.84862 -0.87443 0
M  V30 1792 H 170.174 3.82191 0.633142 0
M  V30 1793 H 170.588 5.11416 -1.16421 0
M  V30 1794 H 172.062 5.49707 0.502562 0
M  V30 1795 H 172.539 4.12697 1.50258 0
M  V30 1796 H 173.145 4.24979 -0.165102 0
M  V30 1797 N 171.46 0.379036 1.52974 0
M  V30 1798 C 172.423 -0.448865 2.24762 0
M  V30 1799 C 173.423 -0.998689 1.26027 0
M  V30 1800 O 174.613 -0.882313 1.50203 0
M  V30 1801 C 171.745 -1.62872 2.99476 0
M  V30 1802 H 172.938 0.179491 2.99362 0
M  V30 1803 H 170.491 0.13096 1.5575 0
M  V30 1804 H 171.226 -2.29479 2.29151 0
M  V30 1805 H 171.011 -1.24128 3.71934 0
M  V30 1806 H 172.501 -2.2151 3.5401 0
M  V30 1807 N 172.938 -1.57226 0.108567 0
M  V30 1808 C 174.168 -1.9889 -0.559142 0
M  V30 1809 C 174.576 -0.986889 -1.61422 0
M  V30 1810 O 173.919 0.0298705 -1.83676 0
M  V30 1811 C 173.981 -3.36952 -1.25315 0
M  V30 1812 C 173.645 -4.55679 -0.347248 0
M  V30 1813 C 174.642 -5.18281 0.409996 0
M  V30 1814 C 172.327 -5.0162 -0.261367 0
M  V30 1815 C 174.321 -6.25203 1.24096 0
M  V30 1816 C 172.008 -6.08405 0.573238 0
M  V30 1817 C 173.006 -6.70063 1.32304 0
M  V30 1818 O 172.694 -7.74788 2.14381 0
M  V30 1819 H 172.426 -0.658343 -0.153492 0
M  V30 1820 H 174.98 -2.04532 0.188584 0
M  V30 1821 H 173.21 -3.28032 -2.04773 0
M  V30 1822 H 174.899 -3.62974 -1.81673 0
M  V30 1823 H 175.665 -4.8371 0.353457 0
M  V30 1824 H 171.544 -4.53381 -0.834656 0
M  V30 1825 H 175.088 -6.73259 1.82669 0
M  V30 1826 H 170.985 -6.42406 0.631208 0
M  V30 1827 H 171.753 -7.91837 2.07209 0
M  V30 1828 N 174.416 0.165178 -1.56732 0
M  V30 1829 C 175.346 1.20651 -1.99914 0
M  V30 1830 C 176.327 1.45827 -0.875705 0
M  V30 1831 O 177.512 1.57057 -1.14223 0
M  V30 1832 C 174.642 2.54401 -2.36427 0
M  V30 1833 C 173.596 2.43782 -3.51787 0
M  V30 1834 C 172.922 3.82078 -3.7406 0
M  V30 1835 C 174.222 1.93732 -4.85041 0
M  V30 1836 H 175.916 0.847534 -2.87154 0
M  V30 1837 H 173.462 0.40625 -1.38151 0
M  V30 1838 H 175.415 3.27458 -2.65234 0
M  V30 1839 H 174.139 2.92098 -1.46103 0
M  V30 1840 H 172.798 1.73178 -3.23117 0
M  V30 1841 H 172.446 4.17179 -2.81017 0
M  V30 1842 H 172.146 3.7584 -4.51684 0
M  V30 1843 H 173.67 4.56712 -4.05274 0
M  V30 1844 H 175.084 2.56569 -5.12684 0
M  V30 1845 H 173.481 1.98428 -5.66345 0
M  V30 1846 H 174.551 0.891962 -4.76626 0
M  V30 1847 N 175.894 1.51508 0.433938 0
M  V30 1848 C 177.134 1.66006 1.19253 0
M  V30 1849 C 177.498 0.369868 1.88404 0
M  V30 1850 O 178.699 0.39066 2.65946 0
M  V30 1851 C 176.97 2.83229 2.17981 0
M  V30 1852 S 178.529 3.18075 3.02281 0
M  V30 1853 H 175.347 0.584821 0.404358 0
M  V30 1854 H 177.949 1.89425 0.48357 0
M  V30 1855 H 176.653 3.75407 1.65824 0
M  V30 1856 H 176.184 2.6201 2.93453 0
M  V30 1857 H 178.199 2.64772 4.19655 0
M  V30 1858 N 177.372 -0.689602 1.41712 0
M  V30 1859 C 178.62 -1.4468 1.4111 0
M  V30 1860 C 178.941 -1.94986 0.0232196 0
M  V30 1861 O 178.211 -1.72097 -0.935913 0
M  V30 1862 H 176.791 -0.536847 0.519427 0
M  V30 1863 H 179.453 -0.815825 1.77004 0
M  V30 1864 H 178.549 -2.30706 2.10193 0
M  V30 1865 N 178.85 -1.27639 -0.924453 0
M  V30 1866 C 180.096 -1.14336 -1.67497 0
M  V30 1867 C 180.429 0.309465 -1.91718 0
M  V30 1868 O 179.704 1.22608 -1.50989 0
M  V30 1869 C 179.987 -1.93096 -3.0395 0
M  V30 1870 C 179.84 -3.46381 -2.8695 0
M  V30 1871 C 181.159 -1.73798 -4.0433 0
M  V30 1872 H 178.278 -0.416728 -0.607871 0
M  V30 1873 H 180.92 -1.56832 -1.07256 0
M  V30 1874 H 179.07 -1.56982 -3.55372 0
M  V30 1875 H 180.742 -3.92343 -2.42621 0
M  V30 1876 H 178.985 -3.72557 -2.22225 0
M  V30 1877 H 179.656 -3.96735 -3.83804 0
M  V30 1878 H 182.132 -2.05293 -3.61931 0
M  V30 1879 H 181.008 -2.31294 -4.97789 0
M  V30 1880 H 181.269 -0.686725 -4.36734 0
M  V30 1881 N 180.328 1.1314 -1.09713 0
M  V30 1882 C 181.275 2.18642 -0.739196 0
M  V30 1883 C 182.245 1.63706 0.280978 0
M  V30 1884 O 183.43 1.90111 0.161946 0
M  V30 1885 C 180.57 3.44685 -0.169102 0
M  V30 1886 C 179.683 4.13711 -1.24367 0
M  V30 1887 C 178.818 5.27379 -0.636019 0
M  V30 1888 C 177.857 5.88259 -1.69169 0
M  V30 1889 N 176.994 6.93352 -1.10485 0
M  V30 1890 H 181.834 2.48607 -1.64312 0
M  V30 1891 H 179.371 1.22066 -0.820875 0
M  V30 1892 H 181.329 4.16815 0.179256 0
M  V30 1893 H 179.959 3.15161 0.698079 0
M  V30 1894 H 179.011 3.39835 -1.70927 0
M  V30 1895 H 180.323 4.55037 -2.04311 0
M  V30 1896 H 179.477 6.06238 -0.236677 0
M  V30 1897 H 178.216 4.8731 0.194928 0
M  V30 1898 H 177.221 5.08092 -2.10055 0
M  V30 1899 H 178.446 6.30399 -2.52536 0
M  V30 1900 H 176.392 6.55335 -0.295234 0
M  V30 1901 H 176.309 7.33236 -1.84121 0
M  V30 1902 H 177.577 7.76057 -0.73181 0
M  V30 1903 N 181.806 0.884767 1.30421 0
M  V30 1904 C 183.054 0.502112 1.95763 0
M  V30 1905 C 183.375 -0.951815 1.70192 0
M  V30 1906 O 182.645 -1.6692 1.0254 0
M  V30 1907 H 181.225 0.182694 0.724315 0
M  V30 1908 H 183.887 1.1278 1.58955 0
M  V30 1909 H 182.983 0.672188 3.04775 0
M  V30 1910 N 183.284 -1.43765 0.645699 0
M  V30 1911 C 184.232 -2.32516 -0.0624849 0
M  V30 1912 C 185.226 -1.48183 -0.820855 0
M  V30 1913 O 186.432 -1.64439 -0.732106 0
M  V30 1914 H 182.807 -0.750989 -0.0389864 0
M  V30 1915 H 184.778 -2.89979 0.703892 0
M  V30 1916 C 183.527 -3.32389 -1.02044 0
M  V30 1917 H 182.85 -3.97301 -0.446312 0
M  V30 1918 H 184.29 -3.97138 -1.48517 0
M  V30 1919 C 182.749 -2.62416 -2.11281 0
M  V30 1920 O 183.279 -2.434 -3.19561 0
M  V30 1921 N 181.485 -2.21913 -1.87624 0
M  V30 1922 H 181.032 -2.37578 -0.995703 0
M  V30 1923 H 180.99 -1.75424 -2.6091 0
M  V30 1924 N 184.763 -0.387143 -1.52771 0
M  V30 1925 C 186.01 0.195735 -2.01552 0
M  V30 1926 C 186.338 1.46995 -1.27369 0
M  V30 1927 O 185.593 1.92325 -0.361879 0
M  V30 1928 C 185.892 0.512209 -3.53711 0
M  V30 1929 C 185.558 -0.670202 -4.45891 0
M  V30 1930 C 184.22 -0.994586 -4.70809 0
M  V30 1931 C 186.572 -1.46134 -5.00294 0
M  V30 1932 C 183.9 -2.11169 -5.4738 0
M  V30 1933 C 186.252 -2.56903 -5.78086 0
M  V30 1934 C 184.916 -2.89852 -6.01284 0
M  V30 1935 H 184.186 0.0716246 -0.73753 0
M  V30 1936 H 186.833 -0.524046 -1.8419 0
M  V30 1937 H 185.138 1.31329 -3.69134 0
M  V30 1938 H 186.835 0.975804 -3.88946 0
M  V30 1939 H 183.425 -0.407366 -4.2666 0
M  V30 1940 H 187.609 -1.22397 -4.80971 0
M  V30 1941 H 182.865 -2.3707 -5.63567 0
M  V30 1942 H 187.039 -3.18608 -6.19243 0
M  V30 1943 H 184.666 -3.76533 -6.60399 0
M  V30 1944 N 186.241 1.57166 -0.116904 0
M  V30 1945 C 187.173 2.12271 0.864507 0
M  V30 1946 C 188.186 1.06494 1.23138 0
M  V30 1947 O 189.375 1.33873 1.18069 0
M  V30 1948 C 186.475 2.60564 2.16702 0
M  V30 1949 C 185.648 3.90416 1.97216 0
M  V30 1950 C 184.707 4.24329 3.11178 0
M  V30 1951 O 183.733 4.93182 2.84184 0
M  V30 1952 N 184.935 3.8148 4.37554 0
M  V30 1953 H 187.7 2.97102 0.393726 0
M  V30 1954 H 185.261 1.61759 0.0675805 0
M  V30 1955 H 187.253 2.80282 2.91932 0
M  V30 1956 H 185.823 1.80623 2.55135 0
M  V30 1957 H 185.043 3.79627 1.06192 0
M  V30 1958 H 186.331 4.75327 1.81499 0
M  V30 1959 H 185.729 3.25943 4.62361 0
M  V30 1960 H 184.286 4.06311 5.09661 0
M  V30 1961 N 187.719 -0.156864 1.56817 0
M  V30 1962 C 188.947 -0.886316 1.86955 0
M  V30 1963 C 189.362 -1.75185 0.703975 0
M  V30 1964 O 188.719 -1.79555 -0.326552 0
M  V30 1965 C 188.77 -1.75117 3.16253 0
M  V30 1966 O 188.491 -0.920537 4.2832 0
M  V30 1967 C 189.992 -2.58905 3.59837 0
M  V30 1968 H 187.212 -0.25678 0.619923 0
M  V30 1969 H 189.756 -0.152615 2.0393 0
M  V30 1970 H 187.911 -2.43805 3.01062 0
M  V30 1971 H 188.325 -1.51337 5.02192 0
M  V30 1972 H 189.799 -3.1518 4.53172 0
M  V30 1973 H 190.276 -3.34472 2.84649 0
M  V30 1974 H 190.882 -1.95526 3.7769 0
M  V30 1975 N 189.197 -1.51736 -0.425897 0
M  V30 1976 C 190.446 -1.64201 -1.17136 0
M  V30 1977 C 190.759 -0.369705 -1.92074 0
M  V30 1978 O 191.965 -0.373898 -2.68913 0
M  V30 1979 C 190.421 -2.90035 -2.13091 0
M  V30 1980 C 190.029 -4.24312 -1.43747 0
M  V30 1981 C 191.773 -3.1186 -2.87999 0
M  V30 1982 C 189.68 -5.41285 -2.38253 0
M  V30 1983 H 188.61 -0.611624 -0.440944 0
M  V30 1984 H 191.261 -1.78212 -0.437328 0
M  V30 1985 H 189.643 -2.69684 -2.89977 0
M  V30 1986 H 190.817 -4.55086 -0.723408 0
M  V30 1987 H 189.132 -4.08456 -0.809465 0
M  V30 1988 H 191.729 -3.96427 -3.58817 0
M  V30 1989 H 192.072 -2.25403 -3.49999 0
M  V30 1990 H 192.605 -3.32605 -2.18217 0
M  V30 1991 H 189.344 -6.30037 -1.80925 0
M  V30 1992 H 188.864 -5.14872 -3.0768 0
M  V30 1993 H 190.543 -5.73694 -2.99139 0
M  V30 1994 N 190.675 0.682077 -1.42076 0
M  V30 1995 C 191.923 1.4393 -1.41876 0
M  V30 1996 C 192.244 1.94971 -0.0335599 0
M  V30 1997 O 191.514 1.72591 0.926773 0
M  V30 1998 H 190.094 0.534085 -0.522267 0
M  V30 1999 H 192.756 0.806427 -1.77434 0
M  V30 2000 H 191.852 2.29588 -2.11414 0
M  V30 2001 N 192.153 1.28127 0.917671 0
M  V30 2002 C 193.083 1.14248 2.03641 0
M  V30 2003 C 194.064 0.0412748 1.7005 0
M  V30 2004 O 195.249 0.217566 1.92977 0
M  V30 2005 C 192.379 0.799431 3.37974 0
M  V30 2006 C 191.333 1.85497 3.85713 0
M  V30 2007 C 190.659 1.36565 5.16966 0
M  V30 2008 C 191.959 3.26085 4.08002 0
M  V30 2009 H 193.653 2.07835 2.15511 0
M  V30 2010 H 191.199 1.00064 1.03553 0
M  V30 2011 H 193.152 0.689114 4.15727 0
M  V30 2012 H 191.876 -0.172145 3.26146 0
M  V30 2013 H 190.535 1.95437 3.10161 0
M  V30 2014 H 190.183 0.383253 5.01538 0
M  V30 2015 H 189.883 2.07143 5.49878 0
M  V30 2016 H 191.407 1.26848 5.97279 0
M  V30 2017 H 192.821 3.19089 4.76293 0
M  V30 2018 H 191.218 3.94462 4.52238 0
M  V30 2019 H 192.288 3.70394 3.12948 0
M  V30 2020 N 193.631 -1.12557 1.10312 0
M  V30 2021 C 194.856 -1.88405 0.867085 0
M  V30 2022 C 195.281 -1.79038 -0.576817 0
M  V30 2023 O 194.639 -1.14439 -1.40618 0
M  V30 2024 C 194.687 -3.3563 1.31851 0
M  V30 2025 O 193.791 -4.09565 0.482734 0
M  V30 2026 H 193.132 -0.585455 0.313271 0
M  V30 2027 H 195.662 -1.42352 1.4696 0
M  V30 2028 H 195.672 -3.86469 1.3079 0
M  V30 2029 H 194.347 -3.41765 2.37001 0
M  V30 2030 H 192.924 -3.68695 0.558448 0
M  V30 2031 N 195.109 -0.891671 -1.2995 0
M  V30 2032 C 196.072 -0.36828 -2.26222 0
M  V30 2033 C 197.072 0.493014 -1.53056 0
M  V30 2034 O 198.262 0.299213 -1.71611 0
M  V30 2035 C 195.394 0.47442 -3.37583 0
M  V30 2036 H 196.587 -1.21844 -2.74033 0
M  V30 2037 H 194.14 -0.669107 -1.41254 0
M  V30 2038 H 194.875 1.34489 -2.95099 0
M  V30 2039 H 194.66 -0.142615 -3.91841 0
M  V30 2040 H 196.15 0.83218 -4.09224 0
M  V30 2041 N 196.587 1.43421 -0.653314 0
M  V30 2042 C 197.55 2.29182 0.0287951 0
M  V30 2043 C 198.55 1.42213 0.750465 0
M  V30 2044 O 199.74 1.63843 0.591701 0
M  V30 2045 C 196.872 3.24278 1.05151 0
M  V30 2046 H 198.065 2.90985 -0.725786 0
M  V30 2047 H 195.618 1.50702 -0.414545 0
M  V30 2048 H 196.353 2.6737 1.83532 0
M  V30 2049 H 196.138 3.88396 0.537687 0
M  V30 2050 H 197.628 3.88647 1.52786 0
M  V30 2051 N 198.065 0.39524 1.52563 0
M  V30 2052 C 199.028 -0.425001 2.25225 0
M  V30 2053 C 200.028 -0.985266 1.27079 0
M  V30 2054 O 201.218 -0.866332 1.5113 0
M  V30 2055 C 198.35 -1.59686 3.01186 0
M  V30 2056 H 199.543 0.211233 2.99155 0
M  V30 2057 H 197.096 0.147472 1.55603 0
M  V30 2058 H 197.831 -2.27035 2.31572 0
M  V30 2059 H 197.616 -1.20176 3.73229 0
M  V30 2060 H 199.106 -2.17743 3.5634 0
M  V30 2061 N 199.544 -1.57102 0.125237 0
M  V30 2062 C 200.96 -1.57915 -0.231322 0
M  V30 2063 C 201.16 -1.13833 -1.66266 0
M  V30 2064 O 200.216 -0.828581 -2.38518 0
M  V30 2065 C 201.529 -3.00699 0.00766489 0
M  V30 2066 C 203.077 -3.12947 -0.0577483 0
M  V30 2067 C 203.552 -4.57742 0.153626 0
M  V30 2068 N 205.043 -4.63092 0.0998073 0
M  V30 2069 C 205.778 -5.72905 0.238174 0
M  V30 2070 N 205.274 -6.91445 0.433057 0
M  V30 2071 N 207.067 -5.6182 0.177308 0
M  V30 2072 H 199.218 -1.84055 1.06007 0
M  V30 2073 H 201.481 -0.850905 0.417929 0
M  V30 2074 H 201.187 -3.3726 0.997431 0
M  V30 2075 H 201.061 -3.70236 -0.721452 0
M  V30 2076 H 203.448 -2.7624 -1.03804 0
M  V30 2077 H 203.529 -2.4594 0.70335 0
M  V30 2078 H 203.173 -4.95149 1.13092 0
M  V30 2079 H 203.103 -5.22848 -0.627534 0
M  V30 2080 H 205.594 -3.77871 -0.047051 0
M  V30 2081 H 205.907 -7.70985 0.529332 0
M  V30 2082 H 204.252 -6.93415 0.469109 0
M  V30 2083 H 207.443 -4.68093 0.0259748 0
M  V30 2084 H 207.616 -6.47357 0.288582 0
M  V30 2085 N 201.022 0.148545 -1.56898 0
M  V30 2086 C 202.269 0.861418 -1.83264 0
M  V30 2087 C 202.597 1.81239 -0.705883 0
M  V30 2088 O 201.852 1.93305 0.305212 0
M  V30 2089 C 202.151 1.67064 -3.1595 0
M  V30 2090 C 201.817 0.866591 -4.42494 0
M  V30 2091 C 200.479 0.644762 -4.76861 0
M  V30 2092 C 202.831 0.30418 -5.20312 0
M  V30 2093 C 200.159 -0.15021 -5.86508 0
M  V30 2094 C 202.511 -0.477824 -6.30793 0
M  V30 2095 C 201.175 -0.710244 -6.63711 0
M  V30 2096 H 200.445 0.315215 -0.670612 0
M  V30 2097 H 203.092 0.125142 -1.91091 0
M  V30 2098 H 201.397 2.47698 -3.03567 0
M  V30 2099 H 203.094 2.22566 -3.33565 0
M  V30 2100 H 199.684 1.04955 -4.15551 0
M  V30 2101 H 203.868 0.462844 -4.94137 0
M  V30 2102 H 199.124 -0.339796 -6.10455 0
M  V30 2103 H 203.298 -0.92076 -6.90286 0
M  V30 2104 H 200.925 -1.3281 -7.48509 0
M  V30 2105 N 202.5 1.5196 0.417844 0
M  V30 2106 C 203.448 1.75278 1.52907 0
M  V30 2107 C 204.442 0.619611 1.57662 0
M  V30 2108 O 205.648 0.801457 1.61173 0
M  V30 2109 H 202.023 0.554141 0.508362 0
M  V30 2110 H 203.994 2.68389 1.30422 0
M  V30 2111 C 202.743 1.91262 2.90369 0
M  V30 2112 H 202.066 2.77872 2.8745 0
M  V30 2113 H 203.506 2.11581 3.67436 0
M  V30 2114 C 201.965 0.677431 3.30019 0
M  V30 2115 O 202.495 -0.158799 4.01386 0
M  V30 2116 N 200.701 0.515851 2.85985 0
M  V30 2117 H 200.248 1.19744 2.28077 0
M  V30 2118 H 200.206 -0.309315 3.12875 0
M  V30 2119 N 203.978 -0.674533 1.42435 0
M  V30 2120 C 204.91 -1.80005 1.41883 0
M  V30 2121 C 205.923 -1.59667 0.31787 0
M  V30 2122 O 207.112 -1.68781 0.580973 0
M  V30 2123 C 204.212 -3.17114 1.19549 0
M  V30 2124 C 203.385 -3.64299 2.42084 0
M  V30 2125 C 202.444 -4.80142 2.15291 0
M  V30 2126 O 201.47 -4.90673 2.88493 0
M  V30 2127 N 202.672 -5.68869 1.1562 0
M  V30 2128 H 205.437 -1.80964 2.38898 0
M  V30 2129 H 202.998 -0.857633 1.37318 0
M  V30 2130 H 204.99 -3.92267 0.995417 0
M  V30 2131 H 203.56 -3.11053 0.310569 0
M  V30 2132 H 202.78 -2.79822 2.77657 0
M  V30 2133 H 204.068 -3.92567 3.23679 0
M  V30 2134 H 203.466 -5.63012 0.550765 0
M  V30 2135 H 202.023 -6.43833 1.016 0
M  V30 2136 N 205.456 -1.28612 -0.910864 0
M  V30 2137 C 206.696 -1.1719 -1.67469 0
M  V30 2138 C 207.06 0.274441 -1.90028 0
M  V30 2139 O 208.261 0.511425 -2.6389 0
M  V30 2140 C 206.532 -1.95137 -2.99427 0
M  V30 2141 S 208.091 -2.00122 -3.90508 0
M  V30 2142 H 204.909 -0.41806 -0.575106 0
M  V30 2143 H 207.511 -1.6275 -1.08317 0
M  V30 2144 H 206.215 -2.99381 -2.80712 0
M  V30 2145 H 205.746 -1.50137 -3.63624 0
M  V30 2146 H 207.761 -1.10981 -4.8363 0
M  V30 2147 N 206.934 1.1197 -1.10907 0
M  V30 2148 C 207.882 2.19927 -0.757303 0
M  V30 2149 C 208.876 1.67564 0.248747 0
M  V30 2150 O 210.082 1.79672 0.108605 0
M  V30 2151 H 206.457 0.716925 -0.226987 0
M  V30 2152 H 208.428 2.46847 -1.67658 0
M  V30 2153 C 207.177 3.47061 -0.210671 0
M  V30 2154 H 206.5 3.87703 -0.976049 0
M  V30 2155 H 207.94 4.24 -0.0026584 0
M  V30 2156 C 206.399 3.19864 1.05777 0
M  V30 2157 O 206.929 3.40049 2.13845 0
M  V30 2158 N 205.135 2.73636 0.978349 0
M  V30 2159 H 204.682 2.5741 0.0988246 0
M  V30 2160 H 204.64 2.55815 1.82773 0
M  V30 2161 N 208.412 0.89855 1.29475 0
M  V30 2162 C 209.64 0.539261 1.99749 0
M  V30 2163 C 210.055 -0.875716 1.67262 0
M  V30 2164 O 209.412 -1.57786 0.917049 0
M  V30 2165 C 209.463 0.72061 3.54245 0
M  V30 2166 O 209.184 2.07989 3.8558 0
M  V30 2167 C 210.685 0.366118 4.41786 0
M  V30 2168 H 207.905 0.207047 0.638258 0
M  V30 2169 H 210.449 1.20758 1.65039 0
M  V30 2170 H 208.604 0.0994862 3.87272 0
M  V30 2171 H 209.018 2.10841 4.80257 0
M  V30 2172 H 210.492 0.543848 5.49314 0
M  V30 2173 H 210.969 -0.696763 4.33638 0
M  V30 2174 H 211.575 0.964135 4.14228 0
M  V30 2175 N 209.89 -1.43072 0.660911 0
M  V30 2176 C 211.118 -2.06067 0.185422 0
M  V30 2177 C 211.533 -1.49582 -1.15198 0
M  V30 2178 O 210.89 -0.630134 -1.71276 0
M  V30 2179 C 210.941 -3.61371 0.0966523 0
M  V30 2180 O 210.662 -4.15758 1.38119 0
M  V30 2181 C 212.163 -4.41455 -0.403996 0
M  V30 2182 H 209.383 -0.664459 0.0934604 0
M  V30 2183 H 211.927 -1.83447 0.90373 0
M  V30 2184 H 210.082 -3.8315 -0.572259 0
M  V30 2185 H 210.496 -5.09499 1.24542 0
M  V30 2186 H 211.97 -5.50437 -0.415045 0
M  V30 2187 H 212.447 -4.15036 -1.43674 0
M  V30 2188 H 213.053 -4.24663 0.232691 0
M  V30 2189 N 211.368 -0.403325 -1.52352 0
M  V30 2190 C 212.784 -0.0539281 -1.59509 0
M  V30 2191 C 212.984 1.43307 -1.41652 0
M  V30 2192 O 212.04 2.19924 -1.24056 0
M  V30 2193 C 213.353 -0.543654 -2.95745 0
M  V30 2194 C 214.901 -0.501125 -3.08962 0
M  V30 2195 C 215.376 -0.967267 -4.47669 0
M  V30 2196 N 216.867 -0.923849 -4.53893 0
M  V30 2197 C 217.602 -1.25578 -5.5948 0
M  V30 2198 N 217.098 -1.65889 -6.72646 0
M  V30 2199 N 218.891 -1.17613 -5.49658 0
M  V30 2200 H 211.042 -1.37123 -1.62206 0
M  V30 2201 H 213.305 -0.56294 -0.76276 0
M  V30 2202 H 213.011 -1.58275 -3.14073 0
M  V30 2203 H 212.885 0.0498042 -3.77167 0
M  V30 2204 H 215.272 0.528909 -2.90321 0
M  V30 2205 H 215.353 -1.13056 -2.2946 0
M  V30 2206 H 214.997 -1.9956 -4.67053 0
M  V30 2207 H 214.927 -0.314698 -5.25659 0
M  V30 2208 H 217.418 -0.627403 -3.72655 0
M  V30 2209 H 217.731 -1.89543 -7.49195 0
M  V30 2210 H 216.076 -1.69787 -6.73942 0
M  V30 2211 H 219.267 -0.860115 -4.6013 0
M  V30 2212 H 219.44 -1.43812 -6.3184 0
M  V30 2213 N 212.846 1.57033 -0.133567 0
M  V30 2214 C 214.094 1.953 0.519848 0
M  V30 2215 C 214.415 1.01866 1.66278 0
M  V30 2216 O 213.685 0.0776513 1.95746 0
M  V30 2217 H 212.265 0.721091 0.195032 0
M  V30 2218 H 214.927 1.93809 -0.205921 0
M  V30 2219 H 214.023 2.98695 0.904854 0
M  V30 2220 N 214.325 -0.140222 1.56975 0
M  V30 2221 C 215.273 -1.19207 1.99731 0
M  V30 2222 C 216.267 -1.44089 0.890777 0
M  V30 2223 O 217.473 -1.44301 1.07597 0
M  V30 2224 H 213.848 -0.40142 0.635898 0
M  V30 2225 H 215.819 -0.804813 2.87342 0
M  V30 2226 C 214.568 -2.51617 2.39967 0
M  V30 2227 H 213.891 -2.33303 3.24669 0
M  V30 2228 H 215.331 -3.23827 2.73701 0
M  V30 2229 C 213.79 -3.12654 1.25496 0
M  V30 2230 O 214.32 -3.97786 0.559371 0
M  V30 2231 N 212.526 -2.72206 1.01746 0
M  V30 2232 H 212.073 -2.03074 1.58489 0
M  V30 2233 H 212.031 -3.13377 0.253461 0
M  V30 2234 N 215.803 -1.52179 -0.40978 0
M  V30 2235 C 216.713 -1.78364 -1.52392 0
M  V30 2236 C 217.729 -0.669183 -1.60617 0
M  V30 2237 O 218.905 -0.954518 -1.77344 0
M  V30 2238 C 215.97 -1.92822 -2.88133 0
M  V30 2239 C 215.031 -3.16725 -2.898 0
M  V30 2240 C 214.264 -3.30483 -4.19067 0
M  V30 2241 O 214.487 -2.49522 -5.12928 0
M  V30 2242 O 213.421 -4.2363 -4.27576 0
M  V30 2243 H 217.247 -2.72931 -1.33201 0
M  V30 2244 H 214.832 -1.37016 -0.59557 0
M  V30 2245 H 216.714 -2.04157 -3.68643 0
M  V30 2246 H 215.389 -1.01444 -3.07393 0
M  V30 2247 H 214.296 -3.10848 -2.08146 0
M  V30 2248 H 215.629 -4.07881 -2.75489 0
M  V30 2249 N 217.281 0.66697 -1.42791 0
M  V30 2250 C 218.527 1.4291 -1.43891 0
M  V30 2251 C 218.86 1.94114 -0.0578972 0
M  V30 2252 O 218.135 1.71414 0.91911 0
M  V30 2253 C 218.418 2.62049 -2.46987 0
M  V30 2254 C 218.271 2.16426 -3.94309 0
M  V30 2255 C 219.59 3.64266 -2.46978 0
M  V30 2256 H 216.709 0.518306 -0.523954 0
M  V30 2257 H 219.351 0.757321 -1.74255 0
M  V30 2258 H 217.501 3.19361 -2.21225 0
M  V30 2259 H 219.173 1.64221 -4.31079 0
M  V30 2260 H 217.416 1.47925 -4.078 0
M  V30 2261 H 218.087 3.02038 -4.62036 0
M  V30 2262 H 220.563 3.16686 -2.69906 0
M  V30 2263 H 219.439 4.45196 -3.21079 0
M  V30 2264 H 219.7 4.15927 -1.49857 0
M  V30 2265 N 218.759 1.29093 0.90403 0
M  V30 2266 C 220.008 1.16187 1.64874 0
M  V30 2267 C 220.321 -0.286742 1.93487 0
M  V30 2268 O 221.527 -0.537062 2.66135 0
M  V30 2269 C 219.983 2.03177 2.97064 0
M  V30 2270 C 219.591 3.52836 2.76062 0
M  V30 2271 C 221.335 1.98984 3.74974 0
M  V30 2272 C 219.242 4.31945 4.03952 0
M  V30 2273 H 218.172 0.431246 0.618501 0
M  V30 2274 H 220.823 1.53699 1.00243 0
M  V30 2275 H 219.205 1.5853 3.62883 0
M  V30 2276 H 220.379 4.05507 2.18863 0
M  V30 2277 H 218.694 3.58656 2.11553 0
M  V30 2278 H 221.291 2.55351 4.69787 0
M  V30 2279 H 221.634 0.968815 4.0487 0
M  V30 2280 H 222.167 2.41652 3.15989 0
M  V30 2281 H 218.906 5.34667 3.79225 0
M  V30 2282 H 218.426 3.84045 4.60727 0
M  V30 2283 H 220.105 4.42379 4.72133 0
M  V30 2284 N 220.237 -1.11381 1.11499 0
M  V30 2285 C 221.462 -1.87475 0.887019 0
M  V30 2286 C 221.887 -1.79639 -0.557796 0
M  V30 2287 O 221.245 -1.15924 -1.39396 0
M  V30 2288 C 221.293 -3.34213 1.35403 0
M  V30 2289 O 220.397 -4.0903 0.526146 0
M  V30 2290 H 219.738 -0.582099 0.319463 0
M  V30 2291 H 222.268 -1.40785 1.48461 0
M  V30 2292 H 222.278 -3.8506 1.34881 0
M  V30 2293 H 220.953 -3.39232 2.40612 0
M  V30 2294 H 219.53 -3.68082 0.597522 0
M  V30 2295 N 221.715 -0.905404 -1.28997 0
M  V30 2296 C 222.961 -0.535039 -1.95615 0
M  V30 2297 C 223.294 0.917404 -1.71165 0
M  V30 2298 O 222.569 1.65123 -1.02785 0
M  V30 2299 C 222.852 -0.834918 -3.50287 0
M  V30 2300 C 222.705 -2.33948 -3.84172 0
M  V30 2301 C 224.024 -0.325318 -4.38896 0
M  V30 2302 H 221.143 -0.195861 -0.710498 0
M  V30 2303 H 223.785 -1.13313 -1.52513 0
M  V30 2304 H 221.935 -0.325904 -3.87131 0
M  V30 2305 H 223.607 -2.91847 -3.57243 0
M  V30 2306 H 221.85 -2.79789 -3.31513 0
M  V30 2307 H 222.521 -2.49987 -4.92149 0
M  V30 2308 H 224.997 -0.761256 -4.09077 0
M  V30 2309 H 223.873 -0.564295 -5.45992 0
M  V30 2310 H 224.134 0.774144 -4.35269 0
M  V30 2311 N 223.193 1.4272 -0.668489 0
M  V30 2312 C 224.126 2.28111 0.0637898 0
M  V30 2313 C 225.104 1.40705 0.814912 0
M  V30 2314 O 226.288 1.70146 0.81134 0
M  V30 2315 C 223.415 3.20429 1.0974 0
M  V30 2316 C 222.461 4.24197 0.442579 0
M  V30 2317 S 223.294 5.29563 -0.795173 0
M  V30 2318 C 224.45 6.25449 0.237516 0
M  V30 2319 H 224.683 2.8987 -0.660521 0
M  V30 2320 H 222.216 1.47456 -0.457821 0
M  V30 2321 H 224.174 3.74158 1.68868 0
M  V30 2322 H 222.835 2.57818 1.79411 0
M  V30 2323 H 222.028 4.88954 1.22227 0
M  V30 2324 H 221.63 3.73925 -0.0749554 0
M  V30 2325 H 223.922 6.68524 1.09915 0
M  V30 2326 H 224.865 7.07104 -0.375421 0
M  V30 2327 H 225.273 5.61511 0.580167 0
M  V30 2328 N 224.671 0.411399 1.52136 0
M  V30 2329 C 225.619 -0.427633 2.28635 0
M  V30 2330 C 226.613 -1.04383 1.33419 0
M  V30 2331 O 227.819 -0.981772 1.50868 0
M  V30 2332 H 224.194 -0.156689 0.735495 0
M  V30 2333 H 226.165 0.238761 2.97443 0
M  V30 2334 C 224.914 -1.53082 3.12188 0
M  V30 2335 H 224.237 -1.06601 3.85326 0
M  V30 2336 H 225.677 -2.09167 3.68816 0
M  V30 2337 C 224.136 -2.49946 2.25895 0
M  V30 2338 O 224.666 -3.53884 1.90076 0
M  V30 2339 N 222.872 -2.2021 1.8962 0
M  V30 2340 H 222.419 -1.35719 2.18948 0
M  V30 2341 H 222.377 -2.85266 1.32176 0
M  V30 2342 N 226.149 -1.5696 0.141893 0
M  V30 2343 C 227.565 -1.58151 -0.21456 0
M  V30 2344 C 227.765 -1.1559 -1.65049 0
M  V30 2345 O 226.821 -0.853832 -2.37626 0
M  V30 2346 C 228.134 -3.00674 0.0395576 0
M  V30 2347 C 229.682 -3.1299 -0.0245529 0
M  V30 2348 C 230.157 -4.57554 0.202167 0
M  V30 2349 N 231.648 -4.62961 0.148919 0
M  V30 2350 C 232.383 -5.7262 0.298924 0
M  V30 2351 N 231.879 -6.90947 0.50637 0
M  V30 2352 N 233.672 -5.61601 0.236886 0
M  V30 2353 H 225.823 -1.8292 1.07953 0
M  V30 2354 H 228.086 -0.846425 0.42693 0
M  V30 2355 H 227.792 -3.36183 1.03315 0
M  V30 2356 H 227.666 -3.70981 -0.682143 0
M  V30 2357 H 230.053 -2.77326 -1.00869 0
M  V30 2358 H 230.134 -2.4518 0.729396 0
M  V30 2359 H 229.778 -4.93922 1.18338 0
M  V30 2360 H 229.708 -5.23484 -0.572044 0
M  V30 2361 H 232.199 -3.77899 -0.00697015 0
M  V30 2362 H 232.512 -7.7038 0.611076 0
M  V30 2363 H 230.857 -6.92878 0.542628 0
M  V30 2364 H 234.048 -4.68039 0.0756209 0
M  V30 2365 H 234.221 -6.47015 0.357227 0
M  V30 2366 N 227.627 0.131896 -1.57047 0
M  V30 2367 C 228.59 1.14638 -1.98471 0
M  V30 2368 C 229.59 1.35029 -0.873148 0
M  V30 2369 O 230.78 1.31764 -1.13946 0
M  V30 2370 C 227.912 2.50358 -2.31373 0
M  V30 2371 H 229.105 0.79064 -2.8929 0
M  V30 2372 H 226.658 0.375761 -1.51716 0
M  V30 2373 H 227.393 2.90876 -1.43393 0
M  V30 2374 H 227.178 2.36915 -3.12432 0
M  V30 2375 H 228.668 3.23395 -2.64207 0
M  V30 2376 N 229.106 1.52395 0.401703 0
M  V30 2377 C 230.053 1.76268 1.48991 0
M  V30 2378 C 231.023 0.605386 1.54675 0
M  V30 2379 O 232.208 0.843742 1.7113 0
M  V30 2380 C 229.348 1.92592 2.86361 0
M  V30 2381 C 228.461 3.20259 2.89928 0
M  V30 2382 C 227.596 3.26972 4.18644 0
M  V30 2383 C 226.635 4.48812 4.16214 0
M  V30 2384 N 225.772 4.52877 5.36514 0
M  V30 2385 H 230.612 2.6914 1.27935 0
M  V30 2386 H 228.149 1.33355 0.620871 0
M  V30 2387 H 230.107 2.0004 3.66115 0
M  V30 2388 H 228.737 1.03093 3.05895 0
M  V30 2389 H 227.789 3.21945 2.02621 0
M  V30 2390 H 229.101 4.10056 2.83999 0
M  V30 2391 H 228.255 3.33533 5.06794 0
M  V30 2392 H 226.994 2.35126 4.27278 0
M  V30 2393 H 225.999 4.4239 3.26453 0
M  V30 2394 H 227.224 5.41961 4.09213 0
M  V30 2395 H 225.17 3.63917 5.45802 0
M  V30 2396 H 225.087 5.36529 5.32609 0
M  V30 2397 H 226.355 4.63676 6.26597 0
M  V30 2398 N 230.584 -0.659388 1.43143 0
M  V30 2399 C 231.531 -1.77249 1.47822 0
M  V30 2400 C 232.501 -1.62818 0.328558 0
M  V30 2401 O 233.686 -1.83151 0.534838 0
M  V30 2402 C 230.826 -3.15371 1.40126 0
M  V30 2403 C 229.939 -3.4098 2.65249 0
M  V30 2404 C 229.074 -4.68915 2.49584 0
M  V30 2405 C 228.113 -4.87608 3.70006 0
M  V30 2406 N 227.25 -6.06796 3.53189 0
M  V30 2407 H 232.09 -1.72584 2.42938 0
M  V30 2408 H 229.627 -0.842297 1.20598 0
M  V30 2409 H 231.585 -3.9521 1.33659 0
M  V30 2410 H 230.215 -3.19121 0.485964 0
M  V30 2411 H 229.267 -2.55282 2.8202 0
M  V30 2412 H 230.579 -3.50681 3.54717 0
M  V30 2413 H 229.733 -5.56871 2.4079 0
M  V30 2414 H 228.472 -4.61524 1.5763 0
M  V30 2415 H 227.477 -3.9809 3.79215 0
M  V30 2416 H 228.702 -4.96834 4.62961 0
M  V30 2417 H 226.648 -6.00549 2.63965 0
M  V30 2418 H 226.565 -6.17428 4.36255 0
M  V30 2419 H 227.833 -6.9739 3.48236 0
M  V30 2420 N 232.062 -1.29571 -0.897171 0
M  V30 2421 C 233.025 -1.14913 -1.98312 0
M  V30 2422 C 234.025 -0.0838629 -1.60581 0
M  V30 2423 O 235.215 -0.331006 -1.71026 0
M  V30 2424 C 232.347 -0.757835 -3.3237 0
M  V30 2425 H 233.54 -2.11377 -2.12743 0
M  V30 2426 H 231.093 -1.12793 -1.08201 0
M  V30 2427 H 231.828 0.206837 -3.2364 0
M  V30 2428 H 231.613 -1.52755 -3.61121 0
M  V30 2429 H 233.103 -0.678408 -4.12053 0
M  V30 2430 N 233.54 1.10788 -1.12088 0
M  V30 2431 C 234.788 1.8231 -0.872205 0
M  V30 2432 C 235.109 1.85419 0.603709 0
M  V30 2433 O 234.379 1.32963 1.43867 0
M  V30 2434 H 232.959 0.675137 -0.319686 0
M  V30 2435 H 235.621 1.34068 -1.41463 0
M  V30 2436 H 234.717 2.85955 -1.25045 0
M  V30 2437 N 235.018 0.912232 1.28515 0
M  V30 2438 C 235.965 0.397954 2.27343 0
M  V30 2439 C 236.935 -0.526766 1.57526 0
M  V30 2440 O 238.12 -0.449292 1.85435 0
M  V30 2441 C 235.26 -0.357263 3.43246 0
M  V30 2442 C 234.373 0.599788 4.27816 0
M  V30 2443 C 233.508 -0.173725 5.30916 0
M  V30 2444 C 232.547 0.777039 6.07148 0
M  V30 2445 N 231.684 0.0371398 7.0209 0
M  V30 2446 H 236.524 1.24577 2.70711 0
M  V30 2447 H 234.061 0.625612 1.33133 0
M  V30 2448 H 236.019 -0.8113 4.09236 0
M  V30 2449 H 234.649 -1.16943 3.00872 0
M  V30 2450 H 233.701 1.17235 3.61884 0
M  V30 2451 H 235.013 1.32704 4.80823 0
M  V30 2452 H 234.167 -0.688394 6.02782 0
M  V30 2453 H 232.906 -0.934041 4.78672 0
M  V30 2454 H 231.911 1.3031 5.34134 0
M  V30 2455 H 233.136 1.53689 6.61481 0
M  V30 2456 H 231.082 -0.705213 6.52198 0
M  V30 2457 H 230.999 0.704249 7.52713 0
M  V30 2458 H 232.267 -0.457383 7.78157 0
M  V30 2459 N 236.496 -1.42363 0.676048 0
M  V30 2460 C 237.721 -2.06377 0.205705 0
M  V30 2461 C 238.146 -1.50463 -1.12883 0
M  V30 2462 O 237.504 -0.623619 -1.70237 0
M  V30 2463 C 237.552 -3.60277 0.152655 0
M  V30 2464 O 236.656 -4.02935 -0.87845 0
M  V30 2465 H 235.997 -0.655588 0.105359 0
M  V30 2466 H 238.527 -1.82475 0.925412 0
M  V30 2467 H 238.537 -4.07993 -0.0230675 0
M  V30 2468 H 237.212 -4.00346 1.12675 0
M  V30 2469 H 235.789 -3.66764 -0.673668 0
M  V30 2470 N 237.974 -0.419461 -1.51915 0
M  V30 2471 C 239.22 0.153166 -2.02221 0
M  V30 2472 C 239.553 1.43907 -1.30401 0
M  V30 2473 O 238.828 1.90055 -0.413438 0
M  V30 2474 C 239.111 0.390291 -3.57979 0
M  V30 2475 C 238.964 -0.913014 -4.40436 0
M  V30 2476 C 240.283 1.16794 -4.2432 0
M  V30 2477 H 237.402 0.0541924 -0.735005 0
M  V30 2478 H 240.044 -0.554955 -1.81715 0
M  V30 2479 H 238.194 0.993491 -3.75582 0
M  V30 2480 H 239.866 -1.54882 -4.34522 0
M  V30 2481 H 238.109 -1.52168 -4.06236 0
M  V30 2482 H 238.78 -0.701361 -5.47526 0
M  V30 2483 H 241.256 0.657161 -4.10878 0
M  V30 2484 H 240.132 1.3026 -5.3322 0
M  V30 2485 H 240.393 2.19132 -3.83971 0
M  V30 2486 N 239.452 1.56882 -0.150215 0
M  V30 2487 C 240.7 1.9584 0.499105 0
M  V30 2488 C 241.021 1.03623 1.65188 0
M  V30 2489 O 240.291 0.0984084 1.95653 0
M  V30 2490 H 238.871 0.723119 0.187373 0
M  V30 2491 H 241.533 1.9358 -0.226466 0
M  V30 2492 H 240.629 2.99638 0.873122 0
M  V30 2493 N 240.93 -0.123565 1.57115 0
M  V30 2494 C 242.176 -0.833386 1.84885 0
M  V30 2495 C 242.509 -1.79742 0.735292 0
M  V30 2496 O 241.784 -1.92764 -0.25925 0
M  V30 2497 C 242.067 -1.5873 3.23228 0
M  V30 2498 C 241.92 -0.643183 4.45178 0
M  V30 2499 C 243.239 -2.54453 3.59085 0
M  V30 2500 H 240.358 -0.301518 0.6725 0
M  V30 2501 H 243 -0.097778 1.89748 0
M  V30 2502 H 241.15 -2.21438 3.19214 0
M  V30 2503 H 242.822 -0.0253015 4.61293 0
M  V30 2504 H 241.065 0.0456139 4.33776 0
M  V30 2505 H 241.736 -1.20724 5.38637 0
M  V30 2506 H 244.212 -2.01853 3.63861 0
M  V30 2507 H 243.088 -3.04238 4.5687 0
M  V30 2508 H 243.349 -3.36906 2.86264 0
M  V30 2509 N 242.408 -1.52605 -0.393616 0
M  V30 2510 C 243.654 -1.67672 -1.14079 0
M  V30 2511 C 243.987 -0.413121 -1.89755 0
M  V30 2512 O 243.262 0.588952 -1.85369 0
M  V30 2513 C 243.545 -2.9088 -2.12276 0
M  V30 2514 C 243.398 -4.27329 -1.40394 0
M  V30 2515 C 244.717 -3.09628 -3.12759 0
M  V30 2516 H 241.836 -0.610168 -0.413356 0
M  V30 2517 H 244.478 -1.85193 -0.424696 0
M  V30 2518 H 242.628 -2.76073 -2.73342 0
M  V30 2519 H 244.3 -4.53894 -0.82327 0
M  V30 2520 H 242.543 -4.2802 -0.705801 0
M  V30 2521 H 243.214 -5.09615 -2.12123 0
M  V30 2522 H 245.69 -3.23436 -2.61779 0
M  V30 2523 H 244.566 -3.97322 -3.78717 0
M  V30 2524 H 244.827 -2.23637 -3.81365 0
M  V30 2525 N 243.887 0.651787 -1.4349 0
M  V30 2526 C 245.115 1.43937 -1.48626 0
M  V30 2527 C 245.53 1.8851 -0.104587 0
M  V30 2528 O 244.887 1.5958 0.885464 0
M  V30 2529 C 244.938 2.6734 -2.43334 0
M  V30 2530 O 244.659 2.24631 -3.76128 0
M  V30 2531 C 246.16 3.60683 -2.57726 0
M  V30 2532 H 243.38 0.44213 -0.504739 0
M  V30 2533 H 245.924 0.798944 -1.88248 0
M  V30 2534 H 244.079 3.2752 -2.06904 0
M  V30 2535 H 244.493 3.04485 -4.2707 0
M  V30 2536 H 245.967 4.43933 -3.28067 0
M  V30 2537 H 246.444 4.08126 -1.62265 0
M  V30 2538 H 247.05 3.06384 -2.94973 0
M  V30 2539 N 245.365 1.30045 0.890287 0
M  V30 2540 C 246.593 1.21472 1.67487 0
M  V30 2541 C 247.008 -0.223241 1.87476 0
M  V30 2542 O 246.365 -1.14828 1.41847 0
M  V30 2543 C 246.416 1.93394 3.05419 0
M  V30 2544 O 246.137 3.31576 2.86337 0
M  V30 2545 C 247.638 1.91414 3.99844 0
M  V30 2546 H 244.858 0.420604 0.522813 0
M  V30 2547 H 247.402 1.7158 1.11268 0
M  V30 2548 H 245.557 1.47099 3.58386 0
M  V30 2549 H 245.971 3.67929 3.73802 0
M  V30 2550 H 247.445 2.46285 4.94012 0
M  V30 2551 H 247.922 0.891833 4.3005 0
M  V30 2552 H 248.528 2.37496 3.52811 0
M  V30 2553 N 246.843 -1.10192 1.12674 0
M  V30 2554 C 248.071 -1.85983 0.906527 0
M  V30 2555 C 248.486 -1.80783 -0.544333 0
M  V30 2556 O 247.843 -1.19834 -1.37645 0
M  V30 2557 C 247.894 -3.34281 1.37618 0
M  V30 2558 O 247.615 -3.39401 2.77017 0
M  V30 2559 C 249.116 -4.26938 1.19325 0
M  V30 2560 H 246.336 -0.587716 0.323775 0
M  V30 2561 H 248.88 -1.39284 1.49734 0
M  V30 2562 H 247.035 -3.78436 0.828539 0
M  V30 2563 H 247.449 -4.31838 2.97684 0
M  V30 2564 H 248.923 -5.29181 1.57071 0
M  V30 2565 H 249.4 -4.38995 0.134097 0
M  V30 2566 H 250.006 -3.8859 1.72852 0
M  V30 2567 N 248.321 -0.919034 -1.28029 0
M  V30 2568 C 249.737 -0.617972 -1.4715 0
M  V30 2569 C 249.937 0.835242 -1.83374 0
M  V30 2570 O 248.993 1.61388 -1.94191 0
M  V30 2571 C 250.306 -1.56041 -2.57044 0
M  V30 2572 C 251.854 -1.56769 -2.7091 0
M  V30 2573 C 252.329 -2.49688 -3.83953 0
M  V30 2574 N 253.82 -2.47845 -3.91314 0
M  V30 2575 C 254.555 -3.16437 -4.78179 0
M  V30 2576 N 254.051 -3.94376 -5.69596 0
M  V30 2577 N 255.844 -3.05498 -4.71834 0
M  V30 2578 H 247.995 -1.85866 -1.02798 0
M  V30 2579 H 250.258 -0.797506 -0.512531 0
M  V30 2580 H 249.964 -2.59671 -2.372 0
M  V30 2581 H 249.838 -1.29551 -3.54255 0
M  V30 2582 H 252.225 -0.538745 -2.90141 0
M  V30 2583 H 252.306 -1.87305 -1.74214 0
M  V30 2584 H 251.95 -3.52688 -3.65477 0
M  V30 2585 H 251.88 -2.16453 -4.80058 0
M  V30 2586 H 254.371 -1.91234 -3.25941 0
M  V30 2587 H 254.684 -4.43721 -6.32718 0
M  V30 2588 H 253.029 -3.98481 -5.69419 0
M  V30 2589 H 256.22 -2.44108 -3.99411 0
M  V30 2590 H 256.393 -3.59225 -5.39316 0
M  V30 2591 N 249.799 1.42003 -0.683588 0
M  V30 2592 C 251.045 2.01712 -0.209825 0
M  V30 2593 C 251.378 1.53968 1.18353 0
M  V30 2594 O 250.653 0.745661 1.79639 0
M  V30 2595 C 250.936 3.59202 -0.254197 0
M  V30 2596 C 250.789 4.17102 -1.68363 0
M  V30 2597 C 252.108 4.38344 0.392709 0
M  V30 2598 H 249.227 0.732891 -0.0777189 0
M  V30 2599 H 251.869 1.68909 -0.87004 0
M  V30 2600 H 250.019 3.87278 0.307954 0
M  V30 2601 H 251.691 3.99946 -2.29871 0
M  V30 2602 H 249.934 3.72597 -2.22157 0
M  V30 2603 H 250.605 5.26249 -1.6663 0
M  V30 2604 H 253.081 4.16011 -0.0859162 0
M  V30 2605 H 251.957 5.47901 0.331063 0
M  V30 2606 H 252.218 4.16887 1.47164 0
M  V30 2607 N 251.277 0.427512 1.51691 0
M  V30 2608 C 252.209 -0.424521 2.25234 0
M  V30 2609 C 253.222 -0.994671 1.2888 0
M  V30 2610 O 254.411 -0.890483 1.54702 0
M  V30 2611 C 251.511 -1.60479 2.98496 0
M  V30 2612 C 250.684 -1.15527 4.21868 0
M  V30 2613 C 249.743 -2.20454 4.77793 0
M  V30 2614 O 248.769 -1.8029 5.39893 0
M  V30 2615 N 249.971 -3.52831 4.60967 0
M  V30 2616 H 252.736 0.205749 2.98993 0
M  V30 2617 H 250.297 0.255867 1.59865 0
M  V30 2618 H 252.289 -2.30276 3.32799 0
M  V30 2619 H 250.859 -2.14061 2.27809 0
M  V30 2620 H 250.079 -0.284736 3.9317 0
M  V30 2621 H 251.367 -0.832173 5.01949 0
M  V30 2622 H 250.765 -3.88201 4.11481 0
M  V30 2623 H 249.322 -4.18551 4.99658 0
M  V30 2624 N 252.755 -1.56801 0.158532 0
M  V30 2625 C 253.705 -2.13923 -0.788738 0
M  V30 2626 C 254.689 -1.07006 -1.2016 0
M  V30 2627 O 255.881 -1.33159 -1.1661 0
M  V30 2628 C 253.01 -2.77348 -2.02319 0
M  V30 2629 C 252.096 -3.91404 -1.6329 0
M  V30 2630 N 252.487 -4.9677 -0.951463 0
M  V30 2631 C 250.785 -4.02326 -1.92482 0
M  V30 2632 C 251.486 -5.76698 -0.761221 0
M  V30 2633 N 250.462 -5.27859 -1.29869 0
M  V30 2634 H 254.264 -2.92757 -0.258995 0
M  V30 2635 H 251.778 -1.62344 -0.0426055 0
M  V30 2636 H 253.775 -3.16639 -2.71192 0
M  V30 2637 H 252.435 -1.99991 -2.558 0
M  V30 2638 H 253.446 -5.14284 -0.610928 0
M  V30 2639 H 250.123 -3.36059 -2.47732 0
M  V30 2640 H 251.513 -6.71529 -0.223284 0
M  V30 2641 N 254.233 0.115231 -1.57178 0
M  V30 2642 C 255.196 1.12526 -1.99676 0
M  V30 2643 C 256.196 1.34095 -0.88742 0
M  V30 2644 O 257.386 1.30548 -1.15337 0
M  V30 2645 C 254.518 2.4789 -2.34015 0
M  V30 2646 H 255.711 0.759912 -2.90113 0
M  V30 2647 H 253.264 0.359648 -1.52106 0
M  V30 2648 H 253.999 2.89339 -1.4647 0
M  V30 2649 H 253.784 2.33588 -3.14927 0
M  V30 2650 H 255.274 3.20575 -2.67622 0
M  V30 2651 N 255.711 1.52812 0.385517 0
M  V30 2652 C 256.936 1.72207 1.15583 0
M  V30 2653 C 257.361 0.441034 1.82857 0
M  V30 2654 O 256.719 -0.603465 1.70962 0
M  V30 2655 C 256.767 2.87476 2.17692 0
M  V30 2656 O 255.871 2.54693 3.24354 0
M  V30 2657 H 255.212 0.572526 0.336319 0
M  V30 2658 H 257.742 1.99618 0.448744 0
M  V30 2659 H 257.752 3.13072 2.6163 0
M  V30 2660 H 256.427 3.80408 1.68115 0
M  V30 2661 H 255.004 2.3985 2.85529 0
M  V30 2662 N 257.189 -0.644168 1.43834 0
M  V30 2663 C 258.6 -1.22554 1.40845 0
M  V30 2664 C 258.951 -1.9585 0.117115 0
M  V30 2665 O 258.076 -2.01734 -0.783086 0
M  V30 2666 C 258.671 -2.22907 2.55143 0
M  V30 2667 C 257.23 -2.76501 2.5539 0
M  V30 2668 C 256.377 -1.51287 2.32396 0
M  V30 2669 H 259.328 -0.43563 1.52604 0
M  V30 2670 H 259.349 -3.05259 2.2715 0
M  V30 2671 H 258.861 -1.69533 3.49114 0
M  V30 2672 H 256.962 -3.33914 1.65324 0
M  V30 2673 H 257.075 -3.23429 3.53455 0
M  V30 2674 H 255.439 -1.78957 1.81236 0
M  V30 2675 H 256.222 -0.998336 3.28463 0
M  V30 2676 N 258.668 -1.30515 -0.883378 0
M  V30 2677 C 259.631 -1.1701 -1.97082 0
M  V30 2678 C 260.631 -0.10089 -1.60483 0
M  V30 2679 O 261.821 -0.349127 -1.70666 0
M  V30 2680 C 258.953 -0.793045 -3.31547 0
M  V30 2681 H 260.146 -2.13622 -2.10489 0
M  V30 2682 H 257.699 -1.13935 -1.06998 0
M  V30 2683 H 258.434 0.172499 -3.23841 0
M  V30 2684 H 258.219 -1.56576 -3.5948 0
M  V30 2685 H 259.709 -0.722073 -4.1131 0
M  V30 2686 N 260.146 1.09593 -1.13257 0
M  V30 2687 C 261.394 1.81375 -0.891492 0
M  V30 2688 C 261.715 1.86049 0.584009 0
M  V30 2689 O 260.985 1.34481 1.42449 0
M  V30 2690 H 259.565 0.671708 -0.326828 0
M  V30 2691 H 262.227 1.3256 -1.42877 0
M  V30 2692 H 261.323 2.84612 -1.28071 0
M  V30 2693 N 261.624 0.925811 1.2754 0
M  V30 2694 C 262.587 0.428129 2.25166 0
M  V30 2695 C 263.587 -0.452261 1.54309 0
M  V30 2696 O 264.777 -0.253608 1.72344 0
M  V30 2697 C 261.909 -0.384749 3.38722 0
M  V30 2698 H 263.102 1.29066 2.70706 0
M  V30 2699 H 260.655 0.706323 1.3943 0
M  V30 2700 H 261.39 -1.26618 2.98561 0
M  V30 2701 H 261.175 0.246454 3.91325 0
M  V30 2702 H 262.665 -0.723389 4.11287 0
M  V30 2703 N 263.102 -1.41638 0.69111 0
M  V30 2704 C 264.332 -2.0533 0.228758 0
M  V30 2705 C 264.74 -1.52089 -1.12541 0
M  V30 2706 O 264.083 -0.662145 -1.71351 0
M  V30 2707 C 264.145 -3.59349 0.10407 0
M  V30 2708 C 263.809 -4.35362 1.38956 0
M  V30 2709 C 264.806 -4.64942 2.32648 0
M  V30 2710 C 262.491 -4.74714 1.64169 0
M  V30 2711 C 264.485 -5.32828 3.49818 0
M  V30 2712 C 262.172 -5.42338 2.81625 0
M  V30 2713 C 263.17 -5.71322 3.74273 0
M  V30 2714 O 262.858 -6.37554 4.89673 0
M  V30 2715 H 262.59 -0.667796 0.104997 0
M  V30 2716 H 265.144 -1.82477 0.942938 0
M  V30 2717 H 263.374 -3.80924 -0.665839 0
M  V30 2718 H 265.063 -4.04633 -0.320519 0
M  V30 2719 H 265.829 -4.35025 2.14425 0
M  V30 2720 H 261.708 -4.51538 0.929202 0
M  V30 2721 H 265.252 -5.55368 4.22152 0
M  V30 2722 H 261.149 -5.71673 2.99768 0
M  V30 2723 H 261.917 -6.56049 4.8943 0
M  V30 2724 N 264.58 -0.43555 -1.51462 0
M  V30 2725 C 265.543 0.365137 -2.26273 0
M  V30 2726 C 266.543 0.951227 -1.29647 0
M  V30 2727 O 267.733 0.825958 -1.53374 0
M  V30 2728 C 264.865 1.51645 -3.05314 0
M  V30 2729 H 266.058 -0.290474 -2.9849 0
M  V30 2730 H 263.611 -0.188676 -1.55157 0
M  V30 2731 H 264.346 2.20816 -2.3751 0
M  V30 2732 H 264.131 1.10238 -3.76284 0
M  V30 2733 H 265.621 2.08218 -3.61987 0
M  V30 2734 N 266.058 1.56714 -0.166846 0
M  V30 2735 C 267.008 2.14338 0.777382 0
M  V30 2736 C 267.992 1.07642 1.19591 0
M  V30 2737 O 269.184 1.33775 1.15902 0
M  V30 2738 C 266.313 2.78417 2.00846 0
M  V30 2739 C 265.399 3.92264 1.61212 0
M  V30 2740 N 265.79 4.97268 0.925104 0
M  V30 2741 C 264.088 4.03342 1.90346 0
M  V30 2742 C 264.789 5.77093 0.730627 0
M  V30 2743 N 263.765 5.2854 1.27067 0
M  V30 2744 H 267.567 2.9289 0.243466 0
M  V30 2745 H 265.081 1.62364 0.0339954 0
M  V30 2746 H 267.078 3.18073 2.69509 0
M  V30 2747 H 265.738 2.01344 2.54736 0
M  V30 2748 H 266.749 5.14601 0.583646 0
M  V30 2749 H 263.426 3.37368 2.45946 0
M  V30 2750 H 264.816 6.71638 0.187668 0
M  V30 2751 N 267.536 -0.106894 1.57237 0
M  V30 2752 C 268.764 -0.826389 1.8968 0
M  V30 2753 C 269.179 -1.72856 0.759353 0
M  V30 2754 O 268.536 -1.80503 -0.269263 0
M  V30 2755 C 268.587 -1.64967 3.21665 0
M  V30 2756 O 268.308 -0.783804 4.31031 0
M  V30 2757 C 269.809 -2.47326 3.67892 0
M  V30 2758 H 267.029 -0.236927 0.627779 0
M  V30 2759 H 269.573 -0.0876593 2.04312 0
M  V30 2760 H 267.728 -2.34103 3.08666 0
M  V30 2761 H 268.142 -1.35284 5.06753 0
M  V30 2762 H 269.616 -3.00604 4.6297 0
M  V30 2763 H 270.093 -3.25247 2.95146 0
M  V30 2764 H 270.699 -1.83411 3.83719 0
M  V30 2765 N 269.014 -1.53014 -0.377408 0
M  V30 2766 C 270.26 -1.68872 -1.12294 0
M  V30 2767 C 270.593 -0.433224 -1.89306 0
M  V30 2768 O 269.868 0.569258 -1.85983 0
M  V30 2769 C 270.151 -2.93115 -2.09179 0
M  V30 2770 C 270.004 -4.28794 -1.35853 0
M  V30 2771 C 271.323 -3.12928 -3.09458 0
M  V30 2772 H 268.442 -0.614518 -0.406862 0
M  V30 2773 H 271.084 -1.85633 -0.40503 0
M  V30 2774 H 269.234 -2.78956 -2.70399 0
M  V30 2775 H 270.906 -4.54742 -0.775082 0
M  V30 2776 H 269.149 -4.28744 -0.660364 0
M  V30 2777 H 269.82 -5.11837 -2.06706 0
M  V30 2778 H 272.296 -3.26194 -2.58334 0
M  V30 2779 H 271.172 -4.01316 -3.74482 0
M  V30 2780 H 271.433 -2.27669 -3.78971 0
M  V30 2781 N 270.492 0.636531 -1.44174 0
M  V30 2782 C 271.44 1.76995 -1.50915 0
M  V30 2783 C 272.434 1.65053 -0.381295 0
M  V30 2784 O 273.64 1.71197 -0.55601 0
M  V30 2785 H 270.015 0.584247 -0.473455 0
M  V30 2786 H 271.986 1.68432 -2.4632 0
M  V30 2787 C 270.735 3.15314 -1.46534 0
M  V30 2788 H 270.058 3.25149 -2.32633 0
M  V30 2789 H 271.498 3.9453 -1.55312 0
M  V30 2790 C 269.957 3.3639 -0.185305 0
M  V30 2791 O 270.487 3.94699 0.746688 0
M  V30 2792 N 268.693 2.9046 -0.0901606 0
M  V30 2793 H 268.24 2.43193 -0.849416 0
M  V30 2794 H 268.198 3.04937 0.765553 0
M  V30 2795 N 271.97 1.30982 0.876444 0
M  V30 2796 C 273.386 1.09498 1.16113 0
M  V30 2797 C 273.586 -0.13875 2.01022 0
M  V30 2798 O 272.642 -0.829935 2.38471 0
M  V30 2799 C 273.955 2.36308 1.85954 0
M  V30 2800 C 275.503 2.41856 1.98683 0
M  V30 2801 C 275.978 3.6853 2.71937 0
M  V30 2802 N 277.469 3.69387 2.79477 0
M  V30 2803 C 278.204 4.64096 3.36753 0
M  V30 2804 N 277.7 5.69155 3.95012 0
M  V30 2805 N 279.493 4.51626 3.3465 0
M  V30 2806 H 271.644 2.10118 0.310494 0
M  V30 2807 H 273.907 0.926634 0.200131 0
M  V30 2808 H 273.613 3.26388 1.31011 0
M  V30 2809 H 273.487 2.4561 2.86278 0
M  V30 2810 H 275.874 1.52249 2.52793 0
M  V30 2811 H 275.955 2.36523 0.9742 0
M  V30 2812 H 275.599 4.58499 2.18496 0
M  V30 2813 H 275.529 3.71127 3.73593 0
M  V30 2814 H 278.02 2.93438 2.38123 0
M  V30 2815 H 278.333 6.3751 4.36808 0
M  V30 2816 H 276.678 5.72937 3.93406 0
M  V30 2817 H 279.869 3.68728 2.8837 0
M  V30 2818 H 280.042 5.25614 3.7899 0
M  V30 2819 N 273.449 -1.08991 1.13837 0
M  V30 2820 C 274.397 -2.17841 0.815347 0
M  V30 2821 C 275.391 -1.68164 -0.204233 0
M  V30 2822 O 276.597 -1.79897 -0.0609304 0
M  V30 2823 H 272.972 -0.710654 0.245915 0
M  V30 2824 H 274.943 -2.42315 1.74143 0
M  V30 2825 C 273.692 -3.46381 0.302614 0
M  V30 2826 H 273.015 -3.84979 1.0785 0
M  V30 2827 H 274.455 -4.23844 0.115074 0
M  V30 2828 C 272.914 -3.22556 -0.972591 0
M  V30 2829 O 273.444 -3.45599 -2.04754 0
M  V30 2830 N 271.65 -2.76134 -0.905455 0
M  V30 2831 H 271.197 -2.57582 -0.0305421 0
M  V30 2832 H 271.155 -2.60571 -1.75926 0
M  V30 2833 N 274.927 -0.932562 -1.27047 0
M  V30 2834 C 276.173 -0.585913 -1.94778 0
M  V30 2835 C 276.528 0.864142 -1.71902 0
M  V30 2836 O 275.821 1.60894 -1.04037 0
M  V30 2837 C 276.015 -0.853713 -3.47054 0
M  V30 2838 C 275.844 -2.32825 -3.84737 0
M  V30 2839 C 274.614 -2.98184 -4.07939 0
M  V30 2840 C 276.812 -3.30612 -3.93954 0
M  V30 2841 N 274.794 -4.3574 -4.3244 0
M  V30 2842 C 276.165 -4.53395 -4.22887 0
M  V30 2843 C 278.22 -3.25755 -3.76548 0
M  V30 2844 C 276.923 -5.71927 -4.36224 0
M  V30 2845 C 278.949 -4.43604 -3.91113 0
M  V30 2846 C 278.311 -5.65166 -4.20437 0
M  V30 2847 H 274.41 -0.264617 -0.735868 0
M  V30 2848 H 276.994 -1.20019 -1.53309 0
M  V30 2849 H 275.165 -0.268557 -3.8747 0
M  V30 2850 H 276.897 -0.469202 -4.01971 0
M  V30 2851 H 273.652 -2.48835 -4.02961 0
M  V30 2852 H 274.076 -5.06915 -4.48738 0
M  V30 2853 H 278.718 -2.32835 -3.52913 0
M  V30 2854 H 276.436 -6.65308 -4.58683 0
M  V30 2855 H 280.022 -4.41368 -3.79059 0
M  V30 2856 H 278.902 -6.54836 -4.31462 0
M  V30 2857 N 276.405 1.4127 -0.698611 0
M  V30 2858 C 277.635 2.05205 -0.239644 0
M  V30 2859 C 278.043 1.52684 1.11733 0
M  V30 2860 O 277.386 0.671222 1.70998 0
M  V30 2861 C 277.448 3.59289 -0.123126 0
M  V30 2862 C 277.112 4.34619 -1.41263 0
M  V30 2863 C 278.109 4.63701 -2.35111 0
M  V30 2864 C 275.794 4.73837 -1.66684 0
M  V30 2865 C 277.788 5.30966 -3.52639 0
M  V30 2866 C 275.475 5.40837 -2.84498 0
M  V30 2867 C 276.473 5.69329 -3.77298 0
M  V30 2868 O 276.161 6.34949 -4.93047 0
M  V30 2869 H 275.893 0.66723 -0.108537 0
M  V30 2870 H 278.447 1.81974 -0.952602 0
M  V30 2871 H 276.677 3.81272 0.645628 0
M  V30 2872 H 278.366 4.04797 0.299056 0
M  V30 2873 H 279.132 4.33882 -2.16729 0
M  V30 2874 H 275.011 4.51039 -0.953135 0
M  V30 2875 H 278.555 5.53121 -4.25091 0
M  V30 2876 H 274.452 5.70075 -3.02795 0
M  V30 2877 H 275.22 6.53445 -4.92902 0
M  V30 2878 N 277.883 0.443576 1.51229 0
M  V30 2879 C 279.108 -0.121648 2.07043 0
M  V30 2880 C 279.533 -1.35156 1.30823 0
M  V30 2881 O 278.891 -1.7793 0.347934 0
M  V30 2882 C 278.939 -0.41624 3.5819 0
M  V30 2883 O 278.043 -1.50163 3.8409 0
M  V30 2884 H 277.384 0.000871367 0.663999 0
M  V30 2885 H 279.914 0.626706 1.94765 0
M  V30 2886 H 279.924 -0.664867 4.02546 0
M  V30 2887 H 278.599 0.482653 4.1309 0
M  V30 2888 H 277.176 -1.24248 3.51592 0
M  V30 2889 N 279.361 -1.56624 0.175154 0
M  V30 2890 C 280.638 -1.88688 -0.515373 0
M  V30 2891 C 281.018 -1.08564 -1.81044 0
M  V30 2892 O 280.366 -0.180703 -2.27784 0
M  V30 2893 C 280.576 -3.40768 -0.753552 0
M  V30 2894 C 281.924 -4.10587 -1.08184 0
M  V30 2895 O 282.948 -3.46106 -0.841961 0
M  V30 2896 O 281.807 -5.24512 -1.53459 0
M  V30 2897 H 278.901 -0.78301 -0.26613 0
M  V30 2898 H 281.447 -1.68347 0.213877 0
M  V30 2899 H 280.219 -3.90965 0.161829 0
M  V30 2900 H 279.842 -3.66733 -1.53598 0
M  V30 2901 N 280.839 0.0985539 -1.57292 0
M  V30 2902 C 281.802 1.10402 -2.00858 0
M  V30 2903 C 282.802 1.33146 -0.901593 0
M  V30 2904 O 283.992 1.29318 -1.16716 0
M  V30 2905 C 281.124 2.45394 -2.36632 0
M  V30 2906 H 282.317 0.729099 -2.90902 0
M  V30 2907 H 279.87 0.343495 -1.52479 0
M  V30 2908 H 280.605 2.87769 -1.49531 0
M  V30 2909 H 280.39 2.30235 -3.17387 0
M  V30 2910 H 281.88 3.17718 -2.71007 0
M  V30 2911 N 282.317 1.53212 0.369288 0
M  V30 2912 C 283.594 1.59815 1.12776 0
M  V30 2913 C 283.974 0.403402 2.0721 0
M  V30 2914 O 283.322 -0.606667 2.20299 0
M  V30 2915 C 283.532 2.94664 1.87013 0
M  V30 2916 C 284.88 3.49109 2.41677 0
M  V30 2917 O 285.904 2.96669 1.97144 0
M  V30 2918 O 284.763 4.40775 3.23079 0
M  V30 2919 H 281.857 0.645376 0.517125 0
M  V30 2920 H 284.403 1.65553 0.37285 0
M  V30 2921 H 283.175 3.73061 1.18071 0
M  V30 2922 H 282.798 2.92401 2.69421 0
M  V30 2923 N 283.795 -0.628877 1.44509 0
M  V30 2924 C 285.041 -1.39045 1.47629 0
M  V30 2925 C 285.374 -1.93892 0.109343 0
M  V30 2926 O 284.649 -1.7379 -0.87334 0
M  V30 2927 C 284.932 -2.55408 2.53848 0
M  V30 2928 C 284.785 -2.05896 3.99909 0
M  V30 2929 C 286.104 -3.5759 2.56549 0
M  V30 2930 H 283.223 -0.504232 0.537512 0
M  V30 2931 H 285.865 -0.710854 1.76201 0
M  V30 2932 H 284.015 -3.13384 2.29615 0
M  V30 2933 H 285.687 -1.52734 4.35282 0
M  V30 2934 H 283.93 -1.37061 4.11578 0
M  V30 2935 H 284.601 -2.89681 4.69882 0
M  V30 2936 H 287.077 -3.09419 2.78207 0
M  V30 2937 H 285.953 -4.36527 3.32769 0
M  V30 2938 H 286.214 -4.11808 1.60832 0
M  V30 2939 N 285.273 -1.31445 -0.869486 0
M  V30 2940 C 286.684 -1.19042 -1.43826 0
M  V30 2941 C 287.035 0.202919 -1.95148 0
M  V30 2942 O 286.16 1.10071 -1.86315 0
M  V30 2943 C 286.755 -2.15499 -2.6143 0
M  V30 2944 C 285.314 -2.07028 -3.14351 0
M  V30 2945 C 284.461 -2.04701 -1.87063 0
M  V30 2946 H 287.412 -1.43489 -0.677984 0
M  V30 2947 H 287.433 -1.74488 -3.38134 0
M  V30 2948 H 286.945 -3.16899 -2.24046 0
M  V30 2949 H 285.046 -1.08825 -3.56354 0
M  V30 2950 H 285.159 -2.96157 -3.766 0
M  V30 2951 H 283.523 -1.49724 -2.06046 0
M  V30 2952 H 284.306 -3.07857 -1.51917 0
M  V30 2953 N 286.751 1.08385 -1.14413 0
M  V30 2954 C 287.714 2.13486 -0.834048 0
M  V30 2955 C 288.714 1.59988 0.161418 0
M  V30 2956 O 289.904 1.74071 -0.0669575 0
M  V30 2957 C 287.036 3.4003 -0.243354 0
M  V30 2958 H 288.229 2.42425 -1.7655 0
M  V30 2959 H 285.782 1.24101 -0.950189 0
M  V30 2960 H 286.517 3.16726 0.696807 0
M  V30 2961 H 286.302 3.80157 -0.960367 0
M  V30 2962 H 287.792 4.17577 -0.0436242 0
M  V30 2963 N 288.23 0.939286 1.26551 0
M  V30 2964 C 289.455 0.602008 1.98471 0
M  V30 2965 C 289.88 -0.815624 1.69497 0
M  V30 2966 O 289.238 -1.54912 0.941905 0
M  V30 2967 C 289.286 0.848407 3.50477 0
M  V30 2968 O 288.39 -0.0804009 4.12322 0
M  V30 2969 H 287.731 0.23049 0.622712 0
M  V30 2970 H 290.261 1.2617 1.61066 0
M  V30 2971 H 290.271 0.768553 4.00696 0
M  V30 2972 H 288.946 1.88171 3.70897 0
M  V30 2973 H 287.523 0.0503508 3.72866 0
M  V30 2974 N 289.708 -1.40897 0.706093 0
M  V30 2975 C 290.671 -2.29131 0.0562841 0
M  V30 2976 C 291.671 -1.44901 -0.697166 0
M  V30 2977 O 292.861 -1.65926 -0.530484 0
M  V30 2978 C 289.993 -3.27957 -0.93043 0
M  V30 2979 H 291.186 -2.88091 0.833284 0
M  V30 2980 H 288.739 -1.4906 0.470192 0
M  V30 2981 H 289.474 -2.73997 -1.73482 0
M  V30 2982 H 289.259 -3.90124 -0.393166 0
M  V30 2983 H 290.749 -3.94049 -1.38256 0
M  V30 2984 N 291.186 -0.45159 -1.50991 0
M  V30 2985 C 292.602 -0.104647 -1.59257 0
M  V30 2986 C 292.802 1.38728 -1.4614 0
M  V30 2987 O 291.858 2.15866 -1.30989 0
M  V30 2988 C 293.171 -0.637468 -2.93865 0
M  V30 2989 C 294.719 -0.599166 -3.07212 0
M  V30 2990 C 295.194 -1.1092 -4.44366 0
M  V30 2991 N 296.685 -1.06778 -4.50725 0
M  V30 2992 C 297.42 -1.43314 -5.55201 0
M  V30 2993 N 296.916 -1.87204 -6.67028 0
M  V30 2994 N 298.709 -1.3504 -5.45638 0
M  V30 2995 H 290.86 -1.42214 -1.57762 0
M  V30 2996 H 293.123 -0.586921 -0.744465 0
M  V30 2997 H 292.829 -1.68187 -3.08879 0
M  V30 2998 H 292.703 -0.0702139 -3.77135 0
M  V30 2999 H 295.09 0.436277 -2.91857 0
M  V30 3000 H 295.171 -1.20299 -2.25747 0
M  V30 3001 H 294.815 -2.14318 -4.60467 0
M  V30 3002 H 294.745 -0.481773 -5.24392 0
M  V30 3003 H 297.236 -0.745643 -3.70471 0
M  V30 3004 H 297.549 -2.13282 -7.42786 0
M  V30 3005 H 295.894 -1.91142 -6.68199 0
M  V30 3006 H 299.085 -1.00607 -4.57161 0
M  V30 3007 H 299.258 -1.63841 -6.26945 0
M  V30 3008 N 292.664 1.56529 -0.183458 0
M  V30 3009 C 293.596 2.15747 0.773697 0
M  V30 3010 C 294.609 1.1162 1.1851 0
M  V30 3011 O 295.798 1.3876 1.12285 0
M  V30 3012 C 292.898 2.6952 2.05456 0
M  V30 3013 C 292.071 3.98429 1.8048 0
M  V30 3014 C 291.13 4.37145 2.92901 0
M  V30 3015 O 290.156 5.04791 2.6301 0
M  V30 3016 N 291.358 3.99695 4.2098 0
M  V30 3017 H 294.123 2.98505 0.26736 0
M  V30 3018 H 291.684 1.619 -0.0010878 0
M  V30 3019 H 293.676 2.92412 2.79781 0
M  V30 3020 H 292.246 1.91282 2.47245 0
M  V30 3021 H 291.466 3.8379 0.899947 0
M  V30 3022 H 292.754 4.82597 1.61175 0
M  V30 3023 H 292.152 3.4526 4.48121 0
M  V30 3024 H 290.709 4.27562 4.9197 0
M  V30 3025 N 294.142 -0.090211 1.57342 0
M  V30 3026 C 295.052 -1.12735 2.05738 0
M  V30 3027 C 296.068 -1.43557 0.983231 0
M  V30 3028 O 297.244 -1.54101 1.29672 0
M  V30 3029 C 294.309 -2.42659 2.47624 0
M  V30 3030 C 293.37 -2.18975 3.69254 0
M  V30 3031 C 292.603 -3.42704 4.09133 0
M  V30 3032 O 292.826 -4.51127 3.49057 0
M  V30 3033 O 291.76 -3.32003 5.02053 0
M  V30 3034 H 295.586 -0.746279 2.94388 0
M  V30 3035 H 293.171 -0.303064 1.46294 0
M  V30 3036 H 295.053 -3.19155 2.7517 0
M  V30 3037 H 293.728 -2.80182 1.62109 0
M  V30 3038 H 292.635 -1.40244 3.46818 0
M  V30 3039 H 293.968 -1.86342 4.55563 0
M  V30 3040 N 295.62 -1.53406 -0.361157 0
M  V30 3041 C 296.868 -1.69467 -1.10115 0
M  V30 3042 C 297.189 -0.451352 -1.89705 0
M  V30 3043 O 296.459 0.534636 -1.88463 0
M  V30 3044 H 295.039 -0.624749 -0.409508 0
M  V30 3045 H 297.701 -1.90609 -0.406699 0
M  V30 3046 H 296.797 -2.55774 -1.78847 0
M  V30 3047 N 297.098 0.621204 -1.44841 0
M  V30 3048 C 298.338 1.39201 -1.49674 0
M  V30 3049 C 298.702 1.91561 -0.129764 0
M  V30 3050 O 299.903 2.68748 -0.0527814 0
M  V30 3051 C 298.174 2.519 -2.53537 0
M  V30 3052 S 299.733 3.39916 -2.77494 0
M  V30 3053 H 296.551 0.474758 -0.529269 0
M  V30 3054 H 299.153 0.718171 -1.81831 0
M  V30 3055 H 297.857 2.11761 -3.51547 0
M  V30 3056 H 297.388 3.241 -2.22986 0
M  V30 3057 H 299.403 4.49646 -2.0984 0
M  V30 3058 N 298.576 1.31904 0.862503 0
M  V30 3059 C 299.508 1.16005 1.97675 0
M  V30 3060 C 300.521 0.0971234 1.6251 0
M  V30 3061 O 301.71 0.345337 1.75128 0
M  V30 3062 C 298.81 0.751791 3.30456 0
M  V30 3063 C 297.983 1.90133 3.93914 0
M  V30 3064 C 297.042 1.4779 5.05019 0
M  V30 3065 O 296.068 2.18872 5.25437 0
M  V30 3066 N 297.27 0.369491 5.79323 0
M  V30 3067 H 300.035 2.11982 2.11857 0
M  V30 3068 H 297.596 1.24337 1.03691 0
M  V30 3069 H 299.588 0.451084 4.02178 0
M  V30 3070 H 298.158 -0.116593 3.12382 0
M  V30 3071 H 297.378 2.36896 3.15078 0
M  V30 3072 H 298.666 2.67111 4.33047 0
M  V30 3073 H 298.064 -0.222299 5.65263 0
M  V30 3074 H 296.621 0.128354 6.51674 0
M  V30 3075 N 300.054 -1.07777 1.14986 0
M  V30 3076 C 301.331 -1.7699 0.832695 0
M  V30 3077 C 301.711 -2.001 -0.672561 0
M  V30 3078 O 301.059 -1.61598 -1.6155 0
M  V30 3079 C 301.269 -3.08139 1.63863 0
M  V30 3080 C 302.617 -3.8256 1.84208 0
M  V30 3081 O 303.641 -3.17939 1.60603 0
M  V30 3082 O 302.5 -4.98612 2.23714 0
M  V30 3083 H 299.594 -0.768389 0.305791 0
M  V30 3084 H 302.14 -1.14182 1.25541 0
M  V30 3085 H 300.912 -2.86909 2.6608 0
M  V30 3086 H 300.535 -3.78678 1.21197 0
M  V30 3087 N 301.532 -0.945985 -1.26051 0
M  V30 3088 C 302.781 -0.591836 -1.92822 0
M  V30 3089 C 303.094 0.873956 -1.7499 0
M  V30 3090 O 304.3 1.33769 -2.36259 0
M  V30 3091 C 302.756 -1.00776 -3.45503 0
M  V30 3092 C 302.364 -2.4955 -3.7206 0
M  V30 3093 C 304.108 -0.725735 -4.1825 0
M  V30 3094 C 302.015 -2.84988 -5.18205 0
M  V30 3095 H 300.945 -0.217635 -0.721908 0
M  V30 3096 H 303.596 -1.14927 -1.43052 0
M  V30 3097 H 301.978 -0.378812 -3.94184 0
M  V30 3098 H 303.152 -3.1739 -3.34066 0
M  V30 3099 H 301.467 -2.75133 -3.12555 0
M  V30 3100 H 304.064 -0.966771 -5.25887 0
M  V30 3101 H 304.407 0.337639 -4.14929 0
M  V30 3102 H 304.94 -1.31463 -3.7545 0
M  V30 3103 H 301.679 -3.90307 -5.26631 0
M  V30 3104 H 301.199 -2.21813 -5.57278 0
M  V30 3105 H 302.878 -2.73712 -5.86252 0
M  V30 3106 N 303.011 1.40521 -0.713556 0
M  V30 3107 C 303.974 2.29098 -0.0684347 0
M  V30 3108 C 304.974 1.45268 0.689472 0
M  V30 3109 O 306.164 1.66205 0.521677 0
M  V30 3110 C 303.296 3.28446 0.913024 0
M  V30 3111 H 304.489 2.87645 -0.84855 0
M  V30 3112 H 302.042 1.48809 -0.47809 0
M  V30 3113 H 302.777 2.74913 1.72027 0
M  V30 3114 H 302.562 3.90327 0.372472 0
M  V30 3115 H 304.052 3.94777 1.36165 0
M  V30 3116 N 304.489 0.459591 1.5075 0
M  V30 3117 C 305.717 -0.0973749 2.06671 0
M  V30 3118 C 306.132 -1.34524 1.32472 0
M  V30 3119 O 305.489 -1.7827 0.390634 0
M  V30 3120 C 305.54 -0.39714 3.59312 0
M  V30 3121 O 305.261 0.801214 4.30711 0
M  V30 3122 C 306.762 -1.00234 4.31819 0
M  V30 3123 H 303.982 0.00195854 0.670997 0
M  V30 3124 H 306.526 0.645072 1.94059 0
M  V30 3125 H 304.681 -1.08951 3.71764 0
M  V30 3126 H 305.095 0.538857 5.21725 0
M  V30 3127 H 306.569 -1.16193 5.39632 0
M  V30 3128 H 307.046 -1.98939 3.91561 0
M  V30 3129 H 307.652 -0.348699 4.23868 0
M  V30 3130 N 305.967 -1.56429 0.191757 0
M  V30 3131 C 306.899 -2.16154 -0.762245 0
M  V30 3132 C 307.912 -1.12247 -1.17917 0
M  V30 3133 O 309.101 -1.39353 -1.11548 0
M  V30 3134 C 306.201 -2.70606 -2.04024 0
M  V30 3135 C 305.374 -3.99381 -1.78364 0
M  V30 3136 C 304.433 -4.38692 -2.90578 0
M  V30 3137 O 303.459 -5.06179 -2.6033 0
M  V30 3138 N 304.661 -4.01922 -4.18854 0
M  V30 3139 H 307.426 -2.98643 -0.251526 0
M  V30 3140 H 304.987 -1.61897 0.00967373 0
M  V30 3141 H 306.979 -2.93891 -2.78227 0
M  V30 3142 H 305.549 -1.9259 -2.46227 0
M  V30 3143 H 304.769 -3.84262 -0.879581 0
M  V30 3144 H 306.057 -4.83445 -1.58614 0
M  V30 3145 H 305.455 -3.47631 -4.46283 0
M  V30 3146 H 304.012 -4.30165 -4.89695 0
M  V30 3147 N 307.445 0.0818655 -1.57387 0
M  V30 3148 C 308.375 1.09885 -2.06028 0
M  V30 3149 C 309.356 1.4098 -0.951774 0
M  V30 3150 O 310.541 1.50781 -1.22387 0
M  V30 3151 C 307.671 2.4151 -2.4958 0
M  V30 3152 C 306.625 2.24792 -3.64215 0
M  V30 3153 C 305.951 3.61712 -3.93787 0
M  V30 3154 C 307.251 1.67749 -4.94629 0
M  V30 3155 H 308.945 0.694128 -2.91243 0
M  V30 3156 H 306.491 0.332448 -1.4011 0
M  V30 3157 H 308.444 3.12939 -2.82219 0
M  V30 3158 H 307.168 2.83943 -1.61381 0
M  V30 3159 H 305.827 1.55807 -3.31843 0
M  V30 3160 H 305.475 4.01697 -3.02735 0
M  V30 3161 H 305.175 3.51368 -4.70971 0
M  V30 3162 H 306.699 4.34587 -4.28913 0
M  V30 3163 H 308.113 2.29032 -5.25564 0
M  V30 3164 H 306.51 1.68128 -5.76067 0
M  V30 3165 H 307.58 0.638059 -4.80684 0
M  V30 3166 N 308.923 1.53595 0.353017 0
M  V30 3167 C 310.172 1.69603 1.09168 0
M  V30 3168 C 310.485 0.460925 1.90092 0
M  V30 3169 O 311.691 0.501774 2.66823 0
M  V30 3170 C 310.147 2.99872 1.9901 0
M  V30 3171 C 309.755 4.30687 1.23339 0
M  V30 3172 C 311.499 3.25246 2.72792 0
M  V30 3173 C 309.406 5.52036 2.12156 0
M  V30 3174 H 308.336 0.631966 0.411261 0
M  V30 3175 H 310.987 1.80096 0.351802 0
M  V30 3176 H 309.369 2.83212 2.7678 0
M  V30 3177 H 310.543 4.58019 0.505456 0
M  V30 3178 H 308.858 4.11853 0.613663 0
M  V30 3179 H 311.455 4.13095 3.39495 0
M  V30 3180 H 311.798 2.41846 3.38846 0
M  V30 3181 H 312.331 3.42638 2.021 0
M  V30 3182 H 309.07 6.37951 1.50659 0
M  V30 3183 H 308.59 5.28966 2.82764 0
M  V30 3184 H 310.269 5.87313 2.71427 0
M  V30 3185 N 310.401 -0.613514 1.45168 0
M  V30 3186 C 311.626 -1.40437 1.52618 0
M  V30 3187 C 312.051 -1.87438 0.157707 0
M  V30 3188 O 311.409 -1.59791 -0.856537 0
M  V30 3189 C 311.457 -2.58894 2.51011 0
M  V30 3190 O 310.561 -3.59326 2.02382 0
M  V30 3191 H 309.902 -0.419506 0.514695 0
M  V30 3192 H 312.432 -0.747215 1.90467 0
M  V30 3193 H 312.442 -3.06214 2.69624 0
M  V30 3194 H 311.117 -2.24032 3.50403 0
M  V30 3195 H 309.694 -3.18695 1.93618 0
M  V30 3196 N 311.879 -1.3236 -0.855495 0
M  V30 3197 C 312.827 -1.2118 -1.9854 0
M  V30 3198 C 313.821 -0.116788 -1.68997 0
M  V30 3199 O 315.027 -0.279657 -1.77814 0
M  V30 3200 H 311.402 -0.375608 -0.651477 0
M  V30 3201 H 313.373 -2.16743 -2.05098 0
M  V30 3202 C 312.122 -0.950849 -3.34446 0
M  V30 3203 H 311.445 -1.78563 -3.57708 0
M  V30 3204 H 312.885 -0.912863 -4.14057 0
M  V30 3205 C 311.344 0.346404 -3.35114 0
M  V30 3206 O 311.874 1.35855 -3.7803 0
M  V30 3207 N 310.08 0.36808 -2.88259 0
M  V30 3208 H 309.627 -0.456102 -2.5353 0
M  V30 3209 H 309.585 1.23591 -2.89089 0
M  V30 3210 N 313.357 1.07166 -1.15556 0
M  V30 3211 C 314.29 2.13808 -0.797593 0
M  V30 3212 C 315.268 1.6101 0.226812 0
M  V30 3213 O 316.452 1.88161 0.112932 0
M  V30 3214 C 313.579 3.38187 -0.186371 0
M  V30 3215 C 312.625 4.09766 -1.18297 0
M  V30 3216 S 313.458 4.60932 -2.72584 0
M  V30 3217 C 314.614 5.88583 -2.12886 0
M  V30 3218 H 314.847 2.43843 -1.70083 0
M  V30 3219 H 312.38 1.19467 -0.978106 0
M  V30 3220 H 314.338 4.10189 0.159837 0
M  V30 3221 H 312.999 3.06326 0.694489 0
M  V30 3222 H 312.192 4.99065 -0.703562 0
M  V30 3223 H 311.794 3.43736 -1.47381 0
M  V30 3224 H 314.086 6.60866 -1.49208 0
M  V30 3225 H 315.029 6.41241 -3.0036 0
M  V30 3226 H 315.437 5.42194 -1.57116 0
M  V30 3227 N 314.835 0.952656 1.25548 0
M  V30 3228 C 316.112 0.523818 1.88456 0
M  V30 3229 C 316.492 -0.998871 1.85973 0
M  V30 3230 O 315.84 -1.86381 1.3219 0
M  V30 3231 C 316.05 1.0982 3.31271 0
M  V30 3232 C 317.398 1.17385 4.08051 0
M  V30 3233 O 318.422 1.04961 3.40384 0
M  V30 3234 O 317.281 1.36852 5.29088 0
M  V30 3235 H 314.375 0.172485 0.808813 0
M  V30 3236 H 316.921 1.04596 1.33633 0
M  V30 3237 H 315.693 2.1415 3.27499 0
M  V30 3238 H 315.316 0.559191 3.93648 0
M  V30 3239 N 316.313 -1.40141 0.720998 0
M  V30 3240 C 317.562 -2.0002 0.259804 0
M  V30 3241 C 317.875 -1.57839 -1.15526 0
M  V30 3242 O 319.081 -2.10455 -1.71525 0
M  V30 3243 C 317.537 -3.57516 0.413566 0
M  V30 3244 C 317.145 -4.08667 1.83562 0
M  V30 3245 C 318.889 -4.24498 0.0134387 0
M  V30 3246 C 316.796 -5.58686 1.93968 0
M  V30 3247 H 315.726 -0.748195 0.0933806 0
M  V30 3248 H 318.377 -1.60313 0.892866 0
M  V30 3249 H 316.759 -3.9495 -0.288169 0
M  V30 3250 H 317.933 -3.82598 2.56817 0
M  V30 3251 H 316.248 -3.543 2.1877 0
M  V30 3252 H 318.845 -5.34654 0.0703954 0
M  V30 3253 H 319.188 -4.03375 -1.02927 0
M  V30 3254 H 319.721 -3.92188 0.665815 0
M  V30 3255 H 316.46 -5.8467 2.96379 0
M  V30 3256 H 315.98 -5.86602 1.25131 0
M  V30 3257 H 317.659 -6.23875 1.71431 0
M  V30 3258 N 317.792 -0.46758 -1.50504 0
M  V30 3259 C 319.069 0.15003 -1.95024 0
M  V30 3260 C 319.449 1.57304 -1.40779 0
M  V30 3261 O 318.797 2.20281 -0.607319 0
M  V30 3262 C 319.007 0.0969324 -3.48865 0
M  V30 3263 C 320.355 0.287565 -4.23625 0
M  V30 3264 O 321.379 0.173678 -3.55776 0
M  V30 3265 O 320.238 0.517186 -5.44047 0
M  V30 3266 H 317.332 0.113582 -0.819163 0
M  V30 3267 H 319.878 -0.52773 -1.61286 0
M  V30 3268 H 318.65 -0.896732 -3.80886 0
M  V30 3269 H 318.273 0.816303 -3.8913 0
M  V30 3270 N 319.27 1.56325 -0.20005 0
M  V30 3271 C 320.516 1.98012 0.438059 0
M  V30 3272 C 320.849 1.08702 1.60927 0
M  V30 3273 O 320.124 0.140064 1.93995 0
M  V30 3274 C 320.407 3.48841 0.893419 0
M  V30 3275 C 320.26 4.48928 -0.279947 0
M  V30 3276 C 321.579 4.03498 1.75719 0
M  V30 3277 H 318.698 0.719918 0.157757 0
M  V30 3278 H 321.34 1.87743 -0.291968 0
M  V30 3279 H 319.49 3.57723 1.51547 0
M  V30 3280 H 321.162 4.52079 -0.91772 0
M  V30 3281 H 319.405 4.23694 -0.930919 0
M  V30 3282 H 320.076 5.5194 0.0812601 0
M  V30 3283 H 322.552 3.97427 1.23253 0
M  V30 3284 H 321.428 5.09393 2.04476 0
M  V30 3285 H 321.689 3.4906 2.71311 0
M  V30 3286 N 320.748 -0.0735177 1.57428 0
M  V30 3287 C 321.997 -0.771809 1.86349 0
M  V30 3288 C 322.31 -1.78828 0.792452 0
M  V30 3289 O 323.516 -2.53602 0.96945 0
M  V30 3290 C 321.972 -1.42358 3.30548 0
M  V30 3291 C 321.58 -0.445761 4.45777 0
M  V30 3292 C 323.324 -2.10434 3.6867 0
M  V30 3293 C 321.231 -1.10335 5.81016 0
M  V30 3294 H 320.161 -0.291999 0.695164 0
M  V30 3295 H 322.812 -0.0250749 1.83483 0
M  V30 3296 H 321.194 -2.21852 3.28021 0
M  V30 3297 H 322.368 0.319239 4.59693 0
M  V30 3298 H 320.683 0.130457 4.16196 0
M  V30 3299 H 323.28 -2.60405 4.67004 0
M  V30 3300 H 323.623 -2.90298 2.98383 0
M  V30 3301 H 324.156 -1.37773 3.7318 0
M  V30 3302 H 320.895 -0.345061 6.54591 0
M  V30 3303 H 320.415 -1.83925 5.70904 0
M  V30 3304 H 322.094 -1.62367 6.26295 0
M  V30 3305 N 322.226 -1.5378 -0.344866 0
M  V30 3306 C 323.156 -1.84662 -1.42906 0
M  V30 3307 C 324.137 -0.701648 -1.54955 0
M  V30 3308 O 325.322 -0.953438 -1.69184 0
M  V30 3309 C 322.452 -2.05503 -2.79974 0
M  V30 3310 C 321.406 -3.21318 -2.82734 0
M  V30 3311 C 320.732 -3.2749 -4.22675 0
M  V30 3312 C 322.032 -4.59456 -2.48389 0
M  V30 3313 H 323.726 -2.75461 -1.17311 0
M  V30 3314 H 321.272 -1.32542 -0.562896 0
M  V30 3315 H 323.225 -2.25691 -3.55867 0
M  V30 3316 H 321.949 -1.11434 -3.07002 0
M  V30 3317 H 320.608 -3.00984 -2.09294 0
M  V30 3318 H 320.256 -2.31019 -4.4681 0
M  V30 3319 H 319.956 -4.05316 -4.25433 0
M  V30 3320 H 321.48 -3.49887 -5.00412 0
M  V30 3321 H 322.894 -4.79667 -3.13995 0
M  V30 3322 H 321.291 -5.39675 -2.62432 0
M  V30 3323 H 322.361 -4.63155 -1.4358 0
M  V30 3324 N 323.704 0.605807 -1.45491 0
M  V30 3325 C 324.952 1.36207 -1.49305 0
M  V30 3326 C 325.273 1.94519 -0.136863 0
M  V30 3327 O 324.543 1.77261 0.833983 0
M  V30 3328 H 323.123 0.50565 -0.549843 0
M  V30 3329 H 325.785 0.711239 -1.81459 0
M  V30 3330 H 324.881 2.18058 -2.23287 0
M  V30 3331 N 325.182 1.32811 0.848464 0
M  V30 3332 C 326.43 1.23479 1.59991 0
M  V30 3333 C 326.751 -0.201853 1.93952 0
M  V30 3334 O 326.021 -1.12818 1.60153 0
M  V30 3335 H 324.601 0.454034 0.593179 0
M  V30 3336 H 327.263 1.66412 1.01455 0
M  V30 3337 H 326.359 1.82178 2.53412 0
M  V30 3338 N 326.66 -1.06551 1.16123 0
M  V30 3339 C 327.908 -1.78947 0.939267 0
M  V30 3340 C 328.229 -1.87532 -0.534476 0
M  V30 3341 O 327.499 -1.38211 -1.38833 0
M  V30 3342 H 326.079 -0.662807 0.344523 0
M  V30 3343 H 328.741 -1.28725 1.46342 0
M  V30 3344 H 327.837 -2.81117 1.35572 0
M  V30 3345 N 328.138 -0.959301 -1.25041 0
M  V30 3346 C 329.554 -0.664474 -1.4511 0
M  V30 3347 C 329.754 0.776481 -1.85938 0
M  V30 3348 O 328.81 1.55128 -1.99227 0
M  V30 3349 C 330.123 -1.64139 -2.5195 0
M  V30 3350 C 331.671 -1.65309 -2.65786 0
M  V30 3351 C 332.146 -2.61777 -3.75815 0
M  V30 3352 N 333.637 -2.60169 -3.83231 0
M  V30 3353 C 334.372 -3.31489 -4.6787 0
M  V30 3354 N 333.868 -4.12298 -5.56761 0
M  V30 3355 N 335.661 -3.20354 -4.61876 0
M  V30 3356 H 327.812 -1.89043 -0.968332 0
M  V30 3357 H 330.075 -0.813408 -0.4869 0
M  V30 3358 H 329.781 -2.67086 -2.28819 0
M  V30 3359 H 329.655 -1.40756 -3.49954 0
M  V30 3360 H 332.042 -0.630778 -2.8828 0
M  V30 3361 H 332.123 -1.92753 -1.68167 0
M  V30 3362 H 331.767 -3.64137 -3.54071 0
M  V30 3363 H 331.697 -2.31616 -4.72929 0
M  V30 3364 H 334.188 -2.01507 -3.19692 0
M  V30 3365 H 334.501 -4.63625 -6.18281 0
M  V30 3366 H 332.846 -4.16395 -5.56454 0
M  V30 3367 H 336.037 -2.56692 -3.91442 0
M  V30 3368 H 336.21 -3.76201 -5.27614 0
M  V30 3369 N 329.616 1.39756 -0.72842 0
M  V30 3370 C 330.563 2.30647 -0.0841519 0
M  V30 3371 C 331.533 1.48869 0.7367 0
M  V30 3372 O 332.718 1.77574 0.698015 0
M  V30 3373 C 329.858 3.35165 0.822091 0
M  V30 3374 C 328.971 4.31999 -0.0106663 0
M  V30 3375 C 328.106 5.23585 0.896241 0
M  V30 3376 C 327.145 6.12072 0.0583381 0
M  V30 3377 N 326.282 6.96035 0.920818 0
M  V30 3378 H 331.122 2.85173 -0.864891 0
M  V30 3379 H 328.659 1.40422 -0.438179 0
M  V30 3380 H 330.617 3.94345 1.36189 0
M  V30 3381 H 329.247 2.8211 1.56888 0
M  V30 3382 H 328.299 3.74492 -0.66781 0
M  V30 3383 H 329.611 4.9443 -0.658825 0
M  V30 3384 H 328.765 5.87759 1.50412 0
M  V30 3385 H 327.504 4.61459 1.57819 0
M  V30 3386 H 326.509 5.46916 -0.562389 0
M  V30 3387 H 327.734 6.76261 -0.6203 0
M  V30 3388 H 325.68 6.36485 1.58818 0
M  V30 3389 H 325.597 7.55284 0.32899 0
M  V30 3390 H 326.865 7.64646 1.51447 0
M  V30 3391 N 331.094 0.475555 1.50254 0
M  V30 3392 C 332.324 -0.0753399 2.06463 0
M  V30 3393 C 332.732 -1.33661 1.33908 0
M  V30 3394 O 332.075 -1.79219 0.403257 0
M  V30 3395 C 332.137 -0.424921 3.5698 0
M  V30 3396 C 331.801 0.734965 4.51051 0
M  V30 3397 C 332.798 1.61827 4.94073 0
M  V30 3398 C 330.483 0.926557 4.9368 0
M  V30 3399 C 332.477 2.67754 5.78434 0
M  V30 3400 C 330.164 1.98904 5.77824 0
M  V30 3401 C 331.162 2.8629 6.20103 0
M  V30 3402 O 330.85 3.90708 7.02568 0
M  V30 3403 H 330.582 0.00576308 0.675975 0
M  V30 3404 H 333.136 0.664662 1.94349 0
M  V30 3405 H 331.366 -1.21817 3.67012 0
M  V30 3406 H 333.055 -0.911422 3.95535 0
M  V30 3407 H 333.821 1.48196 4.61804 0
M  V30 3408 H 329.7 0.25584 4.6029 0
M  V30 3409 H 333.244 3.35992 6.11355 0
M  V30 3410 H 329.141 2.12541 6.09505 0
M  V30 3411 H 329.909 3.87751 7.20827 0
M  V30 3412 N 332.573 -1.56217 0.208337 0
M  V30 3413 C 333.506 -2.15633 -0.746842 0
M  V30 3414 C 334.484 -1.09685 -1.20034 0
M  V30 3415 O 335.668 -1.3787 -1.28547 0
M  V30 3416 C 332.795 -2.72594 -2.01023 0
M  V30 3417 C 331.841 -3.91251 -1.69779 0
M  V30 3418 S 332.674 -5.28962 -0.834209 0
M  V30 3419 C 333.83 -5.89353 -2.10745 0
M  V30 3420 H 334.063 -2.96315 -0.241789 0
M  V30 3421 H 331.596 -1.54398 -0.00682183 0
M  V30 3422 H 333.554 -3.06053 -2.73572 0
M  V30 3423 H 332.215 -1.91929 -2.48641 0
M  V30 3424 H 331.408 -4.29562 -2.63614 0
M  V30 3425 H 331.01 -3.58869 -1.05303 0
M  V30 3426 H 333.302 -6.04522 -3.05875 0
M  V30 3427 H 334.245 -6.85661 -1.76845 0
M  V30 3428 H 334.653 -5.1807 -2.24196 0
M  V30 3429 N 334.051 0.0651679 -1.57465 0
M  V30 3430 C 335.298 0.763063 -1.87573 0
M  V30 3431 C 335.626 1.77242 -0.800961 0
M  V30 3432 O 334.881 1.94651 0.202316 0
M  V30 3433 C 335.18 1.50081 -3.24362 0
M  V30 3434 C 334.846 0.630816 -4.46466 0
M  V30 3435 C 333.508 0.391082 -4.79608 0
M  V30 3436 C 335.86 0.0279465 -5.21193 0
M  V30 3437 C 333.188 -0.460894 -5.84887 0
M  V30 3438 C 335.54 -0.811522 -6.27373 0
M  V30 3439 C 334.204 -1.06106 -6.59013 0
M  V30 3440 H 333.474 0.279224 -0.686378 0
M  V30 3441 H 336.121 0.0236726 -1.91485 0
M  V30 3442 H 334.426 2.31258 -3.16271 0
M  V30 3443 H 336.123 2.04571 -3.44894 0
M  V30 3444 H 332.713 0.8278 -4.2053 0
M  V30 3445 H 336.897 0.200262 -4.95896 0
M  V30 3446 H 332.153 -0.662907 -6.07796 0
M  V30 3447 H 336.327 -1.28537 -6.84435 0
M  V30 3448 H 333.954 -1.723 -7.40417 0
M  V30 3449 N 335.529 1.53961 0.336706 0
M  V30 3450 C 336.94 1.62914 0.911925 0
M  V30 3451 C 337.291 0.514795 1.89326 0
M  V30 3452 O 336.416 -0.354395 2.13478 0
M  V30 3453 C 337.011 2.95304 1.66076 0
M  V30 3454 C 335.57 3.06496 2.18489 0
M  V30 3455 C 334.717 2.58403 1.00613 0
M  V30 3456 H 337.668 1.58285 0.114649 0
M  V30 3457 H 337.689 2.84727 2.5241 0
M  V30 3458 H 337.201 3.76387 0.946276 0
M  V30 3459 H 335.302 2.3006 2.93092 0
M  V30 3460 H 335.415 4.1208 2.44391 0
M  V30 3461 H 333.779 2.13977 1.38152 0
M  V30 3462 H 334.562 3.41932 0.306179 0
M  V30 3463 N 337.007 -0.598083 1.45811 0
M  V30 3464 C 337.94 -1.7223 1.49706 0
M  V30 3465 C 338.918 -1.58732 0.352535 0
M  V30 3466 O 340.102 -1.80162 0.554438 0
M  V30 3467 C 337.229 -3.10148 1.3611 0
M  V30 3468 C 336.275 -3.42209 2.54549 0
M  V30 3469 S 337.108 -3.35989 4.16979 0
M  V30 3470 C 338.264 -4.76471 4.05865 0
M  V30 3471 H 338.497 -1.68665 2.44826 0
M  V30 3472 H 336.03 -0.775541 1.33509 0
M  V30 3473 H 337.988 -3.8972 1.28953 0
M  V30 3474 H 336.649 -3.11219 0.424451 0
M  V30 3475 H 335.842 -4.42652 2.40988 0
M  V30 3476 H 335.444 -2.70173 2.58617 0
M  V30 3477 H 337.736 -5.665 3.71596 0
M  V30 3478 H 338.679 -4.95089 5.06253 0
M  V30 3479 H 339.087 -4.52599 3.37364 0
M  V30 3480 N 338.485 -1.33259 -0.841409 0
M  V30 3481 C 339.733 -1.24326 -1.59334 0
M  V30 3482 C 340.054 0.191564 -1.94057 0
M  V30 3483 O 339.324 1.11967 -1.60749 0
M  V30 3484 H 337.904 -0.457174 -0.590763 0
M  V30 3485 H 340.566 -1.66947 -1.00571 0
M  V30 3486 H 339.662 -1.8352 -2.52442 0
M  V30 3487 N 339.963 1.05934 -1.16686 0
M  V30 3488 C 341.191 1.8249 -0.974929 0
M  V30 3489 C 341.606 1.82679 0.476861 0
M  V30 3490 O 340.963 1.2486 1.33103 0
M  V30 3491 C 341.014 3.28943 -1.49929 0
M  V30 3492 O 340.735 3.28886 -2.89423 0
M  V30 3493 C 342.236 4.22215 -1.35089 0
M  V30 3494 H 339.456 0.575295 -0.345365 0
M  V30 3495 H 342 1.33631 -1.548 0
M  V30 3496 H 340.155 3.751 -0.968423 0
M  V30 3497 H 340.569 4.20493 -3.13506 0
M  V30 3498 H 342.043 5.22987 -1.76603 0
M  V30 3499 H 342.52 4.38195 -0.296935 0
M  V30 3500 H 343.126 3.81907 -1.87155 0
M  V30 3501 N 341.441 0.965919 1.2453 0
M  V30 3502 C 342.852 0.665929 1.7442 0
M  V30 3503 C 343.203 -0.818407 1.78316 0
M  V30 3504 O 342.328 -1.64037 1.41141 0
M  V30 3505 C 342.923 1.20211 3.16757 0
M  V30 3506 C 341.482 0.952059 3.6416 0
M  V30 3507 C 340.629 1.33848 2.42858 0
M  V30 3508 H 343.58 1.14144 1.10258 0
M  V30 3509 H 343.601 0.567544 3.76244 0
M  V30 3510 H 343.113 2.28244 3.13889 0
M  V30 3511 H 341.214 -0.112821 3.72429 0
M  V30 3512 H 341.327 1.59645 4.51719 0
M  V30 3513 H 339.691 0.756864 2.43195 0
M  V30 3514 H 340.474 2.42827 2.42673 0
M  V30 3515 N 342.919 -1.39368 0.735821 0
M  V30 3516 C 344.196 -1.94465 0.210395 0
M  V30 3517 C 344.576 -1.67254 -1.28799 0
M  V30 3518 O 343.924 -1.00123 -2.05396 0
M  V30 3519 C 344.134 -3.4472 0.544897 0
M  V30 3520 C 345.482 -4.21708 0.494689 0
M  V30 3521 O 346.506 -3.52922 0.482136 0
M  V30 3522 O 345.365 -5.44299 0.489947 0
M  V30 3523 H 342.459 -0.826096 0.0386666 0
M  V30 3524 H 345.005 -1.48863 0.814735 0
M  V30 3525 H 343.777 -3.57963 1.58045 0
M  V30 3526 H 343.4 -3.97502 -0.08837 0
M  V30 3527 N 344.397 -0.483516 -1.5 0
M  V30 3528 C 345.808 -0.0314176 -1.86674 0
M  V30 3529 C 346.159 1.37728 -1.39733 0
M  V30 3530 O 345.284 2.02327 -0.767635 0
M  V30 3531 C 345.879 -0.0502376 -3.38763 0
M  V30 3532 C 344.438 0.346442 -3.74802 0
M  V30 3533 C 343.585 -0.430366 -2.7394 0
M  V30 3534 H 346.536 -0.697182 -1.42566 0
M  V30 3535 H 346.557 0.749116 -3.73053 0
M  V30 3536 H 346.069 -1.07563 -3.72897 0
M  V30 3537 H 344.17 1.37572 -3.46273 0
M  V30 3538 H 344.283 0.0391486 -4.79084 0
M  V30 3539 H 342.647 0.117557 -2.54429 0
M  V30 3540 H 343.43 -1.4555 -3.10918 0
M  V30 3541 N 345.875 1.56104 -0.216619 0
M  V30 3542 C 346.785 2.23694 0.706982 0
M  V30 3543 C 347.801 1.24295 1.21765 0
M  V30 3544 O 348.977 1.57094 1.2603 0
M  V30 3545 C 346.042 2.8998 1.90033 0
M  V30 3546 C 345.103 4.04708 1.43213 0
M  V30 3547 C 344.336 4.67824 2.56859 0
M  V30 3548 O 344.559 4.29913 3.74874 0
M  V30 3549 O 343.493 5.56905 2.28343 0
M  V30 3550 H 347.319 3.03272 0.161235 0
M  V30 3551 H 344.904 1.49394 0.0136177 0
M  V30 3552 H 346.786 3.31837 2.59735 0
M  V30 3553 H 345.461 2.13365 2.43428 0
M  V30 3554 H 344.368 3.6743 0.70327 0
M  V30 3555 H 345.701 4.83051 0.944615 0
M  V30 3556 N 347.353 -0.0568162 1.57498 0
M  V30 3557 C 348.583 -0.764515 1.91934 0
M  V30 3558 C 348.991 -1.70877 0.81227 0
M  V30 3559 O 348.334 -1.82351 -0.222213 0
M  V30 3560 C 348.396 -1.5994 3.21962 0
M  V30 3561 C 348.06 -0.822925 4.4953 0
M  V30 3562 C 349.057 -0.135464 5.19723 0
M  V30 3563 C 346.742 -0.785666 4.96117 0
M  V30 3564 C 348.736 0.578861 6.34766 0
M  V30 3565 C 346.423 -0.0675784 6.11063 0
M  V30 3566 C 347.421 0.613471 6.80239 0
M  V30 3567 O 347.109 1.31996 7.92989 0
M  V30 3568 H 346.841 -0.221647 0.63863 0
M  V30 3569 H 349.395 -0.0268218 2.05382 0
M  V30 3570 H 347.625 -2.38026 3.04763 0
M  V30 3571 H 349.314 -2.18715 3.41934 0
M  V30 3572 H 350.08 -0.155458 4.84751 0
M  V30 3573 H 345.959 -1.30524 4.42136 0
M  V30 3574 H 349.503 1.111 6.88696 0
M  V30 3575 H 345.4 -0.0455636 6.45484 0
M  V30 3576 H 346.168 1.23077 8.09194 0
M  V30 3577 N 348.832 -1.54138 -0.328536 0
M  V30 3578 C 350.243 -1.63395 -0.903272 0
M  V30 3579 C 350.594 -0.524828 -1.8905 0
M  V30 3580 O 349.719 0.343068 -2.13663 0
M  V30 3581 C 350.314 -2.9618 -1.64507 0
M  V30 3582 C 348.873 -3.0765 -2.1686 0
M  V30 3583 C 348.02 -2.58933 -0.992416 0
M  V30 3584 H 350.971 -1.58344 -0.106253 0
M  V30 3585 H 350.992 -2.86061 -2.50897 0
M  V30 3586 H 350.504 -3.76884 -0.926302 0
M  V30 3587 H 348.605 -2.31611 -2.91868 0
M  V30 3588 H 348.718 -4.1337 -2.42202 0
M  V30 3589 H 347.082 -2.14706 -1.37016 0
M  V30 3590 H 347.865 -3.42089 -0.288041 0
M  V30 3591 N 350.31 0.590341 -1.46126 0
M  V30 3592 C 351.587 1.35029 -1.41515 0
M  V30 3593 C 351.967 2.10888 -0.0946472 0
M  V30 3594 O 351.315 2.08998 0.923693 0
M  V30 3595 C 351.525 2.28269 -2.63997 0
M  V30 3596 C 352.873 2.90338 -3.09821 0
M  V30 3597 O 353.897 2.38585 -2.64492 0
M  V30 3598 O 352.756 3.84321 -3.88535 0
M  V30 3599 H 349.85 0.606317 -0.562413 0
M  V30 3600 H 352.396 0.611994 -1.58281 0
M  V30 3601 H 351.168 1.71591 -3.51671 0
M  V30 3602 H 350.791 3.0945 -2.49652 0
M  V30 3603 N 351.788 1.33704 0.83433 0
M  V30 3604 C 353.065 1.16011 1.57483 0
M  V30 3605 C 353.445 -0.27176 2.09343 0
M  V30 3606 O 352.793 -1.27146 1.89858 0
M  V30 3607 C 353.003 2.20507 2.70514 0
M  V30 3608 C 354.351 2.54898 3.39577 0
M  V30 3609 O 355.375 2.19209 2.80759 0
M  V30 3610 O 354.234 3.16158 4.45765 0
M  V30 3611 H 351.328 0.448992 0.694503 0
M  V30 3612 H 353.874 1.453 0.876691 0
M  V30 3613 H 352.646 3.16667 2.29865 0
M  V30 3614 H 352.269 1.92329 3.47987 0
M  V30 3615 N 353.266 -1.05314 1.17247 0
M  V30 3616 C 354.496 -1.81707 0.983166 0
M  V30 3617 C 354.904 -1.83222 -0.471822 0
M  V30 3618 O 354.247 -1.25721 -1.3394 0
M  V30 3619 C 354.309 -3.29134 1.44606 0
M  V30 3620 C 353.973 -3.51304 2.92292 0
M  V30 3621 C 354.97 -3.4353 3.90235 0
M  V30 3622 C 352.655 -3.78306 3.30439 0
M  V30 3623 C 354.649 -3.62442 5.24323 0
M  V30 3624 C 352.336 -3.96866 4.64694 0
M  V30 3625 C 353.334 -3.88933 5.61445 0
M  V30 3626 O 353.022 -4.06976 6.93272 0
M  V30 3627 H 352.754 -0.579476 0.348114 0
M  V30 3628 H 355.308 -1.33705 1.55924 0
M  V30 3629 H 353.538 -3.78046 0.813537 0
M  V30 3630 H 355.227 -3.87049 1.22262 0
M  V30 3631 H 355.993 -3.22648 3.62109 0
M  V30 3632 H 351.872 -3.83585 2.55702 0
M  V30 3633 H 355.416 -3.56165 5.99827 0
M  V30 3634 H 351.313 -4.1724 4.92525 0
M  V30 3635 H 352.081 -4.24209 6.99992 0
M  V30 3636 N 354.744 -0.972509 -1.24016 0
M  V30 3637 C 355.969 -0.654417 -1.96805 0
M  V30 3638 C 356.394 0.770398 -1.716 0
M  V30 3639 O 355.752 1.52361 -0.982647 0
M  V30 3640 C 355.8 -0.941031 -3.48105 0
M  V30 3641 O 354.904 -0.0289472 -4.1239 0
M  V30 3642 H 354.245 -0.24692 -0.616382 0
M  V30 3643 H 356.775 -1.30396 -1.57664 0
M  V30 3644 H 356.785 -0.87452 -3.98517 0
M  V30 3645 H 355.46 -1.97939 -3.65777 0
M  V30 3646 H 354.037 -0.149192 -3.72601 0
M  V30 3647 N 356.222 1.38976 -0.743202 0
M  V30 3648 C 357.154 2.29096 -0.0689228 0
M  V30 3649 C 358.167 1.47229 0.694791 0
M  V30 3650 O 359.356 1.70212 0.537597 0
M  V30 3651 C 356.456 3.25988 0.926548 0
M  V30 3652 C 355.629 4.36833 0.222647 0
M  V30 3653 C 354.688 5.13981 1.12739 0
M  V30 3654 O 353.714 5.6601 0.601795 0
M  V30 3655 N 354.916 5.25966 2.45641 0
M  V30 3656 H 357.681 2.87604 -0.842846 0
M  V30 3657 H 355.242 1.50645 -0.593109 0
M  V30 3658 H 357.234 3.74476 1.5346 0
M  V30 3659 H 355.804 2.68453 1.60162 0
M  V30 3660 H 355.024 3.90116 -0.565983 0
M  V30 3661 H 356.312 5.0811 -0.264841 0
M  V30 3662 H 355.71 4.85228 2.9081 0
M  V30 3663 H 354.267 5.77865 3.01522 0
M  V30 3664 N 357.7 0.491464 1.49741 0
M  V30 3665 C 358.948 -0.0563141 2.02022 0
M  V30 3666 C 359.269 -1.38363 1.37407 0
M  V30 3667 O 358.539 -1.88702 0.526166 0
M  V30 3668 H 357.119 -0.0238014 0.746621 0
M  V30 3669 H 359.781 0.646533 1.83864 0
M  V30 3670 H 358.877 -0.192967 3.11503 0
M  V30 3671 N 359.178 -1.55987 0.224894 0
M  V30 3672 C 360.426 -1.97998 -0.405099 0
M  V30 3673 C 360.747 -1.11387 -1.60056 0
M  V30 3674 O 360.017 -0.191645 -1.9496 0
M  V30 3675 H 358.597 -0.731235 -0.152658 0
M  V30 3676 H 361.259 -1.92279 0.318567 0
M  V30 3677 H 360.355 -3.03463 -0.729167 0
M  V30 3678 N 360.656 0.0484629 -1.57525 0
M  V30 3679 C 361.884 0.755421 -1.92616 0
M  V30 3680 C 362.299 1.69919 -0.822984 0
M  V30 3681 O 361.656 1.81378 0.202085 0
M  V30 3682 C 361.707 1.52915 -3.27566 0
M  V30 3683 O 361.428 0.62329 -4.33644 0
M  V30 3684 C 362.929 2.33502 -3.76818 0
M  V30 3685 H 360.149 0.213465 -0.63614 0
M  V30 3686 H 362.693 0.0117698 -2.04497 0
M  V30 3687 H 360.848 2.22486 -3.17142 0
M  V30 3688 H 361.262 1.16383 -5.11425 0
M  V30 3689 H 362.736 2.83214 -4.73808 0
M  V30 3690 H 363.213 3.14068 -3.07014 0
M  V30 3691 H 363.819 1.69043 -3.90262 0
M  V30 3692 N 362.134 1.5431 0.320358 0
M  V30 3693 C 363.55 1.45091 0.664889 0
M  V30 3694 C 363.75 0.626382 1.91517 0
M  V30 3695 O 362.806 0.126443 2.52183 0
M  V30 3696 C 364.119 2.88848 0.83591 0
M  V30 3697 C 365.667 2.9877 0.933046 0
M  V30 3698 C 366.142 4.43683 1.13621 0
M  V30 3699 N 367.633 4.47309 1.20287 0
M  V30 3700 C 368.368 5.56595 1.37801 0
M  V30 3701 N 367.864 6.75844 1.52338 0
M  V30 3702 N 369.657 5.44248 1.40535 0
M  V30 3703 H 361.808 2.06398 -0.501374 0
M  V30 3704 H 364.071 0.933963 -0.162534 0
M  V30 3705 H 363.777 3.51698 -0.0116092 0
M  V30 3706 H 363.651 3.35148 1.73078 0
M  V30 3707 H 366.038 2.36045 1.77107 0
M  V30 3708 H 366.119 2.55796 0.0145782 0
M  V30 3709 H 365.763 5.06995 0.303032 0
M  V30 3710 H 365.693 4.84269 2.0686 0
M  V30 3711 H 368.184 3.61388 1.10485 0
M  V30 3712 H 368.497 7.54892 1.65403 0
M  V30 3713 H 366.842 6.78746 1.4943 0
M  V30 3714 H 370.033 4.50038 1.28777 0
M  V30 3715 H 370.206 6.29473 1.53842 0
M  V30 3716 N 363.613 -0.582584 1.46437 0
M  V30 3717 C 364.543 -1.70187 1.59871 0
M  V30 3718 C 365.524 -1.64066 0.449042 0
M  V30 3719 O 366.709 -1.82081 0.6753 0
M  V30 3720 C 363.839 -3.08827 1.58881 0
M  V30 3721 C 362.793 -3.29779 2.72819 0
M  V30 3722 C 362.119 -4.68947 2.5689 0
M  V30 3723 C 363.419 -3.17601 4.1464 0
M  V30 3724 H 365.113 -1.592 2.53566 0
M  V30 3725 H 362.659 -0.764472 1.22032 0
M  V30 3726 H 364.612 -3.86951 1.66873 0
M  V30 3727 H 363.336 -3.20713 0.617306 0
M  V30 3728 H 361.995 -2.54054 2.64296 0
M  V30 3729 H 361.643 -4.77599 1.57823 0
M  V30 3730 H 361.343 -4.83919 3.33312 0
M  V30 3731 H 362.867 -5.4924 2.66773 0
M  V30 3732 H 364.281 -3.8557 4.24274 0
M  V30 3733 H 362.678 -3.44094 4.9165 0
M  V30 3734 H 363.748 -2.14681 4.34788 0
M  V30 3735 N 365.091 -1.34144 -0.827227 0
M  V30 3736 C 366.368 -1.16844 -1.56865 0
M  V30 3737 C 366.748 0.260654 -2.09485 0
M  V30 3738 O 366.096 1.26138 -1.9053 0
M  V30 3739 C 366.306 -2.21939 -2.6934 0
M  V30 3740 C 367.654 -2.56695 -3.3822 0
M  V30 3741 O 368.678 -2.20695 -2.79593 0
M  V30 3742 O 367.537 -3.18518 -4.44082 0
M  V30 3743 H 364.631 -0.452669 -0.692112 0
M  V30 3744 H 367.177 -1.45763 -0.868973 0
M  V30 3745 H 365.949 -3.17882 -2.28182 0
M  V30 3746 H 365.572 -1.94172 -3.46962 0
M  V30 3747 N 366.569 1.04691 -1.17803 0
M  V30 3748 C 367.817 1.7743 -0.967617 0
M  V30 3749 C 368.138 1.88359 0.504574 0
M  V30 3750 O 367.408 1.40402 1.36617 0
M  V30 3751 H 365.988 0.657242 -0.355024 0
M  V30 3752 H 368.65 1.2638 -1.48371 0
M  V30 3753 H 367.746 2.78924 -1.40027 0
M  V30 3754 N 368.047 0.979072 1.23499 0
M  V30 3755 C 368.994 0.517904 2.24914 0
M  V30 3756 C 369.964 -0.442525 1.60097 0
M  V30 3757 O 371.149 -0.350365 1.87556 0
M  V30 3758 C 368.289 -0.174813 3.44657 0
M  V30 3759 C 367.402 0.825721 4.24035 0
M  V30 3760 C 366.537 0.107946 5.3109 0
M  V30 3761 C 365.576 1.09778 6.02175 0
M  V30 3762 N 364.713 0.40925 7.00906 0
M  V30 3763 H 369.553 1.38751 2.63727 0
M  V30 3764 H 367.09 0.695303 1.2963 0
M  V30 3765 H 369.048 -0.593233 4.12961 0
M  V30 3766 H 367.678 -1.0083 3.06648 0
M  V30 3767 H 366.73 1.36253 3.55161 0
M  V30 3768 H 368.042 1.58005 4.73113 0
M  V30 3769 H 367.196 -0.367904 6.05583 0
M  V30 3770 H 365.935 -0.678994 4.8295 0
M  V30 3771 H 364.94 1.5844 5.26476 0
M  V30 3772 H 366.165 1.88536 6.52404 0
M  V30 3773 H 364.111 -0.358506 6.5502 0
M  V30 3774 H 364.028 1.10226 7.47921 0
M  V30 3775 H 365.296 -0.0442557 7.79487 0
M  V30 3776 N 369.525 -1.3858 0.750561 0
M  V30 3777 C 370.473 -2.32339 0.110162 0
M  V30 3778 C 371.467 -1.53864 -0.708674 0
M  V30 3779 O 372.673 -1.69417 -0.608112 0
M  V30 3780 H 369.048 -0.751812 0.0168275 0
M  V30 3781 H 371.019 -2.83959 0.917053 0
M  V30 3782 C 369.768 -3.39043 -0.771067 0
M  V30 3783 H 369.091 -3.99517 -0.150374 0
M  V30 3784 H 370.531 -4.07061 -1.1865 0
M  V30 3785 C 368.99 -2.77365 -1.91234 0
M  V30 3786 O 369.52 -2.66434 -3.00626 0
M  V30 3787 N 367.726 -2.35219 -1.70646 0
M  V30 3788 H 367.273 -2.4431 -0.81673 0
M  V30 3789 H 367.231 -1.94294 -2.47178 0
M  V30 3790 N 371.003 -0.499398 -1.49478 0
M  V30 3791 C 371.933 0.269244 -2.31943 0
M  V30 3792 C 372.914 0.964054 -1.40143 0
M  V30 3793 O 374.099 0.955767 -1.69052 0
M  V30 3794 C 371.229 1.33504 -3.20615 0
M  V30 3795 C 370.183 0.760202 -4.21195 0
M  V30 3796 C 369.509 1.9264 -4.98792 0
M  V30 3797 C 370.809 -0.247661 -5.21712 0
M  V30 3798 H 372.503 -0.419082 -2.96452 0
M  V30 3799 H 370.049 -0.202988 -1.42562 0
M  V30 3800 H 372.002 1.88048 -3.77115 0
M  V30 3801 H 370.726 2.05253 -2.54045 0
M  V30 3802 H 369.385 0.23653 -3.65836 0
M  V30 3803 H 369.033 2.63154 -4.28671 0
M  V30 3804 H 368.733 1.54785 -5.66847 0
M  V30 3805 H 370.257 2.4762 -5.58137 0
M  V30 3806 H 371.671 0.209579 -5.72917 0
M  V30 3807 H 370.068 -0.541962 -5.97648 0
M  V30 3808 H 371.138 -1.16409 -4.7072 0
M  V30 3809 N 372.481 1.55866 -0.233164 0
M  V30 3810 C 373.727 1.98897 0.395959 0
M  V30 3811 C 374.06 1.12091 1.58585 0
M  V30 3812 O 373.335 0.181182 1.93654 0
M  V30 3813 C 373.618 3.50658 0.819224 0
M  V30 3814 C 373.471 4.48233 -0.375109 0
M  V30 3815 C 374.79 4.07135 1.67121 0
M  V30 3816 H 371.909 0.723102 0.142451 0
M  V30 3817 H 374.551 1.87082 -0.331725 0
M  V30 3818 H 372.701 3.60857 1.43925 0
M  V30 3819 H 374.373 4.50031 -1.01341 0
M  V30 3820 H 372.616 4.21624 -1.02058 0
M  V30 3821 H 373.287 5.51988 -0.0358328 0
M  V30 3822 H 375.763 3.99952 1.14795 0
M  V30 3823 H 374.639 5.13615 1.93625 0
M  V30 3824 H 374.9 3.54736 2.63846 0
M  V30 3825 N 373.959 -0.0401083 1.57549 0
M  V30 3826 C 374.891 -1.07149 2.02612 0
M  V30 3827 C 375.904 -1.33126 0.937085 0
M  V30 3828 O 377.093 -1.30808 1.21456 0
M  V30 3829 C 374.193 -2.41561 2.37701 0
M  V30 3830 C 373.366 -2.35096 3.68848 0
M  V30 3831 C 372.425 -3.51867 3.91249 0
M  V30 3832 O 371.451 -3.3186 4.62447 0
M  V30 3833 N 372.653 -4.73351 3.36035 0
M  V30 3834 H 375.418 -0.687485 2.91708 0
M  V30 3835 H 372.979 -0.228248 1.60283 0
M  V30 3836 H 374.971 -3.18379 2.49833 0
M  V30 3837 H 373.541 -2.71846 1.54332 0
M  V30 3838 H 372.761 -1.4345 3.67173 0
M  V30 3839 H 374.049 -2.27908 4.54901 0
M  V30 3840 H 373.447 -4.92507 2.78304 0
M  V30 3841 H 372.004 -5.47572 3.53565 0
M  V30 3842 N 375.437 -1.54477 -0.31217 0
M  V30 3843 C 376.347 -1.87695 -1.4074 0
M  V30 3844 C 377.363 -0.769975 -1.56036 0
M  V30 3845 O 378.539 -1.06537 -1.70915 0
M  V30 3846 C 375.604 -2.10755 -2.75287 0
M  V30 3847 C 374.665 -3.34514 -2.69071 0
M  V30 3848 C 373.898 -3.56465 -3.97201 0
M  V30 3849 O 374.121 -2.81637 -4.96021 0
M  V30 3850 O 373.055 -4.49964 -3.9977 0
M  V30 3851 H 376.881 -2.80849 -1.15574 0
M  V30 3852 H 374.466 -1.40526 -0.507228 0
M  V30 3853 H 376.348 -2.27188 -3.54913 0
M  V30 3854 H 375.023 -1.20788 -3.0032 0
M  V30 3855 H 373.93 -3.23456 -1.87955 0
M  V30 3856 H 375.263 -4.24575 -2.48992 0
M  V30 3857 N 376.915 0.57481 -1.46744 0
M  V30 3858 C 378.161 1.33251 -1.53674 0
M  V30 3859 C 378.516 1.91468 -0.189125 0
M  V30 3860 O 377.809 1.73954 0.803151 0
M  V30 3861 C 378.003 2.476 -2.57738 0
M  V30 3862 C 377.832 2.00586 -4.02487 0
M  V30 3863 C 376.602 1.85237 -4.70123 0
M  V30 3864 C 378.8 1.56078 -4.90045 0
M  V30 3865 N 376.782 1.32377 -5.99458 0
M  V30 3866 C 378.153 1.14863 -6.09267 0
M  V30 3867 C 380.208 1.43968 -4.76632 0
M  V30 3868 C 378.911 0.627435 -7.16558 0
M  V30 3869 C 380.937 0.932512 -5.84002 0
M  V30 3870 C 380.299 0.53019 -7.02402 0
M  V30 3871 H 376.398 0.480284 -0.617131 0
M  V30 3872 H 378.982 0.653592 -1.83402 0
M  V30 3873 H 377.153 3.13045 -2.29907 0
M  V30 3874 H 378.885 3.14567 -2.54616 0
M  V30 3875 H 375.64 2.07423 -4.25761 0
M  V30 3876 H 376.064 1.08085 -6.68316 0
M  V30 3877 H 380.706 1.73689 -3.85476 0
M  V30 3878 H 378.424 0.317821 -8.07475 0
M  V30 3879 H 382.01 0.842611 -5.75666 0
M  V30 3880 H 380.89 0.14381 -7.84068 0
M  V30 3881 N 378.394 1.34581 0.820102 0
M  V30 3882 C 379.324 1.29038 1.94606 0
M  V30 3883 C 380.305 0.1673 1.69275 0
M  V30 3884 O 381.49 0.360112 1.90832 0
M  V30 3885 C 378.62 1.04793 3.31113 0
M  V30 3886 C 377.574 2.13597 3.70891 0
M  V30 3887 C 376.9 1.74537 5.05412 0
M  V30 3888 C 378.2 3.55451 3.8269 0
M  V30 3889 H 379.894 2.23248 1.99501 0
M  V30 3890 H 377.44 1.0747 0.958449 0
M  V30 3891 H 379.393 0.995592 4.0947 0
M  V30 3892 H 378.117 0.0702565 3.26524 0
M  V30 3893 H 376.776 2.17905 2.9481 0
M  V30 3894 H 376.424 0.754226 4.97313 0
M  V30 3895 H 376.124 2.47361 5.32997 0
M  V30 3896 H 377.648 1.70803 5.86224 0
M  V30 3897 H 379.062 3.5354 4.51312 0
M  V30 3898 H 377.459 4.26922 4.21732 0
M  V30 3899 H 378.529 3.92587 2.84611 0
M  V30 3900 N 379.872 -1.04064 1.18357 0
M  V30 3901 C 380.835 -2.10243 0.912707 0
M  V30 3902 C 381.835 -1.60477 -0.101928 0
M  V30 3903 O 383.025 -1.73703 0.131517 0
M  V30 3904 C 380.157 -3.38893 0.369387 0
M  V30 3905 H 381.35 -2.35706 1.85426 0
M  V30 3906 H 378.903 -1.20489 0.995594 0
M  V30 3907 H 379.638 -3.19094 -0.578776 0
M  V30 3908 H 379.423 -3.76331 1.1008 0
M  V30 3909 H 380.913 -4.17128 0.198575 0
M  V30 3910 N 381.35 -0.985608 -1.22978 0
M  V30 3911 C 382.297 -0.529825 -2.24636 0
M  V30 3912 C 383.267 0.434028 -1.60329 0
M  V30 3913 O 384.452 0.340414 -1.87739 0
M  V30 3914 C 381.592 0.156533 -3.44745 0
M  V30 3915 C 380.705 -0.848197 -4.23591 0
M  V30 3916 C 379.84 -0.136109 -5.31026 0
M  V30 3917 C 378.879 -1.1297 -6.01585 0
M  V30 3918 N 378.016 -0.446415 -7.00679 0
M  V30 3919 H 382.856 -1.40148 -2.62988 0
M  V30 3920 H 380.393 -0.702168 -1.29259 0
M  V30 3921 H 382.351 0.571324 -4.1327 0
M  V30 3922 H 380.981 0.992025 -3.07179 0
M  V30 3923 H 380.033 -1.38135 -3.54433 0
M  V30 3924 H 381.345 -1.60512 -4.72268 0
M  V30 3925 H 380.499 0.335784 -6.0577 0
M  V30 3926 H 379.238 0.653373 -4.83304 0
M  V30 3927 H 378.243 -1.6123 -5.25628 0
M  V30 3928 H 379.468 -1.91993 -6.51395 0
M  V30 3929 H 377.414 0.323763 -6.55201 0
M  V30 3930 H 377.331 -1.1419 -7.47326 0
M  V30 3931 H 378.599 0.00291697 -7.795 0
M  V30 3932 N 382.828 1.3818 -0.7579 0
M  V30 3933 C 383.778 2.27741 -0.108674 0
M  V30 3934 C 384.762 1.45415 0.688709 0
M  V30 3935 O 385.954 1.68108 0.553956 0
M  V30 3936 C 383.083 3.34313 0.780367 0
M  V30 3937 C 382.169 4.24093 -0.0240977 0
M  V30 3938 N 382.56 4.9451 -1.06271 0
M  V30 3939 C 380.858 4.45542 0.202049 0
M  V30 3940 C 381.559 5.60675 -1.54979 0
M  V30 3941 N 380.535 5.36684 -0.864348 0
M  V30 3942 H 384.337 2.79649 -0.904071 0
M  V30 3943 H 381.851 1.51133 -0.594346 0
M  V30 3944 H 383.848 3.97368 1.26114 0
M  V30 3945 H 382.508 2.83962 1.57467 0
M  V30 3946 H 383.519 4.97345 -1.44459 0
M  V30 3947 H 380.196 4.06091 0.96935 0
M  V30 3948 H 381.586 6.26992 -2.41517 0
M  V30 3949 N 384.306 0.507319 1.49211 0
M  V30 3950 C 385.238 -0.304532 2.27168 0
M  V30 3951 C 386.251 -0.924956 1.33972 0
M  V30 3952 O 387.44 -0.807227 1.59205 0
M  V30 3953 C 384.54 -1.44431 3.06583 0
M  V30 3954 C 383.713 -0.930026 4.27398 0
M  V30 3955 C 382.772 -1.94817 4.88807 0
M  V30 3956 O 381.798 -1.51418 5.4869 0
M  V30 3957 N 383 -3.279 4.79022 0
M  V30 3958 H 385.765 0.36395 2.97482 0
M  V30 3959 H 383.326 0.340249 1.58284 0
M  V30 3960 H 385.318 -2.12311 3.44537 0
M  V30 3961 H 383.888 -2.01684 2.38835 0
M  V30 3962 H 383.108 -0.0759244 3.94127 0
M  V30 3963 H 384.396 -0.564932 5.05654 0
M  V30 3964 H 383.794 -3.65843 4.3148 0
M  V30 3965 H 382.351 -3.91476 5.21142 0
M  V30 3966 N 385.784 -1.5574 0.241426 0
M  V30 3967 C 387.032 -1.98417 -0.384075 0
M  V30 3968 C 387.353 -1.13078 -1.58866 0
M  V30 3969 O 386.623 -0.212312 -1.94746 0
M  V30 3970 H 385.203 -0.732813 -0.144894 0
M  V30 3971 H 387.865 -1.9193 0.338943 0
M  V30 3972 H 386.961 -3.04219 -0.696939 0
M  V30 3973 N 387.262 0.0317525 -1.57568 0
M  V30 3974 C 388.225 1.01783 -2.0536 0
M  V30 3975 C 389.225 1.29203 -0.957253 0
M  V30 3976 O 390.415 1.24251 -1.22095 0
M  V30 3977 C 387.547 2.35137 -2.46827 0
M  V30 3978 H 388.74 0.605062 -2.93733 0
M  V30 3979 H 386.293 0.278514 -1.53799 0
M  V30 3980 H 387.028 2.81168 -1.61602 0
M  V30 3981 H 386.813 2.16566 -3.26866 0
M  V30 3982 H 388.303 3.05938 -2.84239 0
M  V30 3983 N 388.74 1.54641 0.303973 0
M  V30 3984 C 390.156 1.45788 0.649463 0
M  V30 3985 C 390.356 0.64666 1.90842 0
M  V30 3986 O 389.412 0.153183 2.52035 0
M  V30 3987 C 390.725 2.89718 0.805227 0
M  V30 3988 C 392.273 2.99742 0.901305 0
M  V30 3989 C 392.748 4.44863 1.08909 0
M  V30 3990 N 394.239 4.48559 1.15536 0
M  V30 3991 C 394.974 5.58026 1.3189 0
M  V30 3992 N 394.47 6.77422 1.45161 0
M  V30 3993 N 396.263 5.45708 1.34755 0
M  V30 3994 H 388.414 2.05854 -0.523237 0
M  V30 3995 H 390.677 0.932186 -0.172431 0
M  V30 3996 H 390.383 3.51666 -0.0489108 0
M  V30 3997 H 390.257 3.36964 1.69513 0
M  V30 3998 H 392.644 2.3791 1.74593 0
M  V30 3999 H 392.725 2.55797 -0.0125531 0
M  V30 4000 H 392.369 5.07288 0.249241 0
M  V30 4001 H 392.299 4.86436 2.01713 0
M  V30 4002 H 394.79 3.6254 1.06646 0
M  V30 4003 H 395.103 7.56604 1.57387 0
M  V30 4004 H 393.448 6.80292 1.42223 0
M  V30 4005 H 396.639 4.51378 1.23996 0
M  V30 4006 H 396.812 6.3107 1.47157 0
M  V30 4007 N 390.218 -0.567019 1.47046 0
M  V30 4008 C 391.448 -1.34831 1.56538 0
M  V30 4009 C 391.856 -1.8802 0.21101 0
M  V30 4010 O 391.199 -1.65152 -0.804387 0
M  V30 4011 C 391.261 -2.56139 2.52256 0
M  V30 4012 C 390.925 -2.24307 3.98165 0
M  V30 4013 C 391.922 -1.82192 4.86931 0
M  V30 4014 C 389.607 -2.35968 4.43423 0
M  V30 4015 C 391.601 -1.52153 6.18973 0
M  V30 4016 C 389.288 -2.05542 5.75496 0
M  V30 4017 C 390.286 -1.63701 6.63092 0
M  V30 4018 O 389.974 -1.33657 7.92711 0
M  V30 4019 H 389.706 -0.417683 0.531523 0
M  V30 4020 H 392.26 -0.694726 1.93294 0
M  V30 4021 H 390.49 -3.24356 2.10548 0
M  V30 4022 H 392.179 -3.18214 2.51982 0
M  V30 4023 H 392.945 -1.72684 4.53217 0
M  V30 4024 H 388.824 -2.67495 3.75456 0
M  V30 4025 H 392.368 -1.19421 6.87302 0
M  V30 4026 H 388.265 -2.14679 6.08755 0
M  V30 4027 H 389.033 -1.4737 8.05124 0
M  V30 4028 N 391.696 -1.35014 -0.812953 0
M  V30 4029 C 392.942 -1.2812 -1.57204 0
M  V30 4030 C 393.275 0.145869 -1.93651 0
M  V30 4031 O 392.55 1.0937 -1.60836 0
M  V30 4032 C 392.833 -2.18162 -2.86492 0
M  V30 4033 C 392.686 -3.69454 -2.56561 0
M  V30 4034 C 394.005 -2.07439 -3.88145 0
M  V30 4035 H 391.124 -0.466746 -0.570366 0
M  V30 4036 H 393.766 -1.65357 -0.935783 0
M  V30 4037 H 391.916 -1.86535 -3.40789 0
M  V30 4038 H 393.588 -4.11493 -2.08497 0
M  V30 4039 H 391.831 -3.9005 -1.89851 0
M  V30 4040 H 392.502 -4.27835 -3.48799 0
M  V30 4041 H 394.978 -2.35228 -3.4323 0
M  V30 4042 H 393.854 -2.7265 -4.76396 0
M  V30 4043 H 394.115 -1.05439 -4.29343 0
M  V30 4044 N 393.175 1.03435 -1.18907 0
M  V30 4045 C 394.421 1.7713 -0.99982 0
M  V30 4046 C 394.776 1.86695 0.465049 0
M  V30 4047 O 394.069 1.36866 1.34083 0
M  V30 4048 C 394.263 3.19792 -1.59586 0
M  V30 4049 C 394.092 3.24134 -3.11717 0
M  V30 4050 C 392.862 3.32398 -3.80578 0
M  V30 4051 C 395.06 3.11625 -4.09138 0
M  V30 4052 N 393.042 3.26055 -5.20155 0
M  V30 4053 C 394.413 3.12855 -5.35277 0
M  V30 4054 C 396.468 2.95713 -4.00572 0
M  V30 4055 C 395.171 2.99805 -6.53842 0
M  V30 4056 C 397.197 2.84011 -5.1874 0
M  V30 4057 C 396.559 2.8589 -6.43775 0
M  V30 4058 H 392.658 0.659683 -0.419931 0
M  V30 4059 H 395.242 1.2317 -1.50789 0
M  V30 4060 H 393.413 3.72085 -1.11389 0
M  V30 4061 H 395.145 3.81819 -1.3415 0
M  V30 4062 H 391.9 3.38392 -3.31342 0
M  V30 4063 H 392.324 3.26307 -5.93172 0
M  V30 4064 H 396.966 2.93086 -3.0473 0
M  V30 4065 H 394.684 3.01184 -7.49876 0
M  V30 4066 H 398.27 2.72744 -5.13909 0
M  V30 4067 H 397.15 2.76931 -7.33675 0
M  V30 4068 N 394.653 0.992116 1.22453 0
M  V30 4069 C 395.601 0.534644 2.26372 0
M  V30 4070 C 396.595 -0.414293 1.64256 0
M  V30 4071 O 397.801 -0.286899 1.77699 0
M  V30 4072 H 394.176 0.154502 0.735957 0
M  V30 4073 H 396.147 1.42256 2.62309 0
M  V30 4074 C 394.896 -0.135815 3.47435 0
M  V30 4075 H 394.219 0.585311 3.95492 0
M  V30 4076 H 395.659 -0.419374 4.21921 0
M  V30 4077 C 394.118 -1.37089 3.07747 0
M  V30 4078 O 394.648 -2.46629 3.17076 0
M  V30 4079 N 392.854 -1.24585 2.62539 0
M  V30 4080 H 392.401 -0.354542 2.55149 0
M  V30 4081 H 392.359 -2.07327 2.36353 0
M  V30 4082 N 396.131 -1.37776 0.765217 0
M  V30 4083 C 397.547 -1.53297 0.444108 0
M  V30 4084 C 397.747 -1.72515 -1.04119 0
M  V30 4085 O 396.803 -1.74278 -1.82711 0
M  V30 4086 C 398.116 -2.73328 1.25349 0
M  V30 4087 C 399.664 -2.87185 1.24473 0
M  V30 4088 C 400.139 -4.10191 2.03733 0
M  V30 4089 N 401.63 -4.17291 2.01053 0
M  V30 4090 C 402.365 -5.11488 2.59166 0
M  V30 4091 N 401.861 -6.11285 3.26041 0
M  V30 4092 N 403.654 -5.03924 2.49032 0
M  V30 4093 H 395.805 -1.23552 1.72768 0
M  V30 4094 H 398.068 -0.601103 0.733062 0
M  V30 4095 H 397.774 -2.6557 2.30577 0
M  V30 4096 H 397.648 -3.66834 0.87823 0
M  V30 4097 H 400.035 -2.94418 0.20047 0
M  V30 4098 H 400.116 -1.94657 1.65959 0
M  V30 4099 H 399.76 -4.0372 3.08176 0
M  V30 4100 H 399.69 -5.01821 1.59633 0
M  V30 4101 H 402.181 -3.45825 1.5236 0
M  V30 4102 H 402.494 -6.79678 3.67774 0
M  V30 4103 H 400.839 -6.11583 3.30138 0
M  V30 4104 H 404.03 -4.24902 1.96407 0
M  V30 4105 H 404.203 -5.77152 2.94617 0
M  V30 4106 N 397.609 -0.515225 -1.4894 0
M  V30 4107 C 398.837 0.0206034 -2.0689 0
M  V30 4108 C 399.252 1.29514 -1.37374 0
M  V30 4109 O 398.609 1.76698 -0.456529 0
M  V30 4110 C 398.66 0.26351 -3.60538 0
M  V30 4111 O 398.381 -0.960517 -4.27441 0
M  V30 4112 C 399.882 0.841383 -4.35242 0
M  V30 4113 H 397.102 -0.0268608 -0.670462 0
M  V30 4114 H 399.646 -0.716651 -1.91532 0
M  V30 4115 H 397.801 0.950777 -3.75552 0
M  V30 4116 H 398.215 -0.73212 -5.19365 0
M  V30 4117 H 399.689 0.96085 -5.43573 0
M  V30 4118 H 400.166 1.8427 -3.98674 0
M  V30 4119 H 400.772 0.191143 -4.2487 0
M  V30 4120 N 399.087 1.5561 -0.249682 0
M  V30 4121 C 399.997 2.25143 0.659375 0
M  V30 4122 C 401.013 1.2685 1.19101 0
M  V30 4123 O 402.189 1.59732 1.22669 0
M  V30 4124 C 399.254 2.93945 1.8384 0
M  V30 4125 C 398.315 4.07655 1.34596 0
M  V30 4126 C 397.548 4.73167 2.46878 0
M  V30 4127 O 397.771 4.37768 3.65671 0
M  V30 4128 O 396.705 5.61623 2.16478 0
M  V30 4129 H 400.531 3.03545 0.0968698 0
M  V30 4130 H 398.116 1.49389 -0.018074 0
M  V30 4131 H 399.998 3.37271 2.52638 0
M  V30 4132 H 398.673 2.18481 2.38847 0
M  V30 4133 H 397.58 3.68839 0.625174 0
M  V30 4134 H 398.913 4.84946 0.841941 0
M  V30 4135 N 400.565 -0.0233959 1.57583 0
M  V30 4136 C 401.495 -1.02162 2.09965 0
M  V30 4137 C 402.476 -1.3735 1.00344 0
M  V30 4138 O 403.661 -1.46135 1.27899 0
M  V30 4139 C 400.791 -2.32081 2.58371 0
M  V30 4140 C 399.745 -2.1112 3.72307 0
M  V30 4141 C 399.071 -3.46848 4.06941 0
M  V30 4142 C 400.371 -1.49276 5.00514 0
M  V30 4143 H 402.065 -0.585557 2.93618 0
M  V30 4144 H 399.611 -0.280218 1.41247 0
M  V30 4145 H 401.564 -3.02249 2.93639 0
M  V30 4146 H 400.288 -2.77758 1.71808 0
M  V30 4147 H 398.947 -1.43384 3.37397 0
M  V30 4148 H 398.595 -3.90184 3.17436 0
M  V30 4149 H 398.295 -3.33646 4.83688 0
M  V30 4150 H 399.819 -4.18369 4.44747 0
M  V30 4151 H 401.233 -2.09368 5.33702 0
M  V30 4152 H 399.63 -1.46632 5.8191 0
M  V30 4153 H 400.7 -0.459217 4.82721 0
M  V30 4154 N 402.043 -1.548 -0.295768 0
M  V30 4155 C 402.973 -1.89115 -1.36959 0
M  V30 4156 C 403.954 -0.75059 -1.52644 0
M  V30 4157 O 405.139 -1.00678 -1.66065 0
M  V30 4158 C 402.269 -2.14307 -2.73295 0
M  V30 4159 C 401.223 -3.30151 -2.72368 0
M  V30 4160 C 400.549 -3.40772 -4.12042 0
M  V30 4161 C 401.849 -4.67126 -2.33646 0
M  V30 4162 H 403.543 -2.79053 -1.08488 0
M  V30 4163 H 401.089 -1.34266 -0.520443 0
M  V30 4164 H 403.042 -2.36898 -3.48507 0
M  V30 4165 H 401.766 -1.21145 -3.03301 0
M  V30 4166 H 400.425 -3.0749 -1.99613 0
M  V30 4167 H 400.073 -2.45117 -4.39234 0
M  V30 4168 H 399.773 -4.18645 -4.12322 0
M  V30 4169 H 401.297 -3.6563 -4.89027 0
M  V30 4170 H 402.711 -4.89414 -2.98575 0
M  V30 4171 H 401.108 -5.47751 -2.45129 0
M  V30 4172 H 402.178 -4.67489 -1.28772 0
M  V30 4173 N 403.521 0.559213 -1.47345 0
M  V30 4174 C 404.453 1.68161 -1.55738 0
M  V30 4175 C 405.466 1.56636 -0.443744 0
M  V30 4176 O 406.655 1.6363 -0.713258 0
M  V30 4177 C 403.755 3.06611 -1.4437 0
M  V30 4178 C 402.928 3.4391 -2.70268 0
M  V30 4179 C 401.987 4.61515 -2.52765 0
M  V30 4180 O 401.013 4.66197 -3.26572 0
M  V30 4181 N 402.215 5.57883 -1.6046 0
M  V30 4182 H 404.98 1.61408 -2.52522 0
M  V30 4183 H 402.541 0.7458 -1.43699 0
M  V30 4184 H 404.533 3.83117 -1.30398 0
M  V30 4185 H 403.103 3.07602 -0.556766 0
M  V30 4186 H 402.323 2.56873 -2.99015 0
M  V30 4187 H 403.611 3.65605 -3.53851 0
M  V30 4188 H 403.009 5.56855 -0.996422 0
M  V30 4189 H 401.566 6.33723 -1.52441 0
M  V30 4190 N 404.999 1.35443 0.805782 0
M  V30 4191 C 405.962 1.28301 1.89925 0
M  V30 4192 C 406.962 0.194285 1.59622 0
M  V30 4193 O 408.152 0.448036 1.6834 0
M  V30 4194 C 405.284 0.984997 3.2636 0
M  V30 4195 H 406.477 2.2553 1.97677 0
M  V30 4196 H 404.03 1.19979 1.00173 0
M  V30 4197 H 404.765 0.016603 3.24296 0
M  V30 4198 H 404.55 1.77269 3.4974 0
M  V30 4199 H 406.04 0.960651 4.064 0
M  V30 4200 N 406.477 -1.02803 1.19454 0
M  V30 4201 C 407.702 -1.80378 1.02364 0
M  V30 4202 C 408.127 -1.83282 -0.423007 0
M  V30 4203 O 407.485 -1.25945 -1.30413 0
M  V30 4204 C 407.533 -3.23248 1.59821 0
M  V30 4205 O 406.637 -4.04 0.828105 0
M  V30 4206 H 405.978 -0.556799 0.361761 0
M  V30 4207 H 408.508 -1.29385 1.58495 0
M  V30 4208 H 408.518 -3.73994 1.63073 0
M  V30 4209 H 407.193 -3.2045 2.65113 0
M  V30 4210 H 405.77 -3.62635 0.86891 0
M  V30 4211 N 407.956 -0.998596 -1.21925 0
M  V30 4212 C 408.886 -0.573688 -2.26343 0
M  V30 4213 C 409.867 0.402296 -1.65274 0
M  V30 4214 O 411.052 0.291683 -1.91997 0
M  V30 4215 C 408.182 0.106839 -3.47136 0
M  V30 4216 C 407.136 -0.788269 -4.20678 0
M  V30 4217 C 406.462 0.0254927 -5.34694 0
M  V30 4218 C 407.762 -2.08784 -4.78755 0
M  V30 4219 H 409.456 -1.44651 -2.62138 0
M  V30 4220 H 407.002 -0.696975 -1.26009 0
M  V30 4221 H 408.955 0.415531 -4.19346 0
M  V30 4222 H 407.679 1.01424 -3.10452 0
M  V30 4223 H 406.338 -1.08069 -3.50309 0
M  V30 4224 H 405.986 0.933989 -4.94253 0
M  V30 4225 H 405.686 -0.570437 -5.84825 0
M  V30 4226 H 407.21 0.328147 -6.09718 0
M  V30 4227 H 408.624 -1.84272 -5.42878 0
M  V30 4228 H 407.021 -2.63307 -5.39249 0
M  V30 4229 H 408.091 -2.76284 -3.98491 0
M  V30 4230 N 409.434 1.37368 -0.772513 0
M  V30 4231 C 410.711 1.93839 -0.26188 0
M  V30 4232 C 411.091 1.7061 1.24319 0
M  V30 4233 O 410.439 1.05534 2.02669 0
M  V30 4234 C 410.649 3.43154 -0.636102 0
M  V30 4235 C 411.997 4.20249 -0.606324 0
M  V30 4236 O 413.021 3.5152 -0.575538 0
M  V30 4237 O 411.88 5.42809 -0.634086 0
M  V30 4238 H 408.974 0.82478 -0.0605555 0
M  V30 4239 H 411.52 1.4665 -0.853917 0
M  V30 4240 H 410.292 3.53647 -1.6748 0
M  V30 4241 H 409.915 3.97596 -0.0170516 0
M  V30 4242 N 410.912 0.523116 1.48665 0
M  V30 4243 C 412.323 0.0808997 1.86525 0
M  V30 4244 C 412.674 -1.33975 1.43336 0
M  V30 4245 O 411.799 -2.00221 0.821009 0
M  V30 4246 C 412.394 0.140037 3.3851 0
M  V30 4247 C 410.953 -0.246948 3.75589 0
M  V30 4248 C 410.1 0.502845 2.72703 0
M  V30 4249 H 413.051 0.734736 1.40667 0
M  V30 4250 H 413.072 -0.649945 3.74908 0
M  V30 4251 H 412.584 1.17412 3.69914 0
M  V30 4252 H 410.685 -1.28343 3.49798 0
M  V30 4253 H 410.798 0.0878859 4.79019 0
M  V30 4254 H 409.162 -0.0500581 2.54651 0
M  V30 4255 H 409.945 1.53743 3.0695 0
M  V30 4256 N 412.39 -1.55475 0.257931 0
M  V30 4257 C 413.615 -2.04064 -0.370488 0
M  V30 4258 C 414.04 -1.13565 -1.49948 0
M  V30 4259 O 413.398 -0.130781 -1.80828 0
M  V30 4260 C 413.446 -3.50554 -0.845237 0
M  V30 4261 O 412.55 -3.63173 -1.95394 0
M  V30 4262 H 411.891 -0.659257 -0.0792243 0
M  V30 4263 H 414.421 -2.00903 0.387212 0
M  V30 4264 H 414.431 -3.91588 -1.14555 0
M  V30 4265 H 413.106 -4.15896 -0.0191259 0
M  V30 4266 H 411.683 -3.34039 -1.65748 0
M  V30 4267 N 413.868 0.0150385 -1.57593 0
M  V30 4268 C 415.114 0.704043 -1.90187 0
M  V30 4269 C 415.447 1.74249 -0.857366 0
M  V30 4270 O 414.722 1.94092 0.125843 0
M  V30 4271 C 415.005 1.36087 -3.33395 0
M  V30 4272 C 414.858 0.334981 -4.48551 0
M  V30 4273 C 416.177 2.29112 -3.7576 0
M  V30 4274 H 413.296 0.254475 -0.691673 0
M  V30 4275 H 415.938 -0.0331678 -1.89971 0
M  V30 4276 H 414.088 1.98922 -3.3371 0
M  V30 4277 H 415.76 -0.292534 -4.60372 0
M  V30 4278 H 414.003 -0.344325 -4.32431 0
M  V30 4279 H 414.674 0.833316 -5.45674 0
M  V30 4280 H 417.15 1.76308 -3.76902 0
M  V30 4281 H 416.026 2.72043 -4.76743 0
M  V30 4282 H 416.287 3.16385 -3.08793 0
M  V30 4283 N 415.346 1.54954 0.287554 0
M  V30 4284 C 416.574 1.78881 1.03967 0
M  V30 4285 C 416.989 0.554894 1.80462 0
M  V30 4286 O 416.346 -0.475676 1.76192 0
M  V30 4287 C 416.397 3.00488 2.0097 0
M  V30 4288 O 416.118 4.19113 1.27577 0
M  V30 4289 C 417.619 3.36907 2.88112 0
M  V30 4290 H 414.839 0.596259 0.307761 0
M  V30 4291 H 417.383 2.01937 0.322749 0
M  V30 4292 H 415.538 2.79601 2.68145 0
M  V30 4293 H 415.952 4.87765 1.92835 0
M  V30 4294 H 417.426 4.25205 3.52001 0
M  V30 4295 H 417.903 2.55659 3.57121 0
M  V30 4296 H 418.509 3.60001 2.26449 0
M  V30 4297 N 416.824 -0.551391 1.4764 0
M  V30 4298 C 417.774 -1.65362 1.56969 0
M  V30 4299 C 418.758 -1.55098 0.428189 0
M  V30 4300 O 419.95 -1.63481 0.678441 0
M  V30 4301 C 417.079 -3.04129 1.59249 0
M  V30 4302 C 416.165 -3.19576 2.78804 0
M  V30 4303 N 416.556 -3.05067 4.03445 0
M  V30 4304 C 414.854 -3.50588 2.75688 0
M  V30 4305 C 415.555 -3.2336 4.83543 0
M  V30 4306 N 414.531 -3.4996 4.15968 0
M  V30 4307 H 418.333 -1.52722 2.51104 0
M  V30 4308 H 415.847 -0.756303 1.43714 0
M  V30 4309 H 417.844 -3.83278 1.64024 0
M  V30 4310 H 416.504 -3.17877 0.662148 0
M  V30 4311 H 417.515 -2.82273 4.34215 0
M  V30 4312 H 414.192 -3.70827 1.91817 0
M  V30 4313 H 415.582 -3.17061 5.92387 0
M  V30 4314 N 418.302 -1.35869 -0.798587 0
M  V30 4315 C 419.232 -1.32118 -1.92528 0
M  V30 4316 C 420.213 -0.194209 -1.68988 0
M  V30 4317 O 421.398 -0.390426 -1.90235 0
M  V30 4318 C 418.528 -1.10047 -3.29404 0
M  V30 4319 C 417.482 -2.19471 -3.67446 0
M  V30 4320 C 416.808 -1.82555 -5.02571 0
M  V30 4321 C 418.108 -3.61495 -3.76987 0
M  V30 4322 H 419.802 -2.26394 -1.95924 0
M  V30 4323 H 417.348 -1.08981 -0.94123 0
M  V30 4324 H 419.301 -1.06061 -4.07835 0
M  V30 4325 H 418.025 -0.122195 -3.26371 0
M  V30 4326 H 416.684 -2.22568 -2.91306 0
M  V30 4327 H 416.332 -0.833249 -4.9605 0
M  V30 4328 H 416.032 -2.5581 -5.28995 0
M  V30 4329 H 417.556 -1.80108 -5.83432 0
M  V30 4330 H 418.97 -3.60676 -4.4563 0
M  V30 4331 H 417.367 -4.33577 -4.14887 0
M  V30 4332 H 418.437 -3.97065 -2.78329 0
M  V30 4333 N 419.78 1.02168 -1.19998 0
M  V30 4334 C 420.713 2.10232 -0.887558 0
M  V30 4335 C 421.691 1.61827 0.158317 0
M  V30 4336 O 422.875 1.88471 0.0330249 0
M  V30 4337 C 420.002 3.37092 -0.32964 0
M  V30 4338 C 419.048 4.0438 -1.3557 0
M  V30 4339 S 419.881 4.48956 -2.91888 0
M  V30 4340 C 421.037 5.79024 -2.37658 0
M  V30 4341 H 421.27 2.36409 -1.80272 0
M  V30 4342 H 418.803 1.15211 -1.0279 0
M  V30 4343 H 420.761 4.10498 -0.0142824 0
M  V30 4344 H 419.422 3.08996 0.563941 0
M  V30 4345 H 418.615 4.95632 -0.9146 0
M  V30 4346 H 418.217 3.37176 -1.61828 0
M  V30 4347 H 420.509 6.53942 -1.77103 0
M  V30 4348 H 421.452 6.27924 -3.27287 0
M  V30 4349 H 421.86 5.35043 -1.79971 0
M  V30 4350 N 421.258 1.00505 1.21394 0
M  V30 4351 C 422.506 0.686415 1.90086 0
M  V30 4352 C 422.827 -0.785264 1.7849 0
M  V30 4353 O 422.097 -1.56387 1.17983 0
M  V30 4354 H 420.677 0.2509 0.703604 0
M  V30 4355 H 423.339 1.27417 1.47482 0
M  V30 4356 H 422.435 0.959621 2.96981 0
M  V30 4357 N 422.737 -1.36956 0.779787 0
M  V30 4358 C 423.667 -2.32761 0.185651 0
M  V30 4359 C 424.648 -1.56177 -0.673989 0
M  V30 4360 O 425.833 -1.84378 -0.609797 0
M  V30 4361 C 422.963 -3.40418 -0.687964 0
M  V30 4362 C 421.917 -4.27941 0.0710102 0
M  V30 4363 C 421.243 -5.26681 -0.922573 0
M  V30 4364 C 422.543 -5.07006 1.25467 0
M  V30 4365 H 424.237 -2.82698 0.986008 0
M  V30 4366 H 421.783 -1.3592 0.475592 0
M  V30 4367 H 423.736 -4.06423 -1.11348 0
M  V30 4368 H 422.46 -2.89025 -1.52093 0
M  V30 4369 H 421.119 -3.63478 0.47739 0
M  V30 4370 H 420.767 -4.71565 -1.7503 0
M  V30 4371 H 420.467 -5.86103 -0.419237 0
M  V30 4372 H 421.991 -5.9556 -1.34686 0
M  V30 4373 H 423.405 -5.66105 0.905401 0
M  V30 4374 H 421.802 -5.75793 1.69063 0
M  V30 4375 H 422.872 -4.3921 2.05481 0
M  V30 4376 N 424.215 -0.530993 -1.48385 0
M  V30 4377 C 425.462 0.0027373 -2.025 0
M  V30 4378 C 425.79 1.34186 -1.40799 0
M  V30 4379 O 425.045 1.88 -0.543544 0
M  V30 4380 C 425.344 0.172742 -3.56982 0
M  V30 4381 C 425.01 -1.09215 -4.37473 0
M  V30 4382 C 423.672 -1.43881 -4.59186 0
M  V30 4383 C 426.024 -1.93153 -4.84088 0
M  V30 4384 C 423.352 -2.62381 -5.2476 0
M  V30 4385 C 425.704 -3.10833 -5.50968 0
M  V30 4386 C 424.368 -3.45843 -5.70919 0
M  V30 4387 H 423.638 0.00100165 -0.740999 0
M  V30 4388 H 426.285 -0.697219 -1.78357 0
M  V30 4389 H 424.59 0.955473 -3.79971 0
M  V30 4390 H 426.287 0.600642 -3.96476 0
M  V30 4391 H 422.877 -0.812177 -4.20834 0
M  V30 4392 H 427.061 -1.67683 -4.67115 0
M  V30 4393 H 422.317 -2.89707 -5.38405 0
M  V30 4394 H 426.491 -3.7618 -5.86056 0
M  V30 4395 H 424.118 -4.37764 -6.21503 0
M  V30 4396 N 425.693 1.55336 -0.266172 0
M  V30 4397 C 426.603 2.2583 0.635458 0
M  V30 4398 C 427.619 1.28106 1.17749 0
M  V30 4399 O 428.795 1.61024 1.20968 0
M  V30 4400 C 425.86 2.95879 1.80712 0
M  V30 4401 C 424.921 4.09059 1.30265 0
M  V30 4402 C 424.154 4.75759 2.41846 0
M  V30 4403 O 424.377 4.41622 3.61007 0
M  V30 4404 O 423.311 5.63888 2.1051 0
M  V30 4405 H 427.137 3.03631 0.0646693 0
M  V30 4406 H 424.722 1.49361 -0.0339177 0
M  V30 4407 H 426.604 3.39932 2.49047 0
M  V30 4408 H 425.279 2.21002 2.36516 0
M  V30 4409 H 424.186 3.69482 0.586019 0
M  V30 4410 H 425.519 4.85811 0.790458 0
M  V30 4411 N 427.171 -0.0066808 1.57599 0
M  V30 4412 C 428.582 -0.550379 1.78403 0
M  V30 4413 C 428.933 -1.74339 0.900014 0
M  V30 4414 O 428.058 -2.16166 0.100713 0
M  V30 4415 C 428.653 -1.00523 3.23544 0
M  V30 4416 C 427.212 -1.49428 3.45468 0
M  V30 4417 C 426.359 -0.442444 2.73748 0
M  V30 4418 H 429.31 0.219508 1.57175 0
M  V30 4419 H 429.331 -1.87157 3.31289 0
M  V30 4420 H 428.843 -0.136735 3.87859 0
M  V30 4421 H 426.944 -2.3839 2.86358 0
M  V30 4422 H 427.057 -1.52635 4.54136 0
M  V30 4423 H 425.421 -0.902578 2.38171 0
M  V30 4424 H 426.204 0.416973 3.40758 0
M  V30 4425 N 428.649 -1.55105 -0.279332 0
M  V30 4426 C 429.897 -1.75066 -1.00977 0
M  V30 4427 C 430.218 -0.551276 -1.87045 0
M  V30 4428 O 429.488 0.433984 -1.91032 0
M  V30 4429 H 428.068 -0.645578 -0.375816 0
M  V30 4430 H 430.73 -1.92497 -0.305089 0
M  V30 4431 H 429.826 -2.64894 -1.65038 0
M  V30 4432 N 430.127 0.543554 -1.4793 0
M  V30 4433 C 431.404 1.30458 -1.4574 0
M  V30 4434 C 431.784 2.1048 -0.161692 0
M  V30 4435 O 431.132 2.11831 0.856734 0
M  V30 4436 C 431.342 2.19754 -2.71126 0
M  V30 4437 C 432.69 2.80334 -3.18901 0
M  V30 4438 O 433.714 2.30049 -2.71948 0
M  V30 4439 O 432.573 3.71766 -4.00565 0
M  V30 4440 H 429.667 0.588117 -0.581418 0
M  V30 4441 H 432.213 0.561328 -1.60147 0
M  V30 4442 H 430.985 1.60316 -3.56952 0
M  V30 4443 H 430.608 3.01351 -2.59371 0
M  V30 4444 N 431.605 1.3629 0.791371 0
M  V30 4445 C 432.538 1.24816 1.9104 0
M  V30 4446 C 433.516 0.132739 1.62057 0
M  V30 4447 O 434.7 0.303527 1.8604 0
M  V30 4448 C 431.827 0.925355 3.25814 0
M  V30 4449 C 430.873 2.05495 3.7373 0
M  V30 4450 S 431.706 3.67255 3.89723 0
M  V30 4451 C 432.862 3.37084 5.27376 0
M  V30 4452 H 433.095 2.19533 2.00481 0
M  V30 4453 H 430.628 1.21684 0.950393 0
M  V30 4454 H 432.586 0.745924 4.03666 0
M  V30 4455 H 431.247 -0.00400098 3.141 0
M  V30 4456 H 430.44 1.7836 4.71385 0
M  V30 4457 H 430.042 2.1935 3.02922 0
M  V30 4458 H 432.334 2.90856 6.1189 0
M  V30 4459 H 433.277 4.33995 5.59512 0
M  V30 4460 H 433.685 2.7248 4.94383 0
M  V30 4461 N 433.083 -1.0153 1.20538 0
M  V30 4462 C 434.03 -2.10098 0.955383 0
M  V30 4463 C 435 -1.65702 -0.114878 0
M  V30 4464 O 436.185 -1.90776 0.0301118 0
M  V30 4465 C 433.325 -3.41236 0.514969 0
M  V30 4466 C 432.438 -3.99102 1.65353 0
M  V30 4467 C 431.573 -5.18306 1.16329 0
M  V30 4468 C 430.612 -5.68258 2.27485 0
M  V30 4469 N 429.749 -6.78722 1.7967 0
M  V30 4470 H 434.589 -2.30818 1.88486 0
M  V30 4471 H 432.126 -1.13189 0.939499 0
M  V30 4472 H 434.084 -4.16504 0.240935 0
M  V30 4473 H 432.714 -3.20585 -0.377512 0
M  V30 4474 H 431.766 -3.20918 2.04245 0
M  V30 4475 H 433.078 -4.32177 2.49047 0
M  V30 4476 H 432.232 -6.00782 0.845302 0
M  V30 4477 H 430.971 -4.86799 0.296254 0
M  V30 4478 H 429.976 -4.84385 2.60099 0
M  V30 4479 H 431.201 -6.01798 3.14667 0
M  V30 4480 H 429.147 -6.49042 0.95295 0
M  V30 4481 H 429.064 -7.10996 2.56944 0
M  V30 4482 H 430.332 -7.64759 1.50875 0
M  V30 4483 N 434.561 -1.01147 -1.20859 0
M  V30 4484 C 435.791 -0.715872 -1.93801 0
M  V30 4485 C 436.199 0.726592 -1.74692 0
M  V30 4486 O 435.542 1.50397 -1.05482 0
M  V30 4487 C 435.604 -0.965269 -3.46299 0
M  V30 4488 C 435.268 -2.39584 -3.89164 0
M  V30 4489 C 436.265 -3.3764 -3.95342 0
M  V30 4490 C 433.95 -2.73522 -4.21297 0
M  V30 4491 C 435.944 -4.67698 -4.33056 0
M  V30 4492 C 433.631 -4.03794 -4.58687 0
M  V30 4493 C 434.629 -5.00693 -4.64538 0
M  V30 4494 O 434.317 -6.28635 -5.01072 0
M  V30 4495 H 434.049 -0.262524 -0.622942 0
M  V30 4496 H 436.603 -1.35413 -1.54443 0
M  V30 4497 H 434.833 -0.269847 -3.85757 0
M  V30 4498 H 436.522 -0.662051 -4.00464 0
M  V30 4499 H 437.288 -3.12757 -3.70686 0
M  V30 4500 H 433.167 -1.9879 -4.15937 0
M  V30 4501 H 436.711 -5.4333 -4.37537 0
M  V30 4502 H 432.608 -4.28459 -4.82797 0
M  V30 4503 H 433.376 -6.32847 -5.19083 0
M  V30 4504 N 436.039 1.36541 -0.78704 0
M  V30 4505 C 436.949 2.3387 -0.184896 0
M  V30 4506 C 437.965 1.60927 0.661697 0
M  V30 4507 O 439.141 1.92927 0.57804 0
M  V30 4508 C 436.206 3.40122 0.672145 0
M  V30 4509 C 435.267 4.28867 -0.19267 0
M  V30 4510 C 434.5 5.30045 0.623561 0
M  V30 4511 O 434.723 5.39232 1.8597 0
M  V30 4512 O 433.657 6.01895 0.0247068 0
M  V30 4513 H 437.483 2.87126 -0.989562 0
M  V30 4514 H 435.068 1.38969 -0.548455 0
M  V30 4515 H 436.95 4.05093 1.16094 0
M  V30 4516 H 435.625 2.89169 1.45474 0
M  V30 4517 H 434.532 3.66945 -0.728166 0
M  V30 4518 H 435.865 4.83165 -0.938722 0
M  V30 4519 N 437.518 0.538854 1.48102 0
M  V30 4520 C 438.767 0.0059532 2.01699 0
M  V30 4521 C 439.08 -1.34476 1.42041 0
M  V30 4522 O 440.286 -1.96653 1.87189 0
M  V30 4523 C 438.742 -0.0397627 3.59878 0
M  V30 4524 C 438.35 1.30659 4.28523 0
M  V30 4525 C 440.094 -0.521024 4.2129 0
M  V30 4526 C 438.001 1.22098 5.78659 0
M  V30 4527 H 436.931 -0.00154456 0.753998 0
M  V30 4528 H 439.582 0.683963 1.70277 0
M  V30 4529 H 437.964 -0.783037 3.88181 0
M  V30 4530 H 439.138 2.06613 4.11883 0
M  V30 4531 H 437.453 1.7243 3.79021 0
M  V30 4532 H 440.05 -0.603184 5.31287 0
M  V30 4533 H 440.393 -1.52885 3.8721 0
M  V30 4534 H 440.926 0.166834 3.9745 0
M  V30 4535 H 437.665 2.20424 6.17328 0
M  V30 4536 H 437.185 0.50295 5.97688 0
M  V30 4537 H 438.864 0.915345 6.40492 0
M  V30 4538 N 438.996 -1.55193 0.274407 0
M  V30 4539 C 439.946 -2.19184 -0.627882 0
M  V30 4540 C 440.93 -1.15625 -1.11892 0
M  V30 4541 O 442.122 -1.41441 -1.06411 0
M  V30 4542 C 439.251 -2.91591 -1.81189 0
M  V30 4543 C 438.337 -4.02438 -1.33807 0
M  V30 4544 N 438.728 -5.0246 -0.580349 0
M  V30 4545 C 437.026 -4.15496 -1.62109 0
M  V30 4546 C 437.727 -5.80756 -0.331344 0
M  V30 4547 N 436.703 -5.36038 -0.903556 0
M  V30 4548 H 440.505 -2.93871 -0.0411216 0
M  V30 4549 H 438.019 -1.62213 0.0779348 0
M  V30 4550 H 440.016 -3.35883 -2.46957 0
M  V30 4551 H 438.676 -2.18414 -2.40261 0
M  V30 4552 H 439.687 -5.17399 -0.227762 0
M  V30 4553 H 436.364 -3.53509 -2.22121 0
M  V30 4554 H 437.754 -6.71335 0.275454 0
M  V30 4555 N 440.474 -0.00167713 -1.576 0
M  V30 4556 C 441.89 0.354422 -1.55615 0
M  V30 4557 C 442.09 1.74679 -1.00447 0
M  V30 4558 O 441.146 2.4428 -0.639022 0
M  V30 4559 C 442.459 0.22812 -2.99833 0
M  V30 4560 C 444.007 0.302934 -3.11531 0
M  V30 4561 C 444.482 0.205737 -4.57538 0
M  V30 4562 N 445.973 0.263584 -4.62449 0
M  V30 4563 C 446.708 0.211742 -5.73009 0
M  V30 4564 N 446.204 0.110399 -6.92712 0
M  V30 4565 N 447.997 0.263729 -5.61481 0
M  V30 4566 H 440.148 -0.912498 -1.918 0
M  V30 4567 H 442.411 -0.349928 -0.881053 0
M  V30 4568 H 442.117 -0.729934 -3.44042 0
M  V30 4569 H 441.991 1.00951 -3.6344 0
M  V30 4570 H 444.378 1.25143 -2.67251 0
M  V30 4571 H 444.459 -0.508357 -2.50698 0
M  V30 4572 H 444.103 -0.739225 -5.02492 0
M  V30 4573 H 444.033 1.03554 -5.16318 0
M  V30 4574 H 446.524 0.343173 -3.76339 0
M  V30 4575 H 446.837 0.0767828 -7.72762 0
M  V30 4576 H 445.182 0.0760025 -6.94958 0
M  V30 4577 H 448.373 0.34111 -4.66855 0
M  V30 4578 H 448.546 0.219862 -6.47627 0
M  V30 4579 N 441.952 1.55251 0.271103 0
M  V30 4580 C 443.229 1.66664 1.02384 0
M  V30 4581 C 443.609 0.534363 2.04225 0
M  V30 4582 O 442.957 -0.465337 2.23712 0
M  V30 4583 C 443.167 3.05961 1.67895 0
M  V30 4584 C 444.515 3.63772 2.18986 0
M  V30 4585 O 445.539 3.08606 1.77878 0
M  V30 4586 O 444.398 4.60429 2.94393 0
M  V30 4587 H 441.492 0.676957 0.475035 0
M  V30 4588 H 444.038 1.67589 0.26681 0
M  V30 4589 H 442.81 3.79815 0.941071 0
M  V30 4590 H 442.433 3.08943 2.5028 0
M  V30 4591 N 443.43 -0.535701 1.48216 0
M  V30 4592 C 444.655 -1.32149 1.59848 0
M  V30 4593 C 445.08 -1.86338 0.256842 0
M  V30 4594 O 444.438 -1.64107 -0.770632 0
M  V30 4595 C 444.486 -2.45224 2.64381 0
M  V30 4596 O 443.59 -3.48093 2.21144 0
M  V30 4597 H 442.931 -0.391634 0.536208 0
M  V30 4598 H 445.461 -0.645202 1.94161 0
M  V30 4599 H 445.471 -2.91491 2.85476 0
M  V30 4600 H 444.146 -2.05143 3.61786 0
M  V30 4601 H 442.723 -3.07984 2.10239 0
M  V30 4602 N 444.908 -1.36708 -0.784132 0
M  V30 4603 C 446.136 -1.34398 -1.57305 0
M  V30 4604 C 446.551 0.0735577 -1.88657 0
M  V30 4605 O 445.908 1.03193 -1.50524 0
M  V30 4606 C 445.959 -2.17053 -2.89085 0
M  V30 4607 O 445.68 -3.53281 -2.59083 0
M  V30 4608 C 447.181 -2.22583 -3.83369 0
M  V30 4609 H 444.401 -0.460819 -0.487736 0
M  V30 4610 H 446.945 -1.79879 -0.972819 0
M  V30 4611 H 445.1 -1.75113 -3.45564 0
M  V30 4612 H 445.514 -3.9647 -3.43383 0
M  V30 4613 H 446.988 -2.84763 -4.72878 0
M  V30 4614 H 447.465 -1.23075 -4.21603 0
M  V30 4615 H 448.071 -2.64781 -3.32823 0
M  V30 4616 N 446.386 1.0089 -1.21074 0
M  V30 4617 C 447.316 2.1145 -0.990523 0
M  V30 4618 C 448.297 1.69897 0.0831699 0
M  V30 4619 O 449.482 1.94052 -0.0758853 0
M  V30 4620 C 446.612 3.42914 -0.550177 0
M  V30 4621 C 445.566 3.98244 -1.56799 0
M  V30 4622 C 444.892 5.25568 -0.984013 0
M  V30 4623 C 446.192 4.30752 -2.95381 0
M  V30 4624 H 447.886 2.3013 -1.91521 0
M  V30 4625 H 445.432 1.10592 -0.92225 0
M  V30 4626 H 447.385 4.19653 -0.383305 0
M  V30 4627 H 446.109 3.24014 0.41015 0
M  V30 4628 H 444.768 3.23621 -1.72236 0
M  V30 4629 H 444.416 5.02998 -0.0155216 0
M  V30 4630 H 444.116 5.63551 -1.66384 0
M  V30 4631 H 445.64 6.04955 -0.828378 0
M  V30 4632 H 447.054 4.98349 -2.8341 0
M  V30 4633 H 445.451 4.79869 -3.60341 0
M  V30 4634 H 446.521 3.39192 -3.46521 0
M  V30 4635 N 447.864 1.01787 1.20321 0
M  V30 4636 C 449.141 0.622978 1.85414 0
M  V30 4637 C 449.521 -0.898887 1.91006 0
M  V30 4638 O 448.869 -1.79112 1.41884 0
M  V30 4639 C 449.079 1.27226 3.24984 0
M  V30 4640 C 450.427 1.3885 4.01255 0
M  V30 4641 O 451.451 1.22857 3.34342 0
M  V30 4642 O 450.31 1.64705 5.2109 0
M  V30 4643 H 447.404 0.215116 0.798533 0
M  V30 4644 H 449.95 1.11533 1.27901 0
M  V30 4645 H 448.722 2.31209 3.15687 0
M  V30 4646 H 448.345 0.767069 3.90131 0
M  V30 4647 N 449.342 -1.36122 0.79427 0
M  V30 4648 C 450.753 -1.81646 0.431446 0
M  V30 4649 C 451.104 -1.66043 -1.04518 0
M  V30 4650 O 450.229 -1.1841 -1.8113 0
M  V30 4651 C 450.824 -3.29785 0.776341 0
M  V30 4652 C 449.383 -3.73501 0.466282 0
M  V30 4653 C 448.53 -2.58313 1.00844 0
M  V30 4654 H 451.481 -1.24274 0.986995 0
M  V30 4655 H 451.502 -3.80437 0.0692413 0
M  V30 4656 H 451.014 -3.4111 1.8511 0
M  V30 4657 H 449.115 -3.67733 -0.600245 0
M  V30 4658 H 449.228 -4.68754 0.990288 0
M  V30 4659 H 447.592 -2.5102 0.431406 0
M  V30 4660 H 448.375 -2.72421 2.08906 0
M  V30 4661 N 450.82 -0.546701 -1.47814 0
M  V30 4662 C 452.045 -0.021268 -2.07389 0
M  V30 4663 C 452.47 1.25822 -1.39822 0
M  V30 4664 O 451.828 1.75111 -0.46968 0
M  V30 4665 C 451.876 0.168502 -3.60206 0
M  V30 4666 O 450.98 1.23347 -3.93522 0
M  V30 4667 H 450.321 -0.0466108 -0.662362 0
M  V30 4668 H 452.851 -0.759387 -1.89985 0
M  V30 4669 H 452.861 0.385982 -4.0617 0
M  V30 4670 H 451.536 -0.766075 -4.08784 0
M  V30 4671 H 450.113 0.997319 -3.59316 0
M  V30 4672 N 452.299 1.55045 -0.282633 0
M  V30 4673 C 453.229 2.2579 0.595066 0
M  V30 4674 C 454.21 1.25074 1.15284 0
M  V30 4675 O 455.395 1.5381 1.18559 0
M  V30 4676 C 452.525 2.98472 1.77572 0
M  V30 4677 C 451.479 4.0618 1.34914 0
M  V30 4678 C 450.805 4.66477 2.6135 0
M  V30 4679 C 452.105 5.1996 0.493821 0
M  V30 4680 H 453.799 2.994 0.00505653 0
M  V30 4681 H 451.345 1.44 0.000992001 0
M  V30 4682 H 453.298 3.46677 2.39568 0
M  V30 4683 H 452.022 2.2241 2.39168 0
M  V30 4684 H 450.681 3.58797 0.752338 0
M  V30 4685 H 450.329 3.87074 3.2122 0
M  V30 4686 H 450.029 5.39207 2.33516 0
M  V30 4687 H 451.553 5.17435 3.24181 0
M  V30 4688 H 452.967 5.64172 1.01898 0
M  V30 4689 H 451.364 5.99299 0.310047 0
M  V30 4690 H 452.434 4.82462 -0.485593 0
M  V30 4691 N 453.777 0.010035 1.57597 0
M  V30 4692 C 454.71 -1.01234 2.04516 0
M  V30 4693 C 455.688 -1.32886 0.937024 0
M  V30 4694 O 456.872 -1.44879 1.20592 0
M  V30 4695 C 453.999 -2.33738 2.45121 0
M  V30 4696 C 453.045 -2.17679 3.66767 0
M  V30 4697 S 453.878 -1.49343 5.14254 0
M  V30 4698 C 455.034 -2.83256 5.58137 0
M  V30 4699 H 455.267 -0.612866 2.90914 0
M  V30 4700 H 452.8 -0.201124 1.53084 0
M  V30 4701 H 454.758 -3.09922 2.69182 0
M  V30 4702 H 453.419 -2.70823 1.59103 0
M  V30 4703 H 452.612 -3.1559 3.92962 0
M  V30 4704 H 452.214 -1.4964 3.42759 0
M  V30 4705 H 454.506 -3.79538 5.6121 0
M  V30 4706 H 455.449 -2.61749 6.57946 0
M  V30 4707 H 455.857 -2.87627 4.85727 0
M  V30 4708 N 455.255 -1.55392 -0.262866 0
M  V30 4709 C 456.165 -1.92077 -1.34698 0
M  V30 4710 C 457.181 -0.819227 -1.53508 0
M  V30 4711 O 458.357 -1.11921 -1.67439 0
M  V30 4712 C 455.422 -2.19407 -2.68443 0
M  V30 4713 C 454.483 -3.42905 -2.58292 0
M  V30 4714 C 453.716 -3.68921 -3.85659 0
M  V30 4715 O 453.939 -2.97275 -4.8681 0
M  V30 4716 O 452.873 -4.62455 -3.85252 0
M  V30 4717 H 456.699 -2.84384 -1.06581 0
M  V30 4718 H 454.284 -1.42069 -0.462264 0
M  V30 4719 H 456.166 -2.38365 -3.47506 0
M  V30 4720 H 454.841 -1.30282 -2.96325 0
M  V30 4721 H 453.748 -3.29272 -1.7757 0
M  V30 4722 H 455.081 -4.32282 -2.35358 0
M  V30 4723 N 456.733 0.527833 -1.48498 0
M  V30 4724 C 457.666 1.64892 -1.57753 0
M  V30 4725 C 458.644 1.5687 -0.427867 0
M  V30 4726 O 459.828 1.77311 -0.639764 0
M  V30 4727 C 456.955 3.03301 -1.50752 0
M  V30 4728 C 456.001 3.29675 -2.70586 0
M  V30 4729 S 456.834 3.15712 -4.32535 0
M  V30 4730 C 457.99 4.56564 -4.28136 0
M  V30 4731 H 458.223 1.56792 -2.52594 0
M  V30 4732 H 455.756 0.710959 -1.37057 0
M  V30 4733 H 457.714 3.83123 -1.474 0
M  V30 4734 H 456.375 3.08839 -0.572454 0
M  V30 4735 H 455.568 4.3065 -2.61833 0
M  V30 4736 H 455.17 2.57526 -2.71212 0
M  V30 4737 H 457.462 5.48126 -3.98201 0
M  V30 4738 H 458.405 4.70371 -5.29298 0
M  V30 4739 H 458.813 4.35987 -3.58574 0
M  V30 4740 N 458.211 1.37122 0.776871 0
M  V30 4741 C 459.439 1.3523 1.5659 0
M  V30 4742 C 459.854 -0.0635518 1.88693 0
M  V30 4743 O 459.211 -1.02394 1.51069 0
M  V30 4744 C 459.262 2.18583 2.8793 0
M  V30 4745 O 458.983 3.5465 2.57206 0
M  V30 4746 C 460.484 2.24612 3.82183 0
M  V30 4747 H 457.704 0.4634 0.485285 0
M  V30 4748 H 460.248 1.80392 0.963266 0
M  V30 4749 H 458.403 1.76943 3.4463 0
M  V30 4750 H 458.817 3.98286 3.41275 0
M  V30 4751 H 460.291 2.87267 4.71361 0
M  V30 4752 H 460.768 1.25309 4.20944 0
M  V30 4753 H 461.374 2.66543 3.31414 0
M  V30 4754 N 459.689 -1.00246 1.21608 0
M  V30 4755 C 460.599 -2.12515 0.993709 0
M  V30 4756 C 461.615 -1.73913 -0.0549939 0
M  V30 4757 O 462.791 -2.00943 0.135619 0
M  V30 4758 C 459.856 -3.42083 0.563953 0
M  V30 4759 C 458.917 -3.94843 1.68516 0
M  V30 4760 C 458.15 -5.18226 1.27582 0
M  V30 4761 O 458.373 -5.70201 0.150506 0
M  V30 4762 O 457.307 -5.64497 2.0887 0
M  V30 4763 H 461.133 -2.34152 1.93407 0
M  V30 4764 H 458.718 -1.10891 1.00118 0
M  V30 4765 H 460.6 -4.20073 0.334194 0
M  V30 4766 H 459.275 -3.21828 -0.347665 0
M  V30 4767 H 458.182 -3.18068 1.96935 0
M  V30 4768 H 459.515 -4.19512 2.5743 0
M  V30 4769 N 461.167 -1.02423 -1.1978 0
M  V30 4770 C 462.13 -0.605703 -2.21052 0
M  V30 4771 C 463.13 0.328209 -1.57415 0
M  V30 4772 O 464.32 0.115853 -1.73814 0
M  V30 4773 C 461.452 0.114366 -3.40708 0
M  V30 4774 H 462.645 -1.5017 -2.59594 0
M  V30 4775 H 460.198 -0.814888 -1.33376 0
M  V30 4776 H 460.933 1.02492 -3.07678 0
M  V30 4777 H 460.718 -0.556641 -3.88129 0
M  V30 4778 H 462.208 0.394272 -4.15735 0
M  V30 4779 N 462.645 1.35699 -0.801477 0
M  V30 4780 C 463.608 2.28199 -0.213994 0
M  V30 4781 C 464.608 1.49359 0.595691 0
M  V30 4782 O 465.798 1.69186 0.414921 0
M  V30 4783 C 462.93 3.33587 0.702297 0
M  V30 4784 H 464.123 2.81666 -1.02976 0
M  V30 4785 H 461.676 1.45467 -0.571759 0
M  V30 4786 H 462.411 2.85297 1.54195 0
M  V30 4787 H 462.196 3.91906 0.123484 0
M  V30 4788 H 463.686 4.02638 1.10783 0
M  V30 4789 N 464.123 0.554532 1.47522 0
M  V30 4790 C 465.053 -0.182974 2.32782 0
M  V30 4791 C 466.034 -0.911377 1.43624 0
M  V30 4792 O 467.219 -0.892366 1.72483 0
M  V30 4793 C 464.349 -1.21513 3.25349 0
M  V30 4794 C 463.303 -0.603355 4.23726 0
M  V30 4795 C 462.629 -1.73995 5.05598 0
M  V30 4796 C 463.929 0.441121 5.20434 0
M  V30 4797 H 465.623 0.52882 2.94693 0
M  V30 4798 H 463.169 0.255759 1.41711 0
M  V30 4799 H 465.122 -1.73922 3.83835 0
M  V30 4800 H 463.846 -1.95683 2.61487 0
M  V30 4801 H 462.505 -0.10059 3.66462 0
M  V30 4802 H 462.153 -2.47063 4.38143 0
M  V30 4803 H 461.853 -1.3364 5.72201 0
M  V30 4804 H 463.377 -2.26735 5.66942 0
M  V30 4805 H 464.791 0.00319931 5.733 0
M  V30 4806 H 463.188 0.763402 5.95224 0
M  V30 4807 H 464.258 1.33799 4.66075 0
M  V30 4808 N 465.601 -1.54893 0.290851 0
M  V30 4809 C 466.531 -2.26103 -0.583084 0
M  V30 4810 C 467.512 -1.25684 -1.14619 0
M  V30 4811 O 468.697 -1.54436 -1.17741 0
M  V30 4812 C 465.827 -2.99409 -1.75987 0
M  V30 4813 C 464.781 -4.0689 -1.32758 0
M  V30 4814 C 464.107 -4.67856 -2.58872 0
M  V30 4815 C 465.407 -5.20215 -0.46624 0
M  V30 4816 H 467.101 -2.99398 0.0108214 0
M  V30 4817 H 464.647 -1.43998 0.00664468 0
M  V30 4818 H 466.6 -3.47943 -2.37727 0
M  V30 4819 H 465.324 -2.23675 -2.37985 0
M  V30 4820 H 463.983 -3.59191 -0.733299 0
M  V30 4821 H 463.631 -3.88772 -3.19163 0
M  V30 4822 H 463.331 -5.40438 -2.30653 0
M  V30 4823 H 464.855 -5.19147 -3.21433 0
M  V30 4824 H 466.269 -5.64704 -0.989047 0
M  V30 4825 H 464.666 -5.99455 -0.27826 0
M  V30 4826 H 465.736 -4.82198 0.511173 0
M  V30 4827 N 467.08 -0.0183926 -1.57589 0
M  V30 4828 C 468.01 0.965596 -2.12599 0
M  V30 4829 C 468.991 1.34641 -1.0395 0
M  V30 4830 O 470.176 1.42693 -1.31729 0
M  V30 4831 C 467.306 2.25149 -2.64434 0
M  V30 4832 C 466.26 2.01175 -3.77773 0
M  V30 4833 C 465.586 3.35937 -4.15994 0
M  V30 4834 C 466.886 1.35953 -5.04296 0
M  V30 4835 H 468.58 0.507504 -2.95067 0
M  V30 4836 H 466.126 0.242671 -1.41941 0
M  V30 4837 H 468.079 2.94357 -3.01549 0
M  V30 4838 H 466.803 2.73105 -1.79112 0
M  V30 4839 H 465.462 1.34388 -3.4108 0
M  V30 4840 H 465.11 3.81631 -3.27669 0
M  V30 4841 H 464.81 3.20705 -4.92364 0
M  V30 4842 H 466.334 4.0643 -4.55683 0
M  V30 4843 H 467.748 1.95144 -5.39065 0
M  V30 4844 H 466.145 1.31152 -5.85593 0
M  V30 4845 H 467.215 0.331071 -4.83768 0
M  V30 4846 N 468.558 1.5553 0.254621 0
M  V30 4847 C 469.488 1.9268 1.31897 0
M  V30 4848 C 470.469 0.790797 1.506 0
M  V30 4849 O 471.654 1.05045 1.63337 0
M  V30 4850 C 468.784 2.21477 2.67517 0
M  V30 4851 C 467.738 3.37256 2.63519 0
M  V30 4852 C 467.064 3.51576 4.02862 0
M  V30 4853 C 468.364 4.73157 2.21179 0
M  V30 4854 H 470.058 2.81832 1.01051 0
M  V30 4855 H 467.604 1.35599 0.484662 0
M  V30 4856 H 469.557 2.46055 3.42104 0
M  V30 4857 H 468.281 1.29144 2.99982 0
M  V30 4858 H 466.94 3.12675 1.9139 0
M  V30 4859 H 466.588 2.56676 4.32581 0
M  V30 4860 H 466.288 4.2943 4.01078 0
M  V30 4861 H 467.812 3.78467 4.79161 0
M  V30 4862 H 469.226 4.97158 2.85494 0
M  V30 4863 H 467.623 5.54058 2.30521 0
M  V30 4864 H 468.693 4.70739 1.16332 0
M  V30 4865 N 470.036 -0.519951 1.48776 0
M  V30 4866 C 471.261 -1.30447 1.6124 0
M  V30 4867 C 471.686 -1.86055 0.276591 0
M  V30 4868 O 471.044 -1.64915 -0.753183 0
M  V30 4869 C 471.092 -2.42406 2.66967 0
M  V30 4870 O 470.196 -3.45728 2.24824 0
M  V30 4871 H 469.537 -0.385924 0.540332 0
M  V30 4872 H 472.067 -0.624572 1.94834 0
M  V30 4873 H 472.077 -2.88447 2.88552 0
M  V30 4874 H 470.752 -2.01294 3.63941 0
M  V30 4875 H 469.329 -3.05737 2.13494 0
M  V30 4876 N 471.514 -1.37532 -0.769588 0
M  V30 4877 C 472.93 -1.18379 -1.07045 0
M  V30 4878 C 473.13 -0.0214312 -2.01489 0
M  V30 4879 O 472.186 0.637809 -2.44312 0
M  V30 4880 C 473.499 -2.50338 -1.66588 0
M  V30 4881 C 475.047 -2.56879 -1.78835 0
M  V30 4882 C 475.522 -3.88974 -2.41792 0
M  V30 4883 N 477.013 -3.90428 -2.4924 0
M  V30 4884 C 477.748 -4.89388 -2.98809 0
M  V30 4885 N 477.244 -5.98745 -3.48535 0
M  V30 4886 N 479.037 -4.76791 -2.97703 0
M  V30 4887 H 471.188 -2.11921 -0.142541 0
M  V30 4888 H 473.451 -0.939608 -0.125863 0
M  V30 4889 H 473.157 -3.35767 -1.0466 0
M  V30 4890 H 473.031 -2.67583 -2.65856 0
M  V30 4891 H 475.418 -1.71856 -2.39895 0
M  V30 4892 H 475.499 -2.43516 -0.783166 0
M  V30 4893 H 475.143 -4.74412 -1.81371 0
M  V30 4894 H 475.073 -3.99641 -3.4292 0
M  V30 4895 H 477.564 -3.11433 -2.14052 0
M  V30 4896 H 477.877 -6.70205 -3.84767 0
M  V30 4897 H 476.222 -6.02387 -3.46634 0
M  V30 4898 H 479.413 -3.90478 -2.58157 0
M  V30 4899 H 479.586 -5.54069 -3.36024 0
M  V30 4900 N 472.992 0.995999 -1.22138 0
M  V30 4901 C 473.94 2.10673 -0.985876 0
M  V30 4902 C 474.934 1.69255 0.0699553 0
M  V30 4903 O 476.14 1.79812 -0.0822176 0
M  V30 4904 H 472.515 0.688865 -0.30161 0
M  V30 4905 H 474.486 2.27711 -1.92848 0
M  V30 4906 C 473.235 3.42881 -0.576909 0
M  V30 4907 H 472.558 3.75191 -1.38101 0
M  V30 4908 H 473.998 4.21589 -0.451518 0
M  V30 4909 C 472.457 3.29265 0.713196 0
M  V30 4910 O 472.987 3.60777 1.76643 0
M  V30 4911 N 471.193 2.82456 0.683162 0
M  V30 4912 H 470.74 2.5701 -0.174242 0
M  V30 4913 H 470.698 2.73727 1.54663 0
M  V30 4914 N 474.47 1.03057 1.19235 0
M  V30 4915 C 475.881 0.757449 1.70645 0
M  V30 4916 C 476.232 -0.722735 1.82403 0
M  V30 4917 O 475.357 -1.56325 1.49638 0
M  V30 4918 C 475.952 1.36833 3.09939 0
M  V30 4919 C 474.511 1.14375 3.58602 0
M  V30 4920 C 473.658 1.46533 2.35422 0
M  V30 4921 H 476.609 1.19828 1.04052 0
M  V30 4922 H 476.63 0.766184 3.72706 0
M  V30 4923 H 476.142 2.44562 3.01349 0
M  V30 4924 H 474.243 0.0847542 3.72504 0
M  V30 4925 H 474.356 1.83366 4.42622 0
M  V30 4926 H 472.72 0.884712 2.38841 0
M  V30 4927 H 473.503 2.55349 2.2946 0
M  V30 4928 N 475.948 -1.35272 0.808662 0
M  V30 4929 C 477.364 -1.51806 0.492653 0
M  V30 4930 C 477.564 -1.7574 -0.985778 0
M  V30 4931 O 476.62 -1.80003 -1.77074 0
M  V30 4932 C 477.933 -2.69202 1.33981 0
M  V30 4933 C 479.481 -2.8308 1.33547 0
M  V30 4934 C 479.956 -4.03502 2.16679 0
M  V30 4935 N 481.447 -4.10684 2.14227 0
M  V30 4936 C 482.182 -5.02984 2.75308 0
M  V30 4937 N 481.678 -6.00603 3.45323 0
M  V30 4938 N 483.471 -4.95746 2.64938 0
M  V30 4939 H 475.622 -1.17993 1.76611 0
M  V30 4940 H 477.885 -0.577476 0.751814 0
M  V30 4941 H 477.591 -2.581 2.38909 0
M  V30 4942 H 477.465 -3.63854 0.994491 0
M  V30 4943 H 479.852 -2.93631 0.294036 0
M  V30 4944 H 479.933 -1.89278 1.72068 0
M  V30 4945 H 479.577 -3.93711 3.20864 0
M  V30 4946 H 479.507 -4.96489 1.75517 0
M  V30 4947 H 481.998 -3.40802 1.63285 0
M  V30 4948 H 482.311 -6.67633 3.89212 0
M  V30 4949 H 480.656 -6.0077 3.49428 0
M  V30 4950 H 483.847 -4.18439 2.09825 0
M  V30 4951 H 484.02 -5.67487 3.12829 0
M  V30 4952 N 477.426 -0.562348 -1.47226 0
M  V30 4953 C 478.674 -0.0401371 -2.0206 0
M  V30 4954 C 478.995 1.3165 -1.43852 0
M  V30 4955 O 478.265 1.85976 -0.615599 0
M  V30 4956 H 476.845 -0.0118479 -0.746906 0
M  V30 4957 H 479.507 -0.73352 -1.8057 0
M  V30 4958 H 478.603 0.0441254 -3.12069 0
M  V30 4959 N 478.904 1.54736 -0.299062 0
M  V30 4960 C 480.151 2.00101 0.310784 0
M  V30 4961 C 480.479 1.18746 1.54045 0
M  V30 4962 O 479.734 0.251198 1.94081 0
M  V30 4963 C 480.033 3.50199 0.713835 0
M  V30 4964 C 479.699 4.48997 -0.413873 0
M  V30 4965 C 478.361 4.7573 -0.723462 0
M  V30 4966 C 480.713 5.07839 -1.17257 0
M  V30 4967 C 478.041 5.5857 -1.79491 0
M  V30 4968 C 480.393 5.91844 -2.23392 0
M  V30 4969 C 479.057 6.16889 -2.54959 0
M  V30 4970 H 478.327 0.732221 0.113724 0
M  V30 4971 H 480.974 1.86888 -0.417756 0
M  V30 4972 H 479.279 3.61012 1.52243 0
M  V30 4973 H 480.976 3.82723 1.19684 0
M  V30 4974 H 477.566 4.28292 -0.162476 0
M  V30 4975 H 481.75 4.87188 -0.946651 0
M  V30 4976 H 477.006 5.76213 -2.04423 0
M  V30 4977 H 481.18 6.36465 -2.8264 0
M  V30 4978 H 478.807 6.80869 -3.38114 0
M  V30 4979 N 480.382 0.0267497 1.57577 0
M  V30 4980 C 481.629 -0.652404 1.91703 0
M  V30 4981 C 481.957 -1.72271 0.902936 0
M  V30 4982 O 481.212 -1.955 -0.0884843 0
M  V30 4983 C 481.511 -1.30914 3.3256 0
M  V30 4984 C 481.177 -0.369441 4.49384 0
M  V30 4985 C 479.839 -0.110791 4.81072 0
M  V30 4986 C 482.191 0.275971 5.20469 0
M  V30 4987 C 479.519 0.801116 5.81205 0
M  V30 4988 C 481.871 1.17592 6.21575 0
M  V30 4989 C 480.535 1.44348 6.51705 0
M  V30 4990 H 479.805 -0.238732 0.70149 0
M  V30 4991 H 482.452 0.0880091 1.91298 0
M  V30 4992 H 480.757 -2.12425 3.29216 0
M  V30 4993 H 482.454 -1.84115 3.56234 0
M  V30 4994 H 479.044 -0.581211 4.24641 0
M  V30 4995 H 483.228 0.0892 4.9622 0
M  V30 4996 H 478.484 1.01614 6.02897 0
M  V30 4997 H 482.658 1.68223 6.75777 0
M  V30 4998 H 480.285 2.15176 7.29111 0
M  V30 4999 N 481.861 -1.55662 -0.24637 0
M  V30 5000 C 482.791 -1.93377 -1.30873 0
M  V30 5001 C 483.772 -0.798773 -1.50179 0
M  V30 5002 O 484.957 -1.0591 -1.62778 0
M  V30 5003 C 482.087 -2.22893 -2.66338 0
M  V30 5004 C 481.041 -3.38649 -2.61727 0
M  V30 5005 C 480.367 -3.53708 -4.00992 0
M  V30 5006 C 481.667 -4.74323 -2.18666 0
M  V30 5007 H 483.361 -2.82363 -0.995552 0
M  V30 5008 H 480.907 -1.35854 -0.477464 0
M  V30 5009 H 482.86 -2.47866 -3.40794 0
M  V30 5010 H 481.584 -1.30733 -2.99293 0
M  V30 5011 H 480.243 -3.13685 -1.89729 0
M  V30 5012 H 479.891 -2.58967 -4.31214 0
M  V30 5013 H 479.591 -4.31551 -3.98795 0
M  V30 5014 H 481.115 -3.81003 -4.77147 0
M  V30 5015 H 482.529 -4.98665 -2.82854 0
M  V30 5016 H 480.926 -5.55273 -2.27579 0
M  V30 5017 H 481.996 -4.71349 -1.13834 0
M  V30 5018 N 483.339 0.512053 -1.4905 0
M  V30 5019 C 484.586 1.26686 -1.57978 0
M  V30 5020 C 484.914 1.92733 -0.261553 0
M  V30 5021 O 484.169 1.80772 0.749667 0
M  V30 5022 C 484.468 2.36446 -2.68008 0
M  V30 5023 C 484.134 1.87932 -4.09869 0
M  V30 5024 C 482.796 1.74419 -4.48477 0
M  V30 5025 C 485.148 1.5149 -4.98698 0
M  V30 5026 C 482.476 1.22827 -5.73699 0
M  V30 5027 C 484.828 1.01355 -6.24428 0
M  V30 5028 C 483.492 0.864735 -6.61875 0
M  V30 5029 H 482.762 0.463577 -0.578081 0
M  V30 5030 H 485.409 0.569421 -1.82838 0
M  V30 5031 H 483.714 3.11933 -2.37076 0
M  V30 5032 H 485.411 2.9453 -2.72127 0
M  V30 5033 H 482.001 1.99405 -3.79389 0
M  V30 5034 H 486.185 1.60782 -4.69535 0
M  V30 5035 H 481.441 1.10008 -6.01422 0
M  V30 5036 H 485.615 0.722351 -6.92644 0
M  V30 5037 H 483.242 0.462777 -7.5879 0
M  V30 5038 N 484.817 1.37938 0.762283 0
M  V30 5039 C 486.063 1.33866 1.52341 0
M  V30 5040 C 486.396 -0.0738961 1.94059 0
M  V30 5041 O 485.671 -1.03326 1.64785 0
M  V30 5042 C 485.954 2.28644 2.78197 0
M  V30 5043 C 485.807 3.78722 2.42672 0
M  V30 5044 C 487.126 2.21702 3.80179 0
M  V30 5045 H 484.245 0.487593 0.55265 0
M  V30 5046 H 486.887 1.68717 0.873767 0
M  V30 5047 H 485.037 1.99055 3.33631 0
M  V30 5048 H 486.709 4.18948 1.93081 0
M  V30 5049 H 484.952 3.96827 1.75244 0
M  V30 5050 H 485.623 4.40486 3.3268 0
M  V30 5051 H 488.099 2.47805 3.34263 0
M  V30 5052 H 486.975 2.90143 4.65949 0
M  V30 5053 H 487.236 1.21301 4.25133 0
M  V30 5054 N 486.295 -0.989507 1.22664 0
M  V30 5055 C 487.205 -2.11449 1.01619 0
M  V30 5056 C 488.221 -1.73962 -0.036545 0
M  V30 5057 O 489.397 -2.00788 0.156924 0
M  V30 5058 C 486.462 -3.41465 0.600204 0
M  V30 5059 C 485.523 -3.93033 1.72695 0
M  V30 5060 C 484.756 -5.16844 1.33071 0
M  V30 5061 O 484.979 -5.7001 0.210975 0
M  V30 5062 O 483.913 -5.6225 2.14845 0
M  V30 5063 H 487.739 -2.32088 1.9588 0
M  V30 5064 H 485.324 -1.09823 1.01289 0
M  V30 5065 H 487.206 -4.19695 0.37873 0
M  V30 5066 H 485.881 -3.22178 -0.313511 0
M  V30 5067 H 484.788 -3.15961 2.00298 0
M  V30 5068 H 486.121 -4.16758 2.61865 0
M  V30 5069 N 487.773 -1.03688 -1.18687 0
M  V30 5070 C 489.021 -0.736572 -1.88199 0
M  V30 5071 C 489.342 0.737665 -1.80509 0
M  V30 5072 O 488.612 1.53204 -1.22088 0
M  V30 5073 H 487.192 -0.269466 -0.696704 0
M  V30 5074 H 489.854 -1.31282 -1.44052 0
M  V30 5075 H 488.95 -1.03802 -2.94332 0
M  V30 5076 N 489.251 1.34841 -0.815825 0
M  V30 5077 C 490.499 1.98107 -0.399744 0
M  V30 5078 C 490.82 1.65019 1.03894 0
M  V30 5079 O 490.09 0.937311 1.72021 0
M  V30 5080 H 488.67 0.732827 -0.144823 0
M  V30 5081 H 491.332 1.64599 -1.0437 0
M  V30 5082 H 490.428 3.07856 -0.512965 0
M  V30 5083 N 490.729 0.570148 1.46925 0
M  V30 5084 C 492.145 0.23087 1.57921 0
M  V30 5085 C 492.345 -1.26676 1.56702 0
M  V30 5086 O 491.401 -2.04774 1.47729 0
M  V30 5087 C 492.714 0.868973 2.8787 0
M  V30 5088 C 494.262 0.841397 3.01479 0
M  V30 5089 C 494.737 1.45881 4.34146 0
M  V30 5090 N 496.228 1.42258 4.40814 0
M  V30 5091 C 496.963 1.8698 5.42057 0
M  V30 5092 N 496.459 2.39618 6.50042 0
M  V30 5093 N 498.252 1.77972 5.33181 0
M  V30 5094 H 490.403 1.54301 1.45962 0
M  V30 5095 H 492.666 0.644224 0.69547 0
M  V30 5096 H 492.372 1.922 2.94537 0
M  V30 5097 H 492.246 0.369682 3.75384 0
M  V30 5098 H 494.633 -0.202973 2.94401 0
M  V30 5099 H 494.714 1.37858 2.15474 0
M  V30 5100 H 494.358 2.50231 4.4198 0
M  V30 5101 H 494.288 0.896958 5.18905 0
M  V30 5102 H 496.779 1.03768 3.63374 0
M  V30 5103 H 497.092 2.71633 7.23488 0
M  V30 5104 H 495.437 2.43636 6.50897 0
M  V30 5105 H 498.628 1.36617 4.4772 0
M  V30 5106 H 498.801 2.13143 6.11943 0
M  V30 5107 N 492.207 -1.54576 0.307264 0
M  V30 5108 C 493.456 -1.99442 -0.300976 0
M  V30 5109 C 493.769 -1.19928 -1.5452 0
M  V30 5110 O 494.975 -1.55092 -2.22842 0
M  V30 5111 C 493.431 -3.55084 -0.586809 0
M  V30 5112 C 493.039 -4.43413 0.639438 0
M  V30 5113 C 494.783 -4.0846 -1.1559 0
M  V30 5114 C 492.69 -5.90499 0.326411 0
M  V30 5115 H 491.62 -0.744986 -0.116238 0
M  V30 5116 H 494.271 -1.787 0.416947 0
M  V30 5117 H 492.653 -3.71749 -1.36449 0
M  V30 5118 H 493.827 -4.38522 1.41545 0
M  V30 5119 H 492.142 -4.00842 1.1276 0
M  V30 5120 H 494.739 -5.15926 -1.40445 0
M  V30 5121 H 495.082 -3.59443 -2.10015 0
M  V30 5122 H 495.615 -3.95362 -0.439778 0
M  V30 5123 H 492.354 -6.43676 1.23939 0
M  V30 5124 H 491.874 -5.98382 -0.412212 0
M  V30 5125 H 493.553 -6.46962 -0.0697393 0
M  V30 5126 N 493.685 -0.035106 -1.57561 0
M  V30 5127 C 494.962 0.681212 -1.83354 0
M  V30 5128 C 495.342 1.89986 -0.920252 0
M  V30 5129 O 494.69 2.28489 0.0226815 0
M  V30 5130 C 494.9 1.05376 -3.32712 0
M  V30 5131 C 496.248 1.44286 -3.99333 0
M  V30 5132 O 497.272 1.14656 -3.37242 0
M  V30 5133 O 496.131 1.99518 -5.08778 0
M  V30 5134 H 493.225 0.334741 -0.756226 0
M  V30 5135 H 495.771 -0.0632448 -1.69582 0
M  V30 5136 H 494.543 0.186668 -3.90854 0
M  V30 5137 H 494.166 1.85619 -3.51613 0
M  V30 5138 N 495.163 1.55791 0.238111 0
M  V30 5139 C 496.113 1.87444 1.29803 0
M  V30 5140 C 497.097 0.736043 1.43078 0
M  V30 5141 O 498.289 0.998146 1.46171 0
M  V30 5142 C 495.418 2.18028 2.65177 0
M  V30 5143 C 494.504 3.38217 2.55871 0
M  V30 5144 N 494.895 4.57264 2.16202 0
M  V30 5145 C 493.193 3.41502 2.86866 0
M  V30 5146 C 493.894 5.3941 2.17744 0
M  V30 5147 N 492.87 4.78695 2.57589 0
M  V30 5148 H 496.672 2.7701 0.981965 0
M  V30 5149 H 494.186 1.56135 0.44672 0
M  V30 5150 H 496.183 2.38873 3.4168 0
M  V30 5151 H 494.843 1.29765 2.97643 0
M  V30 5152 H 495.854 4.82727 1.87602 0
M  V30 5153 H 492.531 2.63536 3.23813 0
M  V30 5154 H 493.921 6.44671 1.89339 0
M  V30 5155 N 496.642 -0.504142 1.49319 0
M  V30 5156 C 497.89 -1.25598 1.58334 0
M  V30 5157 C 498.211 -1.93114 0.270538 0
M  V30 5158 O 497.481 -1.82585 -0.709891 0
M  V30 5159 H 496.061 -0.466571 0.58337 0
M  V30 5160 H 498.723 -0.584547 1.85928 0
M  V30 5161 H 497.819 -2.02159 2.37778 0
M  V30 5162 N 498.12 -1.38341 -0.754957 0
M  V30 5163 C 499.07 -1.31964 -1.85929 0
M  V30 5164 C 500.054 -0.204181 -1.59599 0
M  V30 5165 O 501.246 -0.440036 -1.71443 0
M  V30 5166 C 498.375 -1.14565 -3.2362 0
M  V30 5167 C 497.461 -2.30727 -3.55846 0
M  V30 5168 N 497.852 -3.56165 -3.59138 0
M  V30 5169 C 496.15 -2.23249 -3.86104 0
M  V30 5170 C 496.851 -4.32865 -3.88591 0
M  V30 5171 N 495.827 -3.62203 -4.05351 0
M  V30 5172 H 499.629 -2.2694 -1.8675 0
M  V30 5173 H 497.143 -1.31553 -0.952243 0
M  V30 5174 H 499.14 -1.0808 -4.02647 0
M  V30 5175 H 497.8 -0.205212 -3.24051 0
M  V30 5176 H 498.811 -3.89854 -3.40932 0
M  V30 5177 H 495.488 -1.37357 -3.94258 0
M  V30 5178 H 496.878 -5.41504 -3.97773 0
M  V30 5179 N 499.598 0.982988 -1.23187 0
M  V30 5180 C 500.548 2.05962 -0.977942 0
M  V30 5181 C 501.532 1.60725 0.0751148 0
M  V30 5182 O 502.724 1.76471 -0.136683 0
M  V30 5183 C 499.853 3.38564 -0.568276 0
M  V30 5184 C 498.939 3.90407 -1.6566 0
M  V30 5185 N 499.33 4.15359 -2.88635 0
M  V30 5186 C 497.628 4.18915 -1.53058 0
M  V30 5187 C 498.329 4.57642 -3.5908 0
M  V30 5188 N 497.305 4.6192 -2.86584 0
M  V30 5189 H 501.107 2.23208 -1.91195 0
M  V30 5190 H 498.621 1.16555 -1.13087 0
M  V30 5191 H 500.618 4.15276 -0.36764 0
M  V30 5192 H 499.278 3.22712 0.358713 0
M  V30 5193 H 500.289 4.03258 -3.24966 0
M  V30 5194 H 496.966 4.12081 -0.670506 0
M  V30 5195 H 498.356 4.85488 -4.6449 0
M  V30 5196 N 501.076 1.04316 1.18135 0
M  V30 5197 C 501.986 0.646876 2.25505 0
M  V30 5198 C 503.002 -0.328008 1.7088 0
M  V30 5199 O 504.178 -0.182309 2.00573 0
M  V30 5200 C 501.243 0.0185664 3.46695 0
M  V30 5201 C 500.304 1.04277 4.16443 0
M  V30 5202 C 499.537 0.444352 5.31847 0
M  V30 5203 O 499.76 -0.748735 5.65465 0
M  V30 5204 O 498.694 1.17428 5.90334 0
M  V30 5205 H 502.52 1.54147 2.61672 0
M  V30 5206 H 500.105 0.814188 1.25265 0
M  V30 5207 H 501.987 -0.331068 4.20097 0
M  V30 5208 H 500.662 -0.849814 3.12346 0
M  V30 5209 H 499.569 1.44425 3.45098 0
M  V30 5210 H 500.902 1.882 4.54798 0
M  V30 5211 N 502.554 -1.34406 0.822964 0
M  V30 5212 C 503.779 -2.0304 0.423034 0
M  V30 5213 C 504.204 -1.61568 -0.963196 0
M  V30 5214 O 503.562 -0.800339 -1.62678 0
M  V30 5215 C 503.61 -3.56636 0.53321 0
M  V30 5216 O 502.714 -4.09971 -0.446939 0
M  V30 5217 H 502.055 -0.64075 0.174171 0
M  V30 5218 H 504.585 -1.71653 1.11339 0
M  V30 5219 H 504.595 -4.05945 0.408991 0
M  V30 5220 H 503.27 -3.86168 1.54425 0
M  V30 5221 H 501.847 -3.71835 -0.281601 0
M  V30 5222 N 504.032 -0.577932 -1.46621 0
M  V30 5223 C 505.448 -0.239242 -1.57797 0
M  V30 5224 C 505.648 1.25843 -1.57371 0
M  V30 5225 O 504.704 2.03988 -1.48813 0
M  V30 5226 C 506.017 -0.884227 -2.87405 0
M  V30 5227 C 507.565 -0.857373 -3.01028 0
M  V30 5228 C 508.04 -1.48181 -4.33366 0
M  V30 5229 N 509.531 -1.44593 -4.40053 0
M  V30 5230 C 510.266 -1.89852 -5.41058 0
M  V30 5231 N 509.762 -2.43062 -6.48762 0
M  V30 5232 N 511.555 -1.80797 -5.3223 0
M  V30 5233 H 503.706 -1.55073 -1.45142 0
M  V30 5234 H 505.969 -0.647903 -0.692044 0
M  V30 5235 H 505.675 -1.93759 -2.93514 0
M  V30 5236 H 505.549 -0.389585 -3.75183 0
M  V30 5237 H 507.936 0.187357 -2.94505 0
M  V30 5238 H 508.017 -1.38999 -2.14739 0
M  V30 5239 H 507.661 -2.52572 -4.40647 0
M  V30 5240 H 507.591 -0.924464 -5.18422 0
M  V30 5241 H 510.082 -1.05694 -3.62819 0
M  V30 5242 H 510.395 -2.75466 -7.22038 0
M  V30 5243 H 508.74 -2.47085 -6.49595 0
M  V30 5244 H 511.931 -1.38989 -4.46989 0
M  V30 5245 H 512.104 -2.16385 -6.10804 0
M  V30 5246 N 505.51 1.54411 -0.315457 0
M  V30 5247 C 506.473 2.22713 0.54142 0
M  V30 5248 C 507.473 1.2179 1.04995 0
M  V30 5249 O 508.663 1.46426 0.943667 0
M  V30 5250 C 505.795 2.92485 1.75116 0
M  V30 5251 H 506.988 2.99849 -0.0555508 0
M  V30 5252 H 504.541 1.56159 -0.0664453 0
M  V30 5253 H 505.276 2.19466 2.38758 0
M  V30 5254 H 505.061 3.66483 1.39401 0
M  V30 5255 H 506.551 3.44548 2.35959 0
M  V30 5256 N 506.988 0.0434614 1.5754 0
M  V30 5257 C 508.218 -0.640905 1.96408 0
M  V30 5258 C 508.626 -1.65365 0.919297 0
M  V30 5259 O 507.969 -1.83395 -0.105795 0
M  V30 5260 C 508.031 -1.39141 3.31482 0
M  V30 5261 C 507.695 -0.535375 4.53853 0
M  V30 5262 C 508.692 0.195335 5.19533 0
M  V30 5263 C 506.377 -0.468564 5.0011 0
M  V30 5264 C 508.371 0.981377 6.298 0
M  V30 5265 C 506.058 0.321171 6.10255 0
M  V30 5266 C 507.056 1.04484 6.74961 0
M  V30 5267 O 506.744 1.8216 7.8299 0
M  V30 5268 H 506.476 -0.180584 0.651433 0
M  V30 5269 H 509.03 0.103848 2.05137 0
M  V30 5270 H 507.26 -2.18162 3.19284 0
M  V30 5271 H 508.949 -1.96526 3.55151 0
M  V30 5272 H 509.715 0.15314 4.84758 0
M  V30 5273 H 505.594 -1.02142 4.49542 0
M  V30 5274 H 509.138 1.54674 6.80237 0
M  V30 5275 H 505.035 0.365032 6.44467 0
M  V30 5276 H 505.803 1.74289 7.99728 0
M  V30 5277 N 508.466 -1.55915 -0.229846 0
M  V30 5278 C 509.882 -1.48721 -0.579166 0
M  V30 5279 C 510.082 -0.736976 -1.87539 0
M  V30 5280 O 509.138 -0.273258 -2.51017 0
M  V30 5281 C 510.451 -2.9323 -0.666082 0
M  V30 5282 C 511.999 -3.03701 -0.757267 0
M  V30 5283 C 512.474 -4.49552 -0.8756 0
M  V30 5284 N 513.965 -4.53561 -0.940035 0
M  V30 5285 C 514.7 -5.63683 -1.05116 0
M  V30 5286 N 514.196 -6.83576 -1.12675 0
M  V30 5287 N 515.989 -5.51516 -1.08565 0
M  V30 5288 H 508.14 -2.03123 0.620857 0
M  V30 5289 H 510.403 -0.922898 0.21671 0
M  V30 5290 H 510.109 -3.51032 0.21664 0
M  V30 5291 H 509.983 -3.44668 -1.53243 0
M  V30 5292 H 512.37 -2.45969 -1.63043 0
M  V30 5293 H 512.451 -2.55446 0.134583 0
M  V30 5294 H 512.095 -5.079 -0.00692351 0
M  V30 5295 H 512.025 -4.95506 -1.78274 0
M  V30 5296 H 514.516 -3.67215 -0.892269 0
M  V30 5297 H 514.829 -7.63251 -1.21109 0
M  V30 5298 H 513.174 -6.86303 -1.09603 0
M  V30 5299 H 516.365 -4.5678 -1.02319 0
M  V30 5300 H 516.538 -6.37372 -1.1688 0
M  V30 5301 N 509.944 0.496216 -1.49584 0
M  V30 5302 C 510.907 1.57952 -1.66084 0
M  V30 5303 C 511.907 1.51729 -0.53244 0
M  V30 5304 O 513.097 1.54796 -0.79899 0
M  V30 5305 C 510.229 2.97604 -1.66268 0
M  V30 5306 H 511.422 1.44649 -2.6271 0
M  V30 5307 H 508.975 0.7208 -1.38687 0
M  V30 5308 H 509.71 3.16378 -0.712432 0
M  V30 5309 H 509.495 3.03528 -2.4822 0
M  V30 5310 H 510.985 3.76301 -1.81073 0
M  V30 5311 N 511.423 1.38739 0.74761 0
M  V30 5312 C 512.353 1.39173 1.87492 0
M  V30 5313 C 513.334 0.256794 1.6815 0
M  V30 5314 O 514.519 0.460762 1.88655 0
M  V30 5315 C 511.649 1.22197 3.25093 0
M  V30 5316 C 510.603 2.32957 3.59047 0
M  V30 5317 C 509.929 2.01082 4.95449 0
M  V30 5318 C 511.229 3.75237 3.6331 0
M  V30 5319 H 512.923 2.3351 1.87386 0
M  V30 5320 H 510.469 1.12399 0.900134 0
M  V30 5321 H 512.422 1.21124 4.03617 0
M  V30 5322 H 511.146 0.243241 3.25693 0
M  V30 5323 H 509.805 2.33226 2.82845 0
M  V30 5324 H 509.453 1.01678 4.92616 0
M  V30 5325 H 509.153 2.75267 5.19136 0
M  V30 5326 H 510.677 2.01638 5.76346 0
M  V30 5327 H 512.091 3.76966 4.31937 0
M  V30 5328 H 510.488 4.48677 3.98509 0
M  V30 5329 H 511.558 4.07122 2.634 0
M  V30 5330 N 512.901 -0.976442 1.23707 0
M  V30 5331 C 514.129 -1.75341 1.09833 0
M  V30 5332 C 514.544 -1.8553 -0.349885 0
M  V30 5333 O 513.901 -1.33732 -1.24185 0
M  V30 5334 C 513.952 -3.17833 1.72233 0
M  V30 5335 O 513.673 -3.08167 3.11391 0
M  V30 5336 C 515.174 -4.11906 1.63853 0
M  V30 5337 H 512.394 -0.550137 0.384175 0
M  V30 5338 H 514.938 -1.2265 1.63638 0
M  V30 5339 H 513.093 -3.67538 1.22452 0
M  V30 5340 H 513.507 -3.97897 3.41729 0
M  V30 5341 H 514.981 -5.09579 2.12211 0
M  V30 5342 H 515.458 -4.35109 0.598092 0
M  V30 5343 H 516.064 -3.68107 2.13019 0
M  V30 5344 N 514.379 -1.04941 -1.1758 0
M  V30 5345 C 515.289 -0.658826 -2.25159 0
M  V30 5346 C 516.305 0.318941 -1.71052 0
M  V30 5347 O 517.481 0.171669 -2.00667 0
M  V30 5348 C 514.546 -0.0369522 -3.4668 0
M  V30 5349 C 513.607 -1.06484 -4.15884 0
M  V30 5350 C 512.84 -0.472551 -5.31604 0
M  V30 5351 O 513.063 0.718736 -5.65854 0
M  V30 5352 O 511.997 -1.20557 -5.89703 0
M  V30 5353 H 515.823 -1.55533 -2.60851 0
M  V30 5354 H 513.408 -0.820819 -1.24832 0
M  V30 5355 H 515.29 0.308784 -4.20267 0
M  V30 5356 H 513.965 0.833238 -3.12792 0
M  V30 5357 H 512.872 -1.46253 -3.44327 0
M  V30 5358 H 514.205 -1.9061 -4.53794 0
M  V30 5359 N 515.857 1.33968 -0.830081 0
M  V30 5360 C 517.085 2.0228 -0.434773 0
M  V30 5361 C 517.5 1.62487 0.961419 0
M  V30 5362 O 516.857 0.833849 1.62337 0
M  V30 5363 C 516.908 3.5751 -0.535625 0
M  V30 5364 O 516.629 3.95864 -1.87679 0
M  V30 5365 C 518.13 4.43091 -0.136137 0
M  V30 5366 H 515.35 0.648151 -0.173613 0
M  V30 5367 H 517.894 1.71089 -1.12022 0
M  V30 5368 H 516.049 3.87266 0.101817 0
M  V30 5369 H 516.463 4.9056 -1.85609 0
M  V30 5370 H 517.937 5.51398 -0.257772 0
M  V30 5371 H 518.414 4.29433 0.921076 0
M  V30 5372 H 519.02 4.18677 -0.747662 0
M  V30 5373 N 517.335 0.585699 1.46312 0
M  V30 5374 C 518.584 0.0701192 2.01578 0
M  V30 5375 C 518.897 -1.29889 1.46247 0
M  V30 5376 O 520.103 -1.90598 1.93351 0
M  V30 5377 C 518.559 0.0747499 3.59822 0
M  V30 5378 C 518.167 1.44226 4.24149 0
M  V30 5379 C 519.911 -0.38673 4.22735 0
M  V30 5380 C 517.818 1.40446 5.74481 0
M  V30 5381 H 516.748 0.0224441 0.753666 0
M  V30 5382 H 519.399 0.737789 1.68015 0
M  V30 5383 H 517.781 -0.659144 3.90476 0
M  V30 5384 H 518.955 2.19612 4.05101 0
M  V30 5385 H 517.27 1.84401 3.73343 0
M  V30 5386 H 519.867 -0.433853 5.32937 0
M  V30 5387 H 520.21 -1.40489 3.91878 0
M  V30 5388 H 520.743 0.293195 3.96718 0
M  V30 5389 H 517.482 2.39952 6.10003 0
M  V30 5390 H 517.002 0.692845 5.95785 0
M  V30 5391 H 518.681 1.11865 6.37256 0
M  V30 5392 N 518.813 -1.54241 0.323641 0
M  V30 5393 C 519.746 -2.20579 -0.584833 0
M  V30 5394 C 520.724 -1.18286 -1.11567 0
M  V30 5395 O 521.908 -1.47025 -1.17966 0
M  V30 5396 C 519.035 -2.86754 -1.80249 0
M  V30 5397 C 518.081 -4.02767 -1.4029 0
M  V30 5398 S 518.914 -5.33693 -0.439539 0
M  V30 5399 C 520.07 -6.03362 -1.66448 0
M  V30 5400 H 520.303 -2.97292 -0.0213238 0
M  V30 5401 H 517.836 -1.54024 0.107726 0
M  V30 5402 H 519.794 -3.25503 -2.50116 0
M  V30 5403 H 518.455 -2.09844 -2.33719 0
M  V30 5404 H 517.648 -4.47933 -2.31024 0
M  V30 5405 H 517.25 -3.65692 -0.783928 0
M  V30 5406 H 519.542 -6.25546 -2.6019 0
M  V30 5407 H 520.485 -6.9689 -1.25498 0
M  V30 5408 H 520.893 -5.33273 -1.85149 0
M  V30 5409 N 520.291 -0.0518155 -1.57515 0
M  V30 5410 C 521.538 0.621823 -1.92716 0
M  V30 5411 C 521.866 1.70813 -0.930229 0
M  V30 5412 O 521.121 1.95616 0.0573708 0
M  V30 5413 C 521.42 1.25607 -3.34601 0
M  V30 5414 C 521.086 0.297901 -4.49915 0
M  V30 5415 C 519.748 0.034243 -4.81188 0
M  V30 5416 C 522.1 -0.358738 -5.19964 0
M  V30 5417 C 519.428 -0.893479 -5.79857 0
M  V30 5418 C 521.78 -1.27466 -6.19625 0
M  V30 5419 C 520.444 -1.54698 -6.49326 0
M  V30 5420 H 519.714 0.227541 -0.705199 0
M  V30 5421 H 522.361 -0.118432 -1.91133 0
M  V30 5422 H 520.666 2.07161 -3.32553 0
M  V30 5423 H 522.363 1.78424 -3.59118 0
M  V30 5424 H 518.953 0.513581 -4.25512 0
M  V30 5425 H 523.137 -0.168133 -4.96015 0
M  V30 5426 H 518.393 -1.11193 -6.01204 0
M  V30 5427 H 522.567 -1.78953 -6.73015 0
M  V30 5428 H 520.194 -2.26748 -7.25596 0
M  V30 5429 N 521.769 1.56035 0.221574 0
M  V30 5430 C 523.046 1.69837 0.970301 0
M  V30 5431 C 523.426 0.599065 2.02421 0
M  V30 5432 O 522.774 -0.393929 2.25079 0
M  V30 5433 C 522.984 3.11148 1.58076 0
M  V30 5434 C 524.332 3.70555 2.07302 0
M  V30 5435 O 525.356 3.14109 1.6797 0
M  V30 5436 O 524.215 4.69562 2.79596 0
M  V30 5437 H 521.309 0.691727 0.453257 0
M  V30 5438 H 523.855 1.68353 0.213358 0
M  V30 5439 H 522.627 3.82617 0.819759 0
M  V30 5440 H 522.25 3.16749 2.40324 0
M  V30 5441 N 523.247 -0.488276 1.49845 0
M  V30 5442 C 524.524 -1.24959 1.50481 0
M  V30 5443 C 524.904 -2.09735 0.239698 0
M  V30 5444 O 524.252 -2.14865 -0.777524 0
M  V30 5445 C 524.462 -2.0954 2.79095 0
M  V30 5446 C 525.81 -2.68305 3.29086 0
M  V30 5447 O 526.834 -2.19797 2.80299 0
M  V30 5448 O 525.693 -3.56643 4.14087 0
M  V30 5449 H 522.787 -0.566133 0.602845 0
M  V30 5450 H 525.333 -0.501504 1.6212 0
M  V30 5451 H 524.105 -1.46958 3.62656 0
M  V30 5452 H 523.728 -2.91517 2.70377 0
M  V30 5453 N 524.725 -1.39134 -0.740242 0
M  V30 5454 C 525.688 -1.37217 -1.83587 0
M  V30 5455 C 526.688 -0.270221 -1.58513 0
M  V30 5456 O 527.878 -0.527843 -1.6601 0
M  V30 5457 C 525.01 -1.13959 -3.21288 0
M  V30 5458 H 526.203 -2.34705 -1.86691 0
M  V30 5459 H 523.756 -1.24622 -0.94335 0
M  V30 5460 H 524.491 -0.17131 -3.23847 0
M  V30 5461 H 524.276 -1.93754 -3.40884 0
M  V30 5462 H 525.766 -1.15346 -4.01354 0
M  V30 5463 N 526.204 0.969867 -1.24223 0
M  V30 5464 C 527.453 1.70687 -1.07466 0
M  V30 5465 C 527.766 1.91736 0.386861 0
M  V30 5466 O 528.972 2.62986 0.674581 0
M  V30 5467 C 527.428 3.07217 -1.87472 0
M  V30 5468 C 527.036 2.94018 -3.3802 0
M  V30 5469 C 528.78 3.84804 -1.79237 0
M  V30 5470 C 526.687 4.25844 -4.10379 0
M  V30 5471 H 525.617 0.640067 -0.398536 0
M  V30 5472 H 528.268 1.08092 -1.48285 0
M  V30 5473 H 526.65 3.70628 -1.39466 0
M  V30 5474 H 527.824 2.39632 -3.9359 0
M  V30 5475 H 526.139 2.29898 -3.47183 0
M  V30 5476 H 528.736 4.82417 -2.30603 0
M  V30 5477 H 529.079 4.09356 -0.757197 0
M  V30 5478 H 529.612 3.28115 -2.24912 0
M  V30 5479 H 526.351 4.06486 -5.14246 0
M  V30 5480 H 525.871 4.80054 -3.59594 0
M  V30 5481 H 527.55 4.94475 -4.17257 0
M  V30 5482 N 527.682 1.05563 1.17022 0
M  V30 5483 C 528.592 0.670758 2.24807 0
M  V30 5484 C 529.608 -0.309865 1.71219 0
M  V30 5485 O 530.784 -0.161025 2.00755 0
M  V30 5486 C 527.849 0.055337 3.46656 0
M  V30 5487 C 526.91 1.08688 4.15314 0
M  V30 5488 C 526.143 0.500736 5.31346 0
M  V30 5489 O 526.366 -0.688718 5.66227 0
M  V30 5490 O 525.3 1.23683 5.89055 0
M  V30 5491 H 529.126 1.56914 2.60023 0
M  V30 5492 H 526.711 0.827428 1.24395 0
M  V30 5493 H 528.593 -0.286492 4.20425 0
M  V30 5494 H 527.268 -0.816638 3.13229 0
M  V30 5495 H 526.175 1.48077 3.43546 0
M  V30 5496 H 527.508 1.93014 4.52777 0
M  V30 5497 N 529.16 -1.33526 0.837174 0
M  V30 5498 C 530.576 -1.50727 0.524743 0
M  V30 5499 C 530.776 -1.77792 -0.948279 0
M  V30 5500 O 529.832 -1.83719 -1.73216 0
M  V30 5501 C 531.145 -2.66299 1.39661 0
M  V30 5502 C 532.693 -2.80183 1.39521 0
M  V30 5503 C 533.168 -3.98815 2.25189 0
M  V30 5504 N 534.659 -4.06047 2.2289 0
M  V30 5505 C 535.394 -4.97032 2.85915 0
M  V30 5506 N 534.89 -5.93143 3.57985 0
M  V30 5507 N 536.683 -4.90015 2.75394 0
M  V30 5508 H 528.834 -1.1422 1.79074 0
M  V30 5509 H 531.097 -0.561399 0.763894 0
M  V30 5510 H 530.803 -2.52974 2.4433 0
M  V30 5511 H 530.677 -3.61663 1.07145 0
M  V30 5512 H 533.064 -2.92942 0.356253 0
M  V30 5513 H 533.145 -1.85586 1.76044 0
M  V30 5514 H 532.789 -3.86817 3.29143 0
M  V30 5515 H 532.719 -4.92654 1.86009 0
M  V30 5516 H 535.21 -3.37262 1.70478 0
M  V30 5517 H 535.523 -6.59227 4.03286 0
M  V30 5518 H 533.868 -5.93223 3.62093 0
M  V30 5519 H 537.059 -4.13894 2.18654 0
M  V30 5520 H 537.232 -5.60724 3.24796 0
M  V30 5521 N 530.638 -0.59345 -1.46 0
M  V30 5522 C 531.601 0.123538 -2.28867 0
M  V30 5523 C 532.601 0.808628 -1.38989 0
M  V30 5524 O 533.791 0.658945 -1.61256 0
M  V30 5525 C 530.923 1.1847 -3.19653 0
M  V30 5526 H 532.116 -0.604843 -2.93737 0
M  V30 5527 H 529.669 -0.351875 -1.52288 0
M  V30 5528 H 530.404 1.94431 -2.59552 0
M  V30 5529 H 530.189 0.69783 -3.8584 0
M  V30 5530 H 531.679 1.68726 -3.81997 0
M  V30 5531 N 532.116 1.54067 -0.331816 0
M  V30 5532 C 533.364 2.00319 0.267739 0
M  V30 5533 C 533.685 1.22148 1.52003 0
M  V30 5534 O 532.955 0.325494 1.93177 0
M  V30 5535 H 531.535 0.740014 0.101922 0
M  V30 5536 H 534.197 1.89628 -0.450267 0
M  V30 5537 H 533.293 3.07765 0.518385 0
M  V30 5538 N 533.594 0.0601682 1.57485 0
M  V30 5539 C 534.526 -0.94047 2.09016 0
M  V30 5540 C 535.539 -1.26897 1.01985 0
M  V30 5541 O 536.728 -1.22819 1.29529 0
M  V30 5542 C 533.828 -2.25955 2.52582 0
M  V30 5543 C 533.001 -2.11163 3.83052 0
M  V30 5544 C 532.06 -3.26273 4.12835 0
M  V30 5545 O 531.086 -3.01779 4.82616 0
M  V30 5546 N 532.288 -4.51022 3.65458 0
M  V30 5547 H 535.053 -0.500578 2.9549 0
M  V30 5548 H 532.614 -0.125852 1.6141 0
M  V30 5549 H 534.606 -3.01846 2.69575 0
M  V30 5550 H 533.176 -2.61481 1.71308 0
M  V30 5551 H 532.396 -1.19808 3.75552 0
M  V30 5552 H 533.684 -1.98517 4.68475 0
M  V30 5553 H 533.082 -4.73811 3.09062 0
M  V30 5554 H 531.639 -5.23978 3.87673 0
M  V30 5555 N 535.072 -1.5615 -0.213296 0
M  V30 5556 C 536.002 -1.96109 -1.26742 0
M  V30 5557 C 536.983 -0.830448 -1.48451 0
M  V30 5558 O 538.168 -1.09339 -1.60495 0
M  V30 5559 C 535.298 -2.28492 -2.61551 0
M  V30 5560 C 534.252 -3.44124 -2.54485 0
M  V30 5561 C 533.578 -3.62134 -3.93399 0
M  V30 5562 C 534.878 -4.78855 -2.08556 0
M  V30 5563 H 536.572 -2.84412 -0.935434 0
M  V30 5564 H 534.118 -1.36836 -0.44854 0
M  V30 5565 H 536.071 -2.55039 -3.3546 0
M  V30 5566 H 534.795 -1.37052 -2.96453 0
M  V30 5567 H 533.454 -3.17639 -1.83033 0
M  V30 5568 H 533.102 -2.68055 -4.25623 0
M  V30 5569 H 532.802 -4.39913 -3.89551 0
M  V30 5570 H 534.326 -3.91038 -4.68958 0
M  V30 5571 H 535.74 -5.04552 -2.72213 0
M  V30 5572 H 534.137 -5.59975 -2.1575 0
M  V30 5573 H 535.207 -4.73657 -1.03811 0
M  V30 5574 N 536.55 0.480323 -1.50102 0
M  V30 5575 C 537.778 1.25657 -1.64371 0
M  V30 5576 C 538.193 1.86011 -0.323316 0
M  V30 5577 O 537.55 1.68803 0.693682 0
M  V30 5578 C 537.601 2.37197 -2.728 0
M  V30 5579 O 537.322 1.7932 -3.9972 0
M  V30 5580 C 538.823 3.2823 -2.9796 0
M  V30 5581 H 536.043 0.380369 -0.552775 0
M  V30 5582 H 538.587 0.574379 -1.96268 0
M  V30 5583 H 536.742 3.01208 -2.43623 0
M  V30 5584 H 537.156 2.52701 -4.59611 0
M  V30 5585 H 538.63 4.02725 -3.77513 0
M  V30 5586 H 539.107 3.86462 -2.08671 0
M  V30 5587 H 539.713 2.69964 -3.28633 0
M  V30 5588 N 538.028 1.39524 0.732853 0
M  V30 5589 C 539.253 1.40329 1.52717 0
M  V30 5590 C 539.678 0.000286574 1.881 0
M  V30 5591 O 539.036 -0.987262 1.52062 0
M  V30 5592 C 539.084 2.28464 2.78992 0
M  V30 5593 O 538.188 1.716 3.75003 0
M  V30 5594 H 537.529 0.47778 0.461109 0
M  V30 5595 H 540.059 1.83546 0.903996 0
M  V30 5596 H 540.069 2.43051 3.27705 0
M  V30 5597 H 538.744 3.30425 2.52572 0
M  V30 5598 H 537.321 1.66267 3.33781 0
M  V30 5599 N 539.506 -0.963266 1.24736 0
M  V30 5600 C 540.416 -2.09246 1.06082 0
M  V30 5601 C 541.432 -1.74 0.000363101 0
M  V30 5602 O 542.608 -2.0041 0.199479 0
M  V30 5603 C 539.673 -3.40115 0.672498 0
M  V30 5604 C 538.734 -3.89282 1.80993 0
M  V30 5605 C 537.967 -5.13905 1.44004 0
M  V30 5606 O 538.19 -5.69434 0.331835 0
M  V30 5607 O 537.124 -5.57566 2.26723 0
M  V30 5608 H 540.95 -2.27881 2.00759 0
M  V30 5609 H 538.535 -1.07649 1.03595 0
M  V30 5610 H 540.417 -4.18797 0.467668 0
M  V30 5611 H 539.092 -3.22771 -0.245102 0
M  V30 5612 H 537.999 -3.11642 2.06955 0
M  V30 5613 H 539.332 -4.1111 2.70646 0
M  V30 5614 N 540.985 -1.06182 -1.16461 0
M  V30 5615 C 541.895 -0.682671 -2.24448 0
M  V30 5616 C 542.911 0.30078 -1.71381 0
M  V30 5617 O 544.087 0.150376 -2.00838 0
M  V30 5618 C 541.152 -0.0737202 -3.46622 0
M  V30 5619 C 540.213 -1.10889 -4.14731 0
M  V30 5620 C 539.446 -0.528908 -5.31073 0
M  V30 5621 O 539.669 0.65868 -5.66584 0
M  V30 5622 O 538.603 -1.26805 -5.88391 0
M  V30 5623 H 542.429 -1.58291 -2.59187 0
M  V30 5624 H 540.014 -0.834013 -1.23954 0
M  V30 5625 H 541.896 0.264192 -4.20571 0
M  V30 5626 H 540.571 0.800015 -3.13658 0
M  V30 5627 H 539.478 -1.49896 -3.42756 0
M  V30 5628 H 540.811 -1.95412 -4.51747 0
M  V30 5629 N 542.463 1.3308 -0.844243 0
M  V30 5630 C 543.74 1.92178 -0.364261 0
M  V30 5631 C 544.12 1.76961 1.15101 0
M  V30 5632 O 543.468 1.16128 1.9679 0
M  V30 5633 C 543.678 3.393 -0.817106 0
M  V30 5634 C 545.026 4.16444 -0.828236 0
M  V30 5635 O 546.05 3.47975 -0.761062 0
M  V30 5636 O 544.909 5.38685 -0.920926 0
M  V30 5637 H 542.003 0.820411 -0.10419 0
M  V30 5638 H 544.549 1.41918 -0.930453 0
M  V30 5639 H 543.321 3.44272 -1.85991 0
M  V30 5640 H 542.944 3.96947 -0.227785 0
M  V30 5641 N 543.941 0.601185 1.45683 0
M  V30 5642 C 545.169 0.100054 2.06658 0
M  V30 5643 C 545.584 -1.21285 1.44691 0
M  V30 5644 O 544.941 -1.73735 0.558772 0
M  V30 5645 C 544.992 -0.0528579 3.61461 0
M  V30 5646 O 544.713 1.20809 4.21114 0
M  V30 5647 C 546.214 -0.586193 4.39407 0
M  V30 5648 H 543.434 0.065905 0.667756 0
M  V30 5649 H 545.978 0.827101 1.87028 0
M  V30 5650 H 544.133 -0.730203 3.80456 0
M  V30 5651 H 544.547 1.03368 5.14213 0
M  V30 5652 H 546.021 -0.642297 5.4825 0
M  V30 5653 H 546.498 -1.60713 4.0874 0
M  V30 5654 H 547.104 0.0568935 4.25262 0
M  V30 5655 N 545.419 -1.53889 0.339982 0
M  V30 5656 C 546.349 -2.27843 -0.510856 0
M  V30 5657 C 547.33 -1.29267 -1.10563 0
M  V30 5658 O 548.515 -1.58104 -1.12768 0
M  V30 5659 C 545.645 -3.04857 -1.66372 0
M  V30 5660 C 544.599 -4.10907 -1.19746 0
M  V30 5661 C 543.925 -4.75855 -2.43857 0
M  V30 5662 C 545.225 -5.21435 -0.300501 0
M  V30 5663 H 546.919 -2.99212 0.106067 0
M  V30 5664 H 544.465 -1.43904 0.0524533 0
M  V30 5665 H 546.418 -3.5533 -2.26537 0
M  V30 5666 H 545.142 -2.31133 -2.30749 0
M  V30 5667 H 543.801 -3.61342 -0.618654 0
M  V30 5668 H 543.449 -3.9873 -3.06633 0
M  V30 5669 H 543.149 -5.47502 -2.13343 0
M  V30 5670 H 544.673 -5.2911 -3.04754 0
M  V30 5671 H 546.087 -5.67565 -0.80889 0
M  V30 5672 H 544.484 -6.00036 -0.0874076 0
M  V30 5673 H 545.554 -4.80328 0.664321 0
M  V30 5674 N 546.897 -0.0685191 -1.57451 0
M  V30 5675 C 548.122 0.613919 -1.98106 0
M  V30 5676 C 548.547 1.62551 -0.946501 0
M  V30 5677 O 547.905 1.81085 0.0882824 0
M  V30 5678 C 547.953 1.26189 -3.378 0
M  V30 5679 O 547.057 2.37773 -3.36954 0
M  V30 5680 H 546.398 0.158163 -0.644888 0
M  V30 5681 H 548.928 -0.142063 -2.04106 0
M  V30 5682 H 548.938 1.60951 -3.74912 0
M  V30 5683 H 547.613 0.520625 -4.12629 0
M  V30 5684 H 546.19 2.04829 -3.11608 0
M  V30 5685 N 548.375 1.56261 0.205012 0
M  V30 5686 C 549.305 1.96779 1.257 0
M  V30 5687 C 550.286 0.838309 1.48008 0
M  V30 5688 O 551.471 1.10189 1.59913 0
M  V30 5689 C 548.601 2.29876 2.60335 0
M  V30 5690 C 547.555 3.45469 2.52656 0
M  V30 5691 C 546.881 3.64215 3.91473 0
M  V30 5692 C 548.181 4.79954 2.06014 0
M  V30 5693 H 549.875 2.84904 0.920338 0
M  V30 5694 H 547.421 1.37072 0.441277 0
M  V30 5695 H 549.374 2.56814 3.34102 0
M  V30 5696 H 548.098 1.38622 2.95722 0
M  V30 5697 H 546.757 3.18605 1.81345 0
M  V30 5698 H 546.405 2.70309 4.24196 0
M  V30 5699 H 546.105 4.41973 3.87213 0
M  V30 5700 H 547.629 3.93519 4.66878 0
M  V30 5701 H 549.043 5.05989 2.69533 0
M  V30 5702 H 547.44 5.61111 2.12777 0
M  V30 5703 H 548.51 4.74201 1.01297 0
M  V30 5704 N 549.853 -0.472356 1.50355 0
M  V30 5705 C 551.099 -1.22634 1.6152 0
M  V30 5706 C 551.432 -1.91645 0.313995 0
M  V30 5707 O 550.707 -1.82059 -0.684446 0
M  V30 5708 C 550.99 -2.27099 2.7946 0
M  V30 5709 C 550.843 -1.62402 4.19459 0
M  V30 5710 C 552.162 -3.28421 2.92964 0
M  V30 5711 H 549.281 -0.444494 0.587873 0
M  V30 5712 H 551.923 -0.520321 1.82737 0
M  V30 5713 H 550.073 -2.87314 2.61501 0
M  V30 5714 H 551.745 -1.05793 4.49005 0
M  V30 5715 H 549.988 -0.927184 4.23776 0
M  V30 5716 H 550.659 -2.38309 4.97909 0
M  V30 5717 H 553.135 -2.78227 3.09401 0
M  V30 5718 H 552.011 -3.98845 3.77113 0
M  V30 5719 H 552.272 -3.92467 2.03525 0
M  V30 5720 N 551.331 -1.39911 -0.725443 0
M  V30 5721 C 552.559 -1.40949 -1.51463 0
M  V30 5722 C 552.974 -0.0065242 -1.88799 0
M  V30 5723 O 552.331 0.967163 -1.54765 0
M  V30 5724 C 552.382 -2.29119 -2.79619 0
M  V30 5725 O 552.103 -3.63952 -2.43866 0
M  V30 5726 C 553.604 -2.38642 -3.73584 0
M  V30 5727 H 550.824 -0.481091 -0.467752 0
M  V30 5728 H 553.368 -1.83843 -0.895651 0
M  V30 5729 H 551.523 -1.89612 -3.37826 0
M  V30 5730 H 551.937 -4.10677 -3.26258 0
M  V30 5731 H 553.411 -3.04563 -4.60375 0
M  V30 5732 H 553.888 -1.40846 -4.16004 0
M  V30 5733 H 554.494 -2.78659 -3.21293 0
M  V30 5734 N 552.809 0.956637 -1.25245 0
M  V30 5735 C 553.772 2.03457 -1.05537 0
M  V30 5736 C 554.772 1.60798 -0.00886317 0
M  V30 5737 O 555.962 1.72384 -0.250865 0
M  V30 5738 C 553.094 3.35543 -0.601965 0
M  V30 5739 H 554.287 2.22372 -2.01223 0
M  V30 5740 H 551.84 1.13344 -1.07623 0
M  V30 5741 H 552.575 3.22323 0.357584 0
M  V30 5742 H 552.36 3.67854 -1.35743 0
M  V30 5743 H 553.85 4.14769 -0.485454 0
M  V30 5744 N 554.287 1.06798 1.15896 0
M  V30 5745 C 555.564 0.701057 1.82605 0
M  V30 5746 C 555.944 -0.817066 1.94646 0
M  V30 5747 O 555.292 -1.72933 1.49353 0
M  V30 5748 C 555.502 1.40895 3.19296 0
M  V30 5749 C 556.85 1.55744 3.95005 0
M  V30 5750 O 557.874 1.36927 3.28831 0
M  V30 5751 O 556.733 1.86658 5.13635 0
M  V30 5752 H 553.827 0.248791 0.78869 0
M  V30 5753 H 556.373 1.16857 1.23055 0
M  V30 5754 H 555.145 2.4439 3.05596 0
M  V30 5755 H 554.768 0.931847 3.86526 0
M  V30 5756 N 555.766 -1.3263 0.851289 0
M  V30 5757 C 556.716 -2.26451 0.265302 0
M  V30 5758 C 557.7 -1.49814 -0.586899 0
M  V30 5759 O 558.892 -1.71525 -0.436834 0
M  V30 5760 C 556.021 -3.38895 -0.548212 0
M  V30 5761 C 555.107 -4.2292 0.316189 0
M  V30 5762 N 555.498 -4.86014 1.40084 0
M  V30 5763 C 553.796 -4.45876 0.105356 0
M  V30 5764 C 554.497 -5.48667 1.93235 0
M  V30 5765 N 553.473 -5.29455 1.232 0
M  V30 5766 H 557.275 -2.72757 1.09457 0
M  V30 5767 H 554.789 -1.4668 0.697047 0
M  V30 5768 H 556.786 -4.05111 -0.984402 0
M  V30 5769 H 555.446 -2.94135 -1.37531 0
M  V30 5770 H 556.457 -4.86212 1.78377 0
M  V30 5771 H 553.134 -4.11804 -0.687299 0
M  V30 5772 H 554.524 -6.08865 2.84135 0
M  V30 5773 N 557.244 -0.608902 -1.45362 0
M  V30 5774 C 558.469 -0.10921 -2.07112 0
M  V30 5775 C 558.894 1.19779 -1.45033 0
M  V30 5776 O 558.252 1.72961 -0.543527 0
M  V30 5777 C 558.3 0.0155745 -3.60597 0
M  V30 5778 O 557.404 1.06546 -3.98399 0
M  V30 5779 H 556.745 -0.0746619 -0.659789 0
M  V30 5780 H 559.275 -0.839283 -1.86594 0
M  V30 5781 H 559.285 0.213364 -4.07442 0
M  V30 5782 H 557.96 -0.938765 -4.05167 0
M  V30 5783 H 556.537 0.844024 -3.63223 0
M  V30 5784 N 558.722 1.53707 -0.348139 0
M  V30 5785 C 559.672 2.2193 0.522592 0
M  V30 5786 C 560.656 1.20831 1.06248 0
M  V30 5787 O 561.848 1.46357 0.995415 0
M  V30 5788 C 558.977 2.99904 1.6707 0
M  V30 5789 C 558.063 4.08364 1.14454 0
M  V30 5790 N 558.454 5.04656 0.339958 0
M  V30 5791 C 556.752 4.22757 1.421 0
M  V30 5792 C 557.453 5.81675 0.0538806 0
M  V30 5793 N 556.429 5.39739 0.646776 0
M  V30 5794 H 560.231 2.93733 -0.099135 0
M  V30 5795 H 557.745 1.61656 -0.15524 0
M  V30 5796 H 559.742 3.47284 2.30651 0
M  V30 5797 H 558.402 2.29629 2.29566 0
M  V30 5798 H 559.413 5.17896 -0.0193552 0
M  V30 5799 H 556.09 3.63704 2.05002 0
M  V30 5800 H 557.48 6.69256 -0.595443 0
M  V30 5801 N 560.2 0.0768682 1.57412 0
M  V30 5802 C 561.446 -0.591961 1.93968 0
M  V30 5803 C 561.779 -1.68954 0.9575 0
M  V30 5804 O 561.054 -1.94496 -0.0124675 0
M  V30 5805 C 561.337 -1.16418 3.40762 0
M  V30 5806 C 561.19 -0.0728933 4.49741 0
M  V30 5807 C 562.509 -2.06814 3.88479 0
M  V30 5808 H 559.628 -0.213716 0.705333 0
M  V30 5809 H 562.27 0.14387 1.89455 0
M  V30 5810 H 560.42 -1.79128 3.4474 0
M  V30 5811 H 562.092 0.560446 4.57883 0
M  V30 5812 H 560.335 0.595859 4.29688 0
M  V30 5813 H 561.006 -0.513755 5.49604 0
M  V30 5814 H 563.482 -1.54033 3.8654 0
M  V30 5815 H 562.358 -2.43785 4.91793 0
M  V30 5816 H 562.619 -2.97844 3.26713 0
M  V30 5817 N 561.678 -1.56367 -0.196722 0
M  V30 5818 C 562.925 -1.80529 -0.917366 0
M  V30 5819 C 563.253 -0.649817 -1.83324 0
M  V30 5820 O 562.508 0.36451 -1.92275 0
M  V30 5821 C 562.807 -3.10663 -1.767 0
M  V30 5822 C 562.473 -4.3962 -1.00225 0
M  V30 5823 C 561.135 -4.74653 -0.791095 0
M  V30 5824 C 563.487 -5.1913 -0.464035 0
M  V30 5825 C 560.815 -5.86692 -0.0302155 0
M  V30 5826 C 563.167 -6.31964 0.283625 0
M  V30 5827 C 561.831 -6.65581 0.505813 0
M  V30 5828 H 561.101 -0.660602 -0.335688 0
M  V30 5829 H 563.748 -1.90615 -0.183844 0
M  V30 5830 H 562.053 -2.95807 -2.56915 0
M  V30 5831 H 563.75 -3.26563 -2.32718 0
M  V30 5832 H 560.34 -4.12127 -1.17684 0
M  V30 5833 H 564.524 -4.9248 -0.614575 0
M  V30 5834 H 559.78 -6.11211 0.151917 0
M  V30 5835 H 563.954 -6.92791 0.708057 0
M  V30 5836 H 561.581 -7.52239 1.0973 0
M  V30 5837 N 563.156 0.464375 -1.50603 0
M  V30 5838 C 564.381 1.24372 -1.65971 0
M  V30 5839 C 564.806 1.84901 -0.345453 0
M  V30 5840 O 564.164 1.67596 0.691457 0
M  V30 5841 C 564.212 2.32331 -2.7578 0
M  V30 5842 O 563.316 3.37146 -2.375 0
M  V30 5843 H 562.657 0.365604 -0.554283 0
M  V30 5844 H 565.187 0.55183 -1.97018 0
M  V30 5845 H 565.197 2.77539 -2.99059 0
M  V30 5846 H 563.872 1.87648 -3.71162 0
M  V30 5847 H 562.449 2.97602 -2.24694 0
M  V30 5848 N 564.634 1.40294 0.718013 0
M  V30 5849 C 565.881 1.3844 1.47786 0
M  V30 5850 C 566.209 -0.0140838 1.94495 0
M  V30 5851 O 565.464 -0.998165 1.68331 0
M  V30 5852 C 565.763 2.31814 2.72024 0
M  V30 5853 C 565.429 3.79117 2.44093 0
M  V30 5854 C 564.091 4.19249 2.36185 0
M  V30 5855 C 566.443 4.72212 2.20602 0
M  V30 5856 C 563.771 5.50516 2.02851 0
M  V30 5857 C 566.123 6.03775 1.88781 0
M  V30 5858 C 564.787 6.42953 1.79354 0
M  V30 5859 H 564.057 0.506588 0.540786 0
M  V30 5860 H 566.704 1.72929 0.822663 0
M  V30 5861 H 565.009 1.90501 3.42369 0
M  V30 5862 H 566.706 2.27664 3.30106 0
M  V30 5863 H 563.296 3.47318 2.51133 0
M  V30 5864 H 567.48 4.42026 2.25669 0
M  V30 5865 H 562.736 5.79776 1.94088 0
M  V30 5866 H 566.91 6.75428 1.69617 0
M  V30 5867 H 564.537 7.44584 1.53291 0
M  V30 5868 N 566.112 -0.949982 1.2575 0
M  V30 5869 C 567.36 -1.6918 1.10555 0
M  V30 5870 C 567.681 -1.91773 -0.353298 0
M  V30 5871 O 566.951 -1.50814 -1.25027 0
M  V30 5872 H 565.531 -0.626952 0.406129 0
M  V30 5873 H 568.193 -1.1419 1.57945 0
M  V30 5874 H 567.289 -2.66915 1.61749 0
M  V30 5875 N 567.59 -1.07411 -1.15328 0
M  V30 5876 C 568.838 -0.796073 -1.85761 0
M  V30 5877 C 569.159 0.679864 -1.82764 0
M  V30 5878 O 568.429 1.49242 -1.269 0
M  V30 5879 H 567.009 -0.291495 -0.687779 0
M  V30 5880 H 569.671 -1.35799 -1.39802 0
M  V30 5881 H 568.767 -1.13114 -2.90881 0
M  V30 5882 N 569.068 1.32177 -0.85831 0
M  V30 5883 C 570.298 2.01021 -0.476889 0
M  V30 5884 C 570.706 1.64653 0.931995 0
M  V30 5885 O 570.049 0.865713 1.62022 0
M  V30 5886 C 570.111 3.55413 -0.540528 0
M  V30 5887 C 569.775 4.1522 -1.90895 0
M  V30 5888 C 570.772 4.3318 -2.87491 0
M  V30 5889 C 568.457 4.51212 -2.20709 0
M  V30 5890 C 570.451 4.86306 -4.1205 0
M  V30 5891 C 568.138 5.04042 -3.45521 0
M  V30 5892 C 569.136 5.21538 -4.41007 0
M  V30 5893 O 568.824 5.73238 -5.63608 0
M  V30 5894 H 568.556 0.650059 -0.18547 0
M  V30 5895 H 571.11 1.69648 -1.15796 0
M  V30 5896 H 569.34 3.86196 0.19741 0
M  V30 5897 H 571.029 4.05526 -0.174191 0
M  V30 5898 H 571.795 4.05704 -2.65762 0
M  V30 5899 H 567.674 4.36878 -1.4717 0
M  V30 5900 H 571.218 4.99877 -4.86589 0
M  V30 5901 H 567.115 5.30952 -3.67098 0
M  V30 5902 H 567.883 5.91625 -5.65617 0
M  V30 5903 N 570.547 0.616602 1.45037 0
M  V30 5904 C 571.958 0.199359 1.85633 0
M  V30 5905 C 572.309 -1.24588 1.51566 0
M  V30 5906 O 571.434 -1.94594 0.94668 0
M  V30 5907 C 572.029 0.355033 3.36935 0
M  V30 5908 C 570.588 -0.00758748 3.76399 0
M  V30 5909 C 569.735 0.675256 2.68953 0
M  V30 5910 H 572.686 0.822708 1.3571 0
M  V30 5911 H 572.707 -0.410201 3.78282 0
M  V30 5912 H 572.219 1.40699 3.61698 0
M  V30 5913 H 570.32 -1.05837 3.57252 0
M  V30 5914 H 570.433 0.392346 4.77491 0
M  V30 5915 H 568.797 0.111992 2.54454 0
M  V30 5916 H 569.58 1.72952 2.96551 0
M  V30 5917 N 572.025 -1.5352 0.356285 0
M  V30 5918 C 572.955 -2.28372 -0.486661 0
M  V30 5919 C 573.936 -1.30432 -1.09185 0
M  V30 5920 O 575.121 -1.59291 -1.11085 0
M  V30 5921 C 572.251 -3.06604 -1.63129 0
M  V30 5922 C 571.205 -4.12154 -1.15381 0
M  V30 5923 C 570.531 -4.78415 -2.38796 0
M  V30 5924 C 571.831 -5.21724 -0.245179 0
M  V30 5925 H 573.525 -2.99083 0.137797 0
M  V30 5926 H 571.071 -1.43841 0.0677134 0
M  V30 5927 H 573.024 -3.57712 -2.22755 0
M  V30 5928 H 571.748 -2.33568 -2.28284 0
M  V30 5929 H 570.407 -3.61978 -0.580294 0
M  V30 5930 H 570.055 -4.01959 -3.02387 0
M  V30 5931 H 569.755 -5.49734 -2.07524 0
M  V30 5932 H 571.279 -5.32313 -2.99125 0
M  V30 5933 H 572.693 -5.68391 -0.748646 0
M  V30 5934 H 571.09 -6.00095 -0.0237608 0
M  V30 5935 H 572.16 -4.79596 0.715229 0
M  V30 5936 N 573.503 -0.0852151 -1.57369 0
M  V30 5937 C 574.919 0.271436 -1.57275 0
M  V30 5938 C 575.119 1.69109 -1.09565 0
M  V30 5939 O 574.175 2.40549 -0.767611 0
M  V30 5940 C 575.488 0.0688638 -3.00621 0
M  V30 5941 C 577.036 0.137373 -3.12698 0
M  V30 5942 C 577.511 -0.0370832 -4.57985 0
M  V30 5943 N 579.002 0.0180794 -4.63196 0
M  V30 5944 C 579.737 -0.0922953 -5.73326 0
M  V30 5945 N 579.233 -0.256948 -6.92323 0
M  V30 5946 N 581.026 -0.0342702 -5.6209 0
M  V30 5947 H 573.177 -1.01288 -1.86693 0
M  V30 5948 H 575.44 -0.396138 -0.861266 0
M  V30 5949 H 575.146 -0.911277 -3.39689 0
M  V30 5950 H 575.02 0.815442 -3.6828 0
M  V30 5951 H 577.407 1.10801 -2.73509 0
M  V30 5952 H 577.488 -0.640532 -2.47651 0
M  V30 5953 H 577.132 -1.00455 -4.97867 0
M  V30 5954 H 577.062 0.760392 -5.21081 0
M  V30 5955 H 579.553 0.143202 -3.77629 0
M  V30 5956 H 579.866 -0.332949 -7.72082 0
M  V30 5957 H 578.211 -0.292487 -6.94384 0
M  V30 5958 H 581.402 0.0931605 -4.68007 0
M  V30 5959 H 581.575 -0.12374 -6.47882 0
M  V30 5960 N 574.981 1.5647 0.188427 0
M  V30 5961 C 576.229 1.80655 0.905986 0
M  V30 5962 C 576.55 0.659391 1.83513 0
M  V30 5963 O 575.82 -0.321868 1.93238 0
M  V30 5964 H 574.4 0.666391 0.337538 0
M  V30 5965 H 577.062 1.93949 0.192339 0
M  V30 5966 H 576.158 2.74066 1.49313 0
M  V30 5967 N 576.459 -0.456382 1.50847 0
M  V30 5968 C 577.684 -1.2349 1.66628 0
M  V30 5969 C 578.109 -1.84715 0.355254 0
M  V30 5970 O 577.467 -1.67961 -0.682559 0
M  V30 5971 C 577.515 -2.30865 2.77009 0
M  V30 5972 O 576.619 -3.35882 2.39285 0
M  V30 5973 H 575.96 -0.36266 0.556214 0
M  V30 5974 H 578.49 -0.541374 1.97308 0
M  V30 5975 H 578.5 -2.75949 3.00526 0
M  V30 5976 H 577.175 -1.85677 3.72152 0
M  V30 5977 H 575.752 -2.96406 2.26269 0
M  V30 5978 N 577.937 -1.40673 -0.710563 0
M  V30 5979 C 579.162 -1.42741 -1.50465 0
M  V30 5980 C 579.587 -0.0302116 -1.88076 0
M  V30 5981 O 578.945 0.962945 -1.53613 0
M  V30 5982 C 578.993 -2.32873 -2.75322 0
M  V30 5983 O 578.097 -1.77544 -3.72226 0
M  V30 5984 H 577.438 -0.485056 -0.45345 0
M  V30 5985 H 579.968 -1.84961 -0.874681 0
M  V30 5986 H 579.978 -2.48233 -3.23797 0
M  V30 5987 H 578.653 -3.34401 -2.47283 0
M  V30 5988 H 577.23 -1.71556 -3.31093 0
M  V30 5989 N 579.415 0.9433 -1.26252 0
M  V30 5990 C 580.664 1.68369 -1.11062 0
M  V30 5991 C 580.977 1.92514 0.346104 0
M  V30 5992 O 582.183 2.64358 0.618646 0
M  V30 5993 C 580.639 3.03171 -1.93946 0
M  V30 5994 C 580.247 2.86782 -3.4418 0
M  V30 5995 C 581.991 3.80916 -1.87359 0
M  V30 5996 C 579.898 4.17044 -4.19319 0
M  V30 5997 H 578.828 0.631469 -0.412023 0
M  V30 5998 H 581.479 1.04922 -1.50544 0
M  V30 5999 H 579.861 3.67587 -1.47296 0
M  V30 6000 H 581.035 2.31229 -3.98585 0
M  V30 6001 H 579.35 2.22482 -3.51981 0
M  V30 6002 H 581.947 4.77417 -2.40784 0
M  V30 6003 H 582.29 4.07658 -0.843857 0
M  V30 6004 H 582.823 3.2327 -2.31821 0
M  V30 6005 H 579.562 3.95487 -5.22753 0
M  V30 6006 H 579.082 4.72319 -3.69696 0
M  V30 6007 H 580.761 4.85513 -4.27651 0
M  V30 6008 N 580.893 1.08022 1.14757 0
M  V30 6009 C 582.14 0.807509 1.85703 0
M  V30 6010 C 582.468 -0.666617 1.8272 0
M  V30 6011 O 581.723 -1.50562 1.25018 0
M  V30 6012 C 582.022 1.26964 3.34088 0
M  V30 6013 C 581.688 2.7509 3.57262 0
M  V30 6014 C 580.35 3.15547 3.63296 0
M  V30 6015 C 582.702 3.70667 3.66409 0
M  V30 6016 C 580.03 4.50384 3.75994 0
M  V30 6017 C 582.382 5.05274 3.80632 0
M  V30 6018 C 581.046 5.45342 3.84913 0
M  V30 6019 H 580.316 0.295488 0.679535 0
M  V30 6020 H 582.963 1.35245 1.35577 0
M  V30 6021 H 581.268 0.644216 3.86467 0
M  V30 6022 H 582.965 1.03544 3.87401 0
M  V30 6023 H 579.555 2.42775 3.53212 0
M  V30 6024 H 583.739 3.40533 3.61041 0
M  V30 6025 H 578.995 4.80886 3.77569 0
M  V30 6026 H 583.169 5.79201 3.86652 0
M  V30 6027 H 580.796 6.49823 3.94505 0
M  V30 6028 N 582.371 -1.3172 0.865308 0
M  V30 6029 C 583.619 -1.96487 0.472995 0
M  V30 6030 C 583.94 -1.68761 -0.976975 0
M  V30 6031 O 583.21 -1.00051 -1.68424 0
M  V30 6032 H 581.79 -0.726947 0.171922 0
M  V30 6033 H 584.452 -1.60612 1.10407 0
M  V30 6034 H 583.548 -3.0574 0.62687 0
M  V30 6035 N 583.85 -0.624285 -1.44708 0
M  V30 6036 C 584.779 0.0717025 -2.3339 0
M  V30 6037 C 585.76 0.841814 -1.47809 0
M  V30 6038 O 586.946 0.809056 -1.76544 0
M  V30 6039 C 584.076 1.05852 -3.30776 0
M  V30 6040 C 583.029 0.400503 -4.26122 0
M  V30 6041 C 582.356 1.49674 -5.13324 0
M  V30 6042 C 583.656 -0.688924 -5.17737 0
M  V30 6043 H 585.35 -0.668819 -2.91834 0
M  V30 6044 H 582.896 -0.32308 -1.40329 0
M  V30 6045 H 584.849 1.5541 -3.91696 0
M  V30 6046 H 583.572 1.82984 -2.70526 0
M  V30 6047 H 582.231 -0.0743687 -3.66525 0
M  V30 6048 H 581.88 2.25877 -4.49431 0
M  V30 6049 H 581.58 1.06188 -5.77926 0
M  V30 6050 H 583.104 1.99427 -5.77115 0
M  V30 6051 H 584.518 -0.276724 -5.72632 0
M  V30 6052 H 582.915 -1.04652 -5.90904 0
M  V30 6053 H 583.985 -1.55884 -4.5916 0
M  V30 6054 N 585.328 1.53329 -0.364422 0
M  V30 6055 C 586.291 2.24323 0.470292 0
M  V30 6056 C 587.291 1.25068 1.01067 0
M  V30 6057 O 588.481 1.49354 0.896605 0
M  V30 6058 C 585.613 2.97908 1.65722 0
M  V30 6059 H 586.806 2.9952 -0.150917 0
M  V30 6060 H 584.359 1.55868 -0.116092 0
M  V30 6061 H 585.094 2.2695 2.31655 0
M  V30 6062 H 584.879 3.70732 1.27671 0
M  V30 6063 H 586.369 3.5188 2.24878 0
M  V30 6064 N 586.806 0.0935595 1.57322 0
M  V30 6065 C 588.217 -0.435807 1.81542 0
M  V30 6066 C 588.568 -1.68263 1.00907 0
M  V30 6067 O 587.693 -2.15087 0.237983 0
M  V30 6068 C 588.288 -0.797436 3.29282 0
M  V30 6069 C 586.847 -1.27155 3.54272 0
M  V30 6070 C 585.994 -0.267455 2.76007 0
M  V30 6071 H 588.945 0.31902 1.5546 0
M  V30 6072 H 588.966 -1.6571 3.42521 0
M  V30 6073 H 588.478 0.110206 3.87943 0
M  V30 6074 H 586.579 -2.19696 3.00939 0
M  V30 6075 H 586.692 -1.23445 4.62923 0
M  V30 6076 H 585.056 -0.749282 2.43429 0
M  V30 6077 H 585.839 0.632839 3.37417 0
M  V30 6078 N 588.284 -1.56567 -0.180126 0
M  V30 6079 C 589.532 -1.81133 -0.896392 0
M  V30 6080 C 589.853 -0.669114 -1.83161 0
M  V30 6081 O 589.123 0.311616 -1.93406 0
M  V30 6082 H 587.703 -0.668172 -0.333999 0
M  V30 6083 H 590.365 -1.94048 -0.182051 0
M  V30 6084 H 589.461 -2.74854 -1.47857 0
M  V30 6085 N 589.762 0.448376 -1.51087 0
M  V30 6086 C 590.709 1.54341 -1.71603 0
M  V30 6087 C 591.679 1.56463 -0.557536 0
M  V30 6088 O 592.864 1.73644 -0.79072 0
M  V30 6089 C 590.004 2.92148 -1.83695 0
M  V30 6090 C 589.117 2.99639 -3.11192 0
M  V30 6091 C 588.252 4.285 -3.13944 0
M  V30 6092 C 587.291 4.29819 -4.35801 0
M  V30 6093 N 586.428 5.50186 -4.36164 0
M  V30 6094 H 591.268 1.36151 -2.65079 0
M  V30 6095 H 588.805 0.661585 -1.31383 0
M  V30 6096 H 590.763 3.72093 -1.88687 0
M  V30 6097 H 589.393 3.0892 -0.936374 0
M  V30 6098 H 588.445 2.12425 -3.15562 0
M  V30 6099 H 589.757 2.96474 -4.01129 0
M  V30 6100 H 588.911 5.16811 -3.17791 0
M  V30 6101 H 587.65 4.34307 -2.21876 0
M  V30 6102 H 586.655 3.39902 -4.32142 0
M  V30 6103 H 587.88 4.25685 -5.29121 0
M  V30 6104 H 585.826 5.56735 -3.46961 0
M  V30 6105 H 585.743 5.48856 -5.19897 0
M  V30 6106 H 587.011 6.40559 -4.44189 0
M  V30 6107 N 591.24 1.41047 0.703093 0
M  V30 6108 C 592.203 1.42036 1.79884 0
M  V30 6109 C 593.203 0.312153 1.57741 0
M  V30 6110 O 594.393 0.571672 1.64553 0
M  V30 6111 C 591.525 1.22437 3.18154 0
M  V30 6112 H 592.718 2.39572 1.80403 0
M  V30 6113 H 590.271 1.27079 0.909977 0
M  V30 6114 H 591.006 0.257112 3.23279 0
M  V30 6115 H 590.791 2.02723 3.35627 0
M  V30 6116 H 592.281 1.25946 3.98155 0
M  V30 6117 N 592.718 -0.936591 1.26751 0
M  V30 6118 C 594.134 -1.21095 1.03963 0
M  V30 6119 C 594.334 -2.00156 -0.232372 0
M  V30 6120 O 593.39 -2.3434 -0.940274 0
M  V30 6121 C 594.703 -1.96775 2.27377 0
M  V30 6122 C 596.251 -2.09749 2.32324 0
M  V30 6123 C 596.726 -2.88832 3.55443 0
M  V30 6124 N 598.217 -2.96404 3.55948 0
M  V30 6125 C 598.952 -3.58036 4.47881 0
M  V30 6126 N 598.448 -4.21132 5.50109 0
M  V30 6127 N 600.241 -3.55353 4.35523 0
M  V30 6128 H 592.392 -0.408173 2.08441 0
M  V30 6129 H 594.655 -0.243139 0.91629 0
M  V30 6130 H 594.361 -1.46094 3.19921 0
M  V30 6131 H 594.235 -2.97424 2.31989 0
M  V30 6132 H 596.622 -2.5962 1.40291 0
M  V30 6133 H 596.703 -1.08347 2.31721 0
M  V30 6134 H 596.347 -2.39647 4.47808 0
M  V30 6135 H 596.277 -3.90499 3.53296 0
M  V30 6136 H 598.768 -2.51552 2.82011 0
M  V30 6137 H 599.081 -4.66071 6.16439 0
M  V30 6138 H 597.426 -4.19705 5.53961 0
M  V30 6139 H 600.617 -3.05256 3.54875 0
M  V30 6140 H 600.79 -4.03097 5.07363 0
M  V30 6141 N 594.196 -1.08629 -1.14182 0
M  V30 6142 C 595.473 -0.73002 -1.81466 0
M  V30 6143 C 595.853 0.785996 -1.95922 0
M  V30 6144 O 595.201 1.70535 -1.52086 0
M  V30 6145 C 595.411 -1.45957 -3.17014 0
M  V30 6146 C 596.759 -1.62008 -3.92477 0
M  V30 6147 O 597.783 -1.42141 -3.26611 0
M  V30 6148 O 596.642 -1.94806 -5.106 0
M  V30 6149 H 593.736 -0.261307 -0.784632 0
M  V30 6150 H 596.282 -1.188 -1.2118 0
M  V30 6151 H 595.054 -2.49221 -3.01669 0
M  V30 6152 H 594.677 -0.993222 -3.84995 0
M  V30 6153 N 595.674 1.31259 -0.872281 0
M  V30 6154 C 597.09 1.49283 -0.564521 0
M  V30 6155 C 597.29 1.80243 0.900807 0
M  V30 6156 O 596.346 1.88246 1.68284 0
M  V30 6157 C 597.659 2.62503 -1.46673 0
M  V30 6158 C 599.207 2.76386 -1.46901 0
M  V30 6159 C 599.682 3.92705 -2.35684 0
M  V30 6160 N 601.173 3.99995 -2.33577 0
M  V30 6161 C 601.908 4.89276 -2.98992 0
M  V30 6162 N 601.404 5.83443 -3.73585 0
M  V30 6163 N 603.197 4.82541 -2.88289 0
M  V30 6164 H 595.348 1.09432 -1.82039 0
M  V30 6165 H 597.611 0.540949 -0.77851 0
M  V30 6166 H 597.317 2.46407 -2.50951 0
M  V30 6167 H 597.191 3.58695 -1.16696 0
M  V30 6168 H 599.578 2.91894 -0.433796 0
M  V30 6169 H 599.659 1.80853 -1.80903 0
M  V30 6170 H 599.303 3.77954 -3.39283 0
M  V30 6171 H 599.233 4.87549 -1.99006 0
M  V30 6172 H 601.724 3.32624 -1.7936 0
M  V30 6173 H 602.037 6.48303 -4.20622 0
M  V30 6174 H 600.382 5.83415 -3.77694 0
M  V30 6175 H 603.573 4.07951 -2.2955 0
M  V30 6176 H 603.746 5.51916 -3.39549 0
M  V30 6177 N 597.152 0.631951 1.44375 0
M  V30 6178 C 598.099 -0.0724807 2.30686 0
M  V30 6179 C 599.069 -0.835975 1.43529 0
M  V30 6180 O 600.254 -0.816849 1.7243 0
M  V30 6181 C 597.394 -1.04753 3.28817 0
M  V30 6182 C 596.507 -0.282367 4.31076 0
M  V30 6183 C 595.642 -1.2493 5.163 0
M  V30 6184 C 594.681 -0.473349 6.10267 0
M  V30 6185 N 593.818 -1.39079 6.88187 0
M  V30 6186 H 598.658 0.669477 2.90383 0
M  V30 6187 H 596.195 0.341927 1.43071 0
M  V30 6188 H 598.153 -1.62623 3.842 0
M  V30 6189 H 596.783 -1.75661 2.70819 0
M  V30 6190 H 595.835 0.412268 3.78159 0
M  V30 6191 H 597.147 0.321955 4.9776 0
M  V30 6192 H 596.301 -1.89931 5.76204 0
M  V30 6193 H 595.04 -1.88755 4.49692 0
M  V30 6194 H 594.045 0.190142 5.49471 0
M  V30 6195 H 595.27 0.16019 6.78911 0
M  V30 6196 H 593.216 -2.01623 6.24247 0
M  V30 6197 H 593.133 -0.840513 7.51313 0
M  V30 6198 H 594.401 -2.02961 7.52613 0
M  V30 6199 N 598.631 -1.53133 0.372548 0
M  V30 6200 C 599.594 -2.24569 -0.458389 0
M  V30 6201 C 600.594 -1.25603 -1.00402 0
M  V30 6202 O 601.784 -1.49827 -0.888672 0
M  V30 6203 C 598.916 -2.98783 -1.6414 0
M  V30 6204 H 600.109 -2.99436 0.166799 0
M  V30 6205 H 597.662 -1.55805 0.124357 0
M  V30 6206 H 598.397 -2.28176 -2.30448 0
M  V30 6207 H 598.182 -3.71404 -1.25704 0
M  V30 6208 H 599.672 -3.53068 -2.23008 0
M  V30 6209 N 600.109 -0.101901 -1.5727 0
M  V30 6210 C 601.339 0.567568 -1.98651 0
M  V30 6211 C 601.747 1.61839 -0.980037 0
M  V30 6212 O 601.09 1.83661 0.0376564 0
M  V30 6213 C 601.152 1.26742 -3.36417 0
M  V30 6214 C 600.816 0.366561 -4.55528 0
M  V30 6215 C 601.813 -0.388022 -5.1845 0
M  V30 6216 C 599.498 0.282629 -5.01504 0
M  V30 6217 C 601.492 -1.21445 -6.25724 0
M  V30 6218 C 599.179 -0.547443 -6.08643 0
M  V30 6219 C 600.177 -1.29462 -6.70618 0
M  V30 6220 O 599.865 -2.11095 -7.7569 0
M  V30 6221 H 599.597 0.156282 -0.657687 0
M  V30 6222 H 602.151 -0.179912 -2.04611 0
M  V30 6223 H 600.381 2.06162 -3.27161 0
M  V30 6224 H 602.07 1.8321 -3.622 0
M  V30 6225 H 602.836 -0.332949 -4.83856 0
M  V30 6226 H 598.715 0.853868 -4.53023 0
M  V30 6227 H 602.259 -1.79814 -6.74027 0
M  V30 6228 H 598.156 -0.603971 -6.42668 0
M  V30 6229 H 598.924 -2.03851 -7.92709 0
M  V30 6230 N 601.587 1.56661 0.17182 0
M  V30 6231 C 602.815 1.861 0.904115 0
M  V30 6232 C 603.23 0.687227 1.75848 0
M  V30 6233 O 602.587 -0.343671 1.79235 0
M  V30 6234 C 602.638 3.14568 1.78127 0
M  V30 6235 O 602.359 4.27422 0.961366 0
M  V30 6236 C 603.86 3.5735 2.62327 0
M  V30 6237 H 601.08 0.617445 0.262684 0
M  V30 6238 H 603.624 2.03775 0.172068 0
M  V30 6239 H 601.779 2.98721 2.46666 0
M  V30 6240 H 602.193 5.00725 1.56123 0
M  V30 6241 H 603.667 4.50144 3.1949 0
M  V30 6242 H 604.144 2.81445 3.37173 0
M  V30 6243 H 604.75 3.75807 1.99121 0
M  V30 6244 N 603.065 -0.440357 1.51323 0
M  V30 6245 C 604.311 -1.19181 1.64085 0
M  V30 6246 C 604.644 -1.90936 0.354575 0
M  V30 6247 O 603.919 -1.8347 -0.645675 0
M  V30 6248 C 604.202 -2.2112 2.84215 0
M  V30 6249 C 604.055 -1.53468 4.22809 0
M  V30 6250 C 605.374 -3.22133 2.99864 0
M  V30 6251 H 602.493 -0.431924 0.597169 0
M  V30 6252 H 605.135 -0.481443 1.83799 0
M  V30 6253 H 603.285 -2.81703 2.67537 0
M  V30 6254 H 604.957 -0.962455 4.51148 0
M  V30 6255 H 603.2 -0.837086 4.25647 0
M  V30 6256 H 603.871 -2.27694 5.02852 0
M  V30 6257 H 606.347 -2.71601 3.15233 0
M  V30 6258 H 605.223 -3.90756 3.85488 0
M  V30 6259 H 605.484 -3.88061 2.11804 0
M  V30 6260 N 604.543 -1.41418 -0.695603 0
M  V30 6261 C 605.473 -1.46035 -1.82197 0
M  V30 6262 C 606.454 -0.319025 -1.67082 0
M  V30 6263 O 607.639 -0.530462 -1.86815 0
M  V30 6264 C 604.769 -1.34179 -3.20333 0
M  V30 6265 C 603.723 -2.46123 -3.50154 0
M  V30 6266 C 603.049 -2.19332 -4.87645 0
M  V30 6267 C 604.349 -3.88463 -3.49133 0
M  V30 6268 H 606.043 -2.40303 -1.78591 0
M  V30 6269 H 603.589 -1.15663 -0.857797 0
M  V30 6270 H 605.542 -1.36021 -3.98844 0
M  V30 6271 H 604.266 -0.363952 -3.24566 0
M  V30 6272 H 602.925 -2.43563 -2.73994 0
M  V30 6273 H 602.573 -1.19891 -4.88503 0
M  V30 6274 H 602.273 -2.94344 -5.08562 0
M  V30 6275 H 603.797 -2.22889 -5.68465 0
M  V30 6276 H 605.211 -3.92738 -4.17648 0
M  V30 6277 H 603.608 -4.63158 -3.81582 0
M  V30 6278 H 604.678 -4.16617 -2.48109 0
M  V30 6279 N 606.021 0.929856 -1.27246 0
M  V30 6280 C 606.951 2.04722 -1.12299 0
M  V30 6281 C 607.932 1.70082 -0.0250464 0
M  V30 6282 O 609.117 1.93176 -0.199141 0
M  V30 6283 C 606.247 3.38721 -0.767145 0
M  V30 6284 C 605.201 3.87466 -1.81808 0
M  V30 6285 C 604.527 5.18246 -1.31626 0
M  V30 6286 C 605.827 4.11095 -3.22177 0
M  V30 6287 H 607.521 2.17485 -2.05769 0
M  V30 6288 H 605.067 1.04503 -0.990715 0
M  V30 6289 H 607.02 4.16366 -0.649413 0
M  V30 6290 H 605.744 3.25967 0.203259 0
M  V30 6291 H 604.403 3.12012 -1.92468 0
M  V30 6292 H 604.051 5.01881 -0.335378 0
M  V30 6293 H 603.751 5.51829 -2.01887 0
M  V30 6294 H 605.275 5.98462 -1.21143 0
M  V30 6295 H 606.689 4.79316 -3.1453 0
M  V30 6296 H 605.086 4.55982 -3.90129 0
M  V30 6297 H 606.156 3.16468 -3.67391 0
M  V30 6298 N 607.499 1.09233 1.13605 0
M  V30 6299 C 608.729 0.847677 1.88409 0
M  V30 6300 C 609.137 -0.604524 1.79282 0
M  V30 6301 O 608.48 -1.42773 1.15592 0
M  V30 6302 C 608.542 1.20153 3.38827 0
M  V30 6303 C 608.206 2.65824 3.71735 0
M  V30 6304 C 609.203 3.64072 3.71143 0
M  V30 6305 C 606.888 3.01894 4.01454 0
M  V30 6306 C 608.882 4.96419 3.99808 0
M  V30 6307 C 606.569 4.34433 4.29781 0
M  V30 6308 C 607.567 5.31505 4.28942 0
M  V30 6309 O 607.255 6.61659 4.56576 0
M  V30 6310 H 606.987 0.304813 0.603378 0
M  V30 6311 H 609.541 1.4573 1.44748 0
M  V30 6312 H 607.771 0.534946 3.82982 0
M  V30 6313 H 609.46 0.936349 3.94952 0
M  V30 6314 H 610.226 3.37549 3.4826 0
M  V30 6315 H 606.105 2.26971 4.01255 0
M  V30 6316 H 609.649 5.7218 3.99069 0
M  V30 6317 H 605.546 4.607 4.52135 0
M  V30 6318 H 606.314 6.67102 4.74254 0
M  V30 6319 N 608.977 -1.30795 0.87923 0
M  V30 6320 C 610.225 -1.95974 0.493809 0
M  V30 6321 C 610.546 -1.69787 -0.959021 0
M  V30 6322 O 609.816 -1.01832 -1.67353 0
M  V30 6323 H 608.396 -0.725083 0.179622 0
M  V30 6324 H 611.058 -1.59432 1.12105 0
M  V30 6325 H 610.154 -3.05058 0.659263 0
M  V30 6326 N 610.455 -0.639598 -1.44038 0
M  V30 6327 C 611.403 0.0723409 -2.32487 0
M  V30 6328 C 612.397 0.827129 -1.47834 0
M  V30 6329 O 613.603 0.73907 -1.64127 0
M  V30 6330 H 609.978 0.0421696 -0.750817 0
M  V30 6331 H 611.949 -0.691593 -2.90275 0
M  V30 6332 C 610.698 1.03452 -3.31953 0
M  V30 6333 H 610.021 0.46315 -3.97108 0
M  V30 6334 H 611.461 1.502 -3.96505 0
M  V30 6335 C 609.92 2.12392 -2.61518 0
M  V30 6336 O 610.45 3.2059 -2.42044 0
M  V30 6337 N 608.656 1.88563 -2.21116 0
M  V30 6338 H 608.203 1.00577 -2.37154 0
M  V30 6339 H 608.161 2.61651 -1.74316 0
M  V30 6340 N 611.933 1.52934 -0.380664 0
M  V30 6341 C 613.181 2.01069 0.203874 0
M  V30 6342 C 613.502 1.26922 1.4804 0
M  V30 6343 O 612.772 0.386787 1.92044 0
M  V30 6344 H 611.352 0.742882 0.0783279 0
M  V30 6345 H 614.014 1.88099 -0.510368 0
M  V30 6346 H 613.11 3.09258 0.42021 0
M  V30 6347 N 613.412 0.11024 1.57214 0
M  V30 6348 C 614.823 -0.416527 1.81994 0
M  V30 6349 C 615.174 -1.67183 1.02686 0
M  V30 6350 O 614.299 -2.14823 0.260782 0
M  V30 6351 C 614.894 -0.762466 3.30109 0
M  V30 6352 C 613.453 -1.23391 3.556 0
M  V30 6353 C 612.6 -0.238166 2.76275 0
M  V30 6354 H 615.551 0.335491 1.55113 0
M  V30 6355 H 615.572 -1.62068 3.44259 0
M  V30 6356 H 615.084 0.151346 3.87805 0
M  V30 6357 H 613.185 -2.16492 3.03253 0
M  V30 6358 H 613.298 -1.18528 4.64207 0
M  V30 6359 H 611.662 -0.723421 2.4421 0
M  V30 6360 H 612.445 0.668591 3.36727 0
M  V30 6361 N 614.89 -1.56749 -0.16351 0
M  V30 6362 C 616.138 -1.82074 -0.87713 0
M  V30 6363 C 616.459 -0.688503 -1.82441 0
M  V30 6364 O 615.729 0.291085 -1.93725 0
M  V30 6365 H 614.309 -0.671677 -0.326893 0
M  V30 6366 H 616.971 -1.9423 -0.161459 0
M  V30 6367 H 616.067 -2.76407 -1.44934 0
M  V30 6368 N 616.368 0.432326 -1.51554 0
M  V30 6369 C 617.598 1.2019 -1.68042 0
M  V30 6370 C 618.006 1.85356 -0.379434 0
M  V30 6371 O 617.349 1.71724 0.652427 0
M  V30 6372 C 617.411 2.32387 -2.74292 0
M  V30 6373 C 617.075 1.87548 -4.16743 0
M  V30 6374 C 618.072 1.37611 -5.01357 0
M  V30 6375 C 615.757 1.95087 -4.62868 0
M  V30 6376 C 617.751 0.958069 -6.30159 0
M  V30 6377 C 615.438 1.52894 -5.91664 0
M  V30 6378 C 616.436 1.03336 -6.75137 0
M  V30 6379 O 616.124 0.617435 -8.01525 0
M  V30 6380 H 615.856 0.368132 -0.56697 0
M  V30 6381 H 618.41 0.517875 -1.98764 0
M  V30 6382 H 616.64 3.04082 -2.38895 0
M  V30 6383 H 618.329 2.94235 -2.79608 0
M  V30 6384 H 619.095 1.31178 -4.66923 0
M  V30 6385 H 614.974 2.32606 -3.98015 0
M  V30 6386 H 618.518 0.570562 -6.95263 0
M  V30 6387 H 614.415 1.58999 -6.25611 0
M  V30 6388 H 615.183 0.742835 -8.15122 0
M  V30 6389 N 617.846 1.41785 0.688094 0
M  V30 6390 C 619.092 1.41753 1.4503 0
M  V30 6391 C 619.425 0.0290745 1.94178 0
M  V30 6392 O 618.7 -0.944456 1.7003 0
M  V30 6393 C 618.983 2.43069 2.65686 0
M  V30 6394 C 618.836 3.91053 2.22256 0
M  V30 6395 C 620.155 2.41543 3.67893 0
M  V30 6396 H 617.274 0.516202 0.526027 0
M  V30 6397 H 619.916 1.73111 0.783105 0
M  V30 6398 H 618.066 2.1646 3.2261 0
M  V30 6399 H 619.738 4.28594 1.70602 0
M  V30 6400 H 617.981 4.05559 1.53963 0
M  V30 6401 H 618.652 4.57501 3.08863 0
M  V30 6402 H 621.128 2.65175 3.20658 0
M  V30 6403 H 620.004 3.14434 4.49914 0
M  V30 6404 H 620.265 1.43666 4.18106 0
M  V30 6405 N 619.324 -0.923095 1.27737 0
M  V30 6406 C 620.254 -2.04124 1.13383 0
M  V30 6407 C 621.235 -1.70066 0.0340658 0
M  V30 6408 O 622.42 -1.93068 0.209383 0
M  V30 6409 C 619.55 -3.3831 0.785097 0
M  V30 6410 C 618.504 -3.86496 1.8386 0
M  V30 6411 C 617.83 -5.1754 1.34373 0
M  V30 6412 C 619.13 -4.09381 3.24353 0
M  V30 6413 H 620.824 -2.1639 2.06919 0
M  V30 6414 H 618.37 -1.03976 0.996243 0
M  V30 6415 H 620.323 -4.16016 0.671485 0
M  V30 6416 H 619.047 -3.2607 -0.185969 0
M  V30 6417 H 617.706 -3.10987 1.9412 0
M  V30 6418 H 617.354 -5.01696 0.361989 0
M  V30 6419 H 617.054 -5.50751 2.04811 0
M  V30 6420 H 618.578 -5.97811 1.24315 0
M  V30 6421 H 619.992 -4.77641 3.17067 0
M  V30 6422 H 618.389 -4.53906 3.92542 0
M  V30 6423 H 619.459 -3.14515 3.69064 0
M  V30 6424 N 620.802 -1.09834 -1.13024 0
M  V30 6425 C 621.749 -0.741522 -2.18564 0
M  V30 6426 C 622.719 0.279236 -1.63736 0
M  V30 6427 O 623.904 0.159923 -1.90129 0
M  V30 6428 C 621.044 -0.17277 -3.44667 0
M  V30 6429 C 620.157 -1.24808 -4.13578 0
M  V30 6430 C 619.292 -0.641631 -5.27311 0
M  V30 6431 C 618.331 -1.69795 -5.88078 0
M  V30 6432 N 617.468 -1.11223 -6.93234 0
M  V30 6433 H 622.308 -1.64576 -2.48432 0
M  V30 6434 H 619.845 -0.822174 -1.21978 0
M  V30 6435 H 621.803 0.17482 -4.16834 0
M  V30 6436 H 620.433 0.694725 -3.15235 0
M  V30 6437 H 619.485 -1.71288 -3.39653 0
M  V30 6438 H 620.797 -2.04795 -4.54819 0
M  V30 6439 H 619.951 -0.243128 -6.06213 0
M  V30 6440 H 618.69 0.189742 -4.87331 0
M  V30 6441 H 617.695 -2.10595 -5.07868 0
M  V30 6442 H 618.92 -2.53206 -6.3013 0
M  V30 6443 H 616.866 -0.302208 -6.55304 0
M  V30 6444 H 616.783 -1.84901 -7.3304 0
M  V30 6445 H 618.051 -0.740068 -7.75979 0
M  V30 6446 N 622.28 1.30327 -0.886154 0
M  V30 6447 C 623.557 1.90922 -0.425217 0
M  V30 6448 C 623.937 1.80533 1.09413 0
M  V30 6449 O 623.285 1.2233 1.92996 0
M  V30 6450 C 623.495 3.36529 -0.924638 0
M  V30 6451 C 624.843 4.13598 -0.960305 0
M  V30 6452 O 625.867 3.45377 -0.871382 0
M  V30 6453 O 624.726 5.35482 -1.09184 0
M  V30 6454 H 621.82 0.81668 -0.130238 0
M  V30 6455 H 624.366 1.38886 -0.975132 0
M  V30 6456 H 623.138 3.38181 -1.96849 0
M  V30 6457 H 622.761 3.96021 -0.353955 0
M  V30 6458 N 623.758 0.647228 1.43697 0
M  V30 6459 C 625.006 0.157876 2.01482 0
M  V30 6460 C 625.327 -1.23039 1.51282 0
M  V30 6461 O 624.597 -1.82071 0.722982 0
M  V30 6462 H 623.177 0.0553745 0.744945 0
M  V30 6463 H 625.839 0.83755 1.75986 0
M  V30 6464 H 624.935 0.137895 3.11795 0
M  V30 6465 N 625.236 -1.5273 0.388769 0
M  V30 6466 C 626.199 -2.25043 -0.434544 0
M  V30 6467 C 627.199 -1.26661 -0.990644 0
M  V30 6468 O 628.389 -1.50762 -0.872731 0
M  V30 6469 C 625.521 -3.00507 -1.60961 0
M  V30 6470 H 626.714 -2.99242 0.198549 0
M  V30 6471 H 624.267 -1.55664 0.140875 0
M  V30 6472 H 625.002 -2.30607 -2.28015 0
M  V30 6473 H 624.787 -3.72716 -1.21757 0
M  V30 6474 H 626.277 -3.55413 -2.19251 0
M  V30 6475 N 626.714 -0.118576 -1.57153 0
M  V30 6476 C 628.13 0.238014 -1.57815 0
M  V30 6477 C 628.33 1.66747 -1.13127 0
M  V30 6478 O 627.386 2.38867 -0.818462 0
M  V30 6479 C 628.699 0.00508207 -3.007 0
M  V30 6480 C 630.247 0.0710139 -3.12919 0
M  V30 6481 C 630.722 -0.13422 -4.57803 0
M  V30 6482 N 632.213 -0.0801755 -4.63131 0
M  V30 6483 C 632.948 -0.213885 -5.73001 0
M  V30 6484 N 632.444 -0.403742 -6.91623 0
M  V30 6485 N 634.237 -0.15349 -5.6189 0
M  V30 6486 H 626.388 -1.05226 -1.84503 0
M  V30 6487 H 628.651 -0.414318 -0.852669 0
M  V30 6488 H 628.357 -0.983125 -3.3768 0
M  V30 6489 H 628.231 0.73714 -3.69927 0
M  V30 6490 H 630.618 1.04975 -2.75798 0
M  V30 6491 H 630.699 -0.692918 -2.46236 0
M  V30 6492 H 630.343 -1.10992 -4.95624 0
M  V30 6493 H 630.273 0.649692 -5.22577 0
M  V30 6494 H 632.764 0.0630689 -3.77847 0
M  V30 6495 H 633.077 -0.496645 -7.71202 0
M  V30 6496 H 631.422 -0.43971 -6.93608 0
M  V30 6497 H 634.613 -0.00613174 -4.681 0
M  V30 6498 H 634.786 -0.261138 -6.47474 0
M  V30 6499 N 628.193 1.56834 0.155195 0
M  V30 6500 C 629.604 1.72421 0.716082 0
M  V30 6501 C 629.955 0.731685 1.82046 0
M  V30 6502 O 629.08 -0.103481 2.16152 0
M  V30 6503 C 629.675 3.12629 1.30571 0
M  V30 6504 C 628.234 3.29846 1.81325 0
M  V30 6505 C 627.381 2.68359 0.698494 0
M  V30 6506 H 630.332 1.58544 -0.0703861 0
M  V30 6507 H 630.353 3.12174 2.1755 0
M  V30 6508 H 629.865 3.84844 0.501701 0
M  V30 6509 H 627.966 2.62614 2.64319 0
M  V30 6510 H 628.079 4.37727 1.9476 0
M  V30 6511 H 626.443 2.28604 1.12305 0
M  V30 6512 H 627.226 3.43171 -0.0939366 0
M  V30 6513 N 629.671 -0.424282 1.51781 0
M  V30 6514 C 630.948 -1.18464 1.55646 0
M  V30 6515 C 631.328 -2.08529 0.328438 0
M  V30 6516 O 630.676 -2.17969 -0.685693 0
M  V30 6517 C 630.886 -1.97514 2.87731 0
M  V30 6518 C 632.234 -2.54106 3.40169 0
M  V30 6519 O 633.258 -2.07711 2.89369 0
M  V30 6520 O 632.117 -3.38759 4.28841 0
M  V30 6521 H 629.211 -0.540055 0.626314 0
M  V30 6522 H 631.757 -0.432291 1.64102 0
M  V30 6523 H 630.529 -1.31444 3.68562 0
M  V30 6524 H 630.152 -2.79787 2.82498 0
M  V30 6525 N 631.149 -1.42148 -0.680565 0
M  V30 6526 C 632.395 -1.42521 -1.44277 0
M  V30 6527 C 632.728 -0.0393718 -1.9416 0
M  V30 6528 O 632.003 0.935425 -1.70529 0
M  V30 6529 C 632.286 -2.44475 -2.64394 0
M  V30 6530 C 632.139 -3.92226 -2.20179 0
M  V30 6531 C 633.458 -2.43491 -3.66606 0
M  V30 6532 H 630.577 -0.518985 -0.523282 0
M  V30 6533 H 633.219 -1.73524 -0.773914 0
M  V30 6534 H 631.369 -2.18168 -3.21458 0
M  V30 6535 H 633.041 -4.29493 -1.68327 0
M  V30 6536 H 631.284 -4.0637 -1.5181 0
M  V30 6537 H 631.955 -4.59133 -3.06433 0
M  V30 6538 H 634.431 -2.66872 -3.19247 0
M  V30 6539 H 633.307 -3.16816 -4.4824 0
M  V30 6540 H 633.568 -1.45881 -4.17338 0
M  V30 6541 N 632.627 0.916307 -1.28225 0
M  V30 6542 C 633.855 1.69901 -1.18073 0
M  V30 6543 C 634.27 1.86988 0.260968 0
M  V30 6544 O 633.627 1.39505 1.17663 0
M  V30 6545 C 633.678 3.09254 -1.87201 0
M  V30 6546 O 633.399 2.92959 -3.2574 0
M  V30 6547 C 634.9 4.0362 -1.83319 0
M  V30 6548 H 632.12 0.531181 -0.409985 0
M  V30 6549 H 634.664 1.14703 -1.69303 0
M  V30 6550 H 632.819 3.61277 -1.39848 0
M  V30 6551 H 633.233 3.81139 -3.60324 0
M  V30 6552 H 634.707 4.98873 -2.36282 0
M  V30 6553 H 635.184 4.3176 -0.805007 0
M  V30 6554 H 635.79 3.57524 -2.3034 0
M  V30 6555 N 634.105 1.10431 1.1244 0
M  V30 6556 C 635.015 0.765502 2.21759 0
M  V30 6557 C 636.031 -0.236966 1.72379 0
M  V30 6558 O 637.207 -0.0757329 2.01258 0
M  V30 6559 C 634.272 0.202316 3.46109 0
M  V30 6560 C 633.333 1.26205 4.1033 0
M  V30 6561 C 632.566 0.725648 5.28744 0
M  V30 6562 O 632.789 -0.447942 5.68638 0
M  V30 6563 O 631.723 1.48555 5.83279 0
M  V30 6564 H 635.549 1.67801 2.53133 0
M  V30 6565 H 633.134 0.879443 1.20773 0
M  V30 6566 H 635.016 -0.107918 4.21262 0
M  V30 6567 H 633.691 -0.683052 3.16411 0
M  V30 6568 H 632.598 1.62514 3.36957 0
M  V30 6569 H 633.931 2.12044 4.44183 0
M  V30 6570 N 635.583 -1.29855 0.893053 0
M  V30 6571 C 636.808 -2.00512 0.530066 0
M  V30 6572 C 637.233 -1.66446 -0.876199 0
M  V30 6573 O 636.591 -0.885446 -1.58207 0
M  V30 6574 C 636.639 -3.53308 0.721505 0
M  V30 6575 O 635.743 -4.11764 -0.228994 0
M  V30 6576 H 635.084 -0.630617 0.207891 0
M  V30 6577 H 637.614 -1.6551 1.20282 0
M  V30 6578 H 637.624 -4.03206 0.623599 0
M  V30 6579 H 636.299 -3.77439 1.74678 0
M  V30 6580 H 634.876 -3.72805 -0.0841034 0
M  V30 6581 N 637.061 -0.65484 -1.43351 0
M  V30 6582 C 637.971 0.0363603 -2.34572 0
M  V30 6583 C 638.987 0.810432 -1.53974 0
M  V30 6584 O 640.163 0.757308 -1.86619 0
M  V30 6585 C 637.228 0.989733 -3.32273 0
M  V30 6586 C 636.289 0.212414 -4.28774 0
M  V30 6587 C 635.522 1.12038 -5.21808 0
M  V30 6588 O 635.745 2.35967 -5.19303 0
M  V30 6589 O 634.679 0.59191 -5.98982 0
M  V30 6590 H 638.505 -0.714527 -2.95175 0
M  V30 6591 H 636.09 -0.415029 -1.4352 0
M  V30 6592 H 637.972 1.53759 -3.92347 0
M  V30 6593 H 636.647 1.72082 -2.74171 0
M  V30 6594 H 635.554 -0.379062 -3.72175 0
M  V30 6595 H 636.887 -0.479138 -4.89862 0
M  V30 6596 N 638.539 1.52521 -0.396863 0
M  V30 6597 C 639.764 2.06571 0.185258 0
M  V30 6598 C 640.189 1.26605 1.39115 0
M  V30 6599 O 639.547 0.293055 1.78916 0
M  V30 6600 C 639.595 3.5674 0.526189 0
M  V30 6601 O 638.699 3.7929 1.61903 0
M  V30 6602 H 638.04 0.663712 0.0195474 0
M  V30 6603 H 640.57 1.966 -0.566519 0
M  V30 6604 H 640.58 4.00311 0.788338 0
M  V30 6605 H 639.255 4.14379 -0.355397 0
M  V30 6606 H 637.832 3.47605 1.35 0
M  V30 6607 N 640.017 0.126909 1.57088 0
M  V30 6608 C 641.265 -0.528123 1.95078 0
M  V30 6609 C 641.586 -1.66708 1.0116 0
M  V30 6610 O 640.856 -1.95777 0.0693527 0
M  V30 6611 H 639.436 -0.198087 0.720257 0
M  V30 6612 H 642.098 0.197703 1.93895 0
M  V30 6613 H 641.194 -0.917507 2.98309 0
M  V30 6614 N 641.495 -1.56914 -0.146875 0
M  V30 6615 C 642.72 -1.87881 -0.878386 0
M  V30 6616 C 643.145 -0.715945 -1.73942 0
M  V30 6617 O 642.503 0.334447 -1.78189 0
M  V30 6618 C 642.551 -3.17431 -1.71084 0
M  V30 6619 O 641.655 -3.01374 -2.81509 0
M  V30 6620 H 640.996 -0.617289 -0.244644 0
M  V30 6621 H 643.526 -2.04136 -0.137654 0
M  V30 6622 H 643.536 -3.49455 -2.10582 0
M  V30 6623 H 642.211 -4.01671 -1.07856 0
M  V30 6624 H 640.788 -2.80758 -2.45416 0
M  V30 6625 N 642.974 0.416227 -1.52004 0
M  V30 6626 C 644.385 0.995319 -1.57957 0
M  V30 6627 C 644.736 1.91744 -0.415754 0
M  V30 6628 O 643.861 2.11349 0.464808 0
M  V30 6629 C 644.456 1.81191 -2.86278 0
M  V30 6630 C 643.015 2.34115 -2.94732 0
M  V30 6631 C 642.162 1.139 -2.52828 0
M  V30 6632 H 645.113 0.196716 -1.57476 0
M  V30 6633 H 645.134 2.66859 -2.71231 0
M  V30 6634 H 644.646 1.14051 -3.70963 0
M  V30 6635 H 642.747 3.04647 -2.14525 0
M  V30 6636 H 642.86 2.65466 -3.98829 0
M  V30 6637 H 641.224 1.49081 -2.06511 0
M  V30 6638 H 642.007 0.483383 -3.3988 0
M  V30 6639 N 644.452 1.42507 0.673017 0
M  V30 6640 C 645.362 1.4853 1.81593 0
M  V30 6641 C 646.378 0.373907 1.69935 0
M  V30 6642 O 647.554 0.625078 1.91454 0
M  V30 6643 C 644.619 1.387 3.17747 0
M  V30 6644 C 643.68 2.60346 3.41348 0
M  V30 6645 C 642.913 2.50975 4.71007 0
M  V30 6646 O 643.136 1.54659 5.49033 0
M  V30 6647 O 642.07 3.41138 4.95892 0
M  V30 6648 H 645.896 2.45001 1.79467 0
M  V30 6649 H 643.481 1.2429 0.82899 0
M  V30 6650 H 645.363 1.35586 3.98992 0
M  V30 6651 H 644.038 0.453555 3.20507 0
M  V30 6652 H 642.945 2.69034 2.59945 0
M  V30 6653 H 644.278 3.52595 3.43421 0
M  V30 6654 N 645.93 -0.909495 1.28709 0
M  V30 6655 C 647.16 -1.69027 1.188 0
M  V30 6656 C 647.568 -1.87469 -0.255329 0
M  V30 6657 O 646.911 -1.40458 -1.18394 0
M  V30 6658 C 646.973 -3.10064 1.81936 0
M  V30 6659 C 646.637 -3.14891 3.31199 0
M  V30 6660 C 647.634 -2.95768 4.27571 0
M  V30 6661 C 645.319 -3.37269 3.7223 0
M  V30 6662 C 647.313 -2.98942 5.6295 0
M  V30 6663 C 645 -3.40074 5.07733 0
M  V30 6664 C 645.998 -3.20932 6.02903 0
M  V30 6665 O 645.686 -3.23507 7.35934 0
M  V30 6666 H 645.418 -0.535014 0.413203 0
M  V30 6667 H 647.972 -1.14645 1.70428 0
M  V30 6668 H 646.202 -3.66005 1.24808 0
M  V30 6669 H 647.891 -3.70185 1.66486 0
M  V30 6670 H 648.657 -2.78302 3.97206 0
M  V30 6671 H 644.536 -3.51212 2.98615 0
M  V30 6672 H 648.08 -2.83919 6.37209 0
M  V30 6673 H 643.977 -3.5707 5.37747 0
M  V30 6674 H 644.745 -3.3984 7.44615 0
M  V30 6675 N 647.408 -1.11026 -1.11852 0
M  V30 6676 C 648.824 -0.843294 -1.35502 0
M  V30 6677 C 649.024 0.534179 -1.9429 0
M  V30 6678 O 648.08 1.28585 -2.17307 0
M  V30 6679 C 649.393 -1.94793 -2.29077 0
M  V30 6680 C 650.941 -1.97709 -2.42652 0
M  V30 6681 C 651.416 -3.07364 -3.39546 0
M  V30 6682 N 652.907 -3.0671 -3.47107 0
M  V30 6683 C 653.642 -3.88197 -4.22008 0
M  V30 6684 N 653.138 -4.79635 -4.99922 0
M  V30 6685 N 654.931 -3.76391 -4.17476 0
M  V30 6686 H 647.082 -1.99805 -0.720538 0
M  V30 6687 H 649.345 -0.868633 -0.379711 0
M  V30 6688 H 649.051 -2.93971 -1.93065 0
M  V30 6689 H 648.925 -1.84039 -3.29256 0
M  V30 6690 H 651.312 -0.991604 -2.77941 0
M  V30 6691 H 651.393 -2.1254 -1.4234 0
M  V30 6692 H 651.037 -4.06136 -3.04985 0
M  V30 6693 H 650.967 -2.89774 -4.39703 0
M  V30 6694 H 653.458 -2.40457 -2.91528 0
M  V30 6695 H 653.771 -5.38357 -5.54429 0
M  V30 6696 H 652.116 -4.8366 -4.99097 0
M  V30 6697 H 655.307 -3.04303 -3.55693 0
M  V30 6698 H 655.48 -4.40131 -4.75593 0
M  V30 6699 N 648.886 1.2938 -0.899927 0
M  V30 6700 C 649.818 2.26737 -0.335139 0
M  V30 6701 C 650.831 1.54316 0.518681 0
M  V30 6702 O 652.02 1.75313 0.335803 0
M  V30 6703 C 649.12 3.34558 0.540774 0
M  V30 6704 C 648.293 4.36455 -0.287372 0
M  V30 6705 C 647.352 5.2361 0.52141 0
M  V30 6706 O 646.378 5.69167 -0.0611735 0
M  V30 6707 N 647.58 5.50985 1.82745 0
M  V30 6708 H 650.345 2.75838 -1.17191 0
M  V30 6709 H 647.906 1.42716 -0.764438 0
M  V30 6710 H 649.898 3.89794 1.08825 0
M  V30 6711 H 648.468 2.85272 1.27823 0
M  V30 6712 H 647.688 3.80875 -1.01626 0
M  V30 6713 H 648.976 5.01573 -0.854518 0
M  V30 6714 H 648.374 5.15781 2.32349 0
M  V30 6715 H 646.931 6.09036 2.32204 0
M  V30 6716 N 650.364 0.662433 1.43002 0
M  V30 6717 C 651.296 -0.062326 2.29115 0
M  V30 6718 C 652.309 -0.777926 1.43011 0
M  V30 6719 O 653.498 -0.634146 1.66856 0
M  V30 6720 C 650.598 -1.11163 3.2015 0
M  V30 6721 C 649.771 -0.472327 4.34842 0
M  V30 6722 C 648.83 -1.41974 5.06685 0
M  V30 6723 O 647.856 -0.924795 5.61637 0
M  V30 6724 N 649.058 -2.75345 5.11043 0
M  V30 6725 H 651.823 0.676838 2.91957 0
M  V30 6726 H 649.384 0.505907 1.53793 0
M  V30 6727 H 651.376 -1.74643 3.65078 0
M  V30 6728 H 649.946 -1.75266 2.58845 0
M  V30 6729 H 649.166 0.341751 3.92716 0
M  V30 6730 H 650.454 -0.0264381 5.08793 0
M  V30 6731 H 649.852 -3.18108 4.67786 0
M  V30 6732 H 648.409 -3.34105 5.59658 0
M  V30 6733 N 651.842 -1.52309 0.404946 0
M  V30 6734 C 653.067 -2.06666 -0.1743 0
M  V30 6735 C 653.492 -1.27341 -1.38441 0
M  V30 6736 O 652.85 -0.302539 -1.78758 0
M  V30 6737 C 652.898 -3.57014 -0.507262 0
M  V30 6738 O 652.002 -3.80144 -1.59889 0
M  V30 6739 H 651.343 -0.663807 -0.0160273 0
M  V30 6740 H 653.873 -1.96297 0.576937 0
M  V30 6741 H 653.883 -4.00724 -0.767098 0
M  V30 6742 H 652.558 -4.14184 0.377368 0
M  V30 6743 H 651.135 -3.48316 -1.33155 0
M  V30 6744 N 653.32 -0.135238 -1.57019 0
M  V30 6745 C 654.283 0.794707 -2.14981 0
M  V30 6746 C 655.283 1.18342 -1.08866 0
M  V30 6747 O 656.473 1.10627 -1.34563 0
M  V30 6748 C 653.605 2.07685 -2.70333 0
M  V30 6749 H 654.798 0.290696 -2.98488 0
M  V30 6750 H 652.351 0.114128 -1.55883 0
M  V30 6751 H 653.086 2.6248 -1.9046 0
M  V30 6752 H 652.871 1.80745 -3.47957 0
M  V30 6753 H 654.361 2.74127 -3.1503 0
M  V30 6754 N 654.798 1.5699 0.138552 0
M  V30 6755 C 656.044 1.84081 0.85099 0
M  V30 6756 C 656.377 0.718107 1.80435 0
M  V30 6757 O 655.652 -0.277633 1.92508 0
M  V30 6758 C 655.935 3.21699 1.61808 0
M  V30 6759 C 655.788 4.44544 0.685633 0
M  V30 6760 C 657.107 3.5664 2.57868 0
M  V30 6761 H 654.226 0.669592 0.307922 0
M  V30 6762 H 656.868 1.89646 0.11588 0
M  V30 6763 H 655.018 3.17086 2.24474 0
M  V30 6764 H 656.69 4.61248 0.0693179 0
M  V30 6765 H 654.933 4.338 -0.00421993 0
M  V30 6766 H 655.604 5.3746 1.25858 0
M  V30 6767 H 658.08 3.61918 2.05316 0
M  V30 6768 H 656.956 4.53946 3.08584 0
M  V30 6769 H 657.217 2.83036 3.39622 0
M  V30 6770 N 656.276 -0.40816 1.52223 0
M  V30 6771 C 657.687 -0.986929 1.58482 0
M  V30 6772 C 658.038 -1.91521 0.425917 0
M  V30 6773 O 657.163 -2.11593 -0.453593 0
M  V30 6774 C 657.758 -1.7967 2.87235 0
M  V30 6775 C 656.317 -2.32549 2.9597 0
M  V30 6776 C 655.464 -1.12558 2.53428 0
M  V30 6777 H 658.415 -0.188362 1.57578 0
M  V30 6778 H 658.436 -2.65417 2.72642 0
M  V30 6779 H 657.948 -1.12082 3.71563 0
M  V30 6780 H 656.049 -3.03505 2.16137 0
M  V30 6781 H 656.162 -2.63348 4.00231 0
M  V30 6782 H 654.526 -1.47984 2.07299 0
M  V30 6783 H 655.309 -0.465351 3.40131 0
M  V30 6784 N 657.755 -1.42862 -0.66545 0
M  V30 6785 C 658.685 -1.49867 -1.79059 0
M  V30 6786 C 659.666 -0.354394 -1.66367 0
M  V30 6787 O 660.851 -0.569969 -1.85647 0
M  V30 6788 C 657.981 -1.40943 -3.17415 0
M  V30 6789 C 656.935 -2.53495 -3.44854 0
M  V30 6790 C 656.261 -2.29626 -4.82883 0
M  V30 6791 C 657.561 -3.95781 -3.40815 0
M  V30 6792 H 659.255 -2.44037 -1.73453 0
M  V30 6793 H 656.801 -1.17456 -0.833071 0
M  V30 6794 H 658.754 -1.4445 -3.95869 0
M  V30 6795 H 657.478 -0.432716 -3.23721 0
M  V30 6796 H 656.137 -2.4932 -2.68766 0
M  V30 6797 H 655.785 -1.30226 -4.8585 0
M  V30 6798 H 655.485 -3.05065 -5.02204 0
M  V30 6799 H 657.009 -2.34897 -5.63609 0
M  V30 6800 H 658.423 -4.01508 -4.09224 0
M  V30 6801 H 656.82 -4.71148 -3.71672 0
M  V30 6802 H 657.89 -4.21786 -2.39216 0
M  V30 6803 N 659.233 0.902656 -1.29189 0
M  V30 6804 C 660.51 1.63296 -1.07674 0
M  V30 6805 C 660.89 2.07649 0.380137 0
M  V30 6806 O 660.238 1.82997 1.36837 0
M  V30 6807 C 660.448 2.81603 -2.06158 0
M  V30 6808 C 661.796 3.52359 -2.36914 0
M  V30 6809 O 662.82 2.91767 -2.04329 0
M  V30 6810 O 661.679 4.61586 -2.92576 0
M  V30 6811 H 658.773 0.716889 -0.41231 0
M  V30 6812 H 661.319 0.950984 -1.4055 0
M  V30 6813 H 660.091 2.46004 -3.04299 0
M  V30 6814 H 659.714 3.57508 -1.73993 0
M  V30 6815 N 660.711 1.11618 1.11262 0
M  V30 6816 C 661.959 0.864469 1.82678 0
M  V30 6817 C 662.28 -0.611564 1.85162 0
M  V30 6818 O 661.55 -1.44429 1.32352 0
M  V30 6819 H 660.13 0.316821 0.676486 0
M  V30 6820 H 662.792 1.40894 1.34666 0
M  V30 6821 H 661.888 1.23832 2.86482 0
M  V30 6822 N 662.189 -1.289 0.906776 0
M  V30 6823 C 663.099 -2.31256 0.394707 0
M  V30 6824 C 664.115 -1.66231 -0.514121 0
M  V30 6825 O 665.291 -1.97347 -0.401994 0
M  V30 6826 C 662.356 -3.44792 -0.363191 0
M  V30 6827 C 661.417 -4.25391 0.578012 0
M  V30 6828 C 660.65 -5.33506 -0.143811 0
M  V30 6829 O 660.873 -5.53786 -1.36665 0
M  V30 6830 O 659.807 -5.99673 0.5173 0
M  V30 6831 H 663.633 -2.77051 1.24405 0
M  V30 6832 H 661.218 -1.33466 0.671346 0
M  V30 6833 H 663.1 -4.139 -0.791503 0
M  V30 6834 H 661.775 -3.01093 -1.18848 0
M  V30 6835 H 660.682 -3.58899 1.05558 0
M  V30 6836 H 662.015 -4.72752 1.36992 0
M  V30 6837 N 663.667 -0.670007 -1.42649 0
M  V30 6838 C 664.895 -0.19854 -2.05945 0
M  V30 6839 C 665.31 1.14243 -1.50313 0
M  V30 6840 O 664.667 1.70872 -0.641027 0
M  V30 6841 C 664.718 -0.11966 -3.61302 0
M  V30 6842 O 664.439 -1.40764 -4.1487 0
M  V30 6843 C 665.94 0.375878 -4.41704 0
M  V30 6844 H 663.16 -0.0976894 -0.663851 0
M  V30 6845 H 665.704 -0.915392 -1.82868 0
M  V30 6846 H 663.859 0.547851 -3.83507 0
M  V30 6847 H 664.273 -1.27784 -5.08696 0
M  V30 6848 H 665.747 0.379988 -5.50691 0
M  V30 6849 H 666.224 1.41028 -4.15942 0
M  V30 6850 H 666.83 -0.259727 -4.24506 0
M  V30 6851 N 665.145 1.52092 -0.413018 0
M  V30 6852 C 666.095 2.23947 0.427993 0
M  V30 6853 C 667.079 1.25229 1.01027 0
M  V30 6854 O 668.271 1.50448 0.932444 0
M  V30 6855 C 665.4 3.0672 1.542 0
M  V30 6856 C 664.486 4.12851 0.970307 0
M  V30 6857 N 664.877 5.05644 0.125611 0
M  V30 6858 C 663.175 4.28404 1.24042 0
M  V30 6859 C 663.876 5.8138 -0.192876 0
M  V30 6860 N 662.852 5.41996 0.417273 0
M  V30 6861 H 666.654 2.93048 -0.223628 0
M  V30 6862 H 664.168 1.60852 -0.223664 0
M  V30 6863 H 666.165 3.56754 2.15714 0
M  V30 6864 H 664.825 2.39159 2.19621 0
M  V30 6865 H 665.836 5.17348 -0.238995 0
M  V30 6866 H 662.513 3.72071 1.89391 0
M  V30 6867 H 663.903 6.66129 -0.878762 0
M  V30 6868 N 666.623 0.143563 1.56945 0
M  V30 6869 C 667.586 -0.783295 2.154 0
M  V30 6870 C 668.586 -1.17763 1.09492 0
M  V30 6871 O 669.776 -1.09912 1.35148 0
M  V30 6872 C 666.908 -2.06248 2.7143 0
M  V30 6873 H 668.101 -0.274863 2.98638 0
M  V30 6874 H 665.654 -0.105859 1.55941 0
M  V30 6875 H 666.389 -2.61466 1.91849 0
M  V30 6876 H 666.174 -1.78897 3.4891 0
M  V30 6877 H 667.664 -2.72453 3.16479 0
M  V30 6878 N 668.101 -1.57061 -0.130224 0
M  V30 6879 C 669.349 -1.83893 -0.838313 0
M  V30 6880 C 669.67 -0.727046 -1.80939 0
M  V30 6881 O 668.94 0.249927 -1.94299 0
M  V30 6882 H 667.52 -0.67846 -0.312573 0
M  V30 6883 H 670.182 -1.94529 -0.120224 0
M  V30 6884 H 669.278 -2.79419 -1.39038 0
M  V30 6885 N 669.579 0.400081 -1.52437 0
M  V30 6886 C 670.489 1.51253 -1.79331 0
M  V30 6887 C 671.505 1.60188 -0.679396 0
M  V30 6888 O 672.681 1.76733 -0.965791 0
M  V30 6889 C 669.746 2.869 -1.94652 0
M  V30 6890 C 668.807 2.87777 -3.18564 0
M  V30 6891 C 668.04 4.16954 -3.33145 0
M  V30 6892 O 668.263 5.11329 -2.52783 0
M  V30 6893 O 667.197 4.2487 -4.26343 0
M  V30 6894 H 671.023 1.31461 -2.73773 0
M  V30 6895 H 668.608 0.586834 -1.37392 0
M  V30 6896 H 670.49 3.67336 -2.065 0
M  V30 6897 H 669.165 3.06741 -1.034 0
M  V30 6898 H 668.072 2.06162 -3.12167 0
M  V30 6899 H 669.405 2.72886 -4.09627 0
M  V30 6900 N 671.057 1.43213 0.657864 0
M  V30 6901 C 672.334 1.35063 1.41483 0
M  V30 6902 C 672.714 -0.0038314 2.111 0
M  V30 6903 O 672.062 -1.02018 2.04462 0
M  V30 6904 C 672.272 2.53061 2.40335 0
M  V30 6905 C 673.62 2.9594 3.04474 0
M  V30 6906 O 674.644 2.53074 2.50663 0
M  V30 6907 O 673.503 3.70184 4.02027 0
M  V30 6908 H 670.597 0.533517 0.631893 0
M  V30 6909 H 673.143 1.55253 0.685162 0
M  V30 6910 H 671.915 3.43283 1.87809 0
M  V30 6911 H 671.538 2.34945 3.20759 0
M  V30 6912 N 672.536 -0.895792 1.29666 0
M  V30 6913 C 673.782 -1.64908 1.18039 0
M  V30 6914 C 674.115 -1.9236 -0.266682 0
M  V30 6915 O 673.39 -1.53682 -1.19214 0
M  V30 6916 C 673.673 -2.99574 1.99819 0
M  V30 6917 C 673.526 -2.79163 3.52687 0
M  V30 6918 C 674.845 -4.00358 1.82761 0
M  V30 6919 H 671.964 -0.598437 0.430165 0
M  V30 6920 H 674.606 -1.03736 1.59182 0
M  V30 6921 H 672.756 -3.51786 1.64859 0
M  V30 6922 H 674.428 -2.33821 3.9765 0
M  V30 6923 H 672.671 -2.13871 3.77414 0
M  V30 6924 H 673.342 -3.74871 4.05186 0
M  V30 6925 H 675.818 -3.57268 2.13304 0
M  V30 6926 H 674.694 -4.92514 2.42325 0
M  V30 6927 H 674.955 -4.35096 0.783839 0
M  V30 6928 N 674.014 -1.12206 -1.10668 0
M  V30 6929 C 674.977 -0.790867 -2.15123 0
M  V30 6930 C 675.977 0.193618 -1.5963 0
M  V30 6931 O 677.167 -0.0318728 -1.74171 0
M  V30 6932 C 674.299 -0.174797 -3.40452 0
M  V30 6933 H 675.492 -1.7163 -2.45933 0
M  V30 6934 H 673.045 -0.924993 -1.2599 0
M  V30 6935 H 673.78 0.760478 -3.15257 0
M  V30 6936 H 673.565 -0.88358 -3.82015 0
M  V30 6937 H 675.055 0.0405162 -4.1758 0
M  V30 6938 N 675.492 1.28418 -0.913599 0
M  V30 6939 C 676.738 1.9527 -0.547484 0
M  V30 6940 C 677.071 1.71745 0.906486 0
M  V30 6941 O 676.346 1.03834 1.64465 0
M  V30 6942 C 676.629 3.49748 -0.857205 0
M  V30 6943 C 676.482 3.82675 -2.3639 0
M  V30 6944 C 677.801 4.3868 -0.353258 0
M  V30 6945 H 674.92 0.709236 -0.200381 0
M  V30 6946 H 677.562 1.51789 -1.14281 0
M  V30 6947 H 675.712 3.86915 -0.350548 0
M  V30 6948 H 677.384 3.55378 -2.94116 0
M  V30 6949 H 675.627 3.29724 -2.81894 0
M  V30 6950 H 676.298 4.90547 -2.53115 0
M  V30 6951 H 678.774 4.08584 -0.787288 0
M  V30 6952 H 677.65 5.45621 -0.599049 0
M  V30 6953 H 677.911 4.35753 0.746413 0
M  V30 6954 N 676.97 0.677563 1.42291 0
M  V30 6955 C 678.217 0.200975 2.015 0
M  V30 6956 C 678.545 -1.19342 1.53583 0
M  V30 6957 O 677.8 -1.81579 0.7299 0
M  V30 6958 C 678.099 0.187229 3.56909 0
M  V30 6959 C 677.765 1.52667 4.24268 0
M  V30 6960 C 676.427 1.89341 4.42384 0
M  V30 6961 C 678.779 2.40869 4.62203 0
M  V30 6962 C 676.107 3.13836 4.95705 0
M  V30 6963 C 678.459 3.64679 5.16906 0
M  V30 6964 C 677.123 4.01519 5.33234 0
M  V30 6965 H 676.393 0.0735418 0.737342 0
M  V30 6966 H 679.04 0.873095 1.70439 0
M  V30 6967 H 677.345 -0.568407 3.87655 0
M  V30 6968 H 679.042 -0.198773 4.00507 0
M  V30 6969 H 675.632 1.23138 4.1053 0
M  V30 6970 H 679.816 2.1382 4.47878 0
M  V30 6971 H 675.072 3.42396 5.06532 0
M  V30 6972 H 679.246 4.33224 5.45243 0
M  V30 6973 H 676.873 4.98062 5.74316 0
M  V30 6974 N 678.448 -1.51871 0.421078 0
M  V30 6975 C 679.411 -2.25914 -0.386712 0
M  V30 6976 C 680.411 -1.28733 -0.963555 0
M  V30 6977 O 681.601 -1.52579 -0.840556 0
M  V30 6978 C 678.733 -3.03853 -1.54551 0
M  V30 6979 H 679.926 -2.98754 0.261978 0
M  V30 6980 H 677.479 -1.5533 0.173862 0
M  V30 6981 H 678.214 -2.35392 -2.23072 0
M  V30 6982 H 677.999 -3.75215 -1.13824 0
M  V30 6983 H 679.489 -3.59984 -2.11663 0
M  V30 6984 N 679.926 -0.151884 -1.56866 0
M  V30 6985 C 681.342 0.204486 -1.58285 0
M  V30 6986 C 681.542 1.6431 -1.16639 0
M  V30 6987 O 680.598 2.37077 -0.868946 0
M  V30 6988 C 681.911 -0.0587019 -3.00643 0
M  V30 6989 C 683.459 0.00462303 -3.13 0
M  V30 6990 C 683.934 -0.231297 -4.57416 0
M  V30 6991 N 685.425 -0.178394 -4.62856 0
M  V30 6992 C 686.16 -0.335379 -5.72418 0
M  V30 6993 N 685.656 -0.550355 -6.90611 0
M  V30 6994 N 687.449 -0.272641 -5.61438 0
M  V30 6995 H 679.6 -1.09116 -1.82229 0
M  V30 6996 H 681.863 -0.432311 -0.843689 0
M  V30 6997 H 681.569 -1.05453 -3.35518 0
M  V30 6998 H 681.443 0.658508 -3.71407 0
M  V30 6999 H 683.83 0.991009 -2.77962 0
M  V30 7000 H 683.911 -0.744992 -2.44711 0
M  V30 7001 H 683.555 -1.2148 -4.93158 0
M  V30 7002 H 683.485 0.5387 -5.23837 0
M  V30 7003 H 685.976 -0.0170923 -3.77896 0
M  V30 7004 H 686.289 -0.660116 -7.69976 0
M  V30 7005 H 684.634 -0.586736 -6.92519 0
M  V30 7006 H 687.825 -0.105421 -4.67981 0
M  V30 7007 H 687.998 -0.398418 -6.46774 0
M  V30 7008 N 681.404 1.57128 0.121893 0
M  V30 7009 C 682.652 1.84335 0.828548 0
M  V30 7010 C 682.973 0.736632 1.80551 0
M  V30 7011 O 682.243 -0.23962 1.94429 0
M  V30 7012 H 680.823 0.680108 0.30897 0
M  V30 7013 H 683.485 1.9459 0.109906 0
M  V30 7014 H 682.581 2.80152 1.37554 0
M  V30 7015 N 682.882 -0.391992 1.52647 0
M  V30 7016 C 684.293 -0.970064 1.5952 0
M  V30 7017 C 684.644 -1.91059 0.446207 0
M  V30 7018 O 683.769 -2.12062 -0.431125 0
M  V30 7019 C 684.364 -1.76614 2.89125 0
M  V30 7020 C 682.923 -2.29396 2.9842 0
M  V30 7021 C 682.07 -1.09864 2.54608 0
M  V30 7022 H 685.021 -0.171638 1.57769 0
M  V30 7023 H 685.042 -2.62511 2.75442 0
M  V30 7024 H 684.554 -1.08135 3.72731 0
M  V30 7025 H 682.655 -3.01196 2.19344 0
M  V30 7026 H 682.768 -2.59088 4.03002 0
M  V30 7027 H 681.132 -1.45777 2.08857 0
M  V30 7028 H 681.915 -0.429249 3.40606 0
M  V30 7029 N 684.36 -1.4356 -0.65026 0
M  V30 7030 C 685.292 -1.44918 -1.77571 0
M  V30 7031 C 686.305 -0.344925 -1.59104 0
M  V30 7032 O 687.494 -0.609537 -1.6777 0
M  V30 7033 C 684.594 -1.24914 -3.15039 0
M  V30 7034 C 683.767 -2.48232 -3.60138 0
M  V30 7035 C 682.826 -2.23409 -4.76419 0
M  V30 7036 O 681.852 -2.9678 -4.85706 0
M  V30 7037 N 683.054 -1.25259 -5.66825 0
M  V30 7038 H 685.819 -2.41935 -1.76883 0
M  V30 7039 H 683.38 -1.38754 -0.834202 0
M  V30 7040 H 685.372 -1.06185 -3.90521 0
M  V30 7041 H 683.942 -0.363319 -3.10481 0
M  V30 7042 H 683.162 -2.82366 -2.75069 0
M  V30 7043 H 684.45 -3.30296 -3.87017 0
M  V30 7044 H 683.848 -0.646246 -5.61997 0
M  V30 7045 H 682.405 -1.12513 -6.42016 0
M  V30 7046 N 685.838 0.888903 -1.30139 0
M  V30 7047 C 686.801 1.97576 -1.16174 0
M  V30 7048 C 687.801 1.60525 -0.094086 0
M  V30 7049 O 688.991 1.70812 -0.341889 0
M  V30 7050 C 686.123 3.3188 -0.778983 0
M  V30 7051 H 687.316 2.11393 -2.12728 0
M  V30 7052 H 684.869 1.0748 -1.1348 0
M  V30 7053 H 685.604 3.23765 0.186225 0
M  V30 7054 H 685.389 3.60141 -1.55051 0
M  V30 7055 H 686.879 4.11612 -0.704631 0
M  V30 7056 N 687.317 1.12792 1.10072 0
M  V30 7057 C 688.267 0.768086 2.14673 0
M  V30 7058 C 689.251 -0.234716 1.59179 0
M  V30 7059 O 690.443 -0.039643 1.76956 0
M  V30 7060 C 687.572 0.228472 3.42539 0
M  V30 7061 C 686.658 1.25979 4.04957 0
M  V30 7062 N 687.049 2.4586 4.42025 0
M  V30 7063 C 685.347 1.10602 4.32069 0
M  V30 7064 C 686.048 3.11747 4.9111 0
M  V30 7065 N 685.024 2.39185 4.88151 0
M  V30 7066 H 688.826 1.68029 2.4113 0
M  V30 7067 H 686.34 1.00925 1.27232 0
M  V30 7068 H 688.337 -0.0475216 4.16873 0
M  V30 7069 H 686.997 -0.678136 3.1754 0
M  V30 7070 H 688.008 2.83215 4.33601 0
M  V30 7071 H 684.685 0.257021 4.16708 0
M  V30 7072 H 686.075 4.13862 5.29309 0
M  V30 7073 N 688.795 -1.27931 0.920396 0
M  V30 7074 C 689.725 -2.29487 0.431024 0
M  V30 7075 C 690.706 -1.62435 -0.504861 0
M  V30 7076 O 691.891 -1.89797 -0.411176 0
M  V30 7077 C 689.021 -3.45788 -0.323709 0
M  V30 7078 C 687.975 -4.24784 0.523658 0
M  V30 7079 C 687.301 -5.33488 -0.359809 0
M  V30 7080 C 688.601 -4.90874 1.78437 0
M  V30 7081 H 690.295 -2.70671 1.27975 0
M  V30 7082 H 687.841 -1.30121 0.616813 0
M  V30 7083 H 689.794 -4.15927 -0.676952 0
M  V30 7084 H 688.518 -3.03502 -1.2064 0
M  V30 7085 H 687.177 -3.56382 0.85951 0
M  V30 7086 H 686.825 -4.87445 -1.24124 0
M  V30 7087 H 686.525 -5.87247 0.203605 0
M  V30 7088 H 688.049 -6.06472 -0.708787 0
M  V30 7089 H 689.463 -5.53339 1.49963 0
M  V30 7090 H 687.86 -5.54659 2.29071 0
M  V30 7091 H 688.93 -4.14988 2.50824 0
M  V30 7092 N 690.273 -0.685099 -1.4193 0
M  V30 7093 C 691.519 -0.211971 -2.01689 0
M  V30 7094 C 691.852 1.18189 -1.54094 0
M  V30 7095 O 691.127 1.79559 -0.747572 0
M  V30 7096 C 691.41 -0.258019 -3.59174 0
M  V30 7097 C 691.263 -1.68807 -4.16922 0
M  V30 7098 C 692.582 0.388044 -4.38386 0
M  V30 7099 H 689.701 -0.0784987 -0.732808 0
M  V30 7100 H 692.343 -0.871837 -1.68816 0
M  V30 7101 H 690.493 0.303832 -3.8731 0
M  V30 7102 H 692.165 -2.30296 -3.99702 0
M  V30 7103 H 690.408 -2.22553 -3.72361 0
M  V30 7104 H 691.079 -1.6719 -5.26072 0
M  V30 7105 H 693.555 -0.0903432 -4.16002 0
M  V30 7106 H 692.431 0.325232 -5.47936 0
M  V30 7107 H 692.692 1.4672 -4.17044 0
M  V30 7108 N 691.751 1.51645 -0.429126 0
M  V30 7109 C 692.701 2.24388 0.404217 0
M  V30 7110 C 693.685 1.26294 0.996933 0
M  V30 7111 O 694.877 1.51428 0.916434 0
M  V30 7112 C 692.006 3.08338 1.50938 0
M  V30 7113 C 691.092 4.13857 0.926464 0
M  V30 7114 N 691.483 5.05749 0.0719732 0
M  V30 7115 C 689.781 4.29695 1.19491 0
M  V30 7116 C 690.482 5.81143 -0.254528 0
M  V30 7117 N 689.458 5.42408 0.359763 0
M  V30 7118 H 693.26 2.92794 -0.254697 0
M  V30 7119 H 690.774 1.60606 -0.240712 0
M  V30 7120 H 692.771 3.59022 2.11918 0
M  V30 7121 H 691.431 2.41475 2.17072 0
M  V30 7122 H 692.442 5.17066 -0.293854 0
M  V30 7123 H 689.119 3.74059 1.85434 0
M  V30 7124 H 690.509 6.65159 -0.949365 0
M  V30 7125 N 693.229 0.160201 1.56784 0
M  V30 7126 C 694.477 -0.486625 1.96154 0
M  V30 7127 C 694.798 -1.64525 1.04673 0
M  V30 7128 O 694.068 -1.95586 0.110864 0
M  V30 7129 H 692.648 -0.182764 0.724297 0
M  V30 7130 H 695.31 0.238787 1.93432 0
M  V30 7131 H 694.406 -0.854025 3.00188 0
M  V30 7132 N 694.707 -1.5719 -0.113559 0
M  V30 7133 C 695.953 -1.85412 -0.821597 0
M  V30 7134 C 696.286 -0.746722 -1.7927 0
M  V30 7135 O 695.561 0.246971 -1.92926 0
M  V30 7136 C 695.844 -3.24233 -1.56669 0
M  V30 7137 C 695.697 -4.45578 -0.614823 0
M  V30 7138 C 697.016 -3.60697 -2.52161 0
M  V30 7139 H 694.135 -0.674406 -0.29723 0
M  V30 7140 H 696.777 -1.89807 -0.085694 0
M  V30 7141 H 694.927 -3.20617 -2.19401 0
M  V30 7142 H 696.599 -4.613 0.00407137 0
M  V30 7143 H 694.842 -4.33738 0.0732332 0
M  V30 7144 H 695.513 -5.39395 -1.17292 0
M  V30 7145 H 697.989 -3.65139 -1.99532 0
M  V30 7146 H 696.865 -4.58798 -3.01323 0
M  V30 7147 H 697.126 -2.88403 -3.35076 0
M  V30 7148 N 696.185 0.383891 -1.52853 0
M  V30 7149 C 697.117 1.48889 -1.74255 0
M  V30 7150 C 698.13 1.50405 -0.623063 0
M  V30 7151 O 699.319 1.54215 -0.898887 0
M  V30 7152 C 696.419 2.87721 -1.79081 0
M  V30 7153 C 695.592 3.10111 -3.08464 0
M  V30 7154 C 694.651 4.28954 -3.0477 0
M  V30 7155 O 693.677 4.25012 -3.78621 0
M  V30 7156 N 694.879 5.35411 -2.24311 0
M  V30 7157 H 697.644 1.30915 -2.69595 0
M  V30 7158 H 695.205 0.573454 -1.51404 0
M  V30 7159 H 697.197 3.65333 -1.7411 0
M  V30 7160 H 695.767 2.99029 -0.911052 0
M  V30 7161 H 694.987 2.20319 -3.26884 0
M  V30 7162 H 696.275 3.21928 -3.94005 0
M  V30 7163 H 695.673 5.41471 -1.63787 0
M  V30 7164 H 694.23 6.1167 -2.25175 0
M  V30 7165 N 697.663 1.43903 0.642637 0
M  V30 7166 C 698.573 1.52349 1.78401 0
M  V30 7167 C 699.589 0.409869 1.69104 0
M  V30 7168 O 700.765 0.665548 1.90085 0
M  V30 7169 C 697.83 1.45408 3.14734 0
M  V30 7170 C 696.891 2.67528 3.35749 0
M  V30 7171 C 696.124 2.60909 4.65577 0
M  V30 7172 O 696.347 1.6627 5.45628 0
M  V30 7173 O 695.281 3.5158 4.88544 0
M  V30 7174 H 699.107 2.48752 1.7423 0
M  V30 7175 H 696.692 1.26021 0.802439 0
M  V30 7176 H 698.574 1.44019 3.96026 0
M  V30 7177 H 697.249 0.521437 3.19473 0
M  V30 7178 H 696.156 2.74487 2.5418 0
M  V30 7179 H 697.489 3.598 3.35864 0
M  V30 7180 N 699.141 -0.881989 1.30609 0
M  V30 7181 C 700.073 -1.99375 1.13058 0
M  V30 7182 C 701.086 -1.62636 0.0729879 0
M  V30 7183 O 702.275 -1.75621 0.319301 0
M  V30 7184 C 699.375 -3.31536 0.702651 0
M  V30 7185 C 698.548 -3.96693 1.84265 0
M  V30 7186 C 697.607 -5.07158 1.40277 0
M  V30 7187 O 696.633 -5.28628 2.11048 0
M  V30 7188 N 697.835 -5.79808 0.283449 0
M  V30 7189 H 700.6 -2.14981 2.08814 0
M  V30 7190 H 698.161 -1.05526 1.22784 0
M  V30 7191 H 700.153 -4.02804 0.391331 0
M  V30 7192 H 698.723 -3.12175 -0.162954 0
M  V30 7193 H 697.943 -3.1856 2.32192 0
M  V30 7194 H 699.231 -4.36964 2.60653 0
M  V30 7195 H 698.629 -5.64871 -0.306189 0
M  V30 7196 H 697.186 -6.51792 0.0315985 0
M  V30 7197 N 700.619 -1.13374 -1.09472 0
M  V30 7198 C 701.847 -0.918351 -1.85402 0
M  V30 7199 C 702.262 0.53281 -1.81126 0
M  V30 7200 O 701.619 1.36879 -1.20708 0
M  V30 7201 C 701.67 -1.39743 -3.33398 0
M  V30 7202 O 701.391 -2.79172 -3.37631 0
M  V30 7203 C 702.892 -1.22042 -4.2617 0
M  V30 7204 H 700.112 -0.327511 -0.585643 0
M  V30 7205 H 702.656 -1.50617 -1.38328 0
M  V30 7206 H 700.811 -0.852619 -3.77901 0
M  V30 7207 H 701.225 -3.00428 -4.29934 0
M  V30 7208 H 702.699 -1.60438 -5.2817 0
M  V30 7209 H 703.176 -0.162047 -4.38901 0
M  V30 7210 H 703.782 -1.75323 -3.87482 0
M  V30 7211 N 702.098 1.27442 -0.927168 0
M  V30 7212 C 703.345 1.94391 -0.567324 0
M  V30 7213 C 703.673 1.72875 0.891321 0
M  V30 7214 O 702.928 1.05071 1.65102 0
M  V30 7215 C 703.227 3.47413 -0.838994 0
M  V30 7216 C 702.893 3.89049 -2.2793 0
M  V30 7217 C 701.555 4.00127 -2.67305 0
M  V30 7218 C 703.907 4.10154 -3.21595 0
M  V30 7219 C 701.235 4.29697 -3.99471 0
M  V30 7220 C 703.587 4.41208 -4.53341 0
M  V30 7221 C 702.251 4.50499 -4.92551 0
M  V30 7222 H 701.521 0.711325 -0.207598 0
M  V30 7223 H 704.168 1.51523 -1.17103 0
M  V30 7224 H 702.473 3.91503 -0.152609 0
M  V30 7225 H 704.17 3.97354 -0.53955 0
M  V30 7226 H 700.76 3.80962 -1.96381 0
M  V30 7227 H 704.944 4.01036 -2.92377 0
M  V30 7228 H 700.2 4.35099 -4.29533 0
M  V30 7229 H 704.374 4.56486 -5.25922 0
M  V30 7230 H 702.001 4.73167 -5.94994 0
M  V30 7231 N 703.576 0.692616 1.41565 0
M  V30 7232 C 704.825 0.219452 2.00503 0
M  V30 7233 C 705.138 -1.18683 1.55479 0
M  V30 7234 O 706.344 -1.75731 2.06956 0
M  V30 7235 C 704.8 0.341451 3.58277 0
M  V30 7236 C 704.408 1.75291 4.12283 0
M  V30 7237 C 706.152 -0.0720899 4.24439 0
M  V30 7238 C 704.059 1.82673 5.62481 0
M  V30 7239 H 702.989 0.0782874 0.749925 0
M  V30 7240 H 705.64 0.860386 1.62079 0
M  V30 7241 H 704.022 -0.367683 3.94289 0
M  V30 7242 H 705.196 2.49057 3.87695 0
M  V30 7243 H 703.511 2.11587 3.58636 0
M  V30 7244 H 706.108 -0.0373385 5.34687 0
M  V30 7245 H 706.451 -1.11034 4.0122 0
M  V30 7246 H 706.984 0.586663 3.9345 0
M  V30 7247 H 703.723 2.84539 5.90523 0
M  V30 7248 H 703.243 1.13288 5.89004 0
M  V30 7249 H 704.922 1.58827 6.27203 0
M  V30 7250 N 705.054 -1.51416 0.437162 0
M  V30 7251 C 706.017 -2.26312 -0.362729 0
M  V30 7252 C 707.017 -1.29748 -0.949847 0
M  V30 7253 O 708.207 -1.53462 -0.824325 0
M  V30 7254 C 705.339 -3.05475 -1.5132 0
M  V30 7255 H 706.532 -2.98459 0.29365 0
M  V30 7256 H 704.085 -1.55137 0.190327 0
M  V30 7257 H 704.82 -2.37744 -2.20563 0
M  V30 7258 H 704.605 -3.76401 -1.09838 0
M  V30 7259 H 706.095 -3.62209 -2.07833 0
M  V30 7260 N 706.532 -0.168513 -1.56696 0
M  V30 7261 C 707.482 0.7751 -2.14421 0
M  V30 7262 C 708.466 1.19476 -1.07769 0
M  V30 7263 O 709.658 1.15759 -1.33898 0
M  V30 7264 C 706.787 2.00549 -2.7863 0
M  V30 7265 C 705.873 1.60795 -3.92436 0
M  V30 7266 N 706.264 0.919812 -4.97366 0
M  V30 7267 C 704.562 1.89917 -4.03544 0
M  V30 7268 C 705.263 0.724485 -5.77171 0
M  V30 7269 N 704.239 1.26505 -5.28675 0
M  V30 7270 H 708.041 0.240349 -2.92916 0
M  V30 7271 H 705.555 0.0322675 -1.62368 0
M  V30 7272 H 707.552 2.6917 -3.1836 0
M  V30 7273 H 706.212 2.54522 -2.01615 0
M  V30 7274 H 707.223 0.578169 -5.14663 0
M  V30 7275 H 703.9 2.45587 -3.37629 0
M  V30 7276 H 705.29 0.180521 -6.71657 0
M  V30 7277 N 708.01 1.57248 0.105221 0
M  V30 7278 C 709.256 1.85845 0.811753 0
M  V30 7279 C 709.589 0.756219 1.78871 0
M  V30 7280 O 708.864 -0.236736 1.93054 0
M  V30 7281 C 709.147 3.25059 1.54947 0
M  V30 7282 C 709 4.45898 0.591185 0
M  V30 7283 C 710.319 3.6203 2.50245 0
M  V30 7284 H 707.438 0.675973 0.293649 0
M  V30 7285 H 710.08 1.89849 0.0756269 0
M  V30 7286 H 708.23 3.21776 2.17698 0
M  V30 7287 H 709.902 4.61291 -0.0285352 0
M  V30 7288 H 708.145 4.33693 -0.0962343 0
M  V30 7289 H 708.816 5.40009 1.1443 0
M  V30 7290 H 711.292 3.66192 1.97593 0
M  V30 7291 H 710.168 4.60389 2.98886 0
M  V30 7292 H 710.429 2.90176 3.33542 0
M  V30 7293 N 709.488 -0.375779 1.53054 0
M  V30 7294 C 710.421 -1.48187 1.7354 0
M  V30 7295 C 711.399 -1.5177 0.583495 0
M  V30 7296 O 712.583 -1.69976 0.81488 0
M  V30 7297 C 709.71 -2.86598 1.80497 0
M  V30 7298 C 708.756 -3.00784 3.02376 0
M  V30 7299 S 709.589 -2.70601 4.62099 0
M  V30 7300 C 710.745 -4.11181 4.71891 0
M  V30 7301 H 710.978 -1.30587 2.67085 0
M  V30 7302 H 708.511 -0.569485 1.43514 0
M  V30 7303 H 710.469 -3.66353 1.85192 0
M  V30 7304 H 709.13 -3.01514 0.880217 0
M  V30 7305 H 708.323 -4.02128 3.03824 0
M  V30 7306 H 707.925 -2.28939 2.95742 0
M  V30 7307 H 710.217 -5.0529 4.51319 0
M  V30 7308 H 711.16 -4.14742 5.73929 0
M  V30 7309 H 711.568 -3.97706 4.00612 0
M  V30 7310 N 710.966 -1.44241 -0.634997 0
M  V30 7311 C 711.929 -1.50457 -1.72903 0
M  V30 7312 C 712.929 -0.387058 -1.56072 0
M  V30 7313 O 714.119 -0.649531 -1.61638 0
M  V30 7314 C 711.251 -1.37477 -3.1195 0
M  V30 7315 H 712.444 -2.47907 -1.68767 0
M  V30 7316 H 709.997 -1.31276 -0.84831 0
M  V30 7317 H 710.732 -0.41106 -3.21684 0
M  V30 7318 H 710.517 -2.18506 -3.25573 0
M  V30 7319 H 712.007 -1.44799 -3.91692 0
M  V30 7320 N 712.444 0.87505 -1.31075 0
M  V30 7321 C 713.691 1.62768 -1.20469 0
M  V30 7322 C 714.019 1.93034 0.23834 0
M  V30 7323 O 713.274 1.55693 1.18567 0
M  V30 7324 C 713.573 2.96948 -1.98888 0
M  V30 7325 C 713.239 2.86195 -3.4843 0
M  V30 7326 C 711.901 2.82969 -3.89207 0
M  V30 7327 C 714.253 2.73599 -4.43614 0
M  V30 7328 C 711.581 2.64999 -5.23443 0
M  V30 7329 C 713.933 2.57166 -5.77969 0
M  V30 7330 C 712.597 2.52321 -6.17973 0
M  V30 7331 H 711.867 0.595611 -0.440827 0
M  V30 7332 H 714.514 1.01665 -1.62285 0
M  V30 7333 H 712.819 3.62058 -1.49737 0
M  V30 7334 H 714.516 3.54164 -1.88067 0
M  V30 7335 H 711.106 2.8952 -3.16032 0
M  V30 7336 H 715.29 2.7515 -4.13045 0
M  V30 7337 H 710.546 2.5967 -5.53517 0
M  V30 7338 H 714.72 2.46396 -6.51354 0
M  V30 7339 H 712.347 2.38156 -7.21932 0
M  V30 7340 N 713.922 1.13953 1.08869 0
M  V30 7341 C 714.885 0.824991 2.13838 0
M  V30 7342 C 715.885 -0.168198 1.59918 0
M  V30 7343 O 717.075 0.0595778 1.74098 0
M  V30 7344 C 714.207 0.228938 3.4013 0
M  V30 7345 H 715.4 1.75521 2.43171 0
M  V30 7346 H 712.953 0.94492 1.24503 0
M  V30 7347 H 713.688 -0.710227 3.16427 0
M  V30 7348 H 713.473 0.944243 3.80561 0
M  V30 7349 H 714.963 0.0259223 4.17592 0
M  V30 7350 N 715.4 -1.26948 0.933913 0
M  V30 7351 C 716.363 -2.24889 0.442457 0
M  V30 7352 C 717.363 -1.54594 -0.442426 0
M  V30 7353 O 718.553 -1.72502 -0.242629 0
M  V30 7354 C 715.685 -3.3896 -0.363173 0
M  V30 7355 H 716.878 -2.69879 1.30787 0
M  V30 7356 H 714.431 -1.38978 0.715187 0
M  V30 7357 H 715.166 -2.99361 -1.24714 0
M  V30 7358 H 714.951 -3.9116 0.271366 0
M  V30 7359 H 716.441 -4.11739 -0.697186 0
M  V30 7360 N 716.879 -0.700114 -1.41195 0
M  V30 7361 C 718.119 -0.237223 -2.03019 0
M  V30 7362 C 718.483 1.14304 -1.54268 0
M  V30 7363 O 719.684 1.70204 -2.08048 0
M  V30 7364 C 717.955 -0.297442 -3.5616 0
M  V30 7365 S 719.514 0.0907367 -4.38706 0
M  V30 7366 H 716.332 -0.0952147 -0.704596 0
M  V30 7367 H 718.934 -0.918901 -1.72559 0
M  V30 7368 H 717.638 -1.30391 -3.89135 0
M  V30 7369 H 717.169 0.403233 -3.91328 0
M  V30 7370 H 719.184 1.31721 -4.78397 0
M  V30 7371 N 718.357 1.51182 -0.445186 0
M  V30 7372 C 719.287 2.30821 0.352686 0
M  V30 7373 C 720.268 1.36576 1.01395 0
M  V30 7374 O 721.453 1.65497 1.01609 0
M  V30 7375 C 718.583 3.15593 1.44976 0
M  V30 7376 C 717.537 4.1818 0.911553 0
M  V30 7377 C 716.863 4.91523 2.10497 0
M  V30 7378 C 718.163 5.22266 -0.059418 0
M  V30 7379 H 719.857 2.97771 -0.311936 0
M  V30 7380 H 717.403 1.43201 -0.151461 0
M  V30 7381 H 719.356 3.70091 2.01521 0
M  V30 7382 H 718.08 2.4648 2.14278 0
M  V30 7383 H 716.739 3.64746 0.368264 0
M  V30 7384 H 716.387 4.18906 2.78437 0
M  V30 7385 H 716.087 5.60898 1.7512 0
M  V30 7386 H 717.611 5.48847 2.6758 0
M  V30 7387 H 719.025 5.71789 0.415985 0
M  V30 7388 H 717.422 5.99213 -0.326152 0
M  V30 7389 H 718.492 4.7461 -0.993631 0
M  V30 7390 N 719.835 0.176821 1.56605 0
M  V30 7391 C 720.745 -0.763682 2.21822 0
M  V30 7392 C 721.761 -1.24889 1.21156 0
M  V30 7393 O 722.937 -1.29987 1.53836 0
M  V30 7394 C 720.002 -1.97352 2.8505 0
M  V30 7395 C 719.063 -1.53466 4.00932 0
M  V30 7396 C 718.296 -2.68682 4.61135 0
M  V30 7397 O 718.519 -3.85694 4.20234 0
M  V30 7398 O 717.453 -2.42442 5.50913 0
M  V30 7399 H 721.279 -0.238363 3.02763 0
M  V30 7400 H 718.864 -0.0516331 1.49311 0
M  V30 7401 H 720.746 -2.68096 3.25119 0
M  V30 7402 H 719.421 -2.48779 2.07101 0
M  V30 7403 H 718.328 -0.796551 3.65521 0
M  V30 7404 H 719.661 -1.06724 4.8049 0
M  V30 7405 N 721.313 -1.57302 -0.09688 0
M  V30 7406 C 722.724 -1.7496 -0.651595 0
M  V30 7407 C 723.075 -0.798746 -1.79205 0
M  V30 7408 O 722.2 0.0231858 -2.16388 0
M  V30 7409 C 722.795 -3.17259 -1.18878 0
M  V30 7410 C 721.354 -3.36348 -1.68958 0
M  V30 7411 C 720.501 -2.70766 -0.598413 0
M  V30 7412 H 723.452 -1.58173 0.12918 0
M  V30 7413 H 723.473 -3.20033 -2.05814 0
M  V30 7414 H 722.985 -3.8644 -0.358523 0
M  V30 7415 H 721.086 -2.72243 -2.5439 0
M  V30 7416 H 721.199 -4.44654 -1.7838 0
M  V30 7417 H 719.563 -2.32615 -1.03743 0
M  V30 7418 H 720.346 -3.42586 0.221238 0
M  V30 7419 N 722.791 0.367657 -1.53252 0
M  V30 7420 C 724.021 1.12955 -1.72988 0
M  V30 7421 C 724.429 1.8358 -0.457708 0
M  V30 7422 O 723.772 1.74336 0.579006 0
M  V30 7423 C 723.834 2.20545 -2.83902 0
M  V30 7424 C 723.498 1.69704 -4.24323 0
M  V30 7425 C 724.495 1.16223 -5.06743 0
M  V30 7426 C 722.18 1.7528 -4.70725 0
M  V30 7427 C 724.174 0.689935 -6.33655 0
M  V30 7428 C 721.861 1.27662 -5.97617 0
M  V30 7429 C 722.859 0.746083 -6.78913 0
M  V30 7430 O 722.547 0.276925 -8.03423 0
M  V30 7431 H 722.279 0.343753 -0.582074 0
M  V30 7432 H 724.833 0.433106 -2.00782 0
M  V30 7433 H 723.063 2.93676 -2.51577 0
M  V30 7434 H 724.752 2.82111 -2.91836 0
M  V30 7435 H 725.518 1.11256 -4.72067 0
M  V30 7436 H 721.397 2.15515 -4.07522 0
M  V30 7437 H 724.941 0.275164 -6.97057 0
M  V30 7438 H 720.838 1.32322 -6.31792 0
M  V30 7439 H 721.606 0.396445 -8.17539 0
M  V30 7440 N 724.269 1.44576 0.627338 0
M  V30 7441 C 725.497 1.51048 1.41394 0
M  V30 7442 C 725.912 0.136568 1.88305 0
M  V30 7443 O 725.269 -0.858251 1.6106 0
M  V30 7444 C 725.32 2.47837 2.63172 0
M  V30 7445 O 725.041 3.79887 2.18215 0
M  V30 7446 C 726.542 2.63811 3.56257 0
M  V30 7447 H 723.762 0.512171 0.4335 0
M  V30 7448 H 726.306 1.89576 0.766878 0
M  V30 7449 H 724.461 2.12433 3.23961 0
M  V30 7450 H 724.875 4.32177 2.97192 0
M  V30 7451 H 726.349 3.35554 4.38301 0
M  V30 7452 H 726.826 1.69169 4.05313 0
M  V30 7453 H 727.432 3.0013 3.01333 0
M  V30 7454 N 725.747 -0.868086 1.31537 0
M  V30 7455 C 726.71 -1.95703 1.19302 0
M  V30 7456 C 727.71 -1.60355 0.119612 0
M  V30 7457 O 728.9 -1.70247 0.36902 0
M  V30 7458 C 726.032 -3.30599 0.831684 0
M  V30 7459 H 727.225 -2.07982 2.16064 0
M  V30 7460 H 724.778 -1.05661 1.15176 0
M  V30 7461 H 725.513 -3.2402 -0.134694 0
M  V30 7462 H 725.298 -3.57629 1.60761 0
M  V30 7463 H 726.788 -4.10439 0.770026 0
M  V30 7464 N 727.225 -1.14528 -1.08264 0
M  V30 7465 C 728.465 -0.924808 -1.82282 0
M  V30 7466 C 728.829 0.538881 -1.84283 0
M  V30 7467 O 730.03 0.877355 -2.54079 0
M  V30 7468 C 728.301 -1.51102 -3.23887 0
M  V30 7469 S 729.86 -1.43232 -4.14765 0
M  V30 7470 H 726.678 -0.333052 -0.62817 0
M  V30 7471 H 729.28 -1.45905 -1.30123 0
M  V30 7472 H 727.984 -2.56942 -3.20014 0
M  V30 7473 H 727.515 -0.975234 -3.8112 0
M  V30 7474 H 729.53 -0.418843 -4.94429 0
M  V30 7475 N 728.703 1.26451 -0.940633 0
M  V30 7476 C 729.98 1.88947 -0.505811 0
M  V30 7477 C 730.36 1.85011 1.01657 0
M  V30 7478 O 729.708 1.30406 1.87634 0
M  V30 7479 C 729.918 3.32304 -1.06654 0
M  V30 7480 C 731.266 4.09153 -1.13486 0
M  V30 7481 O 732.29 3.41371 -1.01708 0
M  V30 7482 O 731.149 5.30369 -1.31797 0
M  V30 7483 H 728.243 0.810422 -0.164759 0
M  V30 7484 H 730.789 1.34625 -1.03316 0
M  V30 7485 H 729.561 3.29527 -2.11015 0
M  V30 7486 H 729.184 3.94164 -0.521603 0
M  V30 7487 N 730.181 0.707592 1.40822 0
M  V30 7488 C 731.111 0.0644925 2.33411 0
M  V30 7489 C 732.092 -0.754205 1.52466 0
M  V30 7490 O 733.277 -0.704749 1.80961 0
M  V30 7491 C 730.407 -0.863865 3.36385 0
M  V30 7492 C 729.361 -0.15138 4.27732 0
M  V30 7493 C 728.687 -1.19491 5.21177 0
M  V30 7494 C 729.987 0.989607 5.12839 0
M  V30 7495 H 731.681 0.837829 2.87438 0
M  V30 7496 H 729.227 0.404346 1.38207 0
M  V30 7497 H 731.18 -1.32309 4.0009 0
M  V30 7498 H 729.904 -1.66901 2.80734 0
M  V30 7499 H 728.563 0.287937 3.65467 0
M  V30 7500 H 728.211 -1.9929 4.61836 0
M  V30 7501 H 727.911 -0.723123 5.83134 0
M  V30 7502 H 729.435 -1.6544 5.8776 0
M  V30 7503 H 730.849 0.610114 5.70044 0
M  V30 7504 H 729.246 1.38926 5.83798 0
M  V30 7505 H 730.316 1.82389 4.49291 0
M  V30 7506 N 731.66 -1.50943 0.453197 0
M  V30 7507 C 732.623 -2.26684 -0.338705 0
M  V30 7508 C 733.623 -1.30748 -0.936032 0
M  V30 7509 O 734.813 -1.54327 -0.808002 0
M  V30 7510 C 731.945 -3.07063 -1.48071 0
M  V30 7511 H 733.138 -2.98131 0.325289 0
M  V30 7512 H 730.691 -1.54926 0.206771 0
M  V30 7513 H 731.426 -2.4007 -2.18029 0
M  V30 7514 H 731.211 -3.77545 -1.0584 0
M  V30 7515 H 732.701 -3.64393 -2.0398 0
M  V30 7516 N 733.138 -0.185124 -1.56509 0
M  V30 7517 C 734.549 0.329221 -1.83774 0
M  V30 7518 C 734.9 1.62093 -1.10545 0
M  V30 7519 O 734.025 2.13334 -0.36298 0
M  V30 7520 C 734.62 0.604099 -3.33371 0
M  V30 7521 C 733.179 1.06284 -3.61083 0
M  V30 7522 C 732.326 0.10608 -2.77097 0
M  V30 7523 H 735.277 -0.409116 -1.53336 0
M  V30 7524 H 735.298 1.45458 -3.51599 0
M  V30 7525 H 734.81 -0.336201 -3.86641 0
M  V30 7526 H 732.911 2.01777 -3.13236 0
M  V30 7527 H 733.024 0.962453 -4.69333 0
M  V30 7528 H 731.388 0.606082 -2.47384 0
M  V30 7529 H 732.171 -0.828486 -3.33153 0
M  V30 7530 N 734.616 1.57351 0.0885366 0
M  V30 7531 C 736.032 1.53331 0.442916 0
M  V30 7532 C 736.232 0.902831 1.80142 0
M  V30 7533 O 735.288 0.498147 2.47537 0
M  V30 7534 C 736.601 2.98036 0.399372 0
M  V30 7535 C 738.149 3.09286 0.480759 0
M  V30 7536 C 738.624 4.5561 0.467296 0
M  V30 7537 N 740.115 4.60182 0.52786 0
M  V30 7538 C 740.85 5.70857 0.539388 0
M  V30 7539 N 740.346 6.90944 0.506729 0
M  V30 7540 N 742.139 5.59051 0.584691 0
M  V30 7541 H 734.29 1.96709 -0.801215 0
M  V30 7542 H 736.553 0.899639 -0.298922 0
M  V30 7543 H 736.259 3.47656 -0.531806 0
M  V30 7544 H 736.133 3.57066 1.21589 0
M  V30 7545 H 738.52 2.5965 1.40236 0
M  V30 7546 H 738.601 2.53197 -0.364023 0
M  V30 7547 H 738.245 5.05899 -0.450384 0
M  V30 7548 H 738.175 5.09544 1.32938 0
M  V30 7549 H 740.666 3.73757 0.558028 0
M  V30 7550 H 740.979 7.71055 0.518989 0
M  V30 7551 H 739.324 6.93384 0.473675 0
M  V30 7552 H 742.515 4.64138 0.607781 0
M  V30 7553 H 742.688 6.45307 0.590206 0
M  V30 7554 N 736.094 -0.359525 1.53444 0
M  V30 7555 C 737.057 -1.42357 1.7963 0
M  V30 7556 C 738.057 -1.46319 0.666884 0
M  V30 7557 O 739.247 -1.46974 0.935113 0
M  V30 7558 C 736.379 -2.81425 1.92387 0
M  V30 7559 H 737.572 -1.20409 2.74666 0
M  V30 7560 H 735.125 -0.593007 1.44614 0
M  V30 7561 H 735.86 -3.08679 0.994384 0
M  V30 7562 H 735.645 -2.79947 2.74539 0
M  V30 7563 H 737.135 -3.5847 2.14218 0
M  V30 7564 N 737.572 -1.44907 -0.619662 0
M  V30 7565 C 738.82 -1.47999 -1.37625 0
M  V30 7566 C 739.141 -0.118295 -1.94641 0
M  V30 7567 O 738.411 0.85086 -1.76457 0
M  V30 7568 H 736.991 -0.544993 -0.510873 0
M  V30 7569 H 739.653 -1.80772 -0.728522 0
M  V30 7570 H 738.749 -2.21196 -2.20179 0
M  V30 7571 N 739.05 0.861098 -1.31996 0
M  V30 7572 C 740.278 1.6474 -1.25173 0
M  V30 7573 C 740.693 1.87926 0.181425 0
M  V30 7574 O 740.05 1.4437 1.1164 0
M  V30 7575 C 740.101 3.01036 -2.0015 0
M  V30 7576 O 739.822 2.7888 -3.37872 0
M  V30 7577 C 741.323 3.95481 -2.00273 0
M  V30 7578 H 738.543 0.513314 -0.432146 0
M  V30 7579 H 741.087 1.07419 -1.74016 0
M  V30 7580 H 739.242 3.55021 -1.55046 0
M  V30 7581 H 739.656 3.65514 -3.76165 0
M  V30 7582 H 741.13 4.88403 -2.57229 0
M  V30 7583 H 741.607 4.27957 -0.987407 0
M  V30 7584 H 742.213 3.47433 -2.45296 0
M  V30 7585 N 740.528 1.15101 1.07655 0
M  V30 7586 C 741.756 0.947731 1.83918 0
M  V30 7587 C 742.171 -0.503927 1.81951 0
M  V30 7588 O 741.528 -1.34941 1.2287 0
M  V30 7589 C 741.579 1.4503 3.31132 0
M  V30 7590 O 741.3 2.84508 3.33146 0
M  V30 7591 C 742.801 1.28806 4.24174 0
M  V30 7592 H 740.021 0.336786 0.580358 0
M  V30 7593 H 742.565 1.52799 1.35914 0
M  V30 7594 H 740.72 0.912632 3.76497 0
M  V30 7595 H 741.134 3.0723 4.251 0
M  V30 7596 H 742.608 1.6882 5.25551 0
M  V30 7597 H 743.085 0.231851 4.38588 0
M  V30 7598 H 743.691 1.81465 3.84643 0
M  V30 7599 N 742.006 -1.2595 0.947325 0
M  V30 7600 C 743.283 -1.88676 0.515824 0
M  V30 7601 C 743.663 -1.85547 -1.00675 0
M  V30 7602 O 743.011 -1.31399 -1.8694 0
M  V30 7603 C 743.221 -3.31734 1.08415 0
M  V30 7604 C 744.569 -4.08545 1.15654 0
M  V30 7605 O 745.593 -3.40826 1.03517 0
M  V30 7606 O 744.452 -5.29663 1.34608 0
M  V30 7607 H 741.546 -0.809537 0.169055 0
M  V30 7608 H 744.092 -1.34075 1.04029 0
M  V30 7609 H 742.864 -3.28404 2.1276 0
M  V30 7610 H 742.487 -3.93882 0.542499 0
M  V30 7611 N 743.484 -0.715051 -1.40445 0
M  V30 7612 C 744.447 -0.0708726 -2.2909 0
M  V30 7613 C 745.447 0.687926 -1.45342 0
M  V30 7614 O 746.637 0.519908 -1.66261 0
M  V30 7615 C 743.769 0.909528 -3.28543 0
M  V30 7616 H 744.962 -0.851611 -2.87555 0
M  V30 7617 H 742.515 -0.479674 -1.48758 0
M  V30 7618 H 743.25 1.71734 -2.75096 0
M  V30 7619 H 743.035 0.368318 -3.90366 0
M  V30 7620 H 744.525 1.35744 -3.94922 0
M  V30 7621 N 744.962 1.50701 -0.461195 0
M  V30 7622 C 745.925 2.2686 0.326679 0
M  V30 7623 C 746.925 1.31243 0.929085 0
M  V30 7624 O 748.115 1.54754 0.799807 0
M  V30 7625 C 745.247 3.07844 1.46441 0
M  V30 7626 H 746.44 2.97954 -0.341095 0
M  V30 7627 H 743.993 1.54814 -0.214984 0
M  V30 7628 H 744.728 2.41223 2.16753 0
M  V30 7629 H 744.513 3.78101 1.03836 0
M  V30 7630 H 746.003 3.65469 2.02044 0
M  V30 7631 N 746.441 0.193421 1.56409 0
M  V30 7632 C 747.391 -0.74089 2.15627 0
M  V30 7633 C 748.375 -1.17747 1.09656 0
M  V30 7634 O 749.567 -1.13615 1.35723 0
M  V30 7635 C 746.696 -1.96091 2.81786 0
M  V30 7636 C 745.782 -1.54531 3.94944 0
M  V30 7637 N 746.173 -0.840569 4.98767 0
M  V30 7638 C 744.471 -1.83473 4.06514 0
M  V30 7639 C 745.172 -0.632571 5.7825 0
M  V30 7640 N 744.148 -1.18078 5.30621 0
M  V30 7641 H 747.95 -0.193718 2.93261 0
M  V30 7642 H 745.464 -0.00643211 1.62399 0
M  V30 7643 H 747.461 -2.64071 3.22602 0
M  V30 7644 H 746.121 -2.51282 2.05639 0
M  V30 7645 H 747.132 -0.496218 5.15517 0
M  V30 7646 H 743.809 -2.40184 3.41493 0
M  V30 7647 H 745.199 -0.0736433 6.7186 0
M  V30 7648 N 747.919 -1.57396 -0.0801906 0
M  V30 7649 C 749.33 -1.75642 -0.633002 0
M  V30 7650 C 749.681 -0.817708 -1.78348 0
M  V30 7651 O 748.806 0.000233743 -2.164 0
M  V30 7652 C 749.401 -3.18502 -1.15507 0
M  V30 7653 C 747.96 -3.38121 -1.65381 0
M  V30 7654 C 747.107 -2.71386 -0.569661 0
M  V30 7655 H 750.058 -1.58027 0.145949 0
M  V30 7656 H 750.079 -3.22198 -2.02408 0
M  V30 7657 H 749.591 -3.86799 -0.317515 0
M  V30 7658 H 747.692 -2.74926 -2.51488 0
M  V30 7659 H 747.805 -4.46521 -1.73654 0
M  V30 7660 H 746.169 -2.33702 -1.0127 0
M  V30 7661 H 746.952 -3.42332 0.257561 0
M  V30 7662 N 749.397 0.351382 -1.53633 0
M  V30 7663 C 750.645 1.09034 -1.70165 0
M  V30 7664 C 750.966 1.89413 -0.463422 0
M  V30 7665 O 750.236 1.888 0.522624 0
M  V30 7666 H 748.816 0.405522 -0.627344 0
M  V30 7667 H 751.478 0.394554 -1.90865 0
M  V30 7668 H 750.574 1.77215 -2.56907 0
M  V30 7669 N 750.875 1.45233 0.611969 0
M  V30 7670 C 752.286 1.4354 1.19387 0
M  V30 7671 C 752.637 0.160713 1.95541 0
M  V30 7672 O 751.762 -0.737954 2.03429 0
M  V30 7673 C 752.357 2.60045 2.17169 0
M  V30 7674 C 750.916 2.61486 2.70744 0
M  V30 7675 C 750.063 2.35708 1.46072 0
M  V30 7676 H 753.014 1.53536 0.401529 0
M  V30 7677 H 753.035 2.33893 3.00124 0
M  V30 7678 H 752.547 3.52803 1.61714 0
M  V30 7679 H 750.648 1.72721 3.30149 0
M  V30 7680 H 750.761 3.60572 3.15476 0
M  V30 7681 H 749.125 1.85178 1.74875 0
M  V30 7682 H 749.908 3.30606 0.924922 0
M  V30 7683 N 752.353 -0.854086 1.3245 0
M  V30 7684 C 753.578 -1.64597 1.26185 0
M  V30 7685 C 754.003 -1.87357 -0.167074 0
M  V30 7686 O 753.361 -1.42675 -1.11864 0
M  V30 7687 C 753.409 -2.98213 2.02734 0
M  V30 7688 O 752.513 -3.88784 1.37554 0
M  V30 7689 H 751.854 -0.50179 0.434859 0
M  V30 7690 H 754.384 -1.06372 1.74775 0
M  V30 7691 H 754.394 -3.4803 2.1293 0
M  V30 7692 H 753.069 -2.80969 3.06642 0
M  V30 7693 H 751.646 -3.4725 1.3591 0
M  V30 7694 N 753.831 -1.1567 -1.07043 0
M  V30 7695 C 755.077 -0.9349 -1.79965 0
M  V30 7696 C 755.41 0.536464 -1.86643 0
M  V30 7697 O 754.685 1.39781 -1.35247 0
M  V30 7698 C 754.968 -1.55371 -3.24857 0
M  V30 7699 C 754.821 -3.09589 -3.26305 0
M  V30 7700 C 756.14 -1.24209 -4.22209 0
M  V30 7701 H 753.259 -0.341061 -0.653335 0
M  V30 7702 H 755.901 -1.42883 -1.25237 0
M  V30 7703 H 754.051 -1.13368 -3.71591 0
M  V30 7704 H 755.723 -3.60521 -2.87789 0
M  V30 7705 H 753.966 -3.43315 -2.65174 0
M  V30 7706 H 754.637 -3.48002 -4.28484 0
M  V30 7707 H 757.113 -1.60548 -3.8388 0
M  V30 7708 H 755.989 -1.70119 -5.21872 0
M  V30 7709 H 756.25 -0.15964 -4.41812 0
M  V30 7710 N 755.309 1.25446 -0.953992 0
M  V30 7711 C 756.555 1.9343 -0.60933 0
M  V30 7712 C 756.888 1.74542 0.851388 0
M  V30 7713 O 756.163 1.09014 1.61078 0
M  V30 7714 C 756.446 3.46844 -0.968041 0
M  V30 7715 C 756.299 3.74961 -2.48444 0
M  V30 7716 C 757.618 4.37334 -0.492641 0
M  V30 7717 H 754.737 0.702502 -0.222844 0
M  V30 7718 H 757.379 1.48076 -1.19053 0
M  V30 7719 H 755.529 3.85604 -0.473465 0
M  V30 7720 H 757.201 3.45841 -3.05273 0
M  V30 7721 H 755.444 3.20589 -2.92241 0
M  V30 7722 H 756.115 4.82246 -2.68594 0
M  V30 7723 H 758.591 4.05873 -0.916878 0
M  V30 7724 H 757.467 5.43439 -0.772331 0
M  V30 7725 H 757.728 4.37908 0.607403 0
M  V30 7726 N 756.787 0.722489 1.40064 0
M  V30 7727 C 758.198 0.336507 1.83642 0
M  V30 7728 C 758.549 -1.13002 1.6039 0
M  V30 7729 O 757.674 -1.87036 1.08842 0
M  V30 7730 C 758.269 0.603985 3.33373 0
M  V30 7731 C 756.828 0.271637 3.75419 0
M  V30 7732 C 755.975 0.872898 2.63203 0
M  V30 7733 H 758.926 0.921108 1.29233 0
M  V30 7734 H 758.947 -0.128471 3.80283 0
M  V30 7735 H 758.459 1.67141 3.50265 0
M  V30 7736 H 756.56 -0.790455 3.64119 0
M  V30 7737 H 756.673 0.745457 4.73265 0
M  V30 7738 H 755.037 0.300431 2.52922 0
M  V30 7739 H 755.82 1.94473 2.82905 0
M  V30 7740 N 758.265 -1.50454 0.469181 0
M  V30 7741 C 759.228 -2.2703 -0.314643 0
M  V30 7742 C 760.228 -1.31734 -0.922111 0
M  V30 7743 O 761.418 -1.55176 -0.791588 0
M  V30 7744 C 758.55 -3.08616 -1.44806 0
M  V30 7745 H 759.743 -2.97769 0.356892 0
M  V30 7746 H 757.296 -1.54698 0.223191 0
M  V30 7747 H 758.031 -2.42369 -2.1547 0
M  V30 7748 H 757.816 -3.78647 -1.01829 0
M  V30 7749 H 759.306 -3.66536 -2.00103 0
M  V30 7750 N 759.743 -0.201713 -1.56304 0
M  V30 7751 C 760.673 0.71155 -2.22394 0
M  V30 7752 C 761.654 1.21625 -1.18917 0
M  V30 7753 O 762.839 1.26388 -1.47444 0
M  V30 7754 C 759.969 1.92837 -2.88845 0
M  V30 7755 C 758.923 1.55831 -3.98623 0
M  V30 7756 C 758.249 2.85228 -4.52271 0
M  V30 7757 C 759.549 0.763249 -5.16693 0
M  V30 7758 H 761.243 0.160573 -2.98969 0
M  V30 7759 H 758.789 0.0757916 -1.438 0
M  V30 7760 H 760.742 2.57253 -3.33764 0
M  V30 7761 H 759.466 2.50398 -2.09686 0
M  V30 7762 H 758.125 0.9377 -3.54405 0
M  V30 7763 H 757.773 3.40893 -3.69866 0
M  V30 7764 H 757.473 2.6121 -5.26349 0
M  V30 7765 H 758.997 3.50622 -4.99897 0
M  V30 7766 H 760.411 1.31066 -5.58117 0
M  V30 7767 H 758.808 0.620935 -5.96879 0
M  V30 7768 H 759.878 -0.234322 -4.84334 0
M  V30 7769 N 761.222 1.57436 0.0718424 0
M  V30 7770 C 762.152 2.06724 1.08571 0
M  V30 7771 C 763.133 0.960731 1.40371 0
M  V30 7772 O 764.318 1.23345 1.49999 0
M  V30 7773 C 761.448 2.51112 2.39916 0
M  V30 7774 C 760.402 3.65639 2.22469 0
M  V30 7775 C 759.728 3.96082 3.59198 0
M  V30 7776 C 761.028 4.95687 1.64596 0
M  V30 7777 H 762.722 2.91679 0.675569 0
M  V30 7778 H 760.268 1.40319 0.32352 0
M  V30 7779 H 762.221 2.84206 3.11135 0
M  V30 7780 H 760.945 1.63186 2.8291 0
M  V30 7781 H 759.604 3.32828 1.53691 0
M  V30 7782 H 759.252 3.05287 3.99761 0
M  V30 7783 H 758.952 4.73199 3.48362 0
M  V30 7784 H 760.476 4.31672 4.31847 0
M  V30 7785 H 761.89 5.27011 2.25681 0
M  V30 7786 H 760.287 5.77126 1.64457 0
M  V30 7787 H 761.357 4.8108 0.60744 0
M  V30 7788 N 762.7 -0.34323 1.53817 0
M  V30 7789 C 764.111 -0.918823 1.62525 0
M  V30 7790 C 764.462 -1.89542 0.506765 0
M  V30 7791 O 763.587 -2.13326 -0.363441 0
M  V30 7792 C 764.182 -1.67326 2.94597 0
M  V30 7793 C 762.741 -2.19786 3.05567 0
M  V30 7794 C 761.888 -1.01708 2.57974 0
M  V30 7795 H 764.839 -0.121358 1.58235 0
M  V30 7796 H 764.86 -2.53615 2.83654 0
M  V30 7797 H 764.372 -0.962223 3.75983 0
M  V30 7798 H 762.473 -2.94065 2.28816 0
M  V30 7799 H 762.586 -2.46135 4.1104 0
M  V30 7800 H 760.95 -1.39058 2.13389 0
M  V30 7801 H 761.733 -0.320671 3.41799 0
M  V30 7802 N 764.178 -1.45556 -0.604258 0
M  V30 7803 C 765.108 -1.57327 -1.72541 0
M  V30 7804 C 766.089 -0.424637 -1.64714 0
M  V30 7805 O 767.274 -0.648196 -1.83063 0
M  V30 7806 C 764.404 -1.54279 -3.11152 0
M  V30 7807 C 763.358 -2.67893 -3.33792 0
M  V30 7808 C 762.684 -2.499 -4.72709 0
M  V30 7809 C 763.984 -4.0988 -3.23722 0
M  V30 7810 H 765.678 -2.51175 -1.62947 0
M  V30 7811 H 763.224 -1.20884 -0.782504 0
M  V30 7812 H 765.177 -1.6111 -3.89386 0
M  V30 7813 H 763.901 -0.569627 -3.21594 0
M  V30 7814 H 762.56 -2.60495 -2.57949 0
M  V30 7815 H 762.208 -1.50715 -4.79889 0
M  V30 7816 H 761.908 -3.26091 -4.88813 0
M  V30 7817 H 763.432 -2.5859 -5.5314 0
M  V30 7818 H 764.846 -4.18503 -3.91826 0
M  V30 7819 H 763.243 -4.86487 -3.51355 0
M  V30 7820 H 764.313 -4.31553 -2.21111 0
M  V30 7821 N 765.656 0.84705 -1.32902 0
M  V30 7822 C 766.586 1.97166 -1.25091 0
M  V30 7823 C 767.567 1.69578 -0.133161 0
M  V30 7824 O 768.752 1.91519 -0.321591 0
M  V30 7825 C 765.882 3.33157 -0.981006 0
M  V30 7826 C 764.836 3.75119 -2.06082 0
M  V30 7827 C 764.162 5.08826 -1.64318 0
M  V30 7828 C 765.462 3.89774 -3.47669 0
M  V30 7829 H 767.156 2.03958 -2.19184 0
M  V30 7830 H 764.702 0.979907 -1.05517 0
M  V30 7831 H 766.655 4.11393 -0.912891 0
M  V30 7832 H 765.379 3.266 -0.00445559 0
M  V30 7833 H 764.038 2.9914 -2.11921 0
M  V30 7834 H 763.686 4.98732 -0.653876 0
M  V30 7835 H 763.386 5.37873 -2.36572 0
M  V30 7836 H 764.91 5.89546 -1.58958 0
M  V30 7837 H 766.324 4.58343 -3.44376 0
M  V30 7838 H 764.721 4.30248 -4.18338 0
M  V30 7839 H 765.791 2.92463 -3.86773 0
M  V30 7840 N 767.134 1.16236 1.06428 0
M  V30 7841 C 768.097 0.870163 2.1204 0
M  V30 7842 C 769.097 -0.134239 1.60239 0
M  V30 7843 O 770.287 0.0964932 1.73933 0
M  V30 7844 C 767.419 0.301033 3.39568 0
M  V30 7845 H 768.612 1.8064 2.39394 0
M  V30 7846 H 766.165 0.971116 1.2247 0
M  V30 7847 H 766.9 -0.642948 3.17863 0
M  V30 7848 H 766.685 1.02475 3.78472 0
M  V30 7849 H 768.175 0.114494 4.17443 0
M  V30 7850 N 768.612 -1.24939 0.960631 0
M  V30 7851 C 769.86 -1.92437 0.617441 0
M  V30 7852 C 770.181 -1.75543 -0.849101 0
M  V30 7853 O 769.451 -1.12269 -1.60538 0
M  V30 7854 H 768.031 -0.712192 0.225371 0
M  V30 7855 H 770.693 -1.5198 1.22017 0
M  V30 7856 H 769.789 -3.00247 0.851933 0
M  V30 7857 N 770.09 -0.729906 -1.39679 0
M  V30 7858 C 771.318 -0.285709 -2.04918 0
M  V30 7859 C 771.733 1.07765 -1.55023 0
M  V30 7860 O 771.09 1.67999 -0.712923 0
M  V30 7861 C 771.141 -0.272793 -3.60469 0
M  V30 7862 O 770.862 -1.58233 -4.08527 0
M  V30 7863 C 772.363 0.188199 -4.429 0
M  V30 7864 H 769.583 -0.125758 -0.65911 0
M  V30 7865 H 772.127 -0.992129 -1.78821 0
M  V30 7866 H 770.282 0.384699 -3.85485 0
M  V30 7867 H 770.696 -1.49245 -5.02818 0
M  V30 7868 H 772.17 0.14608 -5.51807 0
M  V30 7869 H 772.647 1.2326 -4.21549 0
M  V30 7870 H 773.253 -0.439541 -4.23023 0
M  V30 7871 N 771.568 1.50203 -0.477153 0
M  V30 7872 C 772.498 2.31517 0.303646 0
M  V30 7873 C 773.479 1.38696 0.984753 0
M  V30 7874 O 774.664 1.67615 0.980758 0
M  V30 7875 C 771.794 3.18598 1.38249 0
M  V30 7876 C 770.748 4.2002 0.822645 0
M  V30 7877 C 770.074 4.95878 2.00024 0
M  V30 7878 C 771.374 5.22023 -0.170185 0
M  V30 7879 H 773.068 2.97042 -0.375027 0
M  V30 7880 H 770.614 1.42848 -0.181802 0
M  V30 7881 H 772.567 3.74282 1.93625 0
M  V30 7882 H 771.291 2.5097 2.09002 0
M  V30 7883 H 769.95 3.65445 0.290813 0
M  V30 7884 H 769.598 4.24717 2.69489 0
M  V30 7885 H 769.298 5.64487 1.63183 0
M  V30 7886 H 770.822 5.54399 2.55878 0
M  V30 7887 H 772.236 5.72543 0.294606 0
M  V30 7888 H 770.633 5.98386 -0.453181 0
M  V30 7889 H 771.703 4.72396 -1.09408 0
M  V30 7890 N 773.046 0.209999 1.56195 0
M  V30 7891 C 773.976 -0.699746 2.22769 0
M  V30 7892 C 774.957 -1.20993 1.1956 0
M  V30 7893 O 776.142 -1.25605 1.48112 0
M  V30 7894 C 773.272 -1.91302 2.89863 0
M  V30 7895 C 772.226 -1.53715 3.99444 0
M  V30 7896 C 771.552 -2.82826 4.53777 0
M  V30 7897 C 772.852 -0.735836 5.17091 0
M  V30 7898 H 774.546 -0.144716 2.9905 0
M  V30 7899 H 772.092 -0.0681645 1.43839 0
M  V30 7900 H 774.045 -2.5548 3.35124 0
M  V30 7901 H 772.769 -2.49283 2.11011 0
M  V30 7902 H 771.428 -0.918892 3.54897 0
M  V30 7903 H 771.076 -3.38927 3.71669 0
M  V30 7904 H 770.776 -2.58415 5.27727 0
M  V30 7905 H 772.3 -3.47966 5.01749 0
M  V30 7906 H 773.714 -1.28105 5.58804 0
M  V30 7907 H 772.111 -0.589272 5.972 0
M  V30 7908 H 773.181 0.260004 4.84202 0
M  V30 7909 N 774.524 -1.57472 -0.0634922 0
M  V30 7910 C 775.454 -2.07297 -1.07473 0
M  V30 7911 C 776.435 -0.968162 -1.39859 0
M  V30 7912 O 777.62 -1.24139 -1.49343 0
M  V30 7913 C 774.75 -2.52381 -2.38581 0
M  V30 7914 C 773.704 -3.66813 -2.20526 0
M  V30 7915 C 773.03 -3.97982 -3.57092 0
M  V30 7916 C 774.33 -4.96553 -1.61965 0
M  V30 7917 H 776.024 -2.92033 -0.660092 0
M  V30 7918 H 773.57 -1.40488 -0.316074 0
M  V30 7919 H 775.523 -2.85852 -3.09624 0
M  V30 7920 H 774.247 -1.64684 -2.8204 0
M  V30 7921 H 772.906 -3.33639 -1.51924 0
M  V30 7922 H 772.554 -3.07403 -3.98136 0
M  V30 7923 H 772.254 -4.7504 -3.45848 0
M  V30 7924 H 773.778 -4.33956 -4.29552 0
M  V30 7925 H 775.192 -5.28201 -2.22883 0
M  V30 7926 H 773.589 -5.7799 -1.61394 0
M  V30 7927 H 774.659 -4.81396 -0.581918 0
M  V30 7928 N 776.003 0.335068 -1.53997 0
M  V30 7929 C 776.933 1.41727 -1.85568 0
M  V30 7930 C 777.914 1.54505 -0.7115 0
M  V30 7931 O 779.099 1.68573 -0.964191 0
M  V30 7932 C 776.229 2.7866 -2.07282 0
M  V30 7933 C 775.183 2.80682 -3.23112 0
M  V30 7934 C 774.509 4.20581 -3.30175 0
M  V30 7935 C 775.809 2.45458 -4.61029 0
M  V30 7936 H 777.503 1.15555 -2.76202 0
M  V30 7937 H 775.049 0.554445 -1.32898 0
M  V30 7938 H 777.002 3.54423 -2.27952 0
M  V30 7939 H 775.726 3.06286 -1.13387 0
M  V30 7940 H 774.385 2.07373 -3.02311 0
M  V30 7941 H 774.033 4.4533 -2.33859 0
M  V30 7942 H 773.733 4.22843 -4.08016 0
M  V30 7943 H 775.257 4.98174 -3.53066 0
M  V30 7944 H 776.671 3.10934 -4.81656 0
M  V30 7945 H 775.068 2.5899 -5.41336 0
M  V30 7946 H 776.138 1.40628 -4.6406 0
M  V30 7947 N 777.481 1.45874 0.596531 0
M  V30 7948 C 778.729 1.5017 1.35253 0
M  V30 7949 C 779.05 0.149246 1.94428 0
M  V30 7950 O 778.32 -0.82268 1.77789 0
M  V30 7951 H 776.9 0.553052 0.502138 0
M  V30 7952 H 779.562 1.81908 0.699671 0
M  V30 7953 H 778.658 2.24671 2.16632 0
M  V30 7954 N 778.959 -0.83999 1.33349 0
M  V30 7955 C 780.187 -1.62728 1.27778 0
M  V30 7956 C 780.602 -1.88191 -0.151505 0
M  V30 7957 O 779.959 -1.46128 -1.09329 0
M  V30 7958 C 780.01 -2.97813 2.04913 0
M  V30 7959 O 779.731 -2.73469 3.42266 0
M  V30 7960 C 781.232 -3.92245 2.0654 0
M  V30 7961 H 778.452 -0.506374 0.440257 0
M  V30 7962 H 780.996 -1.04637 1.75703 0
M  V30 7963 H 779.151 -3.52509 1.60674 0
M  V30 7964 H 779.565 -3.59483 3.81932 0
M  V30 7965 H 781.039 -4.84249 2.64966 0
M  V30 7966 H 781.516 -4.26332 1.05537 0
M  V30 7967 H 782.122 -3.43487 2.50793 0
M  V30 7968 N 780.437 -1.16799 -1.0581 0
M  V30 7969 C 781.4 -0.881396 -2.11575 0
M  V30 7970 C 782.4 0.12574 -1.60308 0
M  V30 7971 O 783.59 -0.105716 -1.73879 0
M  V30 7972 C 780.722 -0.319037 -3.39404 0
M  V30 7973 H 781.915 -1.81907 -2.38432 0
M  V30 7974 H 779.468 -0.977597 -1.21954 0
M  V30 7975 H 780.203 0.626082 -3.18199 0
M  V30 7976 H 779.988 -1.04481 -3.77923 0
M  V30 7977 H 781.478 -0.13663 -4.17376 0
M  V30 7978 N 781.915 1.24427 -0.967243 0
M  V30 7979 C 783.143 1.96541 -0.646477 0
M  V30 7980 C 783.558 1.71753 0.783996 0
M  V30 7981 O 782.915 1.00102 1.52597 0
M  V30 7982 C 782.966 3.4983 -0.911098 0
M  V30 7983 O 782.687 3.7377 -2.28534 0
M  V30 7984 C 784.188 4.3916 -0.604458 0
M  V30 7985 H 781.408 0.626129 -0.241255 0
M  V30 7986 H 783.952 1.58268 -1.29505 0
M  V30 7987 H 782.107 3.86168 -0.308741 0
M  V30 7988 H 782.521 4.68154 -2.365 0
M  V30 7989 H 783.995 5.4557 -0.840069 0
M  V30 7990 H 784.472 4.36771 0.461273 0
M  V30 7991 H 785.078 4.08409 -1.1867 0
M  V30 7992 N 783.393 0.737304 1.3929 0
M  V30 7993 C 784.356 0.10731 2.28949 0
M  V30 7994 C 785.356 -0.664716 1.46418 0
M  V30 7995 O 786.546 -0.493392 1.67067 0
M  V30 7996 C 783.678 -0.857145 3.29948 0
M  V30 7997 H 784.871 0.89725 2.86163 0
M  V30 7998 H 782.424 0.503279 1.47976 0
M  V30 7999 H 783.159 -1.67336 2.77794 0
M  V30 8000 H 782.944 -0.306167 3.90903 0
M  V30 8001 H 784.434 -1.29444 3.97031 0
M  V30 8002 N 784.871 -1.49948 0.485112 0
M  V30 8003 C 786.282 -1.8667 0.0334041 0
M  V30 8004 C 786.633 -1.3988 -1.37579 0
M  V30 8005 O 785.758 -0.769788 -2.02245 0
M  V30 8006 C 786.353 -3.38757 0.0538426 0
M  V30 8007 C 784.912 -3.74839 -0.342453 0
M  V30 8008 C 784.059 -2.73894 0.433281 0
M  V30 8009 H 787.01 -1.42492 0.698699 0
M  V30 8010 H 787.031 -3.73132 -0.745146 0
M  V30 8011 H 786.543 -3.72782 1.07959 0
M  V30 8012 H 784.644 -3.46419 -1.37203 0
M  V30 8013 H 784.757 -4.79088 -0.0340503 0
M  V30 8014 H 783.121 -2.54441 -0.114849 0
M  V30 8015 H 783.904 -3.10763 1.45881 0
M  V30 8016 O 786.388 -0.359827 -1.5744 0
M  V30 8017 H 787.079 0.192049 -1.92746 0
M  V30 END ATOM
M  V30 BEGIN BOND
M  V30 END BOND
M  V30 END CTAB
M  END
$$$$
