drugbank_target|P10636 Microtubule-associated protein tau (DB00448; DB00637; DB01229; DB01248; DB14914)
 OpenBabel12092120333D

  0  0  0     0  0            999 V3000
M  V30 BEGIN CTAB
M  V30 COUNTS 11016 11143 0 0 0
M  V30 BEGIN ATOM
M  V30 1 H -0.908 1.98254 -0.117106 0
M  V30 2 N 0 1.576 0 0
M  V30 3 C 0.933 2.03868 1.02534 0
M  V30 4 C 1.911 0.928543 1.3348 0
M  V30 5 O 3.095 1.19667 1.45644 0
M  V30 6 C 0.222 2.43627 2.35294 0
M  V30 7 C -0.732 3.65373 2.2001 0
M  V30 8 S 0.101 5.13292 1.52614 0
M  V30 9 C 1.257 5.56322 2.86805 0
M  V30 10 H 1.49 2.90518 0.631377 0
M  V30 11 H -0.977 1.52953 0.210867 0
M  V30 12 H 0.981 2.67203 3.11629 0
M  V30 13 H -0.358 1.57376 2.7183 0
M  V30 14 H -1.165 3.90944 3.18086 0
M  V30 15 H -1.563 3.418 1.51819 0
M  V30 16 H 0.729 5.58782 3.83104 0
M  V30 17 H 1.672 6.56266 2.65933 0
M  V30 18 H 2.08 4.83886 2.90714 0
M  V30 19 N 1.4781 -0.272755 1.55222 0
M  V30 20 C 2.4411 -1.32041 1.87344 0
M  V30 21 C 3.4411 -1.42342 0.74803 0
M  V30 22 O 4.6311 -1.41488 1.0162 0
M  V30 23 C 1.7631 -2.70173 2.07893 0
M  V30 24 H 2.9561 -1.04789 2.80997 0
M  V30 25 H 0.5091 -0.51083 1.47717 0
M  V30 26 H 1.2441 -3.02605 1.16622 0
M  V30 27 H 1.0291 -2.64082 2.89833 0
M  V30 28 H 2.5191 -3.45869 2.34017 0
M  V30 29 N 2.9562 -1.48159 -0.537278 0
M  V30 30 C 3.8662 -1.64807 -1.6696 0
M  V30 31 C 4.8822 -0.530651 -1.65711 0
M  V30 32 O 6.0582 -0.800784 -1.84796 0
M  V30 33 C 3.1232 -1.67708 -3.03438 0
M  V30 34 C 2.1842 -2.91025 -3.156 0
M  V30 35 C 1.4172 -2.93778 -4.45567 0
M  V30 36 O 1.6402 -2.05153 -5.3223 0
M  V30 37 O 0.5742 -3.85868 -4.61941 0
M  V30 38 H 4.4002 -2.6066 -1.55853 0
M  V30 39 H 1.9852 -1.31475 -0.709549 0
M  V30 40 H 3.8672 -1.7218 -3.84619 0
M  V30 41 H 2.5422 -0.750278 -3.14885 0
M  V30 42 H 1.4492 -2.92089 -2.33741 0
M  V30 43 H 2.7822 -3.83065 -3.09066 0
M  V30 44 N 4.4343 0.785586 -1.36625 0
M  V30 45 C 5.8453 1.36101 -1.27803 0
M  V30 46 C 6.1963 1.96035 0.0804875 0
M  V30 47 O 5.3213 1.92834 0.982042 0
M  V30 48 C 5.9163 2.47442 -2.31426 0
M  V30 49 C 4.4753 3.00789 -2.26281 0
M  V30 50 C 3.6223 1.73896 -2.15999 0
M  V30 51 H 6.5733 0.586928 -1.47448 0
M  V30 52 H 6.5943 3.2656 -1.95291 0
M  V30 53 H 6.1063 2.03791 -3.30289 0
M  V30 54 H 4.2073 3.48851 -1.30896 0
M  V30 55 H 4.3203 3.57343 -3.19128 0
M  V30 56 H 2.6843 1.9628 -1.62316 0
M  V30 57 H 3.4673 1.32368 -3.16755 0
M  V30 58 N 5.9124 1.20967 1.01018 0
M  V30 59 C 7.3284 0.965905 1.27053 0
M  V30 60 C 7.5284 -0.350785 1.98423 0
M  V30 61 O 6.5844 -1.07773 2.28344 0
M  V30 62 C 7.8974 2.15294 2.09926 0
M  V30 63 C 9.4454 2.19463 2.23171 0
M  V30 64 C 9.9204 3.3767 3.09424 0
M  V30 65 N 11.4114 3.37724 3.17012 0
M  V30 66 C 12.1464 4.25837 3.83993 0
M  V30 67 N 11.6424 5.24138 4.53047 0
M  V30 68 N 13.4354 4.1366 3.80581 0
M  V30 69 H 5.5864 2.0565 0.531194 0
M  V30 70 H 7.8494 0.90024 0.297106 0
M  V30 71 H 7.5554 3.10684 1.64828 0
M  V30 72 H 7.4294 2.13923 3.10672 0
M  V30 73 H 9.8164 1.24632 2.6749 0
M  V30 74 H 9.8974 2.2488 1.21912 0
M  V30 75 H 9.5414 4.32791 2.65808 0
M  V30 76 H 9.4714 3.29491 4.10784 0
M  V30 77 H 11.9624 2.6658 2.6785 0
M  V30 78 H 12.2754 5.87684 5.01844 0
M  V30 79 H 10.6204 5.28068 4.5185 0
M  V30 80 H 13.8114 3.36127 3.25785 0
M  V30 81 H 13.9844 4.82538 4.32505 0
M  V30 82 N 7.3905 -1.2043 1.01659 0
M  V30 83 C 8.3225 -2.22626 0.544988 0
M  V30 84 C 9.3355 -1.58479 -0.372609 0
M  V30 85 O 10.5245 -1.77679 -0.170958 0
M  V30 86 C 7.6245 -3.38141 -0.22663 0
M  V30 87 C 6.7975 -4.31877 0.692876 0
M  V30 88 C 5.8565 -5.26191 -0.0311616 0
M  V30 89 O 4.8825 -5.6612 0.591343 0
M  V30 90 N 6.0845 -5.65618 -1.30601 0
M  V30 91 H 8.8495 -2.63716 1.42388 0
M  V30 92 H 6.4105 -1.34971 0.894116 0
M  V30 93 H 8.4025 -3.98239 -0.72024 0
M  V30 94 H 6.9725 -2.95943 -1.00681 0
M  V30 95 H 6.1925 -3.69746 1.36679 0
M  V30 96 H 7.4805 -4.91426 1.31824 0
M  V30 97 H 6.8785 -5.3519 -1.83269 0
M  V30 98 H 5.4355 -6.28025 -1.74435 0
M  V30 99 N 8.8686 -0.792821 -1.36206 0
M  V30 100 C 9.7786 -0.194808 -2.3379 0
M  V30 101 C 10.7946 0.654869 -1.61206 0
M  V30 102 O 11.9706 0.569856 -1.9317 0
M  V30 103 C 9.0356 0.657721 -3.40404 0
M  V30 104 C 8.0966 -0.210849 -4.28782 0
M  V30 105 C 7.3296 0.601086 -5.30304 0
M  V30 106 O 7.5526 1.83682 -5.40016 0
M  V30 107 O 6.4866 -0.000808277 -6.019 0
M  V30 108 H 10.3126 -1.00172 -2.86704 0
M  V30 109 H 7.8976 -0.554341 -1.38735 0
M  V30 110 H 9.7796 1.14375 -4.05581 0
M  V30 111 H 8.4546 1.44247 -2.89784 0
M  V30 112 H 7.3616 -0.743714 -3.66633 0
M  V30 113 H 8.6946 -0.959195 -4.82763 0
M  V30 114 N 10.3467 1.47872 -0.545128 0
M  V30 115 C 11.5937 2.02493 -0.0165858 0
M  V30 116 C 11.9217 1.42073 1.32836 0
M  V30 117 O 11.1767 0.561459 1.87473 0
M  V30 118 C 11.4757 3.57131 0.13867 0
M  V30 119 C 11.1417 4.36411 -1.13384 0
M  V30 120 C 9.8037 4.57792 -1.48256 0
M  V30 121 C 12.1557 4.82223 -1.97764 0
M  V30 122 C 9.4837 5.22233 -2.67376 0
M  V30 123 C 11.8357 5.47977 -3.16076 0
M  V30 124 C 10.4997 5.67593 -3.51275 0
M  V30 125 H 9.7697 0.740975 -0.00606918 0
M  V30 126 H 12.4167 1.77683 -0.714207 0
M  V30 127 H 10.7217 3.80865 0.919172 0
M  V30 128 H 12.4187 3.97031 0.562782 0
M  V30 129 H 9.0087 4.2004 -0.852297 0
M  V30 130 H 13.1927 4.65493 -1.72132 0
M  V30 131 H 8.4487 5.35616 -2.94831 0
M  V30 132 H 12.6227 5.8244 -3.81755 0
M  V30 133 H 10.2497 6.17298 -4.43675 0
M  V30 134 N 11.8248 0.280983 1.55075 0
M  V30 135 C 12.7348 -0.61388 2.26426 0
M  V30 136 C 13.7508 -1.16521 1.29224 0
M  V30 137 O 14.9268 -1.19426 1.62171 0
M  V30 138 C 11.9918 -1.7788 2.9759 0
M  V30 139 C 11.0528 -1.26355 4.10284 0
M  V30 140 C 10.2858 -2.37295 4.78045 0
M  V30 141 O 10.5088 -3.56777 4.45047 0
M  V30 142 O 9.4428 -2.05119 5.65871 0
M  V30 143 H 13.2688 -0.0356932 3.03679 0
M  V30 144 H 10.8538 0.0481686 1.49322 0
M  V30 145 H 12.7358 -2.45791 3.42293 0
M  V30 146 H 11.4108 -2.34397 2.23249 0
M  V30 147 H 10.3178 -0.550735 3.70024 0
M  V30 148 H 11.6508 -0.744065 4.86543 0
M  V30 149 N 13.3029 -1.57598 0.00835791 0
M  V30 150 C 14.5489 -1.91211 -0.675732 0
M  V30 151 C 14.8819 -0.883139 -1.72958 0
M  V30 152 O 14.1569 0.097016 -1.94258 0
M  V30 153 C 14.4399 -3.35379 -1.31123 0
M  V30 154 C 14.2929 -4.48999 -0.268356 0
M  V30 155 C 15.6119 -3.7912 -2.23508 0
M  V30 156 H 12.7309 -0.695374 -0.244179 0
M  V30 157 H 15.3729 -1.89901 0.0613655 0
M  V30 158 H 13.5229 -3.36626 -1.93946 0
M  V30 159 H 15.1949 -4.59887 0.360844 0
M  V30 160 H 13.4379 -4.31873 0.408482 0
M  V30 161 H 14.1089 -5.46851 -0.752218 0
M  V30 162 H 16.5849 -3.79477 -1.70693 0
M  V30 163 H 15.4609 -4.80729 -2.64936 0
M  V30 164 H 15.7219 -3.13455 -3.11766 0
M  V30 165 N 14.781 0.264519 -1.55364 0
M  V30 166 C 15.714 1.35297 -1.83766 0
M  V30 167 C 16.692 1.47171 -0.691336 0
M  V30 168 O 17.876 1.63663 -0.935238 0
M  V30 169 C 15.003 2.72847 -2.00679 0
M  V30 170 C 14.049 2.78214 -3.23263 0
M  V30 171 S 14.882 2.36601 -4.80396 0
M  V30 172 C 16.038 3.7611 -5.00292 0
M  V30 173 H 16.271 1.11003 -2.758 0
M  V30 174 H 13.804 0.464596 -1.47244 0
M  V30 175 H 15.762 3.52057 -2.11108 0
M  V30 176 H 14.423 2.94388 -1.09518 0
M  V30 177 H 13.616 3.7919 -3.3201 0
M  V30 178 H 13.218 2.07034 -3.11469 0
M  V30 179 H 15.51 4.71457 -4.86554 0
M  V30 180 H 16.453 3.7231 -6.02321 0
M  V30 181 H 16.861 3.67806 -4.28228 0
M  V30 182 N 16.2591 1.48442 0.529413 0
M  V30 183 C 17.1691 1.6569 1.66084 0
M  V30 184 C 18.1851 0.539432 1.65427 0
M  V30 185 O 19.3611 0.810572 1.84368 0
M  V30 186 C 16.4261 1.69315 3.02545 0
M  V30 187 C 15.4871 2.92694 3.14052 0
M  V30 188 C 14.7201 2.96137 4.44003 0
M  V30 189 O 14.9431 2.07973 5.31134 0
M  V30 190 O 13.8771 3.88312 4.59888 0
M  V30 191 H 17.7031 2.61483 1.54469 0
M  V30 192 H 15.2881 1.3185 0.702567 0
M  V30 193 H 17.1701 1.74217 3.83701 0
M  V30 194 H 15.8451 0.766966 3.14483 0
M  V30 195 H 14.7521 2.93324 2.32189 0
M  V30 196 H 16.0851 3.84699 3.0703 0
M  V30 197 N 17.7372 -0.778329 1.37039 0
M  V30 198 C 19.0142 -1.52551 1.22424 0
M  V30 199 C 19.3942 -2.10288 -0.184964 0
M  V30 200 O 18.7422 -1.94953 -1.19187 0
M  V30 201 C 18.9522 -2.61164 2.31504 0
M  V30 202 C 20.3002 -3.28746 2.68721 0
M  V30 203 O 21.3242 -2.71455 2.30631 0
M  V30 204 O 20.1832 -4.3231 3.3432 0
M  V30 205 H 17.2772 -0.675343 0.477326 0
M  V30 206 H 19.8232 -0.815859 1.48801 0
M  V30 207 H 18.5952 -2.16574 3.25901 0
M  V30 208 H 18.2182 -3.39737 2.06554 0
M  V30 209 N 19.2153 -1.21501 -1.00376 0
M  V30 210 C 20.1653 -0.942843 -2.07592 0
M  V30 211 C 21.1493 0.102384 -1.60574 0
M  V30 212 O 22.3413 -0.10671 -1.76678 0
M  V30 213 C 19.4703 -0.510729 -3.3948 0
M  V30 214 C 18.5563 -1.59009 -3.93163 0
M  V30 215 N 18.9473 -2.81544 -4.20198 0
M  V30 216 C 17.2453 -1.45925 -4.21452 0
M  V30 217 C 17.9463 -3.51261 -4.63671 0
M  V30 218 N 16.9223 -2.78703 -4.66718 0
M  V30 219 H 20.7243 -1.87378 -2.26421 0
M  V30 220 H 18.2383 -1.11093 -1.18458 0
M  V30 221 H 20.2353 -0.297101 -4.1584 0
M  V30 222 H 18.8953 0.413436 -3.22057 0
M  V30 223 H 19.9063 -3.18075 -4.08716 0
M  V30 224 H 16.5833 -0.600467 -4.13159 0
M  V30 225 H 17.9733 -4.56183 -4.93302 0
M  V30 226 N 20.6934 1.19889 -1.02296 0
M  V30 227 C 21.6564 2.21116 -0.603351 0
M  V30 228 C 22.6564 1.5738 0.329884 0
M  V30 229 O 23.8464 1.73802 0.117702 0
M  V30 230 C 20.9784 3.40696 0.117992 0
M  V30 231 H 22.1714 2.59754 -1.49893 0
M  V30 232 H 19.7244 1.33463 -0.813468 0
M  V30 233 H 20.4594 3.07569 1.0282 0
M  V30 234 H 20.2444 3.88188 -0.552511 0
M  V30 235 H 21.7344 4.15692 0.398696 0
M  V30 236 N 22.1715 0.800033 1.35784 0
M  V30 237 C 23.4195 0.376597 1.9856 0
M  V30 238 C 23.7405 -1.05812 1.63795 0
M  V30 239 O 23.0105 -1.73103 0.917171 0
M  V30 240 H 21.5905 0.136261 0.734467 0
M  V30 241 H 24.2525 1.02442 1.65806 0
M  V30 242 H 23.3485 0.477002 3.08433 0
M  V30 243 N 23.6496 -1.47581 0.552962 0
M  V30 244 C 24.8776 -2.06875 0.0320556 0
M  V30 245 C 25.2926 -1.40625 -1.25976 0
M  V30 246 O 24.6496 -0.501349 -1.75479 0
M  V30 247 C 24.7006 -3.61092 -0.17167 0
M  V30 248 O 24.4216 -4.24858 1.06899 0
M  V30 249 C 25.9226 -4.37242 -0.730344 0
M  V30 250 H 23.1426 -0.669561 0.043915 0
M  V30 251 H 25.6866 -1.89646 0.765163 0
M  V30 252 H 23.8416 -3.7785 -0.854894 0
M  V30 253 H 24.2556 -5.17334 0.864059 0
M  V30 254 H 25.7296 -5.45842 -0.822203 0
M  V30 255 H 26.2066 -4.03235 -1.74064 0
M  V30 256 H 26.8126 -4.25219 -0.0829543 0
M  V30 257 N 25.1277 -0.289203 -1.54924 0
M  V30 258 C 26.3577 0.325989 -2.04012 0
M  V30 259 C 26.7657 1.48961 -1.1665 0
M  V30 260 O 26.1087 1.82794 -0.1822 0
M  V30 261 C 26.1707 0.856112 -3.49158 0
M  V30 262 C 25.8347 -0.180697 -4.56643 0
M  V30 263 C 26.8317 -1.0051 -5.10092 0
M  V30 264 C 24.5167 -0.318998 -5.01286 0
M  V30 265 C 26.5107 -1.95385 -6.06715 0
M  V30 266 C 24.1977 -1.27121 -5.97732 0
M  V30 267 C 25.1957 -2.08713 -6.50329 0
M  V30 268 O 24.8837 -3.02322 -7.44887 0
M  V30 269 H 24.6157 0.0765276 -0.671654 0
M  V30 270 H 27.1697 -0.423254 -2.00992 0
M  V30 271 H 25.3997 1.65567 -3.49463 0
M  V30 272 H 27.0887 1.38591 -3.81507 0
M  V30 273 H 27.8547 -0.90906 -4.76404 0
M  V30 274 H 23.7337 0.306108 -4.59983 0
M  V30 275 H 27.2777 -2.59111 -6.47694 0
M  V30 276 H 23.1747 -1.36801 -6.30837 0
M  V30 277 H 23.9427 -2.97165 -7.6265 0
M  V30 278 N 26.6058 1.57591 -0.0167156 0
M  V30 279 C 27.8538 1.90906 0.663285 0
M  V30 280 C 28.1748 0.892509 1.73376 0
M  V30 281 O 27.4448 -0.0677623 1.95783 0
M  V30 282 H 26.0248 0.704637 0.247983 0
M  V30 283 H 28.6868 1.94803 -0.0615909 0
M  V30 284 H 27.7828 2.9116 1.12393 0
M  V30 285 N 28.0839 -0.256276 1.55502 0
M  V30 286 C 29.0139 -1.32102 1.92539 0
M  V30 287 C 29.9949 -1.50684 0.789194 0
M  V30 288 O 31.1799 -1.63449 1.04872 0
M  V30 289 C 28.3099 -2.67752 2.21192 0
M  V30 290 C 27.2639 -2.63878 3.36975 0
M  V30 291 C 26.5899 -4.03236 3.51147 0
M  V30 292 C 27.8899 -2.21682 4.72921 0
M  V30 293 H 29.5839 -1.01351 2.81724 0
M  V30 294 H 27.1299 -0.486105 1.35547 0
M  V30 295 H 29.0829 -3.42365 2.45691 0
M  V30 296 H 27.8069 -3.0012 1.28824 0
M  V30 297 H 26.4659 -1.91722 3.12471 0
M  V30 298 H 26.1139 -4.32854 2.56216 0
M  V30 299 H 25.8139 -4.01535 4.29003 0
M  V30 300 H 27.3379 -4.79563 3.77957 0
M  V30 301 H 28.7519 -2.86023 4.96854 0
M  V30 302 H 27.1489 -2.3111 5.53812 0
M  V30 303 H 28.2189 -1.16833 4.70615 0
M  V30 304 N 29.562 -1.4872 -0.521534 0
M  V30 305 C 30.81 -1.56857 -1.27437 0
M  V30 306 C 31.131 -0.247982 -1.93417 0
M  V30 307 O 30.401 0.731151 -1.81744 0
M  V30 308 H 28.981 -0.577885 -0.473347 0
M  V30 309 H 31.643 -1.85233 -0.606205 0
M  V30 310 H 30.739 -2.35402 -2.0492 0
M  V30 311 N 31.0401 0.771051 -1.3745 0
M  V30 312 C 32.3171 1.519 -1.23231 0
M  V30 313 C 32.6971 2.10383 0.173809 0
M  V30 314 O 32.0451 1.95583 1.18151 0
M  V30 315 C 32.2551 2.59933 -2.32886 0
M  V30 316 C 33.6031 3.27316 -2.70461 0
M  V30 317 O 34.6271 2.70228 -2.32068 0
M  V30 318 O 33.4861 4.30531 -3.36608 0
M  V30 319 H 30.5801 0.672803 -0.480901 0
M  V30 320 H 33.1261 0.807957 -1.49232 0
M  V30 321 H 31.8981 2.14842 -3.27045 0
M  V30 322 H 31.5211 3.38637 -2.08353 0
M  V30 323 N 32.5182 1.22032 0.997298 0
M  V30 324 C 33.9342 0.979326 1.26021 0
M  V30 325 C 34.1342 -0.32972 1.98784 0
M  V30 326 O 33.1902 -1.05345 2.29475 0
M  V30 327 C 34.5032 2.17509 2.07631 0
M  V30 328 C 36.0512 2.21817 2.2083 0
M  V30 329 C 36.5262 3.40933 3.05825 0
M  V30 330 N 38.0172 3.41067 3.13412 0
M  V30 331 C 38.7522 4.29885 3.79455 0
M  V30 332 N 38.2482 5.28914 4.47462 0
M  V30 333 N 40.0412 4.17673 3.76173 0
M  V30 334 H 32.1922 2.06202 0.509352 0
M  V30 335 H 34.4552 0.90334 0.287541 0
M  V30 336 H 34.1612 3.12415 1.61524 0
M  V30 337 H 34.0352 2.17206 3.08385 0
M  V30 338 H 36.4222 1.27462 2.66153 0
M  V30 339 H 36.5032 2.2616 1.1952 0
M  V30 340 H 36.1472 4.35586 2.61203 0
M  V30 341 H 36.0772 3.33829 4.07266 0
M  V30 342 H 38.5682 2.69406 2.65007 0
M  V30 343 H 38.8812 5.92973 4.95583 0
M  V30 344 H 37.2262 5.32831 4.46224 0
M  V30 345 H 40.4172 3.39564 3.22202 0
M  V30 346 H 40.5902 4.87098 4.27363 0
M  V30 347 N 33.9963 -1.19345 1.0293 0
M  V30 348 C 34.9433 -2.2258 0.610464 0
M  V30 349 C 35.9133 -1.6179 -0.375946 0
M  V30 350 O 37.0983 -1.88844 -0.272511 0
M  V30 351 C 34.2383 -3.45085 -0.0321473 0
M  V30 352 C 33.3513 -4.20258 1.00035 0
M  V30 353 C 32.4863 -5.3019 0.32746 0
M  V30 354 C 31.5253 -5.97121 1.34584 0
M  V30 355 N 30.6623 -6.98615 0.698726 0
M  V30 356 H 35.5023 -2.57764 1.49538 0
M  V30 357 H 33.0393 -1.26644 0.748311 0
M  V30 358 H 34.9973 -4.15061 -0.421966 0
M  V30 359 H 33.6273 -3.10555 -0.88064 0
M  V30 360 H 32.6793 -3.49223 1.50823 0
M  V30 361 H 33.9913 -4.66175 1.77433 0
M  V30 362 H 33.1453 -6.06587 -0.11718 0
M  V30 363 H 31.8843 -4.85345 -0.478713 0
M  V30 364 H 30.8893 -5.19474 1.80074 0
M  V30 365 H 32.1143 -6.4405 2.15352 0
M  V30 366 H 30.0603 -6.55942 -0.0873471 0
M  V30 367 H 29.9773 -7.42724 1.41058 0
M  V30 368 H 31.2453 -7.79004 0.278102 0
M  V30 369 N 35.4744 -0.807222 -1.35358 0
M  V30 370 C 36.7514 -0.311126 -1.9311 0
M  V30 371 C 37.1314 1.19937 -1.73719 0
M  V30 372 O 36.4794 1.99918 -1.10657 0
M  V30 373 C 36.6894 -0.723226 -3.41424 0
M  V30 374 C 38.0374 -0.713078 -4.18569 0
M  V30 375 O 39.0614 -0.664811 -3.49941 0
M  V30 376 O 37.9204 -0.772022 -5.41019 0
M  V30 377 H 35.0144 -0.081526 -0.822972 0
M  V30 378 H 37.5604 -0.890962 -1.4443 0
M  V30 379 H 36.3324 -1.76426 -3.4927 0
M  V30 380 H 35.9554 -0.118232 -3.97424 0
M  V30 381 N 36.9525 1.47285 -0.560781 0
M  V30 382 C 37.8845 2.28118 0.222438 0
M  V30 383 C 38.8975 1.37219 0.876056 0
M  V30 384 O 40.0865 1.62011 0.749307 0
M  V30 385 C 37.1865 3.1159 1.33285 0
M  V30 386 C 36.3595 4.30473 0.77534 0
M  V30 387 C 35.4185 4.95513 1.77069 0
M  V30 388 O 34.4445 5.53792 1.31539 0
M  V30 389 N 35.6465 4.90531 3.10418 0
M  V30 390 H 38.4115 2.95976 -0.470958 0
M  V30 391 H 35.9725 1.56955 -0.39709 0
M  V30 392 H 37.9645 3.51967 1.99752 0
M  V30 393 H 36.5345 2.45951 1.92943 0
M  V30 394 H 35.7545 3.94144 -0.0662113 0
M  V30 395 H 37.0425 5.07362 0.382272 0
M  V30 396 H 36.4405 4.44389 3.5005 0
M  V30 397 H 34.9975 5.34917 3.72434 0
M  V30 398 N 38.4306 0.297415 1.54768 0
M  V30 399 C 39.6786 -0.312295 1.99673 0
M  V30 400 C 39.9996 -1.54686 1.18732 0
M  V30 401 O 39.2696 -1.93854 0.282382 0
M  V30 402 H 37.8496 -0.118381 0.73756 0
M  V30 403 H 40.5116 0.407915 1.90583 0
M  V30 404 H 39.6076 -0.586813 3.06534 0
M  V30 405 N 39.9087 -1.5758 0.0250728 0
M  V30 406 C 41.1567 -1.91255 -0.653151 0
M  V30 407 C 41.4777 -0.901691 -1.729 0
M  V30 408 O 40.7477 0.0573785 -1.95816 0
M  V30 409 H 39.3277 -0.705942 -0.244243 0
M  V30 410 H 41.9897 -1.94767 0.0719209 0
M  V30 411 H 41.0857 -2.91752 -1.10847 0
M  V30 412 N 41.3868 0.248026 -1.55636 0
M  V30 413 C 42.6168 0.992367 -1.81206 0
M  V30 414 C 43.0248 1.7949 -0.598324 0
M  V30 415 O 42.3678 1.78292 0.442434 0
M  V30 416 C 42.4298 1.97926 -3.00109 0
M  V30 417 C 42.0938 1.36377 -4.36177 0
M  V30 418 C 43.0908 0.76682 -5.14214 0
M  V30 419 C 40.7758 1.38347 -4.82872 0
M  V30 420 C 42.7698 0.197778 -6.37093 0
M  V30 421 C 40.4568 0.810574 -6.057 0
M  V30 422 C 41.4548 0.218754 -6.8265 0
M  V30 423 O 41.1428 -0.345298 -8.03158 0
M  V30 424 H 40.8748 0.297704 -0.606917 0
M  V30 425 H 43.4288 0.276517 -2.0353 0
M  V30 426 H 41.6588 2.73339 -2.73538 0
M  V30 427 H 43.3478 2.58694 -3.12781 0
M  V30 428 H 44.1138 0.744114 -4.79258 0
M  V30 429 H 39.9928 1.8335 -4.2297 0
M  V30 430 H 43.5368 -0.264788 -6.97097 0
M  V30 431 H 39.4338 0.830604 -6.40134 0
M  V30 432 H 40.2018 -0.237055 -8.18157 0
M  V30 433 N 42.8649 1.48995 0.513639 0
M  V30 434 C 44.0929 1.61531 1.29288 0
M  V30 435 C 44.5079 0.281801 1.86685 0
M  V30 436 O 43.8649 -0.731111 1.67215 0
M  V30 437 C 43.9159 2.67449 2.43215 0
M  V30 438 O 43.6369 3.95626 1.88179 0
M  V30 439 C 45.1379 2.90575 3.34785 0
M  V30 440 H 42.3579 0.544165 0.392588 0
M  V30 441 H 44.9019 1.9494 0.617956 0
M  V30 442 H 43.0569 2.36853 3.0656 0
M  V30 443 H 43.4709 4.53868 2.62876 0
M  V30 444 H 44.9449 3.68449 4.11035 0
M  V30 445 H 45.4219 2.00011 3.91015 0
M  V30 446 H 46.0279 3.22538 2.77218 0
M  V30 447 N 44.343 -0.763751 1.37857 0
M  V30 448 C 45.276 -1.88486 1.28639 0
M  V30 449 C 46.254 -1.61757 0.165363 0
M  V30 450 O 47.438 -1.85391 0.340948 0
M  V30 451 C 44.565 -3.23884 0.990811 0
M  V30 452 C 43.611 -3.69514 2.12983 0
M  V30 453 S 44.444 -3.82244 3.75033 0
M  V30 454 C 45.6 -5.20477 3.47641 0
M  V30 455 H 45.833 -1.96017 2.23527 0
M  V30 456 H 43.366 -0.925684 1.23574 0
M  V30 457 H 45.324 -4.02081 0.827101 0
M  V30 458 H 43.985 -3.14044 0.0592832 0
M  V30 459 H 43.178 -4.67696 1.87821 0
M  V30 460 H 42.78 -2.98441 2.25408 0
M  V30 461 H 45.072 -6.05905 3.03125 0
M  V30 462 H 46.015 -5.50655 4.4518 0
M  V30 463 H 46.423 -4.88793 2.82385 0
M  V30 464 N 45.8211 -1.22559 -0.990812 0
M  V30 465 C 46.7711 -0.964807 -2.0658 0
M  V30 466 C 47.7551 0.0853472 -1.60673 0
M  V30 467 O 48.9471 -0.125443 -1.76555 0
M  V30 468 C 46.0761 -0.546707 -3.38919 0
M  V30 469 C 45.1621 -1.6317 -3.91454 0
M  V30 470 N 45.5531 -2.85985 -4.17189 0
M  V30 471 C 43.8511 -1.50387 -4.19881 0
M  V30 472 C 44.5521 -3.56159 -4.59919 0
M  V30 473 N 43.5281 -2.83637 -4.63736 0
M  V30 474 H 47.3301 -1.89769 -2.24421 0
M  V30 475 H 44.8441 -1.12343 -1.17273 0
M  V30 476 H 46.8411 -0.34119 -4.15502 0
M  V30 477 H 45.5011 0.379254 -3.22478 0
M  V30 478 H 46.5121 -3.22392 -4.05319 0
M  V30 479 H 43.1891 -0.644254 -4.12499 0
M  V30 480 H 44.5791 -4.6139 -4.88435 0
M  V30 481 N 47.2992 1.18797 -1.03562 0
M  V30 482 C 48.2312 2.21731 -0.580337 0
M  V30 483 C 49.2442 1.59051 0.347349 0
M  V30 484 O 50.4332 1.77929 0.142669 0
M  V30 485 C 47.5332 3.38459 0.172805 0
M  V30 486 C 46.7062 4.3072 -0.761496 0
M  V30 487 C 45.7652 5.26174 -0.0525547 0
M  V30 488 O 44.7912 5.65108 -0.681333 0
M  V30 489 N 45.9932 5.67624 1.21586 0
M  V30 490 H 48.7582 2.61417 -1.46565 0
M  V30 491 H 46.3192 1.33531 -0.915476 0
M  V30 492 H 48.3112 3.99335 0.656793 0
M  V30 493 H 46.8812 2.97507 0.959602 0
M  V30 494 H 46.1012 3.67525 -1.42544 0
M  V30 495 H 47.3892 4.89267 -1.39626 0
M  V30 496 H 46.7872 5.38038 1.74732 0
M  V30 497 H 45.3442 6.30721 1.64421 0
M  V30 498 N 48.7773 0.814389 1.34928 0
M  V30 499 C 50.0543 0.321363 1.92942 0
M  V30 500 C 50.4343 -1.19014 1.74353 0
M  V30 501 O 49.7823 -1.99328 1.11716 0
M  V30 502 C 49.9923 0.741323 3.41036 0
M  V30 503 C 51.3403 0.735266 4.18185 0
M  V30 504 O 52.3643 0.68336 3.49584 0
M  V30 505 O 51.2233 0.800703 5.40602 0
M  V30 506 H 48.3173 0.0858893 0.822528 0
M  V30 507 H 50.8633 0.898609 1.43955 0
M  V30 508 H 49.6353 1.78276 3.4833 0
M  V30 509 H 49.2583 0.139307 3.97356 0
M  V30 510 N 50.2554 -1.46986 0.568584 0
M  V30 511 C 51.1874 -2.28233 -0.210337 0
M  V30 512 C 52.2004 -1.37682 -0.868767 0
M  V30 513 O 53.3894 -1.62406 -0.740705 0
M  V30 514 C 50.4894 -3.12293 -1.3163 0
M  V30 515 C 49.6624 -4.30878 -0.7525 0
M  V30 516 C 48.7214 -4.96445 -1.74439 0
M  V30 517 O 47.7474 -5.54482 -1.286 0
M  V30 518 N 48.9494 -4.92171 -3.07812 0
M  V30 519 H 51.7144 -2.95723 0.486648 0
M  V30 520 H 49.2754 -1.56742 0.405409 0
M  V30 521 H 51.2674 -3.53022 -1.97883 0
M  V30 522 H 49.8374 -2.46971 -1.91636 0
M  V30 523 H 49.0574 -3.94104 0.0871128 0
M  V30 524 H 50.3454 -5.07558 -0.35536 0
M  V30 525 H 49.7434 -4.46239 -3.47688 0
M  V30 526 H 48.3004 -5.36884 -3.69592 0
M  V30 527 N 51.7335 -0.305618 -1.54608 0
M  V30 528 C 52.6435 0.57778 -2.27374 0
M  V30 529 C 53.6595 1.14451 -1.31061 0
M  V30 530 O 54.8355 1.16831 -1.6405 0
M  V30 531 C 51.9005 1.73123 -3.00382 0
M  V30 532 C 50.9615 1.19812 -4.12242 0
M  V30 533 C 50.1945 2.2966 -4.81759 0
M  V30 534 O 50.4175 3.49651 -4.50666 0
M  V30 535 O 49.3515 1.96091 -5.69062 0
M  V30 536 H 53.1775 -0.012624 -3.03697 0
M  V30 537 H 50.7625 -0.0719184 -1.49227 0
M  V30 538 H 52.6445 2.40315 -3.4616 0
M  V30 539 H 51.3195 2.30815 -2.26949 0
M  V30 540 H 50.2265 0.491798 -3.70853 0
M  V30 541 H 51.5595 0.666566 -4.87666 0
M  V30 542 N 53.2116 1.57565 -0.0334293 0
M  V30 543 C 54.4596 1.91598 0.642999 0
M  V30 544 C 54.7806 0.910847 1.7242 0
M  V30 545 O 54.0506 -0.0469931 1.95844 0
M  V30 546 H 52.6306 0.707228 0.240496 0
M  V30 547 H 55.2926 1.94726 -0.0822488 0
M  V30 548 H 54.3886 2.92336 1.09298 0
M  V30 549 N 54.6897 -0.239769 1.55765 0
M  V30 550 C 55.9667 -0.990056 1.68693 0
M  V30 551 C 56.3467 -2.03107 0.5754 0
M  V30 552 O 55.6947 -2.24604 -0.42017 0
M  V30 553 C 55.9047 -1.61696 3.09282 0
M  V30 554 C 57.2527 -2.11613 3.6811 0
M  V30 555 O 58.2767 -1.71624 3.12127 0
M  V30 556 O 57.1357 -2.85057 4.66267 0
M  V30 557 H 54.2297 -0.461299 0.686391 0
M  V30 558 H 56.7757 -0.232991 1.68093 0
M  V30 559 H 55.5477 -0.864357 3.81634 0
M  V30 560 H 55.1707 -2.44005 3.13923 0
M  V30 561 N 56.1678 -1.49265 -0.50573 0
M  V30 562 C 57.3958 -1.62215 -1.28429 0
M  V30 563 C 57.8108 -0.291697 -1.86533 0
M  V30 564 O 57.1678 0.722233 -1.67601 0
M  V30 565 C 57.2188 -2.68735 -2.41793 0
M  V30 566 O 56.9398 -3.96619 -1.86078 0
M  V30 567 C 58.4408 -2.92346 -3.3324 0
M  V30 568 H 55.6608 -0.546239 -0.389697 0
M  V30 569 H 58.2048 -1.95265 -0.607609 0
M  V30 570 H 56.3598 -2.38476 -3.053 0
M  V30 571 H 56.7738 -4.55256 -2.60465 0
M  V30 572 H 58.2478 -3.70623 -4.09075 0
M  V30 573 H 58.7248 -2.02081 -3.89948 0
M  V30 574 H 59.3308 -3.24003 -2.75503 0
M  V30 575 N 57.6459 0.756429 -1.3826 0
M  V30 576 C 58.9229 1.50584 -1.24835 0
M  V30 577 C 59.3029 2.10556 0.151485 0
M  V30 578 O 58.6509 1.96825 1.1607 0
M  V30 579 C 58.8609 2.57448 -2.3563 0
M  V30 580 C 60.2089 3.24429 -2.73917 0
M  V30 581 O 61.2329 2.67751 -2.34921 0
M  V30 582 O 60.0919 4.26937 -3.41156 0
M  V30 583 H 57.1859 0.667664 -0.48801 0
M  V30 584 H 59.7319 0.792083 -1.5008 0
M  V30 585 H 58.5039 2.11362 -3.29305 0
M  V30 586 H 58.1269 3.36408 -2.11933 0
M  V30 587 N 59.124 1.23083 0.984299 0
M  V30 588 C 60.087 1.00979 2.05757 0
M  V30 589 C 61.087 -0.0269573 1.60777 0
M  V30 590 O 62.277 0.212403 1.729 0
M  V30 591 C 59.409 0.527072 3.36801 0
M  V30 592 H 60.602 1.9622 2.26799 0
M  V30 593 H 58.155 1.05072 1.15714 0
M  V30 594 H 58.89 -0.429294 3.21446 0
M  V30 595 H 58.675 1.27515 3.70786 0
M  V30 596 H 60.165 0.392942 4.15747 0
M  V30 597 N 60.6021 -1.18246 1.0419 0
M  V30 598 C 61.8501 -1.87886 0.744543 0
M  V30 599 C 62.1711 -1.8082 -0.730006 0
M  V30 600 O 61.4411 -1.22736 -1.52685 0
M  V30 601 H 60.0211 -0.695556 0.272417 0
M  V30 602 H 62.6831 -1.43494 1.31892 0
M  V30 603 H 61.7791 -2.9389 1.05049 0
M  V30 604 N 62.0802 -0.821533 -1.34494 0
M  V30 605 C 63.0102 -0.257138 -2.3208 0
M  V30 606 C 63.9912 0.625645 -1.58176 0
M  V30 607 O 65.1762 0.552811 -1.86166 0
M  V30 608 C 62.3062 0.582958 -3.42372 0
M  V30 609 C 61.2602 -0.202571 -4.2752 0
M  V30 610 C 60.5862 0.760179 -5.29269 0
M  V30 611 C 61.8862 -1.40998 -5.02908 0
M  V30 612 H 63.5802 -1.07247 -2.79532 0
M  V30 613 H 61.1262 -0.517163 -1.34393 0
M  V30 614 H 63.0792 0.987972 -4.09655 0
M  V30 615 H 61.8032 1.43133 -2.93565 0
M  V30 616 H 60.4622 -0.588936 -3.61838 0
M  V30 617 H 60.1102 1.60447 -4.76724 0
M  V30 618 H 59.8102 0.238809 -5.87115 0
M  V30 619 H 61.3342 1.16308 -5.9942 0
M  V30 620 H 62.7482 -1.07905 -5.63054 0
M  V30 621 H 61.1452 -1.86689 -5.70322 0
M  V30 622 H 62.2152 -2.1889 -4.32684 0
M  V30 623 N 63.5583 1.46682 -0.576371 0
M  V30 624 C 64.5053 2.30241 0.160499 0
M  V30 625 C 65.4753 1.40233 0.890162 0
M  V30 626 O 66.6603 1.69186 0.882084 0
M  V30 627 C 63.8003 3.24578 1.1723 0
M  V30 628 C 62.9133 4.29684 0.446736 0
M  V30 629 C 62.0483 5.11154 1.44551 0
M  V30 630 C 61.0873 6.08015 0.70599 0
M  V30 631 N 60.2243 6.82376 1.65251 0
M  V30 632 H 65.0643 2.92727 -0.558127 0
M  V30 633 H 62.6013 1.44272 -0.287056 0
M  V30 634 H 64.5593 3.77711 1.77172 0
M  V30 635 H 63.1893 2.63916 1.85872 0
M  V30 636 H 62.2413 3.79458 -0.267594 0
M  V30 637 H 63.5533 4.98626 -0.131686 0
M  V30 638 H 62.7073 5.68533 2.11791 0
M  V30 639 H 61.4463 4.42158 2.05786 0
M  V30 640 H 60.4513 5.49796 0.0197725 0
M  V30 641 H 61.6763 6.79028 0.09912 0
M  V30 642 H 59.6223 6.16094 2.25308 0
M  V30 643 H 59.5393 7.47556 1.12673 0
M  V30 644 H 60.8073 7.44316 2.31546 0
M  V30 645 N 65.0364 0.313813 1.54444 0
M  V30 646 C 65.9464 -0.565714 2.27677 0
M  V30 647 C 66.9624 -1.13754 1.31666 0
M  V30 648 O 68.1384 -1.15959 1.64668 0
M  V30 649 C 65.2034 -1.71528 3.01296 0
M  V30 650 C 64.2644 -1.17624 4.12872 0
M  V30 651 C 63.4974 -2.27102 4.8297 0
M  V30 652 O 63.7204 -3.47256 4.52514 0
M  V30 653 O 62.6544 -1.9307 5.70094 0
M  V30 654 H 66.4804 0.0287296 3.03686 0
M  V30 655 H 64.0654 0.0798312 1.49187 0
M  V30 656 H 65.9474 -2.38476 3.4743 0
M  V30 657 H 64.6224 -2.29608 2.2817 0
M  V30 658 H 63.5294 -0.472124 3.71109 0
M  V30 659 H 64.8624 -0.640695 4.88012 0
M  V30 660 N 66.5145 -1.57545 0.0417849 0
M  V30 661 C 67.7395 -1.97035 -0.647455 0
M  V30 662 C 68.1645 -0.918775 -1.64135 0
M  V30 663 O 67.5225 0.119006 -1.80909 0
M  V30 664 C 67.5705 -3.35609 -1.31905 0
M  V30 665 O 66.6745 -3.3287 -2.43457 0
M  V30 666 H 66.0155 -0.64211 -0.169086 0
M  V30 667 H 68.5455 -2.04318 0.107399 0
M  V30 668 H 68.5555 -3.72126 -1.67291 0
M  V30 669 H 67.2305 -4.11685 -0.590586 0
M  V30 670 H 65.8075 -3.08087 -2.10088 0
M  V30 671 N 67.9926 0.231505 -1.5589 0
M  V30 672 C 69.4036 0.799327 -1.68724 0
M  V30 673 C 69.7546 1.85398 -0.642022 0
M  V30 674 O 68.8796 2.1539 0.208784 0
M  V30 675 C 69.4746 1.45664 -3.05888 0
M  V30 676 C 68.0336 1.97197 -3.20609 0
M  V30 677 C 67.1806 0.828552 -2.64632 0
M  V30 678 H 70.1316 0.00702616 -1.58698 0
M  V30 679 H 70.1526 2.32517 -3.01191 0
M  V30 680 H 69.6646 0.688808 -3.81939 0
M  V30 681 H 67.7656 2.76813 -2.4941 0
M  V30 682 H 67.8786 2.15878 -4.27707 0
M  V30 683 H 66.2426 1.23321 -2.22854 0
M  V30 684 H 67.0256 0.0735544 -3.43221 0
M  V30 685 N 69.4707 1.49531 0.497807 0
M  V30 686 C 70.4007 1.6935 1.60757 0
M  V30 687 C 71.3817 0.542218 1.61227 0
M  V30 688 O 72.5667 0.778417 1.77917 0
M  V30 689 C 69.6967 1.76298 2.99226 0
M  V30 690 C 68.6507 2.91248 3.13622 0
M  V30 691 C 67.9767 2.83312 4.53474 0
M  V30 692 C 69.2767 4.3214 2.93346 0
M  V30 693 H 70.9707 2.62263 1.44425 0
M  V30 694 H 68.5167 1.26208 0.693367 0
M  V30 695 H 70.4697 1.88749 3.76765 0
M  V30 696 H 69.1937 0.799871 3.16654 0
M  V30 697 H 67.8527 2.78404 2.38509 0
M  V30 698 H 67.5007 1.84902 4.67782 0
M  V30 699 H 67.2007 3.60465 4.64046 0
M  V30 700 H 68.7247 2.97775 5.33069 0
M  V30 701 H 70.1387 4.45649 3.60652 0
M  V30 702 H 68.5357 5.1054 3.15387 0
M  V30 703 H 69.6057 4.46363 1.89441 0
M  V30 704 N 70.9488 -0.749086 1.3866 0
M  V30 705 C 71.8808 -1.87273 1.32142 0
M  V30 706 C 72.8938 -1.61127 0.232787 0
M  V30 707 O 74.0828 -1.71623 0.49069 0
M  V30 708 C 71.1828 -3.23005 1.02571 0
M  V30 709 C 70.3558 -3.7662 2.22433 0
M  V30 710 C 69.4148 -4.90879 1.89537 0
M  V30 711 O 68.4408 -5.05276 2.62078 0
M  V30 712 N 69.6428 -5.74198 0.853031 0
M  V30 713 H 72.4078 -1.93373 2.28969 0
M  V30 714 H 69.9688 -0.929216 1.32579 0
M  V30 715 H 71.9608 -3.96992 0.786085 0
M  V30 716 H 70.5308 -3.12262 0.145249 0
M  V30 717 H 69.7508 -2.94147 2.62434 0
M  V30 718 H 71.0388 -4.09173 3.02415 0
M  V30 719 H 70.4368 -5.6514 0.25155 0
M  V30 720 H 68.9938 -6.48313 0.67329 0
M  V30 721 N 72.4269 -1.23603 -0.977757 0
M  V30 722 C 73.6549 -1.09646 -1.75458 0
M  V30 723 C 74.0699 0.351859 -1.85492 0
M  V30 724 O 73.4269 1.24327 -1.336 0
M  V30 725 C 73.4779 -1.71895 -3.18016 0
M  V30 726 O 73.1989 -3.11063 -3.08498 0
M  V30 727 C 74.6999 -1.63415 -4.12081 0
M  V30 728 H 71.9199 -0.38359 -0.550545 0
M  V30 729 H 74.4639 -1.63507 -1.22824 0
M  V30 730 H 72.6189 -1.22061 -3.67668 0
M  V30 731 H 73.0329 -3.41305 -3.9826 0
M  V30 732 H 74.5069 -2.11669 -5.09804 0
M  V30 733 H 74.9839 -0.593462 -4.35172 0
M  V30 734 H 75.5899 -2.12628 -3.68334 0
M  V30 735 N 73.905 1.17692 -1.04816 0
M  V30 736 C 75.316 1.69501 -0.782698 0
M  V30 737 C 75.667 1.83456 0.695577 0
M  V30 738 O 74.792 1.51942 1.54086 0
M  V30 739 C 75.387 3.07874 -1.41419 0
M  V30 740 C 73.946 3.56864 -1.19686 0
M  V30 741 C 73.093 2.3322 -1.50012 0
M  V30 742 H 76.044 1.02262 -1.2136 0
M  V30 743 H 76.065 3.71528 -0.821428 0
M  V30 744 H 75.577 2.97685 -2.49009 0
M  V30 745 H 73.678 3.72337 -0.140043 0
M  V30 746 H 73.791 4.39851 -1.89916 0
M  V30 747 H 72.155 2.37501 -0.920071 0
M  V30 748 H 72.938 2.25644 -2.58727 0
M  V30 749 N 75.3831 0.828654 1.34056 0
M  V30 750 C 76.6111 0.43262 2.02326 0
M  V30 751 C 77.0261 -0.963147 1.62385 0
M  V30 752 O 76.3831 -1.62425 0.832121 0
M  V30 753 C 76.4341 0.53182 3.57567 0
M  V30 754 O 76.1551 1.87258 3.96063 0
M  V30 755 C 77.6561 0.131422 4.43105 0
M  V30 756 H 74.8761 0.172923 0.648335 0
M  V30 757 H 77.4201 1.1184 1.71208 0
M  V30 758 H 75.5751 -0.105938 3.87255 0
M  V30 759 H 75.9891 1.85087 4.90758 0
M  V30 760 H 77.4631 0.251904 5.51425 0
M  V30 761 H 77.9401 -0.925645 4.29335 0
M  V30 762 H 78.5461 0.743207 4.18756 0
M  V30 763 N 76.8612 -1.46375 0.584142 0
M  V30 764 C 77.7712 -2.34115 -0.150728 0
M  V30 765 C 78.7872 -1.49838 -0.884567 0
M  V30 766 O 79.9632 -1.82704 -0.847429 0
M  V30 767 C 77.0282 -3.2705 -1.15062 0
M  V30 768 C 76.0892 -4.27228 -0.421293 0
M  V30 769 C 75.3222 -5.15722 -1.37355 0
M  V30 770 O 75.5452 -5.07176 -2.61014 0
M  V30 771 O 74.4792 -5.95383 -0.883355 0
M  V30 772 H 78.3052 -2.98309 0.569708 0
M  V30 773 H 75.8902 -1.45373 0.344535 0
M  V30 774 H 77.7722 -3.84381 -1.72712 0
M  V30 775 H 76.4472 -2.65451 -1.8525 0
M  V30 776 H 75.3542 -3.7358 0.197085 0
M  V30 777 H 76.6872 -4.91616 0.239641 0
M  V30 778 N 78.3393 -0.321999 -1.54275 0
M  V30 779 C 79.6163 0.335232 -1.92706 0
M  V30 780 C 79.9963 1.70006 -1.25145 0
M  V30 781 O 79.3443 2.25067 -0.394596 0
M  V30 782 C 79.5543 0.429008 -3.46353 0
M  V30 783 C 80.9023 0.690029 -4.18956 0
M  V30 784 O 81.9263 0.511992 -3.52501 0
M  V30 785 O 80.7853 1.03338 -5.36641 0
M  V30 786 H 77.8793 0.191143 -0.804608 0
M  V30 787 H 80.4253 -0.3716 -1.65581 0
M  V30 788 H 79.1973 -0.529611 -3.87699 0
M  V30 789 H 78.8203 1.18348 -3.79578 0
M  V30 790 N 79.8174 1.5752 -0.0501392 0
M  V30 791 C 81.0654 1.9227 0.622642 0
M  V30 792 C 81.3864 0.929083 1.71444 0
M  V30 793 O 80.6564 -0.0262186 1.95882 0
M  V30 794 H 79.2364 0.709739 0.232981 0
M  V30 795 H 81.8984 1.94628 -0.102898 0
M  V30 796 H 80.9944 2.93479 1.06191 0
M  V30 797 N 81.2955 -0.223234 1.56011 0
M  V30 798 C 82.5205 -0.968978 1.83373 0
M  V30 799 C 82.9455 -1.77227 0.630254 0
M  V30 800 O 82.3035 -1.76345 -0.420959 0
M  V30 801 C 82.3515 -1.86363 3.08709 0
M  V30 802 O 81.4555 -2.95873 2.87285 0
M  V30 803 H 80.7965 -0.274461 0.604622 0
M  V30 804 H 83.3265 -0.237056 2.03222 0
M  V30 805 H 83.3365 -2.27376 3.38768 0
M  V30 806 H 82.0115 -1.27319 3.95933 0
M  V30 807 H 80.5885 -2.58818 2.68454 0
M  V30 808 N 82.7736 -1.49793 -0.48987 0
M  V30 809 C 83.6836 -1.70036 -1.61632 0
M  V30 810 C 84.6996 -0.583102 -1.63939 0
M  V30 811 O 85.8756 -0.859169 -1.82154 0
M  V30 812 C 82.9406 -1.77277 -2.97949 0
M  V30 813 C 82.0016 -3.00918 -3.06181 0
M  V30 814 C 81.2346 -3.07804 -4.35996 0
M  V30 815 O 81.4576 -2.21982 -5.25433 0
M  V30 816 O 80.3916 -4.00369 -4.49431 0
M  V30 817 H 84.2176 -2.65486 -1.47482 0
M  V30 818 H 81.8026 -1.33666 -0.667362 0
M  V30 819 H 83.6846 -1.84329 -3.78947 0
M  V30 820 H 82.3596 -0.850076 -3.12339 0
M  V30 821 H 81.2666 -2.99377 -2.2433 0
M  V30 822 H 82.5996 -3.92704 -2.96723 0
M  V30 823 N 84.2517 0.741722 -1.39055 0
M  V30 824 C 85.1617 1.88621 -1.39496 0
M  V30 825 C 86.1777 1.71557 -0.290578 0
M  V30 826 O 87.3537 1.94275 -0.530954 0
M  V30 827 C 84.4187 3.24134 -1.23037 0
M  V30 828 C 83.4797 3.5364 -2.43387 0
M  V30 829 C 82.7127 4.82687 -2.27703 0
M  V30 830 O 82.9357 5.55922 -1.27696 0
M  V30 831 O 81.8697 5.1194 -3.16545 0
M  V30 832 H 85.6957 1.91203 -2.35956 0
M  V30 833 H 83.2807 0.888625 -1.20099 0
M  V30 834 H 85.1627 4.0513 -1.15964 0
M  V30 835 H 83.8377 3.22337 -0.296691 0
M  V30 836 H 82.7447 2.72758 -2.56035 0
M  V30 837 H 84.0777 3.60209 -3.35425 0
M  V30 838 N 85.7298 1.2412 0.971189 0
M  V30 839 C 87.1408 1.07236 1.52831 0
M  V30 840 C 87.4918 -0.357352 1.92918 0
M  V30 841 O 86.6168 -1.24528 1.76979 0
M  V30 842 C 87.2118 1.94043 2.77728 0
M  V30 843 C 85.7708 1.81394 3.29808 0
M  V30 844 C 84.9178 1.89189 2.02738 0
M  V30 845 H 87.8688 1.37648 0.789864 0
M  V30 846 H 87.8898 1.47066 3.5093 0
M  V30 847 H 87.4018 2.98093 2.4852 0
M  V30 848 H 85.5028 0.801634 3.63874 0
M  V30 849 H 85.6158 2.65294 3.98944 0
M  V30 850 H 83.9798 1.32877 2.17292 0
M  V30 851 H 84.7628 2.94812 1.759 0
M  V30 852 N 87.2079 -1.17134 1.05439 0
M  V30 853 C 88.4559 -1.87085 0.764429 0
M  V30 854 C 88.7769 -1.81584 -0.710787 0
M  V30 855 O 88.0469 -1.24349 -1.51374 0
M  V30 856 H 86.6269 -0.692627 0.279779 0
M  V30 857 H 89.2889 -1.42087 1.33406 0
M  V30 858 H 88.3849 -2.92759 1.0816 0
M  V30 859 N 88.686 -0.835752 -1.33615 0
M  V30 860 C 89.911 -0.442389 -2.02627 0
M  V30 861 C 90.336 0.947735 -1.62479 0
M  V30 862 O 89.694 1.61907 -0.815826 0
M  V30 863 C 89.742 -0.567216 -3.56111 0
M  V30 864 O 88.846 0.407799 -4.10379 0
M  V30 865 H 88.187 -0.180278 -0.639059 0
M  V30 866 H 90.717 -1.12972 -1.70583 0
M  V30 867 H 90.727 -0.447708 -4.05536 0
M  V30 868 H 89.402 -1.58103 -3.84677 0
M  V30 869 H 87.979 0.246107 -3.72087 0
M  V30 870 N 90.1641 1.46063 -0.591896 0
M  V30 871 C 91.0741 2.34192 0.13831 0
M  V30 872 C 92.0901 1.50305 0.876608 0
M  V30 873 O 93.2661 1.8315 0.837728 0
M  V30 874 C 90.3311 3.27656 1.13326 0
M  V30 875 C 89.3921 4.27445 0.39863 0
M  V30 876 C 88.6251 5.16443 1.34618 0
M  V30 877 O 88.8481 5.08553 2.58321 0
M  V30 878 O 87.7821 5.95843 0.851768 0
M  V30 879 H 91.6081 2.98002 -0.58552 0
M  V30 880 H 89.1931 1.45188 -0.352239 0
M  V30 881 H 91.0751 3.85291 1.70671 0
M  V30 882 H 89.7501 2.6643 1.83839 0
M  V30 883 H 88.6571 3.73471 -0.216895 0
M  V30 884 H 89.9901 4.91482 -0.265709 0
M  V30 885 N 91.6422 0.330177 1.54103 0
M  V30 886 C 92.8702 -0.272179 2.05102 0
M  V30 887 C 93.2852 -1.45267 1.20595 0
M  V30 888 O 92.6422 -1.8094 0.238144 0
M  V30 889 C 92.6932 -0.70023 3.54653 0
M  V30 890 O 92.4142 0.433301 4.35952 0
M  V30 891 C 93.9152 -1.3647 4.21771 0
M  V30 892 H 91.1352 -0.0549159 0.668749 0
M  V30 893 H 93.6792 0.478285 1.98828 0
M  V30 894 H 91.8342 -1.40066 3.61193 0
M  V30 895 H 92.2482 0.0947539 5.24414 0
M  V30 896 H 93.7222 -1.61509 5.27843 0
M  V30 897 H 94.1992 -2.31409 3.73292 0
M  V30 898 H 94.8052 -0.706675 4.19388 0
M  V30 899 N 93.1203 -1.57491 0.0584922 0
M  V30 900 C 94.3453 -1.97711 -0.62652 0
M  V30 901 C 94.7703 -0.936132 -1.63151 0
M  V30 902 O 94.1283 0.099811 -1.81025 0
M  V30 903 C 94.1763 -3.36989 -1.28338 0
M  V30 904 O 93.2803 -3.35433 -2.39913 0
M  V30 905 H 92.6213 -0.643868 -0.162266 0
M  V30 906 H 95.1513 -2.04193 0.129064 0
M  V30 907 H 95.1613 -3.73879 -1.63335 0
M  V30 908 H 93.8363 -4.12289 -0.546889 0
M  V30 909 H 92.4133 -3.10298 -2.06809 0
M  V30 910 N 94.5984 0.214957 -1.56127 0
M  V30 911 C 95.8754 0.963093 -1.70247 0
M  V30 912 C 96.2554 2.02166 -0.60764 0
M  V30 913 O 95.6034 2.25244 0.384385 0
M  V30 914 C 95.8134 1.56756 -3.11815 0
M  V30 915 C 97.1614 2.0573 -3.7143 0
M  V30 916 O 98.1854 1.66637 -3.14818 0
M  V30 917 O 97.0444 2.77603 -4.70743 0
M  V30 918 H 94.1384 0.450321 -0.693643 0
M  V30 919 H 96.6844 0.206219 -1.68442 0
M  V30 920 H 95.4564 0.803533 -3.82961 0
M  V30 921 H 95.0794 2.3898 -3.17765 0
M  V30 922 N 96.0765 1.50051 0.48192 0
M  V30 923 C 97.0395 1.67584 1.5636 0
M  V30 924 C 98.0395 0.546894 1.51214 0
M  V30 925 O 99.2295 0.813725 1.54026 0
M  V30 926 C 96.3615 1.691 2.96003 0
M  V30 927 H 97.5545 2.64078 1.42136 0
M  V30 928 H 95.1075 1.39369 0.707533 0
M  V30 929 H 95.8425 0.742589 3.15684 0
M  V30 930 H 95.6275 2.51105 3.01146 0
M  V30 931 H 97.1175 1.84656 3.74556 0
M  V30 932 N 97.5546 -0.734337 1.39446 0
M  V30 933 C 98.5016 -1.84835 1.38219 0
M  V30 934 C 99.4716 -1.64331 0.24179 0
M  V30 935 O 100.657 -1.85728 0.437002 0
M  V30 936 C 97.7966 -3.22355 1.23212 0
M  V30 937 C 96.9096 -3.5456 2.46801 0
M  V30 938 C 96.0446 -4.81485 2.24377 0
M  V30 939 C 95.0836 -5.06536 3.43639 0
M  V30 940 N 94.2206 -6.24665 3.20528 0
M  V30 941 H 99.0606 -1.85219 2.33448 0
M  V30 942 H 96.5976 -0.905039 1.15963 0
M  V30 943 H 98.5556 -4.0174 1.12522 0
M  V30 944 H 97.1856 -3.21248 0.316121 0
M  V30 945 H 96.2376 -2.69872 2.68092 0
M  V30 946 H 97.5496 -3.6899 3.3563 0
M  V30 947 H 96.7036 -5.68852 2.10933 0
M  V30 948 H 95.4426 -4.6923 1.32944 0
M  V30 949 H 94.4476 -4.17632 3.5758 0
M  V30 950 H 95.6726 -5.20676 4.35974 0
M  V30 951 H 93.6186 -6.13696 2.3176 0
M  V30 952 H 93.5356 -6.39685 4.02913 0
M  V30 953 H 94.8036 -7.14868 3.10779 0
M  V30 954 N 99.0327 -1.24633 -0.964593 0
M  V30 955 C 100.258 -1.11596 -1.74818 0
M  V30 956 C 100.683 0.32723 -1.85232 0
M  V30 957 O 100.041 1.23695 -1.32549 0
M  V30 958 C 100.089 -1.76397 -3.1451 0
M  V30 959 O 99.1927 -1.03685 -3.99153 0
M  V30 960 H 98.5337 -0.390196 -0.537255 0
M  V30 961 H 101.064 -1.65002 -1.20977 0
M  V30 962 H 101.074 -1.8228 -3.65018 0
M  V30 963 H 99.7487 -2.81401 -3.06246 0
M  V30 964 H 98.3257 -1.05611 -3.57632 0
M  V30 965 N 100.511 1.16574 -1.06058 0
M  V30 966 C 101.739 1.90952 -0.796552 0
M  V30 967 C 102.154 1.77302 0.648808 0
M  V30 968 O 101.511 1.11605 1.44397 0
M  V30 969 C 101.562 3.41736 -1.17894 0
M  V30 970 O 101.283 3.54975 -2.56758 0
M  V30 971 C 102.784 4.33169 -0.942308 0
M  V30 972 H 100.004 0.605594 -0.288959 0
M  V30 973 H 102.548 1.47777 -1.41358 0
M  V30 974 H 100.703 3.82623 -0.606491 0
M  V30 975 H 101.117 4.4846 -2.72 0
M  V30 976 H 102.591 5.37439 -1.25952 0
M  V30 977 H 103.068 4.3903 0.122078 0
M  V30 978 H 103.674 3.98007 -1.49902 0
M  V30 979 N 101.989 0.842826 1.3317 0
M  V30 980 C 103.4 0.496651 1.79973 0
M  V30 981 C 103.751 -0.984641 1.69703 0
M  V30 982 O 102.876 -1.76743 1.24863 0
M  V30 983 C 103.471 0.894727 3.26772 0
M  V30 984 C 102.03 0.600629 3.71577 0
M  V30 985 C 101.177 1.10091 2.5451 0
M  V30 986 H 104.128 1.03116 1.20635 0
M  V30 987 H 104.149 0.206347 3.7994 0
M  V30 988 H 103.661 1.97287 3.34215 0
M  V30 989 H 101.762 -0.467284 3.69658 0
M  V30 990 H 101.875 1.15863 4.64879 0
M  V30 991 H 100.239 0.52162 2.49301 0
M  V30 992 H 101.022 2.18591 2.64713 0
M  V30 993 N 103.467 -1.45747 0.599634 0
M  V30 994 C 104.695 -2.06668 0.0978551 0
M  V30 995 C 105.11 -1.44562 -1.21439 0
M  V30 996 O 104.467 -0.556923 -1.73795 0
M  V30 997 C 104.518 -3.61456 -0.0567044 0
M  V30 998 O 104.239 -4.21242 1.20361 0
M  V30 999 C 105.74 -4.39345 -0.590869 0
M  V30 1000 H 102.96 -0.667825 0.0651943 0
M  V30 1001 H 105.504 -1.87115 0.82511 0
M  V30 1002 H 103.659 -3.80378 -0.734251 0
M  V30 1003 H 104.073 -5.14323 1.02821 0
M  V30 1004 H 105.547 -5.48182 -0.648131 0
M  V30 1005 H 106.024 -4.08568 -1.61147 0
M  V30 1006 H 106.63 -4.25268 0.0523679 0
M  V30 1007 N 104.945 -0.338344 -1.53925 0
M  V30 1008 C 105.908 0.508299 -2.23493 0
M  V30 1009 C 106.908 1.03175 -1.23335 0
M  V30 1010 O 108.098 0.921826 -1.47811 0
M  V30 1011 C 105.23 1.70754 -2.95052 0
M  V30 1012 H 106.423 -0.100058 -2.99733 0
M  V30 1013 H 103.976 -0.0896198 -1.56043 0
M  V30 1014 H 104.711 2.35474 -2.22986 0
M  V30 1015 H 104.496 1.33946 -3.68512 0
M  V30 1016 H 105.986 2.30818 -3.48013 0
M  V30 1017 N 106.423 1.57458 -0.0668435 0
M  V30 1018 C 107.333 2.15937 0.916975 0
M  V30 1019 C 108.349 1.12123 1.33058 0
M  V30 1020 O 109.525 1.44366 1.40429 0
M  V30 1021 C 106.59 2.70547 2.16807 0
M  V30 1022 C 105.651 3.89215 1.81135 0
M  V30 1023 C 104.884 4.41211 3.0028 0
M  V30 1024 O 105.107 3.92225 4.14144 0
M  V30 1025 O 104.041 5.32605 2.80384 0
M  V30 1026 H 107.867 3.00354 0.449561 0
M  V30 1027 H 105.452 1.48584 0.155949 0
M  V30 1028 H 107.334 3.0557 2.90181 0
M  V30 1029 H 106.009 1.89192 2.62656 0
M  V30 1030 H 104.916 3.59054 1.05028 0
M  V30 1031 H 106.249 4.71848 1.40073 0
M  V30 1032 N 107.901 -0.206675 1.56239 0
M  V30 1033 C 109.178 -0.954051 1.70755 0
M  V30 1034 C 109.558 -2.01841 0.618353 0
M  V30 1035 O 108.906 -2.25444 -0.372434 0
M  V30 1036 C 109.116 -1.551 3.12642 0
M  V30 1037 C 110.464 -2.03757 3.72516 0
M  V30 1038 O 111.488 -1.64965 3.15698 0
M  V30 1039 O 110.347 -2.75103 4.72208 0
M  V30 1040 H 107.441 -0.446636 0.696021 0
M  V30 1041 H 109.987 -0.197283 1.68549 0
M  V30 1042 H 108.759 -0.783212 3.83382 0
M  V30 1043 H 108.382 -2.37291 3.19028 0
M  V30 1044 N 109.379 -1.50304 -0.473955 0
M  V30 1045 C 110.625 -1.61389 -1.22806 0
M  V30 1046 C 110.958 -0.311955 -1.91678 0
M  V30 1047 O 110.233 0.686384 -1.81986 0
M  V30 1048 C 110.516 -2.79219 -2.27396 0
M  V30 1049 C 110.369 -4.19286 -1.62848 0
M  V30 1050 C 111.688 -2.92614 -3.28732 0
M  V30 1051 H 108.807 -0.587399 -0.445119 0
M  V30 1052 H 111.449 -1.82681 -0.522265 0
M  V30 1053 H 109.599 -2.61195 -2.87592 0
M  V30 1054 H 111.271 -4.48892 -1.06271 0
M  V30 1055 H 109.514 -4.23677 -0.931693 0
M  V30 1056 H 110.185 -4.97655 -2.38838 0
M  V30 1057 H 112.661 -3.09105 -2.78556 0
M  V30 1058 H 111.537 -3.76688 -3.99246 0
M  V30 1059 H 111.798 -2.03107 -3.92683 0
M  V30 1060 N 110.857 0.726932 -1.39834 0
M  V30 1061 C 112.085 1.51613 -1.40787 0
M  V30 1062 C 112.5 1.88799 -0.00451505 0
M  V30 1063 O 111.857 1.54662 0.968809 0
M  V30 1064 C 111.908 2.79863 -2.28821 0
M  V30 1065 O 111.629 2.44253 -3.63692 0
M  V30 1066 C 113.13 3.73837 -2.38245 0
M  V30 1067 H 110.35 0.468264 -0.480593 0
M  V30 1068 H 112.894 0.897607 -1.83748 0
M  V30 1069 H 111.049 3.38027 -1.89252 0
M  V30 1070 H 111.463 3.26695 -4.1033 0
M  V30 1071 H 112.937 4.60699 -3.04073 0
M  V30 1072 H 113.414 4.16153 -1.40403 0
M  V30 1073 H 114.02 3.21589 -2.78317 0
M  V30 1074 N 112.336 1.25143 0.95797 0
M  V30 1075 C 113.299 1.05321 2.03569 0
M  V30 1076 C 114.299 0.007152 1.60798 0
M  V30 1077 O 115.489 0.24903 1.72411 0
M  V30 1078 C 112.621 0.598394 3.35607 0
M  V30 1079 H 113.814 2.00986 2.22586 0
M  V30 1080 H 111.367 1.07502 1.13459 0
M  V30 1081 H 112.102 -0.361014 3.22284 0
M  V30 1082 H 111.887 1.35351 3.67998 0
M  V30 1083 H 113.377 0.48104 4.1482 0
M  V30 1084 N 113.814 -1.1601 1.06675 0
M  V30 1085 C 115.225 -1.68235 0.809565 0
M  V30 1086 C 115.576 -1.8454 -0.666303 0
M  V30 1087 O 114.701 -1.54374 -1.5165 0
M  V30 1088 C 115.296 -3.05585 1.46299 0
M  V30 1089 C 113.855 -3.54915 1.25349 0
M  V30 1090 C 113.002 -2.30804 1.53703 0
M  V30 1091 H 115.953 -1.00318 1.22971 0
M  V30 1092 H 115.974 -3.70174 0.880431 0
M  V30 1093 H 115.486 -2.93686 2.53713 0
M  V30 1094 H 113.587 -3.72067 0.199261 0
M  V30 1095 H 113.7 -4.36774 1.9689 0
M  V30 1096 H 112.064 -2.36007 0.957739 0
M  V30 1097 H 112.847 -2.21499 2.62284 0
M  V30 1098 N 115.292 -0.849877 -1.32721 0
M  V30 1099 C 116.222 -0.306308 -2.31482 0
M  V30 1100 C 117.203 0.591952 -1.59468 0
M  V30 1101 O 118.388 0.513199 -1.87296 0
M  V30 1102 C 115.518 0.510204 -3.43532 0
M  V30 1103 C 114.472 -0.293209 -4.26994 0
M  V30 1104 C 113.798 0.647743 -5.30762 0
M  V30 1105 C 115.098 -1.51634 -4.99804 0
M  V30 1106 H 116.792 -1.13153 -2.77195 0
M  V30 1107 H 114.338 -0.545553 -1.33266 0
M  V30 1108 H 116.291 0.900856 -4.11658 0
M  V30 1109 H 115.015 1.36874 -2.96535 0
M  V30 1110 H 113.674 -0.665555 -3.60508 0
M  V30 1111 H 113.322 1.50299 -4.8002 0
M  V30 1112 H 113.022 0.11422 -5.87489 0
M  V30 1113 H 114.546 1.03567 -6.01753 0
M  V30 1114 H 115.96 -1.19824 -5.60638 0
M  V30 1115 H 114.357 -1.98745 -5.66234 0
M  V30 1116 H 115.427 -2.28018 -4.27943 0
M  V30 1117 N 116.77 1.45427 -0.607355 0
M  V30 1118 C 118.016 2.0254 -0.102607 0
M  V30 1119 C 118.349 1.47478 1.26348 0
M  V30 1120 O 117.624 0.64939 1.83339 0
M  V30 1121 C 117.907 3.60044 -0.0634347 0
M  V30 1122 C 117.76 4.2544 -1.46017 0
M  V30 1123 C 119.079 4.35646 0.624514 0
M  V30 1124 H 116.198 0.73598 -0.0387607 0
M  V30 1125 H 118.84 1.73284 -0.779282 0
M  V30 1126 H 116.99 3.85101 0.512808 0
M  V30 1127 H 118.662 4.11569 -2.08347 0
M  V30 1128 H 116.905 3.83849 -2.02094 0
M  V30 1129 H 117.576 5.34342 -1.385 0
M  V30 1130 H 120.052 4.15882 0.134723 0
M  V30 1131 H 118.928 5.45376 0.621028 0
M  V30 1132 H 119.189 4.08501 1.69055 0
M  V30 1133 N 118.248 0.346503 1.53744 0
M  V30 1134 C 119.525 -0.304532 1.93215 0
M  V30 1135 C 119.905 -1.67993 1.27834 0
M  V30 1136 O 119.253 -2.24411 0.430352 0
M  V30 1137 C 119.463 -0.373852 3.46992 0
M  V30 1138 C 120.811 -0.62329 4.2 0
M  V30 1139 O 121.835 -0.455847 3.53271 0
M  V30 1140 O 120.694 -0.947879 5.38217 0
M  V30 1141 H 117.788 -0.178318 0.807547 0
M  V30 1142 H 120.334 0.397895 1.64969 0
M  V30 1143 H 119.106 0.591224 3.86808 0
M  V30 1144 H 118.729 -1.12294 3.81413 0
M  V30 1145 N 119.726 -1.57421 0.075193 0
M  V30 1146 C 120.636 -2.1642 -0.905511 0
M  V30 1147 C 121.652 -1.12828 -1.32461 0
M  V30 1148 O 122.828 -1.45109 -1.39661 0
M  V30 1149 C 119.893 -2.71693 -2.15369 0
M  V30 1150 C 118.954 -3.90171 -1.79068 0
M  V30 1151 C 118.187 -4.42798 -2.97936 0
M  V30 1152 O 118.41 -3.94416 -4.12058 0
M  V30 1153 O 117.344 -5.34085 -2.77555 0
M  V30 1154 H 121.17 -3.00588 -0.433626 0
M  V30 1155 H 118.755 -1.48664 -0.148067 0
M  V30 1156 H 120.637 -3.07104 -2.88557 0
M  V30 1157 H 119.312 -1.90582 -2.61649 0
M  V30 1158 H 118.219 -3.59606 -1.03122 0
M  V30 1159 H 119.552 -4.72584 -1.37569 0
M  V30 1160 N 121.204 0.198386 -1.56346 0
M  V30 1161 C 122.452 0.91747 -1.80075 0
M  V30 1162 C 122.773 1.83929 -0.647692 0
M  V30 1163 O 122.043 1.93029 0.334166 0
M  V30 1164 H 120.623 0.341774 -0.664228 0
M  V30 1165 H 123.285 0.204684 -1.93822 0
M  V30 1166 H 122.381 1.51055 -2.7311 0
M  V30 1167 N 122.682 1.50554 0.465978 0
M  V30 1168 C 123.645 1.69233 1.54574 0
M  V30 1169 C 124.645 0.562901 1.50626 0
M  V30 1170 O 125.835 0.830016 1.53155 0
M  V30 1171 C 122.967 1.7223 2.94193 0
M  V30 1172 H 124.16 2.65571 1.39327 0
M  V30 1173 H 121.713 1.40111 0.692711 0
M  V30 1174 H 122.448 0.77603 3.14878 0
M  V30 1175 H 122.233 2.54285 2.98466 0
M  V30 1176 H 123.723 1.88618 3.72576 0
M  V30 1177 N 124.16 -0.719506 1.40217 0
M  V30 1178 C 125.571 -1.29848 1.34151 0
M  V30 1179 C 125.922 -1.96196 0.0131349 0
M  V30 1180 O 125.047 -1.973 -0.88892 0
M  V30 1181 C 125.642 -2.36118 2.42968 0
M  V30 1182 C 124.201 -2.8965 2.40374 0
M  V30 1183 C 123.348 -1.63393 2.24049 0
M  V30 1184 H 126.299 -0.51591 1.5008 0
M  V30 1185 H 126.32 -3.16871 2.10649 0
M  V30 1186 H 125.832 -1.878 3.39636 0
M  V30 1187 H 123.933 -3.42208 1.47392 0
M  V30 1188 H 124.046 -3.4171 3.35814 0
M  V30 1189 H 122.41 -1.88312 1.71495 0
M  V30 1190 H 123.193 -1.17104 3.2271 0
M  V30 1191 N 125.638 -1.25649 -0.95132 0
M  V30 1192 C 126.886 -1.10375 -1.69298 0
M  V30 1193 C 127.207 0.355339 -1.91735 0
M  V30 1194 O 126.477 1.25188 -1.50681 0
M  V30 1195 H 125.057 -0.405461 -0.627384 0
M  V30 1196 H 127.719 -1.57823 -1.14358 0
M  V30 1197 H 126.815 -1.61465 -2.67087 0
M  V30 1198 N 127.117 1.15442 -1.07289 0
M  V30 1199 C 128.064 2.20161 -0.692653 0
M  V30 1200 C 129.034 1.63073 0.31564 0
M  V30 1201 O 130.219 1.89725 0.202235 0
M  V30 1202 C 127.359 3.44967 -0.0959509 0
M  V30 1203 C 126.472 4.16256 -1.15564 0
M  V30 1204 C 125.607 5.28609 -0.524011 0
M  V30 1205 C 124.646 5.91715 -1.56653 0
M  V30 1206 N 123.783 6.9554 -0.957531 0
M  V30 1207 H 128.623 2.52037 -1.59002 0
M  V30 1208 H 126.16 1.2378 -0.794798 0
M  V30 1209 H 128.118 4.16341 0.267628 0
M  V30 1210 H 126.748 3.1361 0.764772 0
M  V30 1211 H 125.8 3.43385 -1.6368 0
M  V30 1212 H 127.112 4.59268 -1.94613 0
M  V30 1213 H 126.266 6.06604 -0.108032 0
M  V30 1214 H 125.005 4.86787 0.29825 0
M  V30 1215 H 124.01 5.12433 -1.9923 0
M  V30 1216 H 125.235 6.35614 -2.39107 0
M  V30 1217 H 123.181 6.55814 -0.156162 0
M  V30 1218 H 123.098 7.36977 -1.68526 0
M  V30 1219 H 124.366 7.77435 -0.567032 0
M  V30 1220 N 128.595 0.856903 1.32268 0
M  V30 1221 C 129.527 0.260412 2.27716 0
M  V30 1222 C 130.54 -0.569137 1.52528 0
M  V30 1223 O 131.729 -0.39326 1.74114 0
M  V30 1224 C 128.829 -0.650477 3.32599 0
M  V30 1225 C 128.002 0.14372 4.37164 0
M  V30 1226 C 127.061 -0.69328 5.21613 0
M  V30 1227 O 126.087 -0.12599 5.69061 0
M  V30 1228 N 127.289 -2.00761 5.44679 0
M  V30 1229 H 130.054 1.08059 2.79541 0
M  V30 1230 H 127.615 0.717103 1.45152 0
M  V30 1231 H 129.607 -1.21581 3.86005 0
M  V30 1232 H 128.177 -1.37133 2.80915 0
M  V30 1233 H 127.397 0.890486 3.8401 0
M  V30 1234 H 128.685 0.68915 5.04111 0
M  V30 1235 H 128.083 -2.49181 5.07863 0
M  V30 1236 H 126.64 -2.52103 6.01072 0
M  V30 1237 N 130.073 -1.45103 0.615059 0
M  V30 1238 C 131.036 -2.29025 -0.0895485 0
M  V30 1239 C 132.036 -1.40174 -0.787906 0
M  V30 1240 O 133.226 -1.62217 -0.634933 0
M  V30 1241 C 130.358 -3.21376 -1.13711 0
M  V30 1242 H 131.551 -2.92807 0.648382 0
M  V30 1243 H 129.104 -1.51749 0.374444 0
M  V30 1244 H 129.839 -2.6241 -1.90556 0
M  V30 1245 H 129.624 -3.86834 -0.640475 0
M  V30 1246 H 131.114 -3.84459 -1.63036 0
M  V30 1247 N 131.551 -0.354651 -1.53558 0
M  V30 1248 C 132.514 0.484566 -2.24019 0
M  V30 1249 C 133.514 1.01861 -1.24422 0
M  V30 1250 O 134.704 0.906097 -1.4878 0
M  V30 1251 C 131.836 1.67615 -2.96847 0
M  V30 1252 H 133.029 -0.131843 -2.9961 0
M  V30 1253 H 130.582 -0.106165 -1.55939 0
M  V30 1254 H 131.317 2.33095 -2.25471 0
M  V30 1255 H 131.102 1.30029 -3.69912 0
M  V30 1256 H 132.592 2.27114 -3.50441 0
M  V30 1257 N 133.029 1.57378 -0.0835403 0
M  V30 1258 C 133.992 2.12252 0.864959 0
M  V30 1259 C 134.992 1.04916 1.21858 0
M  V30 1260 O 136.182 1.30853 1.14991 0
M  V30 1261 C 133.314 2.63358 2.16461 0
M  V30 1262 H 134.507 2.97371 0.388676 0
M  V30 1263 H 132.06 1.55423 0.165317 0
M  V30 1264 H 132.795 1.81727 2.686 0
M  V30 1265 H 132.58 3.41826 1.92087 0
M  V30 1266 H 134.07 3.05847 2.84337 0
M  V30 1267 N 134.507 -0.190092 1.56449 0
M  V30 1268 C 135.439 -1.25973 1.91477 0
M  V30 1269 C 136.452 -1.41452 0.805931 0
M  V30 1270 O 137.641 -1.41789 1.08435 0
M  V30 1271 C 134.741 -2.63117 2.13594 0
M  V30 1272 C 133.914 -2.69182 3.4476 0
M  V30 1273 C 132.973 -3.87557 3.5593 0
M  V30 1274 O 131.999 -3.74427 4.28711 0
M  V30 1275 N 133.201 -5.03224 2.89388 0
M  V30 1276 H 135.966 -0.962394 2.83828 0
M  V30 1277 H 133.527 -0.379981 1.57378 0
M  V30 1278 H 135.519 -3.40742 2.1835 0
M  V30 1279 H 134.089 -2.85319 1.27719 0
M  V30 1280 H 133.309 -1.77793 3.51828 0
M  V30 1281 H 134.597 -2.70229 4.31107 0
M  V30 1282 H 133.995 -5.16791 2.30094 0
M  V30 1283 H 132.552 -5.78778 2.99764 0
M  V30 1284 N 135.985 -1.50799 -0.457987 0
M  V30 1285 C 137.396 -1.55152 -1.0385 0
M  V30 1286 C 137.747 -0.362719 -1.92818 0
M  V30 1287 O 136.872 0.522915 -2.09987 0
M  V30 1288 C 137.467 -2.81173 -1.89017 0
M  V30 1289 C 136.026 -2.88164 -2.42154 0
M  V30 1290 C 135.173 -2.49591 -1.20829 0
M  V30 1291 H 138.124 -1.56874 -0.240068 0
M  V30 1292 H 138.145 -2.63769 -2.74238 0
M  V30 1293 H 137.657 -3.67677 -1.24238 0
M  V30 1294 H 135.758 -2.06042 -3.10447 0
M  V30 1295 H 135.871 -3.91356 -2.76364 0
M  V30 1296 H 134.235 -2.02322 -1.54719 0
M  V30 1297 H 135.018 -3.38418 -0.576927 0
M  V30 1298 N 137.463 0.71206 -1.40597 0
M  V30 1299 C 138.413 1.81783 -1.37619 0
M  V30 1300 C 139.397 1.58896 -0.253162 0
M  V30 1301 O 140.589 1.70009 -0.492547 0
M  V30 1302 C 137.718 3.19944 -1.24462 0
M  V30 1303 C 136.804 3.48582 -2.4156 0
M  V30 1304 N 137.195 3.48016 -3.67041 0
M  V30 1305 C 135.493 3.79056 -2.35016 0
M  V30 1306 C 136.194 3.75096 -4.44609 0
M  V30 1307 N 135.17 3.94022 -3.74497 0
M  V30 1308 H 138.972 1.79683 -2.32575 0
M  V30 1309 H 136.486 0.91134 -1.34419 0
M  V30 1310 H 138.483 3.99133 -1.20411 0
M  V30 1311 H 137.143 3.23267 -0.304762 0
M  V30 1312 H 138.154 3.28782 -4.00153 0
M  V30 1313 H 134.831 3.89848 -1.49415 0
M  V30 1314 H 136.221 3.80934 -5.53479 0
M  V30 1315 N 138.941 1.26152 0.944643 0
M  V30 1316 C 140.169 1.14259 1.72489 0
M  V30 1317 C 140.584 -0.302555 1.8636 0
M  V30 1318 O 139.941 -1.20741 1.36849 0
M  V30 1319 C 139.992 1.80266 3.13347 0
M  V30 1320 O 139.713 3.19133 3.00143 0
M  V30 1321 C 141.214 1.74283 4.07603 0
M  V30 1322 H 138.434 0.398051 0.540181 0
M  V30 1323 H 140.978 1.66706 1.18446 0
M  V30 1324 H 139.133 1.31766 3.64303 0
M  V30 1325 H 139.547 3.51744 3.89071 0
M  V30 1326 H 141.021 2.25111 5.04013 0
M  V30 1327 H 141.498 0.708631 4.33446 0
M  V30 1328 H 142.104 2.22319 3.62567 0
M  V30 1329 N 140.419 -1.14872 1.07899 0
M  V30 1330 C 141.329 -2.2341 0.715915 0
M  V30 1331 C 142.345 -1.71808 -0.275306 0
M  V30 1332 O 143.521 -2.01039 -0.120545 0
M  V30 1333 C 140.586 -3.46474 0.125168 0
M  V30 1334 C 139.647 -4.13039 1.17034 0
M  V30 1335 C 138.88 -5.30229 0.607688 0
M  V30 1336 O 139.103 -5.675 -0.574497 0
M  V30 1337 O 138.037 -5.86444 1.35526 0
M  V30 1338 H 141.863 -2.56808 1.62121 0
M  V30 1339 H 139.448 -1.22702 0.852322 0
M  V30 1340 H 141.33 -4.20917 -0.201729 0
M  V30 1341 H 140.005 -3.14811 -0.753364 0
M  V30 1342 H 138.912 -3.40493 1.54968 0
M  V30 1343 H 140.245 -4.48796 2.02097 0
M  V30 1344 N 141.898 -0.863906 -1.31812 0
M  V30 1345 C 143.147 -0.46801 -1.96195 0
M  V30 1346 C 143.46 0.983474 -1.69077 0
M  V30 1347 O 144.666 1.48523 -2.27273 0
M  V30 1348 C 143.122 -0.785995 -3.51212 0
M  V30 1349 C 142.73 -2.25383 -3.87178 0
M  V30 1350 C 144.474 -0.458274 -4.22019 0
M  V30 1351 C 142.381 -2.51455 -5.3528 0
M  V30 1352 H 141.311 -0.171283 -0.734287 0
M  V30 1353 H 143.962 -1.05597 -1.50072 0
M  V30 1354 H 142.344 -0.127359 -3.95795 0
M  V30 1355 H 143.518 -2.95502 -3.53575 0
M  V30 1356 H 141.833 -2.54698 -3.2942 0
M  V30 1357 H 144.43 -0.630369 -5.30971 0
M  V30 1358 H 144.773 0.600834 -4.11941 0
M  V30 1359 H 145.306 -1.07319 -3.8305 0
M  V30 1360 H 142.045 -3.56025 -5.50387 0
M  V30 1361 H 141.565 -1.85923 -5.70257 0
M  V30 1362 H 143.244 -2.35874 -6.02472 0
M  V30 1363 N 143.376 1.44774 -0.622745 0
M  V30 1364 C 144.787 1.85546 -0.207226 0
M  V30 1365 C 145.138 1.52093 1.23944 0
M  V30 1366 O 144.263 0.95492 1.94191 0
M  V30 1367 C 144.858 3.36781 -0.369313 0
M  V30 1368 C 143.417 3.76399 -0.00836847 0
M  V30 1369 C 142.564 2.68664 -0.686651 0
M  V30 1370 H 145.515 1.3536 -0.828454 0
M  V30 1371 H 145.536 3.78453 0.394162 0
M  V30 1372 H 145.048 3.61098 -1.42231 0
M  V30 1373 H 143.149 3.57698 1.04322 0
M  V30 1374 H 143.262 4.7732 -0.412584 0
M  V30 1375 H 141.626 2.54404 -0.122777 0
M  V30 1376 H 142.409 2.95815 -1.74208 0
M  V30 1377 N 144.854 0.36279 1.53368 0
M  V30 1378 C 145.764 -0.492994 2.29362 0
M  V30 1379 C 146.78 -1.09507 1.35219 0
M  V30 1380 O 147.956 -1.10662 1.68273 0
M  V30 1381 C 145.021 -1.61855 3.066 0
M  V30 1382 C 144.082 -1.04429 4.16405 0
M  V30 1383 C 143.315 -2.11621 4.89951 0
M  V30 1384 O 143.538 -3.32684 4.63333 0
M  V30 1385 O 142.472 -1.74835 5.75948 0
M  V30 1386 H 146.298 0.125331 3.03441 0
M  V30 1387 H 143.883 0.127253 1.48857 0
M  V30 1388 H 145.765 -2.27302 3.54841 0
M  V30 1389 H 144.44 -2.22233 2.3536 0
M  V30 1390 H 143.347 -0.353819 3.72423 0
M  V30 1391 H 144.68 -0.485113 4.89804 0
M  V30 1392 N 146.332 -1.57332 0.0918853 0
M  V30 1393 C 147.58 -1.93853 -0.571446 0
M  V30 1394 C 147.901 -0.974212 -1.6892 0
M  V30 1395 O 147.171 -0.0257254 -1.95883 0
M  V30 1396 H 145.751 -0.715666 -0.214082 0
M  V30 1397 H 148.413 -1.94287 0.154464 0
M  V30 1398 H 147.509 -2.96191 -0.983729 0
M  V30 1399 N 147.81 0.181792 -1.56548 0
M  V30 1400 C 149.038 0.915947 -1.85521 0
M  V30 1401 C 149.453 1.76282 -0.676016 0
M  V30 1402 O 148.81 1.79012 0.355077 0
M  V30 1403 C 148.861 1.80126 -3.13427 0
M  V30 1404 O 148.582 0.988562 -4.26801 0
M  V30 1405 C 150.083 2.64597 -3.55673 0
M  V30 1406 H 147.303 0.26661 -0.61576 0
M  V30 1407 H 149.847 0.185039 -2.03661 0
M  V30 1408 H 148.002 2.48563 -2.97145 0
M  V30 1409 H 148.416 1.59308 -4.99721 0
M  V30 1410 H 149.89 3.2235 -4.48101 0
M  V30 1411 H 150.367 3.38958 -2.79292 0
M  V30 1412 H 150.973 2.0151 -3.74532 0
M  V30 1413 N 149.288 1.51039 0.449983 0
M  V30 1414 C 150.516 1.66869 1.2232 0
M  V30 1415 C 150.931 0.360727 1.85322 0
M  V30 1416 O 150.288 -0.659531 1.70166 0
M  V30 1417 C 150.339 2.77524 2.31652 0
M  V30 1418 O 150.06 4.03252 1.7123 0
M  V30 1419 C 151.561 3.04512 3.2216 0
M  V30 1420 H 148.781 0.560326 0.369155 0
M  V30 1421 H 151.325 1.97385 0.534719 0
M  V30 1422 H 149.48 2.49642 2.96239 0
M  V30 1423 H 149.894 4.64609 2.43389 0
M  V30 1424 H 151.368 3.85551 3.95038 0
M  V30 1425 H 151.845 2.16415 3.8218 0
M  V30 1426 H 152.451 3.34005 2.63288 0
M  V30 1427 N 150.766 -0.704594 1.40972 0
M  V30 1428 C 151.729 -1.80035 1.41845 0
M  V30 1429 C 152.729 -1.57774 0.310474 0
M  V30 1430 O 153.919 -1.64613 0.56992 0
M  V30 1431 C 151.051 -3.18284 1.22098 0
M  V30 1432 H 152.244 -1.80658 2.3938 0
M  V30 1433 H 149.797 -0.911329 1.26982 0
M  V30 1434 H 150.532 -3.23306 0.253672 0
M  V30 1435 H 150.317 -3.35843 2.02366 0
M  V30 1436 H 151.807 -3.98289 1.25522 0
M  V30 1437 N 152.244 -1.26651 -0.937939 0
M  V30 1438 C 153.154 -1.10276 -2.07066 0
M  V30 1439 C 154.17 -0.0354197 -1.73964 0
M  V30 1440 O 155.346 -0.239816 -1.99967 0
M  V30 1441 C 152.411 -0.740887 -3.38691 0
M  V30 1442 C 151.472 -1.88799 -3.85556 0
M  V30 1443 C 150.705 -1.54329 -5.10899 0
M  V30 1444 O 150.928 -0.446494 -5.6865 0
M  V30 1445 O 149.862 -2.37911 -5.52885 0
M  V30 1446 H 153.688 -2.05309 -2.23789 0
M  V30 1447 H 151.273 -1.05743 -1.0554 0
M  V30 1448 H 153.155 -0.55195 -4.1777 0
M  V30 1449 H 151.83 0.180022 -3.23199 0
M  V30 1450 H 150.737 -2.13191 -3.07409 0
M  V30 1451 H 152.07 -2.78874 -4.05574 0
M  V30 1452 N 153.722 1.14298 -1.08507 0
M  V30 1453 C 154.632 2.23027 -0.727753 0
M  V30 1454 C 155.648 1.71952 0.26619 0
M  V30 1455 O 156.824 2.011 0.109882 0
M  V30 1456 C 153.889 3.46403 -0.143541 0
M  V30 1457 C 152.95 4.12413 -1.19223 0
M  V30 1458 C 152.183 5.29899 -0.635798 0
M  V30 1459 O 152.406 5.67796 0.544393 0
M  V30 1460 O 151.34 5.85717 -1.38634 0
M  V30 1461 H 155.166 2.55945 -1.63481 0
M  V30 1462 H 152.751 1.22248 -0.858817 0
M  V30 1463 H 154.633 4.21018 0.179404 0
M  V30 1464 H 153.308 3.15206 0.736659 0
M  V30 1465 H 152.215 3.39667 -1.56772 0
M  V30 1466 H 153.548 4.47718 -2.04474 0
M  V30 1467 N 155.201 0.870884 1.31352 0
M  V30 1468 C 156.164 0.332243 2.26779 0
M  V30 1469 C 157.164 -0.517302 1.52252 0
M  V30 1470 O 158.354 -0.326477 1.71113 0
M  V30 1471 C 155.486 -0.528066 3.36785 0
M  V30 1472 H 156.679 1.17469 2.75937 0
M  V30 1473 H 154.232 0.64655 1.423 0
M  V30 1474 H 154.967 -1.39167 2.92922 0
M  V30 1475 H 154.752 0.0802582 3.92018 0
M  V30 1476 H 156.242 -0.897179 4.07849 0
M  V30 1477 N 156.679 -1.44442 0.630414 0
M  V30 1478 C 157.927 -2.01653 0.134351 0
M  V30 1479 C 158.248 -1.49836 -1.24796 0
M  V30 1480 O 157.518 -0.701684 -1.82902 0
M  V30 1481 H 156.098 -0.74554 0.0466769 0
M  V30 1482 H 158.76 -1.76952 0.816955 0
M  V30 1483 H 157.856 -3.11935 0.101498 0
M  V30 1484 N 158.157 -0.370918 -1.53173 0
M  V30 1485 C 159.406 0.218249 -2.00516 0
M  V30 1486 C 159.719 1.49429 -1.26215 0
M  V30 1487 O 160.925 2.16239 -1.64174 0
M  V30 1488 C 159.381 0.43948 -3.57207 0
M  V30 1489 C 158.989 -0.822244 -4.4039 0
M  V30 1490 C 160.733 0.986012 -4.1289 0
M  V30 1491 C 158.64 -0.570304 -5.88644 0
M  V30 1492 H 157.57 0.0853333 -0.749156 0
M  V30 1493 H 160.221 -0.490483 -1.76823 0
M  V30 1494 H 158.603 1.20961 -3.77074 0
M  V30 1495 H 159.777 -1.59557 -4.32294 0
M  V30 1496 H 158.092 -1.29238 -3.95836 0
M  V30 1497 H 160.689 1.18991 -5.21292 0
M  V30 1498 H 161.032 1.94972 -3.6782 0
M  V30 1499 H 161.565 0.27592 -3.96842 0
M  V30 1500 H 158.304 -1.50449 -6.38001 0
M  V30 1501 H 157.824 0.164427 -5.99575 0
M  V30 1502 H 159.503 -0.19784 -6.46697 0
M  V30 1503 N 159.635 1.57281 -0.100228 0
M  V30 1504 C 160.883 1.94153 0.561157 0
M  V30 1505 C 161.204 0.983157 1.68401 0
M  V30 1506 O 160.474 0.0361132 1.95867 0
M  V30 1507 H 159.054 0.716791 0.210283 0
M  V30 1508 H 161.716 1.94202 -0.164765 0
M  V30 1509 H 160.812 2.96709 0.968008 0
M  V30 1510 N 161.113 -0.173488 1.56642 0
M  V30 1511 C 162.39 -0.917617 1.7274 0
M  V30 1512 C 162.77 -2.00484 0.661027 0
M  V30 1513 O 162.118 -2.26184 -0.32453 0
M  V30 1514 C 162.328 -1.48433 3.15862 0
M  V30 1515 C 163.676 -1.95809 3.76754 0
M  V30 1516 O 164.7 -1.58231 3.19126 0
M  V30 1517 O 163.559 -2.65024 4.77938 0
M  V30 1518 H 160.653 -0.431772 0.705338 0
M  V30 1519 H 163.199 -0.161487 1.6893 0
M  V30 1520 H 161.971 -0.701715 3.84957 0
M  V30 1521 H 161.594 -2.30471 3.23989 0
M  V30 1522 N 162.591 -1.51276 -0.441967 0
M  V30 1523 C 163.819 -1.67516 -1.21434 0
M  V30 1524 C 164.234 -0.37055 -1.85128 0
M  V30 1525 O 163.591 0.650498 -1.70513 0
M  V30 1526 C 163.642 -2.78748 -2.30177 0
M  V30 1527 O 163.363 -4.04154 -1.69089 0
M  V30 1528 C 164.864 -3.06217 -3.20541 0
M  V30 1529 H 162.084 -0.562276 -0.366178 0
M  V30 1530 H 164.628 -1.97666 -0.524244 0
M  V30 1531 H 162.783 -2.5121 -2.94911 0
M  V30 1532 H 163.197 -4.65894 -2.40922 0
M  V30 1533 H 164.671 -3.8764 -3.92987 0
M  V30 1534 H 165.148 -2.18439 -3.81026 0
M  V30 1535 H 165.754 -3.35397 -2.61513 0
M  V30 1536 N 164.069 0.697108 -1.41344 0
M  V30 1537 C 165.48 1.27697 -1.36199 0
M  V30 1538 C 165.831 1.9615 -0.0443463 0
M  V30 1539 O 164.956 1.98689 0.857419 0
M  V30 1540 C 165.551 2.32223 -2.46694 0
M  V30 1541 C 164.11 2.8579 -2.44952 0
M  V30 1542 C 163.257 1.59807 -2.26621 0
M  V30 1543 H 166.208 0.491968 -1.50882 0
M  V30 1544 H 166.229 3.1348 -2.15664 0
M  V30 1545 H 165.741 1.82373 -3.42581 0
M  V30 1546 H 163.842 3.3982 -1.52817 0
M  V30 1547 H 163.955 3.36325 -3.41207 0
M  V30 1548 H 162.319 1.8556 -1.7447 0
M  V30 1549 H 163.102 1.11956 -3.24532 0
M  V30 1550 N 165.547 1.27147 0.931209 0
M  V30 1551 C 166.772 1.16191 1.71797 0
M  V30 1552 C 167.197 -0.278004 1.86034 0
M  V30 1553 O 166.555 -1.20137 1.35782 0
M  V30 1554 C 166.603 1.84673 3.09723 0
M  V30 1555 O 165.707 1.14231 3.96264 0
M  V30 1556 H 165.048 0.404303 0.526721 0
M  V30 1557 H 167.578 1.68152 1.1656 0
M  V30 1558 H 167.588 1.91893 3.60057 0
M  V30 1559 H 166.263 2.89421 2.98677 0
M  V30 1560 H 164.84 1.15056 3.54706 0
M  V30 1561 N 167.025 -1.13721 1.09112 0
M  V30 1562 C 167.955 -2.21148 0.749385 0
M  V30 1563 C 168.936 -1.6792 -0.271475 0
M  V30 1564 O 170.121 -1.93693 -0.140251 0
M  V30 1565 C 167.251 -3.46905 0.165659 0
M  V30 1566 C 166.205 -4.13203 1.11567 0
M  V30 1567 C 165.531 -5.33248 0.393809 0
M  V30 1568 C 166.831 -4.60912 2.45678 0
M  V30 1569 H 168.525 -2.4999 1.64758 0
M  V30 1570 H 166.071 -1.20156 0.793626 0
M  V30 1571 H 168.024 -4.21313 -0.085466 0
M  V30 1572 H 166.748 -3.17449 -0.767714 0
M  V30 1573 H 165.407 -3.40758 1.35202 0
M  V30 1574 H 165.055 -5.00054 -0.543599 0
M  V30 1575 H 164.755 -5.78552 1.02721 0
M  V30 1576 H 166.279 -6.10413 0.150908 0
M  V30 1577 H 167.693 -5.26759 2.26269 0
M  V30 1578 H 166.09 -5.16944 3.04776 0
M  V30 1579 H 167.16 -3.75603 3.06677 0
M  V30 1580 N 168.503 -0.877838 -1.30888 0
M  V30 1581 C 169.413 -0.343096 -2.32078 0
M  V30 1582 C 170.429 0.551022 -1.65045 0
M  V30 1583 O 171.605 0.445854 -1.96403 0
M  V30 1584 C 168.67 0.439905 -3.43898 0
M  V30 1585 C 167.731 -0.483111 -4.26573 0
M  V30 1586 C 166.964 0.262616 -5.33053 0
M  V30 1587 O 167.187 1.48967 -5.50604 0
M  V30 1588 O 166.121 -0.383593 -6.00676 0
M  V30 1589 H 169.947 -1.18203 -2.79753 0
M  V30 1590 H 167.532 -0.64145 -1.34929 0
M  V30 1591 H 169.414 0.883504 -4.12034 0
M  V30 1592 H 168.089 1.25526 -2.98371 0
M  V30 1593 H 166.996 -0.975374 -3.61161 0
M  V30 1594 H 168.329 -1.26427 -4.75686 0
M  V30 1595 N 169.982 1.44106 -0.638065 0
M  V30 1596 C 171.259 1.95453 -0.0759321 0
M  V30 1597 C 171.639 1.57984 1.40015 0
M  V30 1598 O 170.987 0.857361 2.11806 0
M  V30 1599 C 171.197 3.47655 -0.306132 0
M  V30 1600 C 172.545 4.24114 -0.203008 0
M  V30 1601 O 173.569 3.55405 -0.237871 0
M  V30 1602 O 172.428 5.46381 -0.113827 0
M  V30 1603 H 169.522 0.826797 0.0183332 0
M  V30 1604 H 172.068 1.54122 -0.710251 0
M  V30 1605 H 170.84 3.68 -1.3301 0
M  V30 1606 H 170.463 3.95949 0.361991 0
M  V30 1607 N 171.46 0.379036 1.52974 0
M  V30 1608 C 172.37 -0.468639 2.29872 0
M  V30 1609 C 173.386 -1.08067 1.36373 0
M  V30 1610 O 174.562 -1.08871 1.69438 0
M  V30 1611 C 171.627 -1.58594 3.083 0
M  V30 1612 C 170.688 -1.00007 4.17489 0
M  V30 1613 C 169.921 -2.06413 4.92168 0
M  V30 1614 O 170.144 -3.27751 4.66835 0
M  V30 1615 O 169.078 -1.68717 5.7777 0
M  V30 1616 H 172.904 0.157508 3.03291 0
M  V30 1617 H 170.489 0.143035 1.48714 0
M  V30 1618 H 172.371 -2.23525 3.57232 0
M  V30 1619 H 171.046 -2.19724 2.37703 0
M  V30 1620 H 169.953 -0.314299 3.72777 0
M  V30 1621 H 171.286 -0.433135 4.90291 0
M  V30 1622 N 172.938 -1.57226 0.108567 0
M  V30 1623 C 173.901 -2.13602 -0.831082 0
M  V30 1624 C 174.901 -1.06841 -1.20173 0
M  V30 1625 O 176.091 -1.32666 -1.12895 0
M  V30 1626 C 173.223 -2.66769 -2.12243 0
M  V30 1627 H 174.416 -2.97951 -0.341317 0
M  V30 1628 H 171.969 -1.55667 -0.14057 0
M  V30 1629 H 172.704 -1.85977 -2.65675 0
M  V30 1630 H 172.489 -3.44839 -1.86625 0
M  V30 1631 H 173.979 -3.10332 -2.79435 0
M  V30 1632 N 174.416 0.165178 -1.56732 0
M  V30 1633 C 175.379 1.18822 -1.95995 0
M  V30 1634 C 176.379 1.3685 -0.84431 0
M  V30 1635 O 177.569 1.34152 -1.11126 0
M  V30 1636 C 174.701 2.5521 -2.26011 0
M  V30 1637 H 175.894 0.851825 -2.87548 0
M  V30 1638 H 173.447 0.407857 -1.50885 0
M  V30 1639 H 174.182 2.93852 -1.37191 0
M  V30 1640 H 173.967 2.43489 -3.07336 0
M  V30 1641 H 175.457 3.28927 -2.57288 0
M  V30 1642 N 175.894 1.51508 0.433938 0
M  V30 1643 C 177.142 1.6402 1.18075 0
M  V30 1644 C 177.463 0.360328 1.91642 0
M  V30 1645 O 176.733 -0.623945 1.85698 0
M  V30 1646 H 175.313 0.6045 0.43885 0
M  V30 1647 H 177.975 1.88452 0.497178 0
M  V30 1648 H 177.071 2.46949 1.90847 0
M  V30 1649 N 177.372 -0.689602 1.41712 0
M  V30 1650 C 178.322 -1.79571 1.40493 0
M  V30 1651 C 179.306 -1.58473 0.278409 0
M  V30 1652 O 180.498 -1.69204 0.519532 0
M  V30 1653 C 177.627 -3.17923 1.29536 0
M  V30 1654 C 176.713 -3.44695 2.47075 0
M  V30 1655 N 177.104 -3.42132 3.72531 0
M  V30 1656 C 175.402 -3.75269 2.41017 0
M  V30 1657 C 176.103 -3.67976 4.50521 0
M  V30 1658 N 175.079 -3.88014 3.80718 0
M  V30 1659 H 178.881 -1.75961 2.35404 0
M  V30 1660 H 176.395 -0.889839 1.35851 0
M  V30 1661 H 178.392 -3.97167 1.26745 0
M  V30 1662 H 177.052 -3.22741 0.356153 0
M  V30 1663 H 178.063 -3.22375 4.05333 0
M  V30 1664 H 174.74 -3.87421 1.55599 0
M  V30 1665 H 176.13 -3.7208 5.59469 0
M  V30 1666 N 178.85 -1.27639 -0.924453 0
M  V30 1667 C 180.096 -1.14336 -1.67497 0
M  V30 1668 C 180.429 0.309465 -1.91718 0
M  V30 1669 O 179.704 1.22608 -1.50989 0
M  V30 1670 C 179.987 -1.93096 -3.0395 0
M  V30 1671 C 179.84 -3.46381 -2.8695 0
M  V30 1672 C 181.159 -1.73798 -4.0433 0
M  V30 1673 H 178.278 -0.416728 -0.607871 0
M  V30 1674 H 180.92 -1.56832 -1.07256 0
M  V30 1675 H 179.07 -1.56982 -3.55372 0
M  V30 1676 H 180.742 -3.92343 -2.42621 0
M  V30 1677 H 178.985 -3.72557 -2.22225 0
M  V30 1678 H 179.656 -3.96735 -3.83804 0
M  V30 1679 H 182.132 -2.05293 -3.61931 0
M  V30 1680 H 181.008 -2.31294 -4.97789 0
M  V30 1681 H 181.269 -0.686725 -4.36734 0
M  V30 1682 N 180.328 1.1314 -1.09713 0
M  V30 1683 C 181.556 1.88321 -0.856898 0
M  V30 1684 C 181.971 1.79276 0.592073 0
M  V30 1685 O 181.328 1.16142 1.40774 0
M  V30 1686 C 181.379 3.37812 -1.28706 0
M  V30 1687 O 181.1 3.46627 -2.67921 0
M  V30 1688 C 182.601 4.29952 -1.07964 0
M  V30 1689 H 179.821 0.596094 -0.308079 0
M  V30 1690 H 182.365 1.43205 -1.45988 0
M  V30 1691 H 180.52 3.805 -0.727912 0
M  V30 1692 H 180.934 4.39579 -2.8613 0
M  V30 1693 H 182.408 5.33159 -1.42986 0
M  V30 1694 H 182.885 4.39196 -0.0176577 0
M  V30 1695 H 183.491 3.93036 -1.62489 0
M  V30 1696 N 181.806 0.884767 1.30421 0
M  V30 1697 C 182.738 0.308655 2.27112 0
M  V30 1698 C 183.751 -0.536655 1.53701 0
M  V30 1699 O 184.94 -0.35624 1.74909 0
M  V30 1700 C 182.04 -0.579782 3.33904 0
M  V30 1701 C 181.213 0.236417 4.36761 0
M  V30 1702 C 180.272 -0.582482 5.22966 0
M  V30 1703 O 179.298 -0.00525502 5.692 0
M  V30 1704 N 180.5 -1.89163 5.48815 0
M  V30 1705 H 183.265 1.13964 2.77186 0
M  V30 1706 H 180.826 0.747731 1.43599 0
M  V30 1707 H 182.818 -1.13366 3.88497 0
M  V30 1708 H 181.388 -1.31144 2.83761 0
M  V30 1709 H 180.608 0.97174 3.82035 0
M  V30 1710 H 181.896 0.795924 5.02536 0
M  V30 1711 H 181.294 -2.38352 5.13035 0
M  V30 1712 H 179.851 -2.39296 6.06284 0
M  V30 1713 N 183.284 -1.43765 0.645699 0
M  V30 1714 C 184.194 -2.34544 -0.0512957 0
M  V30 1715 C 185.21 -1.53455 -0.82022 0
M  V30 1716 O 186.386 -1.86133 -0.769176 0
M  V30 1717 C 183.451 -3.31636 -1.01087 0
M  V30 1718 C 182.512 -4.2863 -0.239712 0
M  V30 1719 C 181.745 -5.21084 -1.15358 0
M  V30 1720 O 181.968 -5.1779 -2.39269 0
M  V30 1721 O 180.902 -5.98593 -0.630038 0
M  V30 1722 H 184.728 -2.95624 0.695718 0
M  V30 1723 H 182.313 -1.43781 0.405882 0
M  V30 1724 H 184.195 -3.9136 -1.56254 0
M  V30 1725 H 182.87 -2.73069 -1.73824 0
M  V30 1726 H 181.777 -3.72408 0.355356 0
M  V30 1727 H 183.11 -4.90157 0.447936 0
M  V30 1728 N 184.763 -0.387143 -1.52771 0
M  V30 1729 C 186.174 0.0873634 -1.86495 0
M  V30 1730 C 186.525 1.46336 -1.30691 0
M  V30 1731 O 185.65 2.068 -0.637409 0
M  V30 1732 C 186.245 0.165305 -3.38396 0
M  V30 1733 C 184.804 0.584101 -3.7184 0
M  V30 1734 C 183.951 -0.255279 -2.76122 0
M  V30 1735 H 186.902 -0.605104 -1.46711 0
M  V30 1736 H 186.923 0.984848 -3.67534 0
M  V30 1737 H 186.435 -0.836301 -3.78982 0
M  V30 1738 H 184.536 1.59315 -3.36823 0
M  V30 1739 H 184.649 0.343749 -4.77865 0
M  V30 1740 H 183.013 0.279126 -2.53166 0
M  V30 1741 H 183.796 -1.25482 -3.19545 0
M  V30 1742 N 186.241 1.57166 -0.116904 0
M  V30 1743 C 187.151 2.18745 0.847812 0
M  V30 1744 C 188.167 1.163 1.29423 0
M  V30 1745 O 189.343 1.48761 1.35765 0
M  V30 1746 C 186.408 2.77307 2.0809 0
M  V30 1747 C 185.469 3.94781 1.68661 0
M  V30 1748 C 184.702 4.50541 2.86091 0
M  V30 1749 O 184.925 4.05202 4.01456 0
M  V30 1750 O 183.859 5.41256 2.63298 0
M  V30 1751 H 187.685 3.01632 0.353778 0
M  V30 1752 H 185.27 1.49005 0.108599 0
M  V30 1753 H 187.152 3.14647 2.80313 0
M  V30 1754 H 185.827 1.97452 2.56504 0
M  V30 1755 H 184.734 3.62214 0.935518 0
M  V30 1756 H 186.067 4.76065 1.24991 0
M  V30 1757 N 187.719 -0.156864 1.56817 0
M  V30 1758 C 188.944 -0.890331 1.87318 0
M  V30 1759 C 189.369 -1.74394 0.704855 0
M  V30 1760 O 188.727 -1.77972 -0.345786 0
M  V30 1761 C 188.775 -1.73102 3.16336 0
M  V30 1762 O 187.879 -2.83422 2.99576 0
M  V30 1763 H 187.22 -0.24857 0.615718 0
M  V30 1764 H 189.75 -0.150649 2.04045 0
M  V30 1765 H 189.76 -2.12803 3.48107 0
M  V30 1766 H 188.435 -1.10412 4.00976 0
M  V30 1767 H 187.012 -2.47199 2.7919 0
M  V30 1768 N 189.197 -1.51736 -0.425897 0
M  V30 1769 C 190.445 -1.64644 -1.17204 0
M  V30 1770 C 190.766 -0.370486 -1.91448 0
M  V30 1771 O 190.036 0.614088 -1.86026 0
M  V30 1772 H 188.616 -0.606819 -0.435638 0
M  V30 1773 H 191.278 -1.88713 -0.487177 0
M  V30 1774 H 190.374 -2.47958 -1.89534 0
M  V30 1775 N 190.675 0.682077 -1.42076 0
M  V30 1776 C 191.622 1.79578 -1.44984 0
M  V30 1777 C 192.592 1.6332 -0.302614 0
M  V30 1778 O 193.777 1.83978 -0.505633 0
M  V30 1779 C 190.917 3.1756 -1.35091 0
M  V30 1780 C 190.03 3.45156 -2.59791 0
M  V30 1781 C 189.165 4.72826 -2.42093 0
M  V30 1782 C 188.204 4.93433 -3.62202 0
M  V30 1783 N 187.341 6.12338 -3.43491 0
M  V30 1784 H 192.181 1.76427 -2.40161 0
M  V30 1785 H 189.718 0.861376 -1.19242 0
M  V30 1786 H 191.676 3.97287 -1.27354 0
M  V30 1787 H 190.306 3.19854 -0.435133 0
M  V30 1788 H 189.358 2.59736 -2.77923 0
M  V30 1789 H 190.67 3.5628 -3.49094 0
M  V30 1790 H 189.824 5.60631 -2.319 0
M  V30 1791 H 188.563 4.63973 -1.50268 0
M  V30 1792 H 187.568 4.04073 -3.72834 0
M  V30 1793 H 188.793 5.04136 -4.54998 0
M  V30 1794 H 186.739 6.04672 -2.54377 0
M  V30 1795 H 186.656 6.2429 -4.26377 0
M  V30 1796 H 187.924 7.02841 -3.37097 0
M  V30 1797 N 192.153 1.28127 0.917671 0
M  V30 1798 C 193.399 1.15223 1.66888 0
M  V30 1799 C 193.732 -0.299293 1.9188 0
M  V30 1800 O 193.007 -1.21805 1.51637 0
M  V30 1801 C 193.29 1.94706 3.02922 0
M  V30 1802 C 193.143 3.47898 2.85109 0
M  V30 1803 C 194.462 1.75939 4.03402 0
M  V30 1804 H 191.581 0.419946 0.605652 0
M  V30 1805 H 194.223 1.57398 1.06423 0
M  V30 1806 H 192.373 1.58864 3.54534 0
M  V30 1807 H 194.045 3.93624 2.40537 0
M  V30 1808 H 192.288 3.7373 2.20246 0
M  V30 1809 H 192.959 3.98765 3.81694 0
M  V30 1810 H 195.435 2.07209 3.60837 0
M  V30 1811 H 194.311 2.33931 4.96556 0
M  V30 1812 H 194.572 0.709877 4.36364 0
M  V30 1813 N 193.631 -1.12557 1.10312 0
M  V30 1814 C 194.877 -1.84311 0.846011 0
M  V30 1815 C 195.21 -1.83805 -0.626859 0
M  V30 1816 O 194.485 -1.28268 -1.46211 0
M  V30 1817 C 194.768 -3.32048 1.39341 0
M  V30 1818 C 194.621 -3.41016 2.93305 0
M  V30 1819 C 195.94 -4.27764 1.03468 0
M  V30 1820 H 193.059 -0.669192 0.30879 0
M  V30 1821 H 195.701 -1.32057 1.36605 0
M  V30 1822 H 193.851 -3.76678 0.951087 0
M  V30 1823 H 195.523 -3.05031 3.46055 0
M  V30 1824 H 193.766 -2.81603 3.29973 0
M  V30 1825 H 194.437 -4.44948 3.26689 0
M  V30 1826 H 196.913 -3.91253 1.41633 0
M  V30 1827 H 195.789 -5.29549 1.44463 0
M  V30 1828 H 196.05 -4.42064 -0.0560404 0
M  V30 1829 N 195.109 -0.891671 -1.2995 0
M  V30 1830 C 196.041 -0.320695 -2.26945 0
M  V30 1831 C 197.054 0.528497 -1.53983 0
M  V30 1832 O 198.243 0.346959 -1.75096 0
M  V30 1833 C 195.343 0.562066 -3.34207 0
M  V30 1834 C 194.516 -0.259576 -4.36629 0
M  V30 1835 C 193.575 0.554739 -5.23268 0
M  V30 1836 O 192.601 -0.0249311 -5.69195 0
M  V30 1837 N 193.803 1.8625 -5.4981 0
M  V30 1838 H 196.568 -1.15432 -2.76578 0
M  V30 1839 H 194.129 -0.755336 -1.432 0
M  V30 1840 H 196.121 1.11304 -3.89093 0
M  V30 1841 H 194.691 1.29637 -2.84452 0
M  V30 1842 H 193.911 -0.991986 -3.81514 0
M  V30 1843 H 195.199 -0.822564 -5.02107 0
M  V30 1844 H 194.597 2.35628 -5.14292 0
M  V30 1845 H 193.154 2.36078 -6.07545 0
M  V30 1846 N 196.587 1.43421 -0.653314 0
M  V30 1847 C 197.497 2.34568 0.0388565 0
M  V30 1848 C 198.513 1.53888 0.81207 0
M  V30 1849 O 199.689 1.86539 0.759294 0
M  V30 1850 C 196.754 3.32167 0.993269 0
M  V30 1851 C 195.815 4.28751 0.216977 0
M  V30 1852 C 195.048 5.21688 1.12593 0
M  V30 1853 O 195.271 5.19052 2.36519 0
M  V30 1854 O 194.205 5.98919 0.598284 0
M  V30 1855 H 198.031 2.95251 -0.711386 0
M  V30 1856 H 195.616 1.43564 -0.413502 0
M  V30 1857 H 197.498 3.92183 1.54176 0
M  V30 1858 H 196.173 2.73987 1.72374 0
M  V30 1859 H 195.08 3.72215 -0.375101 0
M  V30 1860 H 196.413 4.89913 -0.473924 0
M  V30 1861 N 198.065 0.39524 1.52563 0
M  V30 1862 C 199.313 -0.184678 2.01254 0
M  V30 1863 C 199.634 -1.46822 1.28329 0
M  V30 1864 O 198.904 -1.91666 0.405094 0
M  V30 1865 H 197.484 -0.0712355 0.743596 0
M  V30 1866 H 200.146 0.528293 1.87603 0
M  V30 1867 H 199.242 -0.390681 3.09645 0
M  V30 1868 N 199.544 -1.57102 0.125237 0
M  V30 1869 C 200.791 -1.95407 -0.531248 0
M  V30 1870 C 201.119 -1.0089 -1.66287 0
M  V30 1871 O 200.374 -0.0339431 -1.95671 0
M  V30 1872 C 200.673 -3.40096 -1.09862 0
M  V30 1873 C 200.339 -4.50815 -0.0876989 0
M  V30 1874 C 199.001 -4.80824 0.19026 0
M  V30 1875 C 201.353 -5.17724 0.600902 0
M  V30 1876 C 198.681 -5.75058 1.163 0
M  V30 1877 C 201.033 -6.13005 1.56231 0
M  V30 1878 C 199.697 -6.41403 1.8482 0
M  V30 1879 H 198.967 -0.715046 -0.194397 0
M  V30 1880 H 201.614 -1.90373 0.207463 0
M  V30 1881 H 199.919 -3.41855 -1.91422 0
M  V30 1882 H 201.616 -3.6705 -1.61478 0
M  V30 1883 H 198.206 -4.27444 -0.314528 0
M  V30 1884 H 202.39 -4.94691 0.399333 0
M  V30 1885 H 197.646 -5.95362 1.39117 0
M  V30 1886 H 201.82 -6.63934 2.10153 0
M  V30 1887 H 199.447 -7.14229 2.60349 0
M  V30 1888 N 201.022 0.148545 -1.56898 0
M  V30 1889 C 201.952 1.18524 -2.01182 0
M  V30 1890 C 202.933 1.4489 -0.891123 0
M  V30 1891 O 204.118 1.55836 -1.15882 0
M  V30 1892 C 201.248 2.51879 -2.39112 0
M  V30 1893 C 200.202 2.40038 -3.54353 0
M  V30 1894 C 199.528 3.78089 -3.78091 0
M  V30 1895 C 200.828 1.88577 -4.87069 0
M  V30 1896 H 202.522 0.817029 -2.88036 0
M  V30 1897 H 200.068 0.391575 -1.38574 0
M  V30 1898 H 202.021 3.24627 -2.68692 0
M  V30 1899 H 200.745 2.90532 -1.49193 0
M  V30 1900 H 199.404 1.69742 -3.24936 0
M  V30 1901 H 199.052 4.14175 -2.85426 0
M  V30 1902 H 198.752 3.71028 -4.55645 0
M  V30 1903 H 200.276 4.52387 -4.10095 0
M  V30 1904 H 201.69 2.51117 -5.15377 0
M  V30 1905 H 200.087 1.9241 -5.68417 0
M  V30 1906 H 201.157 0.84136 -4.77545 0
M  V30 1907 N 202.5 1.5196 0.417844 0
M  V30 1908 C 203.916 1.40569 0.755816 0
M  V30 1909 C 204.116 0.503316 1.95113 0
M  V30 1910 O 203.172 -0.0341925 2.52477 0
M  V30 1911 C 204.485 2.82947 1.01791 0
M  V30 1912 C 206.033 2.92231 1.12116 0
M  V30 1913 C 206.508 4.35559 1.41608 0
M  V30 1914 N 207.999 4.38753 1.48491 0
M  V30 1915 C 208.734 5.46705 1.7292 0
M  V30 1916 N 208.23 6.64788 1.95011 0
M  V30 1917 N 210.023 5.34209 1.74863 0
M  V30 1918 H 202.174 2.09168 -0.369098 0
M  V30 1919 H 204.437 0.942409 -0.102809 0
M  V30 1920 H 204.143 3.5106 0.212081 0
M  V30 1921 H 204.017 3.23462 1.94042 0
M  V30 1922 H 206.404 2.24304 1.9176 0
M  V30 1923 H 206.485 2.55185 0.177225 0
M  V30 1924 H 206.129 5.04042 0.624848 0
M  V30 1925 H 206.059 4.70133 2.37239 0
M  V30 1926 H 208.55 3.5363 1.33244 0
M  V30 1927 H 208.863 7.42845 2.13076 0
M  V30 1928 H 207.208 6.67869 1.92293 0
M  V30 1929 H 210.399 4.40937 1.57137 0
M  V30 1930 H 210.572 6.18415 1.93563 0
M  V30 1931 N 203.978 -0.674533 1.42435 0
M  V30 1932 C 204.888 -1.81751 1.48337 0
M  V30 1933 C 205.904 -1.69975 0.372099 0
M  V30 1934 O 207.08 -1.91521 0.62304 0
M  V30 1935 C 204.145 -3.17895 1.38361 0
M  V30 1936 C 203.206 -3.41625 2.59982 0
M  V30 1937 C 202.439 -4.71274 2.50473 0
M  V30 1938 O 202.662 -5.49197 1.54075 0
M  V30 1939 O 201.596 -4.96254 3.4061 0
M  V30 1940 H 205.422 -1.79728 2.44809 0
M  V30 1941 H 203.007 -0.830312 1.24202 0
M  V30 1942 H 204.889 -3.99136 1.35161 0
M  V30 1943 H 203.564 -3.20555 0.450144 0
M  V30 1944 H 202.471 -2.60231 2.68757 0
M  V30 1945 H 203.804 -3.43796 3.52229 0
M  V30 1946 N 205.456 -1.28612 -0.910864 0
M  V30 1947 C 206.867 -1.14406 -1.47541 0
M  V30 1948 C 207.218 0.264901 -1.94403 0
M  V30 1949 O 206.343 1.15942 -1.82719 0
M  V30 1950 C 206.938 -2.07073 -2.68153 0
M  V30 1951 C 205.497 -1.96923 -3.20778 0
M  V30 1952 C 204.644 -1.98646 -1.93481 0
M  V30 1953 H 207.595 -1.41259 -0.723291 0
M  V30 1954 H 207.616 -1.63642 -3.43514 0
M  V30 1955 H 207.128 -3.09611 -2.34015 0
M  V30 1956 H 205.229 -0.97433 -3.59635 0
M  V30 1957 H 205.342 -2.84026 -3.85832 0
M  V30 1958 H 203.706 -1.43093 -2.10705 0
M  V30 1959 H 204.489 -3.02868 -1.61634 0
M  V30 1960 N 206.934 1.1197 -1.10907 0
M  V30 1961 C 208.182 1.83225 -0.852819 0
M  V30 1962 C 208.503 1.84769 0.623341 0
M  V30 1963 O 207.773 1.3143 1.45269 0
M  V30 1964 H 206.353 0.67849 -0.312507 0
M  V30 1965 H 209.015 1.3556 -1.40033 0
M  V30 1966 H 208.111 2.87265 -1.22005 0
M  V30 1967 N 208.412 0.89855 1.29475 0
M  V30 1968 C 209.823 0.572537 1.77705 0
M  V30 1969 C 210.174 -0.911778 1.73727 0
M  V30 1970 O 209.299 -1.71288 1.32247 0
M  V30 1971 C 209.894 1.03252 3.22683 0
M  V30 1972 C 208.453 0.757687 3.68695 0
M  V30 1973 C 207.6 1.20787 2.49612 0
M  V30 1974 H 210.551 1.08139 1.16153 0
M  V30 1975 H 210.572 0.367307 3.78723 0
M  V30 1976 H 210.084 2.11285 3.25546 0
M  V30 1977 H 208.185 -0.310079 3.71308 0
M  V30 1978 H 208.298 1.35476 4.59547 0
M  V30 1979 H 206.662 0.626888 2.46865 0
M  V30 1980 H 207.445 2.29622 2.55203 0
M  V30 1981 N 209.89 -1.43072 0.660911 0
M  V30 1982 C 211.301 -1.84932 0.256348 0
M  V30 1983 C 211.652 -1.55325 -1.19868 0
M  V30 1984 O 210.777 -1.00607 -1.91591 0
M  V30 1985 C 211.372 -3.35684 0.458475 0
M  V30 1986 C 209.931 -3.76245 0.108161 0
M  V30 1987 C 209.078 -2.66749 0.757641 0
M  V30 1988 H 212.029 -1.33116 0.864051 0
M  V30 1989 H 212.05 -3.79365 -0.293683 0
M  V30 1990 H 211.562 -3.572 1.51755 0
M  V30 1991 H 209.663 -3.60338 -0.948014 0
M  V30 1992 H 209.776 -4.76058 0.538992 0
M  V30 1993 H 208.14 -2.53989 0.190185 0
M  V30 1994 H 208.923 -2.91092 1.81989 0
M  V30 1995 N 211.368 -0.403325 -1.52352 0
M  V30 1996 C 212.616 0.174003 -2.0135 0
M  V30 1997 C 212.937 1.46139 -1.29106 0
M  V30 1998 O 212.207 1.91448 -0.415253 0
M  V30 1999 H 210.787 0.0672911 -0.743963 0
M  V30 2000 H 213.449 -0.538235 -1.87321 0
M  V30 2001 H 212.545 0.374254 -3.09848 0
M  V30 2002 N 212.846 1.57033 -0.133567 0
M  V30 2003 C 213.776 2.1909 0.807567 0
M  V30 2004 C 214.757 1.13517 1.26681 0
M  V30 2005 O 215.942 1.41809 1.32679 0
M  V30 2006 C 213.072 2.80188 2.05212 0
M  V30 2007 C 212.026 3.91471 1.73015 0
M  V30 2008 C 211.352 4.39443 3.04622 0
M  V30 2009 C 212.652 5.12886 0.987168 0
M  V30 2010 H 214.346 2.97988 0.290403 0
M  V30 2011 H 211.892 1.43335 0.138239 0
M  V30 2012 H 213.845 3.22264 2.71521 0
M  V30 2013 H 212.569 1.98601 2.59278 0
M  V30 2014 H 211.228 3.49993 1.0909 0
M  V30 2015 H 210.876 3.54695 3.56651 0
M  V30 2016 H 210.576 5.14495 2.83847 0
M  V30 2017 H 212.1 4.8418 3.72024 0
M  V30 2018 H 213.514 5.51891 1.55208 0
M  V30 2019 H 211.911 5.93615 0.87985 0
M  V30 2020 H 212.981 4.84894 -0.0235286 0
M  V30 2021 N 214.325 -0.140222 1.56975 0
M  V30 2022 C 215.55 -0.870414 1.88251 0
M  V30 2023 C 215.975 -1.73637 0.723312 0
M  V30 2024 O 215.333 -1.78329 -0.32689 0
M  V30 2025 C 215.381 -1.69737 3.18154 0
M  V30 2026 O 214.485 -2.80229 3.02565 0
M  V30 2027 H 213.826 -0.242025 0.61832 0
M  V30 2028 H 216.356 -0.128999 2.04193 0
M  V30 2029 H 216.366 -2.09099 3.50345 0
M  V30 2030 H 215.041 -1.06152 4.02125 0
M  V30 2031 H 213.618 -2.44224 2.81796 0
M  V30 2032 N 215.803 -1.52179 -0.40978 0
M  V30 2033 C 216.753 -1.71857 -1.49831 0
M  V30 2034 C 217.737 -0.572469 -1.50372 0
M  V30 2035 O 218.929 -0.829509 -1.56359 0
M  V30 2036 C 216.058 -1.87206 -2.87765 0
M  V30 2037 C 215.144 -3.07685 -2.91875 0
M  V30 2038 N 215.535 -4.30403 -2.65683 0
M  V30 2039 C 213.833 -3.07505 -3.23043 0
M  V30 2040 C 214.534 -5.11868 -2.76344 0
M  V30 2041 N 213.51 -4.47101 -3.09195 0
M  V30 2042 H 217.312 -2.64381 -1.28375 0
M  V30 2043 H 214.826 -1.50203 -0.617479 0
M  V30 2044 H 216.823 -1.99419 -3.66111 0
M  V30 2045 H 215.483 -0.958814 -3.10221 0
M  V30 2046 H 216.494 -4.58887 -2.4009 0
M  V30 2047 H 213.171 -2.25915 -3.51096 0
M  V30 2048 H 214.561 -6.19634 -2.59814 0
M  V30 2049 N 217.281 0.66697 -1.42791 0
M  V30 2050 C 218.213 1.7925 -1.42836 0
M  V30 2051 C 219.226 1.59496 -0.326333 0
M  V30 2052 O 220.415 1.6847 -0.589916 0
M  V30 2053 C 217.515 3.16476 -1.21229 0
M  V30 2054 C 216.688 3.63011 -2.44013 0
M  V30 2055 C 215.747 4.78993 -2.17834 0
M  V30 2056 O 214.773 4.89137 -2.91091 0
M  V30 2057 N 215.975 5.68248 -1.18635 0
M  V30 2058 H 218.74 1.79695 -2.39854 0
M  V30 2059 H 216.301 0.850338 -1.37771 0
M  V30 2060 H 218.293 3.91734 -1.01621 0
M  V30 2061 H 216.863 3.10884 -0.32706 0
M  V30 2062 H 216.083 2.78346 -2.79137 0
M  V30 2063 H 217.371 3.90845 -3.25757 0
M  V30 2064 H 216.769 5.62712 -0.580615 0
M  V30 2065 H 215.326 6.43285 -1.05013 0
M  V30 2066 N 218.759 1.29093 0.90403 0
M  V30 2067 C 219.689 1.16401 2.02418 0
M  V30 2068 C 220.67 0.0593085 1.69997 0
M  V30 2069 O 221.855 0.238021 1.92736 0
M  V30 2070 C 218.985 0.835233 3.37107 0
M  V30 2071 C 217.939 1.89578 3.83724 0
M  V30 2072 C 217.265 1.42041 5.15489 0
M  V30 2073 C 218.565 3.30394 4.04521 0
M  V30 2074 H 220.259 2.10109 2.13295 0
M  V30 2075 H 217.805 1.01157 1.02486 0
M  V30 2076 H 219.758 0.733169 4.14973 0
M  V30 2077 H 218.482 -0.137543 3.2631 0
M  V30 2078 H 217.141 1.98715 3.08071 0
M  V30 2079 H 216.789 0.436426 5.01103 0
M  V30 2080 H 216.489 2.12964 5.4765 0
M  V30 2081 H 218.013 1.33176 5.959 0
M  V30 2082 H 219.427 3.24123 4.72882 0
M  V30 2083 H 217.824 3.99237 4.48029 0
M  V30 2084 H 218.894 3.73692 3.09002 0
M  V30 2085 N 220.237 -1.11381 1.11499 0
M  V30 2086 C 221.17 -2.16621 0.71769 0
M  V30 2087 C 222.148 -1.60058 -0.286413 0
M  V30 2088 O 223.332 -1.87613 -0.182689 0
M  V30 2089 C 220.459 -3.38646 0.0607265 0
M  V30 2090 C 219.505 -4.13874 1.03008 0
M  V30 2091 S 220.338 -4.70731 2.55289 0
M  V30 2092 C 221.494 -5.96079 1.90895 0
M  V30 2093 H 221.727 -2.49987 1.60915 0
M  V30 2094 H 219.26 -1.23015 0.933092 0
M  V30 2095 H 221.218 -4.09313 -0.311965 0
M  V30 2096 H 219.879 -3.03537 -0.807702 0
M  V30 2097 H 219.072 -5.01333 0.517853 0
M  V30 2098 H 218.674 -3.4897 1.34522 0
M  V30 2099 H 220.966 -6.65948 1.24577 0
M  V30 2100 H 221.909 -6.51946 2.76354 0
M  V30 2101 H 222.317 -5.47652 1.36885 0
M  V30 2102 N 221.715 -0.905404 -1.28997 0
M  V30 2103 C 222.94 -0.549175 -1.99997 0
M  V30 2104 C 223.365 0.860276 -1.67275 0
M  V30 2105 O 222.723 1.57355 -0.900502 0
M  V30 2106 C 222.771 -0.755185 -3.52604 0
M  V30 2107 O 221.875 0.189692 -4.11964 0
M  V30 2108 H 221.216 -0.213899 -0.628604 0
M  V30 2109 H 223.746 -1.21856 -1.64354 0
M  V30 2110 H 223.756 -0.662045 -4.02593 0
M  V30 2111 H 222.431 -1.78271 -3.75755 0
M  V30 2112 H 221.008 0.0485257 -3.72868 0
M  V30 2113 N 223.193 1.4272 -0.668489 0
M  V30 2114 C 224.441 2.01226 -0.187769 0
M  V30 2115 C 224.762 1.53092 1.2078 0
M  V30 2116 O 224.032 0.74993 1.80977 0
M  V30 2117 H 222.612 0.744041 -0.0664272 0
M  V30 2118 H 225.274 1.74723 -0.863583 0
M  V30 2119 H 224.37 3.11556 -0.184166 0
M  V30 2120 N 224.671 0.411399 1.52136 0
M  V30 2121 C 225.604 -0.457614 2.23565 0
M  V30 2122 C 226.582 -1.04613 1.24478 0
M  V30 2123 O 227.766 -1.09356 1.53536 0
M  V30 2124 C 224.893 -1.6354 2.96602 0
M  V30 2125 C 223.939 -1.17005 4.10137 0
M  V30 2126 S 224.772 -0.13333 5.35334 0
M  V30 2127 C 225.928 -1.31638 6.119 0
M  V30 2128 H 226.161 0.148883 2.96927 0
M  V30 2129 H 223.694 0.195713 1.53155 0
M  V30 2130 H 225.652 -2.31074 3.39286 0
M  V30 2131 H 224.313 -2.21324 2.22878 0
M  V30 2132 H 223.506 -2.05005 4.60422 0
M  V30 2133 H 223.108 -0.573319 3.6958 0
M  V30 2134 H 225.4 -2.23957 6.39413 0
M  V30 2135 H 226.343 -0.854014 7.02931 0
M  V30 2136 H 226.751 -1.54321 5.42997 0
M  V30 2137 N 226.149 -1.5696 0.141893 0
M  V30 2138 C 227.56 -1.82797 -0.379776 0
M  V30 2139 C 227.911 -1.06033 -1.6508 0
M  V30 2140 O 227.036 -0.304011 -2.14254 0
M  V30 2141 C 227.631 -3.31578 -0.695802 0
M  V30 2142 C 226.19 -3.58014 -1.16201 0
M  V30 2143 C 225.337 -2.76699 -0.182455 0
M  V30 2144 H 228.288 -1.54406 0.366675 0
M  V30 2145 H 228.309 -3.47454 -1.55099 0
M  V30 2146 H 227.821 -3.87421 0.229449 0
M  V30 2147 H 225.922 -3.07553 -2.10338 0
M  V30 2148 H 226.035 -4.66501 -1.09151 0
M  V30 2149 H 224.399 -2.45618 -0.674072 0
M  V30 2150 H 225.182 -3.35311 0.736297 0
M  V30 2151 N 227.627 0.131896 -1.57047 0
M  V30 2152 C 228.875 0.840269 -1.83804 0
M  V30 2153 C 229.196 1.81017 -0.72512 0
M  V30 2154 O 228.466 1.94272 0.251995 0
M  V30 2155 H 227.046 0.313294 -0.678127 0
M  V30 2156 H 229.708 0.122294 -1.94516 0
M  V30 2157 H 228.804 1.39335 -2.79271 0
M  V30 2158 N 229.106 1.52395 0.401703 0
M  V30 2159 C 230.069 1.75636 1.47257 0
M  V30 2160 C 231.069 0.62628 1.48103 0
M  V30 2161 O 232.259 0.894227 1.49497 0
M  V30 2162 C 229.391 1.84553 2.86624 0
M  V30 2163 H 230.584 2.71241 1.27938 0
M  V30 2164 H 228.137 1.42923 0.632662 0
M  V30 2165 H 228.872 0.908882 3.11303 0
M  V30 2166 H 228.657 2.66715 2.87412 0
M  V30 2167 H 230.147 2.04251 3.64241 0
M  V30 2168 N 230.584 -0.659388 1.43143 0
M  V30 2169 C 231.995 -1.24041 1.39537 0
M  V30 2170 C 232.346 -1.95963 0.0963364 0
M  V30 2171 O 231.471 -2.00892 -0.804438 0
M  V30 2172 C 232.066 -2.25601 2.52764 0
M  V30 2173 C 230.625 -2.79195 2.52443 0
M  V30 2174 C 229.772 -1.53743 2.30778 0
M  V30 2175 H 232.723 -0.451792 1.52133 0
M  V30 2176 H 232.744 -3.07651 2.23899 0
M  V30 2177 H 232.256 -1.73226 3.47296 0
M  V30 2178 H 230.357 -3.35649 1.61773 0
M  V30 2179 H 230.47 -3.2716 3.50004 0
M  V30 2180 H 228.834 -1.80869 1.79328 0
M  V30 2181 H 229.617 -1.03312 3.27386 0
M  V30 2182 N 232.062 -1.29571 -0.897171 0
M  V30 2183 C 232.992 -1.17473 -2.01798 0
M  V30 2184 C 233.973 -0.068323 -1.69963 0
M  V30 2185 O 235.158 -0.248239 -1.92607 0
M  V30 2186 C 232.288 -0.853099 -3.36659 0
M  V30 2187 C 231.242 -1.9161 -3.82713 0
M  V30 2188 C 230.568 -1.44773 -5.14728 0
M  V30 2189 C 231.868 -3.32535 -4.02763 0
M  V30 2190 H 233.562 -2.11237 -2.12177 0
M  V30 2191 H 231.108 -1.01699 -1.01948 0
M  V30 2192 H 233.061 -0.755165 -4.14578 0
M  V30 2193 H 231.785 0.120236 -3.26379 0
M  V30 2194 H 230.444 -2.00346 -3.07013 0
M  V30 2195 H 230.092 -0.462995 -5.00865 0
M  V30 2196 H 229.792 -2.15865 -5.46513 0
M  V30 2197 H 231.316 -1.36334 -5.95185 0
M  V30 2198 H 232.73 -3.26626 -4.71156 0
M  V30 2199 H 231.127 -4.01607 -4.45905 0
M  V30 2200 H 232.197 -3.75326 -3.07016 0
M  V30 2201 N 233.54 1.10788 -1.12088 0
M  V30 2202 C 234.47 2.19083 -0.807755 0
M  V30 2203 C 235.451 1.6858 0.226859 0
M  V30 2204 O 236.636 1.93997 0.0888475 0
M  V30 2205 C 233.766 3.46344 -0.257576 0
M  V30 2206 C 232.72 4.101 -1.22483 0
M  V30 2207 C 232.046 5.32016 -0.535052 0
M  V30 2208 C 233.346 4.54236 -2.57811 0
M  V30 2209 H 235.04 2.45534 -1.71328 0
M  V30 2210 H 232.586 1.1801 -0.825205 0
M  V30 2211 H 234.539 4.21392 -0.0262679 0
M  V30 2212 H 233.263 3.19373 0.683278 0
M  V30 2213 H 231.922 3.37054 -1.44189 0
M  V30 2214 H 231.57 5.01319 0.410827 0
M  V30 2215 H 231.27 5.75625 -1.18024 0
M  V30 2216 H 232.794 6.09799 -0.312695 0
M  V30 2217 H 234.208 5.20575 -2.40155 0
M  V30 2218 H 232.605 5.08682 -3.18375 0
M  V30 2219 H 233.675 3.6734 -3.16528 0
M  V30 2220 N 235.018 0.912232 1.28515 0
M  V30 2221 C 236.429 0.591352 1.77087 0
M  V30 2222 C 236.78 -0.8933 1.74684 0
M  V30 2223 O 235.905 -1.69876 1.34056 0
M  V30 2224 C 236.5 1.06668 3.2157 0
M  V30 2225 C 235.059 0.79675 3.67871 0
M  V30 2226 C 234.206 1.23427 2.48316 0
M  V30 2227 H 237.157 1.09365 1.15 0
M  V30 2228 H 237.178 0.407455 3.78312 0
M  V30 2229 H 236.69 2.14726 3.23287 0
M  V30 2230 H 234.791 -0.270679 3.71616 0
M  V30 2231 H 234.904 1.40343 4.58084 0
M  V30 2232 H 233.268 0.653036 2.46186 0
M  V30 2233 H 234.051 2.32316 2.52753 0
M  V30 2234 N 236.496 -1.42363 0.676048 0
M  V30 2235 C 237.406 -2.346 -0.00153389 0
M  V30 2236 C 238.422 -1.5516 -0.787485 0
M  V30 2237 O 239.598 -1.87723 -0.729521 0
M  V30 2238 C 236.663 -3.33705 -0.940298 0
M  V30 2239 C 235.724 -4.29042 -0.148739 0
M  V30 2240 C 234.957 -5.23413 -1.04279 0
M  V30 2241 O 235.18 -5.22749 -2.28232 0
M  V30 2242 O 234.114 -5.99795 -0.502925 0
M  V30 2243 H 237.94 -2.94082 0.758268 0
M  V30 2244 H 235.525 -1.42888 0.436289 0
M  V30 2245 H 237.407 -3.94586 -1.47917 0
M  V30 2246 H 236.082 -2.76695 -1.67993 0
M  V30 2247 H 234.989 -3.71571 0.43427 0
M  V30 2248 H 236.322 -4.89097 0.551805 0
M  V30 2249 N 237.974 -0.419461 -1.51915 0
M  V30 2250 C 239.222 0.152637 -2.01523 0
M  V30 2251 C 239.543 1.44762 -1.30649 0
M  V30 2252 O 238.813 1.90997 -0.435535 0
M  V30 2253 H 237.393 0.0593966 -0.744635 0
M  V30 2254 H 240.055 -0.558073 -1.86739 0
M  V30 2255 H 239.151 0.341369 -3.10227 0
M  V30 2256 N 239.452 1.56882 -0.150215 0
M  V30 2257 C 240.863 1.82995 0.370076 0
M  V30 2258 C 241.214 1.06907 1.64515 0
M  V30 2259 O 240.339 0.315369 2.1409 0
M  V30 2260 C 240.934 3.31942 0.678208 0
M  V30 2261 C 239.493 3.58625 1.14301 0
M  V30 2262 C 238.64 2.76792 0.167778 0
M  V30 2263 H 241.591 1.54209 -0.374858 0
M  V30 2264 H 241.612 3.48272 1.53254 0
M  V30 2265 H 241.124 3.87294 -0.249991 0
M  V30 2266 H 239.225 3.08664 2.08704 0
M  V30 2267 H 239.338 4.67073 1.06676 0
M  V30 2268 H 237.702 2.45972 0.661037 0
M  V30 2269 H 238.485 3.34916 -0.754069 0
M  V30 2270 N 240.93 -0.123565 1.57115 0
M  V30 2271 C 242.346 -0.476961 1.52306 0
M  V30 2272 C 242.546 -1.82109 0.86248 0
M  V30 2273 O 241.602 -2.48586 0.442884 0
M  V30 2274 C 242.915 -0.465661 2.97073 0
M  V30 2275 C 244.463 -0.549534 3.08138 0
M  V30 2276 C 244.938 -0.568669 4.54456 0
M  V30 2277 N 246.429 -0.630237 4.58892 0
M  V30 2278 C 247.164 -0.666415 5.69514 0
M  V30 2279 N 246.66 -0.660514 6.89644 0
M  V30 2280 N 248.453 -0.709077 5.5761 0
M  V30 2281 H 240.604 0.757198 1.98445 0
M  V30 2282 H 242.867 0.278808 0.906074 0
M  V30 2283 H 242.573 0.454232 3.48754 0
M  V30 2284 H 242.447 -1.29513 3.54269 0
M  V30 2285 H 244.834 -1.45985 2.56461 0
M  V30 2286 H 244.915 0.307532 2.53945 0
M  V30 2287 H 244.559 0.337581 5.06777 0
M  V30 2288 H 244.489 -1.44256 5.06456 0
M  V30 2289 H 246.98 -0.641146 3.72421 0
M  V30 2290 H 247.293 -0.690616 7.69708 0
M  V30 2291 H 245.638 -0.628012 6.92157 0
M  V30 2292 H 248.829 -0.711019 4.62668 0
M  V30 2293 H 249.002 -0.733804 6.43832 0
M  V30 2294 N 242.408 -1.52605 -0.393616 0
M  V30 2295 C 243.318 -1.79971 -1.50492 0
M  V30 2296 C 244.334 -0.686181 -1.59899 0
M  V30 2297 O 245.51 -0.973274 -1.76322 0
M  V30 2298 C 242.575 -1.95867 -2.86072 0
M  V30 2299 C 241.636 -3.19781 -2.86424 0
M  V30 2300 C 240.869 -3.34909 -4.15538 0
M  V30 2301 O 241.092 -2.54948 -5.10253 0
M  V30 2302 O 240.026 -4.28141 -4.23059 0
M  V30 2303 H 243.852 -2.74328 -1.30299 0
M  V30 2304 H 241.437 -1.3764 -0.581005 0
M  V30 2305 H 243.319 -2.08056 -3.66457 0
M  V30 2306 H 241.994 -1.04699 -3.063 0
M  V30 2307 H 240.901 -3.13038 -2.04837 0
M  V30 2308 H 242.234 -4.1078 -2.71147 0
M  V30 2309 N 243.887 0.651787 -1.4349 0
M  V30 2310 C 244.85 1.74647 -1.48429 0
M  V30 2311 C 245.85 1.56513 -0.368817 0
M  V30 2312 O 247.04 1.62385 -0.630623 0
M  V30 2313 C 244.172 3.13533 -1.33827 0
M  V30 2314 H 245.365 1.71649 -2.4592 0
M  V30 2315 H 242.918 0.863573 -1.30277 0
M  V30 2316 H 243.653 3.22142 -0.37349 0
M  V30 2317 H 243.438 3.28101 -2.14691 0
M  V30 2318 H 244.928 3.93356 -1.40218 0
M  V30 2319 N 245.365 1.30045 0.890287 0
M  V30 2320 C 246.593 1.21472 1.67487 0
M  V30 2321 C 247.008 -0.223241 1.87476 0
M  V30 2322 O 246.365 -1.14828 1.41847 0
M  V30 2323 C 246.416 1.93394 3.05419 0
M  V30 2324 O 246.137 3.31576 2.86337 0
M  V30 2325 C 247.638 1.91414 3.99844 0
M  V30 2326 H 244.858 0.420604 0.522813 0
M  V30 2327 H 247.402 1.7158 1.11268 0
M  V30 2328 H 245.557 1.47099 3.58386 0
M  V30 2329 H 245.971 3.67929 3.73802 0
M  V30 2330 H 247.445 2.46285 4.94012 0
M  V30 2331 H 247.922 0.891833 4.3005 0
M  V30 2332 H 248.528 2.37496 3.52811 0
M  V30 2333 N 246.843 -1.10192 1.12674 0
M  V30 2334 C 248.259 -1.34235 0.863317 0
M  V30 2335 C 248.459 -1.95062 -0.505277 0
M  V30 2336 O 247.515 -2.19192 -1.25345 0
M  V30 2337 C 248.828 -2.2616 1.98172 0
M  V30 2338 C 250.376 -2.3969 2.0129 0
M  V30 2339 C 250.851 -3.34946 3.1237 0
M  V30 2340 N 252.342 -3.42515 3.11829 0
M  V30 2341 C 253.077 -4.16199 3.94419 0
M  V30 2342 N 252.573 -4.92747 4.87004 0
M  V30 2343 N 254.366 -4.11843 3.82547 0
M  V30 2344 H 246.517 -0.690798 2.00853 0
M  V30 2345 H 248.78 -0.366774 0.874174 0
M  V30 2346 H 248.486 -1.8868 2.96804 0
M  V30 2347 H 248.36 -3.26488 1.88906 0
M  V30 2348 H 250.747 -2.76438 1.03276 0
M  V30 2349 H 250.828 -1.39169 2.14629 0
M  V30 2350 H 250.472 -2.98923 4.10619 0
M  V30 2351 H 250.402 -4.35353 2.96269 0
M  V30 2352 H 252.893 -2.87926 2.44759 0
M  V30 2353 H 253.206 -5.46376 5.46528 0
M  V30 2354 H 251.551 -4.91862 4.91016 0
M  V30 2355 H 254.742 -3.51136 3.0955 0
M  V30 2356 H 254.915 -4.69007 4.47142 0
M  V30 2357 N 248.321 -0.919034 -1.28029 0
M  V30 2358 C 249.253 -0.368762 -2.26214 0
M  V30 2359 C 250.266 0.495716 -1.55069 0
M  V30 2360 O 251.455 0.30974 -1.75792 0
M  V30 2361 C 248.555 0.491049 -3.35324 0
M  V30 2362 C 247.728 -0.352133 -4.3598 0
M  V30 2363 C 246.787 0.443622 -5.24327 0
M  V30 2364 O 245.813 -0.14566 -5.69014 0
M  V30 2365 N 247.015 1.74545 -5.53637 0
M  V30 2366 H 249.78 -1.21273 -2.74068 0
M  V30 2367 H 247.341 -0.785541 -1.41566 0
M  V30 2368 H 249.333 1.03026 -3.91366 0
M  V30 2369 H 247.903 1.23574 -2.87138 0
M  V30 2370 H 247.123 -1.07269 -3.79324 0
M  V30 2371 H 248.411 -0.928883 -5.00249 0
M  V30 2372 H 247.809 2.24666 -5.19174 0
M  V30 2373 H 246.366 2.23138 -6.12416 0
M  V30 2374 N 249.799 1.42003 -0.683588 0
M  V30 2375 C 251.21 1.84501 -0.285736 0
M  V30 2376 C 251.561 1.57213 1.17382 0
M  V30 2377 O 250.686 1.03642 1.89966 0
M  V30 2378 C 251.281 3.34912 -0.511821 0
M  V30 2379 C 249.84 3.76025 -0.168005 0
M  V30 2380 C 248.987 2.6551 -0.799983 0
M  V30 2381 H 251.938 1.31724 -0.885119 0
M  V30 2382 H 251.959 3.79784 0.233292 0
M  V30 2383 H 251.471 3.54741 -1.57418 0
M  V30 2384 H 249.572 3.61801 0.890567 0
M  V30 2385 H 249.685 4.75141 -0.614661 0
M  V30 2386 H 248.049 2.53654 -0.230568 0
M  V30 2387 H 248.832 2.8816 -1.86597 0
M  V30 2388 N 251.277 0.427512 1.51691 0
M  V30 2389 C 252.502 -0.143601 2.06902 0
M  V30 2390 C 252.927 -1.36536 1.29382 0
M  V30 2391 O 252.285 -1.78289 0.329043 0
M  V30 2392 C 252.333 -0.454207 3.57728 0
M  V30 2393 O 251.437 -1.54228 3.82475 0
M  V30 2394 H 250.778 -0.00617128 0.663971 0
M  V30 2395 H 253.308 0.606014 1.95419 0
M  V30 2396 H 253.318 -0.707525 4.01818 0
M  V30 2397 H 251.993 0.438812 4.13579 0
M  V30 2398 H 250.57 -1.2797 3.50254 0
M  V30 2399 N 252.755 -1.56801 0.158532 0
M  V30 2400 C 254.003 -1.96102 -0.488712 0
M  V30 2401 C 254.324 -1.04498 -1.64636 0
M  V30 2402 O 253.594 -0.108783 -1.95598 0
M  V30 2403 H 252.174 -0.724102 -0.183535 0
M  V30 2404 H 254.836 -1.93457 0.236728 0
M  V30 2405 H 253.932 -3.00097 -0.857219 0
M  V30 2406 N 254.233 0.115231 -1.57178 0
M  V30 2407 C 255.461 0.836437 -1.89239 0
M  V30 2408 C 255.876 1.73256 -0.750175 0
M  V30 2409 O 255.233 1.80357 0.278832 0
M  V30 2410 C 255.284 1.66671 -3.20785 0
M  V30 2411 O 255.005 0.806652 -4.3061 0
M  V30 2412 C 256.506 2.49274 -3.66575 0
M  V30 2413 H 253.726 0.240253 -0.626514 0
M  V30 2414 H 256.27 0.0984932 -2.04263 0
M  V30 2415 H 254.425 2.35737 -3.0742 0
M  V30 2416 H 254.839 1.37969 -5.06028 0
M  V30 2417 H 256.313 3.03055 -4.6137 0
M  V30 2418 H 256.79 3.26807 -2.93417 0
M  V30 2419 H 257.396 1.85443 -3.82741 0
M  V30 2420 N 255.711 1.52812 0.385517 0
M  V30 2421 C 256.959 1.67694 1.12797 0
M  V30 2422 C 257.28 0.421115 1.90399 0
M  V30 2423 O 256.55 -0.564551 1.87589 0
M  V30 2424 H 255.13 0.618155 0.419396 0
M  V30 2425 H 257.792 1.89938 0.436972 0
M  V30 2426 H 256.888 2.52896 1.82894 0
M  V30 2427 N 257.189 -0.644168 1.43834 0
M  V30 2428 C 258.6 -1.22554 1.40845 0
M  V30 2429 C 258.951 -1.9585 0.117115 0
M  V30 2430 O 258.076 -2.01734 -0.783086 0
M  V30 2431 C 258.671 -2.22907 2.55143 0
M  V30 2432 C 257.23 -2.76501 2.5539 0
M  V30 2433 C 256.377 -1.51287 2.32396 0
M  V30 2434 H 259.328 -0.43563 1.52604 0
M  V30 2435 H 259.349 -3.05259 2.2715 0
M  V30 2436 H 258.861 -1.69533 3.49114 0
M  V30 2437 H 256.962 -3.33914 1.65324 0
M  V30 2438 H 257.075 -3.23429 3.53455 0
M  V30 2439 H 255.439 -1.78957 1.81236 0
M  V30 2440 H 256.222 -0.998336 3.28463 0
M  V30 2441 N 258.668 -1.30515 -0.883378 0
M  V30 2442 C 259.578 -1.18959 -2.02203 0
M  V30 2443 C 260.594 -0.109172 -1.73657 0
M  V30 2444 O 261.77 -0.324413 -1.9877 0
M  V30 2445 C 258.835 -0.883871 -3.35244 0
M  V30 2446 C 257.896 -2.04982 -3.77201 0
M  V30 2447 C 257.129 -1.75859 -5.03894 0
M  V30 2448 O 257.352 -0.687276 -5.66244 0
M  V30 2449 O 256.286 -2.61146 -5.42297 0
M  V30 2450 H 260.112 -2.14616 -2.1488 0
M  V30 2451 H 257.697 -1.10124 -1.0096 0
M  V30 2452 H 259.579 -0.728644 -4.15053 0
M  V30 2453 H 258.254 0.0427798 -3.23672 0
M  V30 2454 H 257.161 -2.26038 -2.9809 0
M  V30 2455 H 258.494 -2.95825 -3.93381 0
M  V30 2456 N 260.146 1.09593 -1.13257 0
M  V30 2457 C 261.423 1.78293 -0.804432 0
M  V30 2458 C 261.803 1.99004 0.70431 0
M  V30 2459 O 261.151 1.59007 1.641 0
M  V30 2460 C 261.361 3.10707 -1.5894 0
M  V30 2461 C 262.709 3.85443 -1.78099 0
M  V30 2462 O 263.733 3.20454 -1.55525 0
M  V30 2463 O 262.592 5.02108 -2.15753 0
M  V30 2464 H 259.686 0.773156 -0.293528 0
M  V30 2465 H 262.232 1.16164 -1.23709 0
M  V30 2466 H 261.004 2.91106 -2.61482 0
M  V30 2467 H 260.627 3.80558 -1.15157 0
M  V30 2468 N 261.624 0.925811 1.2754 0
M  V30 2469 C 262.852 0.581509 1.9856 0
M  V30 2470 C 263.267 -0.840041 1.69082 0
M  V30 2471 O 262.624 -1.55805 0.950312 0
M  V30 2472 C 262.675 0.795589 3.52637 0
M  V30 2473 O 262.396 2.16121 3.81082 0
M  V30 2474 C 263.897 0.459744 4.4091 0
M  V30 2475 H 261.117 0.220538 0.633722 0
M  V30 2476 H 263.661 1.24232 1.6244 0
M  V30 2477 H 261.816 0.18161 3.86974 0
M  V30 2478 H 262.23 2.2098 4.75676 0
M  V30 2479 H 263.704 0.660244 5.48037 0
M  V30 2480 H 264.181 -0.604625 4.35018 0
M  V30 2481 H 264.787 1.05178 4.12089 0
M  V30 2482 N 263.102 -1.41638 0.69111 0
M  V30 2483 C 264.012 -2.34588 0.0233487 0
M  V30 2484 C 265.028 -1.55987 -0.770984 0
M  V30 2485 O 266.204 -1.88486 -0.709569 0
M  V30 2486 C 263.269 -3.34684 -0.904851 0
M  V30 2487 C 262.33 -4.29176 -0.103225 0
M  V30 2488 C 261.563 -5.2449 -0.987216 0
M  V30 2489 O 261.786 -5.2514 -2.22674 0
M  V30 2490 O 260.72 -6.00295 -0.439281 0
M  V30 2491 H 264.546 -2.93261 0.789416 0
M  V30 2492 H 262.131 -1.42417 0.45142 0
M  V30 2493 H 264.013 -3.96133 -1.43724 0
M  V30 2494 H 262.688 -2.78461 -1.65049 0
M  V30 2495 H 261.595 -3.71089 0.473655 0
M  V30 2496 H 262.928 -4.88484 0.60365 0
M  V30 2497 N 264.58 -0.43555 -1.51462 0
M  V30 2498 C 265.828 0.131254 -2.01673 0
M  V30 2499 C 266.149 1.43368 -1.32177 0
M  V30 2500 O 265.419 1.90524 -0.455769 0
M  V30 2501 H 263.999 0.0514954 -0.745223 0
M  V30 2502 H 266.661 -0.577847 -1.86137 0
M  V30 2503 H 265.757 0.308446 -3.10572 0
M  V30 2504 N 266.058 1.56714 -0.166846 0
M  V30 2505 C 267.306 1.96358 0.478305 0
M  V30 2506 C 267.627 1.0537 1.6408 0
M  V30 2507 O 266.897 0.119154 1.95537 0
M  V30 2508 H 265.477 0.725065 0.179692 0
M  V30 2509 H 268.139 1.93329 -0.246985 0
M  V30 2510 H 267.235 3.00547 0.841292 0
M  V30 2511 N 267.536 -0.106894 1.57237 0
M  V30 2512 C 268.952 -0.46078 1.52804 0
M  V30 2513 C 269.152 -1.81184 0.881746 0
M  V30 2514 O 268.208 -2.48102 0.469224 0
M  V30 2515 C 269.521 -0.434127 2.9755 0
M  V30 2516 C 271.069 -0.516821 3.08704 0
M  V30 2517 C 271.544 -0.520436 4.55033 0
M  V30 2518 N 273.035 -0.58153 4.59535 0
M  V30 2519 C 273.77 -0.605973 5.70189 0
M  V30 2520 N 273.266 -0.587331 6.90306 0
M  V30 2521 N 275.059 -0.649895 5.5833 0
M  V30 2522 H 267.21 0.778203 1.9763 0
M  V30 2523 H 269.473 0.288403 0.903066 0
M  V30 2524 H 269.179 0.491197 3.48253 0
M  V30 2525 H 269.053 -1.25748 3.55622 0
M  V30 2526 H 271.44 -1.43256 2.57995 0
M  V30 2527 H 271.521 0.334449 2.53604 0
M  V30 2528 H 271.165 0.391313 5.0639 0
M  V30 2529 H 271.095 -1.38876 5.07958 0
M  V30 2530 H 273.586 -0.60161 3.73081 0
M  V30 2531 H 273.899 -0.60894 7.70397 0
M  V30 2532 H 272.244 -0.554564 6.92784 0
M  V30 2533 H 275.435 -0.661907 4.63397 0
M  V30 2534 H 275.608 -0.665476 6.44574 0
M  V30 2535 N 269.014 -1.53014 -0.377408 0
M  V30 2536 C 269.964 -1.74996 -1.46152 0
M  V30 2537 C 270.948 -0.604236 -1.49123 0
M  V30 2538 O 272.14 -0.862489 -1.54564 0
M  V30 2539 C 269.269 -1.93267 -2.8373 0
M  V30 2540 C 268.355 -3.13807 -2.85283 0
M  V30 2541 N 268.746 -4.35941 -2.56493 0
M  V30 2542 C 267.044 -3.14288 -3.16448 0
M  V30 2543 C 267.745 -5.17615 -2.65424 0
M  V30 2544 N 266.721 -4.53559 -2.99641 0
M  V30 2545 H 270.523 -2.67044 -1.22738 0
M  V30 2546 H 268.037 -1.51479 -0.585479 0
M  V30 2547 H 270.034 -2.0714 -3.61799 0
M  V30 2548 H 268.694 -1.0244 -3.08117 0
M  V30 2549 H 269.705 -4.63876 -2.30302 0
M  V30 2550 H 266.382 -2.33312 -3.46225 0
M  V30 2551 H 267.772 -6.25006 -2.46612 0
M  V30 2552 N 270.492 0.636531 -1.44174 0
M  V30 2553 C 271.455 1.73063 -1.50273 0
M  V30 2554 C 272.455 1.56113 -0.385397 0
M  V30 2555 O 273.645 1.61707 -0.64781 0
M  V30 2556 C 270.777 3.12096 -1.37145 0
M  V30 2557 H 271.97 1.69031 -2.47727 0
M  V30 2558 H 269.523 0.849706 -1.31186 0
M  V30 2559 H 270.258 3.21728 -0.407636 0
M  V30 2560 H 270.043 3.25805 -2.18159 0
M  V30 2561 H 271.533 3.91846 -1.44382 0
M  V30 2562 N 271.97 1.30982 0.876444 0
M  V30 2563 C 273.381 1.18277 1.44456 0
M  V30 2564 C 273.732 -0.213265 1.95037 0
M  V30 2565 O 272.857 -1.11057 1.85729 0
M  V30 2566 C 273.452 2.1411 2.62569 0
M  V30 2567 C 272.011 2.05358 3.15444 0
M  V30 2568 C 271.158 2.03706 1.88146 0
M  V30 2569 H 274.109 1.43127 0.685584 0
M  V30 2570 H 274.13 1.72692 3.39054 0
M  V30 2571 H 273.642 3.15706 2.25724 0
M  V30 2572 H 271.743 1.06934 3.56926 0
M  V30 2573 H 271.856 2.94156 3.78166 0
M  V30 2574 H 270.22 1.48629 2.06837 0
M  V30 2575 H 271.003 3.07047 1.53547 0
M  V30 2576 N 273.449 -1.08991 1.13837 0
M  V30 2577 C 274.359 -2.19301 0.833333 0
M  V30 2578 C 275.375 -1.73026 -0.183847 0
M  V30 2579 O 276.551 -2.01395 -0.0138092 0
M  V30 2580 C 273.616 -3.45323 0.308651 0
M  V30 2581 C 272.677 -4.06255 1.38764 0
M  V30 2582 C 271.91 -5.26262 0.887896 0
M  V30 2583 O 272.133 -5.69747 -0.27287 0
M  V30 2584 O 271.067 -5.78435 1.66421 0
M  V30 2585 H 274.893 -2.47854 1.75506 0
M  V30 2586 H 272.478 -1.18012 0.916166 0
M  V30 2587 H 274.36 -4.21394 0.0216739 0
M  V30 2588 H 273.035 -3.18362 -0.585431 0
M  V30 2589 H 271.942 -3.318 1.72799 0
M  V30 2590 H 273.275 -4.37452 2.25602 0
M  V30 2591 N 274.927 -0.932562 -1.27047 0
M  V30 2592 C 275.857 -0.452902 -2.29066 0
M  V30 2593 C 276.838 0.489338 -1.62909 0
M  V30 2594 O 278.023 0.393046 -1.90181 0
M  V30 2595 C 275.153 0.290698 -3.46081 0
M  V30 2596 C 274.107 -0.564168 -4.24265 0
M  V30 2597 C 273.433 0.308886 -5.33807 0
M  V30 2598 C 274.733 -1.83112 -4.89149 0
M  V30 2599 H 276.427 -1.30552 -2.69437 0
M  V30 2600 H 273.973 -0.629201 -1.29526 0
M  V30 2601 H 275.926 0.637233 -4.16554 0
M  V30 2602 H 274.65 1.17738 -3.0464 0
M  V30 2603 H 273.309 -0.893477 -3.55545 0
M  V30 2604 H 272.957 1.19467 -4.88607 0
M  V30 2605 H 272.657 -0.259633 -5.87026 0
M  V30 2606 H 274.181 0.650884 -6.07121 0
M  V30 2607 H 275.595 -1.55236 -5.51883 0
M  V30 2608 H 273.992 -2.34353 -5.52448 0
M  V30 2609 H 275.062 -2.54772 -4.12576 0
M  V30 2610 N 276.405 1.4127 -0.698611 0
M  V30 2611 C 277.335 2.33447 -0.049629 0
M  V30 2612 C 278.316 1.51982 0.763898 0
M  V30 2613 O 279.501 1.80509 0.716257 0
M  V30 2614 C 276.631 3.35828 0.885267 0
M  V30 2615 C 275.585 4.27627 0.178613 0
M  V30 2616 C 274.911 5.20406 1.22807 0
M  V30 2617 C 276.211 5.13459 -0.956933 0
M  V30 2618 H 277.905 2.87966 -0.81951 0
M  V30 2619 H 275.451 1.38461 -0.395538 0
M  V30 2620 H 277.404 3.9924 1.34854 0
M  V30 2621 H 276.128 2.79666 1.68685 0
M  V30 2622 H 274.787 3.65643 -0.26466 0
M  V30 2623 H 274.435 4.60558 2.02226 0
M  V30 2624 H 274.135 5.82661 0.760239 0
M  V30 2625 H 275.659 5.86695 1.69179 0
M  V30 2626 H 277.073 5.70421 -0.573805 0
M  V30 2627 H 275.47 5.8467 -1.35205 0
M  V30 2628 H 276.54 4.50443 -1.79524 0
M  V30 2629 N 277.883 0.443576 1.51229 0
M  V30 2630 C 278.83 -0.364716 2.279 0
M  V30 2631 C 279.8 -1.0114 1.31757 0
M  V30 2632 O 280.985 -1.02912 1.60667 0
M  V30 2633 C 278.125 -1.45644 3.12861 0
M  V30 2634 C 277.238 -0.827269 4.24005 0
M  V30 2635 C 276.373 -1.89456 4.96266 0
M  V30 2636 C 275.412 -1.24416 5.99322 0
M  V30 2637 N 274.549 -2.25309 6.64966 0
M  V30 2638 H 279.389 0.295464 2.96532 0
M  V30 2639 H 276.926 0.157554 1.46254 0
M  V30 2640 H 278.884 -2.10076 3.6045 0
M  V30 2641 H 277.514 -2.08616 2.46331 0
M  V30 2642 H 276.566 -0.0710839 3.80334 0
M  V30 2643 H 277.878 -0.312481 4.9782 0
M  V30 2644 H 277.032 -2.61535 5.47434 0
M  V30 2645 H 275.771 -2.4431 4.22095 0
M  V30 2646 H 274.776 -0.508868 5.4744 0
M  V30 2647 H 276.001 -0.702882 6.75453 0
M  V30 2648 H 273.947 -2.79231 5.93604 0
M  V30 2649 H 273.864 -1.78739 7.34567 0
M  V30 2650 H 275.132 -2.96853 7.20763 0
M  V30 2651 N 279.361 -1.56624 0.175154 0
M  V30 2652 C 280.311 -2.14747 -0.766004 0
M  V30 2653 C 281.295 -1.08275 -1.19018 0
M  V30 2654 O 282.487 -1.34388 -1.15191 0
M  V30 2655 C 279.616 -2.79478 -1.99366 0
M  V30 2656 C 278.702 -3.93114 -1.5913 0
M  V30 2657 N 279.093 -4.97752 -0.89872 0
M  V30 2658 C 277.391 -4.04345 -1.88204 0
M  V30 2659 C 278.092 -5.77473 -0.700012 0
M  V30 2660 N 277.068 -5.29207 -1.24263 0
M  V30 2661 H 280.87 -2.93015 -0.22793 0
M  V30 2662 H 278.384 -1.6238 -0.0253843 0
M  V30 2663 H 280.381 -3.19498 -2.67818 0
M  V30 2664 H 279.041 -2.02692 -2.53665 0
M  V30 2665 H 280.052 -5.14903 -0.556347 0
M  V30 2666 H 276.729 -3.38667 -2.44153 0
M  V30 2667 H 278.119 -6.71728 -0.152047 0
M  V30 2668 N 280.839 0.0985539 -1.57292 0
M  V30 2669 C 281.771 1.14595 -1.98496 0
M  V30 2670 C 282.784 1.36512 -0.887031 0
M  V30 2671 O 283.973 1.35225 -1.16518 0
M  V30 2672 C 281.073 2.50216 -2.28572 0
M  V30 2673 C 280.246 2.48624 -3.59868 0
M  V30 2674 C 279.305 3.66146 -3.7792 0
M  V30 2675 O 278.331 3.48795 -4.49812 0
M  V30 2676 N 279.533 4.85496 -3.18235 0
M  V30 2677 H 282.298 0.795277 -2.88956 0
M  V30 2678 H 279.859 0.287579 -1.59325 0
M  V30 2679 H 281.851 3.27432 -2.37845 0
M  V30 2680 H 280.421 2.77387 -1.44136 0
M  V30 2681 H 279.641 1.56978 -3.61596 0
M  V30 2682 H 280.929 2.44635 -4.46129 0
M  V30 2683 H 280.327 5.02497 -2.59833 0
M  V30 2684 H 278.884 5.60317 -3.32999 0
M  V30 2685 N 282.317 1.53212 0.369288 0
M  V30 2686 C 283.247 1.82365 1.45826 0
M  V30 2687 C 284.228 0.676907 1.56051 0
M  V30 2688 O 285.413 0.926401 1.70679 0
M  V30 2689 C 282.543 2.01023 2.83208 0
M  V30 2690 C 281.497 3.1678 2.8781 0
M  V30 2691 C 280.823 3.20724 4.27832 0
M  V30 2692 C 282.123 4.55447 2.55667 0
M  V30 2693 H 283.817 2.73559 1.21678 0
M  V30 2694 H 281.363 1.3163 0.583911 0
M  V30 2695 H 283.316 2.20001 3.59413 0
M  V30 2696 H 282.04 1.06536 3.08736 0
M  V30 2697 H 280.699 2.97616 2.14056 0
M  V30 2698 H 280.347 2.23882 4.50429 0
M  V30 2699 H 280.047 3.98496 4.31827 0
M  V30 2700 H 281.571 3.41881 5.05915 0
M  V30 2701 H 282.985 4.74611 3.21586 0
M  V30 2702 H 281.382 5.35432 2.70984 0
M  V30 2703 H 282.452 4.60812 1.5093 0
M  V30 2704 N 283.795 -0.628877 1.44509 0
M  V30 2705 C 284.725 -1.75187 1.54376 0
M  V30 2706 C 285.706 -1.65411 0.396618 0
M  V30 2707 O 286.891 -1.84137 0.617031 0
M  V30 2708 C 284.021 -3.13725 1.48976 0
M  V30 2709 C 282.975 -3.38291 2.62189 0
M  V30 2710 C 282.301 -4.76883 2.41841 0
M  V30 2711 C 283.601 -3.30632 4.04326 0
M  V30 2712 H 285.295 -1.67187 2.48373 0
M  V30 2713 H 282.841 -0.802909 1.19538 0
M  V30 2714 H 284.794 -3.92064 1.54478 0
M  V30 2715 H 283.518 -3.22515 0.514961 0
M  V30 2716 H 282.177 -2.62334 2.56079 0
M  V30 2717 H 281.825 -4.82378 1.42548 0
M  V30 2718 H 281.525 -4.94278 3.17747 0
M  V30 2719 H 283.049 -5.57449 2.49165 0
M  V30 2720 H 284.463 -3.98873 4.11793 0
M  V30 2721 H 282.86 -3.59561 4.80454 0
M  V30 2722 H 283.93 -2.28404 4.27738 0
M  V30 2723 N 285.273 -1.31445 -0.869486 0
M  V30 2724 C 286.521 -1.20918 -1.61936 0
M  V30 2725 C 286.842 0.232683 -1.93607 0
M  V30 2726 O 286.112 1.15352 -1.58338 0
M  V30 2727 H 284.692 -0.44454 -0.600328 0
M  V30 2728 H 287.354 -1.64776 -1.0409 0
M  V30 2729 H 286.45 -1.78124 -2.56278 0
M  V30 2730 N 286.751 1.08385 -1.14413 0
M  V30 2731 C 288.028 1.77429 -0.823297 0
M  V30 2732 C 288.408 1.9974 0.683163 0
M  V30 2733 O 287.756 1.60739 1.62405 0
M  V30 2734 C 287.966 3.09004 -1.62227 0
M  V30 2735 C 289.314 3.83532 -1.82177 0
M  V30 2736 O 290.338 3.18786 -1.58915 0
M  V30 2737 O 289.197 4.99792 -2.21067 0
M  V30 2738 H 286.291 0.769999 -0.301712 0
M  V30 2739 H 288.837 1.14846 -1.24934 0
M  V30 2740 H 287.609 2.88316 -2.64555 0
M  V30 2741 H 287.232 3.79316 -1.19187 0
M  V30 2742 N 288.23 0.939286 1.26551 0
M  V30 2743 C 289.16 0.465044 2.28822 0
M  V30 2744 C 290.141 -0.480692 1.63167 0
M  V30 2745 O 291.326 -0.382955 1.90387 0
M  V30 2746 C 288.456 -0.27234 3.46231 0
M  V30 2747 C 287.41 0.58666 4.2396 0
M  V30 2748 C 286.736 -0.280573 5.33963 0
M  V30 2749 C 288.036 1.85704 4.88171 0
M  V30 2750 H 289.73 1.31979 2.68741 0
M  V30 2751 H 287.276 0.636061 1.29191 0
M  V30 2752 H 289.229 -0.615133 4.16886 0
M  V30 2753 H 287.953 -1.16121 3.0526 0
M  V30 2754 H 286.612 0.91232 3.55067 0
M  V30 2755 H 286.26 -1.16874 4.89234 0
M  V30 2756 H 285.96 0.29076 5.8688 0
M  V30 2757 H 287.484 -0.618678 6.07458 0
M  V30 2758 H 288.898 1.58161 5.51052 0
M  V30 2759 H 287.295 2.37279 5.51197 0
M  V30 2760 H 288.365 2.56957 4.11219 0
M  V30 2761 N 289.708 -1.40897 0.706093 0
M  V30 2762 C 290.658 -2.27987 0.0240746 0
M  V30 2763 C 291.642 -1.42759 -0.742204 0
M  V30 2764 O 292.834 -1.65936 -0.615966 0
M  V30 2765 C 289.963 -3.31186 -0.903907 0
M  V30 2766 C 289.049 -4.2389 -0.133318 0
M  V30 2767 N 289.44 -4.98113 0.878444 0
M  V30 2768 C 287.738 -4.44485 -0.367269 0
M  V30 2769 C 288.439 -5.6604 1.34064 0
M  V30 2770 N 287.415 -5.39522 0.664565 0
M  V30 2771 H 291.217 -2.82812 0.799658 0
M  V30 2772 H 288.731 -1.53235 0.537845 0
M  V30 2773 H 290.728 -3.92413 -1.40775 0
M  V30 2774 H 289.388 -2.77922 -1.67897 0
M  V30 2775 H 290.399 -5.02364 1.25901 0
M  V30 2776 H 287.076 -4.02213 -1.1194 0
M  V30 2777 H 288.466 -6.35524 2.1808 0
M  V30 2778 N 291.186 -0.45159 -1.50991 0
M  V30 2779 C 292.118 0.388634 -2.25881 0
M  V30 2780 C 293.131 0.974041 -1.30446 0
M  V30 2781 O 294.32 0.865758 -1.56099 0
M  V30 2782 C 291.42 1.5571 -3.01011 0
M  V30 2783 C 290.593 1.08801 -4.23652 0
M  V30 2784 C 289.652 2.12825 -4.8124 0
M  V30 2785 O 288.678 1.71678 -5.42693 0
M  V30 2786 N 289.88 3.45453 -4.66522 0
M  V30 2787 H 292.645 -0.25329 -2.98628 0
M  V30 2788 H 290.206 -0.281268 -1.59438 0
M  V30 2789 H 292.198 2.24952 -3.3642 0
M  V30 2790 H 290.768 2.10409 -2.31186 0
M  V30 2791 H 289.988 0.22215 -3.93574 0
M  V30 2792 H 291.276 0.752213 -5.03209 0
M  V30 2793 H 290.674 3.81605 -4.17605 0
M  V30 2794 H 289.231 4.10549 -5.06254 0
M  V30 2795 N 292.664 1.56529 -0.183458 0
M  V30 2796 C 293.574 2.22144 0.754272 0
M  V30 2797 C 294.59 1.21684 1.24374 0
M  V30 2798 O 295.766 1.54385 1.29333 0
M  V30 2799 C 292.831 2.85884 1.96141 0
M  V30 2800 C 291.892 4.01579 1.51765 0
M  V30 2801 C 291.125 4.6227 2.66725 0
M  V30 2802 O 291.348 4.21865 3.83909 0
M  V30 2803 O 290.282 5.51936 2.40104 0
M  V30 2804 H 294.108 3.02861 0.225527 0
M  V30 2805 H 291.693 1.49331 0.0453032 0
M  V30 2806 H 293.575 3.26253 2.66715 0
M  V30 2807 H 292.25 2.08154 2.47899 0
M  V30 2808 H 291.157 3.65856 0.781049 0
M  V30 2809 H 292.49 4.80938 1.04686 0
M  V30 2810 N 294.142 -0.090211 1.57342 0
M  V30 2811 C 295.39 -0.791241 1.85967 0
M  V30 2812 C 295.711 -1.7903 0.772859 0
M  V30 2813 O 294.981 -1.94872 -0.200398 0
M  V30 2814 H 293.561 -0.295205 0.686195 0
M  V30 2815 H 296.223 -0.0706782 1.94772 0
M  V30 2816 H 295.319 -1.31882 2.82867 0
M  V30 2817 N 295.62 -1.53406 -0.361157 0
M  V30 2818 C 297.031 -1.61442 -0.937728 0
M  V30 2819 C 297.382 -0.48461 -1.90121 0
M  V30 2820 O 296.507 0.388312 -2.12888 0
M  V30 2821 C 297.102 -2.92624 -1.70753 0
M  V30 2822 C 295.661 -3.02981 -2.23337 0
M  V30 2823 C 294.808 -2.5677 -1.04712 0
M  V30 2824 H 297.759 -1.58083 -0.139816 0
M  V30 2825 H 297.78 -2.80675 -2.56908 0
M  V30 2826 H 297.292 -3.74834 -1.00604 0
M  V30 2827 H 295.393 -2.25368 -2.96715 0
M  V30 2828 H 295.506 -4.0814 -2.50916 0
M  V30 2829 H 293.87 -2.11752 -1.41539 0
M  V30 2830 H 294.653 -3.41402 -0.360539 0
M  V30 2831 N 297.098 0.621204 -1.44841 0
M  V30 2832 C 298.509 1.20298 -1.42777 0
M  V30 2833 C 298.86 1.95639 -0.148259 0
M  V30 2834 O 297.985 2.02955 0.750892 0
M  V30 2835 C 298.58 2.1882 -2.58657 0
M  V30 2836 C 297.139 2.72403 -2.59756 0
M  V30 2837 C 296.286 1.4757 -2.34773 0
M  V30 2838 H 299.237 0.411297 -1.53278 0
M  V30 2839 H 299.258 3.01607 -2.31977 0
M  V30 2840 H 298.77 1.63957 -3.51766 0
M  V30 2841 H 296.871 3.31242 -1.70615 0
M  V30 2842 H 296.984 3.17765 -3.58556 0
M  V30 2843 H 295.348 1.76051 -1.8406 0
M  V30 2844 H 296.131 0.945954 -3.3001 0
M  V30 2845 N 298.576 1.31904 0.862503 0
M  V30 2846 C 299.506 1.22782 1.98612 0
M  V30 2847 C 300.487 0.113362 1.69722 0
M  V30 2848 O 301.672 0.299218 1.91881 0
M  V30 2849 C 298.802 0.942058 3.34279 0
M  V30 2850 C 297.756 2.0169 3.77499 0
M  V30 2851 C 297.082 1.58369 5.10709 0
M  V30 2852 C 298.382 3.43096 3.93805 0
M  V30 2853 H 300.076 2.16788 2.06502 0
M  V30 2854 H 297.622 1.04366 0.992154 0
M  V30 2855 H 299.575 0.864818 4.1243 0
M  V30 2856 H 298.299 -0.0336603 3.26583 0
M  V30 2857 H 296.958 2.08416 3.01593 0
M  V30 2858 H 296.606 0.595628 4.99461 0
M  V30 2859 H 296.306 2.30279 5.40597 0
M  V30 2860 H 297.83 1.52067 5.91361 0
M  V30 2861 H 299.244 3.39003 4.62331 0
M  V30 2862 H 297.641 4.13288 4.35101 0
M  V30 2863 H 298.711 3.83334 2.96957 0
M  V30 2864 N 300.054 -1.07777 1.14986 0
M  V30 2865 C 301.001 -2.14867 0.842672 0
M  V30 2866 C 301.971 -1.6486 -0.202552 0
M  V30 2867 O 303.156 -1.90668 -0.0710568 0
M  V30 2868 C 300.296 -3.43486 0.333363 0
M  V30 2869 C 299.409 -4.07306 1.43965 0
M  V30 2870 C 298.544 -5.23744 0.886914 0
M  V30 2871 C 297.583 -5.79517 1.97043 0
M  V30 2872 N 296.72 -6.87291 1.4344 0
M  V30 2873 H 301.56 -2.40485 1.75986 0
M  V30 2874 H 299.097 -1.1801 0.878179 0
M  V30 2875 H 301.055 -4.17195 0.0198163 0
M  V30 2876 H 299.685 -3.18133 -0.546916 0
M  V30 2877 H 298.737 -3.31293 1.86946 0
M  V30 2878 H 300.049 -4.44771 2.25788 0
M  V30 2879 H 299.203 -6.04419 0.525651 0
M  V30 2880 H 297.942 -4.87685 0.0377957 0
M  V30 2881 H 296.947 -4.97491 2.34057 0
M  V30 2882 H 298.172 -6.17632 2.82325 0
M  V30 2883 H 296.118 -6.5318 0.607567 0
M  V30 2884 H 296.035 -7.23617 2.18895 0
M  V30 2885 H 297.303 -7.71682 1.10124 0
M  V30 2886 N 301.532 -0.945985 -1.26051 0
M  V30 2887 C 302.78 -0.594941 -1.93145 0
M  V30 2888 C 303.101 0.86953 -1.7454 0
M  V30 2889 O 302.371 1.61838 -1.10387 0
M  V30 2890 H 300.951 -0.217044 -0.714773 0
M  V30 2891 H 303.613 -1.20235 -1.53393 0
M  V30 2892 H 302.709 -0.816835 -3.01221 0
M  V30 2893 N 303.011 1.40521 -0.713556 0
M  V30 2894 C 303.974 2.29098 -0.0684347 0
M  V30 2895 C 304.974 1.45268 0.689472 0
M  V30 2896 O 306.164 1.66205 0.521677 0
M  V30 2897 C 303.296 3.28446 0.913024 0
M  V30 2898 H 304.489 2.87645 -0.84855 0
M  V30 2899 H 302.042 1.48809 -0.47809 0
M  V30 2900 H 302.777 2.74913 1.72027 0
M  V30 2901 H 302.562 3.90327 0.372472 0
M  V30 2902 H 304.052 3.94777 1.36165 0
M  V30 2903 N 304.489 0.459591 1.5075 0
M  V30 2904 C 305.737 -0.0991532 2.01857 0
M  V30 2905 C 306.058 -1.41247 1.34441 0
M  V30 2906 O 305.328 -1.89775 0.486022 0
M  V30 2907 H 303.908 -0.039633 0.745948 0
M  V30 2908 H 306.57 0.607387 1.85194 0
M  V30 2909 H 305.666 -0.258998 3.11023 0
M  V30 2910 N 305.967 -1.56429 0.191757 0
M  V30 2911 C 307.215 -1.97095 -0.447006 0
M  V30 2912 C 307.536 -1.07967 -1.62383 0
M  V30 2913 O 306.806 -0.150248 -1.95323 0
M  V30 2914 H 305.386 -0.727832 -0.168135 0
M  V30 2915 H 308.048 -1.92911 0.27771 0
M  V30 2916 H 307.144 -3.01848 -0.793371 0
M  V30 2917 N 307.445 0.0818655 -1.57387 0
M  V30 2918 C 308.392 1.09834 -2.0299 0
M  V30 2919 C 309.362 1.39043 -0.908639 0
M  V30 2920 O 310.547 1.50282 -1.17559 0
M  V30 2921 C 307.687 2.40971 -2.47037 0
M  V30 2922 C 306.8 2.18379 -3.7274 0
M  V30 2923 C 305.935 3.43008 -4.0561 0
M  V30 2924 C 304.974 3.15736 -5.24383 0
M  V30 2925 N 304.111 4.32667 -5.52941 0
M  V30 2926 H 308.951 0.702472 -2.89602 0
M  V30 2927 H 306.488 0.33531 -1.43227 0
M  V30 2928 H 308.446 3.1752 -2.70623 0
M  V30 2929 H 307.076 2.78379 -1.63417 0
M  V30 2930 H 306.128 1.32569 -3.56552 0
M  V30 2931 H 307.44 1.94227 -4.59431 0
M  V30 2932 H 306.594 4.27958 -4.30043 0
M  V30 2933 H 305.333 3.70225 -3.17466 0
M  V30 2934 H 304.338 2.2918 -4.99757 0
M  V30 2935 H 305.563 2.8985 -6.14136 0
M  V30 2936 H 303.509 4.59935 -4.67756 0
M  V30 2937 H 303.426 4.11753 -6.34031 0
M  V30 2938 H 304.694 5.18644 -5.81918 0
M  V30 2939 N 308.923 1.53595 0.353017 0
M  V30 2940 C 309.833 1.83897 1.45667 0
M  V30 2941 C 310.849 0.728334 1.58023 0
M  V30 2942 O 312.025 1.01968 1.73679 0
M  V30 2943 C 309.09 2.03383 2.80778 0
M  V30 2944 C 308.151 3.27262 2.77845 0
M  V30 2945 C 307.384 3.45809 4.06512 0
M  V30 2946 O 307.607 2.68387 5.03314 0
M  V30 2947 O 306.541 4.39207 4.11559 0
M  V30 2948 H 310.367 2.77686 1.2298 0
M  V30 2949 H 307.952 1.39132 0.544308 0
M  V30 2950 H 309.834 2.17698 3.60812 0
M  V30 2951 H 308.509 1.12783 3.03417 0
M  V30 2952 H 307.416 3.18359 1.96465 0
M  V30 2953 H 308.749 4.17824 2.60161 0
M  V30 2954 N 310.401 -0.613514 1.45168 0
M  V30 2955 C 311.817 -0.933629 1.29443 0
M  V30 2956 C 312.017 -2.00028 0.243101 0
M  V30 2957 O 311.073 -2.49848 -0.364992 0
M  V30 2958 C 312.386 -1.38018 2.67155 0
M  V30 2959 C 313.934 -1.49471 2.75004 0
M  V30 2960 C 314.409 -1.97503 4.13227 0
M  V30 2961 N 315.9 -2.04746 4.15491 0
M  V30 2962 C 316.635 -2.43121 5.19307 0
M  V30 2963 N 316.131 -2.80506 6.33473 0
M  V30 2964 N 317.924 -2.43408 5.06664 0
M  V30 2965 H 310.075 0.0916097 2.12202 0
M  V30 2966 H 312.338 -0.0216655 0.947752 0
M  V30 2967 H 312.044 -0.670625 3.45247 0
M  V30 2968 H 311.918 -2.34784 2.95222 0
M  V30 2969 H 314.305 -2.19519 1.9722 0
M  V30 2970 H 314.386 -0.510342 2.50657 0
M  V30 2971 H 314.03 -1.28045 4.91495 0
M  V30 2972 H 313.96 -2.96843 4.34962 0
M  V30 2973 H 316.451 -1.78468 3.33103 0
M  V30 2974 H 316.764 -3.08652 7.08487 0
M  V30 2975 H 315.109 -2.78216 6.36884 0
M  V30 2976 H 318.3 -2.13604 4.16523 0
M  V30 2977 H 318.473 -2.72989 5.87691 0
M  V30 2978 N 311.879 -1.3236 -0.855495 0
M  V30 2979 C 313.29 -1.2056 -1.42556 0
M  V30 2980 C 313.641 0.182209 -1.95352 0
M  V30 2981 O 312.766 1.08088 -1.87472 0
M  V30 2982 C 313.361 -2.1826 -2.59129 0
M  V30 2983 C 311.92 -2.10351 -3.12137 0
M  V30 2984 C 311.067 -2.06674 -1.84882 0
M  V30 2985 H 314.018 -1.442 -0.662727 0
M  V30 2986 H 314.039 -1.78064 -3.36264 0
M  V30 2987 H 313.551 -3.19257 -2.20673 0
M  V30 2988 H 311.652 -1.12599 -3.55179 0
M  V30 2989 H 311.765 -3.00135 -3.73438 0
M  V30 2990 H 310.129 -1.51901 -2.04446 0
M  V30 2991 H 310.912 -3.09451 -1.48643 0
M  V30 2992 N 313.357 1.07166 -1.15556 0
M  V30 2993 C 314.605 1.79443 -0.929764 0
M  V30 2994 C 314.926 1.87246 0.544414 0
M  V30 2995 O 314.196 1.37473 1.39564 0
M  V30 2996 H 312.776 0.664625 -0.341003 0
M  V30 2997 H 315.438 1.29499 -1.45657 0
M  V30 2998 H 314.534 2.81832 -1.34079 0
M  V30 2999 N 314.835 0.952656 1.25548 0
M  V30 3000 C 316.06 0.623025 1.97821 0
M  V30 3001 C 316.485 -0.7976 1.70352 0
M  V30 3002 O 315.843 -1.53905 0.958283 0
M  V30 3003 C 315.891 0.885532 3.49558 0
M  V30 3004 O 314.995 -0.0366641 4.12384 0
M  V30 3005 H 314.336 0.237082 0.620232 0
M  V30 3006 H 316.866 1.27871 1.59719 0
M  V30 3007 H 316.876 0.811009 3.99858 0
M  V30 3008 H 315.551 1.92094 3.6888 0
M  V30 3009 H 314.128 0.0898954 3.72792 0
M  V30 3010 N 316.313 -1.40141 0.720998 0
M  V30 3011 C 317.26 -2.30688 0.071919 0
M  V30 3012 C 318.23 -1.48476 -0.744584 0
M  V30 3013 O 319.415 -1.77201 -0.707423 0
M  V30 3014 C 316.555 -3.34724 -0.839855 0
M  V30 3015 C 315.668 -4.31998 -0.0122438 0
M  V30 3016 C 314.803 -5.23102 -0.923995 0
M  V30 3017 C 313.842 -6.12033 -0.0907969 0
M  V30 3018 N 312.979 -6.95537 -0.957718 0
M  V30 3019 H 317.819 -2.85628 0.849755 0
M  V30 3020 H 315.356 -1.40653 0.430726 0
M  V30 3021 H 317.314 -3.93618 -1.38279 0
M  V30 3022 H 315.944 -2.81274 -1.58381 0
M  V30 3023 H 314.996 -3.74841 0.64794 0
M  V30 3024 H 316.308 -4.94772 0.632595 0
M  V30 3025 H 315.462 -5.86953 -1.53527 0
M  V30 3026 H 314.201 -4.60615 -1.60264 0
M  V30 3027 H 313.206 -5.47207 0.533377 0
M  V30 3028 H 314.431 -6.76581 0.584428 0
M  V30 3029 H 312.377 -6.35633 -1.62192 0
M  V30 3030 H 312.294 -7.55099 -0.36904 0
M  V30 3031 H 313.562 -7.63832 -1.555 0
M  V30 3032 N 317.792 -0.46758 -1.50504 0
M  V30 3033 C 318.702 0.33382 -2.32213 0
M  V30 3034 C 319.718 0.999323 -1.42441 0
M  V30 3035 O 320.894 0.988068 -1.75497 0
M  V30 3036 C 317.959 1.4035 -3.17022 0
M  V30 3037 C 317.02 0.754961 -4.2261 0
M  V30 3038 C 316.253 1.77367 -5.03365 0
M  V30 3039 O 316.476 2.99976 -4.8515 0
M  V30 3040 O 315.41 1.34744 -5.86624 0
M  V30 3041 H 319.236 -0.334067 -3.01857 0
M  V30 3042 H 316.821 -0.229496 -1.47627 0
M  V30 3043 H 318.703 2.02318 -3.69656 0
M  V30 3044 H 317.378 2.05492 -2.5011 0
M  V30 3045 H 316.285 0.0964244 -3.73976 0
M  V30 3046 H 317.618 0.146545 -4.91982 0
M  V30 3047 N 319.27 1.56325 -0.20005 0
M  V30 3048 C 320.18 2.22931 0.730668 0
M  V30 3049 C 321.196 1.22997 1.23076 0
M  V30 3050 O 322.372 1.55748 1.27689 0
M  V30 3051 C 319.437 2.87948 1.93098 0
M  V30 3052 C 318.498 4.03166 1.47497 0
M  V30 3053 C 317.731 4.65073 2.61807 0
M  V30 3054 O 317.954 4.25913 3.79413 0
M  V30 3055 O 316.888 5.54452 2.34237 0
M  V30 3056 H 320.714 3.03084 0.193391 0
M  V30 3057 H 318.299 1.49371 0.0294621 0
M  V30 3058 H 320.181 3.29063 2.6324 0
M  V30 3059 H 318.856 2.10771 2.45677 0
M  V30 3060 H 317.763 3.66664 0.742201 0
M  V30 3061 H 319.096 4.82022 0.995796 0
M  V30 3062 N 320.748 -0.0735177 1.57428 0
M  V30 3063 C 321.994 -0.774145 1.87443 0
M  V30 3064 C 322.327 -1.77311 0.792103 0
M  V30 3065 O 321.602 -1.93492 -0.197793 0
M  V30 3066 C 321.885 -1.48367 3.28115 0
M  V30 3067 C 321.738 -0.501227 4.46999 0
M  V30 3068 C 323.057 -2.429 3.66998 0
M  V30 3069 H 320.176 -0.279971 0.681752 0
M  V30 3070 H 322.818 -0.0373616 1.89963 0
M  V30 3071 H 320.968 -2.11171 3.26097 0
M  V30 3072 H 322.64 0.121468 4.6114 0
M  V30 3073 H 320.883 0.183593 4.33411 0
M  V30 3074 H 321.554 -1.03526 5.42205 0
M  V30 3075 H 324.03 -1.90175 3.70098 0
M  V30 3076 H 322.906 -2.89549 4.66318 0
M  V30 3077 H 323.167 -3.27628 2.96837 0
M  V30 3078 N 322.226 -1.5378 -0.344866 0
M  V30 3079 C 323.503 -1.61589 -1.10219 0
M  V30 3080 C 323.883 -0.436316 -2.06542 0
M  V30 3081 O 323.231 0.571543 -2.21237 0
M  V30 3082 C 323.441 -2.97602 -1.82301 0
M  V30 3083 C 324.789 -3.5291 -2.36093 0
M  V30 3084 O 325.813 -2.99768 -1.924 0
M  V30 3085 O 324.672 -4.45859 -3.16026 0
M  V30 3086 H 321.766 -0.653522 -0.506792 0
M  V30 3087 H 324.312 -1.66126 -0.346465 0
M  V30 3088 H 323.084 -3.74893 -1.12121 0
M  V30 3089 H 322.707 -2.9665 -2.64735 0
M  V30 3090 N 323.704 0.605807 -1.45491 0
M  V30 3091 C 324.614 1.74466 -1.56839 0
M  V30 3092 C 325.63 1.68006 -0.452772 0
M  V30 3093 O 326.806 1.8833 -0.713708 0
M  V30 3094 C 323.871 3.10931 -1.53371 0
M  V30 3095 C 322.932 3.28832 -2.75986 0
M  V30 3096 C 322.165 4.58787 -2.72673 0
M  V30 3097 O 322.388 5.4122 -1.80102 0
M  V30 3098 O 321.322 4.79438 -3.63899 0
M  V30 3099 H 325.148 1.67843 -2.53106 0
M  V30 3100 H 322.733 0.770108 -1.28022 0
M  V30 3101 H 324.615 3.92233 -1.54051 0
M  V30 3102 H 323.29 3.18042 -0.602572 0
M  V30 3103 H 322.197 2.47112 -2.80867 0
M  V30 3104 H 323.53 3.26599 -3.68231 0
M  V30 3105 N 325.182 1.32811 0.848464 0
M  V30 3106 C 326.459 1.14334 1.58704 0
M  V30 3107 C 326.839 -0.293948 2.09043 0
M  V30 3108 O 326.187 -1.29153 1.88499 0
M  V30 3109 C 326.397 2.17626 2.72837 0
M  V30 3110 C 327.745 2.51282 3.42261 0
M  V30 3111 O 328.769 2.16219 2.83068 0
M  V30 3112 O 327.628 3.11413 4.49093 0
M  V30 3113 H 324.722 0.441601 0.699226 0
M  V30 3114 H 327.268 1.44362 0.892053 0
M  V30 3115 H 326.04 3.14211 2.3321 0
M  V30 3116 H 325.663 1.88628 3.50008 0
M  V30 3117 N 326.66 -1.06551 1.16123 0
M  V30 3118 C 328.076 -1.3142 0.905585 0
M  V30 3119 C 328.276 -1.96571 -0.442964 0
M  V30 3120 O 327.332 -2.23068 -1.18308 0
M  V30 3121 C 328.645 -2.19741 2.05267 0
M  V30 3122 C 330.193 -2.33165 2.08813 0
M  V30 3123 C 330.668 -3.24838 3.22868 0
M  V30 3124 N 332.159 -3.32421 3.22568 0
M  V30 3125 C 332.894 -4.0344 4.0746 0
M  V30 3126 N 332.39 -4.77003 5.02434 0
M  V30 3127 N 334.183 -3.99464 3.95456 0
M  V30 3128 H 326.334 -0.626548 2.02949 0
M  V30 3129 H 328.597 -0.338777 0.8854 0
M  V30 3130 H 328.303 -1.79142 3.02657 0
M  V30 3131 H 328.177 -3.20313 1.99198 0
M  V30 3132 H 330.564 -2.73013 1.12018 0
M  V30 3133 H 330.645 -1.3227 2.18948 0
M  V30 3134 H 330.289 -2.85708 4.19921 0
M  V30 3135 H 330.219 -4.25707 3.0997 0
M  V30 3136 H 332.71 -2.79994 2.53795 0
M  V30 3137 H 333.023 -5.28712 5.63634 0
M  V30 3138 H 331.368 -4.75992 5.06415 0
M  V30 3139 H 334.559 -3.4111 3.20564 0
M  V30 3140 H 334.732 -4.54544 4.61837 0
M  V30 3141 N 328.138 -0.959301 -1.25041 0
M  V30 3142 C 329.415 -0.533805 -1.88175 0
M  V30 3143 C 329.795 0.988994 -1.865 0
M  V30 3144 O 329.143 1.85677 -1.33177 0
M  V30 3145 C 329.353 -1.11575 -3.30684 0
M  V30 3146 C 330.701 -1.19548 -4.07423 0
M  V30 3147 O 331.725 -1.06765 -3.39823 0
M  V30 3148 O 330.584 -1.39656 -5.28354 0
M  V30 3149 H 327.678 -0.176772 -0.807887 0
M  V30 3150 H 330.224 -1.05303 -1.33076 0
M  V30 3151 H 328.996 -2.15884 -3.26358 0
M  V30 3152 H 328.619 -0.580059 -3.93346 0
M  V30 3153 N 329.616 1.39756 -0.72842 0
M  V30 3154 C 330.862 2.00942 -0.273892 0
M  V30 3155 C 331.195 1.57656 1.13394 0
M  V30 3156 O 330.47 0.802434 1.77176 0
M  V30 3157 C 330.753 3.58211 -0.368346 0
M  V30 3158 C 330.606 4.11534 -1.81548 0
M  V30 3159 C 331.925 4.39372 0.253054 0
M  V30 3160 H 329.044 0.730047 -0.100996 0
M  V30 3161 H 331.686 1.66056 -0.923337 0
M  V30 3162 H 329.836 3.88061 0.184588 0
M  V30 3163 H 331.508 3.92431 -2.42478 0
M  V30 3164 H 329.751 3.65341 -2.33898 0
M  V30 3165 H 330.422 5.20682 -1.83288 0
M  V30 3166 H 332.898 4.15527 -0.218224 0
M  V30 3167 H 331.774 5.48677 0.156585 0
M  V30 3168 H 332.035 4.21358 1.33826 0
M  V30 3169 N 331.094 0.475555 1.50254 0
M  V30 3170 C 332.371 -0.139685 1.95101 0
M  V30 3171 C 332.751 -1.56555 1.41611 0
M  V30 3172 O 332.099 -2.19956 0.618993 0
M  V30 3173 C 332.309 -0.0784298 3.48912 0
M  V30 3174 C 333.657 -0.265095 4.23772 0
M  V30 3175 O 334.681 -0.154808 3.55863 0
M  V30 3176 O 333.54 -0.488327 5.44314 0
M  V30 3177 H 330.634 -0.109236 0.819754 0
M  V30 3178 H 333.18 0.536276 1.61004 0
M  V30 3179 H 331.952 0.916918 3.80405 0
M  V30 3180 H 331.575 -0.795655 3.89558 0
M  V30 3181 N 332.573 -1.56217 0.208337 0
M  V30 3182 C 333.483 -2.23316 -0.718836 0
M  V30 3183 C 334.499 -1.23648 -1.22422 0
M  V30 3184 O 335.675 -1.56423 -1.26861 0
M  V30 3185 C 332.74 -2.88968 -1.91568 0
M  V30 3186 C 331.801 -4.03943 -1.45357 0
M  V30 3187 C 331.034 -4.66455 -2.59337 0
M  V30 3188 O 331.257 -4.27919 -3.77149 0
M  V30 3189 O 330.191 -5.55686 -2.31293 0
M  V30 3190 H 334.017 -3.03182 -0.177315 0
M  V30 3191 H 331.602 -1.49384 -0.0215402 0
M  V30 3192 H 333.484 -3.30455 -2.61491 0
M  V30 3193 H 332.159 -2.12071 -2.44556 0
M  V30 3194 H 331.066 -3.67052 -0.722746 0
M  V30 3195 H 332.399 -4.82543 -0.970219 0
M  V30 3196 N 334.051 0.0651679 -1.57465 0
M  V30 3197 C 335.276 0.779605 -1.9219 0
M  V30 3198 C 335.701 1.69988 -0.805333 0
M  V30 3199 O 335.059 1.79685 0.241435 0
M  V30 3200 C 335.107 1.54364 -3.2589 0
M  V30 3201 O 334.211 2.65474 -3.1559 0
M  V30 3202 H 333.552 0.212249 -0.629163 0
M  V30 3203 H 336.082 0.0314294 -2.04576 0
M  V30 3204 H 336.092 1.92146 -3.59922 0
M  V30 3205 H 334.767 0.868457 -4.06732 0
M  V30 3206 H 333.344 2.30501 -2.93128 0
M  V30 3207 N 335.529 1.53961 0.336706 0
M  V30 3208 C 336.754 1.75797 1.10046 0
M  V30 3209 C 337.179 0.498985 1.81361 0
M  V30 3210 O 336.537 -0.548769 1.72795 0
M  V30 3211 C 336.585 2.94257 2.08436 0
M  V30 3212 O 335.689 2.64883 3.16087 0
M  V30 3213 H 335.03 0.582936 0.317934 0
M  V30 3214 H 337.56 2.00945 0.38501 0
M  V30 3215 H 337.57 3.21237 2.51537 0
M  V30 3216 H 336.245 3.85564 1.55927 0
M  V30 3217 H 334.822 2.48812 2.77753 0
M  V30 3218 N 337.007 -0.598083 1.45811 0
M  V30 3219 C 338.418 -1.18011 1.44673 0
M  V30 3220 C 338.769 -1.95378 0.179364 0
M  V30 3221 O 337.894 -2.04124 -0.718509 0
M  V30 3222 C 338.489 -2.14677 2.62105 0
M  V30 3223 C 337.048 -2.68236 2.64057 0
M  V30 3224 C 336.195 -1.43816 2.37091 0
M  V30 3225 H 339.146 -0.38686 1.53913 0
M  V30 3226 H 339.167 -2.97878 2.36746 0
M  V30 3227 H 338.679 -1.5834 3.5433 0
M  V30 3228 H 336.78 -3.28486 1.75864 0
M  V30 3229 H 336.893 -3.12021 3.63566 0
M  V30 3230 H 335.257 -1.731 1.86838 0
M  V30 3231 H 336.04 -0.893333 3.31473 0
M  V30 3232 N 338.485 -1.33259 -0.841409 0
M  V30 3233 C 339.417 -1.19136 -1.95804 0
M  V30 3234 C 340.43 -0.122965 -1.62335 0
M  V30 3235 O 341.619 -0.373154 -1.74556 0
M  V30 3236 C 338.719 -0.804268 -3.29218 0
M  V30 3237 C 337.892 -1.96376 -3.90839 0
M  V30 3238 C 336.951 -1.55806 -5.02604 0
M  V30 3239 O 335.977 -2.27203 -5.21888 0
M  V30 3240 N 337.179 -0.461609 -5.78662 0
M  V30 3241 H 339.944 -2.15326 -2.08458 0
M  V30 3242 H 337.505 -1.25971 -1.017 0
M  V30 3243 H 339.497 -0.51501 -4.0141 0
M  V30 3244 H 338.067 0.0668809 -3.12528 0
M  V30 3245 H 337.287 -2.41879 -3.11269 0
M  V30 3246 H 338.575 -2.73966 -4.28742 0
M  V30 3247 H 337.973 0.132343 -5.65545 0
M  V30 3248 H 336.53 -0.232013 -6.51387 0
M  V30 3249 N 339.963 1.05934 -1.16686 0
M  V30 3250 C 341.24 1.75643 -0.860747 0
M  V30 3251 C 341.62 2.01144 0.640641 0
M  V30 3252 O 340.968 1.64147 1.58959 0
M  V30 3253 C 341.178 3.05493 -1.68745 0
M  V30 3254 C 342.526 3.79581 -1.90271 0
M  V30 3255 O 343.55 3.15344 -1.65641 0
M  V30 3256 O 342.409 4.9499 -2.31618 0
M  V30 3257 H 339.503 0.763426 -0.317977 0
M  V30 3258 H 342.049 1.1217 -1.27342 0
M  V30 3259 H 340.821 2.8264 -2.70611 0
M  V30 3260 H 340.444 3.76702 -1.27206 0
M  V30 3261 N 341.441 0.965919 1.2453 0
M  V30 3262 C 342.666 0.643971 1.97149 0
M  V30 3263 C 343.091 -0.779487 1.71189 0
M  V30 3264 O 342.449 -1.5288 0.974553 0
M  V30 3265 C 342.497 0.922557 3.48599 0
M  V30 3266 O 341.601 0.00707672 4.12399 0
M  V30 3267 H 340.942 0.243647 0.617683 0
M  V30 3268 H 343.472 1.29558 1.58353 0
M  V30 3269 H 343.482 0.853373 3.98976 0
M  V30 3270 H 342.157 1.95996 3.66822 0
M  V30 3271 H 340.734 0.12943 3.72675 0
M  V30 3272 N 342.919 -1.39368 0.735821 0
M  V30 3273 C 344.33 -1.83313 0.354015 0
M  V30 3274 C 344.681 -1.61461 -1.11466 0
M  V30 3275 O 343.806 -1.10621 -1.85989 0
M  V30 3276 C 344.401 -3.32781 0.635769 0
M  V30 3277 C 342.96 -3.75142 0.307448 0
M  V30 3278 C 342.107 -2.62358 0.897974 0
M  V30 3279 H 345.058 -1.28349 0.933398 0
M  V30 3280 H 345.079 -3.80388 -0.0921773 0
M  V30 3281 H 344.591 -3.48654 1.70476 0
M  V30 3282 H 342.692 -3.64857 -0.755674 0
M  V30 3283 H 342.805 -4.72532 0.790583 0
M  V30 3284 H 341.169 -2.52624 0.324551 0
M  V30 3285 H 341.952 -2.81036 1.97164 0
M  V30 3286 N 344.397 -0.483516 -1.5 0
M  V30 3287 C 345.808 -0.0314176 -1.86674 0
M  V30 3288 C 346.159 1.37728 -1.39733 0
M  V30 3289 O 345.284 2.02327 -0.767635 0
M  V30 3290 C 345.879 -0.0502376 -3.38763 0
M  V30 3291 C 344.438 0.346442 -3.74802 0
M  V30 3292 C 343.585 -0.430366 -2.7394 0
M  V30 3293 H 346.536 -0.697182 -1.42566 0
M  V30 3294 H 346.557 0.749116 -3.73053 0
M  V30 3295 H 346.069 -1.07563 -3.72897 0
M  V30 3296 H 344.17 1.37572 -3.46273 0
M  V30 3297 H 344.283 0.0391486 -4.79084 0
M  V30 3298 H 342.647 0.117557 -2.54429 0
M  V30 3299 H 343.43 -1.4555 -3.10918 0
M  V30 3300 N 345.875 1.56104 -0.216619 0
M  V30 3301 C 347.1 2.0301 0.424462 0
M  V30 3302 C 347.525 1.0955 1.52907 0
M  V30 3303 O 346.883 0.0827914 1.81111 0
M  V30 3304 C 346.931 3.4819 0.937883 0
M  V30 3305 O 346.035 3.57865 2.04955 0
M  V30 3306 H 345.376 0.656925 0.0966755 0
M  V30 3307 H 347.906 2.01859 -0.33381 0
M  V30 3308 H 347.916 3.88413 1.24897 0
M  V30 3309 H 346.591 4.15699 0.129387 0
M  V30 3310 H 345.168 3.29527 1.74546 0
M  V30 3311 N 347.353 -0.0568162 1.57498 0
M  V30 3312 C 348.3 -1.06591 2.04712 0
M  V30 3313 C 349.27 -1.3758 0.930644 0
M  V30 3314 O 350.455 -1.48392 1.19935 0
M  V30 3315 C 347.595 -2.3701 2.50839 0
M  V30 3316 C 346.708 -2.12421 3.76167 0
M  V30 3317 C 345.843 -3.36511 4.11015 0
M  V30 3318 C 344.882 -3.07353 5.2934 0
M  V30 3319 N 344.019 -4.23816 5.59754 0
M  V30 3320 H 348.859 -0.65631 2.90683 0
M  V30 3321 H 346.396 -0.312481 1.43743 0
M  V30 3322 H 348.354 -3.13175 2.7564 0
M  V30 3323 H 346.984 -2.75744 1.67825 0
M  V30 3324 H 346.036 -1.2688 3.58616 0
M  V30 3325 H 347.348 -1.86894 4.62463 0
M  V30 3326 H 346.502 -4.21062 4.36797 0
M  V30 3327 H 345.241 -3.65128 3.23315 0
M  V30 3328 H 344.246 -2.212 5.03339 0
M  V30 3329 H 345.471 -2.80043 6.1867 0
M  V30 3330 H 343.417 -4.52436 4.75014 0
M  V30 3331 H 343.334 -4.01614 6.40501 0
M  V30 3332 H 344.602 -5.0932 5.90096 0
M  V30 3333 N 348.832 -1.54138 -0.328536 0
M  V30 3334 C 349.795 -1.82462 -1.38709 0
M  V30 3335 C 350.795 -0.696229 -1.44946 0
M  V30 3336 O 351.985 -0.964535 -1.4506 0
M  V30 3337 C 349.117 -1.98018 -2.77492 0
M  V30 3338 H 350.31 -2.77037 -1.14851 0
M  V30 3339 H 347.863 -1.45779 -0.563751 0
M  V30 3340 H 348.598 -1.05637 -3.06613 0
M  V30 3341 H 348.383 -2.80124 -2.74359 0
M  V30 3342 H 349.873 -2.21396 -3.54081 0
M  V30 3343 N 350.31 0.590341 -1.46126 0
M  V30 3344 C 351.535 1.37991 -1.54833 0
M  V30 3345 C 351.96 1.87163 -0.187506 0
M  V30 3346 O 351.318 1.61133 0.831008 0
M  V30 3347 C 351.366 2.54867 -2.55098 0
M  V30 3348 O 350.47 3.56061 -2.08073 0
M  V30 3349 H 349.811 0.411265 -0.521303 0
M  V30 3350 H 352.341 0.716819 -1.91632 0
M  V30 3351 H 352.351 3.01886 -2.74461 0
M  V30 3352 H 351.026 2.18429 -3.53923 0
M  V30 3353 H 349.603 3.15574 -1.98664 0
M  V30 3354 N 351.788 1.33704 0.83433 0
M  V30 3355 C 353.199 1.22813 1.4062 0
M  V30 3356 C 353.55 -0.151107 1.95617 0
M  V30 3357 O 352.675 -1.05092 1.89168 0
M  V30 3358 C 353.27 2.22355 2.55624 0
M  V30 3359 C 351.829 2.1529 3.08751 0
M  V30 3360 C 350.976 2.09589 1.8157 0
M  V30 3361 H 353.927 1.45236 0.639702 0
M  V30 3362 H 353.948 1.83391 3.33389 0
M  V30 3363 H 353.46 3.22728 2.15566 0
M  V30 3364 H 351.561 1.18235 3.53343 0
M  V30 3365 H 351.674 3.06038 3.68616 0
M  V30 3366 H 350.038 1.55134 2.02004 0
M  V30 3367 H 350.821 3.11777 1.43701 0
M  V30 3368 N 353.266 -1.05314 1.17247 0
M  V30 3369 C 354.229 -2.112 0.890357 0
M  V30 3370 C 355.229 -1.60359 -0.118943 0
M  V30 3371 O 356.419 -1.73833 0.113086 0
M  V30 3372 C 353.551 -3.39266 0.333422 0
M  V30 3373 H 354.744 -2.37659 1.82916 0
M  V30 3374 H 352.297 -1.21538 0.982758 0
M  V30 3375 H 353.032 -3.18462 -0.612587 0
M  V30 3376 H 352.817 -3.77477 1.06082 0
M  V30 3377 H 354.307 -4.17315 0.154322 0
M  V30 3378 N 354.744 -0.972509 -1.24016 0
M  V30 3379 C 355.676 -0.464375 -2.24446 0
M  V30 3380 C 356.689 0.4295 -1.57032 0
M  V30 3381 O 357.878 0.234902 -1.76948 0
M  V30 3382 C 354.978 0.348385 -3.37105 0
M  V30 3383 C 354.151 -0.53673 -4.34094 0
M  V30 3384 C 353.21 0.220838 -5.25736 0
M  V30 3385 O 352.236 -0.386867 -5.67884 0
M  V30 3386 N 353.438 1.50907 -5.60542 0
M  V30 3387 H 356.203 -1.32788 -2.68677 0
M  V30 3388 H 353.764 -0.844877 -1.38107 0
M  V30 3389 H 355.756 0.863341 -3.95384 0
M  V30 3390 H 354.326 1.11285 -2.92121 0
M  V30 3391 H 353.546 -1.23261 -3.74433 0
M  V30 3392 H 354.834 -1.14022 -4.95859 0
M  V30 3393 H 354.232 2.02444 -5.28236 0
M  V30 3394 H 352.789 1.96962 -6.21329 0
M  V30 3395 N 356.222 1.38976 -0.743202 0
M  V30 3396 C 357.499 1.94351 -0.220705 0
M  V30 3397 C 357.879 1.67935 1.2791 0
M  V30 3398 O 357.227 1.01211 2.04862 0
M  V30 3399 C 357.437 3.44426 -0.563171 0
M  V30 3400 C 358.785 4.2144 -0.517046 0
M  V30 3401 O 359.809 3.52661 -0.500846 0
M  V30 3402 O 358.668 5.44032 -0.518806 0
M  V30 3403 H 355.762 0.825879 -0.043047 0
M  V30 3404 H 358.308 1.48429 -0.822618 0
M  V30 3405 H 357.08 3.5712 -1.59941 0
M  V30 3406 H 356.703 3.97543 0.0672883 0
M  V30 3407 N 357.7 0.491464 1.49741 0
M  V30 3408 C 358.948 -0.0563141 2.02022 0
M  V30 3409 C 359.269 -1.38363 1.37407 0
M  V30 3410 O 358.539 -1.88702 0.526166 0
M  V30 3411 H 357.119 -0.0238014 0.746621 0
M  V30 3412 H 359.781 0.646533 1.83864 0
M  V30 3413 H 358.877 -0.192967 3.11503 0
M  V30 3414 N 359.178 -1.55987 0.224894 0
M  V30 3415 C 360.594 -1.59066 -0.130426 0
M  V30 3416 C 360.794 -1.24176 -1.5869 0
M  V30 3417 O 359.85 -0.978592 -2.32766 0
M  V30 3418 C 361.163 -3.00042 0.198883 0
M  V30 3419 C 362.711 -3.1268 0.141391 0
M  V30 3420 C 363.186 -4.55839 0.444422 0
M  V30 3421 N 364.677 -4.6152 0.394115 0
M  V30 3422 C 365.412 -5.70231 0.602038 0
M  V30 3423 N 364.908 -6.87291 0.871914 0
M  V30 3424 N 366.701 -5.59555 0.534245 0
M  V30 3425 H 358.852 -1.76941 1.17497 0
M  V30 3426 H 361.115 -0.822604 0.471197 0
M  V30 3427 H 360.821 -3.30234 1.2099 0
M  V30 3428 H 360.695 -3.74075 -0.484535 0
M  V30 3429 H 363.082 -2.82283 -0.860265 0
M  V30 3430 H 363.163 -2.40969 0.858335 0
M  V30 3431 H 362.807 -4.86954 1.44353 0
M  V30 3432 H 362.737 -5.2578 -0.293752 0
M  V30 3433 H 365.228 -3.77405 0.193356 0
M  V30 3434 H 365.541 -7.66058 1.01858 0
M  V30 3435 H 363.886 -6.89028 0.909145 0
M  V30 3436 H 367.077 -4.6698 0.323612 0
M  V30 3437 H 367.25 -6.44211 0.699693 0
M  V30 3438 N 360.656 0.0484629 -1.57525 0
M  V30 3439 C 362.067 0.597486 -1.76881 0
M  V30 3440 C 362.418 1.76664 -0.853475 0
M  V30 3441 O 361.543 2.16357 -0.0433656 0
M  V30 3442 C 362.138 1.09066 -3.20765 0
M  V30 3443 C 360.697 1.58535 -3.41385 0
M  V30 3444 C 359.844 0.514868 -2.72478 0
M  V30 3445 H 362.795 -0.177758 -1.57701 0
M  V30 3446 H 362.816 1.95875 -3.2621 0
M  V30 3447 H 362.328 0.239521 -3.8736 0
M  V30 3448 H 360.429 2.45898 -2.79937 0
M  V30 3449 H 360.542 1.64622 -4.49929 0
M  V30 3450 H 358.906 0.965407 -2.35695 0
M  V30 3451 H 359.689 -0.32648 -3.41744 0
M  V30 3452 N 362.134 1.5431 0.320358 0
M  V30 3453 C 363.545 1.63872 0.894594 0
M  V30 3454 C 363.896 0.534847 1.88769 0
M  V30 3455 O 363.021 -0.331732 2.13842 0
M  V30 3456 C 363.616 2.97049 1.62934 0
M  V30 3457 C 362.175 3.08796 2.15226 0
M  V30 3458 C 361.322 2.59456 0.978671 0
M  V30 3459 H 364.273 1.58398 0.0978544 0
M  V30 3460 H 364.294 2.87388 2.49376 0
M  V30 3461 H 363.806 3.7737 0.906302 0
M  V30 3462 H 361.907 2.33156 2.90636 0
M  V30 3463 H 362.02 4.14649 2.40006 0
M  V30 3464 H 360.384 2.1543 1.35875 0
M  V30 3465 H 361.167 3.42237 0.269895 0
M  V30 3466 N 363.613 -0.582584 1.46437 0
M  V30 3467 C 364.545 -1.70618 1.53043 0
M  V30 3468 C 365.558 -1.57322 0.418769 0
M  V30 3469 O 366.747 -1.64744 0.687136 0
M  V30 3470 C 363.847 -3.08869 1.39474 0
M  V30 3471 C 363.02 -3.48166 2.64762 0
M  V30 3472 C 362.079 -4.65478 2.4539 0
M  V30 3473 O 361.105 -4.71333 3.19114 0
M  V30 3474 N 362.307 -5.60365 1.51564 0
M  V30 3475 H 365.072 -1.65405 2.49923 0
M  V30 3476 H 362.633 -0.768567 1.42494 0
M  V30 3477 H 364.625 -3.85143 1.24287 0
M  V30 3478 H 363.195 -3.08449 0.507758 0
M  V30 3479 H 362.415 -2.61598 2.9489 0
M  V30 3480 H 363.703 -3.71188 3.4799 0
M  V30 3481 H 363.101 -5.5837 0.907705 0
M  V30 3482 H 361.658 -6.36068 1.4234 0
M  V30 3483 N 365.091 -1.34144 -0.827227 0
M  V30 3484 C 366.319 -1.29325 -1.61501 0
M  V30 3485 C 366.734 0.13354 -1.88327 0
M  V30 3486 O 366.091 1.0793 -1.47164 0
M  V30 3487 C 366.142 -2.07746 -2.95844 0
M  V30 3488 O 365.863 -3.4486 -2.70191 0
M  V30 3489 C 367.364 -2.10273 -3.90256 0
M  V30 3490 H 364.584 -0.445069 -0.50215 0
M  V30 3491 H 367.128 -1.76693 -1.02955 0
M  V30 3492 H 365.283 -1.6403 -3.5096 0
M  V30 3493 H 365.697 -3.85345 -3.55822 0
M  V30 3494 H 367.171 -2.69575 -4.81698 0
M  V30 3495 H 367.648 -1.096 -4.25305 0
M  V30 3496 H 368.254 -2.54059 -3.41078 0
M  V30 3497 N 366.569 1.04691 -1.17803 0
M  V30 3498 C 367.532 2.10724 -0.901545 0
M  V30 3499 C 368.532 1.6042 0.110437 0
M  V30 3500 O 369.722 1.7377 -0.122303 0
M  V30 3501 C 366.854 3.39084 -0.351409 0
M  V30 3502 H 368.047 2.36686 -1.84174 0
M  V30 3503 H 365.6 1.21015 -0.98919 0
M  V30 3504 H 366.335 3.18782 0.59569 0
M  V30 3505 H 366.12 3.76909 -1.08083 0
M  V30 3506 H 367.61 4.17227 -0.176451 0
M  V30 3507 N 368.047 0.979072 1.23499 0
M  V30 3508 C 369.01 0.523244 2.23147 0
M  V30 3509 C 370.01 -0.386406 1.56088 0
M  V30 3510 O 371.2 -0.180283 1.73265 0
M  V30 3511 C 368.332 -0.240739 3.40049 0
M  V30 3512 H 369.525 1.40432 2.64989 0
M  V30 3513 H 367.078 0.764824 1.36309 0
M  V30 3514 H 367.813 -1.13841 3.03662 0
M  V30 3515 H 367.598 0.412207 3.89927 0
M  V30 3516 H 369.088 -0.548297 4.13985 0
M  V30 3517 N 369.525 -1.3858 0.750561 0
M  V30 3518 C 370.941 -1.53759 0.427824 0
M  V30 3519 C 371.141 -1.71401 -1.05943 0
M  V30 3520 O 370.197 -1.72331 -1.84549 0
M  V30 3521 C 371.51 -2.74642 1.22443 0
M  V30 3522 C 373.058 -2.88489 1.2142 0
M  V30 3523 C 373.533 -4.12329 1.9937 0
M  V30 3524 N 375.024 -4.194 1.96616 0
M  V30 3525 C 375.759 -5.14209 2.53727 0
M  V30 3526 N 375.255 -6.14709 3.19539 0
M  V30 3527 N 377.048 -5.06537 2.43673 0
M  V30 3528 H 369.199 -1.25377 1.71447 0
M  V30 3529 H 371.462 -0.608844 0.726645 0
M  V30 3530 H 371.168 -2.68 2.27747 0
M  V30 3531 H 371.042 -3.67745 0.839273 0
M  V30 3532 H 373.429 -2.94614 0.169232 0
M  V30 3533 H 373.51 -1.96406 1.63885 0
M  V30 3534 H 373.154 -4.06966 3.03877 0
M  V30 3535 H 373.084 -5.03486 1.54302 0
M  V30 3536 H 375.575 -3.47421 1.48684 0
M  V30 3537 H 375.888 -6.8354 3.60545 0
M  V30 3538 H 374.233 -6.1505 3.23633 0
M  V30 3539 H 377.424 -4.26962 1.91889 0
M  V30 3540 H 377.597 -5.80245 2.88479 0
M  V30 3541 N 371.003 -0.499398 -1.49478 0
M  V30 3542 C 371.913 0.284489 -2.32869 0
M  V30 3543 C 372.929 0.968885 -1.44529 0
M  V30 3544 O 374.105 0.95062 -1.77553 0
M  V30 3545 C 371.17 1.33594 -3.19928 0
M  V30 3546 C 370.231 0.665149 -4.24116 0
M  V30 3547 C 369.464 1.6665 -5.07014 0
M  V30 3548 O 369.687 2.89618 -4.91404 0
M  V30 3549 O 368.621 1.22271 -5.8935 0
M  V30 3550 H 372.447 -0.39802 -3.01081 0
M  V30 3551 H 370.032 -0.260758 -1.47107 0
M  V30 3552 H 371.914 1.94431 -3.73864 0
M  V30 3553 H 370.589 2.0014 -2.54412 0
M  V30 3554 H 369.496 0.0170769 -3.74096 0
M  V30 3555 H 370.829 0.0421555 -4.92182 0
M  V30 3556 N 372.481 1.55866 -0.233164 0
M  V30 3557 C 373.444 2.1953 0.658715 0
M  V30 3558 C 374.444 1.16053 1.11303 0
M  V30 3559 O 375.634 1.41218 1.01996 0
M  V30 3560 C 372.766 2.82791 1.90373 0
M  V30 3561 H 373.959 2.99721 0.10347 0
M  V30 3562 H 371.512 1.56291 0.0164245 0
M  V30 3563 H 372.247 2.06501 2.50056 0
M  V30 3564 H 372.032 3.58578 1.58632 0
M  V30 3565 H 373.522 3.31556 2.53891 0
M  V30 3566 N 373.959 -0.0401083 1.57549 0
M  V30 3567 C 375.187 -0.745196 1.93014 0
M  V30 3568 C 375.602 -1.6948 0.831984 0
M  V30 3569 O 374.959 -1.81482 -0.192463 0
M  V30 3570 C 375.01 -1.51176 3.28372 0
M  V30 3571 O 374.731 -0.600284 4.33968 0
M  V30 3572 C 376.232 -2.315 3.78051 0
M  V30 3573 H 373.452 -0.210088 0.637263 0
M  V30 3574 H 375.996 -0.000924689 2.045 0
M  V30 3575 H 374.151 -2.20801 3.18317 0
M  V30 3576 H 374.565 -1.13669 5.12035 0
M  V30 3577 H 376.039 -2.80697 4.75303 0
M  V30 3578 H 376.516 -3.12436 3.08675 0
M  V30 3579 H 377.122 -1.66971 3.91153 0
M  V30 3580 N 375.437 -1.54477 -0.31217 0
M  V30 3581 C 376.662 -1.77526 -1.07235 0
M  V30 3582 C 377.087 -0.527775 -1.80544 0
M  V30 3583 O 376.445 0.52121 -1.73646 0
M  V30 3584 C 376.493 -2.97535 -2.03728 0
M  V30 3585 O 375.597 -2.69878 -3.11833 0
M  V30 3586 H 374.938 -0.58792 -0.30862 0
M  V30 3587 H 377.468 -2.01532 -0.352993 0
M  V30 3588 H 377.478 -3.25198 -2.46395 0
M  V30 3589 H 376.153 -3.87996 -1.49774 0
M  V30 3590 H 374.73 -2.53199 -2.7376 0
M  V30 3591 N 376.915 0.57481 -1.46744 0
M  V30 3592 C 378.164 1.32898 -1.51727 0
M  V30 3593 C 378.477 1.948 -0.176692 0
M  V30 3594 O 379.683 2.71299 -0.104385 0
M  V30 3595 C 378.139 2.40901 -2.67385 0
M  V30 3596 C 377.747 1.85266 -4.07898 0
M  V30 3597 C 379.491 3.17609 -2.81646 0
M  V30 3598 C 377.398 2.90945 -5.14883 0
M  V30 3599 H 376.328 0.499631 -0.564699 0
M  V30 3600 H 378.979 0.612536 -1.72975 0
M  V30 3601 H 377.361 3.15379 -2.39483 0
M  V30 3602 H 378.535 1.17278 -4.45626 0
M  V30 3603 H 376.85 1.21199 -3.98371 0
M  V30 3604 H 379.447 3.96493 -3.58744 0
M  V30 3605 H 379.79 3.70696 -1.89448 0
M  V30 3606 H 380.323 2.50239 -3.09233 0
M  V30 3607 H 377.062 2.42736 -6.089 0
M  V30 3608 H 376.582 3.57398 -4.81691 0
M  V30 3609 H 378.261 3.54755 -5.41071 0
M  V30 3610 N 378.394 1.34581 0.820102 0
M  V30 3611 C 379.805 1.24298 1.39309 0
M  V30 3612 C 380.156 -0.130351 1.95767 0
M  V30 3613 O 379.281 -1.0308 1.90272 0
M  V30 3614 C 379.876 2.25054 2.53251 0
M  V30 3615 C 378.435 2.18552 3.0645 0
M  V30 3616 C 377.582 2.11503 1.79337 0
M  V30 3617 H 380.533 1.45906 0.624262 0
M  V30 3618 H 380.554 1.86917 3.31425 0
M  V30 3619 H 380.066 3.24996 2.1213 0
M  V30 3620 H 378.167 1.21976 3.52069 0
M  V30 3621 H 378.28 3.0993 3.65349 0
M  V30 3622 H 376.644 1.57268 2.00347 0
M  V30 3623 H 377.427 3.13284 1.40386 0
M  V30 3624 N 379.872 -1.04064 1.18357 0
M  V30 3625 C 381.12 -1.76915 0.977013 0
M  V30 3626 C 381.441 -1.88624 -0.494577 0
M  V30 3627 O 380.711 -1.41125 -1.3587 0
M  V30 3628 H 379.291 -0.65535 0.358504 0
M  V30 3629 H 381.953 -1.25592 1.49039 0
M  V30 3630 H 381.049 -2.78178 1.41504 0
M  V30 3631 N 381.35 -0.985608 -1.22978 0
M  V30 3632 C 382.597 -0.657386 -1.91532 0
M  V30 3633 C 382.925 0.809707 -1.76845 0
M  V30 3634 O 382.18 1.60021 -1.12658 0
M  V30 3635 C 382.479 -1.00014 -3.43121 0
M  V30 3636 C 382.145 -2.4583 -3.77993 0
M  V30 3637 C 380.807 -2.85679 -3.87222 0
M  V30 3638 C 383.159 -3.40378 -3.94705 0
M  V30 3639 C 380.487 -4.19081 -4.10595 0
M  V30 3640 C 382.839 -4.73429 -4.1958 0
M  V30 3641 C 381.503 -5.1303 -4.27032 0
M  V30 3642 H 380.773 -0.240555 -0.700867 0
M  V30 3643 H 383.42 -1.24044 -1.45895 0
M  V30 3644 H 381.725 -0.335072 -3.90365 0
M  V30 3645 H 383.422 -0.724322 -3.94404 0
M  V30 3646 H 380.012 -2.13939 -3.71387 0
M  V30 3647 H 384.196 -3.10766 -3.8696 0
M  V30 3648 H 379.452 -4.49362 -4.14589 0
M  V30 3649 H 383.626 -5.46644 -4.31455 0
M  V30 3650 H 381.253 -6.16418 -4.44896 0
M  V30 3651 N 382.828 1.3818 -0.7579 0
M  V30 3652 C 384.239 1.82726 -0.383134 0
M  V30 3653 C 384.59 1.63214 1.08884 0
M  V30 3654 O 383.715 1.13566 1.84205 0
M  V30 3655 C 384.31 3.31728 -0.688631 0
M  V30 3656 C 382.869 3.74606 -0.367091 0
M  V30 3657 C 382.016 2.60896 -0.939599 0
M  V30 3658 H 384.967 1.26847 -0.953699 0
M  V30 3659 H 384.988 3.80487 0.0316492 0
M  V30 3660 H 384.5 3.45898 -1.76001 0
M  V30 3661 H 382.601 3.66013 0.697532 0
M  V30 3662 H 382.714 4.71215 -0.865658 0
M  V30 3663 H 381.078 2.52075 -0.3647 0
M  V30 3664 H 381.861 2.77864 -2.0161 0
M  V30 3665 N 384.306 0.507319 1.49211 0
M  V30 3666 C 385.269 -0.256763 2.27757 0
M  V30 3667 C 386.269 -0.888287 1.34038 0
M  V30 3668 O 387.459 -0.751841 1.5714 0
M  V30 3669 C 384.591 -1.36905 3.12202 0
M  V30 3670 H 385.784 0.432557 2.96764 0
M  V30 3671 H 383.337 0.262488 1.5408 0
M  V30 3672 H 384.072 -2.09233 2.47775 0
M  V30 3673 H 383.857 -0.921599 3.81115 0
M  V30 3674 H 385.347 -1.9071 3.7151 0
M  V30 3675 N 385.784 -1.5574 0.241426 0
M  V30 3676 C 386.694 -2.2479 -0.671305 0
M  V30 3677 C 387.71 -1.26217 -1.19772 0
M  V30 3678 O 388.886 -1.59079 -1.23514 0
M  V30 3679 C 385.951 -2.92966 -1.85396 0
M  V30 3680 C 385.012 -4.06935 -1.36756 0
M  V30 3681 C 384.245 -4.71851 -2.49384 0
M  V30 3682 O 384.468 -4.35823 -3.67987 0
M  V30 3683 O 383.402 -5.60467 -2.19454 0
M  V30 3684 H 387.228 -3.0349 -0.112966 0
M  V30 3685 H 384.813 -1.49397 0.0101513 0
M  V30 3686 H 386.695 -3.35927 -2.54423 0
M  V30 3687 H 385.37 -2.17211 -2.40002 0
M  V30 3688 H 384.277 -3.68503 -0.644726 0
M  V30 3689 H 385.61 -4.84492 -0.867647 0
M  V30 3690 N 387.262 0.0317525 -1.57568 0
M  V30 3691 C 388.51 0.721676 -1.88776 0
M  V30 3692 C 388.831 1.76039 -0.838772 0
M  V30 3693 O 388.101 1.95482 0.127935 0
M  V30 3694 H 386.681 0.269534 -0.696678 0
M  V30 3695 H 389.343 -0.00165879 -1.949 0
M  V30 3696 H 388.439 1.21293 -2.87566 0
M  V30 3697 N 388.74 1.54641 0.303973 0
M  V30 3698 C 389.703 1.84646 1.35789 0
M  V30 3699 C 390.703 0.7192 1.4382 0
M  V30 3700 O 391.893 0.987491 1.43507 0
M  V30 3701 C 389.025 2.02407 2.74307 0
M  V30 3702 H 390.218 2.78829 1.10429 0
M  V30 3703 H 387.771 1.46658 0.540487 0
M  V30 3704 H 388.506 1.10502 3.04893 0
M  V30 3705 H 388.291 2.84453 2.69868 0
M  V30 3706 H 389.781 2.27002 3.50514 0
M  V30 3707 N 390.218 -0.567019 1.47046 0
M  V30 3708 C 391.467 -1.32091 1.5243 0
M  V30 3709 C 391.78 -1.94704 0.187021 0
M  V30 3710 O 392.986 -2.7124 0.118771 0
M  V30 3711 C 391.442 -2.39479 2.68659 0
M  V30 3712 C 391.05 -1.831 4.08874 0
M  V30 3713 C 392.794 -3.16111 2.83327 0
M  V30 3714 C 390.701 -2.8821 5.16419 0
M  V30 3715 H 389.631 -0.496629 0.56734 0
M  V30 3716 H 392.282 -0.603354 1.73297 0
M  V30 3717 H 390.664 -3.14105 2.41152 0
M  V30 3718 H 391.838 -1.14913 4.46242 0
M  V30 3719 H 390.153 -1.19085 3.99008 0
M  V30 3720 H 392.75 -3.94585 3.60842 0
M  V30 3721 H 393.093 -3.69686 1.91411 0
M  V30 3722 H 393.626 -2.48595 3.10556 0
M  V30 3723 H 390.365 -2.39504 6.10179 0
M  V30 3724 H 389.885 -3.54839 4.8358 0
M  V30 3725 H 391.564 -3.51881 5.42945 0
M  V30 3726 N 391.696 -1.35014 -0.812953 0
M  V30 3727 C 393.107 -1.25035 -1.38648 0
M  V30 3728 C 393.458 0.119967 -1.95833 0
M  V30 3729 O 392.583 1.02069 -1.90816 0
M  V30 3730 C 393.178 -2.26394 -2.52054 0
M  V30 3731 C 391.737 -2.20175 -3.05287 0
M  V30 3732 C 390.884 -2.12451 -1.78213 0
M  V30 3733 H 393.835 -1.46235 -0.616516 0
M  V30 3734 H 393.856 -1.88672 -3.30429 0
M  V30 3735 H 393.368 -3.26116 -2.10404 0
M  V30 3736 H 391.469 -1.23841 -3.51417 0
M  V30 3737 H 391.582 -3.11863 -3.63701 0
M  V30 3738 H 389.946 -1.58328 -1.9951 0
M  V30 3739 H 390.729 -3.14024 -1.38723 0
M  V30 3740 N 393.175 1.03435 -1.18907 0
M  V30 3741 C 394.105 2.13503 -0.945448 0
M  V30 3742 C 395.086 1.69682 0.119189 0
M  V30 3743 O 396.271 1.94169 -0.034707 0
M  V30 3744 C 393.401 3.44004 -0.477316 0
M  V30 3745 C 392.355 4.0148 -1.48316 0
M  V30 3746 C 391.681 5.27537 -0.872311 0
M  V30 3747 C 392.981 4.36921 -2.86177 0
M  V30 3748 H 394.675 2.34141 -1.86597 0
M  V30 3749 H 392.221 1.12523 -0.898584 0
M  V30 3750 H 394.174 4.20372 -0.294204 0
M  V30 3751 H 392.898 3.23072 0.478786 0
M  V30 3752 H 391.557 3.27201 -1.65332 0
M  V30 3753 H 391.205 5.02917 0.0911752 0
M  V30 3754 H 390.905 5.66954 -1.54393 0
M  V30 3755 H 392.429 6.06576 -0.699871 0
M  V30 3756 H 393.843 5.04248 -2.72776 0
M  V30 3757 H 392.24 4.87405 -3.50081 0
M  V30 3758 H 393.31 3.46466 -3.39248 0
M  V30 3759 N 394.653 0.992116 1.22453 0
M  V30 3760 C 396.064 0.702776 1.72968 0
M  V30 3761 C 396.415 -0.780399 1.80012 0
M  V30 3762 O 395.54 -1.61007 1.44589 0
M  V30 3763 C 396.135 1.26903 3.14135 0
M  V30 3764 C 394.694 1.02909 3.62059 0
M  V30 3765 C 393.841 1.38969 2.39964 0
M  V30 3766 H 396.792 1.16457 1.07812 0
M  V30 3767 H 396.813 0.647223 3.74955 0
M  V30 3768 H 396.325 2.34851 3.08977 0
M  V30 3769 H 394.426 -0.0337979 3.72585 0
M  V30 3770 H 394.539 1.69191 4.48231 0
M  V30 3771 H 392.903 0.808279 2.41535 0
M  V30 3772 H 393.686 2.4792 2.37467 0
M  V30 3773 N 396.131 -1.37776 0.765217 0
M  V30 3774 C 397.377 -2.00145 0.327072 0
M  V30 3775 C 397.71 -1.60607 -1.09175 0
M  V30 3776 O 396.985 -0.849127 -1.74986 0
M  V30 3777 C 397.268 -3.57109 0.46319 0
M  V30 3778 C 397.121 -4.06576 1.92395 0
M  V30 3779 C 398.44 -4.39888 -0.136473 0
M  V30 3780 H 395.559 -0.727113 0.120316 0
M  V30 3781 H 398.201 -1.63549 0.967039 0
M  V30 3782 H 396.351 -3.88414 -0.0816358 0
M  V30 3783 H 398.023 -3.85864 2.52798 0
M  V30 3784 H 396.266 -3.59011 2.43503 0
M  V30 3785 H 396.937 -5.15639 1.97028 0
M  V30 3786 H 399.413 -4.14803 0.328317 0
M  V30 3787 H 398.289 -5.48899 -0.0110582 0
M  V30 3788 H 398.55 -4.24758 -1.22608 0
M  V30 3789 N 397.609 -0.515225 -1.4894 0
M  V30 3790 C 398.886 0.0879088 -1.95402 0
M  V30 3791 C 399.266 1.52745 -1.45712 0
M  V30 3792 O 398.614 2.18238 -0.677093 0
M  V30 3793 C 398.824 -0.0141055 -3.48997 0
M  V30 3794 C 400.172 0.152646 -4.24326 0
M  V30 3795 O 401.196 0.0604025 -3.56149 0
M  V30 3796 O 400.055 0.34384 -5.45417 0
M  V30 3797 H 397.149 0.0874636 -0.822362 0
M  V30 3798 H 399.695 -0.578775 -1.59525 0
M  V30 3799 H 398.467 -1.01745 -3.77841 0
M  V30 3800 H 398.09 0.692091 -3.9153 0
M  V30 3801 N 399.087 1.5561 -0.249682 0
M  V30 3802 C 400.334 1.99011 0.374287 0
M  V30 3803 C 400.662 1.13785 1.57744 0
M  V30 3804 O 399.917 0.189326 1.94782 0
M  V30 3805 C 400.216 3.4775 0.824887 0
M  V30 3806 C 399.882 4.50086 -0.270819 0
M  V30 3807 C 398.544 4.77791 -0.571746 0
M  V30 3808 C 400.896 5.11312 -1.01041 0
M  V30 3809 C 398.224 5.63997 -1.61629 0
M  V30 3810 C 400.576 5.98651 -2.0445 0
M  V30 3811 C 399.24 6.24688 -2.35204 0
M  V30 3812 H 398.51 0.728233 0.136961 0
M  V30 3813 H 401.157 1.88122 -0.358087 0
M  V30 3814 H 399.462 3.55985 1.63651 0
M  V30 3815 H 401.159 3.78721 1.31799 0
M  V30 3816 H 397.749 4.28592 -0.026136 0
M  V30 3817 H 401.933 4.89953 -0.791177 0
M  V30 3818 H 397.189 5.82425 -1.85988 0
M  V30 3819 H 401.363 6.45135 -2.62248 0
M  V30 3820 H 398.99 6.91281 -3.16282 0
M  V30 3821 N 400.565 -0.0233959 1.57583 0
M  V30 3822 C 401.495 -1.02162 2.09965 0
M  V30 3823 C 402.476 -1.3735 1.00344 0
M  V30 3824 O 403.661 -1.46135 1.27899 0
M  V30 3825 C 400.791 -2.32081 2.58371 0
M  V30 3826 C 399.745 -2.1112 3.72307 0
M  V30 3827 C 399.071 -3.46848 4.06941 0
M  V30 3828 C 400.371 -1.49276 5.00514 0
M  V30 3829 H 402.065 -0.585557 2.93618 0
M  V30 3830 H 399.611 -0.280218 1.41247 0
M  V30 3831 H 401.564 -3.02249 2.93639 0
M  V30 3832 H 400.288 -2.77758 1.71808 0
M  V30 3833 H 398.947 -1.43384 3.37397 0
M  V30 3834 H 398.595 -3.90184 3.17436 0
M  V30 3835 H 398.295 -3.33646 4.83688 0
M  V30 3836 H 399.819 -4.18369 4.44747 0
M  V30 3837 H 401.233 -2.09368 5.33702 0
M  V30 3838 H 399.63 -1.46632 5.8191 0
M  V30 3839 H 400.7 -0.459217 4.82721 0
M  V30 3840 N 402.043 -1.548 -0.295768 0
M  V30 3841 C 403.268 -1.78653 -1.05346 0
M  V30 3842 C 403.693 -0.546894 -1.79974 0
M  V30 3843 O 403.051 0.502763 -1.7419 0
M  V30 3844 C 403.099 -2.99679 -2.00561 0
M  V30 3845 O 402.203 -2.7317 -3.08953 0
M  V30 3846 H 401.544 -0.59116 -0.302367 0
M  V30 3847 H 404.074 -2.01895 -0.331598 0
M  V30 3848 H 404.084 -3.27793 -2.42932 0
M  V30 3849 H 402.759 -3.89562 -1.4565 0
M  V30 3850 H 401.336 -2.56089 -2.71059 0
M  V30 3851 N 403.521 0.559213 -1.47345 0
M  V30 3852 C 404.468 1.66645 -1.59682 0
M  V30 3853 C 405.438 1.60168 -0.43994 0
M  V30 3854 O 406.623 1.79031 -0.659736 0
M  V30 3855 C 403.763 3.04969 -1.61518 0
M  V30 3856 C 402.876 3.21897 -2.88108 0
M  V30 3857 C 402.011 4.50608 -2.81294 0
M  V30 3858 C 401.05 4.60961 -4.02717 0
M  V30 3859 N 400.187 5.81024 -3.94151 0
M  V30 3860 H 405.027 1.55439 -2.54249 0
M  V30 3861 H 402.564 0.757219 -1.26113 0
M  V30 3862 H 404.522 3.85064 -1.60566 0
M  V30 3863 H 403.152 3.15015 -0.704645 0
M  V30 3864 H 402.204 2.35248 -2.98936 0
M  V30 3865 H 403.516 3.25412 -3.78032 0
M  V30 3866 H 402.67 5.3896 -2.7858 0
M  V30 3867 H 401.409 4.49568 -1.89049 0
M  V30 3868 H 400.414 3.71021 -4.05738 0
M  V30 3869 H 401.639 4.63761 -4.96087 0
M  V30 3870 H 399.585 5.80938 -3.04708 0
M  V30 3871 H 399.502 5.85909 -4.77752 0
M  V30 3872 H 400.77 6.71744 -3.9545 0
M  V30 3873 N 404.999 1.35443 0.805782 0
M  V30 3874 C 406.245 1.28952 1.56522 0
M  V30 3875 C 406.578 -0.135597 1.93726 0
M  V30 3876 O 405.853 -1.08516 1.61414 0
M  V30 3877 C 406.136 2.19678 2.85331 0
M  V30 3878 C 405.989 3.7081 2.54598 0
M  V30 3879 C 407.308 2.09495 3.8704 0
M  V30 3880 H 404.427 0.469764 0.567883 0
M  V30 3881 H 407.069 1.65851 0.927001 0
M  V30 3882 H 405.219 1.8834 3.39795 0
M  V30 3883 H 406.891 4.12593 2.06312 0
M  V30 3884 H 405.134 3.91051 1.8778 0
M  V30 3885 H 405.805 4.29679 3.46525 0
M  V30 3886 H 408.281 2.37045 3.41978 0
M  V30 3887 H 407.157 2.75173 4.74943 0
M  V30 3888 H 407.418 1.07714 4.28777 0
M  V30 3889 N 406.477 -1.02803 1.19454 0
M  V30 3890 C 407.702 -1.80378 1.02364 0
M  V30 3891 C 408.127 -1.83282 -0.423007 0
M  V30 3892 O 407.485 -1.25945 -1.30413 0
M  V30 3893 C 407.533 -3.23248 1.59821 0
M  V30 3894 O 406.637 -4.04 0.828105 0
M  V30 3895 H 405.978 -0.556799 0.361761 0
M  V30 3896 H 408.508 -1.29385 1.58495 0
M  V30 3897 H 408.518 -3.73994 1.63073 0
M  V30 3898 H 407.193 -3.2045 2.65113 0
M  V30 3899 H 405.77 -3.62635 0.86891 0
M  V30 3900 N 407.956 -0.998596 -1.21925 0
M  V30 3901 C 409.184 -0.696286 -1.94832 0
M  V30 3902 C 409.599 0.740032 -1.73692 0
M  V30 3903 O 408.956 1.5 -1.03953 0
M  V30 3904 C 409.007 -0.999833 -3.47398 0
M  V30 3905 O 408.728 -2.37972 -3.67833 0
M  V30 3906 C 410.229 -0.716025 -4.37479 0
M  V30 3907 H 407.449 -0.257111 -0.619786 0
M  V30 3908 H 409.993 -1.33491 -1.54921 0
M  V30 3909 H 408.148 -0.406918 -3.85257 0
M  V30 3910 H 408.562 -2.48338 -4.61983 0
M  V30 3911 H 410.036 -0.978642 -5.43256 0
M  V30 3912 H 410.513 0.349968 -4.37803 0
M  V30 3913 H 411.119 -1.29025 -4.05256 0
M  V30 3914 N 409.434 1.37368 -0.772513 0
M  V30 3915 C 410.344 2.34053 -0.160081 0
M  V30 3916 C 411.36 1.60216 0.678728 0
M  V30 3917 O 412.536 1.92303 0.59847 0
M  V30 3918 C 409.601 3.3939 0.708182 0
M  V30 3919 C 408.662 4.29048 -0.147172 0
M  V30 3920 C 407.895 5.29354 0.679744 0
M  V30 3921 O 408.118 5.3723 1.91678 0
M  V30 3922 O 407.052 6.01835 0.0885444 0
M  V30 3923 H 410.878 2.88159 -0.959053 0
M  V30 3924 H 408.463 1.39543 -0.533685 0
M  V30 3925 H 410.345 4.03839 1.20384 0
M  V30 3926 H 409.02 2.8761 1.48533 0
M  V30 3927 H 407.927 3.67697 -0.689205 0
M  V30 3928 H 409.26 4.84134 -0.887423 0
M  V30 3929 N 410.912 0.523116 1.48665 0
M  V30 3930 C 412.161 -0.01544 2.01694 0
M  V30 3931 C 412.474 -1.35975 1.40606 0
M  V30 3932 O 413.68 -1.98627 1.85093 0
M  V30 3933 C 412.136 -0.0779303 3.59816 0
M  V30 3934 C 411.744 1.26107 4.29885 0
M  V30 3935 C 413.488 -0.565678 4.20714 0
M  V30 3936 C 411.395 1.15954 5.79921 0
M  V30 3937 H 410.325 -0.00954163 0.75394 0
M  V30 3938 H 412.976 0.665865 1.70993 0
M  V30 3939 H 411.358 -0.824165 3.87329 0
M  V30 3940 H 412.532 2.02233 4.14051 0
M  V30 3941 H 410.847 1.68401 3.80828 0
M  V30 3942 H 413.444 -0.6595 5.30617 0
M  V30 3943 H 413.787 -1.56984 3.85567 0
M  V30 3944 H 414.32 0.12467 3.97605 0
M  V30 3945 H 411.059 2.13864 6.19631 0
M  V30 3946 H 410.579 0.439529 5.98187 0
M  V30 3947 H 412.258 0.847361 6.41427 0
M  V30 3948 N 412.39 -1.55475 0.257931 0
M  V30 3949 C 413.801 -1.8511 -0.243135 0
M  V30 3950 C 414.152 -1.17986 -1.5676 0
M  V30 3951 O 413.277 -0.462102 -2.11409 0
M  V30 3952 C 413.872 -3.35826 -0.447929 0
M  V30 3953 C 412.431 -3.65647 -0.893245 0
M  V30 3954 C 411.578 -2.7729 0.0232965 0
M  V30 3955 H 414.529 -1.51261 0.480199 0
M  V30 3956 H 414.55 -3.58002 -1.28898 0
M  V30 3957 H 414.062 -3.84652 0.516196 0
M  V30 3958 H 412.163 -3.22308 -1.86945 0
M  V30 3959 H 412.276 -4.73312 -0.742469 0
M  V30 3960 H 410.64 -2.49942 -0.490021 0
M  V30 3961 H 411.423 -3.28926 0.982994 0
M  V30 3962 N 413.868 0.0150385 -1.57593 0
M  V30 3963 C 414.831 0.995996 -2.06428 0
M  V30 3964 C 415.831 1.2818 -0.970903 0
M  V30 3965 O 417.021 1.22949 -1.23406 0
M  V30 3966 C 414.153 2.32506 -2.49307 0
M  V30 3967 H 415.346 0.573873 -2.94358 0
M  V30 3968 H 412.899 0.262186 -1.54085 0
M  V30 3969 H 413.634 2.79438 -1.64575 0
M  V30 3970 H 413.419 2.13087 -3.29145 0
M  V30 3971 H 414.909 3.02906 -2.87468 0
M  V30 3972 N 415.346 1.54954 0.287554 0
M  V30 3973 C 416.571 1.79209 1.04397 0
M  V30 3974 C 416.996 0.556431 1.79682 0
M  V30 3975 O 416.354 -0.493518 1.74454 0
M  V30 3976 C 416.402 3.00739 1.98969 0
M  V30 3977 O 415.506 2.74805 3.075 0
M  V30 3978 H 414.847 0.592755 0.299227 0
M  V30 3979 H 417.377 2.02068 0.320886 0
M  V30 3980 H 417.387 3.29077 2.4119 0
M  V30 3981 H 416.062 3.90329 1.43582 0
M  V30 3982 H 414.639 2.57523 2.69697 0
M  V30 3983 N 416.824 -0.551391 1.4764 0
M  V30 3984 C 417.734 -1.68525 1.63207 0
M  V30 3985 C 418.75 -1.6621 0.514815 0
M  V30 3986 O 419.926 -1.85551 0.783113 0
M  V30 3987 C 416.991 -3.05025 1.64805 0
M  V30 3988 C 416.052 -3.18362 2.88 0
M  V30 3989 C 415.285 -4.4835 2.89513 0
M  V30 3990 O 415.508 -5.34163 2.00065 0
M  V30 3991 O 414.442 -4.65602 3.81443 0
M  V30 3992 H 418.268 -1.58333 2.59161 0
M  V30 3993 H 415.853 -0.722063 1.30792 0
M  V30 3994 H 417.735 -3.86245 1.68502 0
M  V30 3995 H 416.41 -3.15587 0.720197 0
M  V30 3996 H 415.317 -2.36518 2.89845 0
M  V30 3997 H 416.65 -3.12707 3.80099 0
M  V30 3998 N 418.302 -1.35869 -0.798587 0
M  V30 3999 C 419.713 -1.26498 -1.37314 0
M  V30 4000 C 420.064 0.0991899 -1.95949 0
M  V30 4001 O 419.189 1.0004 -1.91888 0
M  V30 4002 C 419.784 -2.29054 -2.49639 0
M  V30 4003 C 418.343 -2.234 -3.02935 0
M  V30 4004 C 417.49 -2.14329 -1.75949 0
M  V30 4005 H 420.441 -1.46881 -0.600971 0
M  V30 4006 H 420.462 -1.92166 -3.28409 0
M  V30 4007 H 419.974 -3.2833 -2.06933 0
M  V30 4008 H 418.075 -1.27562 -3.50084 0
M  V30 4009 H 418.188 -3.15703 -3.60372 0
M  V30 4010 H 416.552 -1.60435 -1.9782 0
M  V30 4011 H 417.335 -3.15477 -1.35384 0
M  V30 4012 N 419.78 1.02168 -1.19998 0
M  V30 4013 C 421.057 1.72816 -0.916191 0
M  V30 4014 C 421.437 2.03081 0.576325 0
M  V30 4015 O 420.785 1.69122 1.53656 0
M  V30 4016 C 420.995 2.9997 -1.78378 0
M  V30 4017 C 422.343 3.73336 -2.02251 0
M  V30 4018 O 423.367 3.09914 -1.75589 0
M  V30 4019 O 422.226 4.87371 -2.47249 0
M  V30 4020 H 419.32 0.752924 -0.342103 0
M  V30 4021 H 421.866 1.08062 -1.30846 0
M  V30 4022 H 420.638 2.73888 -2.79466 0
M  V30 4023 H 420.261 3.72464 -1.39126 0
M  V30 4024 N 421.258 1.00505 1.21394 0
M  V30 4025 C 422.506 0.686415 1.90086 0
M  V30 4026 C 422.827 -0.785264 1.7849 0
M  V30 4027 O 422.097 -1.56387 1.17983 0
M  V30 4028 H 420.677 0.2509 0.703604 0
M  V30 4029 H 423.339 1.27417 1.47482 0
M  V30 4030 H 422.435 0.959621 2.96981 0
M  V30 4031 N 422.737 -1.36956 0.779787 0
M  V30 4032 C 424.148 -1.82094 0.412156 0
M  V30 4033 C 424.499 -1.64926 -1.06273 0
M  V30 4034 O 423.624 -1.16483 -1.82375 0
M  V30 4035 C 424.219 -3.3059 0.741319 0
M  V30 4036 C 422.778 -3.73974 0.426641 0
M  V30 4037 C 421.925 -2.59368 0.980987 0
M  V30 4038 H 424.876 -1.25314 0.973758 0
M  V30 4039 H 424.897 -3.80489 0.028887 0
M  V30 4040 H 424.409 -3.43054 1.81482 0
M  V30 4041 H 422.51 -3.67076 -0.639215 0
M  V30 4042 H 422.623 -4.69778 0.940515 0
M  V30 4043 H 420.987 -2.51463 0.404757 0
M  V30 4044 H 421.77 -2.74621 2.06005 0
M  V30 4045 N 424.215 -0.530993 -1.48385 0
M  V30 4046 C 425.44 0.000729535 -2.074 0
M  V30 4047 C 425.865 1.27298 -1.3848 0
M  V30 4048 O 425.223 1.75599 -0.451081 0
M  V30 4049 C 425.271 0.206697 -3.60007 0
M  V30 4050 O 424.375 1.27514 -3.92191 0
M  V30 4051 H 423.716 -0.039583 -0.662819 0
M  V30 4052 H 426.246 -0.739194 -1.9078 0
M  V30 4053 H 426.256 0.42904 -4.05738 0
M  V30 4054 H 424.931 -0.722675 -4.09573 0
M  V30 4055 H 423.508 1.03537 -3.58238 0
M  V30 4056 N 425.693 1.55336 -0.266172 0
M  V30 4057 C 426.939 1.99692 0.353681 0
M  V30 4058 C 427.272 1.1543 1.56172 0
M  V30 4059 O 426.547 0.222218 1.93226 0
M  V30 4060 C 426.83 3.52316 0.74466 0
M  V30 4061 C 426.683 4.47337 -0.470101 0
M  V30 4062 C 428.002 4.10588 1.58447 0
M  V30 4063 H 425.121 0.725961 0.12708 0
M  V30 4064 H 427.763 1.86336 -0.371333 0
M  V30 4065 H 425.913 3.63829 1.36239 0
M  V30 4066 H 427.585 4.4778 -1.10864 0
M  V30 4067 H 425.828 4.19364 -1.10978 0
M  V30 4068 H 426.499 5.51788 -0.15291 0
M  V30 4069 H 428.975 4.02297 1.06286 0
M  V30 4070 H 427.851 5.17607 1.82686 0
M  V30 4071 H 428.112 3.60253 2.56262 0
M  V30 4072 N 427.171 -0.0066808 1.57599 0
M  V30 4073 C 428.419 -0.691552 1.899 0
M  V30 4074 C 428.74 -1.74682 0.866672 0
M  V30 4075 O 428.01 -1.95661 -0.0968189 0
M  V30 4076 H 426.59 -0.258416 0.700878 0
M  V30 4077 H 429.252 0.0326655 1.94873 0
M  V30 4078 H 428.348 -1.16702 2.8946 0
M  V30 4079 N 428.649 -1.55105 -0.279332 0
M  V30 4080 C 430.065 -1.46803 -0.626187 0
M  V30 4081 C 430.265 -0.676939 -1.89789 0
M  V30 4082 O 429.321 -0.19326 -2.51759 0
M  V30 4083 C 430.634 -2.90962 -0.759034 0
M  V30 4084 C 432.182 -3.01138 -0.853504 0
M  V30 4085 C 432.657 -4.46539 -1.01818 0
M  V30 4086 N 434.148 -4.50341 -1.08386 0
M  V30 4087 C 434.883 -5.60053 -1.22996 0
M  V30 4088 N 434.379 -6.79645 -1.34366 0
M  V30 4089 N 436.172 -5.47783 -1.26056 0
M  V30 4090 H 428.323 -2.04996 0.555921 0
M  V30 4091 H 430.586 -0.929325 0.187239 0
M  V30 4092 H 430.292 -3.51544 0.104852 0
M  V30 4093 H 430.166 -3.39619 -1.64131 0
M  V30 4094 H 432.553 -2.40658 -1.70786 0
M  V30 4095 H 432.634 -2.55745 0.0532466 0
M  V30 4096 H 432.278 -5.0762 -0.168504 0
M  V30 4097 H 432.208 -4.89583 -1.93948 0
M  V30 4098 H 434.699 -3.64191 -1.00864 0
M  V30 4099 H 435.012 -7.59012 -1.4533 0
M  V30 4100 H 433.357 -6.82469 -1.31382 0
M  V30 4101 H 436.548 -4.53294 -1.168 0
M  V30 4102 H 436.721 -6.33331 -1.37098 0
M  V30 4103 N 430.127 0.543554 -1.4793 0
M  V30 4104 C 431.09 1.63156 -1.60975 0
M  V30 4105 C 432.09 1.53346 -0.483899 0
M  V30 4106 O 433.28 1.5726 -0.749339 0
M  V30 4107 C 430.412 3.02743 -1.56716 0
M  V30 4108 H 431.605 1.52934 -2.57975 0
M  V30 4109 H 429.158 0.764557 -1.36324 0
M  V30 4110 H 429.893 3.18484 -0.611418 0
M  V30 4111 H 429.678 3.11272 -2.38438 0
M  V30 4112 H 431.168 3.81871 -1.6901 0
M  V30 4113 N 431.605 1.3629 0.791371 0
M  V30 4114 C 432.552 1.30458 1.90393 0
M  V30 4115 C 433.522 0.173632 1.6519 0
M  V30 4116 O 434.707 0.35983 1.87376 0
M  V30 4117 C 431.847 1.09777 3.27174 0
M  V30 4118 C 430.96 2.31929 3.64462 0
M  V30 4119 C 430.095 2.04276 4.90352 0
M  V30 4120 C 429.134 3.224 5.20312 0
M  V30 4121 N 428.271 2.94424 6.37385 0
M  V30 4122 H 433.111 2.25589 1.94714 0
M  V30 4123 H 430.648 1.12122 0.952216 0
M  V30 4124 H 432.606 0.958133 4.06049 0
M  V30 4125 H 431.236 0.183014 3.22281 0
M  V30 4126 H 430.288 2.56703 2.80727 0
M  V30 4127 H 431.6 3.20085 3.82553 0
M  V30 4128 H 430.754 1.87231 5.77087 0
M  V30 4129 H 429.493 1.13428 4.74326 0
M  V30 4130 H 428.498 3.40005 4.32061 0
M  V30 4131 H 429.723 4.14071 5.38258 0
M  V30 4132 H 427.669 2.06185 6.22755 0
M  V30 4133 H 427.586 3.76118 6.55798 0
M  V30 4134 H 428.854 2.80953 7.27108 0
M  V30 4135 N 433.083 -1.0153 1.20538 0
M  V30 4136 C 434.331 -1.74803 1.01432 0
M  V30 4137 C 434.652 -1.8963 -0.454456 0
M  V30 4138 O 433.922 -1.43975 -1.32846 0
M  V30 4139 H 432.502 -0.647598 0.372324 0
M  V30 4140 H 435.164 -1.22402 1.5167 0
M  V30 4141 H 434.26 -2.75114 1.47373 0
M  V30 4142 N 434.561 -1.01147 -1.20859 0
M  V30 4143 C 435.493 -0.535546 -2.22855 0
M  V30 4144 C 436.506 0.379323 -1.58319 0
M  V30 4145 O 437.695 0.178489 -1.77605 0
M  V30 4146 C 434.795 0.240962 -3.38042 0
M  V30 4147 C 433.968 -0.674562 -4.32167 0
M  V30 4148 C 433.027 0.053467 -5.26173 0
M  V30 4149 O 432.053 -0.567339 -5.66366 0
M  V30 4150 N 433.255 1.32997 -5.65059 0
M  V30 4151 H 436.02 -1.41268 -2.64317 0
M  V30 4152 H 433.581 -0.888386 -1.35349 0
M  V30 4153 H 435.573 0.737115 -3.97931 0
M  V30 4154 H 434.143 1.01935 -2.95513 0
M  V30 4155 H 433.363 -1.35111 -3.70322 0
M  V30 4156 H 434.651 -1.2974 -4.91981 0
M  V30 4157 H 434.049 1.85536 -5.34409 0
M  V30 4158 H 432.606 1.77095 -6.2728 0
M  V30 4159 N 436.039 1.36541 -0.78704 0
M  V30 4160 C 437.316 1.9355 -0.282424 0
M  V30 4161 C 437.696 1.71919 1.22503 0
M  V30 4162 O 437.044 1.07677 2.01539 0
M  V30 4163 C 437.254 3.4246 -0.672462 0
M  V30 4164 C 438.602 4.19582 -0.650863 0
M  V30 4165 O 439.626 3.50889 -0.612789 0
M  V30 4166 O 438.485 5.42106 -0.691623 0
M  V30 4167 H 435.579 0.824091 -0.0693 0
M  V30 4168 H 438.125 1.45736 -0.869423 0
M  V30 4169 H 436.897 3.51851 -1.71221 0
M  V30 4170 H 436.52 3.97556 -0.0592211 0
M  V30 4171 N 437.518 0.538854 1.48102 0
M  V30 4172 C 438.481 -0.208395 2.28251 0
M  V30 4173 C 439.481 -0.859656 1.35892 0
M  V30 4174 O 440.671 -0.71834 1.58699 0
M  V30 4175 C 437.803 -1.30252 3.15035 0
M  V30 4176 H 438.996 0.495407 2.9578 0
M  V30 4177 H 436.549 0.295112 1.53489 0
M  V30 4178 H 437.284 -2.0393 2.52157 0
M  V30 4179 H 437.069 -0.840551 3.82985 0
M  V30 4180 H 438.559 -1.82787 3.75471 0
M  V30 4181 N 438.996 -1.55193 0.274407 0
M  V30 4182 C 440.407 -1.85358 -0.223488 0
M  V30 4183 C 440.758 -1.19642 -1.555 0
M  V30 4184 O 439.883 -0.484498 -2.10907 0
M  V30 4185 C 440.478 -3.36282 -0.412285 0
M  V30 4186 C 439.037 -3.66574 -0.854413 0
M  V30 4187 C 438.184 -2.7725 0.0527056 0
M  V30 4188 H 441.135 -1.50743 0.496215 0
M  V30 4189 H 441.156 -3.59349 -1.25094 0
M  V30 4190 H 440.668 -3.84083 0.556965 0
M  V30 4191 H 438.769 -3.24273 -1.83516 0
M  V30 4192 H 438.882 -4.74073 -0.692226 0
M  V30 4193 H 437.246 -2.50447 -0.463484 0
M  V30 4194 H 438.029 -3.27865 1.01783 0
M  V30 4195 N 440.474 -0.00167713 -1.576 0
M  V30 4196 C 441.404 0.988091 -2.11563 0
M  V30 4197 C 442.385 1.35736 -1.02517 0
M  V30 4198 O 443.57 1.44082 -1.30208 0
M  V30 4199 C 440.7 2.27941 -2.62031 0
M  V30 4200 C 439.654 2.0517 -3.75619 0
M  V30 4201 C 438.98 3.4033 -4.12407 0
M  V30 4202 C 440.28 1.41294 -5.02825 0
M  V30 4203 H 441.974 0.538771 -2.94513 0
M  V30 4204 H 439.52 0.257712 -1.41675 0
M  V30 4205 H 441.473 2.97539 -2.9841 0
M  V30 4206 H 440.197 2.74989 -1.76205 0
M  V30 4207 H 438.856 1.37998 -3.39635 0
M  V30 4208 H 438.504 3.85085 -3.23603 0
M  V30 4209 H 438.204 3.25909 -4.88935 0
M  V30 4210 H 439.728 4.1124 -4.51347 0
M  V30 4211 H 441.142 2.00851 -5.36965 0
M  V30 4212 H 439.539 1.37356 -5.84169 0
M  V30 4213 H 440.609 0.382362 -4.8339 0
M  V30 4214 N 441.952 1.55251 0.271103 0
M  V30 4215 C 442.862 1.9136 1.35714 0
M  V30 4216 C 443.878 0.811075 1.5394 0
M  V30 4217 O 445.054 1.11031 1.6803 0
M  V30 4218 C 442.119 2.1798 2.69603 0
M  V30 4219 C 441.18 3.4153 2.60107 0
M  V30 4220 C 440.413 3.66871 3.8761 0
M  V30 4221 O 440.636 2.94689 4.8838 0
M  V30 4222 O 439.57 4.60405 3.87699 0
M  V30 4223 H 443.396 2.83815 1.08088 0
M  V30 4224 H 440.981 1.41821 0.469792 0
M  V30 4225 H 442.863 2.36518 3.48765 0
M  V30 4226 H 441.538 1.28708 2.97012 0
M  V30 4227 H 440.445 3.28325 1.79314 0
M  V30 4228 H 441.778 4.31027 2.37647 0
M  V30 4229 N 443.43 -0.535701 1.48216 0
M  V30 4230 C 444.677 -1.29183 1.55942 0
M  V30 4231 C 445.005 -1.93125 0.230857 0
M  V30 4232 O 444.26 -1.79556 -0.778331 0
M  V30 4233 C 444.559 -2.4068 2.64212 0
M  V30 4234 C 444.225 -1.94428 4.06827 0
M  V30 4235 C 442.887 -1.81532 4.45645 0
M  V30 4236 C 445.239 -1.59405 4.96225 0
M  V30 4237 C 442.567 -1.31939 5.71672 0
M  V30 4238 C 444.919 -1.11276 6.22736 0
M  V30 4239 C 443.583 -0.969924 6.60416 0
M  V30 4240 H 442.853 -0.472715 0.570632 0
M  V30 4241 H 445.5 -0.598437 1.81909 0
M  V30 4242 H 443.805 -3.15666 2.32083 0
M  V30 4243 H 445.502 -2.98822 2.67407 0
M  V30 4244 H 442.092 -2.05415 3.76168 0
M  V30 4245 H 446.276 -1.68231 4.66917 0
M  V30 4246 H 441.532 -1.19562 5.99596 0
M  V30 4247 H 445.706 -0.832453 6.91407 0
M  V30 4248 H 443.333 -0.583436 7.57958 0
M  V30 4249 N 444.908 -1.36708 -0.784132 0
M  V30 4250 C 446.136 -1.34398 -1.57305 0
M  V30 4251 C 446.551 0.0735577 -1.88657 0
M  V30 4252 O 445.908 1.03193 -1.50524 0
M  V30 4253 C 445.959 -2.17053 -2.89085 0
M  V30 4254 O 445.68 -3.53281 -2.59083 0
M  V30 4255 C 447.181 -2.22583 -3.83369 0
M  V30 4256 H 444.401 -0.460819 -0.487736 0
M  V30 4257 H 446.945 -1.79879 -0.972819 0
M  V30 4258 H 445.1 -1.75113 -3.45564 0
M  V30 4259 H 445.514 -3.9647 -3.43383 0
M  V30 4260 H 446.988 -2.84763 -4.72878 0
M  V30 4261 H 447.465 -1.23075 -4.21603 0
M  V30 4262 H 448.071 -2.64781 -3.32823 0
M  V30 4263 N 446.386 1.0089 -1.21074 0
M  V30 4264 C 447.633 1.74607 -1.0256 0
M  V30 4265 C 447.961 1.89426 0.44136 0
M  V30 4266 O 447.216 1.42266 1.34384 0
M  V30 4267 C 447.515 3.16335 -1.66334 0
M  V30 4268 C 447.181 3.21474 -3.16173 0
M  V30 4269 C 445.843 3.22583 -3.57062 0
M  V30 4270 C 448.195 3.19025 -4.12156 0
M  V30 4271 C 445.523 3.18925 -4.92446 0
M  V30 4272 C 447.875 3.16909 -5.47496 0
M  V30 4273 C 446.539 3.16326 -5.87787 0
M  V30 4274 H 445.809 0.638933 -0.375294 0
M  V30 4275 H 448.456 1.18274 -1.50611 0
M  V30 4276 H 446.761 3.75876 -1.10566 0
M  V30 4277 H 448.458 3.72083 -1.49516 0
M  V30 4278 H 445.048 3.2135 -2.83605 0
M  V30 4279 H 449.232 3.17332 -3.81595 0
M  V30 4280 H 444.488 3.16809 -5.22917 0
M  V30 4281 H 448.662 3.13968 -6.21609 0
M  V30 4282 H 446.289 3.13246 -6.92662 0
M  V30 4283 N 447.864 1.01787 1.20321 0
M  V30 4284 C 448.814 0.559976 2.21016 0
M  V30 4285 C 449.798 -0.385366 1.56217 0
M  V30 4286 O 450.99 -0.208126 1.75772 0
M  V30 4287 C 448.119 -0.0990553 3.43157 0
M  V30 4288 C 447.205 0.86807 4.15121 0
M  V30 4289 N 447.596 2.0261 4.63447 0
M  V30 4290 C 445.894 0.689162 4.40643 0
M  V30 4291 C 446.595 2.63518 5.18588 0
M  V30 4292 N 445.571 1.91569 5.08726 0
M  V30 4293 H 449.373 1.44281 2.56048 0
M  V30 4294 H 446.887 0.883381 1.36272 0
M  V30 4295 H 448.884 -0.444643 4.14522 0
M  V30 4296 H 447.544 -0.977709 3.0963 0
M  V30 4297 H 448.555 2.40598 4.58621 0
M  V30 4298 H 445.232 -0.14133 4.17261 0
M  V30 4299 H 446.622 3.61527 5.66346 0
M  V30 4300 N 449.342 -1.36122 0.79427 0
M  V30 4301 C 450.588 -1.99406 0.369452 0
M  V30 4302 C 450.921 -1.62886 -1.05743 0
M  V30 4303 O 450.196 -0.886053 -1.73145 0
M  V30 4304 C 450.479 -3.56046 0.538833 0
M  V30 4305 C 450.332 -4.02404 2.00976 0
M  V30 4306 C 451.651 -4.40079 -0.0431359 0
M  V30 4307 H 448.77 -0.724397 0.135712 0
M  V30 4308 H 451.412 -1.61461 1.00151 0
M  V30 4309 H 449.562 -3.885 0.000771004 0
M  V30 4310 H 451.234 -3.80415 2.60926 0
M  V30 4311 H 449.477 -3.53765 2.51063 0
M  V30 4312 H 450.148 -5.11344 2.07922 0
M  V30 4313 H 452.624 -4.14013 0.416228 0
M  V30 4314 H 451.5 -5.48799 0.105374 0
M  V30 4315 H 451.761 -4.27264 -1.13571 0
M  V30 4316 N 450.82 -0.546701 -1.47814 0
M  V30 4317 C 451.73 0.21026 -2.33656 0
M  V30 4318 C 452.746 0.922413 -1.47538 0
M  V30 4319 O 453.922 0.893652 -1.80488 0
M  V30 4320 C 450.987 1.23348 -3.24016 0
M  V30 4321 C 450.048 0.529883 -4.26017 0
M  V30 4322 C 449.281 1.50435 -5.12059 0
M  V30 4323 O 449.504 2.73837 -5.00369 0
M  V30 4324 O 448.438 1.03459 -5.92942 0
M  V30 4325 H 452.264 -0.493605 -2.99662 0
M  V30 4326 H 449.849 -0.307427 -1.46203 0
M  V30 4327 H 451.731 1.82438 -3.79861 0
M  V30 4328 H 450.406 1.91945 -2.60651 0
M  V30 4329 H 449.313 -0.101948 -3.73961 0
M  V30 4330 H 450.646 -0.11445 -4.92067 0
M  V30 4331 N 452.299 1.55045 -0.282633 0
M  V30 4332 C 453.548 1.98938 0.332667 0
M  V30 4333 C 453.861 1.17455 1.56409 0
M  V30 4334 O 455.067 1.51527 2.25282 0
M  V30 4335 C 453.523 3.54105 0.643226 0
M  V30 4336 C 453.131 4.44374 -0.568814 0
M  V30 4337 C 454.875 4.06569 1.22074 0
M  V30 4338 C 452.782 5.90943 -0.232426 0
M  V30 4339 H 451.712 0.743043 0.128075 0
M  V30 4340 H 454.363 1.79341 -0.388464 0
M  V30 4341 H 452.745 3.69532 1.42346 0
M  V30 4342 H 453.919 4.40718 -1.34551 0
M  V30 4343 H 452.234 4.02585 -1.06369 0
M  V30 4344 H 454.831 5.13626 1.48635 0
M  V30 4345 H 455.174 3.56057 2.15707 0
M  V30 4346 H 455.707 3.94612 0.502621 0
M  V30 4347 H 452.446 6.45567 -1.13683 0
M  V30 4348 H 451.966 5.9765 0.507357 0
M  V30 4349 H 453.645 6.4677 0.172657 0
M  V30 4350 N 453.777 0.010035 1.57597 0
M  V30 4351 C 455.005 -0.683413 1.95287 0
M  V30 4352 C 455.42 -1.66747 0.885481 0
M  V30 4353 O 454.777 -1.82003 -0.134629 0
M  V30 4354 C 454.828 -1.40652 3.33015 0
M  V30 4355 O 454.549 -0.461916 4.35658 0
M  V30 4356 C 456.05 -2.19356 3.85225 0
M  V30 4357 H 453.27 -0.189708 0.643624 0
M  V30 4358 H 455.814 0.0641359 2.04399 0
M  V30 4359 H 453.969 -2.10562 3.2518 0
M  V30 4360 H 454.383 -0.973215 5.15392 0
M  V30 4361 H 455.857 -2.65433 4.83993 0
M  V30 4362 H 456.334 -3.02457 3.18459 0
M  V30 4363 H 456.94 -1.54442 3.96267 0
M  V30 4364 N 455.255 -1.55392 -0.262866 0
M  V30 4365 C 456.666 -1.67079 -0.833158 0
M  V30 4366 C 457.017 -0.604539 -1.86654 0
M  V30 4367 O 456.142 0.252138 -2.14926 0
M  V30 4368 C 456.737 -3.02891 -1.51797 0
M  V30 4369 C 455.296 -3.16571 -2.03617 0
M  V30 4370 C 454.443 -2.62909 -0.881701 0
M  V30 4371 H 457.394 -1.58652 -0.0389986 0
M  V30 4372 H 457.415 -2.96445 -2.38538 0
M  V30 4373 H 456.927 -3.80473 -0.765619 0
M  V30 4374 H 455.028 -2.43782 -2.81782 0
M  V30 4375 H 455.141 -4.23271 -2.24452 0
M  V30 4376 H 453.505 -2.20324 -1.27786 0
M  V30 4377 H 454.288 -3.43003 -0.14269 0
M  V30 4378 N 456.733 0.527833 -1.48498 0
M  V30 4379 C 457.681 1.65313 -1.63628 0
M  V30 4380 C 458.675 1.6177 -0.502676 0
M  V30 4381 O 459.881 1.66601 -0.681469 0
M  V30 4382 H 456.256 0.547518 -0.515488 0
M  V30 4383 H 458.227 1.49696 -2.58135 0
M  V30 4384 C 456.976 3.03576 -1.6952 0
M  V30 4385 H 456.299 3.06997 -2.56111 0
M  V30 4386 H 457.739 3.81923 -1.84149 0
M  V30 4387 C 456.198 3.34089 -0.43432 0
M  V30 4388 O 456.728 3.99151 0.451852 0
M  V30 4389 N 454.934 2.88991 -0.305368 0
M  V30 4390 H 454.481 2.36222 -1.02747 0
M  V30 4391 H 454.439 3.09776 0.537249 0
M  V30 4392 N 458.211 1.37122 0.776871 0
M  V30 4393 C 459.457 1.32243 1.53752 0
M  V30 4394 C 459.79 -0.0944745 1.9397 0
M  V30 4395 O 459.065 -1.05068 1.6368 0
M  V30 4396 C 459.348 2.25681 2.80607 0
M  V30 4397 C 459.201 3.76127 2.46676 0
M  V30 4398 C 460.52 2.17657 3.82509 0
M  V30 4399 H 457.639 0.481704 0.557791 0
M  V30 4400 H 460.281 1.6778 0.891612 0
M  V30 4401 H 458.431 1.95505 3.35723 0
M  V30 4402 H 460.103 4.16877 1.97513 0
M  V30 4403 H 458.346 3.94946 1.79443 0
M  V30 4404 H 459.017 4.36933 3.37333 0
M  V30 4405 H 461.493 2.44245 3.36873 0
M  V30 4406 H 460.369 2.85185 4.69 0
M  V30 4407 H 460.63 1.16785 4.26396 0
M  V30 4408 N 459.689 -1.00246 1.21608 0
M  V30 4409 C 460.621 -2.09244 0.935401 0
M  V30 4410 C 461.634 -1.62592 -0.0823594 0
M  V30 4411 O 462.823 -1.77865 0.150456 0
M  V30 4412 C 459.923 -3.36724 0.383453 0
M  V30 4413 C 459.096 -4.1245 1.45615 0
M  V30 4414 C 458.155 -5.18219 0.912991 0
M  V30 4415 O 457.181 -5.46337 1.59701 0
M  V30 4416 N 458.383 -5.7987 -0.270478 0
M  V30 4417 H 461.148 -2.33905 1.87373 0
M  V30 4418 H 458.709 -1.16748 1.12167 0
M  V30 4419 H 460.701 -4.047 0.00562157 0
M  V30 4420 H 459.271 -3.09201 -0.459758 0
M  V30 4421 H 458.491 -3.39241 2.00772 0
M  V30 4422 H 459.779 -4.59819 2.17817 0
M  V30 4423 H 459.177 -5.59381 -0.843195 0
M  V30 4424 H 457.734 -6.49126 -0.589794 0
M  V30 4425 N 461.167 -1.02423 -1.1978 0
M  V30 4426 C 462.114 -0.601023 -2.22837 0
M  V30 4427 C 463.084 0.382801 -1.61629 0
M  V30 4428 O 464.269 0.280514 -1.88727 0
M  V30 4429 C 461.409 0.0467755 -3.45068 0
M  V30 4430 C 460.522 -0.98253 -4.20678 0
M  V30 4431 C 459.657 -0.304982 -5.30324 0
M  V30 4432 C 458.696 -1.32052 -5.97686 0
M  V30 4433 N 457.833 -0.669105 -6.98904 0
M  V30 4434 H 462.673 -1.48444 -2.58396 0
M  V30 4435 H 460.21 -0.742936 -1.2696 0
M  V30 4436 H 462.168 0.439556 -4.14878 0
M  V30 4437 H 460.798 0.893796 -3.10179 0
M  V30 4438 H 459.85 -1.49341 -3.49859 0
M  V30 4439 H 461.162 -1.75455 -4.66923 0
M  V30 4440 H 460.316 0.142893 -6.06532 0
M  V30 4441 H 459.055 0.499283 -4.85138 0
M  V30 4442 H 458.06 -1.7787 -5.20233 0
M  V30 4443 H 459.285 -2.1262 -6.44957 0
M  V30 4444 H 457.231 0.115152 -6.55899 0
M  V30 4445 H 457.148 -1.37908 -7.43315 0
M  V30 4446 H 458.416 -0.245076 -7.79115 0
M  V30 4447 N 462.645 1.35699 -0.801477 0
M  V30 4448 C 463.555 2.33661 -0.209691 0
M  V30 4449 C 464.571 1.6162 0.644591 0
M  V30 4450 O 465.747 1.93529 0.557545 0
M  V30 4451 C 462.812 3.40816 0.636033 0
M  V30 4452 C 461.873 4.28639 -0.238147 0
M  V30 4453 C 461.106 5.30676 0.567307 0
M  V30 4454 O 461.329 5.41174 1.8024 0
M  V30 4455 O 460.263 6.01887 -0.0391336 0
M  V30 4456 H 464.089 2.8606 -1.01996 0
M  V30 4457 H 461.674 1.38379 -0.563164 0
M  V30 4458 H 463.556 4.06301 1.11791 0
M  V30 4459 H 462.231 2.90696 1.42399 0
M  V30 4460 H 461.138 3.66152 -0.767044 0
M  V30 4461 H 462.471 4.82143 -0.989915 0
M  V30 4462 N 464.123 0.554532 1.47522 0
M  V30 4463 C 465.055 -0.232106 2.28022 0
M  V30 4464 C 466.068 -0.881865 1.36847 0
M  V30 4465 O 467.257 -0.756168 1.61692 0
M  V30 4466 C 464.357 -1.34604 3.11022 0
M  V30 4467 C 463.53 -0.793582 4.30141 0
M  V30 4468 C 462.589 -1.79168 4.94758 0
M  V30 4469 O 461.615 -1.33886 5.5323 0
M  V30 4470 N 462.817 -3.12495 4.89211 0
M  V30 4471 H 465.582 0.458407 2.96173 0
M  V30 4472 H 463.143 0.390433 1.57122 0
M  V30 4473 H 465.135 -2.01243 3.51118 0
M  V30 4474 H 463.705 -1.93983 2.45131 0
M  V30 4475 H 462.925 0.0495025 3.94169 0
M  V30 4476 H 464.213 -0.403776 5.07195 0
M  V30 4477 H 463.611 -3.51931 4.42901 0
M  V30 4478 H 462.168 -3.74698 5.33333 0
M  V30 4479 N 465.601 -1.54893 0.290851 0
M  V30 4480 C 466.564 -2.21824 -0.576784 0
M  V30 4481 C 467.564 -1.20104 -1.06919 0
M  V30 4482 O 468.754 -1.44906 -0.966843 0
M  V30 4483 C 465.886 -2.89662 -1.79747 0
M  V30 4484 H 467.079 -2.99899 0.00784051 0
M  V30 4485 H 464.632 -1.56245 0.0415934 0
M  V30 4486 H 465.367 -2.15639 -2.42219 0
M  V30 4487 H 465.152 -3.64219 -1.45214 0
M  V30 4488 H 466.642 -3.4075 -2.4141 0
M  V30 4489 N 467.08 -0.0183926 -1.57589 0
M  V30 4490 C 468.03 0.975944 -2.06057 0
M  V30 4491 C 469.014 1.29204 -0.958908 0
M  V30 4492 O 470.206 1.27995 -1.22255 0
M  V30 4493 C 467.335 2.26194 -2.58247 0
M  V30 4494 C 466.421 1.97467 -3.75323 0
M  V30 4495 N 466.812 1.38968 -4.86335 0
M  V30 4496 C 465.11 2.27515 -3.83605 0
M  V30 4497 C 465.811 1.27131 -5.67638 0
M  V30 4498 N 464.787 1.76319 -5.14211 0
M  V30 4499 H 468.589 0.518444 -2.89291 0
M  V30 4500 H 466.103 0.18688 -1.61321 0
M  V30 4501 H 468.1 2.98289 -2.91255 0
M  V30 4502 H 466.76 2.7258 -1.76438 0
M  V30 4503 H 467.771 1.06608 -5.06809 0
M  V30 4504 H 464.448 2.76649 -3.12684 0
M  V30 4505 H 465.838 0.819882 -6.66879 0
M  V30 4506 N 468.558 1.5553 0.254621 0
M  V30 4507 C 469.783 1.81383 1.00573 0
M  V30 4508 C 470.208 0.594419 1.78461 0
M  V30 4509 O 469.566 -0.456403 1.75461 0
M  V30 4510 C 469.614 3.04892 1.92545 0
M  V30 4511 O 468.718 2.81266 3.01601 0
M  V30 4512 H 468.059 0.598969 0.286587 0
M  V30 4513 H 470.589 2.02703 0.277952 0
M  V30 4514 H 470.599 3.34119 2.34155 0
M  V30 4515 H 469.274 3.93287 1.3527 0
M  V30 4516 H 467.851 2.63185 2.64174 0
M  V30 4517 N 470.036 -0.519951 1.48776 0
M  V30 4518 C 470.946 -1.65025 1.66745 0
M  V30 4519 C 471.962 -1.6508 0.549954 0
M  V30 4520 O 473.138 -1.83848 0.822295 0
M  V30 4521 C 470.203 -3.0146 1.71238 0
M  V30 4522 C 469.264 -3.12182 2.94688 0
M  V30 4523 C 468.497 -4.42109 2.98958 0
M  V30 4524 O 468.72 -5.29799 2.1135 0
M  V30 4525 O 467.654 -4.57406 3.91233 0
M  V30 4526 H 471.48 -1.52801 2.62461 0
M  V30 4527 H 469.065 -0.694157 1.32294 0
M  V30 4528 H 470.947 -3.82584 1.76657 0
M  V30 4529 H 469.622 -3.13988 0.786975 0
M  V30 4530 H 468.529 -2.30316 2.94797 0
M  V30 4531 H 469.862 -3.04574 3.86646 0
M  V30 4532 N 471.514 -1.37532 -0.769588 0
M  V30 4533 C 472.424 -1.35668 -1.91393 0
M  V30 4534 C 473.44 -0.255954 -1.72107 0
M  V30 4535 O 474.616 -0.491704 -1.95305 0
M  V30 4536 C 471.681 -1.16481 -3.26547 0
M  V30 4537 C 470.742 -2.36212 -3.58472 0
M  V30 4538 C 469.975 -2.17932 -4.87177 0
M  V30 4539 O 470.198 -1.1647 -5.58382 0
M  V30 4540 O 469.132 -3.06167 -5.18214 0
M  V30 4541 H 472.958 -2.32055 -1.95918 0
M  V30 4542 H 470.543 -1.18284 -0.912641 0
M  V30 4543 H 472.425 -1.07778 -4.07384 0
M  V30 4544 H 471.1 -0.231687 -3.2287 0
M  V30 4545 H 470.007 -2.50488 -2.77861 0
M  V30 4546 H 471.34 -3.281 -3.66894 0
M  V30 4547 N 472.992 0.995999 -1.22138 0
M  V30 4548 C 473.942 2.06988 -0.956042 0
M  V30 4549 C 474.926 1.60636 0.0921576 0
M  V30 4550 O 476.118 1.76607 -0.117958 0
M  V30 4551 C 473.247 3.39148 -0.532335 0
M  V30 4552 C 472.333 3.92142 -1.61509 0
M  V30 4553 N 472.724 4.18397 -2.84214 0
M  V30 4554 C 471.022 4.20514 -1.48606 0
M  V30 4555 C 471.723 4.61425 -3.54206 0
M  V30 4556 N 470.699 4.64934 -2.81669 0
M  V30 4557 H 474.501 2.25223 -1.88816 0
M  V30 4558 H 472.015 1.17748 -1.11845 0
M  V30 4559 H 474.012 4.15642 -0.323574 0
M  V30 4560 H 472.672 3.22314 0.392921 0
M  V30 4561 H 473.683 4.06682 -3.20671 0
M  V30 4562 H 470.36 4.12769 -0.626762 0
M  V30 4563 H 471.75 4.90387 -4.59315 0
M  V30 4564 N 474.47 1.03057 1.19235 0
M  V30 4565 C 475.4 0.633497 2.24742 0
M  V30 4566 C 476.381 -0.358335 1.66283 0
M  V30 4567 O 477.566 -0.240676 1.92703 0
M  V30 4568 C 474.696 -0.0147648 3.47297 0
M  V30 4569 C 473.65 0.899527 4.18441 0
M  V30 4570 C 472.976 0.116281 5.34574 0
M  V30 4571 C 474.276 2.21404 4.73051 0
M  V30 4572 H 475.97 1.5155 2.58211 0
M  V30 4573 H 473.516 0.73014 1.24117 0
M  V30 4574 H 475.469 -0.304202 4.20301 0
M  V30 4575 H 474.193 -0.931577 3.13032 0
M  V30 4576 H 472.852 1.17319 3.47321 0
M  V30 4577 H 472.5 -0.802619 4.96555 0
M  V30 4578 H 472.2 0.725293 5.83107 0
M  V30 4579 H 473.724 -0.166376 6.10373 0
M  V30 4580 H 475.138 1.98601 5.37802 0
M  V30 4581 H 473.535 2.77512 5.32078 0
M  V30 4582 H 474.605 2.86752 3.91026 0
M  V30 4583 N 475.948 -1.35272 0.808662 0
M  V30 4584 C 477.196 -1.98316 0.389233 0
M  V30 4585 C 477.517 -1.64465 -1.04767 0
M  V30 4586 O 476.787 -0.928175 -1.72516 0
M  V30 4587 H 475.367 -0.733585 0.140935 0
M  V30 4588 H 478.029 -1.6515 1.03496 0
M  V30 4589 H 477.125 -3.08123 0.496631 0
M  V30 4590 N 477.426 -0.562348 -1.47226 0
M  V30 4591 C 478.842 -0.222492 -1.58042 0
M  V30 4592 C 479.042 1.27505 -1.56028 0
M  V30 4593 O 478.098 2.05555 -1.46641 0
M  V30 4594 C 479.411 -0.853694 -2.88327 0
M  V30 4595 C 480.959 -0.825397 -3.01921 0
M  V30 4596 C 481.434 -1.43576 -4.34914 0
M  V30 4597 N 482.925 -1.39918 -4.41562 0
M  V30 4598 C 483.66 -1.84103 -5.43041 0
M  V30 4599 N 483.156 -2.36167 -6.51304 0
M  V30 4600 N 484.949 -1.75142 -5.34118 0
M  V30 4601 H 477.1 -1.53525 -1.46778 0
M  V30 4602 H 479.363 -0.640527 -0.698877 0
M  V30 4603 H 479.069 -1.90635 -2.95552 0
M  V30 4604 H 478.943 -0.34977 -3.75575 0
M  V30 4605 H 481.33 0.218583 -2.94289 0
M  V30 4606 H 481.411 -1.36713 -2.16202 0
M  V30 4607 H 481.055 -2.47884 -4.43301 0
M  V30 4608 H 480.985 -0.869427 -5.19373 0
M  V30 4609 H 483.476 -1.0184 -3.63919 0
M  V30 4610 H 483.789 -2.67793 -7.24919 0
M  V30 4611 H 482.134 -2.40181 -6.52179 0
M  V30 4612 H 485.325 -1.34241 -4.48439 0
M  V30 4613 H 485.498 -2.09895 -6.13065 0
M  V30 4614 N 478.904 1.54736 -0.299062 0
M  V30 4615 C 479.867 2.22127 0.565012 0
M  V30 4616 C 480.867 1.20669 1.06281 0
M  V30 4617 O 482.057 1.45417 0.959145 0
M  V30 4618 C 479.189 2.90611 1.78208 0
M  V30 4619 H 480.382 2.99891 -0.0237448 0
M  V30 4620 H 477.935 1.5622 -0.0498788 0
M  V30 4621 H 478.67 2.16921 2.41072 0
M  V30 4622 H 478.455 3.64984 1.43281 0
M  V30 4623 H 479.945 3.42026 2.396 0
M  V30 4624 N 480.382 0.0267497 1.57577 0
M  V30 4625 C 481.345 -0.940916 2.08996 0
M  V30 4626 C 482.345 -1.25561 1.00455 0
M  V30 4627 O 483.535 -1.19634 1.26623 0
M  V30 4628 C 480.667 -2.25814 2.55384 0
M  V30 4629 H 481.86 -0.495628 2.95776 0
M  V30 4630 H 479.413 -0.221241 1.54726 0
M  V30 4631 H 480.148 -2.74976 1.71926 0
M  V30 4632 H 479.933 -2.04285 3.34679 0
M  V30 4633 H 481.423 -2.95178 2.95398 0
M  V30 4634 N 481.861 -1.55662 -0.24637 0
M  V30 4635 C 483.108 -1.77519 -0.974335 0
M  V30 4636 C 483.436 -0.591165 -1.85298 0
M  V30 4637 O 482.691 0.425497 -1.91018 0
M  V30 4638 C 482.99 -3.04885 -1.86494 0
M  V30 4639 C 482.656 -4.36209 -1.14161 0
M  V30 4640 C 481.318 -4.71896 -0.941701 0
M  V30 4641 C 483.67 -5.17391 -0.628957 0
M  V30 4642 C 480.998 -5.86299 -0.216852 0
M  V30 4643 C 483.35 -6.32546 0.0824273 0
M  V30 4644 C 482.014 -6.66853 0.293807 0
M  V30 4645 H 481.284 -0.649588 -0.356535 0
M  V30 4646 H 483.931 -1.89934 -0.244394 0
M  V30 4647 H 482.236 -2.87484 -2.66196 0
M  V30 4648 H 483.933 -3.18994 -2.42989 0
M  V30 4649 H 480.523 -4.08174 -1.30736 0
M  V30 4650 H 484.707 -4.90276 -0.770943 0
M  V30 4651 H 479.963 -6.11385 -0.0426124 0
M  V30 4652 H 484.137 -6.94693 0.487292 0
M  V30 4653 H 481.764 -7.55349 0.857428 0
M  V30 4654 N 483.339 0.512053 -1.4905 0
M  V30 4655 C 484.75 1.09376 -1.51307 0
M  V30 4656 C 485.101 1.94 -0.292971 0
M  V30 4657 O 484.226 2.07965 0.598277 0
M  V30 4658 C 484.821 1.99031 -2.74176 0
M  V30 4659 C 483.38 2.52385 -2.79247 0
M  V30 4660 C 482.527 1.29749 -2.45073 0
M  V30 4661 H 485.478 0.296467 -1.55906 0
M  V30 4662 H 485.499 2.83569 -2.53711 0
M  V30 4663 H 485.011 1.37412 -3.62959 0
M  V30 4664 H 483.112 3.17673 -1.94716 0
M  V30 4665 H 483.225 2.90293 -3.81139 0
M  V30 4666 H 481.589 1.61912 -1.96612 0
M  V30 4667 H 482.372 0.698555 -3.36118 0
M  V30 4668 N 484.817 1.37938 0.762283 0
M  V30 4669 C 486.065 1.33404 1.51815 0
M  V30 4670 C 486.386 -0.0780975 1.94844 0
M  V30 4671 O 485.656 -1.02405 1.67003 0
M  V30 4672 H 484.236 0.490839 0.563104 0
M  V30 4673 H 486.898 1.72527 0.906669 0
M  V30 4674 H 485.994 1.97926 2.41313 0
M  V30 4675 N 486.295 -0.989507 1.22664 0
M  V30 4676 C 487.258 -2.06183 1.00106 0
M  V30 4677 C 488.258 -1.60765 -0.0337726 0
M  V30 4678 O 489.448 -1.72989 0.205072 0
M  V30 4679 C 486.58 -3.37021 0.51279 0
M  V30 4680 H 487.773 -2.27629 1.95256 0
M  V30 4681 H 485.326 -1.16158 1.0458 0
M  V30 4682 H 486.061 -3.21261 -0.442917 0
M  V30 4683 H 485.846 -3.71323 1.25942 0
M  V30 4684 H 487.336 -4.1591 0.375315 0
M  V30 4685 N 487.773 -1.03688 -1.18687 0
M  V30 4686 C 489.184 -0.766488 -1.70241 0
M  V30 4687 C 489.535 0.713052 -1.82784 0
M  V30 4688 O 488.66 1.55529 -1.50465 0
M  V30 4689 C 489.255 -1.38475 -3.09209 0
M  V30 4690 C 487.814 -1.16276 -3.5799 0
M  V30 4691 C 486.961 -1.4778 -2.34641 0
M  V30 4692 H 489.912 -1.20378 -1.03415 0
M  V30 4693 H 489.933 -0.785939 -3.72295 0
M  V30 4694 H 489.445 -2.46157 -3.00048 0
M  V30 4695 H 487.546 -0.104508 -3.72453 0
M  V30 4696 H 487.659 -1.8571 -4.41643 0
M  V30 4697 H 486.023 -0.897366 -2.38368 0
M  V30 4698 H 486.806 -2.56562 -2.28102 0
M  V30 4699 N 489.251 1.34841 -0.815825 0
M  V30 4700 C 490.499 1.98107 -0.399744 0
M  V30 4701 C 490.82 1.65019 1.03894 0
M  V30 4702 O 490.09 0.937311 1.72021 0
M  V30 4703 H 488.67 0.732827 -0.144823 0
M  V30 4704 H 491.332 1.64599 -1.0437 0
M  V30 4705 H 490.428 3.07856 -0.512965 0
M  V30 4706 N 490.729 0.570148 1.46925 0
M  V30 4707 C 491.639 -0.173061 2.33961 0
M  V30 4708 C 492.655 -0.898825 1.48987 0
M  V30 4709 O 493.831 -0.864825 1.81887 0
M  V30 4710 C 490.896 -1.18177 3.25937 0
M  V30 4711 C 489.957 -0.462041 4.26806 0
M  V30 4712 C 489.19 -1.4227 5.14388 0
M  V30 4713 O 489.413 -2.65842 5.04662 0
M  V30 4714 O 488.347 -0.940127 5.94513 0
M  V30 4715 H 492.173 0.541216 2.98839 0
M  V30 4716 H 489.758 0.330647 1.45695 0
M  V30 4717 H 491.64 -1.76372 3.82715 0
M  V30 4718 H 490.315 -1.87774 2.63671 0
M  V30 4719 H 489.222 0.161429 3.73752 0
M  V30 4720 H 490.555 0.192719 4.91823 0
M  V30 4721 N 492.207 -1.54576 0.307264 0
M  V30 4722 C 493.455 -1.99867 -0.299574 0
M  V30 4723 C 493.776 -1.19714 -1.53927 0
M  V30 4724 O 493.046 -0.29472 -1.9367 0
M  V30 4725 H 491.626 -0.738299 -0.113683 0
M  V30 4726 H 494.288 -1.9032 0.420042 0
M  V30 4727 H 493.384 -3.06901 -0.567283 0
M  V30 4728 N 493.685 -0.035106 -1.57561 0
M  V30 4729 C 495.096 0.502885 -1.798 0
M  V30 4730 C 495.447 1.71892 -0.945921 0
M  V30 4731 O 494.572 2.15822 -0.157991 0
M  V30 4732 C 495.167 0.919097 -3.26095 0
M  V30 4733 C 493.726 1.40216 -3.49308 0
M  V30 4734 C 492.873 0.369709 -2.74824 0
M  V30 4735 H 495.824 -0.261102 -1.56537 0
M  V30 4736 H 495.845 1.78308 -3.36135 0
M  V30 4737 H 495.357 0.0338526 -3.88085 0
M  V30 4738 H 493.458 2.30714 -2.92578 0
M  V30 4739 H 493.571 1.40541 -4.58023 0
M  V30 4740 H 491.935 0.839113 -2.40481 0
M  V30 4741 H 492.718 -0.507173 -3.39533 0
M  V30 4742 N 495.163 1.55791 0.238111 0
M  V30 4743 C 496.073 1.94196 1.31625 0
M  V30 4744 C 497.089 0.843545 1.52185 0
M  V30 4745 O 498.265 1.1457 1.65637 0
M  V30 4746 C 495.33 2.2365 2.64918 0
M  V30 4747 C 494.391 3.46971 2.52804 0
M  V30 4748 C 493.624 3.7501 3.79741 0
M  V30 4749 O 493.847 3.04982 4.82019 0
M  V30 4750 O 492.781 4.68525 3.77846 0
M  V30 4751 H 496.607 2.86044 1.02043 0
M  V30 4752 H 494.192 1.42786 0.439603 0
M  V30 4753 H 496.074 2.43863 3.4367 0
M  V30 4754 H 494.749 1.34979 2.94215 0
M  V30 4755 H 493.656 3.32055 1.72309 0
M  V30 4756 H 494.989 4.35971 2.28451 0
M  V30 4757 N 496.642 -0.504142 1.49319 0
M  V30 4758 C 497.605 -1.5883 1.65244 0
M  V30 4759 C 498.605 -1.52009 0.524386 0
M  V30 4760 O 499.795 -1.55218 0.79077 0
M  V30 4761 C 496.927 -2.98481 1.64687 0
M  V30 4762 H 498.12 -1.4604 2.61939 0
M  V30 4763 H 495.673 -0.728144 1.38303 0
M  V30 4764 H 496.408 -3.16751 0.695644 0
M  V30 4765 H 496.193 -3.0484 2.46607 0
M  V30 4766 H 497.683 -3.77256 1.79075 0
M  V30 4767 N 498.12 -1.38341 -0.754957 0
M  V30 4768 C 499.536 -1.19508 -1.05783 0
M  V30 4769 C 499.736 -0.0428005 -2.01455 0
M  V30 4770 O 498.792 0.611861 -2.44975 0
M  V30 4771 C 500.105 -2.52091 -1.63923 0
M  V30 4772 C 501.653 -2.58762 -1.76101 0
M  V30 4773 C 502.128 -3.91517 -2.37652 0
M  V30 4774 N 503.619 -3.93049 -2.45085 0
M  V30 4775 C 504.354 -4.9253 -2.93602 0
M  V30 4776 N 503.85 -6.02408 -3.42165 0
M  V30 4777 N 505.643 -4.79921 -2.92629 0
M  V30 4778 H 497.794 -2.1206 -0.120056 0
M  V30 4779 H 500.057 -0.94089 -0.11589 0
M  V30 4780 H 499.763 -3.36858 -1.01093 0
M  V30 4781 H 499.637 -2.70388 -2.63003 0
M  V30 4782 H 502.024 -1.74391 -2.38058 0
M  V30 4783 H 502.105 -2.44333 -0.757294 0
M  V30 4784 H 501.749 -4.76309 -1.76329 0
M  V30 4785 H 501.679 -4.03256 -3.38662 0
M  V30 4786 H 504.17 -3.13685 -2.10736 0
M  V30 4787 H 504.483 -6.74248 -3.77637 0
M  V30 4788 H 502.828 -6.0603 -3.40225 0
M  V30 4789 H 506.019 -3.93194 -2.54001 0
M  V30 4790 H 506.192 -5.57601 -3.30128 0
M  V30 4791 N 499.598 0.982988 -1.23187 0
M  V30 4792 C 500.846 1.72052 -1.06031 0
M  V30 4793 C 501.167 1.90769 0.404019 0
M  V30 4794 O 500.437 1.47446 1.28982 0
M  V30 4795 H 499.017 0.637499 -0.389363 0
M  V30 4796 H 501.679 1.18338 -1.54862 0
M  V30 4797 H 500.775 2.7111 -1.54615 0
M  V30 4798 N 501.076 1.04316 1.18135 0
M  V30 4799 C 502.487 0.775505 1.69832 0
M  V30 4800 C 502.838 -0.703348 1.8316 0
M  V30 4801 O 501.963 -1.54729 1.51287 0
M  V30 4802 C 502.558 1.40112 3.0847 0
M  V30 4803 C 501.117 1.18172 3.57368 0
M  V30 4804 C 500.264 1.49022 2.33854 0
M  V30 4805 H 503.215 1.20925 1.02775 0
M  V30 4806 H 503.236 0.805672 3.71873 0
M  V30 4807 H 502.748 2.47744 2.98738 0
M  V30 4808 H 500.849 0.124258 3.72393 0
M  V30 4809 H 500.962 1.8805 4.40652 0
M  V30 4810 H 499.326 0.909995 2.37889 0
M  V30 4811 H 500.109 2.57768 2.26738 0
M  V30 4812 N 502.554 -1.34406 0.822964 0
M  V30 4813 C 503.779 -2.0304 0.423034 0
M  V30 4814 C 504.204 -1.61568 -0.963196 0
M  V30 4815 O 503.562 -0.800339 -1.62678 0
M  V30 4816 C 503.61 -3.56636 0.53321 0
M  V30 4817 O 502.714 -4.09971 -0.446939 0
M  V30 4818 H 502.055 -0.64075 0.174171 0
M  V30 4819 H 504.585 -1.71653 1.11339 0
M  V30 4820 H 504.595 -4.05945 0.408991 0
M  V30 4821 H 503.27 -3.86168 1.54425 0
M  V30 4822 H 501.847 -3.71835 -0.281601 0
M  V30 4823 N 504.032 -0.577932 -1.46621 0
M  V30 4824 C 504.962 0.145917 -2.33044 0
M  V30 4825 C 505.943 0.888412 -1.45056 0
M  V30 4826 O 507.128 0.864812 -1.73881 0
M  V30 4827 C 504.258 1.16322 -3.27241 0
M  V30 4828 C 503.212 0.535868 -4.24632 0
M  V30 4829 C 502.538 1.65929 -5.08303 0
M  V30 4830 C 503.838 -0.523861 -5.19666 0
M  V30 4831 H 505.532 -0.575636 -2.93814 0
M  V30 4832 H 503.078 -0.278272 -1.41286 0
M  V30 4833 H 505.031 1.67793 -3.86553 0
M  V30 4834 H 503.755 1.91498 -2.64567 0
M  V30 4835 H 502.414 0.0422759 -3.66576 0
M  V30 4836 H 502.062 2.40061 -4.42018 0
M  V30 4837 H 501.762 1.2452 -5.74255 0
M  V30 4838 H 503.286 2.17686 -5.70478 0
M  V30 4839 H 504.7 -0.0944059 -5.73222 0
M  V30 4840 H 503.097 -0.858 -5.93935 0
M  V30 4841 H 504.167 -1.41197 -4.63887 0
M  V30 4842 N 505.51 1.54411 -0.315457 0
M  V30 4843 C 506.758 2.00023 0.288971 0
M  V30 4844 C 507.079 1.20529 1.5329 0
M  V30 4845 O 506.349 0.304986 1.93511 0
M  V30 4846 H 504.929 0.738891 0.109766 0
M  V30 4847 H 507.591 1.90094 -0.430129 0
M  V30 4848 H 506.687 3.07198 0.550999 0
M  V30 4849 N 506.988 0.0434614 1.5754 0
M  V30 4850 C 507.898 -0.94893 2.14552 0
M  V30 4851 C 508.914 -1.34707 1.10136 0
M  V30 4852 O 510.09 -1.42557 1.42266 0
M  V30 4853 C 507.155 -2.208 2.67298 0
M  V30 4854 C 506.216 -1.86893 3.86484 0
M  V30 4855 C 505.449 -3.06797 4.36705 0
M  V30 4856 O 505.672 -4.19921 3.86034 0
M  V30 4857 O 504.606 -2.8826 5.28384 0
M  V30 4858 H 508.432 -0.494099 2.99654 0
M  V30 4859 H 506.017 -0.177989 1.48336 0
M  V30 4860 H 507.899 -2.94686 3.01228 0
M  V30 4861 H 506.574 -2.65436 1.85272 0
M  V30 4862 H 505.481 -1.10347 3.57455 0
M  V30 4863 H 506.814 -1.47062 4.69716 0
M  V30 4864 N 508.466 -1.55915 -0.229846 0
M  V30 4865 C 509.743 -1.6932 -0.979295 0
M  V30 4866 C 510.123 -0.588321 -2.02736 0
M  V30 4867 O 509.471 0.40586 -2.24867 0
M  V30 4868 C 509.681 -3.10305 -1.59724 0
M  V30 4869 C 511.029 -3.6945 -2.09264 0
M  V30 4870 O 512.053 -3.13214 -1.69633 0
M  V30 4871 O 510.912 -4.68072 -2.82082 0
M  V30 4872 H 508.006 -0.689314 -0.456919 0
M  V30 4873 H 510.552 -1.68238 -0.222283 0
M  V30 4874 H 509.324 -3.82177 -0.840039 0
M  V30 4875 H 508.947 -3.1547 -2.42001 0
M  V30 4876 N 509.944 0.496216 -1.49584 0
M  V30 4877 C 511.172 1.27394 -1.63029 0
M  V30 4878 C 511.587 1.86344 -0.303569 0
M  V30 4879 O 510.944 1.68057 0.711547 0
M  V30 4880 C 510.995 2.40077 -2.70269 0
M  V30 4881 O 510.716 1.83549 -3.97796 0
M  V30 4882 C 512.217 3.31372 -2.94462 0
M  V30 4883 H 509.437 0.386211 -0.54871 0
M  V30 4884 H 511.981 0.595163 -1.95648 0
M  V30 4885 H 510.136 3.03775 -2.40415 0
M  V30 4886 H 510.55 2.57561 -4.56905 0
M  V30 4887 H 512.024 4.06707 -3.73221 0
M  V30 4888 H 512.501 3.88654 -2.0456 0
M  V30 4889 H 513.107 2.73435 -3.25751 0
M  V30 4890 N 511.423 1.38739 0.74761 0
M  V30 4891 C 512.37 1.36449 1.86146 0
M  V30 4892 C 513.34 0.226098 1.64554 0
M  V30 4893 O 514.525 0.41926 1.86137 0
M  V30 4894 C 511.665 1.2013 3.23516 0
M  V30 4895 C 510.778 2.43407 3.56899 0
M  V30 4896 C 509.913 2.19773 4.83605 0
M  V30 4897 C 508.952 3.3879 5.09792 0
M  V30 4898 N 508.089 3.14553 6.27695 0
M  V30 4899 H 512.929 2.3167 1.87438 0
M  V30 4900 H 510.466 1.15094 0.916063 0
M  V30 4901 H 512.424 1.08683 4.02795 0
M  V30 4902 H 511.054 0.285453 3.21535 0
M  V30 4903 H 510.106 2.65504 2.72418 0
M  V30 4904 H 511.418 3.32094 3.72176 0
M  V30 4905 H 510.572 2.05496 5.70838 0
M  V30 4906 H 509.311 1.28461 4.70478 0
M  V30 4907 H 508.316 3.53579 4.21025 0
M  V30 4908 H 509.541 4.30986 5.24812 0
M  V30 4909 H 507.487 2.25893 6.1588 0
M  V30 4910 H 507.404 3.96791 6.435 0
M  V30 4911 H 508.672 3.03943 7.17801 0
M  V30 4912 N 512.901 -0.976442 1.23707 0
M  V30 4913 C 513.811 -2.10359 1.03856 0
M  V30 4914 C 514.827 -1.73991 -0.0180919 0
M  V30 4915 O 516.003 -2.0061 0.178211 0
M  V30 4916 C 513.068 -3.40809 0.636387 0
M  V30 4917 C 512.129 -3.91179 1.76854 0
M  V30 4918 C 511.362 -5.15404 1.38546 0
M  V30 4919 O 511.585 -5.69754 0.27142 0
M  V30 4920 O 510.519 -5.5994 2.20797 0
M  V30 4921 H 514.345 -2.29997 1.98331 0
M  V30 4922 H 511.93 -1.08742 1.02448 0
M  V30 4923 H 513.812 -4.19269 0.423223 0
M  V30 4924 H 512.487 -3.22493 -0.279322 0
M  V30 4925 H 511.394 -3.13819 2.03638 0
M  V30 4926 H 512.727 -4.13958 2.6627 0
M  V30 4927 N 514.379 -1.04941 -1.1758 0
M  V30 4928 C 515.342 -0.652456 -2.19717 0
M  V30 4929 C 516.342 0.294745 -1.58076 0
M  V30 4930 O 517.532 0.0789579 -1.74021 0
M  V30 4931 C 514.664 0.0420712 -3.40874 0
M  V30 4932 H 515.857 -1.55642 -2.5635 0
M  V30 4933 H 513.41 -0.842995 -1.31618 0
M  V30 4934 H 514.145 0.95943 -3.09783 0
M  V30 4935 H 513.93 -0.638844 -3.86861 0
M  V30 4936 H 515.42 0.306 -4.16477 0
M  V30 4937 N 515.857 1.33968 -0.830081 0
M  V30 4938 C 517.134 1.92554 -0.343858 0
M  V30 4939 C 517.514 1.7573 1.16971 0
M  V30 4940 O 516.862 1.14035 1.98011 0
M  V30 4941 C 517.072 3.40147 -0.781073 0
M  V30 4942 C 518.42 4.17299 -0.78402 0
M  V30 4943 O 519.444 3.48762 -0.724112 0
M  V30 4944 O 518.303 5.39631 -0.863739 0
M  V30 4945 H 515.397 0.821469 -0.0954827 0
M  V30 4946 H 517.943 1.42897 -0.915348 0
M  V30 4947 H 516.715 3.46225 -1.82329 0
M  V30 4948 H 516.338 3.97166 -0.18567 0
M  V30 4949 N 517.335 0.585699 1.46312 0
M  V30 4950 C 518.265 -0.133556 2.33118 0
M  V30 4951 C 519.246 -0.880707 1.45525 0
M  V30 4952 O 520.431 -0.855579 1.74337 0
M  V30 4953 C 517.561 -1.14585 3.27853 0
M  V30 4954 C 516.515 -0.513341 4.2491 0
M  V30 4955 C 515.841 -1.63231 5.09175 0
M  V30 4956 C 517.141 0.551413 5.19381 0
M  V30 4957 H 518.835 0.59121 2.93505 0
M  V30 4958 H 516.381 0.285761 1.41136 0
M  V30 4959 H 518.334 -1.65741 3.87438 0
M  V30 4960 H 517.058 -1.90093 2.65579 0
M  V30 4961 H 515.717 -0.0228349 3.66593 0
M  V30 4962 H 515.365 -2.37713 4.43285 0
M  V30 4963 H 515.065 -1.21473 5.74907 0
M  V30 4964 H 516.589 -2.14658 5.71624 0
M  V30 4965 H 518.003 0.124804 5.73164 0
M  V30 4966 H 516.4 0.889486 5.93471 0
M  V30 4967 H 517.47 1.43655 4.63132 0
M  V30 4968 N 518.813 -1.54241 0.323641 0
M  V30 4969 C 520.224 -1.85975 -0.164405 0
M  V30 4970 C 520.575 -1.24529 -1.51615 0
M  V30 4971 O 519.7 -0.551351 -2.09258 0
M  V30 4972 C 520.295 -3.37424 -0.305091 0
M  V30 4973 C 518.854 -3.69107 -0.737358 0
M  V30 4974 C 518.001 -2.76942 0.140884 0
M  V30 4975 H 520.952 -1.49088 0.543922 0
M  V30 4976 H 520.973 -3.63147 -1.13598 0
M  V30 4977 H 520.485 -3.82116 0.678876 0
M  V30 4978 H 518.586 -3.29947 -1.73107 0
M  V30 4979 H 518.699 -4.76035 -0.541053 0
M  V30 4980 H 517.063 -2.51795 -0.383572 0
M  V30 4981 H 517.846 -3.24461 1.12162 0
M  V30 4982 N 520.291 -0.0518155 -1.57515 0
M  V30 4983 C 521.201 0.937539 -2.15052 0
M  V30 4984 C 522.217 1.34121 -1.10849 0
M  V30 4985 O 523.393 1.418 -1.4302 0
M  V30 4986 C 520.458 2.19379 -2.68466 0
M  V30 4987 C 519.519 1.84841 -3.87469 0
M  V30 4988 C 518.752 3.04477 -4.38326 0
M  V30 4989 O 518.975 4.17868 -3.88256 0
M  V30 4990 O 517.909 2.85453 -5.29906 0
M  V30 4991 H 521.735 0.478201 -2.99912 0
M  V30 4992 H 519.32 0.17012 -1.48428 0
M  V30 4993 H 521.202 2.93084 -3.02787 0
M  V30 4994 H 519.877 2.64449 -1.86677 0
M  V30 4995 H 518.784 1.08449 -3.58036 0
M  V30 4996 H 520.117 1.44569 -4.7049 0
M  V30 4997 N 521.769 1.56035 0.221574 0
M  V30 4998 C 523.18 1.69229 0.788567 0
M  V30 4999 C 523.531 0.653814 1.84986 0
M  V30 5000 O 522.656 -0.195065 2.15519 0
M  V30 5001 C 523.251 3.06809 1.43713 0
M  V30 5002 C 521.81 3.21858 1.95152 0
M  V30 5003 C 520.957 2.65155 0.811685 0
M  V30 5004 H 523.908 1.587 -0.00307894 0
M  V30 5005 H 523.929 3.02666 2.30594 0
M  V30 5006 H 523.441 3.82369 0.664475 0
M  V30 5007 H 521.542 2.51167 2.7522 0
M  V30 5008 H 521.655 4.29073 2.1315 0
M  V30 5009 H 520.019 2.23635 1.21899 0
M  V30 5010 H 520.802 3.43261 0.0516987 0
M  V30 5011 N 523.247 -0.488276 1.49845 0
M  V30 5012 C 524.472 -1.26997 1.63971 0
M  V30 5013 C 524.897 -1.85427 0.315994 0
M  V30 5014 O 524.255 -1.66475 -0.718032 0
M  V30 5015 C 524.303 -2.36689 2.72049 0
M  V30 5016 O 523.407 -3.40882 2.32107 0
M  V30 5017 H 522.748 -0.374376 0.548396 0
M  V30 5018 H 525.278 -0.583104 1.96115 0
M  V30 5019 H 525.288 -2.82262 2.94605 0
M  V30 5020 H 523.963 -1.93529 3.68129 0
M  V30 5021 H 522.54 -3.01139 2.19931 0
M  V30 5022 N 524.725 -1.39134 -0.740242 0
M  V30 5023 C 525.635 -1.39697 -1.88473 0
M  V30 5024 C 526.651 -0.292403 -1.71526 0
M  V30 5025 O 527.827 -0.533021 -1.94219 0
M  V30 5026 C 524.892 -1.23382 -3.24003 0
M  V30 5027 C 523.953 -2.43763 -3.53381 0
M  V30 5028 C 523.186 -2.28216 -4.82445 0
M  V30 5029 O 523.409 -1.28288 -5.55786 0
M  V30 5030 O 522.343 -3.1709 -5.11603 0
M  V30 5031 H 526.169 -2.36159 -1.90952 0
M  V30 5032 H 523.754 -1.20194 -0.887346 0
M  V30 5033 H 525.636 -1.16395 -4.05006 0
M  V30 5034 H 524.311 -0.300121 -3.22306 0
M  V30 5035 H 523.218 -2.56325 -2.72485 0
M  V30 5036 H 524.551 -3.35808 -3.59852 0
M  V30 5037 N 526.204 0.969867 -1.24223 0
M  V30 5038 C 527.151 2.06407 -1.0327 0
M  V30 5039 C 528.121 1.66014 0.0533 0
M  V30 5040 O 529.306 1.90533 -0.100896 0
M  V30 5041 C 526.446 3.3909 -0.641262 0
M  V30 5042 C 525.559 3.9269 -1.80051 0
M  V30 5043 C 524.694 5.13631 -1.35486 0
M  V30 5044 C 523.733 5.59423 -2.48419 0
M  V30 5045 N 522.87 6.71586 -2.04737 0
M  V30 5046 H 527.71 2.23663 -1.96923 0
M  V30 5047 H 525.247 1.09624 -0.980862 0
M  V30 5048 H 527.205 4.15323 -0.395351 0
M  V30 5049 H 525.835 3.21765 0.258269 0
M  V30 5050 H 524.887 3.13116 -2.16014 0
M  V30 5051 H 526.199 4.22636 -2.64916 0
M  V30 5052 H 525.353 5.97231 -1.0677 0
M  V30 5053 H 524.092 4.85364 -0.476722 0
M  V30 5054 H 523.097 4.74398 -2.77897 0
M  V30 5055 H 524.322 5.89705 -3.36786 0
M  V30 5056 H 522.268 6.45058 -1.19318 0
M  V30 5057 H 522.185 7.0097 -2.83156 0
M  V30 5058 H 523.453 7.58633 -1.79154 0
M  V30 5059 N 527.682 1.05563 1.17022 0
M  V30 5060 C 528.614 0.617888 2.20714 0
M  V30 5061 C 529.627 -0.320303 1.59618 0
M  V30 5062 O 530.816 -0.112449 1.78145 0
M  V30 5063 C 527.916 -0.115333 3.38704 0
M  V30 5064 C 527.089 0.834493 4.29366 0
M  V30 5065 C 526.148 0.141855 5.26009 0
M  V30 5066 O 525.174 0.777151 5.6387 0
M  V30 5067 N 526.376 -1.11934 5.69606 0
M  V30 5068 H 529.141 1.50981 2.58892 0
M  V30 5069 H 526.702 0.938008 1.31958 0
M  V30 5070 H 528.694 -0.588918 4.00392 0
M  V30 5071 H 527.264 -0.908967 2.99093 0
M  V30 5072 H 526.484 1.48762 3.65053 0
M  V30 5073 H 527.772 1.4791 4.86827 0
M  V30 5074 H 527.17 -1.65574 5.40927 0
M  V30 5075 H 525.727 -1.53692 6.33421 0
M  V30 5076 N 529.16 -1.33526 0.837174 0
M  V30 5077 C 530.571 -1.80182 0.489017 0
M  V30 5078 C 530.922 -1.69285 -0.991826 0
M  V30 5079 O 530.047 -1.24113 -1.77271 0
M  V30 5080 C 530.642 -3.27149 0.880866 0
M  V30 5081 C 529.201 -3.71828 0.584872 0
M  V30 5082 C 528.348 -2.54974 1.09011 0
M  V30 5083 H 531.299 -1.21071 1.02603 0
M  V30 5084 H 531.32 -3.80024 0.190239 0
M  V30 5085 H 530.832 -3.35048 1.95869 0
M  V30 5086 H 528.933 -3.69457 -0.48295 0
M  V30 5087 H 529.046 -4.65366 1.13892 0
M  V30 5088 H 527.41 -2.4952 0.511047 0
M  V30 5089 H 528.193 -2.65637 2.17467 0
M  V30 5090 N 530.638 -0.59345 -1.46 0
M  V30 5091 C 531.601 0.123538 -2.28867 0
M  V30 5092 C 532.601 0.808628 -1.38989 0
M  V30 5093 O 533.791 0.658945 -1.61256 0
M  V30 5094 C 530.923 1.1847 -3.19653 0
M  V30 5095 H 532.116 -0.604843 -2.93737 0
M  V30 5096 H 529.669 -0.351875 -1.52288 0
M  V30 5097 H 530.404 1.94431 -2.59552 0
M  V30 5098 H 530.189 0.69783 -3.8584 0
M  V30 5099 H 531.679 1.68726 -3.81997 0
M  V30 5100 N 532.116 1.54067 -0.331816 0
M  V30 5101 C 533.079 2.23275 0.517768 0
M  V30 5102 C 534.079 1.22897 1.03697 0
M  V30 5103 O 535.269 1.47419 0.928084 0
M  V30 5104 C 532.401 2.94326 1.72004 0
M  V30 5105 H 533.594 2.99773 -0.0873507 0
M  V30 5106 H 531.147 1.56079 -0.0830042 0
M  V30 5107 H 531.882 2.21986 2.36417 0
M  V30 5108 H 531.667 3.67941 1.35507 0
M  V30 5109 H 533.157 3.47031 2.32291 0
M  V30 5110 N 533.594 0.0601682 1.57485 0
M  V30 5111 C 534.557 -0.896373 2.10945 0
M  V30 5112 C 535.557 -1.23402 1.03095 0
M  V30 5113 O 536.747 -1.16921 1.29132 0
M  V30 5114 C 533.879 -2.20346 2.60116 0
M  V30 5115 H 535.072 -0.432778 2.96761 0
M  V30 5116 H 532.625 -0.188372 1.55161 0
M  V30 5117 H 533.36 -2.71268 1.7772 0
M  V30 5118 H 533.145 -1.9714 3.38937 0
M  V30 5119 H 534.635 -2.88846 3.01592 0
M  V30 5120 N 535.072 -1.5615 -0.213296 0
M  V30 5121 C 536.483 -1.69645 -0.779582 0
M  V30 5122 C 536.834 -0.663615 -1.84636 0
M  V30 5123 O 535.959 0.183633 -2.15619 0
M  V30 5124 C 536.554 -3.07567 -1.42084 0
M  V30 5125 C 535.113 -3.22889 -1.93442 0
M  V30 5126 C 534.26 -2.65581 -0.797612 0
M  V30 5127 H 537.211 -1.58696 0.0114951 0
M  V30 5128 H 537.232 -3.03884 -2.28986 0
M  V30 5129 H 536.744 -3.82716 -0.644187 0
M  V30 5130 H 534.845 -2.52623 -2.73884 0
M  V30 5131 H 534.958 -4.30197 -2.10872 0
M  V30 5132 H 533.322 -2.24278 -1.20712 0
M  V30 5133 H 534.105 -3.43284 -0.033494 0
M  V30 5134 N 536.55 0.480323 -1.50102 0
M  V30 5135 C 537.966 0.813295 -1.37323 0
M  V30 5136 C 538.166 1.97027 -0.422206 0
M  V30 5137 O 537.222 2.5212 0.138563 0
M  V30 5138 C 538.535 1.13404 -2.78496 0
M  V30 5139 C 540.083 1.24104 -2.87345 0
M  V30 5140 C 540.558 1.59497 -4.29331 0
M  V30 5141 N 542.049 1.66507 -4.32238 0
M  V30 5142 C 542.784 1.95378 -5.39087 0
M  V30 5143 N 542.28 2.22333 -6.56155 0
M  V30 5144 N 544.073 1.96803 -5.26522 0
M  V30 5145 H 536.224 -0.282291 -2.10516 0
M  V30 5146 H 538.487 -0.063752 -0.945854 0
M  V30 5147 H 538.193 0.357064 -3.49883 0
M  V30 5148 H 538.067 2.07251 -3.15162 0
M  V30 5149 H 540.454 2.00871 -2.16183 0
M  V30 5150 H 540.535 0.282593 -2.54234 0
M  V30 5151 H 540.179 0.832736 -5.01027 0
M  V30 5152 H 540.109 2.56477 -4.59921 0
M  V30 5153 H 542.6 1.47753 -3.47818 0
M  V30 5154 H 542.913 2.43611 -7.33399 0
M  V30 5155 H 541.258 2.19745 -6.59346 0
M  V30 5156 H 544.449 1.75235 -4.34062 0
M  V30 5157 H 544.622 2.18969 -6.09883 0
M  V30 5158 N 538.028 1.39524 0.732853 0
M  V30 5159 C 539.276 1.36594 1.48951 0
M  V30 5160 C 539.597 -0.0367507 1.94965 0
M  V30 5161 O 538.867 -0.988391 1.69138 0
M  V30 5162 H 537.447 0.502673 0.552566 0
M  V30 5163 H 540.109 1.74411 0.869869 0
M  V30 5164 H 539.205 2.03 2.3706 0
M  V30 5165 N 539.506 -0.963266 1.24736 0
M  V30 5166 C 540.453 -2.05857 1.04363 0
M  V30 5167 C 541.423 -1.6604 -0.0444951 0
M  V30 5168 O 542.608 -1.90477 0.110999 0
M  V30 5169 C 539.748 -3.38745 0.659235 0
M  V30 5170 C 538.861 -3.9173 1.82131 0
M  V30 5171 C 537.996 -5.12906 1.38208 0
M  V30 5172 C 537.035 -5.58098 2.51382 0
M  V30 5173 N 536.172 -6.7049 2.08295 0
M  V30 5174 H 541.012 -2.22616 1.98107 0
M  V30 5175 H 538.549 -1.09103 0.986661 0
M  V30 5176 H 540.507 -4.15107 0.417371 0
M  V30 5177 H 539.137 -3.21898 -0.241201 0
M  V30 5178 H 538.189 -3.11966 2.17672 0
M  V30 5179 H 539.501 -4.21225 2.67153 0
M  V30 5180 H 538.655 -5.96657 1.09935 0
M  V30 5181 H 537.394 -4.85105 0.502456 0
M  V30 5182 H 536.399 -4.72917 2.80409 0
M  V30 5183 H 537.624 -5.87911 3.39909 0
M  V30 5184 H 535.57 -6.44416 1.22737 0
M  V30 5185 H 535.487 -6.99458 2.86869 0
M  V30 5186 H 536.755 -7.57672 1.83175 0
M  V30 5187 N 540.985 -1.06182 -1.16461 0
M  V30 5188 C 542.396 -0.802426 -1.68576 0
M  V30 5189 C 542.747 0.67412 -1.84255 0
M  V30 5190 O 541.872 1.52303 -1.5373 0
M  V30 5191 C 542.467 -1.45002 -3.06202 0
M  V30 5192 C 541.026 -1.23843 -3.55443 0
M  V30 5193 C 540.173 -1.52724 -2.31454 0
M  V30 5194 H 543.124 -1.22545 -1.00839 0
M  V30 5195 H 543.145 -0.864731 -3.70544 0
M  V30 5196 H 542.657 -2.52466 -2.94759 0
M  V30 5197 H 540.758 -0.183487 -3.72148 0
M  V30 5198 H 540.871 -1.95036 -4.37604 0
M  V30 5199 H 539.235 -0.947726 -2.36411 0
M  V30 5200 H 540.018 -2.61343 -2.22609 0
M  V30 5201 N 542.463 1.3308 -0.844243 0
M  V30 5202 C 543.709 1.97898 -0.443206 0
M  V30 5203 C 544.042 1.66699 0.99625 0
M  V30 5204 O 543.317 0.949704 1.69738 0
M  V30 5205 C 543.6 3.53801 -0.670606 0
M  V30 5206 C 543.453 3.94667 -2.15772 0
M  V30 5207 C 544.772 4.39936 -0.120226 0
M  V30 5208 H 541.891 0.718861 -0.162504 0
M  V30 5209 H 544.533 1.57633 -1.06075 0
M  V30 5210 H 542.683 3.88229 -0.14496 0
M  V30 5211 H 544.355 3.70469 -2.74865 0
M  V30 5212 H 542.598 3.44203 -2.6402 0
M  V30 5213 H 543.269 5.03275 -2.26757 0
M  V30 5214 H 545.745 4.12183 -0.5696 0
M  V30 5215 H 544.621 5.4803 -0.308984 0
M  V30 5216 H 544.882 4.31184 0.976347 0
M  V30 5217 N 543.941 0.601185 1.45683 0
M  V30 5218 C 545.166 0.0982245 2.07167 0
M  V30 5219 C 545.591 -1.20546 1.44396 0
M  V30 5220 O 544.949 -1.73247 0.534347 0
M  V30 5221 C 544.997 -0.0346976 3.60583 0
M  V30 5222 O 544.101 -1.08657 3.97828 0
M  V30 5223 H 543.442 0.0711618 0.660176 0
M  V30 5224 H 545.972 0.829376 1.87036 0
M  V30 5225 H 545.982 -0.234969 4.07323 0
M  V30 5226 H 544.657 0.917265 4.05659 0
M  V30 5227 H 543.234 -0.863275 3.6277 0
M  V30 5228 N 545.419 -1.53889 0.339982 0
M  V30 5229 C 546.835 -1.59595 -0.0120752 0
M  V30 5230 C 547.035 -1.35605 -1.49042 0
M  V30 5231 O 546.091 -1.14856 -2.24865 0
M  V30 5232 C 547.404 -2.9774 0.420898 0
M  V30 5233 C 548.952 -3.1077 0.37294 0
M  V30 5234 C 549.427 -4.51286 0.781327 0
M  V30 5235 N 550.918 -4.57325 0.735374 0
M  V30 5236 C 551.653 -5.64194 1.02336 0
M  V30 5237 N 551.149 -6.7893 1.37933 0
M  V30 5238 N 552.942 -5.54051 0.947838 0
M  V30 5239 H 545.093 -1.67738 1.30299 0
M  V30 5240 H 547.356 -0.785385 0.530918 0
M  V30 5241 H 547.062 -3.20349 1.45152 0
M  V30 5242 H 546.936 -3.76639 -0.205721 0
M  V30 5243 H 549.323 -2.87886 -0.648505 0
M  V30 5244 H 549.404 -2.33939 1.03472 0
M  V30 5245 H 549.048 -4.74905 1.80077 0
M  V30 5246 H 548.978 -5.26511 0.0970679 0
M  V30 5247 H 551.469 -3.74931 0.472773 0
M  V30 5248 H 551.782 -7.56392 1.58402 0
M  V30 5249 H 550.127 -6.80386 1.41774 0
M  V30 5250 H 553.318 -4.63293 0.669115 0
M  V30 5251 H 553.491 -6.37246 1.17563 0
M  V30 5252 N 546.897 -0.0685191 -1.57451 0
M  V30 5253 C 548.143 0.602239 -1.93652 0
M  V30 5254 C 548.476 1.6946 -0.948526 0
M  V30 5255 O 547.751 1.94487 0.022782 0
M  V30 5256 C 548.034 1.18223 -3.4014 0
M  V30 5257 C 547.887 0.0967431 -4.49696 0
M  V30 5258 C 549.206 2.08872 -3.87377 0
M  V30 5259 H 546.325 0.217453 -0.70419 0
M  V30 5260 H 548.967 -0.133821 -1.89528 0
M  V30 5261 H 547.117 1.80953 -3.43785 0
M  V30 5262 H 548.789 -0.536155 -4.58174 0
M  V30 5263 H 547.032 -0.573063 -4.29998 0
M  V30 5264 H 547.703 0.542894 -5.49324 0
M  V30 5265 H 550.179 1.56081 -3.85717 0
M  V30 5266 H 549.055 2.46389 -4.90493 0
M  V30 5267 H 549.316 2.99572 -3.25129 0
M  V30 5268 N 548.375 1.56261 0.205012 0
M  V30 5269 C 549.786 1.70056 0.770574 0
M  V30 5270 C 550.137 0.673398 1.84282 0
M  V30 5271 O 549.262 -0.172196 2.15714 0
M  V30 5272 C 549.857 3.08316 1.40451 0
M  V30 5273 C 548.416 3.2391 1.91727 0
M  V30 5274 C 547.563 2.66001 0.783516 0
M  V30 5275 H 550.514 1.58688 -0.019911 0
M  V30 5276 H 550.535 3.05094 2.27371 0
M  V30 5277 H 550.047 3.83053 0.623882 0
M  V30 5278 H 548.148 2.54072 2.7254 0
M  V30 5279 H 548.261 4.3131 2.08588 0
M  V30 5280 H 546.625 2.24915 1.19521 0
M  V30 5281 H 547.408 3.43297 0.0152883 0
M  V30 5282 N 549.853 -0.472356 1.50355 0
M  V30 5283 C 550.785 -1.58795 1.65278 0
M  V30 5284 C 551.798 -1.53782 0.534313 0
M  V30 5285 O 552.987 -1.59193 0.807446 0
M  V30 5286 C 550.087 -2.97672 1.62001 0
M  V30 5287 C 549.26 -3.27568 2.89859 0
M  V30 5288 C 548.319 -4.45993 2.79242 0
M  V30 5289 O 547.345 -4.46364 3.53197 0
M  V30 5290 N 548.547 -5.47578 1.92713 0
M  V30 5291 H 551.312 -1.46411 2.61503 0
M  V30 5292 H 548.873 -0.660751 1.47803 0
M  V30 5293 H 550.865 -3.74862 1.52513 0
M  V30 5294 H 549.435 -3.03832 0.735159 0
M  V30 5295 H 548.655 -2.39003 3.13483 0
M  V30 5296 H 549.943 -3.44352 3.74565 0
M  V30 5297 H 549.341 -5.50099 1.31939 0
M  V30 5298 H 547.898 -6.23757 1.8913 0
M  V30 5299 N 551.331 -1.39911 -0.725443 0
M  V30 5300 C 552.261 -1.42138 -1.85254 0
M  V30 5301 C 553.242 -0.283513 -1.67721 0
M  V30 5302 O 554.427 -0.490717 -1.87898 0
M  V30 5303 C 551.557 -1.27354 -3.23107 0
M  V30 5304 C 550.511 -2.3864 -3.55296 0
M  V30 5305 C 549.837 -2.08939 -4.92188 0
M  V30 5306 C 551.137 -3.8097 -3.57295 0
M  V30 5307 H 552.831 -2.36461 -1.83648 0
M  V30 5308 H 550.377 -1.13817 -0.882138 0
M  V30 5309 H 552.33 -1.2753 -4.01639 0
M  V30 5310 H 551.054 -0.295025 -3.25265 0
M  V30 5311 H 549.713 -2.37696 -2.79099 0
M  V30 5312 H 549.361 -1.09502 -4.90936 0
M  V30 5313 H 549.061 -2.83491 -5.14691 0
M  V30 5314 H 550.585 -2.10781 -5.73065 0
M  V30 5315 H 551.999 -3.8379 -4.25885 0
M  V30 5316 H 550.396 -4.5496 -3.9132 0
M  V30 5317 H 551.466 -4.11261 -2.5689 0
M  V30 5318 N 552.809 0.956637 -1.25245 0
M  V30 5319 C 553.756 2.053 -1.05454 0
M  V30 5320 C 554.726 1.66062 0.0356889 0
M  V30 5321 O 555.911 1.90415 -0.121099 0
M  V30 5322 C 553.051 3.38391 -0.677191 0
M  V30 5323 C 552.164 3.90758 -1.84206 0
M  V30 5324 C 551.299 5.12165 -1.40926 0
M  V30 5325 C 550.338 5.56757 -2.54338 0
M  V30 5326 N 549.475 6.69376 -2.11848 0
M  V30 5327 H 554.315 2.21562 -1.99284 0
M  V30 5328 H 551.852 1.08578 -0.992434 0
M  V30 5329 H 553.81 4.1488 -0.43938 0
M  V30 5330 H 552.44 3.22021 0.224127 0
M  V30 5331 H 551.492 3.10808 -2.19323 0
M  V30 5332 H 552.804 4.19802 -2.69383 0
M  V30 5333 H 551.958 5.96065 -1.13098 0
M  V30 5334 H 550.697 4.84832 -0.528175 0
M  V30 5335 H 549.702 4.71423 -2.82913 0
M  V30 5336 H 550.927 5.861 -3.43022 0
M  V30 5337 H 548.873 6.43756 -1.26153 0
M  V30 5338 H 548.79 6.97927 -2.90574 0
M  V30 5339 H 550.058 7.5669 -1.87191 0
M  V30 5340 N 554.287 1.06798 1.15896 0
M  V30 5341 C 555.25 0.687328 2.18651 0
M  V30 5342 C 556.25 -0.269559 1.58524 0
M  V30 5343 O 557.44 -0.0512627 1.74125 0
M  V30 5344 C 554.572 0.0121642 3.40898 0
M  V30 5345 H 555.765 1.59701 2.53842 0
M  V30 5346 H 553.318 0.863828 1.3026 0
M  V30 5347 H 554.053 -0.910025 3.1127 0
M  V30 5348 H 553.838 0.700309 3.85795 0
M  V30 5349 H 555.328 -0.239703 4.16911 0
M  V30 5350 N 555.766 -1.3263 0.851289 0
M  V30 5351 C 557.182 -1.50162 0.5407 0
M  V30 5352 C 557.382 -1.78788 -0.929369 0
M  V30 5353 O 556.438 -1.85545 -1.71258 0
M  V30 5354 C 557.751 -2.64803 1.42478 0
M  V30 5355 C 559.299 -2.78688 1.42485 0
M  V30 5356 C 559.774 -3.96405 2.29407 0
M  V30 5357 N 561.265 -4.0366 2.27184 0
M  V30 5358 C 562 -4.93971 2.9117 0
M  V30 5359 N 561.496 -5.89313 3.64256 0
M  V30 5360 N 563.289 -4.87066 2.80576 0
M  V30 5361 H 555.44 -1.12315 1.80275 0
M  V30 5362 H 557.703 -0.553266 0.769806 0
M  V30 5363 H 557.409 -2.50368 2.46999 0
M  V30 5364 H 557.283 -3.60506 1.10974 0
M  V30 5365 H 559.67 -2.92547 0.387304 0
M  V30 5366 H 559.751 -1.83708 1.78002 0
M  V30 5367 H 559.395 -3.83304 3.33228 0
M  V30 5368 H 559.325 -4.90654 1.91224 0
M  V30 5369 H 561.816 -3.35435 1.74045 0
M  V30 5370 H 562.129 -6.54913 4.10255 0
M  V30 5371 H 560.474 -5.8935 3.68364 0
M  V30 5372 H 563.665 -4.11552 2.23031 0
M  V30 5373 H 563.838 -5.57248 3.30725 0
M  V30 5374 N 557.244 -0.608902 -1.45362 0
M  V30 5375 C 558.177 0.158059 -2.27652 0
M  V30 5376 C 559.155 0.872397 -1.37215 0
M  V30 5377 O 560.339 0.881002 -1.66645 0
M  V30 5378 C 557.466 1.22896 -3.15617 0
M  V30 5379 C 556.512 0.617607 -4.22005 0
M  V30 5380 S 557.345 -0.575518 -5.32398 0
M  V30 5381 C 558.501 0.495938 -6.23932 0
M  V30 5382 H 558.734 -0.540095 -2.92353 0
M  V30 5383 H 556.267 -0.396456 -1.49223 0
M  V30 5384 H 558.225 1.84195 -3.66855 0
M  V30 5385 H 556.886 1.89919 -2.50179 0
M  V30 5386 H 556.079 1.42341 -4.83482 0
M  V30 5387 H 555.681 0.0797273 -3.73915 0
M  V30 5388 H 557.973 1.37465 -6.63408 0
M  V30 5389 H 558.916 -0.0827108 -7.08052 0
M  V30 5390 H 559.324 0.811856 -5.58631 0
M  V30 5391 N 558.722 1.53707 -0.348139 0
M  V30 5392 C 559.968 2.01286 0.247332 0
M  V30 5393 C 560.301 1.23546 1.49834 0
M  V30 5394 O 559.576 0.324331 1.91777 0
M  V30 5395 C 559.859 3.55768 0.556858 0
M  V30 5396 C 559.712 4.44216 -0.706564 0
M  V30 5397 C 561.031 4.1841 1.3646 0
M  V30 5398 H 558.15 0.731677 0.0884201 0
M  V30 5399 H 560.792 1.84106 -0.469584 0
M  V30 5400 H 558.942 3.70539 1.16761 0
M  V30 5401 H 560.614 4.41274 -1.34444 0
M  V30 5402 H 558.857 4.12892 -1.33052 0
M  V30 5403 H 559.528 5.50202 -0.445186 0
M  V30 5404 H 562.004 4.07365 0.848113 0
M  V30 5405 H 560.88 5.26563 1.54992 0
M  V30 5406 H 561.141 3.7333 2.36805 0
M  V30 5407 N 560.2 0.0768682 1.57412 0
M  V30 5408 C 561.425 -0.603404 1.98428 0
M  V30 5409 C 561.85 -1.62047 0.955108 0
M  V30 5410 O 561.208 -1.81129 -0.0786778 0
M  V30 5411 C 561.256 -1.24396 3.38464 0
M  V30 5412 O 560.36 -2.35982 3.3821 0
M  V30 5413 H 559.701 -0.154741 0.645718 0
M  V30 5414 H 562.231 0.152885 2.04028 0
M  V30 5415 H 562.241 -1.5896 3.7576 0
M  V30 5416 H 560.916 -0.498735 4.12899 0
M  V30 5417 H 559.493 -2.03173 3.1269 0
M  V30 5418 N 561.678 -1.56367 -0.196722 0
M  V30 5419 C 562.625 -1.94417 -1.24382 0
M  V30 5420 C 563.595 -0.804543 -1.45315 0
M  V30 5421 O 564.78 -1.06256 -1.58475 0
M  V30 5422 C 561.92 -2.28757 -2.58388 0
M  V30 5423 C 561.033 -3.55775 -2.45047 0
M  V30 5424 C 560.168 -3.79445 -3.71746 0
M  V30 5425 C 559.207 -4.99894 -3.53231 0
M  V30 5426 N 558.344 -5.19826 -4.71938 0
M  V30 5427 H 563.184 -2.83691 -0.912338 0
M  V30 5428 H 560.721 -1.40392 -0.439135 0
M  V30 5429 H 562.679 -2.46682 -3.36457 0
M  V30 5430 H 561.309 -1.42625 -2.89582 0
M  V30 5431 H 560.361 -3.45905 -1.58284 0
M  V30 5432 H 561.673 -4.44 -2.27299 0
M  V30 5433 H 560.827 -3.97601 -4.58256 0
M  V30 5434 H 559.566 -2.89546 -3.92446 0
M  V30 5435 H 558.571 -4.81662 -2.65107 0
M  V30 5436 H 559.796 -5.913 -3.33978 0
M  V30 5437 H 557.742 -4.32875 -4.92905 0
M  V30 5438 H 557.659 -6.02228 -4.57009 0
M  V30 5439 H 558.927 -5.42439 -5.59803 0
M  V30 5440 N 563.156 0.464375 -1.50603 0
M  V30 5441 C 564.381 1.24372 -1.65971 0
M  V30 5442 C 564.806 1.84901 -0.345453 0
M  V30 5443 O 564.164 1.67596 0.691457 0
M  V30 5444 C 564.212 2.32331 -2.7578 0
M  V30 5445 O 563.316 3.37146 -2.375 0
M  V30 5446 H 562.657 0.365604 -0.554283 0
M  V30 5447 H 565.187 0.55183 -1.97018 0
M  V30 5448 H 565.197 2.77539 -2.99059 0
M  V30 5449 H 563.872 1.87648 -3.71162 0
M  V30 5450 H 562.449 2.97602 -2.24694 0
M  V30 5451 N 564.634 1.40294 0.718013 0
M  V30 5452 C 565.581 1.40367 1.8321 0
M  V30 5453 C 566.551 0.260952 1.64037 0
M  V30 5454 O 567.736 0.458648 1.85205 0
M  V30 5455 C 564.876 1.26965 3.20895 0
M  V30 5456 C 563.989 2.50922 3.51656 0
M  V30 5457 C 563.124 2.29981 4.78834 0
M  V30 5458 C 562.163 3.49527 5.02491 0
M  V30 5459 N 561.3 3.27796 6.20882 0
M  V30 5460 H 566.14 2.35593 1.82482 0
M  V30 5461 H 563.677 1.17012 0.891444 0
M  V30 5462 H 565.635 1.17202 4.00399 0
M  V30 5463 H 564.265 0.353591 3.20858 0
M  V30 5464 H 563.317 2.71223 2.66725 0
M  V30 5465 H 564.629 3.39913 3.65048 0
M  V30 5466 H 563.783 2.17558 5.66351 0
M  V30 5467 H 562.522 1.38411 4.67647 0
M  V30 5468 H 561.527 3.6243 4.1343 0
M  V30 5469 H 562.752 4.42021 5.15553 0
M  V30 5470 H 560.698 2.38906 6.1095 0
M  V30 5471 H 560.615 4.10351 6.34939 0
M  V30 5472 H 561.883 3.19101 7.11193 0
M  V30 5473 N 566.112 -0.949982 1.2575 0
M  V30 5474 C 567.389 -1.6718 1.01539 0
M  V30 5475 C 567.769 -2.06095 -0.456942 0
M  V30 5476 O 567.117 -1.77792 -1.43534 0
M  V30 5477 C 567.327 -2.8906 1.95564 0
M  V30 5478 C 568.675 -3.60909 2.23673 0
M  V30 5479 O 569.699 -2.9915 1.9336 0
M  V30 5480 O 568.558 -4.72127 2.75243 0
M  V30 5481 H 565.652 -0.731697 0.385419 0
M  V30 5482 H 568.198 -1.00249 1.36924 0
M  V30 5483 H 566.97 -2.57128 2.94959 0
M  V30 5484 H 566.593 -3.63719 1.60605 0
M  V30 5485 N 567.59 -1.07411 -1.15328 0
M  V30 5486 C 568.838 -0.796073 -1.85761 0
M  V30 5487 C 569.159 0.679864 -1.82764 0
M  V30 5488 O 568.429 1.49242 -1.269 0
M  V30 5489 H 567.009 -0.291495 -0.687779 0
M  V30 5490 H 569.671 -1.35799 -1.39802 0
M  V30 5491 H 568.767 -1.13114 -2.90881 0
M  V30 5492 N 569.068 1.32177 -0.85831 0
M  V30 5493 C 570.296 2.01313 -0.477582 0
M  V30 5494 C 570.711 1.6449 0.926736 0
M  V30 5495 O 570.068 0.868096 1.60531 0
M  V30 5496 C 570.119 3.56293 -0.611337 0
M  V30 5497 O 569.84 3.91794 -1.96034 0
M  V30 5498 C 571.341 4.42702 -0.230093 0
M  V30 5499 H 568.561 0.644323 -0.187322 0
M  V30 5500 H 571.105 1.68674 -1.15626 0
M  V30 5501 H 569.26 3.87395 0.0196494 0
M  V30 5502 H 569.674 4.86513 -1.95973 0
M  V30 5503 H 571.148 5.50727 -0.374674 0
M  V30 5504 H 571.625 4.3129 0.829779 0
M  V30 5505 H 572.231 4.16997 -0.836302 0
M  V30 5506 N 570.547 0.616602 1.45037 0
M  V30 5507 C 571.795 0.115103 2.01772 0
M  V30 5508 C 572.116 -1.2622 1.48639 0
M  V30 5509 O 571.386 -1.83563 0.684199 0
M  V30 5510 H 569.966 0.0395607 0.745952 0
M  V30 5511 H 572.628 0.800032 1.77723 0
M  V30 5512 H 571.724 0.0717274 3.12018 0
M  V30 5513 N 572.025 -1.5352 0.356285 0
M  V30 5514 C 573.25 -2.06007 -0.239961 0
M  V30 5515 C 573.675 -1.22872 -1.42422 0
M  V30 5516 O 573.033 -0.245516 -1.7963 0
M  V30 5517 C 573.081 -3.5522 -0.620587 0
M  V30 5518 O 572.185 -3.74864 -1.71902 0
M  V30 5519 H 571.526 -0.662961 -0.0371377 0
M  V30 5520 H 574.056 -1.98033 0.514194 0
M  V30 5521 H 574.066 -3.98081 -0.894197 0
M  V30 5522 H 572.741 -4.15175 0.245407 0
M  V30 5523 H 571.318 -3.43904 -1.44169 0
M  V30 5524 N 573.503 -0.0852151 -1.57369 0
M  V30 5525 C 574.78 0.622534 -1.85429 0
M  V30 5526 C 575.16 1.86962 -0.980229 0
M  V30 5527 O 574.508 2.28445 -0.0500219 0
M  V30 5528 C 574.718 0.947374 -3.35896 0
M  V30 5529 C 576.066 1.31509 -4.03721 0
M  V30 5530 O 577.09 1.03869 -3.40719 0
M  V30 5531 O 575.949 1.83231 -5.14868 0
M  V30 5532 H 573.043 0.310513 -0.766492 0
M  V30 5533 H 575.589 -0.117164 -1.69295 0
M  V30 5534 H 574.361 0.0622264 -3.91251 0
M  V30 5535 H 573.984 1.74338 -3.5734 0
M  V30 5536 N 574.981 1.5647 0.188427 0
M  V30 5537 C 576.258 1.71857 0.934058 0
M  V30 5538 C 576.638 0.641867 2.01105 0
M  V30 5539 O 575.986 -0.346098 2.25864 0
M  V30 5540 C 576.196 3.14431 1.5144 0
M  V30 5541 C 577.544 3.74869 1.99396 0
M  V30 5542 O 578.568 3.17601 1.61269 0
M  V30 5543 O 577.427 4.75387 2.69573 0
M  V30 5544 H 574.521 0.701186 0.438483 0
M  V30 5545 H 577.067 1.68768 0.177599 0
M  V30 5546 H 575.839 3.8427 0.738416 0
M  V30 5547 H 575.462 3.21775 2.33552 0
M  V30 5548 N 576.459 -0.456382 1.50847 0
M  V30 5549 C 577.406 -1.55249 1.70782 0
M  V30 5550 C 578.376 -1.56757 0.549231 0
M  V30 5551 O 579.561 -1.74061 0.7815 0
M  V30 5552 C 576.701 -2.93118 1.82143 0
M  V30 5553 C 575.814 -3.01285 3.09598 0
M  V30 5554 C 574.949 -4.30159 3.11667 0
M  V30 5555 C 573.988 -4.32124 4.33515 0
M  V30 5556 N 573.125 -5.52492 4.3324 0
M  V30 5557 H 577.965 -1.37555 2.64353 0
M  V30 5558 H 575.502 -0.668543 1.3103 0
M  V30 5559 H 577.46 -3.73088 1.86711 0
M  V30 5560 H 576.09 -3.09413 0.919978 0
M  V30 5561 H 575.142 -2.14096 3.14431 0
M  V30 5562 H 576.454 -2.98597 3.99551 0
M  V30 5563 H 575.608 -5.18489 3.15046 0
M  V30 5564 H 574.347 -4.35477 2.1957 0
M  V30 5565 H 573.352 -3.42189 4.30333 0
M  V30 5566 H 574.577 -4.28485 5.26856 0
M  V30 5567 H 572.523 -5.58567 3.44004 0
M  V30 5568 H 572.44 -5.51605 5.16979 0
M  V30 5569 H 573.708 -6.42906 4.40786 0
M  V30 5570 N 577.937 -1.40673 -0.710563 0
M  V30 5571 C 578.884 -1.41336 -1.82463 0
M  V30 5572 C 579.854 -0.269648 -1.63897 0
M  V30 5573 O 581.039 -0.468463 -1.8496 0
M  V30 5574 C 578.179 -1.28665 -3.20218 0
M  V30 5575 C 577.292 -2.52784 -3.5032 0
M  V30 5576 C 576.427 -2.32517 -4.77608 0
M  V30 5577 C 575.466 -3.52187 -5.0063 0
M  V30 5578 N 574.603 -3.31084 -6.19135 0
M  V30 5579 H 579.443 -2.36558 -1.8123 0
M  V30 5580 H 576.98 -1.17483 -0.885226 0
M  V30 5581 H 578.938 -1.19324 -3.99772 0
M  V30 5582 H 577.568 -0.370602 -3.20666 0
M  V30 5583 H 576.62 -2.72634 -2.65283 0
M  V30 5584 H 577.932 -3.41845 -3.63241 0
M  V30 5585 H 577.086 -2.20558 -5.65189 0
M  V30 5586 H 575.825 -1.40889 -4.66906 0
M  V30 5587 H 574.83 -3.64617 -4.11502 0
M  V30 5588 H 576.055 -4.44749 -5.13201 0
M  V30 5589 H 574.001 -2.42143 -6.09674 0
M  V30 5590 H 573.918 -4.13713 -6.32754 0
M  V30 5591 H 575.186 -3.22868 -7.0949 0
M  V30 5592 N 579.415 0.9433 -1.26252 0
M  V30 5593 C 580.378 2.02326 -1.07689 0
M  V30 5594 C 581.378 1.60779 -0.0259174 0
M  V30 5595 O 582.568 1.72108 -0.269134 0
M  V30 5596 C 579.7 3.34886 -0.63752 0
M  V30 5597 H 580.893 2.20225 -2.0357 0
M  V30 5598 H 578.446 1.12197 -1.08819 0
M  V30 5599 H 579.181 3.22684 0.323377 0
M  V30 5600 H 578.966 3.66393 -1.39637 0
M  V30 5601 H 580.456 4.14231 -0.529418 0
M  V30 5602 N 580.893 1.08022 1.14757 0
M  V30 5603 C 581.84 0.706657 2.19716 0
M  V30 5604 C 582.81 -0.30525 1.63271 0
M  V30 5605 O 583.995 -0.19015 1.8985 0
M  V30 5606 C 581.135 0.117914 3.44898 0
M  V30 5607 C 580.248 1.18212 4.15512 0
M  V30 5608 C 579.383 0.557659 5.28265 0
M  V30 5609 C 578.422 1.60418 5.90705 0
M  V30 5610 N 577.559 1.0018 6.94916 0
M  V30 5611 H 582.399 1.60603 2.51019 0
M  V30 5612 H 579.936 0.802664 1.23271 0
M  V30 5613 H 581.894 -0.241112 4.16503 0
M  V30 5614 H 580.524 -0.744788 3.1409 0
M  V30 5615 H 579.576 1.65863 3.42335 0
M  V30 5616 H 580.888 1.97533 4.5802 0
M  V30 5617 H 580.042 0.146654 6.06523 0
M  V30 5618 H 578.781 -0.267249 4.86967 0
M  V30 5619 H 577.786 2.02489 5.11154 0
M  V30 5620 H 579.011 2.43149 6.34078 0
M  V30 5621 H 576.957 0.197917 6.55701 0
M  V30 5622 H 576.874 1.73216 7.35889 0
M  V30 5623 H 578.142 0.616523 7.77058 0
M  V30 5624 N 582.371 -1.3172 0.865308 0
M  V30 5625 C 583.599 -2.01057 0.488251 0
M  V30 5626 C 584.014 -1.64979 -0.918 0
M  V30 5627 O 583.371 -0.876597 -1.60069 0
M  V30 5628 C 583.422 -3.55964 0.630224 0
M  V30 5629 O 583.143 -3.90749 1.98109 0
M  V30 5630 C 584.644 -4.42574 0.253567 0
M  V30 5631 H 581.864 -0.64332 0.190736 0
M  V30 5632 H 584.408 -1.68058 1.16519 0
M  V30 5633 H 582.563 -3.874 0.000895422 0
M  V30 5634 H 582.977 -4.85467 1.9855 0
M  V30 5635 H 584.451 -5.50521 0.403875 0
M  V30 5636 H 584.928 -4.31724 -0.806895 0
M  V30 5637 H 585.534 -4.16547 0.858404 0
M  V30 5638 N 583.85 -0.624285 -1.44708 0
M  V30 5639 C 585.075 -0.131171 -2.06985 0
M  V30 5640 C 585.5 1.18234 -1.46295 0
M  V30 5641 O 584.858 1.72375 -0.561842 0
M  V30 5642 C 584.906 -0.0226724 -3.60593 0
M  V30 5643 O 584.01 1.02314 -3.99507 0
M  V30 5644 H 583.351 -0.0816556 -0.65896 0
M  V30 5645 H 585.88 -0.859027 -1.85693 0
M  V30 5646 H 585.891 0.170138 -4.07645 0
M  V30 5647 H 584.566 -0.981685 -4.04148 0
M  V30 5648 H 583.143 0.805452 -3.64097 0
M  V30 5649 N 585.328 1.53329 -0.364422 0
M  V30 5650 C 586.556 2.05657 0.226424 0
M  V30 5651 C 586.971 1.23801 1.42544 0
M  V30 5652 O 586.328 0.27839 1.80364 0
M  V30 5653 C 586.379 3.56125 0.621056 0
M  V30 5654 O 586.1 4.34879 -0.530304 0
M  V30 5655 C 587.601 4.24706 1.27041 0
M  V30 5656 H 584.821 0.669806 0.0400056 0
M  V30 5657 H 587.365 1.97714 -0.522456 0
M  V30 5658 H 585.52 3.64223 1.31985 0
M  V30 5659 H 585.934 5.24073 -0.211546 0
M  V30 5660 H 587.408 5.3131 1.49711 0
M  V30 5661 H 587.885 3.78354 2.23036 0
M  V30 5662 H 588.491 4.20858 0.613079 0
M  V30 5663 N 586.806 0.0935595 1.57322 0
M  V30 5664 C 588.222 -0.263091 1.57417 0
M  V30 5665 C 588.422 -1.68526 1.1046 0
M  V30 5666 O 587.478 -2.40139 0.780357 0
M  V30 5667 C 588.791 -0.0529201 3.00653 0
M  V30 5668 C 590.339 -0.120788 3.12767 0
M  V30 5669 C 590.814 0.0613707 4.57959 0
M  V30 5670 N 592.305 0.00648534 4.632 0
M  V30 5671 C 593.04 0.122699 5.73269 0
M  V30 5672 N 592.536 0.29366 6.92177 0
M  V30 5673 N 594.329 0.0640787 5.62063 0
M  V30 5674 H 586.48 1.02277 1.86154 0
M  V30 5675 H 588.743 0.4007 0.859153 0
M  V30 5676 H 588.449 0.929279 3.39201 0
M  V30 5677 H 588.323 -0.795899 3.68708 0
M  V30 5678 H 590.71 -1.09349 2.74093 0
M  V30 5679 H 590.791 0.653656 2.47307 0
M  V30 5680 H 590.435 1.03093 4.97327 0
M  V30 5681 H 590.365 -0.732748 5.21477 0
M  V30 5682 H 592.856 -0.123173 3.77699 0
M  V30 5683 H 593.169 0.37389 7.71895 0
M  V30 5684 H 591.514 0.329307 6.94219 0
M  V30 5685 H 594.705 -0.0683396 4.6805 0
M  V30 5686 H 594.878 0.158097 6.47807 0
M  V30 5687 N 588.284 -1.56567 -0.180126 0
M  V30 5688 C 589.509 -1.85975 -0.918041 0
M  V30 5689 C 589.934 -0.678888 -1.75422 0
M  V30 5690 O 589.292 0.372168 -1.77439 0
M  V30 5691 C 589.34 -3.13731 -1.77779 0
M  V30 5692 O 588.444 -2.95335 -2.87838 0
M  V30 5693 H 587.785 -0.61196 -0.257683 0
M  V30 5694 H 590.315 -2.03798 -0.180923 0
M  V30 5695 H 590.325 -3.4491 -2.17948 0
M  V30 5696 H 589 -3.99293 -1.16352 0
M  V30 5697 H 587.577 -2.7549 -2.51316 0
M  V30 5698 N 589.762 0.448376 -1.51087 0
M  V30 5699 C 590.987 1.22605 -1.6728 0
M  V30 5700 C 591.412 1.84524 -0.365045 0
M  V30 5701 O 590.77 1.6832 0.673642 0
M  V30 5702 C 590.818 2.29393 -2.78229 0
M  V30 5703 O 589.922 3.34608 -2.41063 0
M  V30 5704 H 589.263 0.359705 -0.558129 0
M  V30 5705 H 591.793 0.530903 -1.97592 0
M  V30 5706 H 591.803 2.74352 -3.01986 0
M  V30 5707 H 590.478 1.83701 -3.73131 0
M  V30 5708 H 589.055 2.95202 -2.27838 0
M  V30 5709 N 591.24 1.41047 0.703093 0
M  V30 5710 C 592.203 1.42036 1.79884 0
M  V30 5711 C 593.203 0.312153 1.57741 0
M  V30 5712 O 594.393 0.571672 1.64553 0
M  V30 5713 C 591.525 1.22437 3.18154 0
M  V30 5714 H 592.718 2.39572 1.80403 0
M  V30 5715 H 590.271 1.27079 0.909977 0
M  V30 5716 H 591.006 0.257112 3.23279 0
M  V30 5717 H 590.791 2.02723 3.35627 0
M  V30 5718 H 592.281 1.25946 3.98155 0
M  V30 5719 N 592.718 -0.936591 1.26751 0
M  V30 5720 C 593.665 -2.03597 1.08706 0
M  V30 5721 C 594.635 -1.66097 -0.00926542 0
M  V30 5722 O 595.82 -1.90199 0.151377 0
M  V30 5723 C 592.96 -3.3727 0.73094 0
M  V30 5724 C 592.073 -3.87778 1.90399 0
M  V30 5725 C 591.208 -5.09859 1.49056 0
M  V30 5726 C 590.247 -5.5264 2.63164 0
M  V30 5727 N 589.384 -6.65921 2.22471 0
M  V30 5728 H 594.224 -2.18364 2.02784 0
M  V30 5729 H 591.761 -1.06985 1.00958 0
M  V30 5730 H 593.719 -4.14128 0.505328 0
M  V30 5731 H 592.349 -3.22337 -0.172868 0
M  V30 5732 H 591.401 -3.07279 2.2424 0
M  V30 5733 H 592.713 -4.15464 2.76028 0
M  V30 5734 H 591.867 -5.9419 1.22567 0
M  V30 5735 H 590.606 -4.8393 0.60524 0
M  V30 5736 H 589.611 -4.66863 2.90377 0
M  V30 5737 H 590.836 -5.80568 3.52303 0
M  V30 5738 H 588.782 -6.41667 1.36379 0
M  V30 5739 H 588.699 -6.93216 3.01641 0
M  V30 5740 H 589.967 -7.53616 1.99205 0
M  V30 5741 N 594.196 -1.08629 -1.14182 0
M  V30 5742 C 595.424 -0.838889 -1.8913 0
M  V30 5743 C 595.839 0.609153 -1.78703 0
M  V30 5744 O 595.196 1.41876 -1.14794 0
M  V30 5745 C 595.247 -1.25477 -3.39025 0
M  V30 5746 O 594.968 -2.64601 -3.49167 0
M  V30 5747 C 596.469 -1.03856 -4.30963 0
M  V30 5748 H 593.689 -0.302377 -0.599007 0
M  V30 5749 H 596.233 -1.44615 -1.44592 0
M  V30 5750 H 594.388 -0.691571 -3.81177 0
M  V30 5751 H 594.802 -2.81922 -4.42289 0
M  V30 5752 H 596.276 -1.37892 -5.345 0
M  V30 5753 H 596.753 0.0242522 -4.39193 0
M  V30 5754 H 597.359 -1.58731 -3.94569 0
M  V30 5755 N 595.674 1.31259 -0.872281 0
M  V30 5756 C 596.604 2.30929 -0.345554 0
M  V30 5757 C 597.585 1.60449 0.5648 0
M  V30 5758 O 598.77 1.8814 0.481335 0
M  V30 5759 C 595.9 3.44348 0.451823 0
M  V30 5760 C 594.854 4.26435 -0.365641 0
M  V30 5761 C 594.18 5.31785 0.557562 0
M  V30 5762 C 595.48 4.97159 -1.60095 0
M  V30 5763 H 597.174 2.75234 -1.17841 0
M  V30 5764 H 594.72 1.3232 -0.568094 0
M  V30 5765 H 596.673 4.13128 0.830854 0
M  V30 5766 H 595.397 2.98816 1.31821 0
M  V30 5767 H 594.056 3.59326 -0.726649 0
M  V30 5768 H 593.704 4.82502 1.4213 0
M  V30 5769 H 593.404 5.87598 0.0144878 0
M  V30 5770 H 594.928 6.03424 0.933387 0
M  V30 5771 H 596.342 5.58523 -1.29323 0
M  V30 5772 H 594.739 5.62779 -2.08327 0
M  V30 5773 H 595.809 4.24012 -2.35249 0
M  V30 5774 N 597.152 0.631951 1.44375 0
M  V30 5775 C 598.099 -0.0724807 2.30686 0
M  V30 5776 C 599.069 -0.835975 1.43529 0
M  V30 5777 O 600.254 -0.816849 1.7243 0
M  V30 5778 C 597.394 -1.04753 3.28817 0
M  V30 5779 C 596.507 -0.282367 4.31076 0
M  V30 5780 C 595.642 -1.2493 5.163 0
M  V30 5781 C 594.681 -0.473349 6.10267 0
M  V30 5782 N 593.818 -1.39079 6.88187 0
M  V30 5783 H 598.658 0.669477 2.90383 0
M  V30 5784 H 596.195 0.341927 1.43071 0
M  V30 5785 H 598.153 -1.62623 3.842 0
M  V30 5786 H 596.783 -1.75661 2.70819 0
M  V30 5787 H 595.835 0.412268 3.78159 0
M  V30 5788 H 597.147 0.321955 4.9776 0
M  V30 5789 H 596.301 -1.89931 5.76204 0
M  V30 5790 H 595.04 -1.88755 4.49692 0
M  V30 5791 H 594.045 0.190142 5.49471 0
M  V30 5792 H 595.27 0.16019 6.78911 0
M  V30 5793 H 593.216 -2.01623 6.24247 0
M  V30 5794 H 593.133 -0.840513 7.51313 0
M  V30 5795 H 594.401 -2.02961 7.52613 0
M  V30 5796 N 598.631 -1.53133 0.372548 0
M  V30 5797 C 599.579 -2.27473 -0.485681 0
M  V30 5798 C 600.573 -1.30719 -1.07745 0
M  V30 5799 O 601.779 -1.48321 -1.01985 0
M  V30 5800 H 598.154 -0.731269 -0.175356 0
M  V30 5801 H 600.125 -2.97955 0.162986 0
M  V30 5802 C 598.874 -3.08191 -1.60978 0
M  V30 5803 H 598.197 -3.82488 -1.16373 0
M  V30 5804 H 599.637 -3.63373 -2.18485 0
M  V30 5805 C 598.096 -2.19461 -2.55614 0
M  V30 5806 O 598.626 -1.81008 -3.58607 0
M  V30 5807 N 596.832 -1.83955 -2.24965 0
M  V30 5808 H 596.379 -2.15423 -1.41247 0
M  V30 5809 H 596.337 -1.24874 -2.88538 0
M  V30 5810 N 600.109 -0.101901 -1.5727 0
M  V30 5811 C 601.525 0.254739 -1.57554 0
M  V30 5812 C 601.725 1.67937 -1.11352 0
M  V30 5813 O 600.781 2.39722 -0.793081 0
M  V30 5814 C 602.094 0.036975 -3.00677 0
M  V30 5815 C 603.642 0.104199 -3.12827 0
M  V30 5816 C 604.117 -0.0856565 -4.5792 0
M  V30 5817 N 605.608 -0.0310498 -4.6319 0
M  V30 5818 C 606.343 -0.153099 -5.73196 0
M  V30 5819 N 605.839 -0.330364 -6.92012 0
M  V30 5820 N 607.632 -0.0938854 -5.62022 0
M  V30 5821 H 599.783 -1.03263 -1.85609 0
M  V30 5822 H 602.046 -0.405251 -0.857016 0
M  V30 5823 H 601.752 -0.947254 -3.38703 0
M  V30 5824 H 601.626 0.776335 -3.69124 0
M  V30 5825 H 604.013 1.07894 -2.74669 0
M  V30 5826 H 604.094 -0.666762 -2.46957 0
M  V30 5827 H 603.738 -1.05729 -4.96773 0
M  V30 5828 H 603.668 0.705082 -5.21858 0
M  V30 5829 H 606.159 0.103141 -3.77759 0
M  V30 5830 H 606.472 -0.41482 -7.71686 0
M  V30 5831 H 604.817 -0.366119 -6.94035 0
M  V30 5832 H 608.008 0.0435168 -4.6808 0
M  V30 5833 H 608.181 -0.19245 -6.47714 0
M  V30 5834 N 601.587 1.56661 0.17182 0
M  V30 5835 C 602.998 1.71652 0.734329 0
M  V30 5836 C 603.349 0.712335 1.82812 0
M  V30 5837 O 602.474 -0.126401 2.16031 0
M  V30 5838 C 603.069 3.11226 1.3388 0
M  V30 5839 C 601.628 3.27904 1.84813 0
M  V30 5840 C 600.775 2.67603 0.726917 0
M  V30 5841 H 603.726 1.5861 -0.0535665 0
M  V30 5842 H 603.747 3.09849 2.20849 0
M  V30 5843 H 603.259 3.8429 0.54249 0
M  V30 5844 H 601.36 2.59796 2.6709 0
M  V30 5845 H 601.473 4.35637 1.99392 0
M  V30 5846 H 599.837 2.274 1.14723 0
M  V30 5847 H 600.62 3.43252 -0.0575334 0
M  V30 5848 N 603.065 -0.440357 1.51323 0
M  V30 5849 C 604.305 -1.19956 1.65499 0
M  V30 5850 C 604.669 -1.88559 0.361878 0
M  V30 5851 O 605.87 -2.66109 0.379383 0
M  V30 5852 C 604.141 -2.1918 2.82303 0
M  V30 5853 S 605.7 -3.03627 3.1679 0
M  V30 5854 H 602.518 -0.406833 0.583102 0
M  V30 5855 H 605.12 -0.491596 1.89218 0
M  V30 5856 H 603.824 -1.67414 3.74701 0
M  V30 5857 H 603.355 -2.94561 2.60763 0
M  V30 5858 H 605.37 -4.20773 2.62991 0
M  V30 5859 N 604.543 -1.41418 -0.695603 0
M  V30 5860 C 605.473 -1.46035 -1.82197 0
M  V30 5861 C 606.454 -0.319025 -1.67082 0
M  V30 5862 O 607.639 -0.530462 -1.86815 0
M  V30 5863 C 604.769 -1.34179 -3.20333 0
M  V30 5864 C 603.723 -2.46123 -3.50154 0
M  V30 5865 C 603.049 -2.19332 -4.87645 0
M  V30 5866 C 604.349 -3.88463 -3.49133 0
M  V30 5867 H 606.043 -2.40303 -1.78591 0
M  V30 5868 H 603.589 -1.15663 -0.857797 0
M  V30 5869 H 605.542 -1.36021 -3.98844 0
M  V30 5870 H 604.266 -0.363952 -3.24566 0
M  V30 5871 H 602.925 -2.43563 -2.73994 0
M  V30 5872 H 602.573 -1.19891 -4.88503 0
M  V30 5873 H 602.273 -2.94344 -5.08562 0
M  V30 5874 H 603.797 -2.22889 -5.68465 0
M  V30 5875 H 605.211 -3.92738 -4.17648 0
M  V30 5876 H 603.608 -4.63158 -3.81582 0
M  V30 5877 H 604.678 -4.16617 -2.48109 0
M  V30 5878 N 606.021 0.929856 -1.27246 0
M  V30 5879 C 607.246 1.71674 -1.16374 0
M  V30 5880 C 607.671 1.86064 0.276024 0
M  V30 5881 O 607.029 1.3591 1.19992 0
M  V30 5882 C 607.077 3.09526 -1.85003 0
M  V30 5883 O 606.181 3.96142 -1.14653 0
M  V30 5884 H 605.522 0.52629 -0.404863 0
M  V30 5885 H 608.052 1.16381 -1.68276 0
M  V30 5886 H 608.062 3.59852 -1.92276 0
M  V30 5887 H 606.737 2.98369 -2.89739 0
M  V30 5888 H 605.314 3.54584 -1.15433 0
M  V30 5889 N 607.499 1.09233 1.13605 0
M  V30 5890 C 608.91 0.846839 1.6639 0
M  V30 5891 C 609.261 -0.625031 1.85978 0
M  V30 5892 O 608.386 -1.48173 1.57714 0
M  V30 5893 C 608.981 1.5307 3.0225 0
M  V30 5894 C 607.54 1.33223 3.52035 0
M  V30 5895 C 606.687 1.58806 2.27323 0
M  V30 5896 H 609.638 1.25175 0.975541 0
M  V30 5897 H 609.659 0.96267 3.68121 0
M  V30 5898 H 609.171 2.60192 2.87961 0
M  V30 5899 H 607.272 0.282091 3.71531 0
M  V30 5900 H 607.385 2.0657 4.32279 0
M  V30 5901 H 605.749 1.01007 2.33815 0
M  V30 5902 H 606.532 2.67153 2.15602 0
M  V30 5903 N 608.977 -1.30795 0.87923 0
M  V30 5904 C 609.924 -2.28282 0.339968 0
M  V30 5905 C 610.894 -1.56134 -0.566685 0
M  V30 5906 O 612.079 -1.84231 -0.496338 0
M  V30 5907 C 609.219 -3.42225 -0.444501 0
M  V30 5908 C 608.332 -4.29204 0.490717 0
M  V30 5909 C 607.467 -5.30302 -0.308784 0
M  V30 5910 C 606.506 -6.08929 0.622272 0
M  V30 5911 N 605.643 -7.01957 -0.14155 0
M  V30 5912 H 610.483 -2.73794 1.17647 0
M  V30 5913 H 608.02 -1.34682 0.591527 0
M  V30 5914 H 609.978 -4.07038 -0.915186 0
M  V30 5915 H 608.608 -2.97799 -1.24562 0
M  V30 5916 H 607.66 -3.6475 1.07988 0
M  V30 5917 H 608.972 -4.84045 1.20425 0
M  V30 5918 H 608.126 -6.00835 -0.841575 0
M  V30 5919 H 606.865 -4.7614 -1.05556 0
M  V30 5920 H 605.87 -5.37278 1.16674 0
M  V30 5921 H 607.095 -6.65178 1.36804 0
M  V30 5922 H 605.041 -6.50192 -0.870966 0
M  V30 5923 H 604.958 -7.54261 0.51246 0
M  V30 5924 H 606.226 -7.76741 -0.655271 0
M  V30 5925 N 610.455 -0.639598 -1.44038 0
M  V30 5926 C 611.405 0.0823038 -2.27851 0
M  V30 5927 C 612.389 0.807991 -1.39141 0
M  V30 5928 O 613.581 0.692702 -1.62882 0
M  V30 5929 C 610.71 1.05742 -3.26609 0
M  V30 5930 C 609.796 0.330911 -4.22807 0
M  V30 5931 N 610.187 -0.645126 -5.01669 0
M  V30 5932 C 608.485 0.574214 -4.42288 0
M  V30 5933 C 609.186 -1.07513 -5.71678 0
M  V30 5934 N 608.162 -0.412164 -5.42035 0
M  V30 5935 H 611.964 -0.666861 -2.86234 0
M  V30 5936 H 609.478 -0.465777 -1.55577 0
M  V30 5937 H 611.475 1.58927 -3.85419 0
M  V30 5938 H 610.135 1.80679 -2.69787 0
M  V30 5939 H 611.146 -1.02329 -5.0769 0
M  V30 5940 H 607.823 1.30581 -3.96554 0
M  V30 5941 H 609.213 -1.88196 -6.45005 0
M  V30 5942 N 611.933 1.52934 -0.380664 0
M  V30 5943 C 613.344 1.86457 0.0952684 0
M  V30 5944 C 613.695 1.3007 1.46889 0
M  V30 5945 O 612.82 0.628636 2.07068 0
M  V30 5946 C 613.415 3.38323 0.179648 0
M  V30 5947 C 611.974 3.71589 0.599858 0
M  V30 5948 C 611.121 2.76228 -0.243572 0
M  V30 5949 H 614.072 1.46966 -0.59888 0
M  V30 5950 H 614.093 3.67113 1.00042 0
M  V30 5951 H 613.605 3.79333 -0.820228 0
M  V30 5952 H 611.706 3.36144 1.60742 0
M  V30 5953 H 611.819 4.77715 0.364003 0
M  V30 5954 H 610.183 2.53045 0.289855 0
M  V30 5955 H 610.966 3.20074 -1.24127 0
M  V30 5956 N 613.412 0.11024 1.57214 0
M  V30 5957 C 614.64 -0.557834 1.99238 0
M  V30 5958 C 615.055 -1.60778 0.989734 0
M  V30 5959 O 614.412 -1.82491 -0.0186092 0
M  V30 5960 C 614.463 -1.19189 3.41286 0
M  V30 5961 O 614.184 -0.183919 4.37714 0
M  V30 5962 C 615.685 -1.94413 3.98395 0
M  V30 5963 H 612.905 -0.148392 0.654386 0
M  V30 5964 H 615.449 0.193996 2.03578 0
M  V30 5965 H 613.604 -1.89456 3.37913 0
M  V30 5966 H 614.018 -0.643475 5.20538 0
M  V30 5967 H 615.492 -2.34116 4.99894 0
M  V30 5968 H 615.969 -2.81592 3.3705 0
M  V30 5969 H 616.575 -1.28928 4.05287 0
M  V30 5970 N 614.89 -1.56749 -0.16351 0
M  V30 5971 C 616.301 -1.72039 -0.725216 0
M  V30 5972 C 616.652 -0.72202 -1.82432 0
M  V30 5973 O 615.777 0.114942 -2.16095 0
M  V30 5974 C 616.372 -3.11932 -1.32227 0
M  V30 5975 C 614.931 -3.28879 -1.83072 0
M  V30 5976 C 614.078 -2.67984 -0.712716 0
M  V30 5977 H 617.029 -1.58579 0.0619772 0
M  V30 5978 H 617.05 -3.11015 -2.19202 0
M  V30 5979 H 616.562 -3.84572 -0.522103 0
M  V30 5980 H 614.663 -2.61209 -2.65708 0
M  V30 5981 H 614.776 -4.36688 -1.97079 0
M  V30 5982 H 613.14 -2.28005 -1.13515 0
M  V30 5983 H 613.923 -3.43216 0.0757361 0
M  V30 5984 N 616.368 0.432326 -1.51554 0
M  V30 5985 C 617.616 1.17901 -1.64146 0
M  V30 5986 C 617.937 1.91604 -0.362367 0
M  V30 5987 O 617.207 1.85764 0.621968 0
M  V30 5988 H 615.787 0.438206 -0.604966 0
M  V30 5989 H 618.449 0.495172 -1.88505 0
M  V30 5990 H 617.545 1.90584 -2.47152 0
M  V30 5991 N 617.846 1.41785 0.688094 0
M  V30 5992 C 619.071 1.45117 1.48175 0
M  V30 5993 C 619.496 0.060129 1.88004 0
M  V30 5994 O 618.854 -0.938385 1.55126 0
M  V30 5995 C 618.902 2.37224 2.71583 0
M  V30 5996 O 618.006 1.83443 3.69354 0
M  V30 5997 H 617.347 0.492208 0.445676 0
M  V30 5998 H 619.877 1.86329 0.845145 0
M  V30 5999 H 619.887 2.53353 3.19806 0
M  V30 6000 H 618.562 3.38293 2.41931 0
M  V30 6001 H 617.139 1.76802 3.28322 0
M  V30 6002 N 619.324 -0.923095 1.27737 0
M  V30 6003 C 620.549 -1.71054 1.17283 0
M  V30 6004 C 620.974 -1.86208 -0.266153 0
M  V30 6005 O 620.332 -1.36545 -1.1927 0
M  V30 6006 C 620.38 -3.0854 1.86642 0
M  V30 6007 O 619.484 -3.95528 1.16752 0
M  V30 6008 H 618.825 -0.524136 0.407649 0
M  V30 6009 H 621.355 -1.15487 1.6889 0
M  V30 6010 H 621.365 -3.58828 1.94182 0
M  V30 6011 H 620.04 -2.96828 2.91317 0
M  V30 6012 H 618.617 -3.53967 1.17312 0
M  V30 6013 N 620.802 -1.09834 -1.13024 0
M  V30 6014 C 622.079 -0.749225 -1.80682 0
M  V30 6015 C 622.459 0.765171 -1.96744 0
M  V30 6016 O 621.807 1.68912 -1.53886 0
M  V30 6017 C 622.017 -1.49311 -3.15448 0
M  V30 6018 C 623.365 -1.66162 -3.90737 0
M  V30 6019 O 624.389 -1.45597 -3.25085 0
M  V30 6020 O 623.248 -2.00211 -5.08505 0
M  V30 6021 H 620.342 -0.269614 -0.781817 0
M  V30 6022 H 622.888 -1.20078 -1.19914 0
M  V30 6023 H 621.66 -2.52407 -2.99009 0
M  V30 6024 H 621.283 -1.034 -3.8392 0
M  V30 6025 N 622.28 1.30327 -0.886154 0
M  V30 6026 C 623.691 1.78243 -0.555554 0
M  V30 6027 C 624.042 1.72849 0.928314 0
M  V30 6028 O 623.167 1.30607 1.72542 0
M  V30 6029 C 623.762 3.23654 -1.00168 0
M  V30 6030 C 622.321 3.69401 -0.722471 0
M  V30 6031 C 621.468 2.50753 -1.18399 0
M  V30 6032 H 624.419 1.1718 -1.07026 0
M  V30 6033 H 624.44 3.79056 -0.331152 0
M  V30 6034 H 623.952 3.27548 -2.08169 0
M  V30 6035 H 622.053 3.70995 0.345496 0
M  V30 6036 H 622.166 4.60818 -1.31085 0
M  V30 6037 H 620.53 2.47452 -0.603303 0
M  V30 6038 H 621.313 2.57383 -2.27176 0
M  V30 6039 N 623.758 0.647228 1.43697 0
M  V30 6040 C 624.688 -0.0345631 2.33474 0
M  V30 6041 C 625.669 -0.818193 1.4913 0
M  V30 6042 O 626.854 -0.780867 1.77809 0
M  V30 6043 C 623.984 -1.00576 3.32418 0
M  V30 6044 C 622.938 -0.33266 4.26705 0
M  V30 6045 C 622.264 -1.41489 5.1564 0
M  V30 6046 C 623.564 0.771204 5.16575 0
M  V30 6047 H 625.258 0.715163 2.90733 0
M  V30 6048 H 622.804 0.345364 1.39797 0
M  V30 6049 H 624.757 -1.49159 3.94119 0
M  V30 6050 H 623.481 -1.78657 2.73403 0
M  V30 6051 H 622.14 0.13267 3.6636 0
M  V30 6052 H 621.788 -2.18698 4.52968 0
M  V30 6053 H 621.488 -0.969799 5.79542 0
M  V30 6054 H 623.012 -1.9022 5.80214 0
M  V30 6055 H 624.426 0.36779 5.72119 0
M  V30 6056 H 622.823 1.1404 5.89165 0
M  V30 6057 H 623.893 1.63169 4.56622 0
M  V30 6058 N 625.236 -1.5273 0.388769 0
M  V30 6059 C 626.485 -2.00757 -0.194833 0
M  V30 6060 C 626.798 -1.27951 -1.47946 0
M  V30 6061 O 628.004 -1.66686 -2.14308 0
M  V30 6062 C 626.46 -3.57695 -0.397762 0
M  V30 6063 C 626.068 -4.394 0.873583 0
M  V30 6064 C 627.812 -4.14012 -0.937759 0
M  V30 6065 C 625.719 -5.87938 0.638962 0
M  V30 6066 H 624.649 -0.750101 -0.0765845 0
M  V30 6067 H 627.3 -1.76239 0.511086 0
M  V30 6068 H 625.682 -3.7846 -1.16552 0
M  V30 6069 H 626.856 -4.30403 1.64591 0
M  V30 6070 H 625.171 -3.94301 1.33849 0
M  V30 6071 H 627.768 -5.22645 -1.12899 0
M  V30 6072 H 628.111 -3.7007 -1.90666 0
M  V30 6073 H 628.644 -3.97137 -0.229588 0
M  V30 6074 H 625.383 -6.36202 1.57885 0
M  V30 6075 H 624.903 -5.99726 -0.094443 0
M  V30 6076 H 626.582 -6.46423 0.273299 0
M  V30 6077 N 626.714 -0.118576 -1.57153 0
M  V30 6078 C 627.646 0.862247 -2.12363 0
M  V30 6079 C 628.659 1.23025 -1.06625 0
M  V30 6080 O 629.848 1.17927 -1.33998 0
M  V30 6081 C 626.948 2.16425 -2.60794 0
M  V30 6082 C 626.121 1.96801 -3.90626 0
M  V30 6083 C 625.18 3.10726 -4.2466 0
M  V30 6084 O 624.206 2.83659 -4.93484 0
M  V30 6085 N 625.408 4.37147 -3.81946 0
M  V30 6086 H 628.173 0.390564 -2.97144 0
M  V30 6087 H 625.734 0.0658591 -1.61766 0
M  V30 6088 H 627.726 2.91633 -2.80593 0
M  V30 6089 H 626.296 2.54943 -1.80895 0
M  V30 6090 H 625.516 1.05787 -3.7974 0
M  V30 6091 H 626.804 1.80993 -4.7552 0
M  V30 6092 H 626.202 4.62014 -3.26435 0
M  V30 6093 H 624.759 5.09229 -4.06853 0
M  V30 6094 N 628.193 1.56834 0.155195 0
M  V30 6095 C 629.604 1.72421 0.716082 0
M  V30 6096 C 629.955 0.731685 1.82046 0
M  V30 6097 O 629.08 -0.103481 2.16152 0
M  V30 6098 C 629.675 3.12629 1.30571 0
M  V30 6099 C 628.234 3.29846 1.81325 0
M  V30 6100 C 627.381 2.68359 0.698494 0
M  V30 6101 H 630.332 1.58544 -0.0703861 0
M  V30 6102 H 630.353 3.12174 2.1755 0
M  V30 6103 H 629.865 3.84844 0.501701 0
M  V30 6104 H 627.966 2.62614 2.64319 0
M  V30 6105 H 628.079 4.37727 1.9476 0
M  V30 6106 H 626.443 2.28604 1.12305 0
M  V30 6107 H 627.226 3.43171 -0.0939366 0
M  V30 6108 N 629.671 -0.424282 1.51781 0
M  V30 6109 C 630.896 -1.19928 1.6921 0
M  V30 6110 C 631.321 -1.8392 0.394355 0
M  V30 6111 O 630.679 -1.69371 -0.646778 0
M  V30 6112 C 630.727 -2.24937 2.81843 0
M  V30 6113 O 629.831 -3.3073 2.46356 0
M  V30 6114 H 629.172 -0.35078 0.563781 0
M  V30 6115 H 631.702 -0.499401 1.98412 0
M  V30 6116 H 631.712 -2.69512 3.06312 0
M  V30 6117 H 630.387 -1.77742 3.76006 0
M  V30 6118 H 628.964 -2.9154 2.32505 0
M  V30 6119 N 631.149 -1.42148 -0.680565 0
M  V30 6120 C 632.374 -1.45901 -1.47403 0
M  V30 6121 C 632.799 -0.0700985 -1.87969 0
M  V30 6122 O 632.157 0.930145 -1.55621 0
M  V30 6123 C 632.205 -2.38661 -2.70321 0
M  V30 6124 O 631.309 -1.85399 -3.68376 0
M  V30 6125 H 630.65 -0.494565 -0.443059 0
M  V30 6126 H 633.18 -1.86774 -0.835251 0
M  V30 6127 H 633.19 -2.55046 -3.18458 0
M  V30 6128 H 631.865 -3.39571 -2.40134 0
M  V30 6129 H 630.442 -1.78541 -3.2738 0
M  V30 6130 N 632.627 0.916307 -1.28225 0
M  V30 6131 C 634.038 1.48024 -1.13779 0
M  V30 6132 C 634.389 1.94289 0.273139 0
M  V30 6133 O 633.514 1.82226 1.16716 0
M  V30 6134 C 634.109 2.69029 -2.05935 0
M  V30 6135 C 632.668 3.2161 -1.95561 0
M  V30 6136 C 631.815 1.94321 -1.97825 0
M  V30 6137 H 634.766 0.729272 -1.40951 0
M  V30 6138 H 634.787 3.44204 -1.62184 0
M  V30 6139 H 634.299 2.35325 -3.08616 0
M  V30 6140 H 632.4 3.60045 -0.959076 0
M  V30 6141 H 632.513 3.87032 -2.82388 0
M  V30 6142 H 630.877 2.1131 -1.42198 0
M  V30 6143 H 631.66 1.62917 -3.0218 0
M  V30 6144 N 634.105 1.10431 1.1244 0
M  V30 6145 C 635.068 0.756542 2.16354 0
M  V30 6146 C 636.068 -0.21899 1.59302 0
M  V30 6147 O 637.258 0.00415969 1.742 0
M  V30 6148 C 634.39 0.120612 3.40687 0
M  V30 6149 H 635.583 1.67696 2.48632 0
M  V30 6150 H 633.136 0.904832 1.27446 0
M  V30 6151 H 633.871 -0.810536 3.14008 0
M  V30 6152 H 633.656 0.822693 3.83372 0
M  V30 6153 H 635.146 -0.106945 4.17463 0
M  V30 6154 N 635.583 -1.29855 0.893053 0
M  V30 6155 C 636.829 -1.96116 0.516349 0
M  V30 6156 C 637.162 -1.70281 -0.933695 0
M  V30 6157 O 636.437 -1.01205 -1.66096 0
M  V30 6158 C 636.72 -3.51068 0.801455 0
M  V30 6159 C 636.573 -3.86387 2.30272 0
M  V30 6160 C 637.892 -4.39186 0.283423 0
M  V30 6161 H 635.011 -0.712335 0.189072 0
M  V30 6162 H 637.653 -1.53587 1.11852 0
M  V30 6163 H 635.803 -3.87424 0.288949 0
M  V30 6164 H 637.475 -3.60012 2.88425 0
M  V30 6165 H 635.718 -3.34167 2.76613 0
M  V30 6166 H 636.389 -4.94512 2.45279 0
M  V30 6167 H 638.865 -4.09785 0.722187 0
M  V30 6168 H 637.741 -5.46505 0.512169 0
M  V30 6169 H 638.002 -4.34511 -0.815643 0
M  V30 6170 N 637.061 -0.65484 -1.43351 0
M  V30 6171 C 638.301 -0.172514 -2.03671 0
M  V30 6172 C 638.665 1.19154 -1.50553 0
M  V30 6173 O 639.866 1.76737 -2.02528 0
M  V30 6174 C 638.137 -0.183982 -3.56926 0
M  V30 6175 S 639.696 0.230262 -4.38195 0
M  V30 6176 H 636.514 -0.0727503 -0.707268 0
M  V30 6177 H 639.116 -0.863537 -1.75395 0
M  V30 6178 H 637.82 -1.17945 -3.93087 0
M  V30 6179 H 637.351 0.527527 -3.89847 0
M  V30 6180 H 639.366 1.46874 -4.73965 0
M  V30 6181 N 638.539 1.52521 -0.396863 0
M  V30 6182 C 639.95 1.86547 0.0754868 0
M  V30 6183 C 640.301 1.31621 1.45501 0
M  V30 6184 O 639.426 0.650563 2.0639 0
M  V30 6185 C 640.021 3.38495 0.143754 0
M  V30 6186 C 638.58 3.72205 0.560413 0
M  V30 6187 C 637.727 2.75954 -0.272856 0
M  V30 6188 H 640.678 1.46323 -0.614434 0
M  V30 6189 H 640.699 3.68153 0.961425 0
M  V30 6190 H 640.211 3.78442 -0.860415 0
M  V30 6191 H 638.312 3.3783 1.57167 0
M  V30 6192 H 638.425 4.78074 0.313314 0
M  V30 6193 H 636.789 2.53339 0.263 0
M  V30 6194 H 637.572 3.1874 -1.27515 0
M  V30 6195 N 640.017 0.126909 1.57088 0
M  V30 6196 C 640.927 -0.833867 2.1928 0
M  V30 6197 C 641.943 -1.2868 1.17122 0
M  V30 6198 O 643.119 -1.34815 1.49622 0
M  V30 6199 C 640.184 -2.0632 2.78627 0
M  V30 6200 C 639.245 -1.66143 3.95847 0
M  V30 6201 C 638.478 -2.83217 4.52354 0
M  V30 6202 O 638.701 -3.98868 4.0775 0
M  V30 6203 O 637.635 -2.59846 5.42922 0
M  V30 6204 H 641.461 -0.334564 3.01852 0
M  V30 6205 H 639.046 -0.0991091 1.49071 0
M  V30 6206 H 640.928 -2.78304 3.16425 0
M  V30 6207 H 639.603 -2.55242 1.99082 0
M  V30 6208 H 638.51 -0.912435 3.62802 0
M  V30 6209 H 639.843 -1.21957 4.76852 0
M  V30 6210 N 641.495 -1.56914 -0.146875 0
M  V30 6211 C 642.906 -1.72799 -0.706928 0
M  V30 6212 C 643.257 -0.741329 -1.81656 0
M  V30 6213 O 642.382 0.0920162 -2.16204 0
M  V30 6214 C 642.977 -3.13317 -1.28911 0
M  V30 6215 C 641.536 -3.30803 -1.79573 0
M  V30 6216 C 640.683 -2.68725 -0.684252 0
M  V30 6217 H 643.634 -1.58504 0.0787931 0
M  V30 6218 H 643.655 -3.13323 -2.15891 0
M  V30 6219 H 643.167 -3.85104 -0.481284 0
M  V30 6220 H 641.268 -2.64012 -2.62923 0
M  V30 6221 H 641.381 -4.38754 -1.92436 0
M  V30 6222 H 639.745 -2.29196 -1.11091 0
M  V30 6223 H 640.528 -3.43117 0.112134 0
M  V30 6224 N 642.974 0.416227 -1.52004 0
M  V30 6225 C 644.385 0.995319 -1.57957 0
M  V30 6226 C 644.736 1.91744 -0.415754 0
M  V30 6227 O 643.861 2.11349 0.464808 0
M  V30 6228 C 644.456 1.81191 -2.86278 0
M  V30 6229 C 643.015 2.34115 -2.94732 0
M  V30 6230 C 642.162 1.139 -2.52828 0
M  V30 6231 H 645.113 0.196716 -1.57476 0
M  V30 6232 H 645.134 2.66859 -2.71231 0
M  V30 6233 H 644.646 1.14051 -3.70963 0
M  V30 6234 H 642.747 3.04647 -2.14525 0
M  V30 6235 H 642.86 2.65466 -3.98829 0
M  V30 6236 H 641.224 1.49081 -2.06511 0
M  V30 6237 H 642.007 0.483383 -3.3988 0
M  V30 6238 N 644.452 1.42507 0.673017 0
M  V30 6239 C 645.677 1.4668 1.46627 0
M  V30 6240 C 646.102 0.080066 1.8793 0
M  V30 6241 O 645.46 -0.921879 1.56112 0
M  V30 6242 C 645.508 2.40091 2.69051 0
M  V30 6243 O 644.612 1.8735 3.67387 0
M  V30 6244 H 643.953 0.496908 0.44043 0
M  V30 6245 H 646.483 1.87215 0.825334 0
M  V30 6246 H 646.493 2.56731 3.17101 0
M  V30 6247 H 645.168 3.4084 2.3833 0
M  V30 6248 H 643.745 1.80274 3.26429 0
M  V30 6249 N 645.93 -0.909495 1.28709 0
M  V30 6250 C 647.155 -1.69801 1.1909 0
M  V30 6251 C 647.58 -1.86479 -0.246388 0
M  V30 6252 O 646.938 -1.37802 -1.17815 0
M  V30 6253 C 646.986 -3.06543 1.89904 0
M  V30 6254 O 646.09 -3.94268 1.2094 0
M  V30 6255 H 645.431 -0.519783 0.413185 0
M  V30 6256 H 647.961 -1.13689 1.70106 0
M  V30 6257 H 647.971 -3.56748 1.97977 0
M  V30 6258 H 646.646 -2.93722 2.94449 0
M  V30 6259 H 645.223 -3.52702 1.2106 0
M  V30 6260 N 647.408 -1.11026 -1.11852 0
M  V30 6261 C 648.819 -0.873203 -1.65021 0
M  V30 6262 C 649.17 0.595364 -1.86949 0
M  V30 6263 O 648.295 1.45645 -1.60051 0
M  V30 6264 C 648.89 -1.57859 -2.99777 0
M  V30 6265 C 647.449 -1.38807 -3.49871 0
M  V30 6266 C 646.596 -1.62403 -2.24768 0
M  V30 6267 H 649.547 -1.26712 -0.955503 0
M  V30 6268 H 649.568 -1.02111 -3.66543 0
M  V30 6269 H 649.08 -2.6474 -2.83786 0
M  V30 6270 H 647.181 -0.341163 -3.71035 0
M  V30 6271 H 647.294 -2.13421 -4.28938 0
M  V30 6272 H 645.658 -1.04714 -2.32179 0
M  V30 6273 H 646.441 -2.70549 -2.11324 0
M  V30 6274 N 648.886 1.2938 -0.899927 0
M  V30 6275 C 649.833 2.27713 -0.376243 0
M  V30 6276 C 650.803 1.57016 0.541774 0
M  V30 6277 O 651.988 1.84997 0.466966 0
M  V30 6278 C 649.128 3.42889 0.39 0
M  V30 6279 C 648.241 4.28369 -0.558938 0
M  V30 6280 C 647.376 5.30726 0.224379 0
M  V30 6281 C 646.415 6.07862 -0.719068 0
M  V30 6282 N 645.552 7.02094 0.0298569 0
M  V30 6283 H 650.392 2.71888 -1.21988 0
M  V30 6284 H 647.929 1.33724 -0.612879 0
M  V30 6285 H 649.887 4.08443 0.850314 0
M  V30 6286 H 648.517 2.99743 1.19809 0
M  V30 6287 H 647.569 3.62986 -1.13777 0
M  V30 6288 H 648.881 4.82068 -1.2811 0
M  V30 6289 H 648.035 6.02098 0.745881 0
M  V30 6290 H 646.774 4.77759 0.979674 0
M  V30 6291 H 645.779 5.35353 -1.25207 0
M  V30 6292 H 647.004 6.62917 -1.4737 0
M  V30 6293 H 644.95 6.51496 0.767415 0
M  V30 6294 H 644.867 7.5335 -0.632391 0
M  V30 6295 H 646.135 7.77685 0.531615 0
M  V30 6296 N 650.364 0.662433 1.43002 0
M  V30 6297 C 651.594 0.187343 2.05749 0
M  V30 6298 C 652.002 -1.15582 1.49791 0
M  V30 6299 O 651.345 -1.72651 0.627487 0
M  V30 6300 C 651.407 0.0316493 3.59486 0
M  V30 6301 C 651.071 1.30156 4.38073 0
M  V30 6302 C 652.068 2.23234 4.69535 0
M  V30 6303 C 649.753 1.54572 4.77926 0
M  V30 6304 C 651.747 3.39012 5.39768 0
M  V30 6305 C 649.434 2.70641 5.47902 0
M  V30 6306 C 650.432 3.62687 5.78746 0
M  V30 6307 O 650.12 4.76728 6.47291 0
M  V30 6308 H 649.852 0.0915214 0.669776 0
M  V30 6309 H 652.406 0.905982 1.8434 0
M  V30 6310 H 650.636 -0.742451 3.79506 0
M  V30 6311 H 652.325 -0.401977 4.03905 0
M  V30 6312 H 653.091 2.05616 4.39257 0
M  V30 6313 H 648.97 0.83804 4.53319 0
M  V30 6314 H 652.514 4.10877 5.63761 0
M  V30 6315 H 648.411 2.88189 5.77596 0
M  V30 6316 H 649.179 4.76113 6.65777 0
M  V30 6317 N 651.842 -1.52309 0.404946 0
M  V30 6318 C 653.088 -2.02065 -0.172455 0
M  V30 6319 C 653.421 -1.29022 -1.45145 0
M  V30 6320 O 652.696 -0.395284 -1.90441 0
M  V30 6321 C 652.979 -3.5759 -0.424433 0
M  V30 6322 C 652.832 -4.41287 0.870945 0
M  V30 6323 C 654.151 -4.23186 -1.20837 0
M  V30 6324 H 651.27 -0.734454 -0.0612035 0
M  V30 6325 H 653.912 -1.82236 0.53759 0
M  V30 6326 H 652.062 -3.74617 -1.02929 0
M  V30 6327 H 653.734 -4.3598 1.50729 0
M  V30 6328 H 651.977 -4.07669 1.48284 0
M  V30 6329 H 652.648 -5.48171 0.649083 0
M  V30 6330 H 655.124 -4.10232 -0.696338 0
M  V30 6331 H 654 -5.31953 -1.35343 0
M  V30 6332 H 654.261 -3.81862 -2.22786 0
M  V30 6333 N 653.32 -0.135238 -1.57019 0
M  V30 6334 C 654.545 0.529343 -2.00531 0
M  V30 6335 C 654.97 1.58391 -1.01459 0
M  V30 6336 O 654.328 1.81296 0.0113986 0
M  V30 6337 C 654.376 1.11748 -3.42848 0
M  V30 6338 O 653.48 2.23267 -3.46736 0
M  V30 6339 H 652.821 0.130669 -0.651016 0
M  V30 6340 H 655.351 -0.228503 -2.0332 0
M  V30 6341 H 655.361 1.44905 -3.81401 0
M  V30 6342 H 654.036 0.345147 -4.14465 0
M  V30 6343 H 652.613 1.91428 -3.20015 0
M  V30 6344 N 654.798 1.5699 0.138552 0
M  V30 6345 C 656.023 1.88344 0.86841 0
M  V30 6346 C 656.448 0.725159 1.7356 0
M  V30 6347 O 655.806 -0.324992 1.78363 0
M  V30 6348 C 655.854 3.18334 1.69398 0
M  V30 6349 O 654.958 3.02863 2.79907 0
M  V30 6350 H 654.299 0.618577 0.241367 0
M  V30 6351 H 656.829 2.04207 0.126826 0
M  V30 6352 H 656.839 3.50567 2.08726 0
M  V30 6353 H 655.514 4.02238 1.05725 0
M  V30 6354 H 654.091 2.82056 2.43924 0
M  V30 6355 N 656.276 -0.40816 1.52223 0
M  V30 6356 C 657.522 -1.15673 1.66576 0
M  V30 6357 C 657.855 -1.90141 0.394996 0
M  V30 6358 O 657.13 -1.84798 -0.606613 0
M  V30 6359 C 657.413 -2.15042 2.88841 0
M  V30 6360 C 657.266 -1.44465 4.25969 0
M  V30 6361 C 658.585 -3.15699 3.0663 0
M  V30 6362 H 655.704 -0.41916 0.606196 0
M  V30 6363 H 658.346 -0.442348 1.84779 0
M  V30 6364 H 656.496 -2.75964 2.73452 0
M  V30 6365 H 658.168 -0.866544 4.53088 0
M  V30 6366 H 656.411 -0.746612 4.27327 0
M  V30 6367 H 657.082 -2.16976 5.07568 0
M  V30 6368 H 659.558 -2.64854 3.20923 0
M  V30 6369 H 658.434 -3.82491 3.9369 0
M  V30 6370 H 658.695 -3.83481 2.19987 0
M  V30 6371 N 657.755 -1.42862 -0.66545 0
M  V30 6372 C 658.983 -1.47246 -1.45349 0
M  V30 6373 C 659.398 -0.0865944 -1.88601 0
M  V30 6374 O 658.755 0.900652 -1.58728 0
M  V30 6375 C 658.806 -2.40772 -2.6965 0
M  V30 6376 O 658.527 -3.73968 -2.2821 0
M  V30 6377 C 660.028 -2.54272 -3.63126 0
M  V30 6378 H 657.248 -0.500497 -0.446927 0
M  V30 6379 H 659.792 -1.87477 -0.816871 0
M  V30 6380 H 657.947 -2.0377 -3.29479 0
M  V30 6381 H 658.361 -4.24146 -3.08546 0
M  V30 6382 H 659.835 -3.23815 -4.47043 0
M  V30 6383 H 660.312 -1.58364 -4.09656 0
M  V30 6384 H 660.918 -2.92036 -3.09185 0
M  V30 6385 N 659.233 0.902656 -1.29189 0
M  V30 6386 C 660.458 1.69167 -1.19989 0
M  V30 6387 C 660.883 1.86607 0.236495 0
M  V30 6388 O 660.241 1.38425 1.17082 0
M  V30 6389 C 660.289 3.05532 -1.91527 0
M  V30 6390 O 659.393 3.93621 -1.2303 0
M  V30 6391 H 658.734 0.517584 -0.415936 0
M  V30 6392 H 661.264 1.12785 -1.70706 0
M  V30 6393 H 661.274 3.55693 -1.99866 0
M  V30 6394 H 659.949 2.92156 -2.96003 0
M  V30 6395 H 658.526 3.52055 -1.22928 0
M  V30 6396 N 660.711 1.11618 1.11262 0
M  V30 6397 C 662.127 0.850468 1.35053 0
M  V30 6398 C 662.327 -0.523868 1.94571 0
M  V30 6399 O 661.383 -1.2743 2.17986 0
M  V30 6400 C 662.696 1.96005 2.28041 0
M  V30 6401 C 664.244 1.98993 2.416 0
M  V30 6402 C 664.719 3.0916 3.37911 0
M  V30 6403 N 666.21 3.08547 3.45475 0
M  V30 6404 C 666.945 3.9043 4.19943 0
M  V30 6405 N 666.441 4.8228 4.97371 0
M  V30 6406 N 668.234 3.786 4.15474 0
M  V30 6407 H 660.385 2.00184 0.709932 0
M  V30 6408 H 662.648 0.870635 0.375099 0
M  V30 6409 H 662.354 2.9499 1.91503 0
M  V30 6410 H 662.228 1.85782 3.28275 0
M  V30 6411 H 664.615 1.00633 2.77411 0
M  V30 6412 H 664.696 2.13292 1.4121 0
M  V30 6413 H 664.34 4.07748 3.02827 0
M  V30 6414 H 664.27 2.92102 4.3816 0
M  V30 6415 H 666.761 2.42 2.90249 0
M  V30 6416 H 667.074 5.41289 5.51567 0
M  V30 6417 H 665.419 4.863 4.96525 0
M  V30 6418 H 668.61 3.06185 3.54074 0
M  V30 6419 H 668.783 4.42647 4.73253 0
M  V30 6420 N 662.189 -1.289 0.906776 0
M  V30 6421 C 663.417 -1.99401 0.551969 0
M  V30 6422 C 663.832 -1.67816 -0.865048 0
M  V30 6423 O 663.189 -0.927078 -1.57199 0
M  V30 6424 C 663.24 -3.53779 0.743152 0
M  V30 6425 O 662.961 -3.84248 2.1044 0
M  V30 6426 C 664.462 -4.41543 0.39424 0
M  V30 6427 H 661.682 -0.636926 0.211106 0
M  V30 6428 H 664.226 -1.64266 1.21807 0
M  V30 6429 H 662.381 -3.87201 0.124143 0
M  V30 6430 H 662.795 -4.78904 2.13895 0
M  V30 6431 H 664.269 -5.48957 0.578814 0
M  V30 6432 H 664.746 -4.34073 -0.669137 0
M  V30 6433 H 665.352 -4.13605 0.990491 0
M  V30 6434 N 663.667 -0.670007 -1.42649 0
M  V30 6435 C 664.915 -0.18991 -2.01206 0
M  V30 6436 C 665.236 1.20617 -1.53221 0
M  V30 6437 O 664.506 1.80898 -0.751856 0
M  V30 6438 H 663.086 -0.0672189 -0.743969 0
M  V30 6439 H 665.748 -0.865442 -1.74631 0
M  V30 6440 H 664.844 -0.187481 -3.11536 0
M  V30 6441 N 665.145 1.52092 -0.413018 0
M  V30 6442 C 666.37 2.06756 0.163338 0
M  V30 6443 C 666.795 1.28073 1.37764 0
M  V30 6444 O 666.153 0.312015 1.78595 0
M  V30 6445 C 666.201 3.57278 0.488322 0
M  V30 6446 O 665.305 3.80986 1.57871 0
M  V30 6447 H 664.646 0.663882 0.0125068 0
M  V30 6448 H 667.176 1.95988 -0.587339 0
M  V30 6449 H 667.186 4.01125 0.745836 0
M  V30 6450 H 665.861 4.13978 -0.399327 0
M  V30 6451 H 664.438 3.49017 1.31306 0
M  V30 6452 N 666.623 0.143563 1.56945 0
M  V30 6453 C 667.848 -0.518701 2.00809 0
M  V30 6454 C 668.273 -1.5785 1.02298 0
M  V30 6455 O 667.631 -1.813 -0.0017839 0
M  V30 6456 C 667.679 -1.09929 3.43436 0
M  V30 6457 O 666.783 -2.21425 3.47915 0
M  V30 6458 H 666.124 -0.127215 0.6517 0
M  V30 6459 H 668.654 0.239283 2.03196 0
M  V30 6460 H 668.664 -1.4288 3.82164 0
M  V30 6461 H 667.339 -0.323162 4.14643 0
M  V30 6462 H 665.916 -1.89728 3.21026 0
M  V30 6463 N 668.101 -1.57061 -0.130224 0
M  V30 6464 C 669.349 -1.83893 -0.838313 0
M  V30 6465 C 669.67 -0.727046 -1.80939 0
M  V30 6466 O 668.94 0.249927 -1.94299 0
M  V30 6467 H 667.52 -0.67846 -0.312573 0
M  V30 6468 H 670.182 -1.94529 -0.120224 0
M  V30 6469 H 669.278 -2.79419 -1.39038 0
M  V30 6470 N 669.579 0.400081 -1.52437 0
M  V30 6471 C 670.542 1.4707 -1.75793 0
M  V30 6472 C 671.542 1.48036 -0.627856 0
M  V30 6473 O 672.732 1.49401 -0.895817 0
M  V30 6474 C 669.864 2.86427 -1.84858 0
M  V30 6475 H 671.057 1.27649 -2.71377 0
M  V30 6476 H 668.61 0.631141 -1.42991 0
M  V30 6477 H 669.345 3.11207 -0.912194 0
M  V30 6478 H 669.13 2.87128 -2.6702 0
M  V30 6479 H 670.62 3.64023 -2.04638 0
M  V30 6480 N 671.057 1.43213 0.657864 0
M  V30 6481 C 672.004 1.48011 1.77092 0
M  V30 6482 C 672.974 0.330291 1.62783 0
M  V30 6483 O 674.159 0.536787 1.83094 0
M  V30 6484 C 671.299 1.40461 3.15222 0
M  V30 6485 C 670.412 2.65612 3.40697 0
M  V30 6486 C 669.547 2.50083 4.68649 0
M  V30 6487 C 668.586 3.70525 4.87214 0
M  V30 6488 N 667.723 3.53835 6.0642 0
M  V30 6489 H 672.563 2.43121 1.72326 0
M  V30 6490 H 670.1 1.20687 0.841013 0
M  V30 6491 H 672.058 1.34079 3.95068 0
M  V30 6492 H 670.688 0.489359 3.19069 0
M  V30 6493 H 669.74 2.82292 2.54982 0
M  V30 6494 H 671.052 3.5509 3.50303 0
M  V30 6495 H 670.206 2.41383 5.56614 0
M  V30 6496 H 668.945 1.58121 4.61356 0
M  V30 6497 H 667.95 3.79639 3.97686 0
M  V30 6498 H 669.175 4.63489 4.96341 0
M  V30 6499 H 667.121 2.64604 6.00267 0
M  V30 6500 H 667.038 4.36912 6.16963 0
M  V30 6501 H 668.306 3.48978 6.97019 0
M  V30 6502 N 672.536 -0.895792 1.29666 0
M  V30 6503 C 673.446 -2.03329 1.17024 0
M  V30 6504 C 674.462 -1.73753 0.0925962 0
M  V30 6505 O 675.638 -1.99071 0.305431 0
M  V30 6506 C 672.703 -3.36072 0.851841 0
M  V30 6507 C 671.764 -3.7914 2.01373 0
M  V30 6508 C 670.997 -5.05549 1.71043 0
M  V30 6509 O 671.22 -5.66874 0.633213 0
M  V30 6510 O 670.154 -5.44764 2.5596 0
M  V30 6511 H 673.98 -2.16918 2.12556 0
M  V30 6512 H 671.565 -1.02007 1.09156 0
M  V30 6513 H 673.447 -4.15729 0.689006 0
M  V30 6514 H 672.122 -3.23616 -0.0736634 0
M  V30 6515 H 671.029 -3.00233 2.23183 0
M  V30 6516 H 672.362 -3.96186 2.92058 0
M  V30 6517 N 674.014 -1.12206 -1.10668 0
M  V30 6518 C 674.947 -0.731468 -2.16159 0
M  V30 6519 C 675.925 0.276216 -1.60237 0
M  V30 6520 O 677.109 0.17074 -1.87725 0
M  V30 6521 C 674.236 -0.0822882 -3.386 0
M  V30 6522 C 673.282 -1.05641 -4.1321 0
M  V30 6523 S 674.115 -2.58281 -4.69096 0
M  V30 6524 C 675.271 -1.94686 -5.94851 0
M  V30 6525 H 675.504 -1.62504 -2.48957 0
M  V30 6526 H 673.037 -0.940906 -1.22419 0
M  V30 6527 H 674.995 0.285896 -4.09503 0
M  V30 6528 H 673.656 0.788358 -3.04046 0
M  V30 6529 H 672.849 -0.549764 -5.00993 0
M  V30 6530 H 672.451 -1.36741 -3.48106 0
M  V30 6531 H 674.743 -1.28815 -6.65141 0
M  V30 6532 H 675.686 -2.80499 -6.50174 0
M  V30 6533 H 676.094 -1.40369 -5.46769 0
M  V30 6534 N 675.492 1.28418 -0.913599 0
M  V30 6535 C 676.439 2.27301 -0.400373 0
M  V30 6536 C 677.409 1.57582 0.52509 0
M  V30 6537 O 678.594 1.85482 0.447318 0
M  V30 6538 C 675.734 3.43284 0.35361 0
M  V30 6539 C 674.847 4.27752 -0.604341 0
M  V30 6540 C 673.982 5.30934 0.168075 0
M  V30 6541 C 673.021 6.07065 -0.783499 0
M  V30 6542 N 672.158 7.02086 -0.0446112 0
M  V30 6543 H 676.998 2.70579 -1.24865 0
M  V30 6544 H 674.535 1.33067 -0.627028 0
M  V30 6545 H 676.493 4.09322 0.806945 0
M  V30 6546 H 675.123 3.00997 1.16623 0
M  V30 6547 H 674.175 3.61759 -1.17621 0
M  V30 6548 H 675.487 4.80682 -1.33216 0
M  V30 6549 H 674.641 6.02855 0.681979 0
M  V30 6550 H 673.38 4.78771 0.928947 0
M  V30 6551 H 672.385 5.33995 -1.30878 0
M  V30 6552 H 673.61 6.61317 -1.54392 0
M  V30 6553 H 671.556 6.52273 0.698272 0
M  V30 6554 H 671.473 7.52637 -0.712258 0
M  V30 6555 H 672.741 7.78205 0.449102 0
M  V30 6556 N 676.97 0.677563 1.42291 0
M  V30 6557 C 677.9 0.014968 2.33495 0
M  V30 6558 C 678.881 -0.786376 1.50831 0
M  V30 6559 O 680.066 -0.742975 1.79426 0
M  V30 6560 C 677.196 -0.935023 3.34477 0
M  V30 6561 C 676.15 -0.242074 4.27315 0
M  V30 6562 C 675.476 -1.30519 5.18526 0
M  V30 6563 C 676.776 0.880604 5.14823 0
M  V30 6564 H 678.47 0.776671 2.89151 0
M  V30 6565 H 676.016 0.37494 1.39033 0
M  V30 6566 H 677.969 -1.40766 3.97194 0
M  V30 6567 H 676.693 -1.72818 2.77131 0
M  V30 6568 H 675.352 0.210351 3.65996 0
M  V30 6569 H 675 -2.09041 4.57505 0
M  V30 6570 H 674.7 -0.846652 5.81468 0
M  V30 6571 H 676.224 -1.7787 5.84119 0
M  V30 6572 H 677.638 0.489062 5.7121 0
M  V30 6573 H 676.035 1.26511 5.86613 0
M  V30 6574 H 677.105 1.72818 4.53059 0
M  V30 6575 N 678.448 -1.51871 0.421078 0
M  V30 6576 C 679.395 -2.27334 -0.398508 0
M  V30 6577 C 680.365 -1.30241 -1.03085 0
M  V30 6578 O 681.55 -1.59121 -1.05285 0
M  V30 6579 C 678.69 -3.10664 -1.50272 0
M  V30 6580 C 677.803 -4.2273 -0.890122 0
M  V30 6581 C 676.938 -4.93399 -1.96803 0
M  V30 6582 C 675.977 -5.97409 -1.333 0
M  V30 6583 N 675.114 -6.61548 -2.35156 0
M  V30 6584 H 679.954 -2.96938 0.251411 0
M  V30 6585 H 677.491 -1.46472 0.135825 0
M  V30 6586 H 679.449 -3.57292 -2.15403 0
M  V30 6587 H 678.079 -2.43207 -2.1225 0
M  V30 6588 H 677.131 -3.80186 -0.127537 0
M  V30 6589 H 678.443 -4.97302 -0.386349 0
M  V30 6590 H 677.597 -5.43491 -2.69633 0
M  V30 6591 H 676.336 -4.18421 -2.50549 0
M  V30 6592 H 675.341 -5.46624 -0.59008 0
M  V30 6593 H 676.566 -6.74335 -0.803076 0
M  V30 6594 H 674.512 -5.89394 -2.88012 0
M  V30 6595 H 674.429 -7.31832 -1.89624 0
M  V30 6596 H 675.697 -7.16276 -3.0752 0
M  V30 6597 N 679.926 -0.151884 -1.56866 0
M  V30 6598 C 681.174 0.497021 -1.95893 0
M  V30 6599 C 681.495 1.65078 -1.03799 0
M  V30 6600 O 680.765 1.95642 -0.10049 0
M  V30 6601 H 679.345 0.186603 -0.723318 0
M  V30 6602 H 682.007 -0.228525 -1.93556 0
M  V30 6603 H 681.103 0.869933 -2.99731 0
M  V30 6604 N 681.404 1.57128 0.121893 0
M  V30 6605 C 682.367 1.99197 1.13372 0
M  V30 6606 C 683.367 0.881728 1.3447 0
M  V30 6607 O 684.557 1.14783 1.31036 0
M  V30 6608 C 681.689 2.32963 2.4888 0
M  V30 6609 H 682.882 2.89788 0.772204 0
M  V30 6610 H 680.435 1.51952 0.366093 0
M  V30 6611 H 681.17 1.45243 2.89957 0
M  V30 6612 H 680.955 3.13934 2.34921 0
M  V30 6613 H 682.445 2.66261 3.21706 0
M  V30 6614 N 682.882 -0.391992 1.52647 0
M  V30 6615 C 684.159 -1.15136 1.58123 0
M  V30 6616 C 684.539 -2.07786 0.372597 0
M  V30 6617 O 683.887 -2.19374 -0.639304 0
M  V30 6618 C 684.097 -1.91367 2.91856 0
M  V30 6619 C 685.445 -2.46833 3.45483 0
M  V30 6620 O 686.469 -2.01527 2.9371 0
M  V30 6621 O 685.328 -3.29587 4.3593 0
M  V30 6622 H 682.422 -0.526649 0.637629 0
M  V30 6623 H 684.968 -0.397386 1.64982 0
M  V30 6624 H 683.74 -1.23597 3.71268 0
M  V30 6625 H 683.363 -2.73732 2.88369 0
M  V30 6626 N 684.36 -1.4356 -0.65026 0
M  V30 6627 C 685.608 -1.45046 -1.40734 0
M  V30 6628 C 685.929 -0.0769822 -1.94848 0
M  V30 6629 O 685.199 0.888098 -1.74613 0
M  V30 6630 H 683.779 -0.534034 -0.522318 0
M  V30 6631 H 686.441 -1.79186 -0.766703 0
M  V30 6632 H 685.537 -2.16476 -2.24822 0
M  V30 6633 N 685.838 0.888903 -1.30139 0
M  V30 6634 C 686.785 1.99422 -1.16188 0
M  V30 6635 C 687.755 1.66017 -0.0523869 0
M  V30 6636 O 688.94 1.89506 -0.221864 0
M  V30 6637 C 686.08 3.34325 -0.855612 0
M  V30 6638 C 685.193 3.80445 -2.0466 0
M  V30 6639 C 684.328 5.03975 -1.67876 0
M  V30 6640 C 683.367 5.42492 -2.83493 0
M  V30 6641 N 682.504 6.57206 -2.47032 0
M  V30 6642 H 687.344 2.10687 -2.10749 0
M  V30 6643 H 684.881 1.03165 -1.04859 0
M  V30 6644 H 686.839 4.11968 -0.658681 0
M  V30 6645 H 685.469 3.22756 0.0531155 0
M  V30 6646 H 684.521 2.98745 -2.3549 0
M  V30 6647 H 685.833 4.04933 -2.91257 0
M  V30 6648 H 684.987 5.89232 -1.44535 0
M  V30 6649 H 683.726 4.8135 -0.784431 0
M  V30 6650 H 682.731 4.55764 -3.07505 0
M  V30 6651 H 683.956 5.67093 -3.73607 0
M  V30 6652 H 681.902 6.36164 -1.601 0
M  V30 6653 H 681.819 6.81543 -3.27161 0
M  V30 6654 H 683.087 7.45704 -2.27038 0
M  V30 6655 N 687.317 1.12792 1.10072 0
M  V30 6656 C 688.545 0.908506 1.85886 0
M  V30 6657 C 688.96 -0.542408 1.80841 0
M  V30 6658 O 688.317 -1.37517 1.1998 0
M  V30 6659 C 688.368 1.37973 3.34134 0
M  V30 6660 O 688.089 2.77378 3.39106 0
M  V30 6661 C 689.59 1.1978 4.26811 0
M  V30 6662 H 686.81 0.3244 0.587372 0
M  V30 6663 H 689.354 1.49882 1.39125 0
M  V30 6664 H 687.509 0.832566 3.78348 0
M  V30 6665 H 687.923 2.98144 4.31521 0
M  V30 6666 H 689.397 1.57635 5.29014 0
M  V30 6667 H 689.874 0.138768 4.38981 0
M  V30 6668 H 690.48 1.73266 3.88406 0
M  V30 6669 N 688.795 -1.27931 0.920396 0
M  V30 6670 C 689.742 -2.27085 0.412422 0
M  V30 6671 C 690.712 -1.57858 -0.516725 0
M  V30 6672 O 691.897 -1.85717 -0.437475 0
M  V30 6673 C 689.037 -3.43466 -0.335399 0
M  V30 6674 C 688.15 -4.27425 0.627017 0
M  V30 6675 C 687.285 -5.31016 -0.139916 0
M  V30 6676 C 686.324 -6.06641 0.815683 0
M  V30 6677 N 685.461 -7.02052 0.0818439 0
M  V30 6678 H 690.301 -2.69913 1.26298 0
M  V30 6679 H 687.838 -1.32732 0.634076 0
M  V30 6680 H 689.796 -4.09744 -0.785226 0
M  V30 6681 H 688.426 -3.01611 -1.15025 0
M  V30 6682 H 687.478 -3.6113 1.19537 0
M  V30 6683 H 688.79 -4.79969 1.35763 0
M  V30 6684 H 687.944 -6.03208 -0.649998 0
M  V30 6685 H 686.683 -4.79257 -0.903543 0
M  V30 6686 H 685.688 -5.33294 1.33708 0
M  V30 6687 H 686.913 -6.60489 1.57897 0
M  V30 6688 H 684.859 -6.52634 -0.663671 0
M  V30 6689 H 684.776 -7.52249 0.752163 0
M  V30 6690 H 686.044 -7.78432 -0.407825 0
M  V30 6691 N 690.273 -0.685099 -1.4193 0
M  V30 6692 C 691.522 -0.208816 -2.00616 0
M  V30 6693 C 691.835 1.19506 -1.54847 0
M  V30 6694 O 693.041 1.76826 -2.06021 0
M  V30 6695 C 691.497 -0.322446 -3.58453 0
M  V30 6696 C 691.105 -1.73102 -4.13206 0
M  V30 6697 C 692.849 0.0945979 -4.24395 0
M  V30 6698 C 690.756 -1.79687 -5.63442 0
M  V30 6699 H 689.686 -0.0743092 -0.750329 0
M  V30 6700 H 692.337 -0.851778 -1.62533 0
M  V30 6701 H 690.719 0.388588 -3.94089 0
M  V30 6702 H 691.893 -2.46997 -3.8901 0
M  V30 6703 H 690.208 -2.09682 -3.59753 0
M  V30 6704 H 692.805 0.0656937 -5.3466 0
M  V30 6705 H 693.148 1.1316 -4.00625 0
M  V30 6706 H 693.681 -0.56579 -3.93756 0
M  V30 6707 H 690.42 -2.81404 -5.92024 0
M  V30 6708 H 689.94 -1.10162 -5.89597 0
M  V30 6709 H 691.619 -1.55498 -6.28036 0
M  V30 6710 N 691.751 1.51645 -0.429126 0
M  V30 6711 C 692.714 2.26116 0.374726 0
M  V30 6712 C 693.714 1.29242 0.956714 0
M  V30 6713 O 694.904 1.53022 0.832452 0
M  V30 6714 C 692.036 3.04669 1.52937 0
M  V30 6715 H 693.229 2.9861 -0.277818 0
M  V30 6716 H 690.782 1.55236 -0.182097 0
M  V30 6717 H 691.517 2.36571 2.21821 0
M  V30 6718 H 691.302 3.75814 1.11833 0
M  V30 6719 H 692.792 3.61102 2.09751 0
M  V30 6720 N 693.229 0.160201 1.56784 0
M  V30 6721 C 694.457 -0.494165 2.00912 0
M  V30 6722 C 694.872 -1.57548 1.04038 0
M  V30 6723 O 694.229 -1.82457 0.0394581 0
M  V30 6724 C 694.28 -1.08271 3.44905 0
M  V30 6725 O 694.001 -0.0445704 4.38077 0
M  V30 6726 C 695.502 -1.8164 4.04378 0
M  V30 6727 H 692.722 -0.127498 0.658776 0
M  V30 6728 H 695.266 0.258665 2.02858 0
M  V30 6729 H 693.421 -1.78609 3.4377 0
M  V30 6730 H 693.835 -0.477544 5.22322 0
M  V30 6731 H 695.309 -2.18094 5.07089 0
M  V30 6732 H 695.786 -2.70727 3.45838 0
M  V30 6733 H 696.392 -1.15969 4.09184 0
M  V30 6734 N 694.707 -1.5719 -0.113559 0
M  V30 6735 C 696.118 -1.74259 -0.670116 0
M  V30 6736 C 696.469 -0.779694 -1.80042 0
M  V30 6737 O 695.594 0.0461353 -2.16351 0
M  V30 6738 C 696.189 -3.15981 -1.22236 0
M  V30 6739 C 694.748 -3.34537 -1.72516 0
M  V30 6740 C 693.895 -2.70116 -0.627098 0
M  V30 6741 H 696.846 -1.58301 0.112396 0
M  V30 6742 H 696.867 -3.17832 -2.09197 0
M  V30 6743 H 696.379 -3.86038 -0.39949 0
M  V30 6744 H 694.48 -2.6953 -2.57263 0
M  V30 6745 H 694.593 -4.42737 -1.83086 0
M  V30 6746 H 692.957 -2.31501 -1.06204 0
M  V30 6747 H 693.74 -3.42802 0.184889 0
M  V30 6748 N 696.185 0.383891 -1.52853 0
M  V30 6749 C 697.601 0.724316 -1.42218 0
M  V30 6750 C 697.801 1.93943 -0.546654 0
M  V30 6751 O 696.857 2.5249 -0.0220562 0
M  V30 6752 C 698.17 0.954635 -2.85144 0
M  V30 6753 C 699.718 1.05579 -2.94656 0
M  V30 6754 C 700.193 1.3187 -4.38605 0
M  V30 6755 N 701.684 1.38681 -4.41952 0
M  V30 6756 C 702.419 1.60699 -5.50421 0
M  V30 6757 N 701.915 1.80154 -6.68967 0
M  V30 6758 N 703.708 1.6292 -5.37972 0
M  V30 6759 H 695.859 -0.4156 -2.08294 0
M  V30 6760 H 698.122 -0.123776 -0.939885 0
M  V30 6761 H 697.828 0.133829 -3.51445 0
M  V30 6762 H 697.702 1.86788 -3.27704 0
M  V30 6763 H 700.089 1.86716 -2.2852 0
M  V30 6764 H 700.17 0.120338 -2.55517 0
M  V30 6765 H 699.814 0.512416 -5.05309 0
M  V30 6766 H 699.744 2.26708 -4.75301 0
M  V30 6767 H 702.235 1.25334 -3.56511 0
M  V30 6768 H 702.548 1.96476 -7.47407 0
M  V30 6769 H 700.893 1.77368 -6.71986 0
M  V30 6770 H 704.084 1.47276 -4.44328 0
M  V30 6771 H 704.257 1.79739 -6.22574 0
M  V30 6772 N 697.663 1.43903 0.642637 0
M  V30 6773 C 698.911 1.45791 1.39962 0
M  V30 6774 C 699.232 0.0873144 1.94804 0
M  V30 6775 O 698.502 -0.878825 1.75081 0
M  V30 6776 H 697.082 0.536797 0.519479 0
M  V30 6777 H 699.744 1.7959 0.757189 0
M  V30 6778 H 698.84 2.17665 2.2367 0
M  V30 6779 N 699.141 -0.881989 1.30609 0
M  V30 6780 C 700.104 -1.96957 1.1722 0
M  V30 6781 C 701.104 -1.60472 0.102598 0
M  V30 6782 O 702.294 -1.70628 0.350943 0
M  V30 6783 C 699.426 -3.31463 0.796572 0
M  V30 6784 H 700.619 -2.10262 2.13846 0
M  V30 6785 H 698.172 -1.06877 1.14048 0
M  V30 6786 H 698.907 -3.23859 -0.169053 0
M  V30 6787 H 698.692 -3.59314 1.56959 0
M  V30 6788 H 700.182 -4.11233 0.72645 0
M  V30 6789 N 700.619 -1.13374 -1.09472 0
M  V30 6790 C 701.582 -0.813639 -2.14272 0
M  V30 6791 C 702.582 0.176677 -1.59826 0
M  V30 6792 O 703.772 -0.0503441 -1.74127 0
M  V30 6793 C 700.904 -0.210897 -3.40247 0
M  V30 6794 H 702.097 -1.74229 -2.44099 0
M  V30 6795 H 699.65 -0.938304 -1.25002 0
M  V30 6796 H 700.385 0.726998 -3.16046 0
M  V30 6797 H 700.17 -0.924048 -3.81056 0
M  V30 6798 H 701.66 -0.00377603 -4.176 0
M  V30 6799 N 702.098 1.27442 -0.927168 0
M  V30 6800 C 703.509 1.76385 -0.611979 0
M  V30 6801 C 703.86 1.75715 0.872853 0
M  V30 6802 O 702.985 1.3603 1.683 0
M  V30 6803 C 703.58 3.20303 -1.10414 0
M  V30 6804 C 702.139 3.66916 -0.839628 0
M  V30 6805 C 701.286 2.46859 -1.26317 0
M  V30 6806 H 704.237 1.13716 -1.107 0
M  V30 6807 H 704.258 3.77811 -0.451578 0
M  V30 6808 H 703.77 3.20759 -2.18484 0
M  V30 6809 H 701.871 3.71906 0.227292 0
M  V30 6810 H 701.984 4.56415 -1.45679 0
M  V30 6811 H 700.348 2.45407 -0.681723 0
M  V30 6812 H 701.131 2.50025 -2.3525 0
M  V30 6813 N 703.576 0.692616 1.41565 0
M  V30 6814 C 704.987 0.297478 1.84315 0
M  V30 6815 C 705.338 -1.16379 1.57957 0
M  V30 6816 O 704.463 -1.89303 1.0485 0
M  V30 6817 C 705.058 0.533136 3.34579 0
M  V30 6818 C 703.617 0.191944 3.7591 0
M  V30 6819 C 702.764 0.816873 2.64995 0
M  V30 6820 H 705.715 0.893488 1.31158 0
M  V30 6821 H 705.736 -0.209105 3.79925 0
M  V30 6822 H 705.248 1.59674 3.53731 0
M  V30 6823 H 703.349 -0.867512 3.6236 0
M  V30 6824 H 703.462 0.644902 4.7474 0
M  V30 6825 H 701.826 0.246715 2.53502 0
M  V30 6826 H 702.609 1.88429 2.86966 0
M  V30 6827 N 705.054 -1.51416 0.437162 0
M  V30 6828 C 706.302 -2.01687 -0.129108 0
M  V30 6829 C 706.623 -1.32329 -1.43227 0
M  V30 6830 O 705.893 -0.457796 -1.90476 0
M  V30 6831 H 704.473 -0.745277 -0.0507023 0
M  V30 6832 H 707.135 -1.86075 0.579828 0
M  V30 6833 H 706.231 -3.10605 -0.305141 0
M  V30 6834 N 706.532 -0.168513 -1.56696 0
M  V30 6835 C 707.464 0.794249 -2.14998 0
M  V30 6836 C 708.477 1.1957 -1.10485 0
M  V30 6837 O 709.666 1.13604 -1.37682 0
M  V30 6838 C 706.766 2.08018 -2.67547 0
M  V30 6839 C 705.939 1.84274 -3.96689 0
M  V30 6840 C 704.998 2.97059 -4.3433 0
M  V30 6841 O 704.024 2.67815 -5.02259 0
M  V30 6842 N 705.226 4.24775 -3.9566 0
M  V30 6843 H 707.991 0.295832 -2.98236 0
M  V30 6844 H 705.552 0.0143611 -1.61894 0
M  V30 6845 H 707.544 2.82559 -2.89729 0
M  V30 6846 H 706.114 2.49059 -1.88914 0
M  V30 6847 H 705.334 0.936528 -3.82914 0
M  V30 6848 H 706.622 1.65773 -4.81037 0
M  V30 6849 H 706.02 4.51395 -3.40968 0
M  V30 6850 H 704.577 4.96027 -4.22848 0
M  V30 6851 N 708.01 1.57248 0.105221 0
M  V30 6852 C 708.957 2.01338 1.12835 0
M  V30 6853 C 709.927 0.887897 1.40377 0
M  V30 6854 O 711.112 1.15315 1.5201 0
M  V30 6855 C 708.252 2.43432 2.44611 0
M  V30 6856 C 707.365 3.69457 2.23888 0
M  V30 6857 C 706.5 4.00473 3.48991 0
M  V30 6858 C 705.539 5.19638 3.23485 0
M  V30 6859 N 704.676 5.46457 4.40828 0
M  V30 6860 H 709.516 2.88527 0.745386 0
M  V30 6861 H 707.053 1.42714 0.356535 0
M  V30 6862 H 709.011 2.65879 3.21503 0
M  V30 6863 H 707.641 1.59266 2.80774 0
M  V30 6864 H 706.693 3.54545 1.37847 0
M  V30 6865 H 708.005 4.56497 2.01026 0
M  V30 6866 H 707.159 4.23642 4.34295 0
M  V30 6867 H 705.898 3.11935 3.74897 0
M  V30 6868 H 704.903 4.96299 2.36574 0
M  V30 6869 H 706.128 6.09766 2.98935 0
M  V30 6870 H 704.074 4.60876 4.66829 0
M  V30 6871 H 703.991 6.27849 4.2112 0
M  V30 6872 H 705.259 5.74155 5.27225 0
M  V30 6873 N 709.488 -0.375779 1.53054 0
M  V30 6874 C 710.736 -1.11727 1.68409 0
M  V30 6875 C 711.057 -1.90127 0.43323 0
M  V30 6876 O 710.327 -1.87945 -0.552595 0
M  V30 6877 H 708.907 -0.415451 0.620813 0
M  V30 6878 H 711.569 -0.424869 1.90213 0
M  V30 6879 H 710.665 -1.8128 2.54055 0
M  V30 6880 N 710.966 -1.44241 -0.634997 0
M  V30 6881 C 711.898 -1.46793 -1.76024 0
M  V30 6882 C 712.911 -0.361781 -1.58729 0
M  V30 6883 O 714.1 -0.627297 -1.67114 0
M  V30 6884 C 711.2 -1.28248 -3.13697 0
M  V30 6885 C 710.373 -2.52038 -3.57485 0
M  V30 6886 C 709.432 -2.2845 -4.74022 0
M  V30 6887 O 708.458 -3.01915 -4.82531 0
M  V30 6888 N 709.66 -1.31264 -5.65464 0
M  V30 6889 H 712.425 -2.43797 -1.74307 0
M  V30 6890 H 709.986 -1.39631 -0.819438 0
M  V30 6891 H 711.978 -1.10321 -3.89373 0
M  V30 6892 H 710.548 -0.39623 -3.10079 0
M  V30 6893 H 709.768 -2.85268 -2.72059 0
M  V30 6894 H 711.056 -3.34382 -3.83492 0
M  V30 6895 H 710.454 -0.705817 -5.6128 0
M  V30 6896 H 709.011 -1.19316 -6.40786 0
M  V30 6897 N 712.444 0.87505 -1.31075 0
M  V30 6898 C 713.407 1.96333 -1.18263 0
M  V30 6899 C 714.407 1.60416 -0.111106 0
M  V30 6900 O 715.597 1.7044 -0.359987 0
M  V30 6901 C 712.729 3.31036 -0.81414 0
M  V30 6902 H 713.922 2.09125 -2.14958 0
M  V30 6903 H 711.475 1.06271 -1.14614 0
M  V30 6904 H 712.21 3.23944 0.151875 0
M  V30 6905 H 711.995 3.58476 -1.58862 0
M  V30 6906 H 713.485 4.10842 -0.748249 0
M  V30 6907 N 713.922 1.13953 1.08869 0
M  V30 6908 C 714.87 0.817664 2.17754 0
M  V30 6909 C 715.864 -0.202444 1.68186 0
M  V30 6910 O 717.07 -0.0590159 1.79903 0
M  V30 6911 H 713.445 0.246671 0.710392 0
M  V30 6912 H 715.416 1.74401 2.4213 0
M  V30 6913 C 714.165 0.3063 3.46348 0
M  V30 6914 H 713.488 1.08259 3.84864 0
M  V30 6915 H 714.928 0.119584 4.23831 0
M  V30 6916 C 713.387 -0.969158 3.22659 0
M  V30 6917 O 713.917 -2.04386 3.45817 0
M  V30 6918 N 712.123 -0.902516 2.7623 0
M  V30 6919 H 711.67 -0.027801 2.57585 0
M  V30 6920 H 711.628 -1.75649 2.60758 0
M  V30 6921 N 715.4 -1.26948 0.933913 0
M  V30 6922 C 716.363 -2.24889 0.442457 0
M  V30 6923 C 717.363 -1.54594 -0.442426 0
M  V30 6924 O 718.553 -1.72502 -0.242629 0
M  V30 6925 C 715.685 -3.3896 -0.363173 0
M  V30 6926 H 716.878 -2.69879 1.30787 0
M  V30 6927 H 714.431 -1.38978 0.715187 0
M  V30 6928 H 715.166 -2.99361 -1.24714 0
M  V30 6929 H 714.951 -3.9116 0.271366 0
M  V30 6930 H 716.441 -4.11739 -0.697186 0
M  V30 6931 N 716.879 -0.700114 -1.41195 0
M  V30 6932 C 718.107 -0.242179 -2.05478 0
M  V30 6933 C 718.522 1.11029 -1.52702 0
M  V30 6934 O 717.879 1.69473 -0.677127 0
M  V30 6935 C 717.93 -0.196271 -3.60967 0
M  V30 6936 O 717.651 -1.49532 -4.11791 0
M  V30 6937 C 719.152 0.282102 -4.42401 0
M  V30 6938 H 716.372 -0.111749 -0.661629 0
M  V30 6939 H 718.916 -0.953975 -1.80885 0
M  V30 6940 H 717.071 0.46638 -3.84582 0
M  V30 6941 H 717.485 -1.38545 -5.05871 0
M  V30 6942 H 718.959 0.263093 -5.51373 0
M  V30 6943 H 719.436 1.32174 -4.1884 0
M  V30 6944 H 720.042 -0.349712 -4.2386 0
M  V30 6945 N 718.357 1.51182 -0.445186 0
M  V30 6946 C 719.773 1.59299 -0.0978954 0
M  V30 6947 C 719.973 1.4555 1.39346 0
M  V30 6948 O 719.029 1.30073 2.16419 0
M  V30 6949 C 720.342 2.94133 -0.625005 0
M  V30 6950 C 721.89 3.07463 -0.586137 0
M  V30 6951 C 722.365 4.44832 -1.09035 0
M  V30 6952 N 723.856 4.51173 -1.04867 0
M  V30 6953 C 724.591 5.55804 -1.40959 0
M  V30 6954 N 724.087 6.67816 -1.84375 0
M  V30 6955 N 725.88 5.46205 -1.32726 0
M  V30 6956 H 718.031 1.58363 -1.41544 0
M  V30 6957 H 720.294 0.746946 -0.58376 0
M  V30 6958 H 720 3.09589 -1.66876 0
M  V30 6959 H 719.874 3.77161 -0.0542262 0
M  V30 6960 H 722.261 2.9167 0.448646 0
M  V30 6961 H 722.342 2.26255 -1.19341 0
M  V30 6962 H 721.986 4.61372 -2.12364 0
M  V30 6963 H 721.916 5.24591 -0.459539 0
M  V30 6964 H 724.407 3.70783 -0.729932 0
M  V30 6965 H 724.72 7.43683 -2.10131 0
M  V30 6966 H 723.065 6.69003 -1.88308 0
M  V30 6967 H 726.256 4.57583 -0.986678 0
M  V30 6968 H 726.429 6.27634 -1.61182 0
M  V30 6969 N 719.835 0.176821 1.56605 0
M  V30 6970 C 721.084 -0.466833 1.96223 0
M  V30 6971 C 721.397 -1.64015 1.06576 0
M  V30 6972 O 722.603 -2.3504 1.35898 0
M  V30 6973 C 721.059 -0.881921 3.48927 0
M  V30 6974 C 720.667 0.266102 4.47209 0
M  V30 6975 C 722.411 -1.49368 3.97353 0
M  V30 6976 C 720.318 -0.168923 5.91159 0
M  V30 6977 H 719.248 -0.178178 0.732645 0
M  V30 6978 H 721.899 0.265929 1.81563 0
M  V30 6979 H 720.281 -1.67082 3.59026 0
M  V30 6980 H 721.455 1.04349 4.4883 0
M  V30 6981 H 719.77 0.788178 4.08872 0
M  V30 6982 H 722.367 -1.8313 5.02362 0
M  V30 6983 H 722.71 -2.3936 3.40606 0
M  V30 6984 H 723.243 -0.769114 3.90294 0
M  V30 6985 H 719.982 0.696351 6.51791 0
M  V30 6986 H 719.502 -0.911552 5.92833 0
M  V30 6987 H 721.181 -0.610938 6.44109 0
M  V30 6988 N 721.313 -1.57302 -0.09688 0
M  V30 6989 C 722.724 -1.7496 -0.651595 0
M  V30 6990 C 723.075 -0.798746 -1.79205 0
M  V30 6991 O 722.2 0.0231858 -2.16388 0
M  V30 6992 C 722.795 -3.17259 -1.18878 0
M  V30 6993 C 721.354 -3.36348 -1.68958 0
M  V30 6994 C 720.501 -2.70766 -0.598413 0
M  V30 6995 H 723.452 -1.58173 0.12918 0
M  V30 6996 H 723.473 -3.20033 -2.05814 0
M  V30 6997 H 722.985 -3.8644 -0.358523 0
M  V30 6998 H 721.086 -2.72243 -2.5439 0
M  V30 6999 H 721.199 -4.44654 -1.7838 0
M  V30 7000 H 719.563 -2.32615 -1.03743 0
M  V30 7001 H 720.346 -3.42586 0.221238 0
M  V30 7002 N 722.791 0.367657 -1.53252 0
M  V30 7003 C 723.754 1.43308 -1.78873 0
M  V30 7004 C 724.754 1.46671 -0.659115 0
M  V30 7005 O 725.944 1.47468 -0.927306 0
M  V30 7006 C 723.076 2.82442 -1.90892 0
M  V30 7007 H 724.269 1.21864 -2.74024 0
M  V30 7008 H 721.822 0.600668 -1.44297 0
M  V30 7009 H 722.557 3.09202 -0.978 0
M  V30 7010 H 722.342 2.81399 -2.73051 0
M  V30 7011 H 723.832 3.59601 -2.12314 0
M  V30 7012 N 724.269 1.44576 0.627338 0
M  V30 7013 C 725.216 1.51734 1.73912 0
M  V30 7014 C 726.186 0.364745 1.62046 0
M  V30 7015 O 727.371 0.575503 1.81914 0
M  V30 7016 C 724.511 1.47116 3.12171 0
M  V30 7017 C 723.624 2.72778 3.34986 0
M  V30 7018 C 722.759 2.59968 4.63239 0
M  V30 7019 C 721.798 3.80776 4.79245 0
M  V30 7020 N 720.935 3.66618 5.98778 0
M  V30 7021 H 725.775 2.46722 1.6713 0
M  V30 7022 H 723.312 1.22444 0.815224 0
M  V30 7023 H 725.27 1.42429 3.92135 0
M  V30 7024 H 723.9 0.556928 3.17959 0
M  V30 7025 H 722.952 2.87637 2.48936 0
M  V30 7026 H 724.264 3.62441 3.42692 0
M  V30 7027 H 723.418 2.53135 5.51369 0
M  V30 7028 H 722.157 1.67872 4.57898 0
M  V30 7029 H 721.162 3.87989 3.89544 0
M  V30 7030 H 722.387 4.73913 4.86398 0
M  V30 7031 H 720.333 2.77277 5.9452 0
M  V30 7032 H 720.25 4.499 6.07557 0
M  V30 7033 H 721.518 3.63684 6.89459 0
M  V30 7034 N 725.747 -0.868086 1.31537 0
M  V30 7035 C 726.975 -1.65402 1.24298 0
M  V30 7036 C 727.39 -1.87827 -0.191389 0
M  V30 7037 O 726.747 -1.43776 -1.12404 0
M  V30 7038 C 726.798 -3.02093 1.9855 0
M  V30 7039 O 726.519 -2.80668 3.36388 0
M  V30 7040 C 728.02 -3.96538 1.98173 0
M  V30 7041 H 725.24 -0.515598 0.429417 0
M  V30 7042 H 727.784 -1.0834 1.73444 0
M  V30 7043 H 725.939 -3.55838 1.53161 0
M  V30 7044 H 726.353 -3.67504 3.74221 0
M  V30 7045 H 727.827 -4.8976 2.54635 0
M  V30 7046 H 728.304 -4.28474 0.964697 0
M  V30 7047 H 728.91 -3.48729 2.4345 0
M  V30 7048 N 727.225 -1.14528 -1.08264 0
M  V30 7049 C 728.636 -0.925261 -1.6216 0
M  V30 7050 C 728.987 0.535587 -1.88748 0
M  V30 7051 O 728.112 1.4048 -1.64604 0
M  V30 7052 C 728.707 -1.67316 -2.94603 0
M  V30 7053 C 727.266 -1.49868 -3.45278 0
M  V30 7054 C 726.413 -1.69471 -2.19487 0
M  V30 7055 H 729.364 -1.29687 -0.914707 0
M  V30 7056 H 729.385 -1.13721 -3.63109 0
M  V30 7057 H 728.897 -2.73635 -2.75219 0
M  V30 7058 H 726.998 -0.459032 -3.69762 0
M  V30 7059 H 727.111 -2.2696 -4.21931 0
M  V30 7060 H 725.475 -1.12048 -2.2873 0
M  V30 7061 H 726.258 -2.77136 -2.0261 0
M  V30 7062 N 728.703 1.26451 -0.940633 0
M  V30 7063 C 730.114 1.75726 -0.630653 0
M  V30 7064 C 730.465 1.76631 0.854167 0
M  V30 7065 O 729.59 1.37807 1.66848 0
M  V30 7066 C 730.185 3.19114 -1.13805 0
M  V30 7067 C 728.744 3.66005 -0.878497 0
M  V30 7068 C 727.891 2.45505 -1.28928 0
M  V30 7069 H 730.842 1.12535 -1.119 0
M  V30 7070 H 730.863 3.77311 -0.491625 0
M  V30 7071 H 730.375 3.18424 -2.21874 0
M  V30 7072 H 728.476 3.72126 0.187833 0
M  V30 7073 H 728.589 4.54844 -1.50512 0
M  V30 7074 H 726.953 2.4467 -0.707713 0
M  V30 7075 H 727.736 2.47516 -2.37888 0
M  V30 7076 N 730.181 0.707592 1.40822 0
M  V30 7077 C 731.144 0.0587224 2.29125 0
M  V30 7078 C 732.144 -0.695624 1.44975 0
M  V30 7079 O 733.334 -0.528718 1.65983 0
M  V30 7080 C 730.466 -0.926939 3.28056 0
M  V30 7081 H 731.659 0.836349 2.88002 0
M  V30 7082 H 729.212 0.471778 1.4901 0
M  V30 7083 H 729.947 -1.7319 2.74182 0
M  V30 7084 H 729.732 -0.389015 3.90165 0
M  V30 7085 H 731.222 -1.37837 3.94196 0
M  V30 7086 N 731.66 -1.50943 0.453197 0
M  V30 7087 C 733.071 -1.86699 -0.00619892 0
M  V30 7088 C 733.422 -1.3693 -1.40515 0
M  V30 7089 O 732.547 -0.726715 -2.03833 0
M  V30 7090 C 733.142 -3.38795 -0.018025 0
M  V30 7091 C 731.701 -3.74028 -0.421885 0
M  V30 7092 C 730.848 -2.74752 0.375087 0
M  V30 7093 H 733.799 -1.43942 0.668317 0
M  V30 7094 H 733.82 -3.71468 -0.824125 0
M  V30 7095 H 733.332 -3.74988 1.00028 0
M  V30 7096 H 731.433 -3.43431 -1.44521 0
M  V30 7097 H 731.546 -4.78908 -0.135664 0
M  V30 7098 H 729.91 -2.5414 -0.168794 0
M  V30 7099 H 730.693 -3.13787 1.39256 0
M  V30 7100 N 733.138 -0.185124 -1.56509 0
M  V30 7101 C 734.085 0.739729 -2.18624 0
M  V30 7102 C 735.055 1.217 -1.13042 0
M  V30 7103 O 736.24 1.28268 -1.41251 0
M  V30 7104 C 733.38 1.95787 -2.84186 0
M  V30 7105 C 732.493 1.52289 -4.04267 0
M  V30 7106 C 731.628 2.69576 -4.57714 0
M  V30 7107 C 730.667 2.22636 -5.70175 0
M  V30 7108 N 729.804 3.33065 -6.18071 0
M  V30 7109 H 734.644 0.203269 -2.97306 0
M  V30 7110 H 732.181 0.0885946 -1.46833 0
M  V30 7111 H 734.139 2.67253 -3.20361 0
M  V30 7112 H 732.769 2.4678 -2.08085 0
M  V30 7113 H 731.821 0.704458 -3.7382 0
M  V30 7114 H 733.133 1.13843 -4.85635 0
M  V30 7115 H 732.287 3.4918 -4.96143 0
M  V30 7116 H 731.026 3.1129 -3.75433 0
M  V30 7117 H 730.031 1.41483 -5.31284 0
M  V30 7118 H 731.256 1.81964 -6.54267 0
M  V30 7119 H 729.202 3.74328 -5.38715 0
M  V30 7120 H 729.119 2.98756 -6.94464 0
M  V30 7121 H 730.387 4.12912 -6.61153 0
M  V30 7122 N 734.616 1.57351 0.0885366 0
M  V30 7123 C 735.844 1.90631 0.804196 0
M  V30 7124 C 736.259 0.779474 1.71958 0
M  V30 7125 O 735.616 -0.248179 1.80805 0
M  V30 7126 C 735.667 3.23568 1.61202 0
M  V30 7127 O 735.388 4.31917 0.733447 0
M  V30 7128 C 736.889 3.70753 2.43016 0
M  V30 7129 H 734.109 0.630501 0.229585 0
M  V30 7130 H 736.653 2.044 0.0638092 0
M  V30 7131 H 734.808 3.11377 2.30485 0
M  V30 7132 H 735.222 5.08297 1.29361 0
M  V30 7133 H 736.696 4.66447 2.9518 0
M  V30 7134 H 737.173 2.98922 3.2178 0
M  V30 7135 H 737.779 3.85834 1.7892 0
M  V30 7136 N 736.094 -0.359525 1.53444 0
M  V30 7137 C 737.505 -0.936009 1.61542 0
M  V30 7138 C 737.856 -1.90069 0.486633 0
M  V30 7139 O 736.981 -2.12929 -0.386047 0
M  V30 7140 C 737.576 -1.70441 2.92806 0
M  V30 7141 C 736.135 -2.23015 3.03218 0
M  V30 7142 C 735.282 -1.04438 2.56881 0
M  V30 7143 H 738.233 -0.138134 1.58098 0
M  V30 7144 H 738.254 -2.56609 2.80948 0
M  V30 7145 H 737.766 -1.00205 3.74941 0
M  V30 7146 H 735.867 -2.96475 2.25684 0
M  V30 7147 H 735.98 -2.50481 4.08407 0
M  V30 7148 H 734.344 -1.41314 2.11902 0
M  V30 7149 H 735.127 -0.356905 3.4144 0
M  V30 7150 N 737.572 -1.44907 -0.619662 0
M  V30 7151 C 738.983 -1.42905 -1.20146 0
M  V30 7152 C 739.334 -0.150341 -1.95623 0
M  V30 7153 O 738.459 0.748732 -2.03034 0
M  V30 7154 C 739.054 -2.58889 -2.18545 0
M  V30 7155 C 737.613 -2.60046 -2.72127 0
M  V30 7156 C 736.76 -2.3493 -1.4732 0
M  V30 7157 H 739.711 -1.53321 -0.409666 0
M  V30 7158 H 739.732 -2.32298 -3.0136 0
M  V30 7159 H 739.244 -3.51941 -1.63583 0
M  V30 7160 H 737.345 -1.70968 -3.3106 0
M  V30 7161 H 737.458 -3.58893 -3.17384 0
M  V30 7162 H 735.822 -1.84248 -1.75855 0
M  V30 7163 H 736.605 -3.3011 -0.942442 0
M  V30 7164 N 739.05 0.861098 -1.31996 0
M  V30 7165 C 740.275 1.65264 -1.2531 0
M  V30 7166 C 740.7 1.87265 0.177007 0
M  V30 7167 O 740.058 1.4208 1.12619 0
M  V30 7168 C 740.106 2.99284 -2.0115 0
M  V30 7169 O 739.21 3.89508 -1.3549 0
M  V30 7170 H 738.551 0.50409 -0.432192 0
M  V30 7171 H 741.081 1.07297 -1.74208 0
M  V30 7172 H 741.091 3.49154 -2.11081 0
M  V30 7173 H 739.766 2.82591 -3.05148 0
M  V30 7174 H 738.343 3.47966 -1.34066 0
M  V30 7175 N 740.528 1.15101 1.07655 0
M  V30 7176 C 741.753 0.948177 1.84457 0
M  V30 7177 C 742.178 -0.498432 1.81376 0
M  V30 7178 O 741.536 -1.35509 1.20445 0
M  V30 7179 C 741.584 1.46318 3.29581 0
M  V30 7180 O 740.688 0.660342 4.07079 0
M  V30 7181 H 740.029 0.338428 0.571281 0
M  V30 7182 H 742.559 1.5301 1.35828 0
M  V30 7183 H 742.569 1.47468 3.80417 0
M  V30 7184 H 741.244 2.51635 3.31138 0
M  V30 7185 H 739.821 0.718216 3.65918 0
M  V30 7186 N 742.006 -1.2595 0.947325 0
M  V30 7187 C 743.254 -1.93081 0.596996 0
M  V30 7188 C 743.575 -1.74632 -0.867672 0
M  V30 7189 O 742.845 -1.1056 -1.6172 0
M  V30 7190 H 741.425 -0.714542 0.217805 0
M  V30 7191 H 744.087 -1.53265 1.20398 0
M  V30 7192 H 743.183 -3.01134 0.82004 0
M  V30 7193 N 743.484 -0.715051 -1.40445 0
M  V30 7194 C 744.394 -0.0631624 -2.34515 0
M  V30 7195 C 745.41 0.744397 -1.57273 0
M  V30 7196 O 746.586 0.677475 -1.89663 0
M  V30 7197 C 743.651 0.847915 -3.36172 0
M  V30 7198 C 742.712 0.0303655 -4.29289 0
M  V30 7199 C 741.945 0.898051 -5.2609 0
M  V30 7200 O 742.168 2.13729 -5.28844 0
M  V30 7201 O 741.102 0.337328 -6.00954 0
M  V30 7202 H 744.928 -0.839078 -2.91879 0
M  V30 7203 H 742.513 -0.475527 -1.4163 0
M  V30 7204 H 744.395 1.3698 -3.98515 0
M  V30 7205 H 743.07 1.60299 -2.81222 0
M  V30 7206 H 741.977 -0.536573 -3.70232 0
M  V30 7207 H 743.31 -0.686474 -4.87389 0
M  V30 7208 N 744.962 1.50701 -0.461195 0
M  V30 7209 C 746.373 1.867 -0.00370227 0
M  V30 7210 C 746.724 1.37673 1.39787 0
M  V30 7211 O 745.849 0.737515 2.03445 0
M  V30 7212 C 746.444 3.388 5.75786e-05 0
M  V30 7213 C 745.003 3.74247 0.402044 0
M  V30 7214 C 744.15 2.74549 -0.389652 0
M  V30 7215 H 747.101 1.43585 -0.675942 0
M  V30 7216 H 747.122 3.719 0.804414 0
M  V30 7217 H 746.634 3.74452 -1.02015 0
M  V30 7218 H 744.735 3.44192 1.42697 0
M  V30 7219 H 744.848 4.78973 0.110265 0
M  V30 7220 H 743.212 2.54226 0.155314 0
M  V30 7221 H 743.995 3.13044 -1.40919 0
M  V30 7222 N 746.441 0.193421 1.56409 0
M  V30 7223 C 747.852 -0.319471 1.83946 0
M  V30 7224 C 748.203 -1.61505 1.11403 0
M  V30 7225 O 747.328 -2.13139 0.374289 0
M  V30 7226 C 747.923 -0.586411 3.33686 0
M  V30 7227 C 746.482 -1.04368 3.61641 0
M  V30 7228 C 745.629 -0.0913834 2.77149 0
M  V30 7229 H 748.58 0.417242 1.53117 0
M  V30 7230 H 748.601 -1.43591 3.52366 0
M  V30 7231 H 748.113 0.356701 3.86457 0
M  V30 7232 H 746.214 -2.00113 3.14302 0
M  V30 7233 H 746.327 -0.937549 4.69837 0
M  V30 7234 H 744.691 -0.592954 2.47702 0
M  V30 7235 H 745.474 0.846142 3.32709 0
M  V30 7236 N 747.919 -1.57396 -0.0801906 0
M  V30 7237 C 748.866 -2.03107 -1.09618 0
M  V30 7238 C 749.836 -0.910118 -1.38946 0
M  V30 7239 O 751.021 -1.17719 -1.50156 0
M  V30 7240 C 748.161 -2.47293 -2.40708 0
M  V30 7241 C 747.274 -3.72972 -2.17982 0
M  V30 7242 C 746.409 -4.05975 -3.42576 0
M  V30 7243 C 745.448 -5.24719 -3.15177 0
M  V30 7244 N 744.585 -5.53401 -4.32078 0
M  V30 7245 H 749.425 -2.89677 -0.69939 0
M  V30 7246 H 746.962 -1.43263 -0.333785 0
M  V30 7247 H 748.92 -2.7096 -3.17232 0
M  V30 7248 H 747.55 -1.63713 -2.78205 0
M  V30 7249 H 746.602 -3.56693 -1.32189 0
M  V30 7250 H 747.914 -4.59638 -1.93738 0
M  V30 7251 H 747.068 -4.30498 -4.275 0
M  V30 7252 H 745.807 -3.17859 -3.69887 0
M  V30 7253 H 744.812 -5 -2.28648 0
M  V30 7254 H 746.037 -6.14445 -2.89197 0
M  V30 7255 H 743.983 -4.68245 -4.59437 0
M  V30 7256 H 743.9 -6.34469 -4.11078 0
M  V30 7257 H 745.168 -5.8247 -5.18024 0
M  V30 7258 N 749.397 0.351382 -1.53633 0
M  V30 7259 C 750.622 1.11718 -1.74739 0
M  V30 7260 C 751.047 1.81829 -0.481657 0
M  V30 7261 O 750.405 1.72264 0.565233 0
M  V30 7262 C 750.453 2.11234 -2.92254 0
M  V30 7263 O 749.557 3.186 -2.61855 0
M  V30 7264 H 748.898 0.323482 -0.579875 0
M  V30 7265 H 751.428 0.404167 -2.00568 0
M  V30 7266 H 751.438 2.54591 -3.18822 0
M  V30 7267 H 750.113 1.59599 -3.84058 0
M  V30 7268 H 748.69 2.80115 -2.4615 0
M  V30 7269 N 750.875 1.45233 0.611969 0
M  V30 7270 C 752.123 1.48727 1.36838 0
M  V30 7271 C 752.444 0.128616 1.94575 0
M  V30 7272 O 751.714 -0.84149 1.76906 0
M  V30 7273 H 750.294 0.547695 0.507976 0
M  V30 7274 H 752.956 1.81156 0.718925 0
M  V30 7275 H 752.052 2.2236 2.19003 0
M  V30 7276 N 752.353 -0.854086 1.3245 0
M  V30 7277 C 753.63 -1.59188 1.1366 0
M  V30 7278 C 754.01 -2.08917 -0.302807 0
M  V30 7279 O 753.358 -1.8795 -1.29951 0
M  V30 7280 C 753.568 -2.73757 2.16467 0
M  V30 7281 C 754.916 -3.43323 2.49829 0
M  V30 7282 O 755.94 -2.83983 2.15017 0
M  V30 7283 O 754.799 -4.50409 3.09506 0
M  V30 7284 H 751.893 -0.701092 0.438633 0
M  V30 7285 H 754.439 -0.898165 1.43983 0
M  V30 7286 H 753.211 -2.3454 3.1322 0
M  V30 7287 H 752.834 -3.50804 1.87142 0
M  V30 7288 N 753.831 -1.1567 -1.07043 0
M  V30 7289 C 755.247 -0.900006 -1.31803 0
M  V30 7290 C 755.447 0.451293 -1.96381 0
M  V30 7291 O 754.503 1.19252 -2.22565 0
M  V30 7292 C 755.816 -2.04334 -2.20609 0
M  V30 7293 C 757.364 -2.07823 -2.34048 0
M  V30 7294 C 757.839 -3.21488 -3.26204 0
M  V30 7295 N 759.33 -3.21156 -3.33786 0
M  V30 7296 C 760.065 -4.05746 -4.05163 0
M  V30 7297 N 759.561 -5.00407 -4.79129 0
M  V30 7298 N 761.354 -3.93759 -4.01136 0
M  V30 7299 H 753.505 -2.02681 -0.635146 0
M  V30 7300 H 755.768 -0.883956 -0.342528 0
M  V30 7301 H 755.474 -3.01895 -1.80423 0
M  V30 7302 H 755.348 -1.97838 -3.21154 0
M  V30 7303 H 757.735 -1.1086 -2.73485 0
M  V30 7304 H 757.816 -2.18386 -1.33197 0
M  V30 7305 H 757.46 -4.18706 -2.87485 0
M  V30 7306 H 757.39 -3.08162 -4.27017 0
M  V30 7307 H 759.881 -2.52606 -2.81067 0
M  V30 7308 H 760.194 -5.61387 -5.31097 0
M  V30 7309 H 758.539 -5.04393 -4.78135 0
M  V30 7310 H 761.73 -3.19115 -3.42466 0
M  V30 7311 H 761.903 -4.59906 -4.56498 0
M  V30 7312 N 755.309 1.25446 -0.953992 0
M  V30 7313 C 756.534 1.97755 -0.625129 0
M  V30 7314 C 756.959 1.70437 0.795787 0
M  V30 7315 O 756.317 0.95992 1.53803 0
M  V30 7316 C 756.365 3.49463 -0.889251 0
M  V30 7317 O 755.469 4.12387 0.0322757 0
M  V30 7318 H 754.81 0.61998 -0.237742 0
M  V30 7319 H 757.34 1.59582 -1.28041 0
M  V30 7320 H 757.35 3.99772 -0.815263 0
M  V30 7321 H 756.025 3.68676 -1.92487 0
M  V30 7322 H 754.602 3.72782 -0.0938625 0
M  V30 7323 N 756.787 0.722489 1.40064 0
M  V30 7324 C 758.035 0.264455 2.00362 0
M  V30 7325 C 758.356 -1.14847 1.57592 0
M  V30 7326 O 757.626 -1.77982 0.818477 0
M  V30 7327 H 756.206 0.0947846 0.740962 0
M  V30 7328 H 758.868 0.929659 1.71299 0
M  V30 7329 H 757.964 0.302977 3.10626 0
M  V30 7330 N 758.265 -1.50454 0.469181 0
M  V30 7331 C 759.495 -2.06429 -0.0840913 0
M  V30 7332 C 759.903 -1.3334 -1.34227 0
M  V30 7333 O 759.246 -0.395656 -1.79389 0
M  V30 7334 C 759.308 -3.56797 -0.440049 0
M  V30 7335 C 758.972 -4.51359 0.715838 0
M  V30 7336 C 759.969 -4.94754 1.59732 0
M  V30 7337 C 757.654 -4.94069 0.905621 0
M  V30 7338 C 759.648 -5.79564 2.653 0
M  V30 7339 C 757.335 -5.78662 1.96453 0
M  V30 7340 C 758.333 -6.21311 2.83658 0
M  V30 7341 O 758.021 -7.04218 3.87727 0
M  V30 7342 H 757.753 -0.675994 0.00289751 0
M  V30 7343 H 760.307 -1.94629 0.656417 0
M  V30 7344 H 758.537 -3.66492 -1.23372 0
M  V30 7345 H 760.226 -3.95145 -0.928181 0
M  V30 7346 H 760.992 -4.62428 1.46237 0
M  V30 7347 H 756.871 -4.60394 0.236326 0
M  V30 7348 H 760.415 -6.12774 3.33398 0
M  V30 7349 H 756.312 -6.10401 2.09955 0
M  V30 7350 H 757.08 -7.22464 3.84692 0
M  V30 7351 N 759.743 -0.201713 -1.56304 0
M  V30 7352 C 760.968 0.443815 -2.02596 0
M  V30 7353 C 761.393 1.53945 -1.08086 0
M  V30 7354 O 760.751 1.81182 -0.0655056 0
M  V30 7355 C 760.799 0.971066 -3.47279 0
M  V30 7356 O 759.903 2.0836 -3.55893 0
M  V30 7357 H 759.244 0.10294 -0.655972 0
M  V30 7358 H 761.774 -0.314533 -2.02168 0
M  V30 7359 H 761.784 1.28598 -3.87204 0
M  V30 7360 H 760.459 0.169048 -4.15556 0
M  V30 7361 H 759.036 1.77683 -3.27846 0
M  V30 7362 N 761.222 1.57436 0.0718424 0
M  V30 7363 C 762.447 1.91858 0.787745 0
M  V30 7364 C 762.872 0.798119 1.70328 0
M  V30 7365 O 762.23 -0.24905 1.79581 0
M  V30 7366 C 762.278 3.25232 1.55744 0
M  V30 7367 O 761.382 3.14462 2.6681 0
M  V30 7368 H 760.723 0.628258 0.214914 0
M  V30 7369 H 763.253 2.04561 0.0401012 0
M  V30 7370 H 763.263 3.59105 1.9367 0
M  V30 7371 H 761.938 4.0636 0.885691 0
M  V30 7372 H 760.515 2.92148 2.31741 0
M  V30 7373 N 762.7 -0.34323 1.53817 0
M  V30 7374 C 764.111 -0.918823 1.62525 0
M  V30 7375 C 764.462 -1.89542 0.506765 0
M  V30 7376 O 763.587 -2.13326 -0.363441 0
M  V30 7377 C 764.182 -1.67326 2.94597 0
M  V30 7378 C 762.741 -2.19786 3.05567 0
M  V30 7379 C 761.888 -1.01708 2.57974 0
M  V30 7380 H 764.839 -0.121358 1.58235 0
M  V30 7381 H 764.86 -2.53615 2.83654 0
M  V30 7382 H 764.372 -0.962223 3.75983 0
M  V30 7383 H 762.473 -2.94065 2.28816 0
M  V30 7384 H 762.586 -2.46135 4.1104 0
M  V30 7385 H 760.95 -1.39058 2.13389 0
M  V30 7386 H 761.733 -0.320671 3.41799 0
M  V30 7387 N 764.178 -1.45556 -0.604258 0
M  V30 7388 C 765.426 -1.4945 -1.36048 0
M  V30 7389 C 765.747 -0.138933 -1.94504 0
M  V30 7390 O 765.017 0.832097 -1.7735 0
M  V30 7391 H 763.597 -0.550381 -0.505064 0
M  V30 7392 H 766.259 -1.81535 -0.709308 0
M  V30 7393 H 765.355 -2.23519 -2.17821 0
M  V30 7394 N 765.656 0.84705 -1.32902 0
M  V30 7395 C 766.881 1.63925 -1.27056 0
M  V30 7396 C 767.306 1.87443 0.157136 0
M  V30 7397 O 766.664 1.43266 1.11106 0
M  V30 7398 C 766.712 2.97134 -2.04313 0
M  V30 7399 O 765.816 3.88049 -1.39614 0
M  V30 7400 H 765.157 0.499477 -0.437514 0
M  V30 7401 H 767.687 1.05443 -1.75336 0
M  V30 7402 H 767.697 3.46896 -2.14772 0
M  V30 7403 H 766.372 2.79339 -3.08128 0
M  V30 7404 H 764.949 3.46525 -1.3775 0
M  V30 7405 N 767.134 1.16236 1.06428 0
M  V30 7406 C 768.545 0.950942 1.60667 0
M  V30 7407 C 768.896 -0.505491 1.89576 0
M  V30 7408 O 768.021 -1.37843 1.66818 0
M  V30 7409 C 768.616 1.71982 2.91904 0
M  V30 7410 C 767.175 1.55342 3.4285 0
M  V30 7411 C 766.322 1.72942 2.16763 0
M  V30 7412 H 769.273 1.31126 0.893959 0
M  V30 7413 H 769.294 1.19483 3.61253 0
M  V30 7414 H 768.806 2.77978 2.70831 0
M  V30 7415 H 766.907 0.5178 3.68985 0
M  V30 7416 H 767.02 2.33643 4.18267 0
M  V30 7417 H 765.384 1.15673 2.26918 0
M  V30 7418 H 766.167 2.80324 1.98175 0
M  V30 7419 N 768.612 -1.24939 0.960631 0
M  V30 7420 C 769.86 -1.92437 0.617441 0
M  V30 7421 C 770.181 -1.75543 -0.849101 0
M  V30 7422 O 769.451 -1.12269 -1.60538 0
M  V30 7423 H 768.031 -0.712192 0.225371 0
M  V30 7424 H 770.693 -1.5198 1.22017 0
M  V30 7425 H 769.789 -3.00247 0.851933 0
M  V30 7426 N 770.09 -0.729906 -1.39679 0
M  V30 7427 C 771.318 -0.285709 -2.04918 0
M  V30 7428 C 771.733 1.07765 -1.55023 0
M  V30 7429 O 771.09 1.67999 -0.712923 0
M  V30 7430 C 771.141 -0.272793 -3.60469 0
M  V30 7431 O 770.862 -1.58233 -4.08527 0
M  V30 7432 C 772.363 0.188199 -4.429 0
M  V30 7433 H 769.583 -0.125758 -0.65911 0
M  V30 7434 H 772.127 -0.992129 -1.78821 0
M  V30 7435 H 770.282 0.384699 -3.85485 0
M  V30 7436 H 770.696 -1.49245 -5.02818 0
M  V30 7437 H 772.17 0.14608 -5.51807 0
M  V30 7438 H 772.647 1.2326 -4.21549 0
M  V30 7439 H 773.253 -0.439541 -4.23023 0
M  V30 7440 N 771.568 1.50203 -0.477153 0
M  V30 7441 C 772.979 1.86685 -0.0235041 0
M  V30 7442 C 773.33 1.39148 1.38319 0
M  V30 7443 O 772.455 0.759051 2.02651 0
M  V30 7444 C 773.05 3.38781 -0.0358767 0
M  V30 7445 C 771.609 3.74652 0.362327 0
M  V30 7446 C 770.756 2.7412 -0.41875 0
M  V30 7447 H 773.707 1.4286 -0.691133 0
M  V30 7448 H 773.728 3.72732 0.764924 0
M  V30 7449 H 773.24 3.73349 -1.05981 0
M  V30 7450 H 771.341 3.45686 1.39039 0
M  V30 7451 H 771.454 4.79063 0.059457 0
M  V30 7452 H 769.818 2.54376 0.128341 0
M  V30 7453 H 770.601 3.11532 -1.44231 0
M  V30 7454 N 773.046 0.209999 1.56195 0
M  V30 7455 C 774.294 -0.423974 1.97603 0
M  V30 7456 C 774.615 -1.61112 1.09854 0
M  V30 7457 O 773.885 -1.95134 0.173032 0
M  V30 7458 H 772.465 -0.159629 0.729745 0
M  V30 7459 H 775.127 0.300205 1.92574 0
M  V30 7460 H 774.223 -0.75809 3.02753 0
M  V30 7461 N 774.524 -1.57472 -0.0634922 0
M  V30 7462 C 775.749 -1.92273 -0.77756 0
M  V30 7463 C 776.174 -0.807141 -1.69902 0
M  V30 7464 O 775.532 0.239523 -1.79711 0
M  V30 7465 C 775.58 -3.26054 -1.54017 0
M  V30 7466 O 774.684 -3.15873 -2.65138 0
M  V30 7467 H 774.025 -0.629389 -0.211579 0
M  V30 7468 H 776.555 -2.04579 -0.0292523 0
M  V30 7469 H 776.565 -3.60127 -1.91763 0
M  V30 7470 H 775.24 -4.06824 -0.864128 0
M  V30 7471 H 773.817 -2.93373 -2.30189 0
M  V30 7472 N 776.003 0.335068 -1.53997 0
M  V30 7473 C 777.419 0.678704 -1.4445 0
M  V30 7474 C 777.619 1.92106 -0.608078 0
M  V30 7475 O 776.675 2.52292 -0.102373 0
M  V30 7476 C 777.988 0.863435 -2.88037 0
M  V30 7477 C 779.536 0.961513 -2.97866 0
M  V30 7478 C 780.011 1.1785 -4.42578 0
M  V30 7479 N 781.502 1.2455 -4.46141 0
M  V30 7480 C 782.237 1.43106 -5.55255 0
M  V30 7481 N 781.733 1.5878 -6.74359 0
M  V30 7482 N 783.526 1.45722 -5.42883 0
M  V30 7483 H 775.677 -0.481656 -2.06867 0
M  V30 7484 H 777.94 -0.153615 -0.935471 0
M  V30 7485 H 777.646 0.0219511 -3.51693 0
M  V30 7486 H 777.52 1.76268 -3.33481 0
M  V30 7487 H 779.907 1.79351 -2.34344 0
M  V30 7488 H 779.988 0.0389862 -2.5577 0
M  V30 7489 H 779.632 0.351397 -5.06683 0
M  V30 7490 H 779.562 2.11472 -4.82273 0
M  V30 7491 H 782.053 1.13928 -3.60318 0
M  V30 7492 H 782.366 1.72599 -7.53279 0
M  V30 7493 H 780.711 1.559 -6.77289 0
M  V30 7494 H 783.902 1.33065 -4.48789 0
M  V30 7495 H 784.075 1.59841 -6.27977 0
M  V30 7496 N 777.481 1.45874 0.596531 0
M  V30 7497 C 778.706 1.54247 1.38646 0
M  V30 7498 C 779.131 0.179571 1.87241 0
M  V30 7499 O 778.489 -0.837831 1.6078 0
M  V30 7500 C 778.537 2.54015 2.55946 0
M  V30 7501 O 777.641 2.06561 3.5694 0
M  V30 7502 H 776.982 0.519555 0.413471 0
M  V30 7503 H 779.512 1.91327 0.724936 0
M  V30 7504 H 779.522 2.73179 3.03047 0
M  V30 7505 H 778.197 3.52994 2.19928 0
M  V30 7506 H 776.774 1.97324 3.16414 0
M  V30 7507 N 778.959 -0.83999 1.33349 0
M  V30 7508 C 780.375 -1.13049 1.12659 0
M  V30 7509 C 780.575 -2.01328 -0.0832613 0
M  V30 7510 O 779.631 -2.40669 -0.763856 0
M  V30 7511 C 780.944 -1.79366 2.41347 0
M  V30 7512 C 782.492 -1.91937 2.47243 0
M  V30 7513 C 782.967 -2.6167 3.75889 0
M  V30 7514 N 784.458 -2.69184 3.76954 0
M  V30 7515 C 785.193 -3.23827 4.73206 0
M  V30 7516 N 784.689 -3.79166 5.79832 0
M  V30 7517 N 786.482 -3.22068 4.60683 0
M  V30 7518 H 778.633 -0.252432 2.10895 0
M  V30 7519 H 780.896 -0.174501 0.931801 0
M  V30 7520 H 780.602 -1.2196 3.29877 0
M  V30 7521 H 780.476 -2.79396 2.53412 0
M  V30 7522 H 782.863 -2.48498 1.59163 0
M  V30 7523 H 782.944 -0.908604 2.39119 0
M  V30 7524 H 782.588 -2.05769 4.64351 0
M  V30 7525 H 782.518 -3.63217 3.81289 0
M  V30 7526 H 785.009 -2.2994 2.99893 0
M  V30 7527 H 785.322 -4.19061 6.49313 0
M  V30 7528 H 783.667 -3.77457 5.83568 0
M  V30 7529 H 786.858 -2.78092 3.7654 0
M  V30 7530 H 787.031 -3.64351 5.35866 0
M  V30 7531 N 780.437 -1.16799 -1.0581 0
M  V30 7532 C 781.665 -0.97687 -1.82387 0
M  V30 7533 C 782.08 0.474917 -1.82729 0
M  V30 7534 O 781.437 1.3297 -1.25001 0
M  V30 7535 C 781.488 -1.50279 -3.28783 0
M  V30 7536 O 781.209 -2.89772 -3.28578 0
M  V30 7537 C 782.71 -1.35538 -4.22071 0
M  V30 7538 H 779.93 -0.345977 -0.574927 0
M  V30 7539 H 782.474 -1.54942 -1.33466 0
M  V30 7540 H 780.629 -0.972414 -3.74997 0
M  V30 7541 H 781.043 -3.13954 -4.20159 0
M  V30 7542 H 782.517 -1.7716 -5.22799 0
M  V30 7543 H 782.994 -0.301598 -4.38163 0
M  V30 7544 H 783.6 -1.87562 -3.81708 0
M  V30 7545 N 781.915 1.24427 -0.967243 0
M  V30 7546 C 783.326 1.74349 -0.667785 0
M  V30 7547 C 783.677 1.78403 0.816509 0
M  V30 7548 O 782.802 1.41315 1.63887 0
M  V30 7549 C 783.397 3.16628 -1.20548 0
M  V30 7550 C 781.956 3.64059 -0.955934 0
M  V30 7551 C 781.103 2.42715 -1.34106 0
M  V30 7552 H 784.054 1.10136 -1.14262 0
M  V30 7553 H 784.075 3.76183 -0.571547 0
M  V30 7554 H 783.587 3.13646 -2.28578 0
M  V30 7555 H 781.688 3.72441 0.108858 0
M  V30 7556 H 781.801 4.51549 -1.60126 0
M  V30 7557 H 780.165 2.43114 -0.759452 0
M  V30 7558 H 780.948 2.42414 -2.43085 0
M  V30 7559 N 783.393 0.737304 1.3929 0
M  V30 7560 C 784.618 0.295237 2.05288 0
M  V30 7561 C 785.043 -1.06235 1.55228 0
M  V30 7562 O 784.401 -1.67365 0.697043 0
M  V30 7563 C 784.449 0.309146 3.59272 0
M  V30 7564 O 783.553 -0.702437 4.06374 0
M  V30 7565 H 782.894 0.133762 0.650387 0
M  V30 7566 H 785.424 1.00387 1.78279 0
M  V30 7567 H 785.434 0.154336 4.07708 0
M  V30 7568 H 784.109 1.29974 3.95069 0
M  V30 7569 H 782.686 -0.513574 3.69346 0
M  V30 7570 N 784.871 -1.49948 0.485112 0
M  V30 7571 C 785.801 -2.31675 -0.291364 0
M  V30 7572 C 786.782 -1.39216 -0.977383 0
M  V30 7573 O 787.967 -1.68133 -0.971855 0
M  V30 7574 C 785.097 -3.19326 -1.36558 0
M  V30 7575 C 784.051 -4.2045 -0.800359 0
M  V30 7576 C 783.377 -4.96931 -1.97391 0
M  V30 7577 C 784.677 -5.21925 0.197867 0
M  V30 7578 H 786.371 -2.96839 0.390775 0
M  V30 7579 H 783.917 -1.42749 0.189375 0
M  V30 7580 H 785.87 -3.75304 -1.91638 0
M  V30 7581 H 784.594 -2.52074 -2.07668 0
M  V30 7582 H 783.253 -3.65594 -0.271428 0
M  V30 7583 H 782.901 -4.26141 -2.67232 0
M  V30 7584 H 782.601 -5.65344 -1.60187 0
M  V30 7585 H 784.125 -5.55749 -2.52935 0
M  V30 7586 H 785.539 -5.72691 -0.264239 0
M  V30 7587 H 783.936 -5.98138 0.484908 0
M  V30 7588 H 785.006 -4.71809 1.11912 0
M  V30 7589 N 786.349 -0.21828 -1.56081 0
M  V30 7590 C 787.76 0.290166 -1.84431 0
M  V30 7591 C 788.111 1.59712 -1.13958 0
M  V30 7592 O 787.236 2.12516 -0.40815 0
M  V30 7593 C 787.831 0.53325 -3.34577 0
M  V30 7594 C 786.39 0.986011 -3.63256 0
M  V30 7595 C 785.537 0.0472798 -2.7726 0
M  V30 7596 H 788.488 -0.441548 -1.52434 0
M  V30 7597 H 788.509 1.37967 -3.54606 0
M  V30 7598 H 788.021 -0.418137 -3.85841 0
M  V30 7599 H 786.122 1.95087 -3.17446 0
M  V30 7600 H 786.235 0.862684 -4.71269 0
M  V30 7601 H 784.599 0.553471 -2.48614 0
M  V30 7602 H 785.382 -0.898966 -3.31321 0
M  V30 7603 N 787.827 1.57504 0.0551401 0
M  V30 7604 C 789.055 1.92294 0.76358 0
M  V30 7605 C 789.47 0.815774 1.70266 0
M  V30 7606 O 788.827 -0.209772 1.8129 0
M  V30 7607 C 788.878 3.26914 1.54302 0
M  V30 7608 O 788.599 4.33375 0.641666 0
M  V30 7609 C 790.1 3.75825 2.35097 0
M  V30 7610 H 787.32 0.635229 0.216159 0
M  V30 7611 H 789.864 2.0449 0.0204385 0
M  V30 7612 H 788.019 3.16196 2.23828 0
M  V30 7613 H 788.433 5.10927 1.1855 0
M  V30 7614 H 789.907 4.72603 2.8522 0
M  V30 7615 H 790.384 3.0568 3.15367 0
M  V30 7616 H 790.99 3.89542 1.70696 0
M  V30 7617 N 789.305 -0.326896 1.54172 0
M  V30 7618 C 790.716 -0.901533 1.63491 0
M  V30 7619 C 791.067 -1.88994 0.52684 0
M  V30 7620 O 790.192 -2.137 -0.340794 0
M  V30 7621 C 790.787 -1.64192 2.96355 0
M  V30 7622 C 789.346 -2.16533 3.07881 0
M  V30 7623 C 788.493 -0.98966 2.59039 0
M  V30 7624 H 791.444 -0.104568 1.58355 0
M  V30 7625 H 791.465 -2.50592 2.86328 0
M  V30 7626 H 790.977 -0.922291 3.76982 0
M  V30 7627 H 789.078 -2.91622 2.31922 0
M  V30 7628 H 789.191 -2.41762 4.13628 0
M  V30 7629 H 787.555 -1.36787 2.14852 0
M  V30 7630 H 788.338 -0.284401 3.4212 0
M  V30 7631 N 790.784 -1.46188 -0.588786 0
M  V30 7632 C 792.195 -1.45421 -1.17088 0
M  V30 7633 C 792.546 -0.191801 -1.9526 0
M  V30 7634 O 791.671 0.705497 -2.04577 0
M  V30 7635 C 792.266 -2.63467 -2.13004 0
M  V30 7636 C 790.825 -2.6576 -2.6655 0
M  V30 7637 C 789.972 -2.38002 -1.42304 0
M  V30 7638 H 792.923 -1.54156 -0.377052 0
M  V30 7639 H 792.944 -2.38638 -2.96365 0
M  V30 7640 H 792.456 -3.55331 -1.56081 0
M  V30 7641 H 790.557 -1.77952 -3.27359 0
M  V30 7642 H 790.67 -3.65545 -3.09699 0
M  V30 7643 H 789.034 -1.87936 -1.71907 0
M  V30 7644 H 789.817 -3.32035 -0.872209 0
M  V30 7645 N 792.262 0.832906 -1.33792 0
M  V30 7646 C 793.49 1.62048 -1.28639 0
M  V30 7647 C 793.905 1.88269 0.141522 0
M  V30 7648 O 793.262 1.46706 1.08553 0
M  V30 7649 C 793.313 2.96722 -2.0649 0
M  V30 7650 O 793.034 2.7165 -3.43712 0
M  V30 7651 C 794.535 3.91144 -2.08617 0
M  V30 7652 H 791.755 0.504032 -0.442937 0
M  V30 7653 H 794.299 1.03704 -1.76255 0
M  V30 7654 H 792.454 3.51652 -1.62541 0
M  V30 7655 H 792.868 3.57453 -3.83833 0
M  V30 7656 H 794.342 4.82837 -2.67531 0
M  V30 7657 H 794.819 4.25766 -1.07796 0
M  V30 7658 H 795.425 3.42152 -2.52611 0
M  V30 7659 N 793.74 1.17359 1.05189 0
M  V30 7660 C 795.156 0.920861 1.30355 0
M  V30 7661 C 795.356 -0.419993 1.97074 0
M  V30 7662 O 794.412 -1.15696 2.24434 0
M  V30 7663 C 795.725 2.07818 2.1733 0
M  V30 7664 C 797.273 2.1152 2.30712 0
M  V30 7665 C 797.748 3.26637 3.21048 0
M  V30 7666 N 799.239 3.26426 3.28634 0
M  V30 7667 C 799.974 4.12141 3.98657 0
M  V30 7668 N 799.47 5.07966 4.71107 0
M  V30 7669 N 801.263 4.00091 3.94821 0
M  V30 7670 H 793.414 2.03666 0.602821 0
M  V30 7671 H 795.677 0.889294 0.328421 0
M  V30 7672 H 795.383 3.04727 1.75597 0
M  V30 7673 H 795.257 2.02922 3.17966 0
M  V30 7674 H 797.644 1.15196 2.71687 0
M  V30 7675 H 797.725 2.20477 1.29706 0
M  V30 7676 H 797.369 4.23227 2.80788 0
M  V30 7677 H 797.299 3.14917 4.2206 0
M  V30 7678 H 799.79 2.57045 2.77013 0
M  V30 7679 H 800.103 5.69766 5.22099 0
M  V30 7680 H 798.448 5.11936 4.7005 0
M  V30 7681 H 801.639 3.24523 3.37346 0
M  V30 7682 H 801.812 4.6711 4.49123 0
M  V30 7683 N 795.218 -1.23913 0.973828 0
M  V30 7684 C 796.128 -2.28838 0.516735 0
M  V30 7685 C 797.144 -1.68723 -0.425282 0
M  V30 7686 O 798.32 -1.99201 -0.296819 0
M  V30 7687 C 795.385 -3.46233 -0.179914 0
M  V30 7688 C 794.446 -4.21729 0.80269 0
M  V30 7689 C 793.679 -5.33518 0.139191 0
M  V30 7690 O 793.902 -5.60252 -1.07118 0
M  V30 7691 O 792.836 -5.96088 0.834447 0
M  V30 7692 H 796.662 -2.70067 1.38916 0
M  V30 7693 H 794.247 -1.2972 0.74115 0
M  V30 7694 H 796.129 -4.17514 -0.570991 0
M  V30 7695 H 794.804 -3.06969 -1.02721 0
M  V30 7696 H 793.711 -3.52799 1.24434 0
M  V30 7697 H 795.044 -4.64825 1.61859 0
M  V30 7698 N 796.696 -0.74468 -1.38897 0
M  V30 7699 C 798.107 -0.36568 -1.83084 0
M  V30 7700 C 798.458 1.10436 -1.62168 0
M  V30 7701 O 797.583 1.85281 -1.11804 0
M  V30 7702 C 798.178 -0.656946 -3.3237 0
M  V30 7703 C 796.737 -0.331329 -3.74939 0
M  V30 7704 C 795.884 -0.914661 -2.61781 0
M  V30 7705 H 798.835 -0.941551 -1.27752 0
M  V30 7706 H 798.856 0.0679546 -3.80439 0
M  V30 7707 H 798.368 -1.72693 -3.47561 0
M  V30 7708 H 796.469 0.732426 -3.6533 0
M  V30 7709 H 796.582 -0.820655 -4.72019 0
M  V30 7710 H 794.946 -0.34063 -2.52412 0
M  V30 7711 H 795.729 -1.98949 -2.79775 0
M  V30 7712 N 798.174 1.49689 -0.493057 0
M  V30 7713 C 799.121 2.28976 0.28959 0
M  V30 7714 C 800.091 1.35011 0.967536 0
M  V30 7715 O 801.276 1.63964 0.975736 0
M  V30 7716 C 798.416 3.1748 1.35279 0
M  V30 7717 C 797.529 4.26496 0.687418 0
M  V30 7718 C 796.664 5.02226 1.73038 0
M  V30 7719 C 795.703 6.03089 1.04645 0
M  V30 7720 N 794.84 6.72014 2.03325 0
M  V30 7721 H 799.68 2.954 -0.392798 0
M  V30 7722 H 797.217 1.45657 -0.205554 0
M  V30 7723 H 799.175 3.67162 1.98111 0
M  V30 7724 H 797.805 2.53057 2.00405 0
M  V30 7725 H 796.857 3.80362 -0.0540001 0
M  V30 7726 H 798.169 4.98578 0.14864 0
M  V30 7727 H 797.323 5.55737 2.43395 0
M  V30 7728 H 796.062 4.29899 2.303 0
M  V30 7729 H 795.067 5.48817 0.328606 0
M  V30 7730 H 796.292 6.77398 0.480428 0
M  V30 7731 H 794.238 6.02464 2.59564 0
M  V30 7732 H 794.155 7.40046 1.54492 0
M  V30 7733 H 795.423 7.30133 2.72995 0
M  V30 7734 N 799.652 0.226554 1.55963 0
M  V30 7735 C 800.599 -0.681504 2.20509 0
M  V30 7736 C 801.569 -1.1866 1.16229 0
M  V30 7737 O 802.754 -1.24478 1.44602 0
M  V30 7738 C 799.894 -1.88183 2.89277 0
M  V30 7739 C 799.007 -1.41517 4.08163 0
M  V30 7740 C 798.142 -2.57346 4.647 0
M  V30 7741 C 797.181 -2.07441 5.75877 0
M  V30 7742 N 796.318 -3.16561 6.26685 0
M  V30 7743 H 801.158 -0.124372 2.9774 0
M  V30 7744 H 798.695 -0.0496333 1.47016 0
M  V30 7745 H 800.653 -2.58666 3.27335 0
M  V30 7746 H 799.283 -2.41177 2.14555 0
M  V30 7747 H 798.335 -0.605099 3.75557 0
M  V30 7748 H 799.647 -1.00928 4.88482 0
M  V30 7749 H 798.801 -3.35903 5.05227 0
M  V30 7750 H 797.54 -3.01227 3.83554 0
M  V30 7751 H 796.545 -1.27347 5.34848 0
M  V30 7752 H 797.77 -1.64554 6.58862 0
M  V30 7753 H 795.716 -3.59914 5.48451 0
M  V30 7754 H 795.633 -2.80239 7.02141 0
M  V30 7755 H 796.901 -3.95238 6.71868 0
M  V30 7756 N 801.13 -1.57531 -0.0467866 0
M  V30 7757 C 802.376 -1.8873 -0.742218 0
M  V30 7758 C 802.709 -0.822084 -1.75941 0
M  V30 7759 O 801.984 0.164922 -1.938 0
M  V30 7760 C 802.267 -3.30586 -1.42776 0
M  V30 7761 C 802.12 -4.47785 -0.425285 0
M  V30 7762 C 803.439 -3.71068 -2.36636 0
M  V30 7763 H 800.558 -0.686406 -0.268359 0
M  V30 7764 H 803.2 -1.89999 -0.00511341 0
M  V30 7765 H 801.35 -3.29634 -2.05605 0
M  V30 7766 H 803.022 -4.60867 0.199721 0
M  V30 7767 H 801.265 -4.33037 0.25713 0
M  V30 7768 H 801.936 -5.43884 -0.943086 0
M  V30 7769 H 804.412 -3.73273 -1.83866 0
M  V30 7770 H 803.288 -4.71165 -2.81593 0
M  V30 7771 H 803.549 -3.02355 -3.22542 0
M  V30 7772 N 802.608 0.318715 -1.54344 0
M  V30 7773 C 803.571 1.37545 -1.83342 0
M  V30 7774 C 804.571 1.445 -0.705444 0
M  V30 7775 O 805.761 1.44443 -0.973752 0
M  V30 7776 C 802.893 2.76225 -1.99781 0
M  V30 7777 H 804.086 1.13084 -2.77762 0
M  V30 7778 H 801.639 0.554457 -1.46135 0
M  V30 7779 H 802.374 3.05934 -1.07588 0
M  V30 7780 H 802.159 2.7257 -2.81865 0
M  V30 7781 H 803.649 3.52664 -2.23647 0
M  V30 7782 N 804.086 1.46499 0.581025 0
M  V30 7783 C 805.332 1.52121 1.34116 0
M  V30 7784 C 805.665 0.173031 1.93428 0
M  V30 7785 O 804.94 -0.815729 1.76568 0
M  V30 7786 C 805.223 2.62108 2.46924 0
M  V30 7787 C 805.076 4.06462 1.92636 0
M  V30 7788 C 806.395 2.68167 3.48962 0
M  V30 7789 H 803.514 0.5538 0.486287 0
M  V30 7790 H 806.156 1.78443 0.652538 0
M  V30 7791 H 804.306 2.39794 3.05665 0
M  V30 7792 H 805.978 4.40068 1.3834 0
M  V30 7793 H 804.221 4.15862 1.23455 0
M  V30 7794 H 804.892 4.79152 2.74076 0
M  V30 7795 H 807.368 2.8823 3.00104 0
M  V30 7796 H 806.244 3.46942 4.2535 0
M  V30 7797 H 806.505 1.74284 4.06297 0
M  V30 7798 N 805.565 -0.825799 1.34232 0
M  V30 7799 C 806.811 -1.58419 1.26614 0
M  V30 7800 C 807.144 -1.93503 -0.164341 0
M  V30 7801 O 806.419 -1.59785 -1.109 0
M  V30 7802 C 806.702 -2.8856 2.15418 0
M  V30 7803 C 806.555 -2.60075 3.66989 0
M  V30 7804 C 807.874 -3.90107 2.03726 0
M  V30 7805 H 804.993 -0.574794 0.461282 0
M  V30 7806 H 807.635 -0.951519 1.64457 0
M  V30 7807 H 805.785 -3.42553 1.83275 0
M  V30 7808 H 807.457 -2.12414 4.09485 0
M  V30 7809 H 805.7 -1.93565 3.88221 0
M  V30 7810 H 806.371 -3.52866 4.24488 0
M  V30 7811 H 808.847 -3.45459 2.31942 0
M  V30 7812 H 807.723 -4.78976 2.68092 0
M  V30 7813 H 807.984 -4.30329 1.01337 0
M  V30 7814 N 807.043 -1.17915 -1.04565 0
M  V30 7815 C 808.459 -0.927761 -1.29864 0
M  V30 7816 C 808.659 0.409536 -1.97294 0
M  V30 7817 O 807.715 1.14505 -2.25044 0
M  V30 7818 C 809.028 -2.08967 -2.16225 0
M  V30 7819 C 810.576 -2.12741 -2.29587 0
M  V30 7820 C 811.051 -3.28335 -3.19312 0
M  V30 7821 N 812.542 -3.28164 -3.26898 0
M  V30 7822 C 813.277 -4.14249 -3.96466 0
M  V30 7823 N 812.773 -5.10457 -4.68407 0
M  V30 7824 N 814.566 -4.02179 -3.92694 0
M  V30 7825 H 806.717 -2.03983 -0.592011 0
M  V30 7826 H 808.98 -0.891023 -0.323701 0
M  V30 7827 H 808.686 -3.05654 -1.73979 0
M  V30 7828 H 808.56 -2.04606 -3.16885 0
M  V30 7829 H 810.947 -1.16636 -2.71072 0
M  V30 7830 H 811.028 -2.21162 -1.28535 0
M  V30 7831 H 810.672 -4.2471 -2.78539 0
M  V30 7832 H 810.602 -3.17151 -4.20384 0
M  V30 7833 H 813.093 -2.58511 -2.75646 0
M  V30 7834 H 813.406 -5.72526 -5.1907 0
M  V30 7835 H 811.751 -5.14422 -4.67328 0
M  V30 7836 H 814.942 -3.26308 -3.3562 0
M  V30 7837 H 815.115 -4.69486 -4.4664 0
M  V30 7838 N 808.521 1.23394 -0.980386 0
M  V30 7839 C 809.749 1.95844 -0.667286 0
M  V30 7840 C 810.164 1.72574 0.765735 0
M  V30 7841 O 809.521 1.01715 1.51526 0
M  V30 7842 C 809.572 3.48844 -0.948151 0
M  V30 7843 O 809.293 3.71325 -2.32485 0
M  V30 7844 C 810.794 4.38494 -0.651002 0
M  V30 7845 H 808.014 0.623535 -0.247882 0
M  V30 7846 H 810.558 1.56885 -1.31176 0
M  V30 7847 H 808.713 3.85819 -0.349681 0
M  V30 7848 H 809.127 4.65619 -2.41452 0
M  V30 7849 H 810.601 5.44648 -0.897887 0
M  V30 7850 H 811.078 4.37236 0.414922 0
M  V30 7851 H 811.684 4.07127 -1.22995 0
M  V30 7852 N 809.999 0.752036 1.385 0
M  V30 7853 C 811.41 0.375385 1.82887 0
M  V30 7854 C 811.761 -1.09575 1.62751 0
M  V30 7855 O 810.886 -1.84685 1.12785 0
M  V30 7856 C 811.481 0.674563 3.32017 0
M  V30 7857 C 810.04 0.351208 3.74758 0
M  V30 7858 C 809.187 0.928531 2.61292 0
M  V30 7859 H 812.138 0.948313 1.27251 0
M  V30 7860 H 812.159 -0.0477781 3.8047 0
M  V30 7861 H 811.671 1.74533 3.46641 0
M  V30 7862 H 809.772 -0.713042 3.65714 0
M  V30 7863 H 809.885 0.845675 4.71577 0
M  V30 7864 H 808.249 0.354012 2.52228 0
M  V30 7865 H 809.032 2.0043 2.78716 0
M  V30 7866 N 811.477 -1.49425 0.500989 0
M  V30 7867 C 812.888 -1.86624 0.0532011 0
M  V30 7868 C 813.239 -1.41331 -1.36088 0
M  V30 7869 O 812.364 -0.791195 -2.01418 0
M  V30 7870 C 812.959 -3.38681 0.0897693 0
M  V30 7871 C 811.518 -3.75181 -0.302677 0
M  V30 7872 C 810.665 -2.73419 0.462307 0
M  V30 7873 H 813.616 -1.41743 0.713773 0
M  V30 7874 H 813.637 -3.73902 -0.705528 0
M  V30 7875 H 813.149 -3.71616 1.11907 0
M  V30 7876 H 811.25 -3.47855 -1.33521 0
M  V30 7877 H 811.363 -4.79097 0.0167653 0
M  V30 7878 H 809.727 -2.54548 -0.0878557 0
M  V30 7879 H 810.51 -3.09198 1.49169 0
M  V30 7880 N 812.955 -0.234822 -1.55841 0
M  V30 7881 C 813.902 0.6698 -2.20867 0
M  V30 7882 C 814.872 1.18042 -1.16856 0
M  V30 7883 O 816.057 1.23709 -1.45261 0
M  V30 7884 C 813.197 1.86646 -2.90271 0
M  V30 7885 C 812.31 1.39351 -4.08908 0
M  V30 7886 C 811.445 2.54878 -4.66059 0
M  V30 7887 C 810.484 2.04384 -5.76969 0
M  V30 7888 N 809.621 3.13233 -6.28355 0
M  V30 7889 H 814.461 0.10858 -2.97802 0
M  V30 7890 H 811.998 0.041836 -1.4704 0
M  V30 7891 H 813.956 2.56926 -3.28702 0
M  V30 7892 H 812.586 2.40035 -2.15831 0
M  V30 7893 H 811.638 0.585173 -3.75872 0
M  V30 7894 H 812.95 0.983356 -4.89011 0
M  V30 7895 H 812.104 3.33219 -5.07001 0
M  V30 7896 H 810.843 2.99188 -3.85146 0
M  V30 7897 H 809.848 1.24509 -5.35516 0
M  V30 7898 H 811.073 1.61057 -6.59725 0
M  V30 7899 H 809.019 3.57 -5.50352 0
M  V30 7900 H 808.936 2.76511 -7.03618 0
M  V30 7901 H 810.204 3.91669 -6.73955 0
M  V30 7902 N 814.433 1.57553 0.0384317 0
M  V30 7903 C 815.658 1.93485 0.746872 0
M  V30 7904 C 816.083 0.834069 1.68597 0
M  V30 7905 O 815.441 -0.210902 1.80069 0
M  V30 7906 C 815.489 3.28463 1.4881 0
M  V30 7907 O 814.593 3.20051 2.60079 0
M  V30 7908 H 813.934 0.632675 0.201539 0
M  V30 7909 H 816.464 2.046 -0.00329815 0
M  V30 7910 H 816.474 3.63132 1.86009 0
M  V30 7911 H 815.149 4.08147 0.799297 0
M  V30 7912 H 813.726 2.96998 2.25492 0
M  V30 7913 N 815.911 -0.310526 1.54511 0
M  V30 7914 C 817.322 -0.884142 1.64438 0
M  V30 7915 C 817.673 -1.88425 0.546855 0
M  V30 7916 O 816.798 -2.14049 -0.31811 0
M  V30 7917 C 817.393 -1.6104 2.9808 0
M  V30 7918 C 815.952 -2.13255 3.1016 0
M  V30 7919 C 815.099 -0.96213 2.60074 0
M  V30 7920 H 818.05 -0.0877666 1.58457 0
M  V30 7921 H 818.071 -2.47541 2.8897 0
M  V30 7922 H 817.583 -0.882255 3.77939 0
M  V30 7923 H 815.684 -2.89145 2.35002 0
M  V30 7924 H 815.797 -2.37361 4.16169 0
M  V30 7925 H 814.161 -1.34501 2.16291 0
M  V30 7926 H 814.944 -0.248098 3.42402 0
M  V30 7927 N 817.389 -1.46805 -0.573248 0
M  V30 7928 C 818.614 -1.56433 -1.36175 0
M  V30 7929 C 819.039 -0.209336 -1.86932 0
M  V30 7930 O 818.397 0.812146 -1.62092 0
M  V30 7931 C 818.445 -2.58055 -2.51873 0
M  V30 7932 O 817.549 -2.12214 -3.53609 0
M  V30 7933 H 816.89 -0.526068 -0.405153 0
M  V30 7934 H 819.42 -1.92456 -0.694405 0
M  V30 7935 H 819.43 -2.77966 -2.98662 0
M  V30 7936 H 818.105 -3.56448 -2.14284 0
M  V30 7937 H 816.682 -2.02333 -3.13234 0
M  V30 7938 N 818.867 0.818669 -1.34668 0
M  V30 7939 C 820.092 1.61193 -1.30505 0
M  V30 7940 C 820.517 1.87734 0.117341 0
M  V30 7941 O 819.875 1.45591 1.08042 0
M  V30 7942 C 819.923 2.92733 -2.1057 0
M  V30 7943 O 819.027 3.85 -1.47813 0
M  V30 7944 H 818.368 0.490085 -0.44801 0
M  V30 7945 H 820.898 1.01701 -1.77534 0
M  V30 7946 H 820.908 3.42262 -2.22082 0
M  V30 7947 H 819.583 2.7274 -3.13984 0
M  V30 7948 H 818.16 3.43525 -1.45069 0
M  V30 7949 N 820.346 1.18468 1.03938 0
M  V30 7950 C 821.309 0.914944 2.10146 0
M  V30 7951 C 822.309 -0.10022 1.60487 0
M  V30 7952 O 823.499 0.133365 1.73689 0
M  V30 7953 C 820.631 0.372993 3.38853 0
M  V30 7954 H 821.824 1.85677 2.35508 0
M  V30 7955 H 819.377 0.996876 1.20383 0
M  V30 7956 H 820.112 -0.57538 3.19155 0
M  V30 7957 H 819.897 1.1048 3.76213 0
M  V30 7958 H 821.387 0.203014 4.17106 0
M  V30 7959 N 821.824 -1.22873 0.986916 0
M  V30 7960 C 822.771 -2.2458 0.532215 0
M  V30 7961 C 823.741 -1.60375 -0.432322 0
M  V30 7962 O 824.926 -1.87775 -0.338416 0
M  V30 7963 C 822.066 -3.44761 -0.152864 0
M  V30 7964 C 821.179 -4.23501 0.852704 0
M  V30 7965 C 820.314 -5.31011 0.14176 0
M  V30 7966 C 819.353 -6.01464 1.1361 0
M  V30 7967 N 818.49 -7.00631 0.453871 0
M  V30 7968 H 823.33 -2.62838 1.40428 0
M  V30 7969 H 820.867 -1.29185 0.703543 0
M  V30 7970 H 822.825 -4.1333 -0.566926 0
M  V30 7971 H 821.455 -3.07284 -0.988756 0
M  V30 7972 H 820.507 -3.54286 1.38512 0
M  V30 7973 H 821.819 -4.72097 1.61014 0
M  V30 7974 H 820.973 -6.05805 -0.329337 0
M  V30 7975 H 819.712 -4.83373 -0.648229 0
M  V30 7976 H 818.717 -5.25456 1.61789 0
M  V30 7977 H 819.942 -6.5119 1.92686 0
M  V30 7978 H 817.888 -6.55235 -0.316791 0
M  V30 7979 H 817.805 -7.47204 1.14986 0
M  V30 7980 H 819.073 -7.795 0.00537823 0
M  V30 7981 N 823.302 -0.75937 -1.38099 0
M  V30 7982 C 824.527 -0.327859 -2.04792 0
M  V30 7983 C 824.952 1.03752 -1.56899 0
M  V30 7984 O 824.31 1.66235 -0.723581 0
M  V30 7985 C 824.358 -0.366264 -3.58735 0
M  V30 7986 O 823.462 0.637697 -4.0744 0
M  V30 7987 H 822.803 -0.144092 -0.648177 0
M  V30 7988 H 825.333 -1.03211 -1.7666 0
M  V30 7989 H 825.343 -0.219179 -4.07411 0
M  V30 7990 H 824.018 -1.36243 -3.92951 0
M  V30 7991 H 822.595 0.454749 -3.70117 0
M  V30 7992 N 824.78 1.49157 -0.508906 0
M  V30 7993 C 826.196 1.58741 -0.165372 0
M  V30 7994 C 826.396 1.5133 1.33047 0
M  V30 7995 O 825.452 1.39135 2.10707 0
M  V30 7996 C 826.765 2.91217 -0.749194 0
M  V30 7997 C 828.313 3.047 -0.716015 0
M  V30 7998 C 828.788 4.39807 -1.27804 0
M  V30 7999 N 830.279 4.46319 -1.23908 0
M  V30 8000 C 831.014 5.49325 -1.64406 0
M  V30 8001 N 830.51 6.59395 -2.12534 0
M  V30 8002 N 832.303 5.40084 -1.55773 0
M  V30 8003 H 824.454 1.52217 -1.48134 0
M  V30 8004 H 826.717 0.721514 -0.614915 0
M  V30 8005 H 826.423 3.02233 -1.79856 0
M  V30 8006 H 826.297 3.76592 -0.214144 0
M  V30 8007 H 828.684 2.9331 0.324535 0
M  V30 8008 H 828.765 2.2099 -1.2883 0
M  V30 8009 H 828.409 4.5195 -2.31741 0
M  V30 8010 H 828.339 5.2217 -0.681623 0
M  V30 8011 H 830.83 3.67354 -0.886537 0
M  V30 8012 H 831.143 7.34102 -2.41485 0
M  V30 8013 H 829.488 6.60414 -2.16513 0
M  V30 8014 H 832.679 4.52986 -1.17987 0
M  V30 8015 H 832.852 6.20233 -1.87657 0
M  V30 8016 N 826.258 0.243083 1.55714 0
M  V30 8017 C 827.188 -0.652336 2.24203 0
M  V30 8018 C 828.169 -1.1843 1.221 0
M  V30 8019 O 829.354 -1.22435 1.50743 0
M  V30 8020 C 826.484 -1.85111 2.93856 0
M  V30 8021 C 825.438 -1.45208 4.02615 0
M  V30 8022 C 824.764 -2.73137 4.59674 0
M  V30 8023 C 826.064 -0.625988 5.18535 0
M  V30 8024 H 827.758 -0.0812504 2.9929 0
M  V30 8025 H 825.304 -0.0376388 1.43951 0
M  V30 8026 H 827.257 -2.48314 3.40468 0
M  V30 8027 H 825.981 -2.44751 2.16251 0
M  V30 8028 H 824.64 -0.843406 3.56766 0
M  V30 8029 H 824.288 -3.30967 3.78774 0
M  V30 8030 H 823.988 -2.47163 5.33089 0
M  V30 8031 H 825.512 -3.37245 5.09017 0
M  V30 8032 H 826.926 -1.16223 5.61396 0
M  V30 8033 H 825.323 -0.462465 5.98315 0
M  V30 8034 H 826.393 0.362652 4.83542 0
M  V30 8035 N 827.736 -1.57571 -0.0300757 0
M  V30 8036 C 828.668 -2.0329 -1.05857 0
M  V30 8037 C 829.681 -0.945543 -1.32527 0
M  V30 8038 O 830.87 -1.22287 -1.30032 0
M  V30 8039 C 827.97 -2.39234 -2.40042 0
M  V30 8040 C 827.143 -3.70337 -2.32743 0
M  V30 8041 C 826.202 -3.93482 -3.49369 0
M  V30 8042 O 825.228 -4.64551 -3.28909 0
M  V30 8043 N 826.43 -3.39042 -4.71201 0
M  V30 8044 H 829.195 -2.9214 -0.668897 0
M  V30 8045 H 826.756 -1.60425 -0.218038 0
M  V30 8046 H 828.748 -2.51856 -3.16782 0
M  V30 8047 H 827.318 -1.5606 -2.70858 0
M  V30 8048 H 826.538 -3.68079 -1.41109 0
M  V30 8049 H 827.826 -4.56343 -2.25007 0
M  V30 8050 H 827.224 -2.81434 -4.90725 0
M  V30 8051 H 825.781 -3.57045 -5.45309 0
M  V30 8052 N 829.214 0.302327 -1.54673 0
M  V30 8053 C 830.442 1.05669 -1.77881 0
M  V30 8054 C 830.857 1.80983 -0.537648 0
M  V30 8055 O 830.214 1.7573 0.492467 0
M  V30 8056 C 830.265 2.03828 -2.98557 0
M  V30 8057 O 829.986 1.3157 -4.17877 0
M  V30 8058 C 831.487 2.91314 -3.34143 0
M  V30 8059 H 828.707 0.313436 -0.593295 0
M  V30 8060 H 831.251 0.342003 -2.0162 0
M  V30 8061 H 829.406 2.70801 -2.7703 0
M  V30 8062 H 829.82 1.97481 -4.85903 0
M  V30 8063 H 831.294 3.56042 -4.21827 0
M  V30 8064 H 831.771 3.59544 -2.52239 0
M  V30 8065 H 832.377 2.29874 -3.57824 0
M  V30 8066 N 830.692 1.47107 0.565454 0
M  V30 8067 C 831.655 1.58535 1.65527 0
M  V30 8068 C 832.655 0.461081 1.54048 0
M  V30 8069 O 833.845 0.725911 1.58355 0
M  V30 8070 C 830.977 1.52204 3.05036 0
M  V30 8071 H 832.17 2.55676 1.56747 0
M  V30 8072 H 829.723 1.35174 0.78471 0
M  V30 8073 H 830.458 0.564071 3.19357 0
M  V30 8074 H 830.243 2.3379 3.14777 0
M  V30 8075 H 831.733 1.63322 3.84338 0
M  V30 8076 N 832.17 -0.811516 1.35101 0
M  V30 8077 C 833.581 -1.38515 1.25182 0
M  V30 8078 C 833.932 -1.95846 -0.117883 0
M  V30 8079 O 833.057 -1.90925 -1.01866 0
M  V30 8080 C 833.652 -2.51813 2.26662 0
M  V30 8081 C 832.211 -3.05052 2.20499 0
M  V30 8082 C 831.358 -1.77987 2.12641 0
M  V30 8083 H 834.309 -0.614959 1.46301 0
M  V30 8084 H 834.33 -3.30228 1.89023 0
M  V30 8085 H 833.842 -2.10057 3.2634 0
M  V30 8086 H 831.943 -3.51285 1.24215 0
M  V30 8087 H 832.056 -3.63368 3.1225 0
M  V30 8088 H 830.42 -1.99342 1.5854 0
M  V30 8089 H 831.203 -1.38389 3.14171 0
M  V30 8090 N 833.648 -1.19017 -1.03309 0
M  V30 8091 C 834.894 -0.991681 -1.769 0
M  V30 8092 C 835.227 0.476813 -1.88255 0
M  V30 8093 O 834.502 1.35407 -1.39625 0
M  V30 8094 C 834.785 -1.65627 -3.19749 0
M  V30 8095 C 834.638 -3.19813 -3.1629 0
M  V30 8096 C 835.957 -1.37579 -4.18043 0
M  V30 8097 H 833.076 -0.361674 -0.642153 0
M  V30 8098 H 835.718 -1.46795 -1.20628 0
M  V30 8099 H 833.868 -1.25132 -3.67796 0
M  V30 8100 H 835.54 -3.69494 -2.76174 0
M  V30 8101 H 833.783 -3.51578 -2.54117 0
M  V30 8102 H 834.454 -3.61457 -4.17196 0
M  V30 8103 H 836.93 -1.72679 -3.78578 0
M  V30 8104 H 835.806 -1.86636 -5.16196 0
M  V30 8105 H 836.067 -0.300118 -4.4108 0
M  V30 8106 N 835.127 1.22348 -0.993418 0
M  V30 8107 C 836.538 1.72893 -0.704616 0
M  V30 8108 C 836.889 1.80095 0.778483 0
M  V30 8109 O 836.014 1.4476 1.60853 0
M  V30 8110 C 836.609 3.14 -1.27237 0
M  V30 8111 C 835.168 3.61949 -1.03294 0
M  V30 8112 C 834.315 2.39816 -1.39225 0
M  V30 8113 H 837.266 1.07688 -1.16572 0
M  V30 8114 H 837.287 3.74886 -0.651212 0
M  V30 8115 H 836.799 3.08727 -2.3518 0
M  V30 8116 H 834.9 3.72588 0.0298329 0
M  V30 8117 H 835.013 4.48051 -1.69668 0
M  V30 8118 H 833.377 2.41448 -0.810849 0
M  V30 8119 H 834.16 2.37203 -2.48172 0
M  V30 8120 N 836.605 0.766683 1.37694 0
M  V30 8121 C 837.538 0.0959288 2.27998 0
M  V30 8122 C 838.516 -0.714493 1.46061 0
M  V30 8123 O 839.7 -0.690337 1.75404 0
M  V30 8124 C 836.827 -0.87057 3.27321 0
M  V30 8125 C 835.873 -0.144771 4.26254 0
M  V30 8126 S 836.706 1.16365 5.22704 0
M  V30 8127 C 837.862 0.200564 6.25579 0
M  V30 8128 H 838.095 0.861666 2.84539 0
M  V30 8129 H 835.628 0.559845 1.43893 0
M  V30 8130 H 837.586 -1.42282 3.85053 0
M  V30 8131 H 836.247 -1.60938 2.69737 0
M  V30 8132 H 835.44 -0.877259 4.96307 0
M  V30 8133 H 835.042 0.33633 3.72485 0
M  V30 8134 H 837.334 -0.628833 6.74575 0
M  V30 8135 H 838.277 0.869117 7.02746 0
M  V30 8136 H 838.685 -0.185972 5.64194 0
M  V30 8137 N 838.083 -1.48885 0.516809 0
M  V30 8138 C 839.494 -1.86557 0.0729921 0
M  V30 8139 C 839.845 -1.42767 -1.34581 0
M  V30 8140 O 838.97 -0.812514 -2.00567 0
M  V30 8141 C 839.565 -3.38567 0.125686 0
M  V30 8142 C 838.124 -3.75481 -0.262867 0
M  V30 8143 C 837.271 -2.72913 0.491281 0
M  V30 8144 H 840.222 -1.40978 0.728767 0
M  V30 8145 H 840.243 -3.74629 -0.665831 0
M  V30 8146 H 839.755 -3.70408 1.15842 0
M  V30 8147 H 837.856 -3.49251 -1.29824 0
M  V30 8148 H 837.969 -4.79052 0.067579 0
M  V30 8149 H 836.333 -2.54627 -0.0608525 0
M  V30 8150 H 837.116 -3.07599 1.5244 0
M  V30 8151 N 839.561 -0.251338 -1.55583 0
M  V30 8152 C 840.838 0.422729 -1.90977 0
M  V30 8153 C 841.218 1.75534 -1.17265 0
M  V30 8154 O 840.566 2.26632 -0.291588 0
M  V30 8155 C 840.776 0.586448 -3.44037 0
M  V30 8156 C 842.124 0.880294 -4.15375 0
M  V30 8157 O 843.148 0.672148 -3.49801 0
M  V30 8158 O 842.007 1.27694 -5.31372 0
M  V30 8159 H 839.101 0.227622 -0.795058 0
M  V30 8160 H 841.647 -0.295733 -1.67103 0
M  V30 8161 H 840.419 -0.352327 -3.89711 0
M  V30 8162 H 840.042 1.35528 -3.73789 0
M  V30 8163 N 841.039 1.57585 0.0217189 0
M  V30 8164 C 841.969 2.10073 1.01939 0
M  V30 8165 C 842.95 1.0049 1.37243 0
M  V30 8166 O 844.135 1.28055 1.45999 0
M  V30 8167 C 841.265 2.58618 2.31806 0
M  V30 8168 C 840.219 3.72531 2.10724 0
M  V30 8169 C 839.545 4.07309 3.46415 0
M  V30 8170 C 840.845 5.00672 1.48743 0
M  V30 8171 H 842.539 2.9368 0.582432 0
M  V30 8172 H 840.085 1.41277 0.278715 0
M  V30 8173 H 842.038 2.9396 3.01936 0
M  V30 8174 H 840.762 1.72104 2.77575 0
M  V30 8175 H 839.421 3.37549 1.43025 0
M  V30 8176 H 839.069 3.17851 3.89846 0
M  V30 8177 H 838.769 4.84042 3.33132 0
M  V30 8178 H 840.293 4.45192 4.17895 0
M  V30 8179 H 841.707 5.33925 2.088 0
M  V30 8180 H 840.104 5.82065 1.46013 0
M  V30 8181 H 841.174 4.82769 0.45408 0
M  V30 8182 N 842.517 -0.29412 1.54831 0
M  V30 8183 C 843.464 -1.36296 1.86258 0
M  V30 8184 C 844.434 -1.50061 0.712097 0
M  V30 8185 O 845.619 -1.64809 0.961381 0
M  V30 8186 C 842.759 -2.72187 2.12151 0
M  V30 8187 C 841.872 -2.66816 3.39755 0
M  V30 8188 C 841.007 -3.94747 3.55455 0
M  V30 8189 C 840.046 -3.838 4.76827 0
M  V30 8190 N 839.183 -5.03521 4.89296 0
M  V30 8191 H 844.023 -1.08796 2.7743 0
M  V30 8192 H 841.56 -0.526069 1.37371 0
M  V30 8193 H 843.518 -3.51225 2.25159 0
M  V30 8194 H 842.148 -2.97934 1.24237 0
M  V30 8195 H 841.2 -1.79605 3.3533 0
M  V30 8196 H 842.512 -2.5462 4.28917 0
M  V30 8197 H 841.666 -4.82223 3.68166 0
M  V30 8198 H 840.405 -4.09785 2.64438 0
M  V30 8199 H 839.41 -2.94708 4.64141 0
M  V30 8200 H 840.635 -3.70301 5.69258 0
M  V30 8201 H 838.581 -5.1901 4.01204 0
M  V30 8202 H 838.498 -4.93775 5.72471 0
M  V30 8203 H 839.766 -5.92629 5.06371 0
M  V30 8204 N 843.995 -1.47404 -0.557645 0
M  V30 8205 C 844.943 -1.60265 -1.68576 0
M  V30 8206 C 845.937 -0.469982 -1.6275 0
M  V30 8207 O 847.143 -0.647764 -1.67941 0
M  V30 8208 H 843.518 -0.504353 -0.557792 0
M  V30 8209 H 845.489 -2.55066 -1.54867 0
M  V30 8210 C 844.238 -1.63369 -3.0693 0
M  V30 8211 H 843.561 -2.49874 -3.12095 0
M  V30 8212 H 845.001 -1.76417 -3.85556 0
M  V30 8213 C 843.46 -0.366921 -3.34896 0
M  V30 8214 O 843.99 0.53218 -3.98159 0
M  V30 8215 N 842.196 -0.247082 -2.89548 0
M  V30 8216 H 841.743 -0.979669 -2.38244 0
M  V30 8217 H 841.701 0.599552 -3.0863 0
M  V30 8218 N 845.473 0.80434 -1.35529 0
M  V30 8219 C 846.719 1.56385 -1.29118 0
M  V30 8220 C 847.052 1.9374 0.133536 0
M  V30 8221 O 846.327 1.6153 1.08344 0
M  V30 8222 C 846.61 2.85097 -2.19981 0
M  V30 8223 C 846.463 2.54204 -3.7108 0
M  V30 8224 C 847.782 3.86817 -2.09907 0
M  V30 8225 H 844.901 0.567382 -0.470368 0
M  V30 8226 H 847.543 0.925235 -1.6595 0
M  V30 8227 H 845.693 3.39594 -1.88701 0
M  V30 8228 H 847.365 2.05872 -4.12813 0
M  V30 8229 H 845.608 1.87364 -3.91251 0
M  V30 8230 H 846.279 3.46068 -4.30048 0
M  V30 8231 H 848.755 3.41725 -2.37409 0
M  V30 8232 H 847.631 4.7465 -2.75678 0
M  V30 8233 H 847.892 4.28663 -1.08171 0
M  V30 8234 N 846.951 1.19563 1.02676 0
M  V30 8235 C 847.898 0.935291 2.11 0
M  V30 8236 C 848.868 -0.130685 1.65585 0
M  V30 8237 O 850.053 0.0119062 1.90796 0
M  V30 8238 C 847.193 0.482384 3.41712 0
M  V30 8239 C 846.306 1.61537 4.00662 0
M  V30 8240 C 845.441 1.11378 5.19392 0
M  V30 8241 C 844.48 2.22052 5.70403 0
M  V30 8242 N 843.617 1.73185 6.80405 0
M  V30 8243 H 848.457 1.86275 2.32606 0
M  V30 8244 H 845.994 0.928656 1.14081 0
M  V30 8245 H 847.952 0.20118 4.16715 0
M  V30 8246 H 846.582 -0.408086 3.2021 0
M  V30 8247 H 845.634 2.01173 3.22852 0
M  V30 8248 H 846.946 2.44912 4.34534 0
M  V30 8249 H 846.1 0.787935 6.01562 0
M  V30 8250 H 844.839 0.249789 4.8706 0
M  V30 8251 H 843.844 2.55465 4.86845 0
M  V30 8252 H 845.069 3.08911 6.04774 0
M  V30 8253 H 843.015 0.890973 6.49921 0
M  V30 8254 H 842.932 2.50148 7.13416 0
M  V30 8255 H 844.2 1.4357 7.66164 0
M  V30 8256 N 848.429 -1.21819 0.999893 0
M  V30 8257 C 849.654 -1.95298 0.698094 0
M  V30 8258 C 850.079 -1.73273 -0.731982 0
M  V30 8259 O 849.437 -1.01634 -1.50134 0
M  V30 8260 C 849.485 -3.45922 1.01834 0
M  V30 8261 O 848.589 -4.12223 0.120801 0
M  V30 8262 H 847.93 -0.610729 0.260588 0
M  V30 8263 H 850.46 -1.5472 1.33876 0
M  V30 8264 H 850.47 -3.96471 0.963074 0
M  V30 8265 H 849.145 -3.61278 2.06037 0
M  V30 8266 H 847.722 -3.72177 0.232153 0
M  V30 8267 N 849.908 -0.773975 -1.37286 0
M  V30 8268 C 850.855 -0.159938 -2.30245 0
M  V30 8269 C 851.825 0.687356 -1.51211 0
M  V30 8270 O 853.01 0.639255 -1.79773 0
M  V30 8271 C 850.15 0.711452 -3.37687 0
M  V30 8272 C 849.263 -0.152692 -4.3173 0
M  V30 8273 C 848.398 0.723613 -5.26248 0
M  V30 8274 C 847.437 -0.14293 -6.11933 0
M  V30 8275 N 846.574 0.691479 -6.98687 0
M  V30 8276 H 851.414 -0.958182 -2.82175 0
M  V30 8277 H 848.951 -0.48411 -1.38906 0
M  V30 8278 H 850.909 1.2315 -3.9861 0
M  V30 8279 H 849.539 1.47528 -2.87116 0
M  V30 8280 H 848.591 -0.790574 -3.72094 0
M  V30 8281 H 849.903 -0.821027 -4.91997 0
M  V30 8282 H 849.057 1.31006 -5.92387 0
M  V30 8283 H 847.796 1.42562 -4.66398 0
M  V30 8284 H 846.801 -0.7419 -5.44771 0
M  V30 8285 H 848.026 -0.842305 -6.73856 0
M  V30 8286 H 845.972 1.37806 -6.41362 0
M  V30 8287 H 845.889 0.0804911 -7.55957 0
M  V30 8288 H 847.157 1.26225 -7.69212 0
M  V30 8289 N 851.386 1.48609 -0.524698 0
M  V30 8290 C 852.635 2.01696 0.0132937 0
M  V30 8291 C 852.948 1.40751 1.35825 0
M  V30 8292 O 854.154 1.85304 1.9843 0
M  V30 8293 C 852.61 3.59824 0.0741012 0
M  V30 8294 C 852.218 4.2975 -1.26564 0
M  V30 8295 C 853.962 4.20774 0.5612 0
M  V30 8296 C 851.869 5.79798 -1.16571 0
M  V30 8297 H 850.799 0.753949 0.00873931 0
M  V30 8298 H 853.45 1.70922 -0.667684 0
M  V30 8299 H 851.832 3.87416 0.820043 0
M  V30 8300 H 853.006 4.13836 -2.02674 0
M  V30 8301 H 851.321 3.80649 -1.68806 0
M  V30 8302 H 853.918 5.30687 0.653853 0
M  V30 8303 H 854.261 3.85734 1.56573 0
M  V30 8304 H 854.794 3.97591 -0.128901 0
M  V30 8305 H 851.533 6.19403 -2.14523 0
M  V30 8306 H 851.053 5.9814 -0.445894 0
M  V30 8307 H 852.732 6.41337 -0.854186 0
M  V30 8308 N 852.864 0.259585 1.55447 0
M  V30 8309 C 854.112 -0.360893 1.98852 0
M  V30 8310 C 854.433 -1.57535 1.14924 0
M  V30 8311 O 853.703 -1.94485 0.235025 0
M  V30 8312 H 852.283 -0.136332 0.734454 0
M  V30 8313 H 854.945 0.361319 1.91522 0
M  V30 8314 H 854.041 -0.661388 3.05012 0
M  V30 8315 N 854.342 -1.57594 -0.0133615 0
M  V30 8316 C 855.567 -1.94649 -0.715996 0
M  V30 8317 C 855.992 -0.860786 -1.67249 0
M  V30 8318 O 855.35 0.182228 -1.80382 0
M  V30 8319 C 855.398 -3.30789 -1.43566 0
M  V30 8320 O 854.502 -3.24148 -2.54955 0
M  V30 8321 H 853.843 -0.635801 -0.191449 0
M  V30 8322 H 856.373 -2.04569 0.0358478 0
M  V30 8323 H 856.383 -3.66045 -1.80208 0
M  V30 8324 H 855.058 -4.09367 -0.734263 0
M  V30 8325 H 853.635 -3.00548 -2.20739 0
M  V30 8326 N 855.82 0.285905 -1.54985 0
M  V30 8327 C 857.048 1.03776 -1.78992 0
M  V30 8328 C 857.463 1.80402 -0.556814 0
M  V30 8329 O 856.82 1.76242 0.473801 0
M  V30 8330 C 856.871 2.0065 -3.00702 0
M  V30 8331 O 856.592 1.27131 -4.19249 0
M  V30 8332 C 858.093 2.87753 -3.37214 0
M  V30 8333 H 855.313 0.307126 -0.596586 0
M  V30 8334 H 857.857 0.3206 -2.01971 0
M  V30 8335 H 856.012 2.67847 -2.79887 0
M  V30 8336 H 856.426 1.92316 -4.8797 0
M  V30 8337 H 857.9 3.51548 -4.2558 0
M  V30 8338 H 858.377 3.56848 -2.56039 0
M  V30 8339 H 858.983 2.26065 -3.60242 0
M  V30 8340 N 857.298 1.47698 0.54982 0
M  V30 8341 C 858.208 1.63386 1.68351 0
M  V30 8342 C 859.224 0.516583 1.66155 0
M  V30 8343 O 860.4 0.785088 1.85468 0
M  V30 8344 C 857.465 1.6513 3.04849 0
M  V30 8345 C 856.526 2.88338 3.18056 0
M  V30 8346 C 855.759 2.8999 4.48042 0
M  V30 8347 O 855.982 2.00633 5.3395 0
M  V30 8348 O 854.916 3.81938 4.65196 0
M  V30 8349 H 858.742 2.59329 1.58057 0
M  V30 8350 H 856.327 1.30869 0.72067 0
M  V30 8351 H 858.209 1.68913 3.86065 0
M  V30 8352 H 856.884 0.723555 3.1551 0
M  V30 8353 H 855.791 2.90097 2.36209 0
M  V30 8354 H 857.124 3.80431 3.12302 0
M  V30 8355 N 858.776 -0.797141 1.35954 0
M  V30 8356 C 859.724 -1.93084 1.29697 0
M  V30 8357 C 860.718 -1.68329 0.190152 0
M  V30 8358 O 861.924 -1.7643 0.3567 0
M  V30 8359 H 858.299 -0.634531 0.403577 0
M  V30 8360 H 860.27 -1.95481 2.25455 0
M  V30 8361 C 859.019 -3.29996 1.09536 0
M  V30 8362 H 858.342 -3.49607 1.93946 0
M  V30 8363 H 859.782 -4.09696 1.09202 0
M  V30 8364 C 858.241 -3.36304 -0.200381 0
M  V30 8365 O 858.771 -3.83579 -1.19291 0
M  V30 8366 N 856.977 -2.89587 -0.242406 0
M  V30 8367 H 856.524 -2.51307 0.565897 0
M  V30 8368 H 856.482 -2.94189 -1.10906 0
M  V30 8369 N 860.254 -1.20106 -1.0204 0
M  V30 8370 C 861.184 -0.970301 -2.12385 0
M  V30 8371 C 862.165 0.099378 -1.69809 0
M  V30 8372 O 863.35 -0.057365 -1.94115 0
M  V30 8373 C 860.48 -0.517431 -3.43424 0
M  V30 8374 C 859.434 -1.52992 -3.99722 0
M  V30 8375 C 858.76 -0.933817 -5.26483 0
M  V30 8376 C 860.06 -2.91257 -4.33551 0
M  V30 8377 H 861.754 -1.89316 -2.31948 0
M  V30 8378 H 859.3 -0.911655 -1.11467 0
M  V30 8379 H 861.253 -0.343243 -4.2 0
M  V30 8380 H 859.977 0.441049 -3.23608 0
M  V30 8381 H 858.636 -1.6914 -3.2525 0
M  V30 8382 H 858.284 0.0324763 -5.0299 0
M  V30 8383 H 857.984 -1.60999 -5.65113 0
M  V30 8384 H 859.508 -0.770614 -6.05718 0
M  V30 8385 H 860.922 -2.78642 -5.0103 0
M  V30 8386 H 859.319 -3.55745 -4.83286 0
M  V30 8387 H 860.389 -3.43269 -3.42483 0
M  V30 8388 N 861.732 1.21287 -1.00634 0
M  V30 8389 C 862.679 2.23705 -0.567876 0
M  V30 8390 C 863.649 1.61043 0.406753 0
M  V30 8391 O 864.834 1.88289 0.308499 0
M  V30 8392 C 861.974 3.44961 0.097996 0
M  V30 8393 C 861.087 4.22091 -0.919972 0
M  V30 8394 C 860.222 5.30718 -0.226222 0
M  V30 8395 C 859.261 5.99581 -1.23165 0
M  V30 8396 N 858.398 6.99821 -0.565278 0
M  V30 8397 H 863.238 2.60571 -1.44592 0
M  V30 8398 H 860.775 1.28049 -0.724006 0
M  V30 8399 H 862.733 4.1418 0.501097 0
M  V30 8400 H 861.363 3.08818 0.939744 0
M  V30 8401 H 860.415 3.52038 -1.44131 0
M  V30 8402 H 861.727 4.69476 -1.68505 0
M  V30 8403 H 860.881 6.06253 0.232917 0
M  V30 8404 H 859.62 4.84343 0.571247 0
M  V30 8405 H 858.625 5.22816 -1.70128 0
M  V30 8406 H 859.85 6.48042 -2.03022 0
M  V30 8407 H 857.796 6.55656 0.212508 0
M  V30 8408 H 857.713 7.4528 -1.26858 0
M  V30 8409 H 858.981 7.79393 -0.129389 0
M  V30 8410 N 863.21 0.781244 1.36873 0
M  V30 8411 C 864.16 0.147313 2.27524 0
M  V30 8412 C 865.144 -0.663928 1.46563 0
M  V30 8413 O 866.336 -0.525343 1.69024 0
M  V30 8414 C 863.465 -0.723511 3.35589 0
M  V30 8415 C 862.551 0.0960763 4.23991 0
M  V30 8416 N 862.942 1.14649 4.92635 0
M  V30 8417 C 861.24 -0.126397 4.45821 0
M  V30 8418 C 861.941 1.64474 5.57964 0
M  V30 8419 N 860.917 0.955316 5.3514 0
M  V30 8420 H 864.719 0.951406 2.78075 0
M  V30 8421 H 862.233 0.619913 1.50103 0
M  V30 8422 H 864.23 -1.19351 3.99451 0
M  V30 8423 H 862.89 -1.52624 2.86594 0
M  V30 8424 H 863.901 1.5288 4.94821 0
M  V30 8425 H 860.578 -0.900284 4.07678 0
M  V30 8426 H 861.968 2.52124 6.22803 0
M  V30 8427 N 864.689 -1.48329 0.532571 0
M  V30 8428 C 865.621 -2.27652 -0.265931 0
M  V30 8429 C 866.634 -1.35522 -0.902083 0
M  V30 8430 O 867.823 -1.60552 -0.780088 0
M  V30 8431 C 864.923 -3.0899 -1.39207 0
M  V30 8432 C 864.096 -4.28915 -0.857349 0
M  V30 8433 C 863.155 -4.92044 -1.86493 0
M  V30 8434 O 862.181 -5.51181 -1.42084 0
M  V30 8435 N 863.383 -4.84518 -3.19723 0
M  V30 8436 H 866.148 -2.96821 0.414389 0
M  V30 8437 H 863.709 -1.57684 0.367066 0
M  V30 8438 H 865.701 -3.48091 -2.06433 0
M  V30 8439 H 864.271 -2.42224 -1.97601 0
M  V30 8440 H 863.491 -3.94199 -0.00901765 0
M  V30 8441 H 864.779 -5.0654 -0.479025 0
M  V30 8442 H 864.177 -4.37628 -3.58467 0
M  V30 8443 H 862.734 -5.27712 -3.82575 0
M  V30 8444 N 866.167 -0.267825 -1.55308 0
M  V30 8445 C 867.578 0.231344 -1.85261 0
M  V30 8446 C 867.929 1.56006 -1.18982 0
M  V30 8447 O 867.054 2.1111 -0.475554 0
M  V30 8448 C 867.649 0.426537 -3.36104 0
M  V30 8449 C 866.208 0.869945 -3.66209 0
M  V30 8450 C 865.355 -0.0409522 -2.7727 0
M  V30 8451 H 868.306 -0.489821 -1.50952 0
M  V30 8452 H 868.327 1.26616 -3.58816 0
M  V30 8453 H 867.839 -0.540678 -3.84315 0
M  V30 8454 H 865.94 1.84889 -3.23492 0
M  V30 8455 H 866.053 0.712316 -4.73775 0
M  V30 8456 H 864.417 0.474097 -2.50249 0
M  V30 8457 H 865.2 -1.00392 -3.28293 0
M  V30 8458 N 867.645 1.57599 0.00500368 0
M  V30 8459 C 868.893 1.89973 0.68953 0
M  V30 8460 C 869.214 0.868531 1.7459 0
M  V30 8461 O 868.484 -0.0947367 1.95671 0
M  V30 8462 H 867.064 0.701153 0.25767 0
M  V30 8463 H 869.726 1.94869 -0.0347392 0
M  V30 8464 H 868.822 2.89584 1.16394 0
M  V30 8465 N 869.123 -0.277682 1.55134 0
M  V30 8466 C 870.371 -1.00791 1.75173 0
M  V30 8467 C 870.692 -1.86987 0.553266 0
M  V30 8468 O 869.962 -1.91079 -0.43195 0
M  V30 8469 H 868.542 -0.375129 0.645978 0
M  V30 8470 H 871.204 -0.303041 1.9253 0
M  V30 8471 H 870.3 -1.64756 2.6507 0
M  V30 8472 N 870.601 -1.47988 -0.541979 0
M  V30 8473 C 871.849 -1.55086 -1.29587 0
M  V30 8474 C 872.17 -0.221304 -1.9374 0
M  V30 8475 O 871.44 0.756128 -1.80719 0
M  V30 8476 H 870.02 -0.571307 -0.481266 0
M  V30 8477 H 872.682 -1.8438 -0.631675 0
M  V30 8478 H 871.778 -2.32556 -2.08144 0
M  V30 8479 N 872.079 0.78992 -1.36375 0
M  V30 8480 C 873.026 1.90254 -1.3066 0
M  V30 8481 C 873.996 1.65171 -0.17539 0
M  V30 8482 O 875.181 1.87338 -0.361824 0
M  V30 8483 C 872.321 3.27057 -1.10125 0
M  V30 8484 C 871.434 3.64215 -2.32317 0
M  V30 8485 C 870.569 4.90134 -2.04798 0
M  V30 8486 C 869.608 5.19969 -3.22953 0
M  V30 8487 N 868.745 6.37071 -2.95102 0
M  V30 8488 H 873.585 1.94474 -2.25796 0
M  V30 8489 H 871.122 0.951022 -1.12223 0
M  V30 8490 H 873.08 4.05947 -0.962453 0
M  V30 8491 H 871.71 3.22261 -0.186444 0
M  V30 8492 H 870.762 2.80454 -2.57002 0
M  V30 8493 H 872.074 3.82212 -3.20492 0
M  V30 8494 H 871.228 5.76888 -1.87845 0
M  V30 8495 H 869.967 4.74205 -1.13932 0
M  V30 8496 H 868.972 4.31699 -3.40465 0
M  V30 8497 H 870.197 5.37817 -4.14644 0
M  V30 8498 H 868.143 6.22535 -2.06848 0
M  V30 8499 H 868.06 6.55398 -3.76815 0
M  V30 8500 H 869.328 7.26808 -2.81727 0
M  V30 8501 N 873.557 1.20646 1.01402 0
M  V30 8502 C 874.803 1.0197 1.753 0
M  V30 8503 C 875.136 -0.446803 1.8899 0
M  V30 8504 O 874.411 -1.33169 1.41762 0
M  V30 8505 C 874.694 1.70693 3.17074 0
M  V30 8506 C 874.547 3.24805 3.11162 0
M  V30 8507 C 875.866 1.44212 4.15802 0
M  V30 8508 H 872.985 0.371844 0.636318 0
M  V30 8509 H 875.627 1.48696 1.18277 0
M  V30 8510 H 873.777 1.30968 3.65759 0
M  V30 8511 H 875.449 3.73841 2.70261 0
M  V30 8512 H 873.692 3.55576 2.48492 0
M  V30 8513 H 874.363 3.68049 4.11393 0
M  V30 8514 H 876.839 1.7868 3.75783 0
M  V30 8515 H 875.715 1.94825 5.13161 0
M  V30 8516 H 875.976 0.370252 4.40547 0
M  V30 8517 N 875.035 -1.20752 1.01276 0
M  V30 8518 C 875.967 -2.22798 0.537917 0
M  V30 8519 C 876.98 -1.5836 -0.377638 0
M  V30 8520 O 878.169 -1.77624 -0.176599 0
M  V30 8521 C 875.269 -3.38068 -0.237364 0
M  V30 8522 C 874.442 -4.32095 0.679161 0
M  V30 8523 C 873.501 -5.26178 -0.0478676 0
M  V30 8524 O 872.527 -5.66305 0.573366 0
M  V30 8525 N 873.729 -5.65201 -1.32396 0
M  V30 8526 H 876.494 -2.64166 1.4155 0
M  V30 8527 H 874.055 -1.35254 0.889826 0
M  V30 8528 H 876.047 -3.98009 -0.73288 0
M  V30 8529 H 874.617 -2.95622 -1.0162 0
M  V30 8530 H 873.837 -3.70179 1.35505 0
M  V30 8531 H 875.125 -4.91842 1.30263 0
M  V30 8532 H 874.523 -5.34606 -1.84968 0
M  V30 8533 H 873.08 -6.27468 -1.76428 0
M  V30 8534 N 876.513 -0.788492 -1.36457 0
M  V30 8535 C 877.762 -0.357052 -1.98515 0
M  V30 8536 C 878.075 1.0769 -1.63285 0
M  V30 8537 O 879.281 1.61057 -2.1857 0
M  V30 8538 C 877.737 -0.587449 -3.55073 0
M  V30 8539 C 877.345 -2.03276 -3.99228 0
M  V30 8540 C 879.089 -0.220468 -4.23927 0
M  V30 8541 C 876.996 -2.20987 -5.48561 0
M  V30 8542 H 875.926 -0.129762 -0.74275 0
M  V30 8543 H 878.577 -0.969995 -1.55767 0
M  V30 8544 H 876.959 0.0951918 -3.95886 0
M  V30 8545 H 878.133 -2.75173 -3.69617 0
M  V30 8546 H 876.448 -2.3579 -3.43208 0
M  V30 8547 H 879.045 -0.331085 -5.33674 0
M  V30 8548 H 879.388 0.831306 -4.07915 0
M  V30 8549 H 879.921 -0.856309 -3.88474 0
M  V30 8550 H 876.66 -3.24543 -5.69519 0
M  V30 8551 H 876.18 -1.53594 -5.79801 0
M  V30 8552 H 877.859 -2.01656 -6.14771 0
M  V30 8553 N 877.991 1.48044 -0.54043 0
M  V30 8554 C 879.24 2.01698 -0.00809961 0
M  V30 8555 C 879.553 1.42184 1.34325 0
M  V30 8556 O 880.759 1.87398 1.96454 0
M  V30 8557 C 879.215 3.59882 0.035933 0
M  V30 8558 C 878.823 4.28384 -1.31115 0
M  V30 8559 C 880.567 4.21346 0.51654 0
M  V30 8560 C 878.474 5.78529 -1.22714 0
M  V30 8561 H 877.404 0.754 0.000742174 0
M  V30 8562 H 880.055 1.70204 -0.685775 0
M  V30 8563 H 878.437 3.88264 0.778906 0
M  V30 8564 H 879.611 4.11663 -2.07051 0
M  V30 8565 H 877.926 3.78837 -1.72834 0
M  V30 8566 H 880.523 5.31351 0.597529 0
M  V30 8567 H 880.866 3.87373 1.52473 0
M  V30 8568 H 881.399 3.97432 -0.171064 0
M  V30 8569 H 878.138 6.17093 -2.21081 0
M  V30 8570 H 877.658 5.97634 -0.50931 0
M  V30 8571 H 879.337 6.40395 -0.92216 0
M  V30 8572 N 879.47 0.276058 1.55163 0
M  V30 8573 C 880.418 -0.626978 2.2399 0
M  V30 8574 C 881.412 -1.15708 1.23725 0
M  V30 8575 O 882.618 -1.1106 1.41653 0
M  V30 8576 H 878.993 -0.220742 0.718872 0
M  V30 8577 H 880.964 -0.0236569 2.98391 0
M  V30 8578 C 879.713 -1.79935 2.97521 0
M  V30 8579 H 879.036 -1.40064 3.74463 0
M  V30 8580 H 880.476 -2.40781 3.48999 0
M  V30 8581 C 878.935 -2.68838 2.03046 0
M  V30 8582 O 879.465 -3.69224 1.58229 0
M  V30 8583 N 877.671 -2.36028 1.69527 0
M  V30 8584 H 877.218 -1.54442 2.06169 0
M  V30 8585 H 877.176 -2.95782 1.06586 0
M  V30 8586 N 880.948 -1.576 0.00335426 0
M  V30 8587 C 881.895 -2.08632 -0.986975 0
M  V30 8588 C 882.865 -0.982491 -1.33927 0
M  V30 8589 O 884.05 -1.25513 -1.43705 0
M  V30 8590 C 881.19 -2.59705 -2.27261 0
M  V30 8591 C 880.303 -3.84002 -1.97905 0
M  V30 8592 C 879.438 -4.23563 -3.20574 0
M  V30 8593 C 878.477 -5.40688 -2.8692 0
M  V30 8594 N 877.614 -5.75526 -4.02136 0
M  V30 8595 H 882.454 -2.92977 -0.544855 0
M  V30 8596 H 879.991 -1.44831 -0.257376 0
M  V30 8597 H 881.949 -2.87395 -3.02423 0
M  V30 8598 H 880.579 -1.7823 -2.69136 0
M  V30 8599 H 879.631 -3.63199 -1.13096 0
M  V30 8600 H 880.943 -4.69261 -1.69102 0
M  V30 8601 H 880.097 -4.52554 -4.04079 0
M  V30 8602 H 878.836 -3.37019 -3.52518 0
M  V30 8603 H 877.841 -5.11417 -2.01822 0
M  V30 8604 H 879.066 -6.2891 -2.5622 0
M  V30 8605 H 877.012 -4.9194 -4.33971 0
M  V30 8606 H 876.929 -6.55367 -3.76869 0
M  V30 8607 H 878.197 -6.0911 -4.8642 0
M  V30 8608 N 882.426 0.269451 -1.5528 0
M  V30 8609 C 883.373 1.33316 -1.88403 0
M  V30 8610 C 884.343 1.48909 -0.735881 0
M  V30 8611 O 885.528 1.63259 -0.987479 0
M  V30 8612 C 882.668 2.68778 -2.16454 0
M  V30 8613 C 881.781 2.61377 -3.43956 0
M  V30 8614 C 880.916 3.89042 -3.6169 0
M  V30 8615 C 879.955 3.76166 -4.82872 0
M  V30 8616 N 879.092 4.95673 -4.97245 0
M  V30 8617 H 883.932 1.04368 -2.79126 0
M  V30 8618 H 881.469 0.504147 -1.38191 0
M  V30 8619 H 883.427 3.47599 -2.30719 0
M  V30 8620 H 882.057 2.9592 -1.28961 0
M  V30 8621 H 881.109 1.74247 -3.38145 0
M  V30 8622 H 882.421 2.47764 -4.32914 0
M  V30 8623 H 881.575 4.76304 -3.75791 0
M  V30 8624 H 880.314 4.05526 -2.70924 0
M  V30 8625 H 879.319 2.87287 -4.68771 0
M  V30 8626 H 880.544 3.61198 -5.75077 0
M  V30 8627 H 878.49 5.12561 -4.09411 0
M  V30 8628 H 878.407 4.84605 -5.80254 0
M  V30 8629 H 879.675 5.84498 -5.15735 0
M  V30 8630 N 883.904 1.48273 0.534124 0
M  V30 8631 C 884.834 1.6538 1.64839 0
M  V30 8632 C 885.815 0.502741 1.62501 0
M  V30 8633 O 887 0.734799 1.79762 0
M  V30 8634 C 884.13 1.68949 3.03436 0
M  V30 8635 C 883.084 2.83513 3.20631 0
M  V30 8636 C 882.41 2.72169 4.60248 0
M  V30 8637 C 883.71 4.24858 3.03797 0
M  V30 8638 H 885.404 2.58663 1.50777 0
M  V30 8639 H 882.95 1.24479 0.723937 0
M  V30 8640 H 884.903 1.79505 3.81256 0
M  V30 8641 H 883.627 0.722415 3.1851 0
M  V30 8642 H 882.286 2.72505 2.45227 0
M  V30 8643 H 881.934 1.7344 4.72152 0
M  V30 8644 H 881.634 3.49042 4.72698 0
M  V30 8645 H 883.158 2.84687 5.40172 0
M  V30 8646 H 884.572 4.36721 3.71413 0
M  V30 8647 H 882.969 5.02697 3.27743 0
M  V30 8648 H 884.039 4.41611 2.0027 0
M  V30 8649 N 885.382 -0.782676 1.36792 0
M  V30 8650 C 886.659 -1.52939 1.21939 0
M  V30 8651 C 887.039 -2.10228 -0.191639 0
M  V30 8652 O 886.387 -1.94574 -1.19805 0
M  V30 8653 C 886.597 -2.61898 2.30674 0
M  V30 8654 C 887.945 -3.29598 2.67676 0
M  V30 8655 O 888.969 -2.72186 2.29768 0
M  V30 8656 O 887.828 -4.3337 3.32946 0
M  V30 8657 H 884.922 -0.676856 0.47518 0
M  V30 8658 H 887.468 -0.82058 1.48542 0
M  V30 8659 H 886.24 -2.17607 3.25212 0
M  V30 8660 H 885.863 -3.40391 2.05475 0
M  V30 8661 N 886.86 -1.21182 -1.00761 0
M  V30 8662 C 887.79 -0.992773 -2.11344 0
M  V30 8663 C 888.771 0.0813618 -1.69905 0
M  V30 8664 O 889.956 -0.0779503 -1.94043 0
M  V30 8665 C 887.086 -0.553826 -3.42856 0
M  V30 8666 C 886.04 -1.57223 -3.98077 0
M  V30 8667 C 885.366 -0.989605 -5.25463 0
M  V30 8668 C 886.666 -2.95839 -4.30438 0
M  V30 8669 H 888.36 -1.91766 -2.29927 0
M  V30 8670 H 885.906 -0.923426 -1.10494 0
M  V30 8671 H 887.859 -0.387771 -4.19612 0
M  V30 8672 H 886.583 0.406702 -3.24058 0
M  V30 8673 H 885.242 -1.7258 -3.23437 0
M  V30 8674 H 884.89 -0.0208743 -5.02996 0
M  V30 8675 H 884.59 -1.66984 -5.63374 0
M  V30 8676 H 886.114 -0.834815 -6.04866 0
M  V30 8677 H 887.528 -2.8394 -4.98047 0
M  V30 8678 H 885.925 -3.60851 -4.79486 0
M  V30 8679 H 886.995 -3.46882 -3.38823 0
M  V30 8680 N 888.338 1.20213 -1.01915 0
M  V30 8681 C 889.563 1.94163 -0.729076 0
M  V30 8682 C 889.988 1.74416 0.704323 0
M  V30 8683 O 889.346 1.0401 1.48498 0
M  V30 8684 C 889.394 3.44258 -1.07324 0
M  V30 8685 O 888.498 4.11979 -0.186367 0
M  V30 8686 H 887.839 0.606506 -0.270272 0
M  V30 8687 H 890.369 1.52571 -1.3632 0
M  V30 8688 H 890.379 3.94888 -1.02603 0
M  V30 8689 H 889.054 3.57954 -2.11759 0
M  V30 8690 H 887.631 3.7176 -0.291334 0
M  V30 8691 N 889.816 0.795718 1.36037 0
M  V30 8692 C 890.764 0.18649 2.31851 0
M  V30 8693 C 891.758 -0.657704 1.56111 0
M  V30 8694 O 892.964 -0.552083 1.71324 0
M  V30 8695 H 889.339 0.0415363 0.750852 0
M  V30 8696 H 891.31 1.00992 2.8079 0
M  V30 8697 C 890.059 -0.65918 3.41394 0
M  V30 8698 H 889.382 -0.01894 3.99796 0
M  V30 8699 H 890.822 -1.05202 4.10741 0
M  V30 8700 C 889.281 -1.82011 2.83502 0
M  V30 8701 O 889.811 -2.91703 2.76174 0
M  V30 8702 N 888.017 -1.62821 2.40703 0
M  V30 8703 H 887.564 -0.735965 2.46863 0
M  V30 8704 H 887.522 -2.40657 2.02316 0
M  V30 8705 N 891.294 -1.47756 0.548274 0
M  V30 8706 C 892.54 -2.02789 0.0209265 0
M  V30 8707 C 892.873 -1.42268 -1.32187 0
M  V30 8708 O 892.148 -0.575001 -1.85806 0
M  V30 8709 C 892.431 -3.60007 -0.0816674 0
M  V30 8710 C 892.284 -4.30977 1.28759 0
M  V30 8711 C 893.603 -4.32777 -0.799515 0
M  V30 8712 H 890.722 -0.736944 0.00907884 0
M  V30 8713 H 893.364 -1.76282 0.708839 0
M  V30 8714 H 891.514 -3.82722 -0.667537 0
M  V30 8715 H 893.186 -4.19629 1.91597 0
M  V30 8716 H 891.429 -3.9168 1.86466 0
M  V30 8717 H 892.1 -5.39488 1.16861 0
M  V30 8718 H 894.576 -4.15001 -0.30216 0
M  V30 8719 H 893.452 -5.42431 -0.840239 0
M  V30 8720 H 893.713 -4.01358 -1.85375 0
M  V30 8721 N 892.772 -0.284283 -1.55015 0
M  V30 8722 C 893.704 0.63258 -2.20298 0
M  V30 8723 C 894.717 1.11045 -1.1905 0
M  V30 8724 O 895.906 1.03078 -1.4573 0
M  V30 8725 C 893.006 1.87599 -2.82241 0
M  V30 8726 C 892.179 1.5434 -4.09265 0
M  V30 8727 C 891.238 2.64023 -4.55169 0
M  V30 8728 O 890.264 2.29821 -5.20741 0
M  V30 8729 N 891.466 3.94255 -4.26079 0
M  V30 8730 H 894.231 0.0737928 -2.99609 0
M  V30 8731 H 891.792 -0.105767 -1.61554 0
M  V30 8732 H 893.784 2.60289 -3.0989 0
M  V30 8733 H 892.354 2.3436 -2.06868 0
M  V30 8734 H 891.574 0.649912 -3.88806 0
M  V30 8735 H 892.862 1.29634 -4.92009 0
M  V30 8736 H 892.26 4.24859 -3.73512 0
M  V30 8737 H 890.817 4.63295 -4.58477 0
M  V30 8738 N 894.251 1.57596 -0.0117121 0
M  V30 8739 C 895.476 1.95764 0.684938 0
M  V30 8740 C 895.901 0.887285 1.65858 0
M  V30 8741 O 895.259 -0.153508 1.80649 0
M  V30 8742 C 895.307 3.33031 1.38285 0
M  V30 8743 O 894.411 3.28163 2.49765 0
M  V30 8744 H 893.752 0.638767 0.181309 0
M  V30 8745 H 896.282 2.04486 -0.0683883 0
M  V30 8746 H 896.292 3.68866 1.74362 0
M  V30 8747 H 894.967 4.10483 0.669043 0
M  V30 8748 H 893.544 3.04021 2.15929 0
M  V30 8749 N 895.729 -0.261212 1.5542 0
M  V30 8750 C 896.676 -1.32315 1.89107 0
M  V30 8751 C 897.646 -1.48517 0.743767 0
M  V30 8752 O 898.831 -1.62733 0.996123 0
M  V30 8753 C 895.971 -2.67626 2.17877 0
M  V30 8754 C 895.084 -2.59549 3.45338 0
M  V30 8755 C 894.219 -3.87118 3.63748 0
M  V30 8756 C 893.258 -3.736 4.8486 0
M  V30 8757 N 892.395 -4.93029 4.99867 0
M  V30 8758 H 897.235 -1.02886 2.79675 0
M  V30 8759 H 894.772 -0.496812 1.38456 0
M  V30 8760 H 896.73 -3.4637 2.32559 0
M  V30 8761 H 895.36 -2.95232 1.30529 0
M  V30 8762 H 894.412 -1.72452 3.39064 0
M  V30 8763 H 895.724 -2.45465 4.34222 0
M  V30 8764 H 894.878 -4.74305 3.78312 0
M  V30 8765 H 893.617 -4.04084 2.73071 0
M  V30 8766 H 892.622 -2.84797 4.70288 0
M  V30 8767 H 893.847 -3.58143 5.76984 0
M  V30 8768 H 891.793 -5.10383 4.12123 0
M  V30 8769 H 891.71 -4.81521 5.82815 0
M  V30 8770 H 892.978 -5.81754 5.18828 0
M  V30 8771 N 897.207 -1.48554 -0.526253 0
M  V30 8772 C 898.447 -1.58362 -1.29232 0
M  V30 8773 C 898.811 -0.253353 -1.90321 0
M  V30 8774 O 900.012 -0.226439 -2.67845 0
M  V30 8775 C 898.283 -2.69294 -2.3498 0
M  V30 8776 S 899.842 -2.98891 -3.21262 0
M  V30 8777 H 896.66 -0.558859 -0.439543 0
M  V30 8778 H 899.262 -1.86094 -0.599099 0
M  V30 8779 H 897.966 -3.64504 -1.88587 0
M  V30 8780 H 897.497 -2.43475 -3.09004 0
M  V30 8781 H 899.512 -2.38475 -4.35137 0
M  V30 8782 N 898.685 0.775411 -1.37205 0
M  V30 8783 C 899.933 1.53081 -1.3195 0
M  V30 8784 C 900.254 1.9476 0.0966864 0
M  V30 8785 O 899.524 1.66019 1.03993 0
M  V30 8786 H 898.104 0.567762 -0.485444 0
M  V30 8787 H 900.766 0.92309 -1.71654 0
M  V30 8788 H 899.862 2.4319 -1.95614 0
M  V30 8789 N 900.163 1.21714 1.00117 0
M  V30 8790 C 901.388 1.06357 1.78054 0
M  V30 8791 C 901.813 -0.382075 1.84179 0
M  V30 8792 O 901.171 -1.27575 1.28819 0
M  V30 8793 C 901.219 1.66982 3.19608 0
M  V30 8794 O 900.323 0.917892 4.02055 0
M  V30 8795 H 899.664 0.374074 0.548602 0
M  V30 8796 H 902.194 1.61338 1.25822 0
M  V30 8797 H 902.204 1.71363 3.70268 0
M  V30 8798 H 900.879 2.72185 3.14465 0
M  V30 8799 H 899.456 0.949473 3.6061 0
M  V30 8800 N 901.641 -1.19671 1.02551 0
M  V30 8801 C 902.588 -2.22773 0.603394 0
M  V30 8802 C 903.558 -1.61669 -0.381081 0
M  V30 8803 O 904.743 -1.88756 -0.278505 0
M  V30 8804 C 901.883 -3.45073 -0.0431034 0
M  V30 8805 C 900.996 -4.20574 0.987006 0
M  V30 8806 C 900.131 -5.30291 0.310626 0
M  V30 8807 C 899.17 -5.97545 1.32688 0
M  V30 8808 N 898.307 -6.98833 0.676542 0
M  V30 8809 H 903.147 -2.58238 1.48719 0
M  V30 8810 H 900.684 -1.26881 0.744286 0
M  V30 8811 H 902.642 -4.14925 -0.435141 0
M  V30 8812 H 901.272 -3.10274 -0.890495 0
M  V30 8813 H 900.324 -3.497 1.49713 0
M  V30 8814 H 901.636 -4.66736 1.75952 0
M  V30 8815 H 900.79 -6.06547 -0.136438 0
M  V30 8816 H 899.529 -4.8519 -0.49412 0
M  V30 8817 H 898.534 -5.20043 1.78424 0
M  V30 8818 H 899.759 -6.4473 2.13306 0
M  V30 8819 H 897.705 -6.55911 -0.108172 0
M  V30 8820 H 897.622 -7.43168 1.38699 0
M  V30 8821 H 898.89 -7.79088 0.253367 0
M  V30 8822 N 903.119 -0.802921 -1.35613 0
M  V30 8823 C 904.396 -0.304993 -1.93208 0
M  V30 8824 C 904.776 1.20488 -1.73337 0
M  V30 8825 O 904.124 2.00268 -1.10022 0
M  V30 8826 C 904.334 -0.712383 -3.41652 0
M  V30 8827 C 905.682 -0.699785 -4.18794 0
M  V30 8828 O 906.706 -0.653698 -3.5015 0
M  V30 8829 O 905.565 -0.754842 -5.41262 0
M  V30 8830 H 902.659 -0.0789127 -0.823226 0
M  V30 8831 H 905.205 -0.886372 -1.44712 0
M  V30 8832 H 903.977 -1.75316 -3.49829 0
M  V30 8833 H 903.6 -0.105614 -3.9746 0
M  V30 8834 N 904.597 1.47463 -0.556102 0
M  V30 8835 C 905.545 2.31692 0.205299 0
M  V30 8836 C 906.539 1.42857 0.910394 0
M  V30 8837 O 907.745 1.59628 0.831806 0
M  V30 8838 H 904.12 0.747172 0.0850775 0
M  V30 8839 H 906.091 2.93758 -0.524305 0
M  V30 8840 C 904.84 3.25487 1.22283 0
M  V30 8841 H 904.163 3.93806 0.689697 0
M  V30 8842 H 905.603 3.87257 1.7265 0
M  V30 8843 C 904.062 2.48931 2.27013 0
M  V30 8844 O 904.592 2.23296 3.33919 0
M  V30 8845 N 902.798 2.0996 2.00911 0
M  V30 8846 H 902.345 2.31008 1.13986 0
M  V30 8847 H 902.303 1.59053 2.712 0
M  V30 8848 N 906.075 0.2925 1.54862 0
M  V30 8849 C 907.324 -0.319994 1.99146 0
M  V30 8850 C 907.637 -1.55658 1.18448 0
M  V30 8851 O 908.843 -2.24312 1.52959 0
M  V30 8852 C 907.299 -0.620665 3.54508 0
M  V30 8853 C 906.907 0.597098 4.44003 0
M  V30 8854 C 908.651 -1.19482 4.07338 0
M  V30 8855 C 906.558 0.270049 5.90783 0
M  V30 8856 H 905.488 -0.123342 0.743843 0
M  V30 8857 H 908.139 0.399876 1.7909 0
M  V30 8858 H 906.521 -1.3999 3.7043 0
M  V30 8859 H 907.695 1.37354 4.39853 0
M  V30 8860 H 906.01 1.0893 4.019 0
M  V30 8861 H 908.607 -1.45362 5.14562 0
M  V30 8862 H 908.95 -2.13435 3.57423 0
M  V30 8863 H 909.483 -0.477485 3.94924 0
M  V30 8864 H 906.222 1.17791 6.4483 0
M  V30 8865 H 905.742 -0.469292 5.97961 0
M  V30 8866 H 907.421 -0.131471 6.46866 0
M  V30 8867 N 907.553 -1.57587 0.0200696 0
M  V30 8868 C 908.5 -2.09667 -0.964791 0
M  V30 8869 C 909.47 -0.99664 -1.32877 0
M  V30 8870 O 910.655 -1.2703 -1.42366 0
M  V30 8871 C 907.795 -2.62101 -2.24493 0
M  V30 8872 C 906.908 -3.8608 -1.93821 0
M  V30 8873 C 906.043 -4.26939 -3.16064 0
M  V30 8874 C 905.082 -5.43701 -2.81169 0
M  V30 8875 N 904.219 -5.79759 -3.9601 0
M  V30 8876 H 909.059 -2.93538 -0.513751 0
M  V30 8877 H 906.596 -1.45096 -0.242 0
M  V30 8878 H 908.554 -2.90587 -2.99358 0
M  V30 8879 H 907.184 -1.81074 -2.6723 0
M  V30 8880 H 906.236 -3.64378 -1.09237 0
M  V30 8881 H 907.548 -4.71028 -1.64115 0
M  V30 8882 H 906.702 -4.56814 -3.99257 0
M  V30 8883 H 905.441 -3.40739 -3.48924 0
M  V30 8884 H 904.446 -5.13529 -1.96387 0
M  V30 8885 H 905.671 -6.31593 -2.49535 0
M  V30 8886 H 903.617 -4.96516 -4.28729 0
M  V30 8887 H 903.534 -6.59327 -3.69896 0
M  V30 8888 H 904.802 -6.14235 -4.79933 0
M  V30 8889 N 909.032 0.252966 -1.55557 0
M  V30 8890 C 909.982 1.31585 -1.86197 0
M  V30 8891 C 910.966 1.43773 -0.722357 0
M  V30 8892 O 912.158 1.47117 -0.984152 0
M  V30 8893 C 909.287 2.67245 -2.15487 0
M  V30 8894 C 908.373 2.59087 -3.3576 0
M  V30 8895 N 908.764 2.20556 -4.5518 0
M  V30 8896 C 907.062 2.90112 -3.3875 0
M  V30 8897 C 907.763 2.22881 -5.37307 0
M  V30 8898 N 906.739 2.62145 -4.76215 0
M  V30 8899 H 910.541 1.00835 -2.76061 0
M  V30 8900 H 908.055 0.461598 -1.55702 0
M  V30 8901 H 910.052 3.43944 -2.35602 0
M  V30 8902 H 908.712 2.98867 -1.26919 0
M  V30 8903 H 909.723 1.922 -4.80915 0
M  V30 8904 H 906.4 3.26313 -2.60434 0
M  V30 8905 H 907.79 1.95482 -6.42835 0
M  V30 8906 N 910.51 1.48831 0.518367 0
M  V30 8907 C 911.756 1.57672 1.27543 0
M  V30 8908 C 912.089 0.254915 1.9252 0
M  V30 8909 O 911.364 -0.740107 1.79868 0
M  V30 8910 C 911.647 2.72345 2.35585 0
M  V30 8911 C 911.5 4.14267 1.75224 0
M  V30 8912 C 912.819 2.82726 3.37274 0
M  V30 8913 H 909.938 0.573926 0.462361 0
M  V30 8914 H 912.58 1.8105 0.576267 0
M  V30 8915 H 910.73 2.52543 2.95219 0
M  V30 8916 H 912.402 4.45539 1.19551 0
M  V30 8917 H 910.645 4.20724 1.05706 0
M  V30 8918 H 911.316 4.90345 2.53507 0
M  V30 8919 H 913.792 3.00699 2.8761 0
M  V30 8920 H 912.668 3.6467 4.10252 0
M  V30 8921 H 912.929 1.9136 3.9854 0
M  V30 8922 N 911.988 -0.768124 1.37614 0
M  V30 8923 C 913.399 -1.34462 1.29525 0
M  V30 8924 C 913.75 -1.96121 -0.0555168 0
M  V30 8925 O 912.875 -1.94069 -0.957406 0
M  V30 8926 C 913.47 -2.44475 2.34558 0
M  V30 8927 C 912.029 -2.97883 2.30093 0
M  V30 8928 C 911.176 -1.71131 2.18196 0
M  V30 8929 H 914.127 -0.568103 1.48183 0
M  V30 8930 H 914.148 -3.24047 1.99434 0
M  V30 8931 H 913.66 -1.99568 3.32858 0
M  V30 8932 H 911.761 -3.47156 1.35328 0
M  V30 8933 H 911.874 -3.53251 3.23652 0
M  V30 8934 H 910.238 -1.94197 1.64802 0
M  V30 8935 H 911.021 -1.28323 3.18415 0
M  V30 8936 N 913.466 -1.22244 -0.994698 0
M  V30 8937 C 914.714 -1.04384 -1.73056 0
M  V30 8938 C 915.035 0.422204 -1.90374 0
M  V30 8939 O 914.305 1.30383 -1.46209 0
M  V30 8940 H 912.885 -0.383263 -0.641185 0
M  V30 8941 H 915.547 -1.53725 -1.1981 0
M  V30 8942 H 914.643 -1.52021 -2.72573 0
M  V30 8943 N 914.944 1.19125 -1.03184 0
M  V30 8944 C 916.192 1.8851 -0.728587 0
M  V30 8945 C 916.513 1.80195 0.74531 0
M  V30 8946 O 915.783 1.21437 1.5372 0
M  V30 8947 H 914.363 0.69784 -0.266511 0
M  V30 8948 H 917.025 1.44607 -1.3067 0
M  V30 8949 H 916.121 2.9477 -1.02554 0
M  V30 8950 N 916.422 0.810101 1.35185 0
M  V30 8951 C 917.67 0.391343 1.98275 0
M  V30 8952 C 917.991 -1.04592 1.64577 0
M  V30 8953 O 917.261 -1.72417 0.93001 0
M  V30 8954 H 915.841 0.141715 0.733434 0
M  V30 8955 H 918.503 1.03672 1.6504 0
M  V30 8956 H 917.599 0.49991 3.0807 0
M  V30 8957 N 917.9 -1.47166 0.563914 0
M  V30 8958 C 919.125 -2.0735 0.0454698 0
M  V30 8959 C 919.55 -1.41281 -1.24182 0
M  V30 8960 O 918.908 -0.490084 -1.7455 0
M  V30 8961 C 918.956 -3.60378 -0.126453 0
M  V30 8962 O 918.06 -3.94934 -1.18746 0
M  V30 8963 H 917.401 -0.661773 0.0543377 0
M  V30 8964 H 919.931 -1.89086 0.781508 0
M  V30 8965 H 919.941 -4.06593 -0.338554 0
M  V30 8966 H 918.616 -4.07862 0.81373 0
M  V30 8967 H 917.193 -3.60455 -0.955318 0
M  V30 8968 N 919.378 -0.300708 -1.54705 0
M  V30 8969 C 920.624 0.309111 -2.0043 0
M  V30 8970 C 920.957 1.53562 -1.1888 0
M  V30 8971 O 920.232 1.92683 -0.265205 0
M  V30 8972 C 920.515 0.665995 -3.53888 0
M  V30 8973 C 920.368 -0.56963 -4.46178 0
M  V30 8974 C 921.687 1.49262 -4.14016 0
M  V30 8975 H 918.806 0.110878 -0.728612 0
M  V30 8976 H 921.448 -0.412748 -1.85463 0
M  V30 8977 H 919.598 1.281 -3.66773 0
M  V30 8978 H 921.27 -1.20811 -4.45199 0
M  V30 8979 H 919.513 -1.20292 -4.16788 0
M  V30 8980 H 920.184 -0.275785 -5.51311 0
M  V30 8981 H 922.66 0.972979 -4.04564 0
M  V30 8982 H 921.536 1.71111 -5.21548 0
M  V30 8983 H 921.797 2.48174 -3.65872 0
M  V30 8984 N 920.856 1.57574 -0.0284266 0
M  V30 8985 C 921.788 2.07079 0.982391 0
M  V30 8986 C 922.801 0.994078 1.28926 0
M  V30 8987 O 923.99 1.27028 1.25404 0
M  V30 8988 C 921.09 2.47978 2.30998 0
M  V30 8989 C 920.263 3.7872 2.18838 0
M  V30 8990 C 919.322 4.06177 3.34524 0
M  V30 8991 O 918.348 4.76438 3.11441 0
M  V30 8992 N 919.55 3.56297 4.58293 0
M  V30 8993 H 922.315 2.94421 0.560011 0
M  V30 8994 H 919.876 1.61124 0.158347 0
M  V30 8995 H 921.868 2.63439 3.07216 0
M  V30 8996 H 920.438 1.66005 2.64879 0
M  V30 8997 H 919.658 3.73062 1.27351 0
M  V30 8998 H 920.946 4.6438 2.07915 0
M  V30 8999 H 920.344 2.99453 4.79942 0
M  V30 9000 H 918.901 3.77038 5.31682 0
M  V30 9001 N 922.334 -0.244713 1.55689 0
M  V30 9002 C 923.583 -0.970373 1.76824 0
M  V30 9003 C 923.896 -1.86402 0.592764 0
M  V30 9004 O 925.102 -2.62659 0.687186 0
M  V30 9005 C 923.558 -1.77547 3.13058 0
M  V30 9006 C 923.166 -0.929104 4.3826 0
M  V30 9007 C 924.91 -2.49373 3.43531 0
M  V30 9008 C 922.817 -1.73021 5.65524 0
M  V30 9009 H 921.747 -0.366048 0.659185 0
M  V30 9010 H 924.398 -0.224964 1.82116 0
M  V30 9011 H 922.78 -2.56291 3.01879 0
M  V30 9012 H 923.954 -0.183836 4.60433 0
M  V30 9013 H 922.269 -0.324071 4.15137 0
M  V30 9014 H 924.866 -3.09767 4.35831 0
M  V30 9015 H 925.209 -3.21099 2.64955 0
M  V30 9016 H 925.742 -1.77637 3.55935 0
M  V30 9017 H 922.481 -1.05666 6.46927 0
M  V30 9018 H 922.001 -2.45071 5.47449 0
M  V30 9019 H 923.68 -2.2968 6.0486 0
M  V30 9020 N 923.813 -1.49104 -0.510467 0
M  V30 9021 C 925.059 -1.58346 -1.26705 0
M  V30 9022 C 925.392 -0.265121 -1.92382 0
M  V30 9023 O 924.667 0.730558 -1.80258 0
M  V30 9024 C 924.95 -2.7359 -2.34137 0
M  V30 9025 C 924.803 -4.1519 -1.73024 0
M  V30 9026 C 926.122 -2.84511 -3.3577 0
M  V30 9027 H 923.241 -0.57637 -0.459311 0
M  V30 9028 H 925.883 -1.81353 -0.566658 0
M  V30 9029 H 924.033 -2.54105 -2.93876 0
M  V30 9030 H 925.705 -4.46167 -1.17186 0
M  V30 9031 H 923.948 -4.21279 -1.03473 0
M  V30 9032 H 924.619 -4.91683 -2.50903 0
M  V30 9033 H 927.095 -3.0222 -2.86011 0
M  V30 9034 H 925.971 -3.6684 -4.08313 0
M  V30 9035 H 926.232 -1.93471 -3.97519 0
M  V30 9036 N 925.291 0.760815 -1.38019 0
M  V30 9037 C 926.521 1.54776 -1.3685 0
M  V30 9038 C 926.929 1.89146 0.0453971 0
M  V30 9039 O 926.272 1.52746 1.0205 0
M  V30 9040 C 926.334 2.87923 -2.15269 0
M  V30 9041 C 925.998 2.76131 -3.64144 0
M  V30 9042 C 926.995 2.46417 -4.57794 0
M  V30 9043 C 924.68 2.9381 -4.07408 0
M  V30 9044 C 926.674 2.34525 -5.92686 0
M  V30 9045 C 924.361 2.81539 -5.42383 0
M  V30 9046 C 925.359 2.51938 -6.34836 0
M  V30 9047 O 925.047 2.39713 -7.67329 0
M  V30 9048 H 924.779 0.485776 -0.470104 0
M  V30 9049 H 927.333 0.949939 -1.82113 0
M  V30 9050 H 925.563 3.49867 -1.64712 0
M  V30 9051 H 927.252 3.49389 -2.06596 0
M  V30 9052 H 928.018 2.32433 -4.25676 0
M  V30 9053 H 923.897 3.15849 -3.35799 0
M  V30 9054 H 927.441 2.11342 -6.64816 0
M  V30 9055 H 923.338 2.95093 -5.741 0
M  V30 9056 H 924.106 2.5498 -7.77771 0
M  V30 9057 N 926.769 1.22769 0.988202 0
M  V30 9058 C 927.716 1.00195 2.07917 0
M  V30 9059 C 928.686 -0.0779391 1.65917 0
M  V30 9060 O 929.871 0.0726005 1.90662 0
M  V30 9061 C 927.011 0.590853 3.40004 0
M  V30 9062 C 926.124 1.74202 3.9532 0
M  V30 9063 C 925.259 1.27846 5.15586 0
M  V30 9064 C 924.298 2.40087 5.63049 0
M  V30 9065 N 923.435 1.94744 6.74551 0
M  V30 9066 H 928.275 1.93581 2.26562 0
M  V30 9067 H 925.812 0.96448 1.11068 0
M  V30 9068 H 927.77 0.333653 4.15864 0
M  V30 9069 H 926.4 -0.306007 3.21346 0
M  V30 9070 H 925.452 2.11342 3.16289 0
M  V30 9071 H 926.764 2.58612 4.26522 0
M  V30 9072 H 925.918 0.978919 5.9875 0
M  V30 9073 H 924.657 0.404617 4.86019 0
M  V30 9074 H 923.662 2.70824 4.78471 0
M  V30 9075 H 924.887 3.27995 5.9464 0
M  V30 9076 H 922.833 1.09729 6.46758 0
M  V30 9077 H 922.75 2.72718 7.05096 0
M  V30 9078 H 924.018 1.67873 7.61209 0
M  V30 9079 N 928.247 -1.18576 1.03814 0
M  V30 9080 C 929.658 -1.70159 0.768299 0
M  V30 9081 C 930.009 -1.8286 -0.711106 0
M  V30 9082 O 929.134 -1.5063 -1.55369 0
M  V30 9083 C 929.729 -3.09062 1.38804 0
M  V30 9084 C 928.288 -3.57866 1.16656 0
M  V30 9085 C 927.435 -2.34484 1.48029 0
M  V30 9086 H 930.386 -1.03287 1.20488 0
M  V30 9087 H 930.407 -3.72211 0.7899 0
M  V30 9088 H 929.919 -2.99785 2.46476 0
M  V30 9089 H 928.02 -3.72442 0.108471 0
M  V30 9090 H 928.133 -4.41445 1.8618 0
M  V30 9091 H 926.497 -2.38273 0.899902 0
M  V30 9092 H 927.28 -2.27829 2.56805 0
M  V30 9093 N 929.725 -0.817259 -1.34754 0
M  V30 9094 C 930.971 -0.403244 -1.98751 0
M  V30 9095 C 931.304 1.02963 -1.64658 0
M  V30 9096 O 930.579 1.71617 -0.915314 0
M  V30 9097 C 930.862 -0.599188 -3.5508 0
M  V30 9098 C 930.715 -2.07777 -3.98934 0
M  V30 9099 C 932.034 -0.0315656 -4.40089 0
M  V30 9100 H 929.153 -0.147988 -0.721989 0
M  V30 9101 H 931.795 -1.02877 -1.59738 0
M  V30 9102 H 929.945 -0.0667116 -3.88443 0
M  V30 9103 H 931.617 -2.67345 -3.75931 0
M  V30 9104 H 929.86 -2.57031 -3.49453 0
M  V30 9105 H 930.531 -2.16571 -5.07741 0
M  V30 9106 H 933.007 -0.48644 -4.13247 0
M  V30 9107 H 931.883 -0.198507 -5.48541 0
M  V30 9108 H 932.144 1.06302 -4.2913 0
M  V30 9109 N 931.203 1.46865 -0.571711 0
M  V30 9110 C 932.48 1.95596 0.0132445 0
M  V30 9111 C 932.86 1.51438 1.47071 0
M  V30 9112 O 932.208 0.759917 2.15494 0
M  V30 9113 C 932.418 3.48689 -0.147335 0
M  V30 9114 C 933.766 4.24599 -0.00946329 0
M  V30 9115 O 934.79 3.5612 -0.0756112 0
M  V30 9116 O 933.649 5.46332 0.135361 0
M  V30 9117 H 930.743 0.825102 0.0560039 0
M  V30 9118 H 933.289 1.57199 -0.639256 0
M  V30 9119 H 932.061 3.73681 -1.16096 0
M  V30 9120 H 931.684 3.93887 0.542109 0
M  V30 9121 N 932.681 0.308908 1.54543 0
M  V30 9122 C 933.611 -0.556657 2.26768 0
M  V30 9123 C 934.592 -1.13145 1.27013 0
M  V30 9124 O 935.777 -1.15931 1.558 0
M  V30 9125 C 932.907 -1.72481 3.01443 0
M  V30 9126 C 931.861 -1.28001 4.08411 0
M  V30 9127 C 931.187 -2.53395 4.70845 0
M  V30 9128 C 932.487 -0.405497 5.20724 0
M  V30 9129 H 934.181 0.0457618 2.99365 0
M  V30 9130 H 931.727 0.0234495 1.43981 0
M  V30 9131 H 933.68 -2.3365 3.50693 0
M  V30 9132 H 932.404 -2.35359 2.26437 0
M  V30 9133 H 931.063 -0.69133 3.60022 0
M  V30 9134 H 930.711 -3.14604 3.92471 0
M  V30 9135 H 930.411 -2.2433 5.43093 0
M  V30 9136 H 931.935 -3.15352 5.22863 0
M  V30 9137 H 933.349 -0.923076 5.6582 0
M  V30 9138 H 931.746 -0.208282 5.99738 0
M  V30 9139 H 932.816 0.567412 4.81569 0
M  V30 9140 N 934.159 -1.57557 0.0367827 0
M  V30 9141 C 935.384 -1.96828 -0.653707 0
M  V30 9142 C 935.809 -0.913559 -1.64425 0
M  V30 9143 O 935.167 0.124749 -1.8087 0
M  V30 9144 C 935.215 -3.35189 -1.32969 0
M  V30 9145 O 934.319 -3.32095 -2.44513 0
M  V30 9146 H 933.66 -0.64157 -0.171124 0
M  V30 9147 H 936.19 -2.04351 0.100912 0
M  V30 9148 H 936.2 -3.71593 -1.68472 0
M  V30 9149 H 934.875 -4.11496 -0.603654 0
M  V30 9150 H 933.452 -3.07418 -2.11065 0
M  V30 9151 N 935.637 0.236453 -1.55816 0
M  V30 9152 C 936.584 1.29289 -1.91188 0
M  V30 9153 C 937.554 1.47315 -0.767301 0
M  V30 9154 O 938.739 1.61128 -1.02189 0
M  V30 9155 C 935.879 2.64126 -2.22107 0
M  V30 9156 C 934.992 2.54022 -3.49423 0
M  V30 9157 C 934.127 3.81282 -3.69861 0
M  V30 9158 C 933.166 3.65839 -4.90743 0
M  V30 9159 N 932.303 4.85014 -5.07647 0
M  V30 9160 H 937.143 0.98424 -2.81277 0
M  V30 9161 H 934.68 0.474722 -1.39229 0
M  V30 9162 H 936.638 3.42626 -2.3804 0
M  V30 9163 H 935.268 2.93118 -1.35209 0
M  V30 9164 H 934.32 1.67036 -3.41765 0
M  V30 9165 H 935.632 2.38525 -4.38072 0
M  V30 9166 H 934.786 4.68226 -3.8581 0
M  V30 9167 H 933.525 3.99688 -2.79465 0
M  V30 9168 H 932.53 2.77279 -4.74759 0
M  V30 9169 H 933.755 3.48918 -5.82609 0
M  V30 9170 H 931.701 5.03762 -4.20191 0
M  V30 9171 H 931.618 4.72188 -5.90402 0
M  V30 9172 H 932.886 5.73427 -5.28017 0
M  V30 9173 N 937.115 1.49373 0.502552 0
M  V30 9174 C 938.361 1.59016 1.25864 0
M  V30 9175 C 938.694 0.27532 1.92238 0
M  V30 9176 O 937.969 -0.720988 1.80643 0
M  V30 9177 C 938.252 2.74828 2.32683 0
M  V30 9178 C 938.105 4.16102 1.7082 0
M  V30 9179 C 939.424 2.86288 3.34256 0
M  V30 9180 H 936.543 0.578798 0.456248 0
M  V30 9181 H 939.185 1.81651 0.557032 0
M  V30 9182 H 937.335 2.5566 2.92524 0
M  V30 9183 H 939.007 4.46782 1.14818 0
M  V30 9184 H 937.25 4.21822 1.01238 0
M  V30 9185 H 937.921 4.93006 2.48292 0
M  V30 9186 H 940.397 3.03733 2.84404 0
M  V30 9187 H 939.273 3.69001 4.06362 0
M  V30 9188 H 939.534 1.95576 3.96488 0
M  V30 9189 N 938.594 -0.753485 1.38421 0
M  V30 9190 C 939.822 -1.54272 1.37868 0
M  V30 9191 C 940.237 -1.88774 -0.0315155 0
M  V30 9192 O 939.594 -1.52785 -0.998148 0
M  V30 9193 C 939.645 -2.84179 2.23438 0
M  V30 9194 O 939.366 -2.51149 3.58965 0
M  V30 9195 C 940.867 -3.78316 2.31067 0
M  V30 9196 H 938.087 -0.47735 0.47157 0
M  V30 9197 H 940.631 -0.932509 1.82001 0
M  V30 9198 H 938.786 -3.41577 1.82767 0
M  V30 9199 H 939.2 -3.34466 4.04021 0
M  V30 9200 H 940.674 -4.66418 2.95226 0
M  V30 9201 H 941.151 -4.18757 1.32436 0
M  V30 9202 H 941.757 -3.26842 2.72129 0
M  V30 9203 N 940.072 -1.23292 -0.981677 0
M  V30 9204 C 941.297 -1.09176 -1.76339 0
M  V30 9205 C 941.722 0.352726 -1.84763 0
M  V30 9206 O 941.08 1.25509 -1.30832 0
M  V30 9207 C 941.128 -1.72046 -3.16911 0
M  V30 9208 O 940.232 -0.98174 -4.00544 0
M  V30 9209 H 939.573 -0.382755 -0.542581 0
M  V30 9210 H 942.103 -1.63319 -1.23239 0
M  V30 9211 H 942.113 -1.77232 -3.67495 0
M  V30 9212 H 940.788 -2.77154 -3.10095 0
M  V30 9213 H 939.365 -1.00672 -3.59054 0
M  V30 9214 N 941.55 1.18024 -1.04442 0
M  V30 9215 C 942.497 2.21785 -0.638759 0
M  V30 9216 C 943.467 1.62255 0.355312 0
M  V30 9217 O 944.652 1.89176 0.24844 0
M  V30 9218 C 941.792 3.45098 -0.0118002 0
M  V30 9219 C 940.905 4.1895 -1.05379 0
M  V30 9220 C 940.04 5.2973 -0.394951 0
M  V30 9221 C 939.079 5.95359 -1.42178 0
M  V30 9222 N 938.216 6.97668 -0.787635 0
M  V30 9223 H 943.056 2.55839 -1.52808 0
M  V30 9224 H 940.593 1.25681 -0.764378 0
M  V30 9225 H 942.551 4.15564 0.369075 0
M  V30 9226 H 941.181 3.11652 0.84102 0
M  V30 9227 H 940.233 3.47274 -1.55258 0
M  V30 9228 H 941.545 4.63877 -1.83355 0
M  V30 9229 H 940.699 6.06687 0.0399244 0
M  V30 9230 H 939.438 4.85915 0.416867 0
M  V30 9231 H 938.443 5.17139 -1.86675 0
M  V30 9232 H 939.668 6.41255 -2.23536 0
M  V30 9233 H 937.614 6.56 0.00380893 0
M  V30 9234 H 937.531 7.40867 -1.50505 0
M  V30 9235 H 938.799 7.78586 -0.377282 0
M  V30 9236 N 943.028 0.824394 1.34319 0
M  V30 9237 C 944.268 0.419044 2.00058 0
M  V30 9238 C 944.632 -0.999504 1.63933 0
M  V30 9239 O 945.833 -1.50781 2.22527 0
M  V30 9240 C 944.104 0.616897 3.52036 0
M  V30 9241 S 945.663 0.304614 4.37741 0
M  V30 9242 H 942.481 0.158265 0.693162 0
M  V30 9243 H 945.083 1.07053 1.63585 0
M  V30 9244 H 943.787 1.64896 3.75816 0
M  V30 9245 H 943.318 -0.0492693 3.93369 0
M  V30 9246 H 945.333 -0.88114 4.88314 0
M  V30 9247 N 944.506 -1.46559 0.579492 0
M  V30 9248 C 945.754 -2.02 0.0637157 0
M  V30 9249 C 946.075 -1.45378 -1.29962 0
M  V30 9250 O 945.345 -0.637262 -1.85245 0
M  V30 9251 H 943.925 -0.746717 0.0205638 0
M  V30 9252 H 946.587 -1.79702 0.754544 0
M  V30 9253 H 945.683 -3.12099 -0.00770254 0
M  V30 9254 N 945.984 -0.3171 -1.54377 0
M  V30 9255 C 947.209 0.292311 -2.0533 0
M  V30 9256 C 947.634 1.45503 -1.19207 0
M  V30 9257 O 946.992 1.80197 -0.199721 0
M  V30 9258 C 947.04 0.710787 -3.53525 0
M  V30 9259 O 946.144 1.81387 -3.70368 0
M  V30 9260 H 945.485 0.0539976 -0.661801 0
M  V30 9261 H 948.015 -0.463629 -1.99278 0
M  V30 9262 H 948.025 0.995216 -3.95676 0
M  V30 9263 H 946.7 -0.139668 -4.15665 0
M  V30 9264 H 945.277 1.52875 -3.40123 0
M  V30 9265 N 947.462 1.57535 -0.0451378 0
M  V30 9266 C 948.392 2.14208 0.929372 0
M  V30 9267 C 949.373 1.06221 1.32858 0
M  V30 9268 O 950.558 1.34132 1.40436 0
M  V30 9269 C 947.688 2.68217 2.20629 0
M  V30 9270 C 946.642 3.81134 1.94734 0
M  V30 9271 C 945.968 4.21636 3.28828 0
M  V30 9272 C 947.268 5.06531 1.27374 0
M  V30 9273 H 948.962 2.95886 0.457348 0
M  V30 9274 H 946.508 1.42332 0.218544 0
M  V30 9275 H 948.461 3.06502 2.89196 0
M  V30 9276 H 947.185 1.83722 2.70026 0
M  V30 9277 H 945.844 3.43312 1.28579 0
M  V30 9278 H 945.492 3.34099 3.76014 0
M  V30 9279 H 945.192 4.97736 3.12302 0
M  V30 9280 H 946.716 4.62516 3.98637 0
M  V30 9281 H 948.13 5.423 1.85967 0
M  V30 9282 H 946.527 5.87735 1.21194 0
M  V30 9283 H 947.597 4.84261 0.248913 0
M  V30 9284 N 948.94 -0.228186 1.55939 0
M  V30 9285 C 950.188 -0.951668 1.78291 0
M  V30 9286 C 950.509 -1.85132 0.612474 0
M  V30 9287 O 949.779 -1.92356 -0.370942 0
M  V30 9288 H 948.359 -0.354388 0.657585 0
M  V30 9289 H 951.021 -0.241635 1.93396 0
M  V30 9290 H 950.117 -1.56239 2.70177 0
M  V30 9291 N 950.418 -1.49637 -0.494624 0
M  V30 9292 C 951.366 -1.6727 -1.61627 0
M  V30 9293 C 952.36 -0.538587 -1.6061 0
M  V30 9294 O 953.566 -0.718411 -1.65042 0
M  V30 9295 H 949.941 -0.527557 -0.535899 0
M  V30 9296 H 951.912 -2.61405 -1.43909 0
M  V30 9297 C 950.661 -1.7624 -2.99725 0
M  V30 9298 H 949.984 -2.62886 -3.01216 0
M  V30 9299 H 951.424 -1.92611 -3.77726 0
M  V30 9300 C 949.883 -0.508632 -3.33038 0
M  V30 9301 O 950.413 0.362828 -4.00058 0
M  V30 9302 N 948.619 -0.369667 -2.88239 0
M  V30 9303 H 948.166 -1.07984 -2.33875 0
M  V30 9304 H 948.124 0.468112 -3.10896 0
M  V30 9305 N 951.896 0.746133 -1.38819 0
M  V30 9306 C 953.145 1.50085 -1.34749 0
M  V30 9307 C 953.458 1.95516 0.0574786 0
M  V30 9308 O 954.664 2.70601 0.22073 0
M  V30 9309 C 953.12 2.71141 -2.36665 0
M  V30 9310 C 952.728 2.32706 -3.82821 0
M  V30 9311 C 954.472 3.49005 -2.41652 0
M  V30 9312 C 952.379 3.50418 -4.76405 0
M  V30 9313 H 951.309 0.563563 -0.500912 0
M  V30 9314 H 953.96 0.814951 -1.6441 0
M  V30 9315 H 952.342 3.4175 -2.00058 0
M  V30 9316 H 953.516 1.69715 -4.28408 0
M  V30 9317 H 951.831 1.67959 -3.81023 0
M  V30 9318 H 954.428 4.36541 -3.08766 0
M  V30 9319 H 954.771 3.90687 -1.43769 0
M  V30 9320 H 955.304 2.85416 -2.77097 0
M  V30 9321 H 952.043 3.13795 -5.75511 0
M  V30 9322 H 951.563 4.12426 -4.35505 0
M  V30 9323 H 953.242 4.16901 -4.94775 0
M  V30 9324 N 953.375 1.23811 0.975125 0
M  V30 9325 C 954.325 0.991036 2.05335 0
M  V30 9326 C 955.309 -0.0648793 1.60769 0
M  V30 9327 O 956.501 0.147917 1.76381 0
M  V30 9328 C 953.63 0.589822 3.38195 0
M  V30 9329 C 952.716 1.68142 3.89344 0
M  V30 9330 N 953.107 2.91274 4.13513 0
M  V30 9331 C 951.405 1.55722 4.17931 0
M  V30 9332 C 952.106 3.61987 4.55347 0
M  V30 9333 N 951.082 2.8952 4.60086 0
M  V30 9334 H 954.884 1.92612 2.21986 0
M  V30 9335 H 952.398 1.13827 1.15832 0
M  V30 9336 H 954.395 0.394075 4.15033 0
M  V30 9337 H 953.055 -0.338157 3.22934 0
M  V30 9338 H 954.066 3.27528 4.01181 0
M  V30 9339 H 950.743 0.696732 4.11645 0
M  V30 9340 H 952.133 4.67572 4.8252 0
M  V30 9341 N 954.853 -1.17469 1.05066 0
M  V30 9342 C 955.803 -2.19388 0.620713 0
M  V30 9343 C 956.787 -1.5722 -0.34214 0
M  V30 9344 O 957.979 -1.76279 -0.159574 0
M  V30 9345 C 955.108 -3.433 -0.00438518 0
M  V30 9346 C 954.194 -4.12569 0.982218 0
M  V30 9347 N 954.585 -4.57683 2.15313 0
M  V30 9348 C 952.883 -4.38575 0.810416 0
M  V30 9349 C 953.584 -5.11124 2.77719 0
M  V30 9350 N 952.56 -5.0325 2.05525 0
M  V30 9351 H 956.362 -2.51971 1.51287 0
M  V30 9352 H 953.876 -1.33784 0.920625 0
M  V30 9353 H 955.873 -4.15591 -0.330161 0
M  V30 9354 H 954.533 -3.12209 -0.89195 0
M  V30 9355 H 955.544 -4.51812 2.53154 0
M  V30 9356 H 952.221 -4.17492 -0.0262078 0
M  V30 9357 H 953.611 -5.56161 3.77008 0
M  V30 9358 N 956.331 -0.831506 -1.3388 0
M  V30 9359 C 957.278 -0.257449 -2.2936 0
M  V30 9360 C 958.248 0.622604 -1.5399 0
M  V30 9361 O 959.433 0.562432 -1.82322 0
M  V30 9362 C 956.573 0.567587 -3.404 0
M  V30 9363 C 955.686 -0.335666 -4.30694 0
M  V30 9364 C 954.821 0.499762 -5.28844 0
M  V30 9365 C 953.86 -0.402343 -6.10776 0
M  V30 9366 N 952.997 0.39452 -7.00991 0
M  V30 9367 H 957.837 -1.077 -2.77857 0
M  V30 9368 H 955.374 -0.542589 -1.36727 0
M  V30 9369 H 957.332 1.06133 -4.03474 0
M  V30 9370 H 955.962 1.35217 -2.93115 0
M  V30 9371 H 955.014 -0.94768 -3.68406 0
M  V30 9372 H 956.326 -1.02896 -4.88072 0
M  V30 9373 H 955.48 1.05763 -5.9741 0
M  V30 9374 H 954.219 1.22652 -4.72025 0
M  V30 9375 H 953.224 -0.972288 -5.41135 0
M  V30 9376 H 954.449 -1.12735 -6.69677 0
M  V30 9377 H 952.395 1.1048 -6.4663 0
M  V30 9378 H 952.312 -0.240209 -7.55618 0
M  V30 9379 H 953.58 0.934867 -7.73874 0
M  V30 9380 N 957.809 1.4625 -0.587256 0
M  V30 9381 C 959.22 1.85997 -0.161918 0
M  V30 9382 C 959.571 1.49025 1.27616 0
M  V30 9383 O 958.696 0.907282 1.96462 0
M  V30 9384 C 959.291 3.37582 -0.287077 0
M  V30 9385 C 957.85 3.76308 0.0834211 0
M  V30 9386 C 956.997 2.70259 -0.620932 0
M  V30 9387 H 959.948 1.3734 -0.795199 0
M  V30 9388 H 959.969 3.77379 0.486333 0
M  V30 9389 H 959.481 3.64459 -1.33383 0
M  V30 9390 H 957.582 3.55047 1.13013 0
M  V30 9391 H 957.695 4.78184 -0.296064 0
M  V30 9392 H 956.059 2.54628 -0.0607027 0
M  V30 9393 H 956.842 2.99975 -1.66942 0
M  V30 9394 N 959.287 0.325282 1.54207 0
M  V30 9395 C 960.535 -0.276229 2.00203 0
M  V30 9396 C 960.856 -1.52519 1.21503 0
M  V30 9397 O 960.126 -1.93313 0.317302 0
M  V30 9398 H 958.706 -0.105059 0.739575 0
M  V30 9399 H 961.368 0.442225 1.89817 0
M  V30 9400 H 960.464 -0.531427 3.07542 0
M  V30 9401 N 960.765 -1.57509 0.0534917 0
M  V30 9402 C 962.013 -1.92402 -0.618548 0
M  V30 9403 C 962.334 -0.93273 -1.71246 0
M  V30 9404 O 961.604 0.0220495 -1.95888 0
M  V30 9405 H 960.184 -0.710233 -0.23147 0
M  V30 9406 H 962.846 -1.94606 0.10704 0
M  V30 9407 H 961.942 -2.93704 -1.05566 0
M  V30 9408 N 962.243 0.219913 -1.56058 0
M  V30 9409 C 963.491 0.942199 -1.78793 0
M  V30 9410 C 963.812 1.84804 -0.622284 0
M  V30 9411 O 963.082 1.9255 0.360735 0
M  V30 9412 H 961.662 0.350895 -0.659455 0
M  V30 9413 H 964.324 0.231376 -1.93522 0
M  V30 9414 H 963.42 1.54804 -2.71002 0
M  V30 9415 N 963.721 1.49897 0.486681 0
M  V30 9416 C 964.653 1.63755 1.60365 0
M  V30 9417 C 965.666 0.519614 1.54285 0
M  V30 9418 O 966.855 0.792219 1.59957 0
M  V30 9419 C 963.955 1.59153 2.99205 0
M  V30 9420 C 963.128 2.8672 3.30319 0
M  V30 9421 C 962.187 2.74974 4.48638 0
M  V30 9422 O 961.213 3.48922 4.49714 0
M  V30 9423 N 962.415 1.87479 5.49392 0
M  V30 9424 H 965.18 2.60094 1.48899 0
M  V30 9425 H 962.741 1.47166 0.674825 0
M  V30 9426 H 964.733 1.4893 3.76301 0
M  V30 9427 H 963.303 0.706133 3.0452 0
M  V30 9428 H 962.523 3.11188 2.41983 0
M  V30 9429 H 963.811 3.71262 3.47911 0
M  V30 9430 H 963.209 1.26684 5.51333 0
M  V30 9431 H 961.766 1.83169 6.25534 0
M  V30 9432 N 965.199 -0.738761 1.39212 0
M  V30 9433 C 966.445 -1.50046 1.36433 0
M  V30 9434 C 966.778 -1.94157 -0.0409474 0
M  V30 9435 O 966.053 -1.66515 -1.00514 0
M  V30 9436 C 966.336 -2.74277 2.33333 0
M  V30 9437 C 966.189 -2.36209 3.82786 0
M  V30 9438 C 967.508 -3.76361 2.28123 0
M  V30 9439 H 964.627 -0.544294 0.496903 0
M  V30 9440 H 967.269 -0.845005 1.70175 0
M  V30 9441 H 965.419 -3.30204 2.04689 0
M  V30 9442 H 967.091 -1.85942 4.22165 0
M  V30 9443 H 965.334 -1.68483 3.99745 0
M  V30 9444 H 966.005 -3.25156 4.46069 0
M  V30 9445 H 968.481 -3.30009 2.53443 0
M  V30 9446 H 967.357 -4.60957 2.9801 0
M  V30 9447 H 967.618 -4.23013 1.28499 0
M  V30 9448 N 966.677 -1.24326 -0.968545 0
M  V30 9449 C 967.587 -1.05194 -2.09694 0
M  V30 9450 C 968.603 0.00701291 -1.73999 0
M  V30 9451 O 969.779 -0.190981 -2.00492 0
M  V30 9452 C 966.844 -0.658075 -3.40397 0
M  V30 9453 C 965.905 -1.79341 -3.90045 0
M  V30 9454 C 965.138 -1.41824 -5.14511 0
M  V30 9455 O 965.361 -0.307693 -5.69569 0
M  V30 9456 O 964.295 -2.24358 -5.58522 0
M  V30 9457 H 968.121 -1.99791 -2.2873 0
M  V30 9458 H 965.706 -1.03138 -1.08088 0
M  V30 9459 H 967.588 -0.449911 -4.18991 0
M  V30 9460 H 966.263 0.258782 -3.22664 0
M  V30 9461 H 965.17 -2.05632 -3.12516 0
M  V30 9462 H 966.503 -2.68901 -4.12254 0
M  V30 9463 N 968.156 1.1691 -1.05688 0
M  V30 9464 C 969.402 1.8757 -0.771071 0
M  V30 9465 C 969.735 1.8113 0.700399 0
M  V30 9466 O 969.01 1.22273 1.5126 0
M  V30 9467 C 969.293 3.37392 -1.25851 0
M  V30 9468 C 969.146 3.52556 -2.79329 0
M  V30 9469 C 970.465 4.31585 -0.861512 0
M  V30 9470 H 967.584 0.681089 -0.281579 0
M  V30 9471 H 970.226 1.37453 -1.31174 0
M  V30 9472 H 968.376 3.80204 -0.798563 0
M  V30 9473 H 970.048 3.18725 -3.33485 0
M  V30 9474 H 968.291 2.94668 -3.1836 0
M  V30 9475 H 968.962 4.57748 -3.08498 0
M  V30 9476 H 971.438 3.96642 -1.25756 0
M  V30 9477 H 970.314 5.34939 -1.23012 0
M  V30 9478 H 970.575 4.4148 0.234089 0
M  V30 9479 N 969.634 0.838594 1.33437 0
M  V30 9480 C 970.581 0.269609 2.2922 0
M  V30 9481 C 971.551 -0.614429 1.54318 0
M  V30 9482 O 972.736 -0.552756 1.82618 0
M  V30 9483 C 969.876 -0.549527 3.40697 0
M  V30 9484 C 968.989 0.358502 4.3051 0
M  V30 9485 C 968.124 -0.471709 5.29101 0
M  V30 9486 C 967.163 0.434728 6.10554 0
M  V30 9487 N 966.3 -0.357339 7.0119 0
M  V30 9488 H 971.14 1.09172 2.77282 0
M  V30 9489 H 968.677 0.549832 1.36438 0
M  V30 9490 H 970.635 -1.03992 4.04032 0
M  V30 9491 H 969.265 -1.33661 2.93828 0
M  V30 9492 H 968.317 0.967204 3.67899 0
M  V30 9493 H 969.629 1.05483 4.87519 0
M  V30 9494 H 968.783 -1.02594 5.97963 0
M  V30 9495 H 967.522 -1.20147 4.72669 0
M  V30 9496 H 966.527 1.00097 5.40611 0
M  V30 9497 H 967.752 1.16285 6.6907 0
M  V30 9498 H 965.698 -1.07049 6.47207 0
M  V30 9499 H 965.615 0.280277 7.5548 0
M  V30 9500 H 966.883 -0.893814 7.74359 0
M  V30 9501 N 971.112 -1.45937 0.595003 0
M  V30 9502 C 972.337 -2.07207 0.0894416 0
M  V30 9503 C 972.762 -1.43884 -1.21157 0
M  V30 9504 O 972.12 -0.526998 -1.73472 0
M  V30 9505 C 972.168 -3.60565 -0.0499828 0
M  V30 9506 O 971.272 -3.97364 -1.10342 0
M  V30 9507 H 970.613 -0.660471 0.0683627 0
M  V30 9508 H 973.143 -1.87386 0.82144 0
M  V30 9509 H 973.153 -4.0722 -0.252234 0
M  V30 9510 H 971.828 -4.06044 0.90006 0
M  V30 9511 H 970.405 -3.62401 -0.878645 0
M  V30 9512 N 972.59 -0.333456 -1.54032 0
M  V30 9513 C 973.5 0.536674 -2.28379 0
M  V30 9514 C 974.516 1.12068 -1.33104 0
M  V30 9515 O 975.692 1.13853 -1.66131 0
M  V30 9516 C 972.757 1.67677 -3.03456 0
M  V30 9517 C 971.818 1.12357 -4.14336 0
M  V30 9518 C 971.051 2.20933 -4.85823 0
M  V30 9519 O 971.274 3.41466 -4.569 0
M  V30 9520 O 970.208 1.85795 -5.72507 0
M  V30 9521 H 974.034 -0.0674003 -3.03625 0
M  V30 9522 H 971.619 -0.098823 -1.49073 0
M  V30 9523 H 973.501 2.34032 -3.50438 0
M  V30 9524 H 972.176 2.26684 -2.31076 0
M  V30 9525 H 971.083 0.424827 -3.7168 0
M  V30 9526 H 972.416 0.578497 -4.88789 0
M  V30 9527 N 974.068 1.57479 -0.061844 0
M  V30 9528 C 975.015 2.12152 0.908862 0
M  V30 9529 C 975.985 1.03152 1.30188 0
M  V30 9530 O 977.17 1.3076 1.38948 0
M  V30 9531 C 974.31 2.6796 2.17465 0
M  V30 9532 C 973.423 3.91083 1.83517 0
M  V30 9533 C 972.558 4.35169 3.04633 0
M  V30 9534 C 971.597 5.50964 2.66655 0
M  V30 9535 N 970.734 5.90055 3.80499 0
M  V30 9536 H 975.574 2.94797 0.435743 0
M  V30 9537 H 973.111 1.45686 0.203445 0
M  V30 9538 H 975.069 2.98421 2.91548 0
M  V30 9539 H 973.699 1.88096 2.62335 0
M  V30 9540 H 972.751 3.67146 0.995381 0
M  V30 9541 H 974.063 4.75214 1.51569 0
M  V30 9542 H 973.217 4.67239 3.87005 0
M  V30 9543 H 971.956 3.49871 3.39767 0
M  V30 9544 H 970.961 5.18556 1.82703 0
M  V30 9545 H 972.186 6.37986 2.32702 0
M  V30 9546 H 970.132 5.07708 4.15414 0
M  V30 9547 H 970.049 6.68903 3.52285 0
M  V30 9548 H 971.317 6.26744 4.63479 0
M  V30 9549 N 975.546 -0.211634 1.56173 0
M  V30 9550 C 976.476 -1.26533 1.96244 0
M  V30 9551 C 977.457 -1.48362 0.832028 0
M  V30 9552 O 978.642 -1.60378 1.0951 0
M  V30 9553 C 975.772 -2.61307 2.2877 0
M  V30 9554 C 974.726 -2.54119 3.44395 0
M  V30 9555 C 974.052 -3.93014 3.62552 0
M  V30 9556 C 975.352 -2.08046 4.79076 0
M  V30 9557 H 977.046 -0.932407 2.84511 0
M  V30 9558 H 974.592 -0.447084 1.36884 0
M  V30 9559 H 976.545 -3.35188 2.55396 0
M  V30 9560 H 975.269 -2.96307 1.37367 0
M  V30 9561 H 973.928 -1.82694 3.17834 0
M  V30 9562 H 973.576 -4.25338 2.68508 0
M  V30 9563 H 973.276 -3.89083 4.40327 0
M  V30 9564 H 974.8 -4.68542 3.91537 0
M  V30 9565 H 976.214 -2.71676 5.04842 0
M  V30 9566 H 974.611 -2.15154 5.60204 0
M  V30 9567 H 975.681 -1.03306 4.73768 0
M  V30 9568 N 977.024 -1.50153 -0.478725 0
M  V30 9569 C 978.301 -1.51274 -1.23999 0
M  V30 9570 C 978.681 -0.253048 -2.09578 0
M  V30 9571 O 978.029 0.763827 -2.15355 0
M  V30 9572 C 978.239 -2.80423 -2.07759 0
M  V30 9573 C 979.587 -3.30788 -2.66204 0
M  V30 9574 O 980.611 -2.81693 -2.18008 0
M  V30 9575 O 979.47 -4.1635 -3.53999 0
M  V30 9576 H 976.564 -0.606438 -0.562283 0
M  V30 9577 H 979.11 -1.62436 -0.491171 0
M  V30 9578 H 977.882 -3.63584 -1.44645 0
M  V30 9579 H 977.505 -2.72228 -2.89789 0
M  V30 9580 N 978.502 0.731368 -1.39602 0
M  V30 9581 C 979.749 1.491 -1.37024 0
M  V30 9582 C 980.077 1.94473 0.0326423 0
M  V30 9583 O 979.332 1.6737 1.01418 0
M  V30 9584 C 979.631 2.74224 -2.29208 0
M  V30 9585 C 979.297 2.477 -3.7677 0
M  V30 9586 C 977.959 2.40175 -4.16976 0
M  V30 9587 C 980.311 2.25098 -4.70086 0
M  V30 9588 C 977.639 2.08095 -5.48556 0
M  V30 9589 C 979.991 1.94534 -6.01946 0
M  V30 9590 C 978.655 1.85481 -6.41212 0
M  V30 9591 H 977.925 0.545595 -0.501405 0
M  V30 9592 H 980.572 0.839127 -1.72136 0
M  V30 9593 H 978.877 3.44171 -1.87225 0
M  V30 9594 H 980.574 3.32264 -2.24504 0
M  V30 9595 H 977.164 2.54436 -3.44906 0
M  V30 9596 H 981.348 2.29876 -4.39853 0
M  V30 9597 H 976.604 1.99611 -5.77897 0
M  V30 9598 H 980.778 1.76054 -6.73779 0
M  V30 9599 H 978.405 1.60389 -7.43088 0
M  V30 9600 N 979.98 1.24838 0.961938 0
M  V30 9601 C 980.927 1.04582 2.05745 0
M  V30 9602 C 981.897 -0.0427281 1.66045 0
M  V30 9603 O 983.082 0.113026 1.90465 0
M  V30 9604 C 980.222 0.66284 3.38675 0
M  V30 9605 C 979.335 1.82548 3.91536 0
M  V30 9606 C 978.47 1.38753 5.12758 0
M  V30 9607 C 977.509 2.51976 5.5783 0
M  V30 9608 N 976.646 2.09009 6.70268 0
M  V30 9609 H 981.486 1.98343 2.22405 0
M  V30 9610 H 979.023 0.987822 1.08998 0
M  V30 9611 H 980.981 0.421788 4.15062 0
M  V30 9612 H 979.611 -0.237776 3.21923 0
M  V30 9613 H 978.663 2.18004 3.11735 0
M  V30 9614 H 979.975 2.67601 4.20941 0
M  V30 9615 H 979.129 1.1057 5.96539 0
M  V30 9616 H 977.868 0.507618 4.85051 0
M  V30 9617 H 976.873 2.80912 4.72619 0
M  V30 9618 H 978.098 3.40534 5.87549 0
M  V30 9619 H 976.044 1.23423 6.44285 0
M  V30 9620 H 975.961 2.87613 6.99153 0
M  V30 9621 H 977.229 1.83981 7.57477 0
M  V30 9622 N 981.458 -1.16348 1.06306 0
M  V30 9623 C 982.735 -1.829 0.69331 0
M  V30 9624 C 983.115 -1.94298 -0.82531 0
M  V30 9625 O 982.463 -1.48619 -1.73565 0
M  V30 9626 C 982.673 -3.1989 1.3954 0
M  V30 9627 C 984.021 -3.95662 1.54068 0
M  V30 9628 O 985.045 -3.29408 1.35532 0
M  V30 9629 O 983.904 -5.14422 1.84479 0
M  V30 9630 H 980.998 -0.789738 0.245445 0
M  V30 9631 H 983.544 -1.23549 1.16334 0
M  V30 9632 H 982.316 -3.06629 2.43093 0
M  V30 9633 H 981.939 -3.86918 0.915453 0
M  V30 9634 N 982.937 -0.845659 -1.3299 0
M  V30 9635 C 984.353 -0.53433 -1.5039 0
M  V30 9636 C 984.553 0.936939 -1.78392 0
M  V30 9637 O 983.609 1.72043 -1.84818 0
M  V30 9638 C 984.922 -1.41354 -2.65404 0
M  V30 9639 C 986.47 -1.41303 -2.79289 0
M  V30 9640 C 986.945 -2.27724 -3.97373 0
M  V30 9641 N 988.436 -2.25471 -4.0462 0
M  V30 9642 C 989.171 -2.89074 -4.95201 0
M  V30 9643 N 988.667 -3.61755 -5.90851 0
M  V30 9644 N 990.46 -2.78508 -4.88251 0
M  V30 9645 H 982.611 -1.79798 -1.13078 0
M  V30 9646 H 984.874 -0.767454 -0.556524 0
M  V30 9647 H 984.58 -2.45936 -2.51413 0
M  V30 9648 H 984.454 -1.09445 -3.60973 0
M  V30 9649 H 986.841 -0.374899 -2.92709 0
M  V30 9650 H 986.922 -1.77222 -1.84461 0
M  V30 9651 H 986.566 -3.316 -3.84713 0
M  V30 9652 H 986.496 -1.89142 -4.9146 0
M  V30 9653 H 988.987 -1.72622 -3.3617 0
M  V30 9654 H 989.3 -4.07475 -6.56646 0
M  V30 9655 H 987.645 -3.65863 -5.90906 0
M  V30 9656 H 990.836 -2.21285 -4.12493 0
M  V30 9657 H 991.009 -3.2836 -5.58645 0
M  V30 9658 N 984.415 1.45619 -0.602734 0
M  V30 9659 C 985.661 2.02572 -0.0961759 0
M  V30 9660 C 985.994 1.47076 1.26815 0
M  V30 9661 O 985.269 0.643566 1.83544 0
M  V30 9662 C 985.552 3.60062 -0.0520032 0
M  V30 9663 C 985.405 4.25901 -1.44665 0
M  V30 9664 C 986.724 4.35446 0.638342 0
M  V30 9665 H 983.843 0.736099 -0.0364238 0
M  V30 9666 H 986.485 1.7353 -0.773776 0
M  V30 9667 H 984.635 3.84936 0.525032 0
M  V30 9668 H 986.307 4.12228 -2.0704 0
M  V30 9669 H 984.55 3.84489 -2.00874 0
M  V30 9670 H 985.221 5.34779 -1.36803 0
M  V30 9671 H 987.697 4.15837 0.147926 0
M  V30 9672 H 986.573 5.45176 0.63834 0
M  V30 9673 H 986.834 4.07962 1.70351 0
M  V30 9674 N 985.893 0.34162 1.53853 0
M  V30 9675 C 986.825 -0.550383 2.22494 0
M  V30 9676 C 987.838 -1.0655 1.23089 0
M  V30 9677 O 989.027 -0.975985 1.49455 0
M  V30 9678 C 986.127 -1.76995 2.89009 0
M  V30 9679 C 985.3 -1.39045 4.14711 0
M  V30 9680 C 984.359 -2.46947 4.64654 0
M  V30 9681 O 983.385 -2.10336 5.28912 0
M  V30 9682 N 984.587 -3.7817 4.40418 0
M  V30 9683 H 987.352 0.037456 2.99677 0
M  V30 9684 H 984.913 0.165654 1.6105 0
M  V30 9685 H 986.905 -2.48608 3.19337 0
M  V30 9686 H 985.475 -2.2652 2.15424 0
M  V30 9687 H 984.695 -0.505161 3.9095 0
M  V30 9688 H 985.983 -1.11284 4.96481 0
M  V30 9689 H 985.381 -4.10704 3.89023 0
M  V30 9690 H 983.938 -4.45959 4.75356 0
M  V30 9691 N 987.371 -1.57444 0.0701946 0
M  V30 9692 C 988.596 -1.98171 -0.61181 0
M  V30 9693 C 989.021 -0.94823 -1.62451 0
M  V30 9694 O 988.379 0.0863553 -1.81094 0
M  V30 9695 C 988.427 -3.37934 -1.2583 0
M  V30 9696 O 987.531 -3.37207 -2.37414 0
M  V30 9697 H 986.872 -0.645056 -0.157477 0
M  V30 9698 H 989.402 -2.04091 0.144235 0
M  V30 9699 H 989.412 -3.75083 -1.60552 0
M  V30 9700 H 988.087 -4.12684 -0.516234 0
M  V30 9701 H 986.664 -3.11826 -2.04497 0
M  V30 9702 N 988.849 0.203349 -1.56283 0
M  V30 9703 C 989.796 1.25205 -1.93888 0
M  V30 9704 C 990.766 1.45654 -0.798376 0
M  V30 9705 O 991.951 1.58924 -1.05583 0
M  V30 9706 C 989.091 2.59355 -2.27659 0
M  V30 9707 C 988.204 2.46553 -3.54733 0
M  V30 9708 C 987.339 3.73351 -3.77865 0
M  V30 9709 C 986.378 3.55347 -4.98392 0
M  V30 9710 N 985.515 4.74137 -5.17821 0
M  V30 9711 H 990.355 0.924356 -2.83301 0
M  V30 9712 H 987.892 0.445082 -1.40205 0
M  V30 9713 H 989.85 3.375 -2.45254 0
M  V30 9714 H 988.48 2.90184 -1.41396 0
M  V30 9715 H 987.532 1.59749 -3.45231 0
M  V30 9716 H 988.844 2.2918 -4.43033 0
M  V30 9717 H 987.998 4.59937 -3.95655 0
M  V30 9718 H 986.737 3.9367 -2.8788 0
M  V30 9719 H 985.742 2.67146 -4.80534 0
M  V30 9720 H 986.967 3.36482 -5.89879 0
M  V30 9721 H 984.913 4.94735 -4.30782 0
M  V30 9722 H 984.83 4.59558 -6.00285 0
M  V30 9723 H 986.098 5.62098 -5.40061 0
M  V30 9724 N 990.327 1.50405 0.470755 0
M  V30 9725 C 991.576 1.60652 1.21959 0
M  V30 9726 C 991.889 0.312521 1.93087 0
M  V30 9727 O 993.095 0.293901 2.69905 0
M  V30 9728 C 991.551 2.83581 2.21607 0
M  V30 9729 C 991.159 4.19858 1.5628 0
M  V30 9730 C 992.903 3.03173 2.9713 0
M  V30 9731 C 990.81 5.33974 2.54217 0
M  V30 9732 H 989.74 0.598264 0.458907 0
M  V30 9733 H 992.391 1.76836 0.490041 0
M  V30 9734 H 990.773 2.60957 2.97855 0
M  V30 9735 H 991.947 4.52738 0.85819 0
M  V30 9736 H 990.262 4.05873 0.930366 0
M  V30 9737 H 992.859 3.856 3.70428 0
M  V30 9738 H 993.202 2.14914 3.56536 0
M  V30 9739 H 993.735 3.2598 2.27995 0
M  V30 9740 H 990.474 6.24388 1.99549 0
M  V30 9741 H 989.994 5.05511 3.22829 0
M  V30 9742 H 991.673 5.64561 3.16039 0
M  V30 9743 N 991.805 -0.723954 1.39988 0
M  V30 9744 C 993.053 -1.48078 1.3754 0
M  V30 9745 C 993.374 -1.94985 -0.0243358 0
M  V30 9746 O 992.644 -1.69764 -0.977602 0
M  V30 9747 H 991.224 -0.549354 0.506181 0
M  V30 9748 H 993.886 -0.858746 1.74962 0
M  V30 9749 H 992.982 -2.35763 2.04505 0
M  V30 9750 N 993.283 -1.25346 -0.955304 0
M  V30 9751 C 994.508 -1.12892 -1.73983 0
M  V30 9752 C 994.933 0.313455 -1.8547 0
M  V30 9753 O 994.291 1.22706 -1.33465 0
M  V30 9754 C 994.339 -1.78729 -3.1319 0
M  V30 9755 O 993.443 -1.06648 -3.98372 0
M  V30 9756 H 992.784 -0.394178 -0.534341 0
M  V30 9757 H 995.314 -1.65897 -1.19747 0
M  V30 9758 H 995.324 -1.84987 -3.63653 0
M  V30 9759 H 993.999 -2.83669 -3.04146 0
M  V30 9760 H 992.576 -1.08266 -3.56837 0
M  V30 9761 N 994.761 1.15782 -1.06922 0
M  V30 9762 C 995.691 2.22538 -0.707045 0
M  V30 9763 C 996.672 1.67371 0.303471 0
M  V30 9764 O 997.857 1.9339 0.177189 0
M  V30 9765 C 994.987 3.47158 -0.0994269 0
M  V30 9766 C 993.941 4.15257 -1.03661 0
M  V30 9767 C 993.267 5.33902 -0.291974 0
M  V30 9768 C 994.567 4.65516 -2.36837 0
M  V30 9769 H 996.261 2.53089 -1.59958 0
M  V30 9770 H 993.807 1.21649 -0.770552 0
M  V30 9771 H 995.76 4.21073 0.165852 0
M  V30 9772 H 994.484 3.15926 0.828155 0
M  V30 9773 H 993.143 3.43276 -1.28674 0
M  V30 9774 H 992.791 4.98926 0.638928 0
M  V30 9775 H 992.491 5.80407 -0.916613 0
M  V30 9776 H 994.015 6.1059 -0.0343915 0
M  V30 9777 H 995.429 5.30981 -2.16175 0
M  V30 9778 H 993.826 5.22666 -2.94856 0
M  V30 9779 H 994.896 3.81387 -2.99453 0
M  V30 9780 N 996.239 0.8527 1.3254 0
M  V30 9781 C 997.516 0.376491 1.91942 0
M  V30 9782 C 997.896 -1.13972 1.7769 0
M  V30 9783 O 997.244 -1.96047 1.17379 0
M  V30 9784 C 997.454 0.838694 3.38773 0
M  V30 9785 C 998.802 0.854736 4.15908 0
M  V30 9786 O 999.826 0.783203 3.47483 0
M  V30 9787 O 998.685 0.955207 5.38087 0
M  V30 9788 H 995.779 0.109412 0.81973 0
M  V30 9789 H 998.325 0.93947 1.41322 0
M  V30 9790 H 997.097 1.88179 3.43081 0
M  V30 9791 H 996.72 0.253055 3.96794 0
M  V30 9792 N 997.718 -1.45297 0.610449 0
M  V30 9793 C 998.666 -2.32295 -0.119167 0
M  V30 9794 C 999.66 -1.46138 -0.856746 0
M  V30 9795 O 1000.87 -1.62605 -0.771988 0
M  V30 9796 H 997.241 -0.749815 -0.0572881 0
M  V30 9797 H 999.212 -2.91609 0.63297 0
M  V30 9798 C 997.961 -3.29802 -1.10119 0
M  V30 9799 H 997.284 -3.96095 -0.543063 0
M  V30 9800 H 998.724 -3.93398 -1.58158 0
M  V30 9801 C 997.183 -2.57185 -2.17617 0
M  V30 9802 O 997.713 -2.35535 -3.25401 0
M  V30 9803 N 995.919 -2.17272 -1.9298 0
M  V30 9804 H 995.466 -2.3508 -1.05334 0
M  V30 9805 H 995.424 -1.69009 -2.6511 0
M  V30 9806 N 999.196 -0.349774 -1.5367 0
M  V30 9807 C 1000.44 0.245862 -2.00196 0
M  V30 9808 C 1000.76 1.51154 -1.24144 0
M  V30 9809 O 1001.96 2.18481 -1.61178 0
M  V30 9810 C 1000.42 0.488665 -3.56567 0
M  V30 9811 C 1000.03 -0.761475 -4.41481 0
M  V30 9812 C 1001.77 1.04282 -4.11492 0
M  V30 9813 C 999.679 -0.489128 -5.89374 0
M  V30 9814 H 998.609 0.0956493 -0.747909 0
M  V30 9815 H 1001.26 -0.466068 -1.77483 0
M  V30 9816 H 999.642 1.26145 -3.75371 0
M  V30 9817 H 1000.82 -1.53585 -4.34452 0
M  V30 9818 H 999.131 -1.23771 -3.9758 0
M  V30 9819 H 1001.73 1.26164 -5.19603 0
M  V30 9820 H 1002.07 2.00023 -3.65098 0
M  V30 9821 H 1002.6 0.330582 -3.96424 0
M  V30 9822 H 999.343 -1.41643 -6.40014 0
M  V30 9823 H 998.863 0.247039 -5.99291 0
M  V30 9824 H 1000.54 -0.1087 -6.46909 0
M  V30 9825 N 1000.67 1.57404 -0.0785433 0
M  V30 9826 C 1001.9 1.98074 0.597862 0
M  V30 9827 C 1002.32 0.95714 1.6274 0
M  V30 9828 O 1001.67 -0.0553728 1.82416 0
M  V30 9829 C 1001.72 3.38815 1.26041 0
M  V30 9830 O 1001.45 4.37254 0.27207 0
M  V30 9831 C 1002.95 3.94397 2.024 0
M  V30 9832 H 1000.17 0.651263 0.161546 0
M  V30 9833 H 1002.71 2.03927 -0.152941 0
M  V30 9834 H 1000.87 3.34028 1.96225 0
M  V30 9835 H 1001.28 5.19136 0.74822 0
M  V30 9836 H 1002.75 4.95075 2.4414 0
M  V30 9837 H 1003.23 3.31308 2.88326 0
M  V30 9838 H 1003.84 4.02607 1.37068 0
M  V30 9839 N 1002.15 -0.195058 1.56388 0
M  V30 9840 C 1003.1 -1.24584 1.90952 0
M  V30 9841 C 1004.09 -1.40993 0.77522 0
M  V30 9842 O 1005.28 -1.43363 1.03808 0
M  V30 9843 C 1002.41 -2.59064 2.25258 0
M  V30 9844 C 1001.49 -2.46447 3.45145 0
M  V30 9845 N 1001.88 -2.0351 4.63052 0
M  V30 9846 C 1000.18 -2.77339 3.49283 0
M  V30 9847 C 1000.88 -2.02785 5.45209 0
M  V30 9848 N 999.859 -2.4429 4.85616 0
M  V30 9849 H 1003.66 -0.9052 2.79613 0
M  V30 9850 H 1001.17 -0.403493 1.57308 0
M  V30 9851 H 1003.17 -3.34963 2.48205 0
M  V30 9852 H 1001.83 -2.93951 1.37924 0
M  V30 9853 H 1002.84 -1.74219 4.87717 0
M  V30 9854 H 999.52 -3.16423 2.72365 0
M  V30 9855 H 1000.91 -1.71489 6.49647 0
M  V30 9856 N 1003.63 -1.50653 -0.462772 0
M  V30 9857 C 1004.88 -1.62297 -1.21603 0
M  V30 9858 C 1005.21 -0.326191 -1.91441 0
M  V30 9859 O 1004.48 0.67284 -1.82491 0
M  V30 9860 C 1004.77 -2.80901 -2.25315 0
M  V30 9861 C 1004.62 -4.20484 -1.59728 0
M  V30 9862 C 1005.94 -2.95049 -3.26549 0
M  V30 9863 H 1003.06 -0.590691 -0.440741 0
M  V30 9864 H 1005.7 -1.83064 -0.508675 0
M  V30 9865 H 1003.85 -2.63325 -2.85643 0
M  V30 9866 H 1005.52 -4.49669 -1.02932 0
M  V30 9867 H 1003.76 -4.24357 -0.900181 0
M  V30 9868 H 1004.44 -4.99416 -2.35133 0
M  V30 9869 H 1006.91 -3.11166 -2.76251 0
M  V30 9870 H 1005.79 -3.79645 -3.96435 0
M  V30 9871 H 1006.05 -2.06019 -3.91163 0
M  V30 9872 N 1005.11 0.71652 -1.4037 0
M  V30 9873 C 1006.52 1.29562 -1.34427 0
M  V30 9874 C 1006.87 1.96192 -0.0173106 0
M  V30 9875 O 1006 1.97488 0.884719 0
M  V30 9876 C 1006.59 2.35601 -2.4347 0
M  V30 9877 C 1005.15 2.89138 -2.4099 0
M  V30 9878 C 1004.3 1.62915 -2.24397 0
M  V30 9879 H 1007.25 0.512715 -1.5019 0
M  V30 9880 H 1007.27 3.16422 -2.11323 0
M  V30 9881 H 1006.78 1.87077 -3.40035 0
M  V30 9882 H 1004.88 3.41894 -1.4812 0
M  V30 9883 H 1004.99 3.40995 -3.3654 0
M  V30 9884 H 1003.36 1.87947 -1.71896 0
M  V30 9885 H 1004.14 1.16417 -3.22958 0
M  V30 9886 N 1006.59 1.25851 0.948643 0
M  V30 9887 C 1007.83 1.10735 1.69062 0
M  V30 9888 C 1008.16 -0.351257 1.9181 0
M  V30 9889 O 1007.43 -1.24867 1.50947 0
M  V30 9890 H 1006.01 0.406796 0.626519 0
M  V30 9891 H 1008.67 1.58066 1.14022 0
M  V30 9892 H 1007.76 1.62033 2.66743 0
M  V30 9893 N 1008.06 -1.15214 1.07534 0
M  V30 9894 C 1009.31 -1.85676 0.79805 0
M  V30 9895 C 1009.63 -1.82837 -0.677919 0
M  V30 9896 O 1008.9 -1.27059 -1.49107 0
M  V30 9897 H 1007.48 -0.687468 0.292227 0
M  V30 9898 H 1010.15 -1.39658 1.35947 0
M  V30 9899 H 1009.24 -2.9076 1.13423 0
M  V30 9900 N 1009.54 -0.859717 -1.32086 0
M  V30 9901 C 1010.79 -0.464662 -1.96686 0
M  V30 9902 C 1011.11 0.98412 -1.68345 0
M  V30 9903 O 1010.38 1.68847 -0.993361 0
M  V30 9904 H 1008.96 -0.168838 -0.727669 0
M  V30 9905 H 1011.62 -1.09726 -1.61079 0
M  V30 9906 H 1010.72 -0.613904 -3.06003 0
M  V30 9907 N 1011.02 1.44971 -0.618145 0
M  V30 9908 C 1011.97 2.32354 0.106846 0
M  V30 9909 C 1012.96 1.4659 0.848984 0
M  V30 9910 O 1014.17 1.63012 0.763354 0
M  V30 9911 H 1010.54 0.750108 0.0533109 0
M  V30 9912 H 1012.51 2.9127 -0.648426 0
M  V30 9913 C 1011.26 3.30381 1.08368 0
M  V30 9914 H 1010.59 3.96377 0.52205 0
M  V30 9915 H 1012.03 3.94231 1.56069 0
M  V30 9916 C 1010.49 2.58336 2.1625 0
M  V30 9917 O 1011.02 2.37258 3.24148 0
M  V30 9918 N 1009.22 2.18292 1.91825 0
M  V30 9919 H 1008.77 2.35635 1.04086 0
M  V30 9920 H 1008.73 1.70413 2.6421 0
M  V30 9921 N 1012.5 0.357919 1.53482 0
M  V30 9922 C 1013.45 -0.49217 2.25491 0
M  V30 9923 C 1014.42 -1.08382 1.25867 0
M  V30 9924 O 1015.6 -1.11775 1.54632 0
M  V30 9925 C 1012.74 -1.6299 3.04185 0
M  V30 9926 C 1011.85 -1.06416 4.18688 0
M  V30 9927 C 1010.99 -2.17037 4.84839 0
M  V30 9928 C 1010.03 -1.57889 5.91386 0
M  V30 9929 N 1009.16 -2.6231 6.51259 0
M  V30 9930 H 1014 0.128412 2.97723 0
M  V30 9931 H 1011.54 0.0751423 1.46908 0
M  V30 9932 H 1013.5 -2.29993 3.48079 0
M  V30 9933 H 1012.13 -2.22125 2.34223 0
M  V30 9934 H 1011.18 -0.284635 3.79334 0
M  V30 9935 H 1012.49 -0.591654 4.95279 0
M  V30 9936 H 1011.65 -2.91876 5.31877 0
M  V30 9937 H 1010.39 -2.67636 4.07703 0
M  V30 9938 H 1009.39 -0.815605 5.43717 0
M  V30 9939 H 1010.62 -1.08123 6.70437 0
M  V30 9940 H 1008.56 -3.12137 5.7698 0
M  V30 9941 H 1008.48 -2.19724 7.23365 0
M  V30 9942 H 1009.75 -3.36875 7.02948 0
M  V30 9943 N 1013.98 -1.5736 0.0868897 0
M  V30 9944 C 1014.92 -2.13571 -0.874996 0
M  V30 9945 C 1015.89 -1.0521 -1.2853 0
M  V30 9946 O 1017.08 -1.32954 -1.3685 0
M  V30 9947 C 1014.22 -2.71386 -2.13175 0
M  V30 9948 C 1013.33 -3.93953 -1.77272 0
M  V30 9949 C 1012.47 -4.3996 -2.97671 0
M  V30 9950 C 1011.51 -5.55137 -2.57856 0
M  V30 9951 N 1010.64 -5.96034 -3.71064 0
M  V30 9952 H 1015.48 -2.95453 -0.388789 0
M  V30 9953 H 1013.02 -1.45992 -0.180242 0
M  V30 9954 H 1014.98 -3.03022 -2.86764 0
M  V30 9955 H 1013.61 -1.92245 -2.5931 0
M  V30 9956 H 1012.66 -3.68683 -0.936845 0
M  V30 9957 H 1013.97 -4.77565 -1.43989 0
M  V30 9958 H 1013.13 -4.73337 -3.79522 0
M  V30 9959 H 1011.86 -3.55232 -3.34158 0
M  V30 9960 H 1010.87 -5.21397 -1.7443 0
M  V30 9961 H 1012.09 -6.41608 -2.22522 0
M  V30 9962 H 1010.04 -5.14253 -4.07284 0
M  V30 9963 H 1009.96 -6.74423 -3.41599 0
M  V30 9964 H 1011.23 -6.34038 -4.53449 0
M  V30 9965 N 1015.45 0.186762 -1.56489 0
M  V30 9966 C 1016.7 0.904077 -1.80303 0
M  V30 9967 C 1017.02 1.84073 -0.661538 0
M  V30 9968 O 1018.22 2.59928 -0.784197 0
M  V30 9969 C 1016.68 1.65806 -3.19432 0
M  V30 9970 C 1016.29 0.765807 -4.41406 0
M  V30 9971 C 1018.03 2.36451 -3.52549 0
M  V30 9972 C 1015.94 1.51913 -5.71556 0
M  V30 9973 H 1014.87 0.34133 -0.672317 0
M  V30 9974 H 1017.52 0.157218 -1.82825 0
M  V30 9975 H 1015.9 2.44911 -3.11183 0
M  V30 9976 H 1017.07 0.0128225 -4.60798 0
M  V30 9977 H 1015.39 0.169772 -4.16054 0
M  V30 9978 H 1017.99 2.93378 -4.47027 0
M  V30 9979 H 1018.33 3.11044 -2.7669 0
M  V30 9980 H 1018.86 1.64305 -3.62283 0
M  V30 9981 H 1015.6 0.815829 -6.50403 0
M  V30 9982 H 1015.12 2.24583 -5.56168 0
M  V30 9983 H 1016.8 2.07073 -6.12968 0
M  V30 9984 N 1016.93 1.50896 0.454776 0
M  V30 9985 C 1017.84 1.73762 1.5762 0
M  V30 9986 C 1018.86 0.621206 1.62533 0
M  V30 9987 O 1020.03 0.901449 1.801 0
M  V30 9988 C 1017.1 1.84183 2.9373 0
M  V30 9989 C 1016.16 3.07982 2.99075 0
M  V30 9990 C 1015.39 3.17896 4.28693 0
M  V30 9991 O 1015.62 2.34184 5.20109 0
M  V30 9992 O 1014.55 4.10749 4.39964 0
M  V30 9993 H 1018.38 2.68856 1.41245 0
M  V30 9994 H 1015.96 1.35187 0.635984 0
M  V30 9995 H 1017.84 1.93123 3.74542 0
M  V30 9996 H 1016.52 0.922742 3.10269 0
M  V30 9997 H 1015.43 3.04531 2.17282 0
M  V30 9998 H 1016.76 3.99523 2.87476 0
M  V30 9999 N 1018.41 -0.709066 1.40748 0
M  V30 10000 C 1019.64 -1.49808 1.42707 0
M  V30 10001 C 1020.05 -1.88778 0.0285574 0
M  V30 10002 O 1019.41 -1.55883 -0.949035 0
M  V30 10003 C 1019.46 -2.76926 2.32366 0
M  V30 10004 O 1019.18 -2.39602 3.66773 0
M  V30 10005 C 1020.68 -3.70773 2.42986 0
M  V30 10006 H 1017.9 -0.462106 0.486517 0
M  V30 10007 H 1020.45 -0.874135 1.84876 0
M  V30 10008 H 1018.6 -3.3559 1.93541 0
M  V30 10009 H 1019.02 -3.21443 4.14457 0
M  V30 10010 H 1020.49 -4.56789 3.09916 0
M  V30 10011 H 1020.97 -4.14332 1.45691 0
M  V30 10012 H 1021.57 -3.18019 2.8239 0
M  V30 10013 N 1019.89 -1.26353 -0.941956 0
M  V30 10014 C 1020.84 -1.04513 -2.02635 0
M  V30 10015 C 1021.82 0.0222314 -1.60885 0
M  V30 10016 O 1023.02 -0.194629 -1.75927 0
M  V30 10017 C 1020.14 -0.679282 -3.36512 0
M  V30 10018 C 1019.23 -1.78406 -3.8475 0
M  V30 10019 N 1019.62 -3.02136 -4.05645 0
M  V30 10020 C 1017.92 -1.66748 -4.13656 0
M  V30 10021 C 1018.62 -3.73932 -4.45589 0
M  V30 10022 N 1017.6 -3.01616 -4.52248 0
M  V30 10023 H 1021.4 -1.9843 -2.16801 0
M  V30 10024 H 1018.91 -1.16858 -1.12774 0
M  V30 10025 H 1020.91 -0.503975 -4.13843 0
M  V30 10026 H 1019.57 0.252418 -3.23717 0
M  V30 10027 H 1020.58 -3.38049 -3.92356 0
M  V30 10028 H 1017.26 -0.805627 -4.09653 0
M  V30 10029 H 1018.65 -4.80201 -4.69954 0
M  V30 10030 N 1021.37 1.14642 -1.08144 0
M  V30 10031 C 1022.31 2.1964 -0.708995 0
M  V30 10032 C 1023.28 1.63303 0.303512 0
M  V30 10033 O 1024.47 1.8987 0.18813 0
M  V30 10034 C 1021.61 3.44886 -0.121585 0
M  V30 10035 C 1020.72 4.15386 -1.18654 0
M  V30 10036 C 1019.86 5.28205 -0.56328 0
M  V30 10037 C 1018.9 5.90534 -1.61046 0
M  V30 10038 N 1018.03 6.94809 -1.00919 0
M  V30 10039 H 1022.87 2.50848 -1.6087 0
M  V30 10040 H 1020.41 1.23185 -0.803975 0
M  V30 10041 H 1022.37 4.16528 0.23668 0
M  V30 10042 H 1021 3.14169 0.741445 0
M  V30 10043 H 1020.05 3.42159 -1.66227 0
M  V30 10044 H 1021.36 4.57809 -1.9802 0
M  V30 10045 H 1020.52 6.06507 -0.153109 0
M  V30 10046 H 1019.26 4.86995 0.262066 0
M  V30 10047 H 1018.26 5.10938 -2.03033 0
M  V30 10048 H 1019.49 6.33819 -2.43824 0
M  V30 10049 H 1017.43 6.5568 -0.204894 0
M  V30 10050 H 1017.35 7.35704 -1.73999 0
M  V30 10051 H 1018.62 7.76992 -0.624792 0
M  V30 10052 N 1022.85 0.866709 1.31628 0
M  V30 10053 C 1023.78 0.335762 2.31073 0
M  V30 10054 C 1024.76 -0.571597 1.60209 0
M  V30 10055 O 1025.94 -0.489306 1.87935 0
M  V30 10056 C 1023.07 -0.466416 3.44154 0
M  V30 10057 C 1022.03 0.347561 4.26586 0
M  V30 10058 C 1021.35 -0.5801 5.31544 0
M  V30 10059 C 1022.65 1.57986 4.97833 0
M  V30 10060 H 1024.35 1.16673 2.75731 0
M  V30 10061 H 1021.89 0.56248 1.3256 0
M  V30 10062 H 1023.84 -0.84836 4.12772 0
M  V30 10063 H 1022.57 -1.33086 2.98254 0
M  V30 10064 H 1021.23 0.71141 3.59631 0
M  V30 10065 H 1020.88 -1.44174 4.81895 0
M  V30 10066 H 1020.58 -0.0393965 5.87587 0
M  V30 10067 H 1022.1 -0.958958 6.03023 0
M  V30 10068 H 1023.51 1.26954 5.59067 0
M  V30 10069 H 1021.91 2.05939 5.63657 0
M  V30 10070 H 1022.98 2.3345 4.25005 0
M  V30 10071 N 1024.32 -1.44642 0.625825 0
M  V30 10072 C 1025.55 -2.06458 0.135116 0
M  V30 10073 C 1025.97 -1.46729 -1.18811 0
M  V30 10074 O 1025.32 -0.58818 -1.72762 0
M  V30 10075 C 1025.37 -3.61499 0.00850114 0
M  V30 10076 O 1025.1 -4.19002 1.2794 0
M  V30 10077 C 1026.6 -4.40339 -0.511527 0
M  V30 10078 H 1023.82 -0.666541 0.0772294 0
M  V30 10079 H 1026.36 -1.85597 0.858726 0
M  V30 10080 H 1024.52 -3.81641 -0.665522 0
M  V30 10081 H 1024.93 -5.12385 1.12081 0
M  V30 10082 H 1026.4 -5.49262 -0.549149 0
M  V30 10083 H 1026.88 -4.11409 -1.53752 0
M  V30 10084 H 1027.49 -4.25104 0.129066 0
M  V30 10085 N 1025.8 -0.366053 -1.5329 0
M  V30 10086 C 1027.05 0.223493 -2.01263 0
M  V30 10087 C 1027.38 1.48736 -1.25331 0
M  V30 10088 O 1026.63 1.92805 -0.335341 0
M  V30 10089 C 1026.93 0.560906 -3.52971 0
M  V30 10090 C 1026.6 -0.60869 -4.46773 0
M  V30 10091 C 1025.26 -0.929609 -4.72135 0
M  V30 10092 C 1027.61 -1.39225 -5.02261 0
M  V30 10093 C 1024.94 -2.03606 -5.50238 0
M  V30 10094 C 1027.29 -2.48912 -5.81572 0
M  V30 10095 C 1025.95 -2.81538 -6.05221 0
M  V30 10096 H 1025.22 0.0817818 -0.736473 0
M  V30 10097 H 1027.87 -0.498613 -1.84895 0
M  V30 10098 H 1026.18 1.36403 -3.67289 0
M  V30 10099 H 1027.87 1.02931 -3.87564 0
M  V30 10100 H 1024.46 -0.348529 -4.27181 0
M  V30 10101 H 1028.65 -1.15757 -4.82612 0
M  V30 10102 H 1023.9 -2.29281 -5.6678 0
M  V30 10103 H 1028.08 -3.10044 -6.23575 0
M  V30 10104 H 1025.7 -3.67396 -6.65525 0
M  V30 10105 N 1027.28 1.57312 -0.0952337 0
M  V30 10106 C 1028.7 1.57445 0.261416 0
M  V30 10107 C 1028.9 1.10639 1.68408 0
M  V30 10108 O 1027.95 0.782912 2.40056 0
M  V30 10109 C 1029.26 3.00659 0.0497206 0
M  V30 10110 C 1030.81 3.1278 0.117459 0
M  V30 10111 C 1031.29 4.57952 -0.0662441 0
M  V30 10112 N 1032.78 4.63199 -0.0114146 0
M  V30 10113 C 1033.51 5.73255 -0.128799 0
M  V30 10114 N 1033.01 6.92146 -0.301026 0
M  V30 10115 N 1034.8 5.62056 -0.0700599 0
M  V30 10116 H 1026.95 1.86045 -1.02475 0
M  V30 10117 H 1029.22 0.858726 -0.401614 0
M  V30 10118 H 1028.92 3.39102 -0.932888 0
M  V30 10119 H 1028.8 3.68792 0.791975 0
M  V30 10120 H 1031.18 2.74209 1.09057 0
M  V30 10121 H 1031.26 2.47238 -0.656288 0
M  V30 10122 H 1030.91 4.97217 -1.03623 0
M  V30 10123 H 1030.84 5.21555 0.727198 0
M  V30 10124 H 1033.33 3.77712 0.119154 0
M  V30 10125 H 1033.64 7.71855 -0.382104 0
M  V30 10126 H 1031.99 6.94184 -0.336695 0
M  V30 10127 H 1035.18 4.68057 0.0633587 0
M  V30 10128 H 1035.35 6.4779 -0.164991 0
M  V30 10129 N 1028.76 -0.17846 1.56586 0
M  V30 10130 C 1029.67 -1.24115 1.9908 0
M  V30 10131 C 1030.68 -1.48854 0.901031 0
M  V30 10132 O 1031.86 -1.61142 1.2081 0
M  V30 10133 C 1028.92 -2.56187 2.33601 0
M  V30 10134 C 1027.99 -2.39373 3.56369 0
M  V30 10135 C 1027.22 -3.65147 3.89234 0
M  V30 10136 O 1027.44 -4.70024 3.23162 0
M  V30 10137 O 1026.38 -3.59683 4.82609 0
M  V30 10138 H 1030.2 -0.910482 2.89731 0
M  V30 10139 H 1027.79 -0.38477 1.4436 0
M  V30 10140 H 1029.67 -3.34109 2.56806 0
M  V30 10141 H 1028.34 -2.88847 1.46113 0
M  V30 10142 H 1027.25 -1.59506 3.38391 0
M  V30 10143 H 1028.58 -2.1164 4.44375 0
M  V30 10144 N 1030.24 -1.51135 -0.446768 0
M  V30 10145 C 1031.18 -1.72328 -1.56224 0
M  V30 10146 C 1032.18 -0.589411 -1.58815 0
M  V30 10147 O 1033.38 -0.770554 -1.62673 0
M  V30 10148 H 1029.76 -0.544339 -0.518844 0
M  V30 10149 H 1031.73 -2.65851 -1.3552 0
M  V30 10150 C 1030.48 -1.85686 -2.93966 0
M  V30 10151 H 1029.8 -2.72336 -2.927 0
M  V30 10152 H 1031.24 -2.0453 -3.71407 0
M  V30 10153 C 1029.7 -0.614328 -3.31252 0
M  V30 10154 O 1030.23 0.235369 -4.0101 0
M  V30 10155 N 1028.44 -0.461181 -2.86917 0
M  V30 10156 H 1027.98 -1.15369 -2.30321 0
M  V30 10157 H 1027.94 0.368966 -3.12227 0
M  V30 10158 N 1031.71 0.701592 -1.41122 0
M  V30 10159 C 1032.68 1.79733 -1.42227 0
M  V30 10160 C 1033.68 1.57708 -0.313831 0
M  V30 10161 O 1034.87 1.64492 -0.573423 0
M  V30 10162 C 1032 3.18024 -1.22775 0
M  V30 10163 H 1033.19 1.80148 -2.39764 0
M  V30 10164 H 1030.74 0.908624 -1.27176 0
M  V30 10165 H 1031.48 3.23252 -0.260552 0
M  V30 10166 H 1031.26 3.35411 -2.0308 0
M  V30 10167 H 1032.75 3.98021 -1.2637 0
M  V30 10168 N 1033.19 1.2685 0.935242 0
M  V30 10169 C 1034.14 1.08923 2.03481 0
M  V30 10170 C 1035.11 -0.00749786 1.66098 0
M  V30 10171 O 1036.29 0.153401 1.90182 0
M  V30 10172 C 1033.43 0.734529 3.37192 0
M  V30 10173 C 1032.55 1.90812 3.87576 0
M  V30 10174 C 1031.68 1.49599 5.097 0
M  V30 10175 C 1030.72 2.63752 5.5236 0
M  V30 10176 N 1029.86 2.23179 6.65684 0
M  V30 10177 H 1034.7 2.03016 2.18148 0
M  V30 10178 H 1032.23 1.01072 1.06878 0
M  V30 10179 H 1034.19 0.509734 4.14074 0
M  V30 10180 H 1032.82 -0.169438 3.22355 0
M  V30 10181 H 1031.87 2.24567 3.0704 0
M  V30 10182 H 1033.19 2.7647 4.1517 0
M  V30 10183 H 1032.34 1.23199 5.9406 0
M  V30 10184 H 1031.08 0.61039 4.83865 0
M  V30 10185 H 1030.08 2.90874 4.66554 0
M  V30 10186 H 1031.31 3.5292 5.80193 0
M  V30 10187 H 1029.26 1.37061 6.41522 0
M  V30 10188 H 1029.17 3.02379 6.92895 0
M  V30 10189 H 1030.44 2.00007 7.53404 0
M  V30 10190 N 1034.67 -1.14067 1.0875 0
M  V30 10191 C 1035.63 -2.17453 0.724341 0
M  V30 10192 C 1036.63 -1.58959 -0.242614 0
M  V30 10193 O 1037.82 -1.74186 -0.0217008 0
M  V30 10194 C 1034.96 -3.40828 0.0700236 0
M  V30 10195 H 1036.15 -2.51094 1.63987 0
M  V30 10196 H 1033.7 -1.28775 0.885813 0
M  V30 10197 H 1034.44 -3.1277 -0.857061 0
M  V30 10198 H 1034.22 -3.84551 0.76569 0
M  V30 10199 H 1035.71 -4.17258 -0.168905 0
M  V30 10200 N 1036.15 -0.873678 -1.31166 0
M  V30 10201 C 1037.1 -0.330288 -2.28424 0
M  V30 10202 C 1038.07 0.573299 -1.55893 0
M  V30 10203 O 1039.25 0.504143 -1.84019 0
M  V30 10204 C 1036.39 0.459004 -3.42034 0
M  V30 10205 C 1035.5 -0.472519 -4.29408 0
M  V30 10206 C 1034.64 0.331261 -5.30166 0
M  V30 10207 C 1033.68 -0.596453 -6.09187 0
M  V30 10208 N 1032.81 0.171305 -7.01891 0
M  V30 10209 H 1037.65 -1.16485 -2.7429 0
M  V30 10210 H 1035.19 -0.585813 -1.34932 0
M  V30 10211 H 1037.15 0.932432 -4.06647 0
M  V30 10212 H 1035.78 1.25824 -2.97268 0
M  V30 10213 H 1034.83 -1.06441 -3.65205 0
M  V30 10214 H 1036.14 -1.18372 -4.84551 0
M  V30 10215 H 1035.3 0.867038 -6.00473 0
M  V30 10216 H 1034.04 1.07573 -4.75688 0
M  V30 10217 H 1033.04 -1.14395 -5.37767 0
M  V30 10218 H 1034.27 -1.33983 -6.65752 0
M  V30 10219 H 1032.21 0.89852 -6.49817 0
M  V30 10220 H 1032.13 -0.480481 -7.54472 0
M  V30 10221 H 1033.4 0.688192 -7.76456 0
M  V30 10222 N 1037.63 1.44308 -0.633487 0
M  V30 10223 C 1038.85 2.06384 -0.146063 0
M  V30 10224 C 1039.27 1.47357 1.18031 0
M  V30 10225 O 1038.63 0.597334 1.72448 0
M  V30 10226 C 1038.68 3.61489 -0.0276722 0
M  V30 10227 O 1038.4 4.18318 -1.3016 0
M  V30 10228 C 1039.9 4.40604 0.488168 0
M  V30 10229 H 1037.12 0.666122 -0.0807632 0
M  V30 10230 H 1039.66 1.85139 -0.868557 0
M  V30 10231 H 1037.82 3.81988 0.645273 0
M  V30 10232 H 1038.23 5.11783 -1.14797 0
M  V30 10233 H 1039.71 5.49545 0.520013 0
M  V30 10234 H 1040.18 4.12218 1.51568 0
M  V30 10235 H 1040.79 4.2503 -0.151608 0
M  V30 10236 N 1039.1 0.374177 1.53094 0
M  V30 10237 C 1040.38 -0.269632 1.93733 0
M  V30 10238 C 1040.76 -1.6566 1.30843 0
M  V30 10239 O 1040.11 -2.23598 0.470759 0
M  V30 10240 C 1040.32 -0.311204 3.4761 0
M  V30 10241 C 1041.67 -0.547432 4.21056 0
M  V30 10242 O 1042.69 -0.392053 3.54036 0
M  V30 10243 O 1041.55 -0.850645 5.39839 0
M  V30 10244 H 1038.64 -0.163723 0.810632 0
M  V30 10245 H 1041.19 0.427586 1.64225 0
M  V30 10246 H 1039.96 0.660897 3.85678 0
M  V30 10247 H 1039.59 -1.05397 3.83376 0
M  V30 10248 N 1040.58 -1.57259 0.103575 0
M  V30 10249 C 1041.53 -2.11032 -0.863101 0
M  V30 10250 C 1042.52 -1.02737 -1.2383 0
M  V30 10251 O 1043.71 -1.28997 -1.21197 0
M  V30 10252 C 1040.84 -2.70099 -2.11899 0
M  V30 10253 C 1039.92 -3.85451 -1.76885 0
M  V30 10254 N 1040.31 -4.93137 -1.12469 0
M  V30 10255 C 1038.61 -3.95346 -2.06441 0
M  V30 10256 C 1039.31 -5.73681 -0.962527 0
M  V30 10257 N 1038.29 -5.22992 -1.48258 0
M  V30 10258 H 1042.09 -2.91671 -0.361264 0
M  V30 10259 H 1039.61 -1.62096 -0.0993794 0
M  V30 10260 H 1041.6 -3.06957 -2.82104 0
M  V30 10261 H 1040.26 -1.90918 -2.62641 0
M  V30 10262 H 1041.27 -5.11832 -0.790489 0
M  V30 10263 H 1037.95 -3.27185 -2.59338 0
M  V30 10264 H 1039.34 -6.70337 -0.458098 0
M  V30 10265 N 1042.06 0.170153 -1.56679 0
M  V30 10266 C 1043.31 0.884841 -1.817 0
M  V30 10267 C 1043.63 1.82731 -0.680763 0
M  V30 10268 O 1042.9 1.936 0.299294 0
M  V30 10269 H 1041.48 0.329738 -0.670285 0
M  V30 10270 H 1044.14 0.169691 -1.9416 0
M  V30 10271 H 1043.24 1.46104 -2.7579 0
M  V30 10272 N 1043.54 1.5137 0.438746 0
M  V30 10273 C 1044.5 1.71993 1.51496 0
M  V30 10274 C 1045.5 0.589978 1.49586 0
M  V30 10275 O 1046.69 0.857505 1.51633 0
M  V30 10276 C 1043.82 1.77508 2.91039 0
M  V30 10277 H 1045.02 2.68041 1.34514 0
M  V30 10278 H 1042.57 1.41338 0.667326 0
M  V30 10279 H 1043.3 0.832698 3.13427 0
M  V30 10280 H 1043.09 2.59627 2.9383 0
M  V30 10281 H 1044.58 1.95308 3.69113 0
M  V30 10282 N 1045.02 -0.694098 1.41492 0
M  V30 10283 C 1045.93 -1.83778 1.45818 0
M  V30 10284 C 1046.94 -1.70471 0.348639 0
M  V30 10285 O 1048.12 -1.92361 0.596588 0
M  V30 10286 C 1045.18 -3.19771 1.33967 0
M  V30 10287 C 1044.24 -3.45175 2.5525 0
M  V30 10288 C 1043.48 -4.74681 2.43955 0
M  V30 10289 O 1043.7 -5.51268 1.46491 0
M  V30 10290 O 1042.63 -5.00901 3.33739 0
M  V30 10291 H 1046.46 -1.83084 2.42309 0
M  V30 10292 H 1044.05 -0.847349 1.23046 0
M  V30 10293 H 1045.93 -4.00961 1.29648 0
M  V30 10294 H 1044.6 -3.21145 0.405926 0
M  V30 10295 H 1043.51 -2.6391 2.65146 0
M  V30 10296 H 1044.84 -3.48617 3.47458 0
M  V30 10297 N 1046.49 -1.27344 -0.928501 0
M  V30 10298 C 1047.74 -1.13019 -1.67061 0
M  V30 10299 C 1048.06 0.323614 -1.92904 0
M  V30 10300 O 1049.26 0.587752 -2.65062 0
M  V30 10301 C 1047.72 -1.97471 -3.00887 0
M  V30 10302 C 1047.33 -3.47504 -2.82746 0
M  V30 10303 C 1049.07 -1.91792 -3.78703 0
M  V30 10304 C 1046.98 -4.24158 -4.12122 0
M  V30 10305 H 1045.91 -0.419364 -0.626618 0
M  V30 10306 H 1048.56 -1.51759 -1.03158 0
M  V30 10307 H 1046.94 -1.51576 -3.65843 0
M  V30 10308 H 1048.11 -4.01256 -2.26562 0
M  V30 10309 H 1046.43 -3.54554 -2.18359 0
M  V30 10310 H 1049.03 -2.46339 -4.74575 0
M  V30 10311 H 1049.37 -0.891375 -4.06645 0
M  V30 10312 H 1049.9 -2.35578 -3.20543 0
M  V30 10313 H 1046.64 -5.27333 -3.89359 0
M  V30 10314 H 1046.16 -3.75183 -4.67972 0
M  V30 10315 H 1047.84 -4.33288 -4.80489 0
M  V30 10316 N 1047.97 1.13488 -1.09353 0
M  V30 10317 C 1049.22 1.85022 -0.830354 0
M  V30 10318 C 1049.55 1.83266 0.64242 0
M  V30 10319 O 1048.83 1.27024 1.47293 0
M  V30 10320 C 1049.11 3.33218 -1.36521 0
M  V30 10321 C 1048.96 3.43491 -2.90404 0
M  V30 10322 C 1050.28 4.28626 -0.998381 0
M  V30 10323 H 1047.4 0.671786 -0.303105 0
M  V30 10324 H 1050.04 1.33211 -1.3548 0
M  V30 10325 H 1048.19 3.77471 -0.919117 0
M  V30 10326 H 1049.86 3.07954 -3.43456 0
M  V30 10327 H 1048.11 2.84391 -3.27573 0
M  V30 10328 H 1048.78 4.47702 -3.22905 0
M  V30 10329 H 1051.25 3.9244 -1.38311 0
M  V30 10330 H 1050.13 5.30754 -1.39968 0
M  V30 10331 H 1050.39 4.42001 0.093517 0
M  V30 10332 N 1049.45 0.880621 1.30701 0
M  V30 10333 C 1050.68 0.51094 2.00182 0
M  V30 10334 C 1051.09 -0.903914 1.66211 0
M  V30 10335 O 1050.43 -1.60529 0.893089 0
M  V30 10336 C 1050.49 0.600775 3.54445 0
M  V30 10337 C 1050.16 1.97915 4.1192 0
M  V30 10338 C 1051.16 2.94802 4.28238 0
M  V30 10339 C 1048.84 2.28336 4.47401 0
M  V30 10340 C 1050.83 4.20245 4.79242 0
M  V30 10341 C 1048.52 3.54026 4.98105 0
M  V30 10342 C 1049.52 4.49796 5.13978 0
M  V30 10343 O 1049.21 5.73256 5.63589 0
M  V30 10344 H 1048.94 0.196477 0.646818 0
M  V30 10345 H 1051.49 1.18659 1.67658 0
M  V30 10346 H 1049.72 -0.131832 3.86475 0
M  V30 10347 H 1051.41 0.242996 4.05172 0
M  V30 10348 H 1052.18 2.7261 4.01134 0
M  V30 10349 H 1048.06 1.54564 4.34317 0
M  V30 10350 H 1051.6 4.95003 4.91546 0
M  V30 10351 H 1047.5 3.76057 5.24644 0
M  V30 10352 H 1048.27 5.75577 5.81939 0
M  V30 10353 N 1050.93 -1.4397 0.641131 0
M  V30 10354 C 1051.88 -2.30728 -0.0577905 0
M  V30 10355 C 1052.85 -1.44059 -0.826819 0
M  V30 10356 O 1054.03 -1.72947 -0.805853 0
M  V30 10357 C 1051.17 -3.29478 -1.02657 0
M  V30 10358 C 1050.28 -4.31247 -0.254913 0
M  V30 10359 C 1049.42 -5.17085 -1.2164 0
M  V30 10360 C 1048.46 -6.10556 -0.434481 0
M  V30 10361 N 1047.6 -6.89059 -1.34694 0
M  V30 10362 H 1052.44 -2.8995 0.687953 0
M  V30 10363 H 1049.97 -1.4285 0.351029 0
M  V30 10364 H 1051.93 -3.85228 -1.60173 0
M  V30 10365 H 1050.56 -2.71932 -1.73933 0
M  V30 10366 H 1049.61 -3.77889 0.436338 0
M  V30 10367 H 1050.92 -4.97545 0.353642 0
M  V30 10368 H 1050.08 -5.77402 -1.86258 0
M  V30 10369 H 1048.82 -4.50885 -1.85888 0
M  V30 10370 H 1047.82 -5.49339 0.225125 0
M  V30 10371 H 1049.05 -6.78795 0.203415 0
M  V30 10372 H 1046.99 -6.25518 -1.97644 0
M  V30 10373 H 1046.91 -7.51833 -0.792657 0
M  V30 10374 H 1048.18 -7.5389 -1.98165 0
M  V30 10375 N 1052.41 -0.382291 -1.52893 0
M  V30 10376 C 1053.63 0.204961 -2.06385 0
M  V30 10377 C 1054.06 1.40316 -1.25271 0
M  V30 10378 O 1053.42 1.79187 -0.275969 0
M  V30 10379 C 1053.46 0.560205 -3.56222 0
M  V30 10380 O 1052.57 1.65515 -3.77728 0
M  V30 10381 H 1051.91 0.0258798 -0.663495 0
M  V30 10382 H 1054.44 -0.547733 -1.97132 0
M  V30 10383 H 1054.45 0.826501 -3.99541 0
M  V30 10384 H 1053.12 -0.31584 -4.14699 0
M  V30 10385 H 1051.7 1.38311 -3.46301 0
M  V30 10386 N 1053.89 1.57202 -0.111913 0
M  V30 10387 C 1055.3 1.82039 0.414591 0
M  V30 10388 C 1055.65 1.02863 1.67074 0
M  V30 10389 O 1054.77 0.263068 2.14795 0
M  V30 10390 C 1055.37 3.3019 0.758953 0
M  V30 10391 C 1053.93 3.55732 1.23012 0
M  V30 10392 C 1053.07 2.76301 0.235226 0
M  V30 10393 H 1056.02 1.55078 -0.337142 0
M  V30 10394 H 1056.05 3.44431 1.61701 0
M  V30 10395 H 1055.56 3.87788 -0.155473 0
M  V30 10396 H 1053.66 3.03483 2.16169 0
M  V30 10397 H 1053.77 4.64333 1.18034 0
M  V30 10398 H 1052.14 2.44287 0.720822 0
M  V30 10399 H 1052.92 3.36655 -0.672173 0
M  V30 10400 N 1055.36 -0.161842 1.56767 0
M  V30 10401 C 1056.61 -0.878224 1.82798 0
M  V30 10402 C 1056.94 -1.81481 0.691242 0
M  V30 10403 O 1056.22 -1.92075 -0.30618 0
M  V30 10404 C 1056.5 -1.66565 3.19262 0
M  V30 10405 C 1056.35 -0.751551 4.43477 0
M  V30 10406 C 1057.67 -2.63134 3.52773 0
M  V30 10407 H 1054.79 -0.317828 0.664947 0
M  V30 10408 H 1057.43 -0.14402 1.89453 0
M  V30 10409 H 1055.58 -2.29157 3.13719 0
M  V30 10410 H 1057.26 -0.137783 4.61094 0
M  V30 10411 H 1055.5 -0.0601785 4.33758 0
M  V30 10412 H 1056.17 -1.33823 5.35533 0
M  V30 10413 H 1058.65 -2.10666 3.5883 0
M  V30 10414 H 1057.52 -3.15289 4.49315 0
M  V30 10415 H 1057.78 -3.43786 2.77963 0
M  V30 10416 N 1056.84 -1.516 -0.430713 0
M  V30 10417 C 1058.09 -1.6484 -1.18134 0
M  V30 10418 C 1058.42 -0.366725 -1.90706 0
M  V30 10419 O 1057.7 0.63398 -1.83878 0
M  V30 10420 C 1057.98 -2.85617 -2.19306 0
M  V30 10421 C 1057.83 -4.23778 -1.50773 0
M  V30 10422 C 1059.15 -3.01909 -3.20217 0
M  V30 10423 H 1056.27 -0.599907 -0.428113 0
M  V30 10424 H 1058.91 -1.84102 -0.46973 0
M  V30 10425 H 1057.06 -2.69325 -2.79993 0
M  V30 10426 H 1058.73 -4.51752 -0.93371 0
M  V30 10427 H 1056.98 -4.26171 -0.809966 0
M  V30 10428 H 1057.65 -5.04291 -2.24487 0
M  V30 10429 H 1060.12 -3.16956 -2.69589 0
M  V30 10430 H 1059 -3.87968 -3.88293 0
M  V30 10431 H 1059.26 -2.1427 -3.86705 0
M  V30 10432 N 1058.32 0.686584 -1.41858 0
M  V30 10433 C 1059.54 1.4802 -1.45275 0
M  V30 10434 C 1059.97 1.87997 -0.0621297 0
M  V30 10435 O 1059.33 1.55226 0.936733 0
M  V30 10436 C 1059.38 2.7133 -2.37513 0
M  V30 10437 O 1058.48 3.69159 -1.83836 0
M  V30 10438 H 1057.82 0.445152 -0.492682 0
M  V30 10439 H 1060.35 0.843161 -1.86419 0
M  V30 10440 H 1060.36 3.19537 -2.53693 0
M  V30 10441 H 1059.04 2.41571 -3.3855 0
M  V30 10442 H 1057.61 3.28134 -1.77151 0
M  V30 10443 N 1059.8 1.27835 0.921735 0
M  V30 10444 C 1061.05 1.14296 1.66676 0
M  V30 10445 C 1061.37 -0.310493 1.92512 0
M  V30 10446 O 1060.64 -1.21637 1.53562 0
M  V30 10447 H 1059.22 0.419994 0.617749 0
M  V30 10448 H 1061.88 1.60449 1.10644 0
M  V30 10449 H 1060.97 1.67654 2.63246 0
M  V30 10450 N 1061.28 -1.12907 1.09954 0
M  V30 10451 C 1062.55 -1.80602 0.751148 0
M  V30 10452 C 1062.93 -1.96826 -0.763077 0
M  V30 10453 O 1062.28 -1.54066 -1.68749 0
M  V30 10454 C 1062.49 -3.15289 1.49646 0
M  V30 10455 C 1063.84 -3.9056 1.66578 0
M  V30 10456 O 1064.86 -3.24929 1.45943 0
M  V30 10457 O 1063.72 -5.08292 2.00752 0
M  V30 10458 H 1060.82 -0.781529 0.270446 0
M  V30 10459 H 1063.36 -1.19786 1.20206 0
M  V30 10460 H 1062.13 -2.9874 2.52725 0
M  V30 10461 H 1061.76 -3.83809 1.03808 0
M  V30 10462 N 1062.75 -0.88754 -1.30232 0
M  V30 10463 C 1063.98 -0.522306 -2.00199 0
M  V30 10464 C 1064.4 0.889866 -1.66514 0
M  V30 10465 O 1063.75 1.58558 -0.903639 0
M  V30 10466 C 1063.8 -0.690551 -3.54843 0
M  V30 10467 O 1063.53 -2.04713 -3.8733 0
M  V30 10468 C 1065.03 -0.328649 -4.4208 0
M  V30 10469 H 1062.25 -0.201628 -0.63999 0
M  V30 10470 H 1064.79 -1.19355 -1.66056 0
M  V30 10471 H 1062.95 -0.0666493 -3.87343 0
M  V30 10472 H 1063.36 -2.06762 -4.82027 0
M  V30 10473 H 1064.83 -0.497257 -5.49756 0
M  V30 10474 H 1065.31 0.733502 -4.33032 0
M  V30 10475 H 1065.92 -0.928982 -4.1503 0
M  V30 10476 N 1064.23 1.43628 -0.648757 0
M  V30 10477 C 1065.46 2.06732 -0.166284 0
M  V30 10478 C 1065.88 1.48281 1.15734 0
M  V30 10479 O 1065.24 0.591018 1.71396 0
M  V30 10480 C 1065.29 3.60502 -0.0838732 0
M  V30 10481 O 1064.39 4.01186 0.955185 0
M  V30 10482 H 1063.73 0.657479 -0.0928285 0
M  V30 10483 H 1066.26 1.84208 -0.890421 0
M  V30 10484 H 1066.27 4.07875 0.100923 0
M  V30 10485 H 1064.95 4.02424 -1.05014 0
M  V30 10486 H 1063.53 3.65412 0.743537 0
M  V30 10487 N 1065.71 0.390394 1.52688 0
M  V30 10488 C 1067.12 -0.083394 1.86514 0
M  V30 10489 C 1067.47 -1.46057 1.31003 0
M  V30 10490 O 1066.6 -2.06663 0.641809 0
M  V30 10491 C 1067.19 -0.158102 3.38431 0
M  V30 10492 C 1065.75 -0.576186 3.71964 0
M  V30 10493 C 1064.9 0.261156 2.76068 0
M  V30 10494 H 1067.85 0.608226 1.46582 0
M  V30 10495 H 1067.87 -0.977023 3.67742 0
M  V30 10496 H 1067.38 0.844365 3.78803 0
M  V30 10497 H 1065.48 -1.58598 3.37161 0
M  V30 10498 H 1065.6 -0.333577 4.77937 0
M  V30 10499 H 1063.96 -0.273737 2.53225 0
M  V30 10500 H 1064.74 1.26162 3.19277 0
M  V30 10501 N 1067.19 -1.57141 0.120249 0
M  V30 10502 C 1068.6 -1.5784 -0.236335 0
M  V30 10503 C 1068.8 -1.13304 -1.66626 0
M  V30 10504 O 1067.86 -0.821004 -2.3878 0
M  V30 10505 C 1069.17 -3.007 -0.00188211 0
M  V30 10506 C 1070.72 -3.12927 -0.0676838 0
M  V30 10507 C 1071.2 -4.57789 0.139092 0
M  V30 10508 N 1072.69 -4.63122 0.085104 0
M  V30 10509 C 1073.42 -5.72978 0.219983 0
M  V30 10510 N 1072.92 -6.91579 0.411102 0
M  V30 10511 N 1074.71 -5.61874 0.159469 0
M  V30 10512 H 1066.86 -1.84391 1.05422 0
M  V30 10513 H 1069.13 -0.852228 0.415225 0
M  V30 10514 H 1068.83 -3.37575 0.986718 0
M  V30 10515 H 1068.71 -3.70005 -0.733203 0
M  V30 10516 H 1071.09 -2.75909 -1.04681 0
M  V30 10517 H 1071.17 -2.46162 0.695538 0
M  V30 10518 H 1070.82 -4.95506 1.1152 0
M  V30 10519 H 1070.75 -5.22646 -0.644131 0
M  V30 10520 H 1073.24 -3.77854 -0.0590479 0
M  V30 10521 H 1073.55 -7.71149 0.504851 0
M  V30 10522 H 1071.9 -6.9356 0.447091 0
M  V30 10523 H 1075.09 -4.68099 0.0111131 0
M  V30 10524 H 1075.26 -6.47445 0.268028 0
M  V30 10525 N 1068.67 0.153526 -1.5685 0
M  V30 10526 C 1069.62 1.19478 -1.94188 0
M  V30 10527 C 1070.6 1.38889 -0.812329 0
M  V30 10528 O 1071.79 1.4056 -1.07572 0
M  V30 10529 C 1068.92 2.53 -2.32047 0
M  V30 10530 C 1068.01 2.37209 -3.51557 0
M  V30 10531 N 1068.4 1.91162 -4.68285 0
M  V30 10532 C 1066.7 2.67981 -3.56514 0
M  V30 10533 C 1067.4 1.88259 -5.50394 0
M  V30 10534 N 1066.37 2.31329 -4.91923 0
M  V30 10535 H 1070.18 0.830748 -2.81915 0
M  V30 10536 H 1067.69 0.361643 -1.58322 0
M  V30 10537 H 1069.69 3.28264 -2.56998 0
M  V30 10538 H 1068.35 2.90191 -1.45669 0
M  V30 10539 H 1069.36 1.61227 -4.92165 0
M  V30 10540 H 1066.03 3.0909 -2.80659 0
M  V30 10541 H 1067.42 1.54205 -6.53965 0
M  V30 10542 N 1070.14 1.51827 0.422667 0
M  V30 10543 C 1071.07 1.77152 1.52117 0
M  V30 10544 C 1072.06 0.621895 1.58324 0
M  V30 10545 O 1073.24 0.866118 1.73816 0
M  V30 10546 C 1070.37 1.90991 2.90068 0
M  V30 10547 C 1069.32 3.06516 2.98717 0
M  V30 10548 C 1068.65 3.05559 4.38791 0
M  V30 10549 C 1069.95 4.46223 2.71445 0
M  V30 10550 H 1071.64 2.69135 1.31175 0
M  V30 10551 H 1069.19 1.29507 0.629607 0
M  V30 10552 H 1071.14 2.07291 3.6689 0
M  V30 10553 H 1069.87 0.956688 3.12274 0
M  V30 10554 H 1068.53 2.89945 2.24338 0
M  V30 10555 H 1068.17 2.07985 4.57986 0
M  V30 10556 H 1067.87 3.83144 4.45505 0
M  V30 10557 H 1069.4 3.23971 5.17566 0
M  V30 10558 H 1070.81 4.63069 3.37994 0
M  V30 10559 H 1069.21 5.25623 2.89552 0
M  V30 10560 H 1070.28 4.5525 1.6696 0
M  V30 10561 N 1071.62 -0.679052 1.4222 0
M  V30 10562 C 1072.85 -1.47248 1.46058 0
M  V30 10563 C 1073.27 -1.87962 0.0720987 0
M  V30 10564 O 1072.63 -1.5572 -0.928488 0
M  V30 10565 C 1072.68 -2.70067 2.38948 0
M  V30 10566 O 1071.78 -3.68178 1.85791 0
M  V30 10567 H 1071.12 -0.442533 0.495036 0
M  V30 10568 H 1073.65 -0.833263 1.86863 0
M  V30 10569 H 1073.66 -3.18187 2.55385 0
M  V30 10570 H 1072.34 -2.39773 3.39826 0
M  V30 10571 H 1070.92 -3.2719 1.78889 0
M  V30 10572 N 1073.1 -1.28322 -0.914942 0
M  V30 10573 C 1074.05 -1.12003 -2.03858 0
M  V30 10574 C 1075.04 -0.0396287 -1.69354 0
M  V30 10575 O 1076.25 -0.198309 -1.78904 0
M  V30 10576 H 1072.62 -0.34552 -0.667922 0
M  V30 10577 H 1074.59 -2.07168 -2.14765 0
M  V30 10578 C 1073.34 -0.797402 -3.38433 0
M  V30 10579 H 1072.67 -1.62071 -3.65476 0
M  V30 10580 H 1074.11 -0.723165 -4.17787 0
M  V30 10581 C 1072.57 0.498807 -3.33187 0
M  V30 10582 O 1073.1 1.52946 -3.71444 0
M  V30 10583 N 1071.3 0.499101 -2.86282 0
M  V30 10584 H 1070.85 -0.340056 -2.55346 0
M  V30 10585 H 1070.81 1.36641 -2.83155 0
M  V30 10586 N 1074.58 1.12322 -1.10551 0
M  V30 10587 C 1075.82 1.8413 -0.849932 0
M  V30 10588 C 1076.16 1.83938 0.622946 0
M  V30 10589 O 1075.43 1.28579 1.45937 0
M  V30 10590 C 1075.72 3.31751 -1.40048 0
M  V30 10591 C 1075.57 3.40391 -2.9403 0
M  V30 10592 C 1076.89 4.27543 -1.04379 0
M  V30 10593 H 1074.01 0.668533 -0.310213 0
M  V30 10594 H 1076.65 1.31766 -1.36886 0
M  V30 10595 H 1074.8 3.76475 -0.959102 0
M  V30 10596 H 1076.47 3.04294 -3.46703 0
M  V30 10597 H 1074.71 2.809 -3.30571 0
M  V30 10598 H 1075.38 4.44252 -3.27635 0
M  V30 10599 H 1077.86 3.90951 -1.42466 0
M  V30 10600 H 1076.74 5.2924 -1.4559 0
M  V30 10601 H 1077 4.42075 0.0466316 0
M  V30 10602 N 1076.06 0.894434 1.2976 0
M  V30 10603 C 1077.28 0.5322 2.00455 0
M  V30 10604 C 1077.71 -0.874427 1.66539 0
M  V30 10605 O 1077.06 -1.58113 0.887129 0
M  V30 10606 C 1077.11 0.725264 3.53231 0
M  V30 10607 O 1076.22 -0.224612 4.11788 0
M  V30 10608 H 1075.56 0.208562 0.630395 0
M  V30 10609 H 1078.09 1.20458 1.65382 0
M  V30 10610 H 1078.1 0.627889 4.0314 0
M  V30 10611 H 1076.77 1.75079 3.77253 0
M  V30 10612 H 1075.35 -0.0801361 3.72814 0
M  V30 10613 N 1077.53 -1.43282 0.656365 0
M  V30 10614 C 1078.76 -2.06641 0.177245 0
M  V30 10615 C 1079.18 -1.48893 -1.14946 0
M  V30 10616 O 1078.54 -0.600099 -1.7108 0
M  V30 10617 C 1078.59 -3.60453 0.10299 0
M  V30 10618 O 1077.69 -4.01687 -0.933895 0
M  V30 10619 H 1077.04 -0.656978 0.096314 0
M  V30 10620 H 1079.57 -1.83733 0.900178 0
M  V30 10621 H 1079.58 -4.07923 -0.079291 0
M  V30 10622 H 1078.25 -4.01861 1.07147 0
M  V30 10623 H 1076.83 -3.65801 -0.724148 0
M  V30 10624 N 1079.01 -0.398486 -1.52479 0
M  V30 10625 C 1080.24 0.180557 -2.06111 0
M  V30 10626 C 1080.66 1.39751 -1.26945 0
M  V30 10627 O 1080.01 1.79699 -0.318497 0
M  V30 10628 C 1080.06 0.541573 -3.5742 0
M  V30 10629 O 1079.79 -0.627043 -4.33589 0
M  V30 10630 C 1081.29 1.17549 -4.27431 0
M  V30 10631 H 1078.51 0.0250754 -0.670531 0
M  V30 10632 H 1081.05 -0.566368 -1.96501 0
M  V30 10633 H 1079.21 1.23839 -3.67073 0
M  V30 10634 H 1079.62 -0.328233 -5.23472 0
M  V30 10635 H 1081.09 1.37839 -5.34513 0
M  V30 10636 H 1081.57 2.14553 -3.83228 0
M  V30 10637 H 1082.18 0.51918 -4.22119 0
M  V30 10638 N 1080.49 1.57075 -0.12858 0
M  V30 10639 C 1081.74 1.95134 0.526046 0
M  V30 10640 C 1082.06 1.01337 1.66601 0
M  V30 10641 O 1081.33 0.0714361 1.9577 0
M  V30 10642 H 1079.91 0.720468 0.19732 0
M  V30 10643 H 1082.57 1.93874 -0.199767 0
M  V30 10644 H 1081.67 2.98406 0.914332 0
M  V30 10645 N 1081.97 -0.145205 1.5693 0
M  V30 10646 C 1083.19 -0.876386 1.87974 0
M  V30 10647 C 1083.62 -1.73866 0.717795 0
M  V30 10648 O 1082.98 -1.78224 -0.332551 0
M  V30 10649 C 1083.03 -1.70746 3.17613 0
M  V30 10650 O 1082.13 -2.81188 3.01674 0
M  V30 10651 H 1081.47 -0.243987 0.617549 0
M  V30 10652 H 1084 -0.135482 2.04151 0
M  V30 10653 H 1084.01 -2.1021 3.49679 0
M  V30 10654 H 1082.69 -1.07429 4.01786 0
M  V30 10655 H 1081.26 -2.45117 2.81019 0
M  V30 10656 N 1083.45 -1.52049 -0.414609 0
M  V30 10657 C 1084.7 -1.65067 -1.15912 0
M  V30 10658 C 1085.01 -0.383969 -1.91794 0
M  V30 10659 O 1086.22 -0.393872 -2.68628 0
M  V30 10660 C 1084.67 -2.91611 -2.1093 0
M  V30 10661 C 1084.28 -4.25369 -1.4059 0
M  V30 10662 C 1086.02 -3.13992 -2.85674 0
M  V30 10663 C 1083.93 -5.43041 -2.34223 0
M  V30 10664 H 1082.86 -0.614884 -0.436387 0
M  V30 10665 H 1085.51 -1.78533 -0.424072 0
M  V30 10666 H 1083.89 -2.71831 -2.87965 0
M  V30 10667 H 1085.07 -4.55611 -0.689568 0
M  V30 10668 H 1083.38 -4.09047 -0.779088 0
M  V30 10669 H 1085.98 -3.99082 -3.55861 0
M  V30 10670 H 1086.32 -2.27998 -3.48314 0
M  V30 10671 H 1086.86 -3.34217 -2.1574 0
M  V30 10672 H 1083.59 -6.31364 -1.76238 0
M  V30 10673 H 1083.11 -5.17144 -3.03845 0
M  V30 10674 H 1084.79 -5.75901 -2.94868 0
M  V30 10675 N 1084.93 0.6715 -1.42579 0
M  V30 10676 C 1086.2 1.42766 -1.33706 0
M  V30 10677 C 1086.58 2.11086 0.0239748 0
M  V30 10678 O 1085.93 2.03479 1.03964 0
M  V30 10679 C 1086.14 2.42739 -2.50756 0
M  V30 10680 C 1087.49 3.07284 -2.93021 0
M  V30 10681 O 1088.51 2.53066 -2.50671 0
M  V30 10682 O 1087.37 4.05541 -3.66331 0
M  V30 10683 H 1084.47 0.636955 -0.527463 0
M  V30 10684 H 1087.01 0.699946 -1.54593 0
M  V30 10685 H 1085.78 1.91076 -3.41476 0
M  V30 10686 H 1085.41 3.22986 -2.31874 0
M  V30 10687 N 1086.4 1.28806 0.908124 0
M  V30 10688 C 1087.34 1.07538 2.01273 0
M  V30 10689 C 1088.31 -0.0102454 1.62597 0
M  V30 10690 O 1089.5 0.138797 1.87988 0
M  V30 10691 C 1086.63 0.635337 3.32688 0
M  V30 10692 C 1085.67 1.71843 3.90349 0
M  V30 10693 S 1086.5 3.31571 4.20501 0
M  V30 10694 C 1087.66 2.89416 5.54968 0
M  V30 10695 H 1087.89 2.01058 2.19005 0
M  V30 10696 H 1085.43 1.12857 1.05369 0
M  V30 10697 H 1087.38 0.388159 4.08661 0
M  V30 10698 H 1086.05 -0.280122 3.12848 0
M  V30 10699 H 1085.24 1.36228 4.8524 0
M  V30 10700 H 1084.84 1.91869 3.21033 0
M  V30 10701 H 1087.13 2.35936 6.35091 0
M  V30 10702 H 1088.08 3.83126 5.955 0
M  V30 10703 H 1088.48 2.27962 5.16424 0
M  V30 10704 N 1087.88 -1.11734 1.11145 0
M  V30 10705 C 1089.13 -1.83677 0.859684 0
M  V30 10706 C 1089.46 -1.84265 -0.613182 0
M  V30 10707 O 1088.74 -1.29351 -1.45254 0
M  V30 10708 C 1089.02 -3.31003 1.41805 0
M  V30 10709 C 1088.87 -3.38827 2.95831 0
M  V30 10710 C 1090.19 -4.26984 1.06645 0
M  V30 10711 H 1087.31 -0.666879 0.313754 0
M  V30 10712 H 1089.95 -1.31038 1.37583 0
M  V30 10713 H 1088.1 -3.75961 0.979054 0
M  V30 10714 H 1089.77 -3.02451 3.48312 0
M  V30 10715 H 1088.02 -2.79143 3.32056 0
M  V30 10716 H 1088.69 -4.42508 3.29986 0
M  V30 10717 H 1091.16 -3.9019 1.44537 0
M  V30 10718 H 1090.04 -5.2846 1.48394 0
M  V30 10719 H 1090.3 -4.42094 -0.0231866 0
M  V30 10720 N 1089.36 -0.901303 -1.29284 0
M  V30 10721 C 1090.64 -0.44747 -1.90413 0
M  V30 10722 C 1091.02 1.07298 -1.81797 0
M  V30 10723 O 1090.36 1.91555 -1.24574 0
M  V30 10724 C 1090.57 -0.963849 -3.35427 0
M  V30 10725 C 1091.92 -1.00851 -4.12449 0
M  V30 10726 O 1092.95 -0.91163 -3.44337 0
M  V30 10727 O 1091.81 -1.15426 -5.34171 0
M  V30 10728 H 1088.9 -0.13976 -0.815105 0
M  V30 10729 H 1091.45 -0.991274 -1.37738 0
M  V30 10730 H 1090.22 -2.00782 -3.3586 0
M  V30 10731 H 1089.84 -0.400149 -3.95581 0
M  V30 10732 N 1090.84 1.42931 -0.663954 0
M  V30 10733 C 1092.06 2.06544 -0.188201 0
M  V30 10734 C 1092.49 1.495 1.14155 0
M  V30 10735 O 1091.85 0.609164 1.7076 0
M  V30 10736 C 1091.89 3.60393 -0.122105 0
M  V30 10737 O 1091 4.02176 0.91258 0
M  V30 10738 H 1090.34 0.656458 -0.0997967 0
M  V30 10739 H 1092.87 1.83253 -0.909909 0
M  V30 10740 H 1092.88 4.07959 0.0576568 0
M  V30 10741 H 1091.55 4.01287 -1.09276 0
M  V30 10742 H 1090.13 3.6618 0.704738 0
M  V30 10743 N 1092.32 0.406567 1.52266 0
M  V30 10744 C 1093.73 -0.063607 1.86592 0
M  V30 10745 C 1094.08 -1.4466 1.32544 0
M  V30 10746 O 1093.2 -2.05971 0.663692 0
M  V30 10747 C 1093.8 -0.122198 3.3858 0
M  V30 10748 C 1092.36 -0.536701 3.72554 0
M  V30 10749 C 1091.5 0.290422 2.75775 0
M  V30 10750 H 1094.45 0.623738 1.45929 0
M  V30 10751 H 1094.48 -0.937964 3.68758 0
M  V30 10752 H 1093.99 0.884495 3.77887 0
M  V30 10753 H 1092.09 -1.55013 3.38824 0
M  V30 10754 H 1092.2 -0.282867 4.78264 0
M  V30 10755 H 1090.57 -0.246864 2.53501 0
M  V30 10756 H 1091.35 1.29541 3.17921 0
M  V30 10757 N 1093.79 -1.57004 0.136909 0
M  V30 10758 C 1094.73 -2.13355 -0.837405 0
M  V30 10759 C 1095.74 -1.08053 -1.21772 0
M  V30 10760 O 1096.93 -1.35365 -1.16355 0
M  V30 10761 C 1094.03 -2.63302 -2.13366 0
M  V30 10762 C 1093.2 -3.92896 -1.92228 0
M  V30 10763 C 1092.26 -4.28257 -3.05749 0
M  V30 10764 O 1091.29 -4.96761 -2.7788 0
M  V30 10765 N 1092.49 -3.87021 -4.3266 0
M  V30 10766 H 1095.25 -2.9758 -0.35586 0
M  V30 10767 H 1092.81 -1.61832 -0.0469758 0
M  V30 10768 H 1094.81 -2.83977 -2.88339 0
M  V30 10769 H 1093.38 -1.83858 -2.52814 0
M  V30 10770 H 1092.6 -3.80949 -1.01349 0
M  V30 10771 H 1093.88 -4.776 -1.75431 0
M  V30 10772 H 1093.28 -3.31804 -4.58173 0
M  V30 10773 H 1091.84 -4.12768 -5.04446 0
M  V30 10774 N 1095.27 0.136881 -1.57004 0
M  V30 10775 C 1096.2 1.17026 -2.02057 0
M  V30 10776 C 1097.18 1.44223 -0.901866 0
M  V30 10777 O 1098.37 1.54971 -1.17037 0
M  V30 10778 C 1095.5 2.50095 -2.40977 0
M  V30 10779 C 1094.45 2.37398 -3.56127 0
M  V30 10780 C 1093.78 3.75268 -3.80891 0
M  V30 10781 C 1095.08 1.84952 -4.88457 0
M  V30 10782 H 1096.77 0.795601 -2.88636 0
M  V30 10783 H 1094.32 0.381266 -1.38861 0
M  V30 10784 H 1096.27 3.22621 -2.71097 0
M  V30 10785 H 1095 2.89416 -1.51348 0
M  V30 10786 H 1093.65 1.67322 -3.26188 0
M  V30 10787 H 1093.3 4.12043 -2.88496 0
M  V30 10788 H 1093 3.67631 -4.5839 0
M  V30 10789 H 1094.53 4.49327 -4.13446 0
M  V30 10790 H 1095.94 2.4728 -5.17229 0
M  V30 10791 H 1094.34 1.88181 -5.69832 0
M  V30 10792 H 1095.41 0.805848 -4.78157 0
M  V30 10793 N 1096.75 1.52266 0.40654 0
M  V30 10794 C 1097.71 1.75168 1.47814 0
M  V30 10795 C 1098.71 0.621575 1.48301 0
M  V30 10796 O 1099.9 0.889476 1.4978 0
M  V30 10797 C 1097.04 1.83642 2.87208 0
M  V30 10798 H 1098.23 2.70834 1.28798 0
M  V30 10799 H 1095.78 1.42722 0.637196 0
M  V30 10800 H 1096.52 0.898994 3.1159 0
M  V30 10801 H 1096.3 2.65801 2.88257 0
M  V30 10802 H 1097.79 2.03093 3.64888 0
M  V30 10803 N 1098.23 -0.663929 1.42933 0
M  V30 10804 C 1099.46 -1.45192 1.474 0
M  V30 10805 C 1099.87 -1.88592 0.0886014 0
M  V30 10806 O 1099.23 -1.58824 -0.898962 0
M  V30 10807 C 1099.28 -2.69394 2.41059 0
M  V30 10808 O 1099 -2.27812 3.7421 0
M  V30 10809 C 1100.5 -3.62855 2.54659 0
M  V30 10810 H 1097.72 -0.446394 0.500973 0
M  V30 10811 H 1100.27 -0.814875 1.87563 0
M  V30 10812 H 1098.42 -3.29262 2.0412 0
M  V30 10813 H 1098.83 -3.08095 4.24474 0
M  V30 10814 H 1100.31 -4.46698 3.24291 0
M  V30 10815 H 1100.79 -4.09487 1.58799 0
M  V30 10816 H 1101.39 -3.08874 2.92364 0
M  V30 10817 N 1099.71 -1.29285 -0.901281 0
M  V30 10818 C 1100.64 -1.16832 -2.0217 0
M  V30 10819 C 1101.62 -0.0629265 -1.69984 0
M  V30 10820 O 1102.8 -0.242123 -1.92685 0
M  V30 10821 C 1099.93 -0.842406 -3.36929 0
M  V30 10822 C 1098.89 -1.90394 -3.8332 0
M  V30 10823 C 1098.21 -1.43138 -5.15185 0
M  V30 10824 C 1099.51 -3.31254 -4.03817 0
M  V30 10825 H 1101.21 -2.10562 -2.12847 0
M  V30 10826 H 1098.75 -1.01375 -1.0227 0
M  V30 10827 H 1100.71 -0.741999 -4.14816 0
M  V30 10828 H 1099.43 0.130598 -3.26339 0
M  V30 10829 H 1098.09 -1.99371 -3.07647 0
M  V30 10830 H 1097.74 -0.447091 -5.01009 0
M  V30 10831 H 1097.44 -2.14129 -5.47195 0
M  V30 10832 H 1098.96 -1.34444 -5.95615 0
M  V30 10833 H 1100.37 -3.25129 -4.72191 0
M  V30 10834 H 1098.77 -4.00189 -4.47178 0
M  V30 10835 H 1099.84 -3.74349 -3.08206 0
M  V30 10836 N 1101.18 1.11143 -1.11736 0
M  V30 10837 C 1102.15 2.15456 -0.78174 0
M  V30 10838 C 1103.15 1.59547 0.200383 0
M  V30 10839 O 1104.34 1.74183 -0.0244893 0
M  V30 10840 C 1101.47 3.40523 -0.160364 0
M  V30 10841 H 1102.66 2.46658 -1.70586 0
M  V30 10842 H 1100.22 1.26381 -0.919644 0
M  V30 10843 H 1100.95 3.14932 0.773835 0
M  V30 10844 H 1100.74 3.82386 -0.867378 0
M  V30 10845 H 1102.23 4.17559 0.0582175 0
M  V30 10846 N 1102.66 0.908147 1.28804 0
M  V30 10847 C 1103.94 0.457561 1.90173 0
M  V30 10848 C 1104.32 -1.06333 1.82364 0
M  V30 10849 O 1103.67 -1.90892 1.25589 0
M  V30 10850 C 1103.88 0.981624 3.34911 0
M  V30 10851 C 1105.23 1.03037 4.11908 0
M  V30 10852 O 1106.25 0.929878 3.43848 0
M  V30 10853 O 1105.11 1.18257 5.33552 0
M  V30 10854 H 1102.2 0.144081 0.814352 0
M  V30 10855 H 1104.75 0.998565 1.37211 0
M  V30 10856 H 1103.52 2.02561 3.34791 0
M  V30 10857 H 1103.14 0.421122 3.95364 0
M  V30 10858 N 1104.14 -1.42577 0.671525 0
M  V30 10859 C 1105.05 -2.34598 -0.00898225 0
M  V30 10860 C 1106.07 -1.54909 -0.792407 0
M  V30 10861 O 1107.24 -1.87491 -0.735477 0
M  V30 10862 C 1104.31 -3.33405 -0.950888 0
M  V30 10863 C 1103.37 -4.28993 -0.16236 0
M  V30 10864 C 1102.6 -5.2308 -1.0594 0
M  V30 10865 O 1102.82 -5.22022 -2.2989 0
M  V30 10866 O 1101.76 -5.99632 -0.521966 0
M  V30 10867 H 1105.58 -2.94321 0.748927 0
M  V30 10868 H 1103.17 -1.43025 0.43175 0
M  V30 10869 H 1105.05 -3.94115 -1.49169 0
M  V30 10870 H 1103.73 -2.7616 -1.68871 0
M  V30 10871 H 1102.63 -3.71707 0.42247 0
M  V30 10872 H 1103.97 -4.8927 0.536274 0
M  V30 10873 N 1105.62 -0.414636 -1.52048 0
M  V30 10874 C 1106.86 0.159585 -2.02171 0
M  V30 10875 C 1107.2 1.44321 -1.29943 0
M  V30 10876 O 1106.47 1.90185 -0.407402 0
M  V30 10877 C 1106.76 0.401655 -3.57853 0
M  V30 10878 C 1106.61 -0.899026 -4.40724 0
M  V30 10879 C 1107.93 1.1814 -4.23947 0
M  V30 10880 H 1105.05 0.0565257 -0.734829 0
M  V30 10881 H 1107.69 -0.549183 -1.8189 0
M  V30 10882 H 1105.84 1.00541 -3.75265 0
M  V30 10883 H 1107.51 -1.53502 -4.35011 0
M  V30 10884 H 1105.75 -1.50877 -4.06717 0
M  V30 10885 H 1106.42 -0.683974 -5.47746 0
M  V30 10886 H 1108.9 0.670203 -4.10667 0
M  V30 10887 H 1107.78 1.31953 -5.32804 0
M  V30 10888 H 1108.04 2.2035 -3.83273 0
M  V30 10889 N 1107.1 1.56929 -0.145233 0
M  V30 10890 C 1108.32 2.00864 0.516564 0
M  V30 10891 C 1108.75 1.02466 1.57741 0
M  V30 10892 O 1108.1 0.000145439 1.813 0
M  V30 10893 C 1108.15 3.43552 1.09563 0
M  V30 10894 O 1107.26 3.4815 2.21055 0
M  V30 10895 H 1106.6 0.651835 0.126521 0
M  V30 10896 H 1109.13 2.0317 -0.241445 0
M  V30 10897 H 1109.14 3.82316 1.42473 0
M  V30 10898 H 1107.81 4.14677 0.318749 0
M  V30 10899 H 1106.39 3.21228 1.89387 0
M  V30 10900 N 1108.58 -0.128553 1.57075 0
M  V30 10901 C 1109.54 -1.14215 1.98715 0
M  V30 10902 C 1110.54 -1.34843 0.876019 0
M  V30 10903 O 1111.73 -1.31522 1.14227 0
M  V30 10904 C 1108.86 -2.49865 2.31905 0
M  V30 10905 H 1110.05 -0.784481 2.89458 0
M  V30 10906 H 1107.61 -0.372531 1.51796 0
M  V30 10907 H 1108.34 -2.9057 1.44012 0
M  V30 10908 H 1108.13 -2.3625 3.12935 0
M  V30 10909 H 1109.62 -3.22832 2.64895 0
M  V30 10910 N 1110.05 -1.5248 -0.398459 0
M  V30 10911 C 1111.28 -1.71221 -1.17039 0
M  V30 10912 C 1111.7 -0.425515 -1.83224 0
M  V30 10913 O 1111.06 0.617938 -1.70444 0
M  V30 10914 C 1111.11 -2.8562 -2.20121 0
M  V30 10915 O 1110.21 -2.51934 -3.26501 0
M  V30 10916 H 1109.55 -0.569654 -0.34116 0
M  V30 10917 H 1112.08 -1.99231 -0.465652 0
M  V30 10918 H 1112.09 -3.10842 -2.64275 0
M  V30 10919 H 1110.77 -3.78969 -1.71334 0
M  V30 10920 H 1109.35 -2.3742 -2.87552 0
M  V30 10921 N 1111.53 0.65634 -1.43283 0
M  V30 10922 C 1112.46 1.78101 -1.51004 0
M  V30 10923 C 1113.44 1.66138 -0.36498 0
M  V30 10924 O 1114.63 1.85281 -0.581778 0
M  V30 10925 C 1111.76 3.16511 -1.42961 0
M  V30 10926 C 1110.71 3.43233 -2.55685 0
M  V30 10927 C 1110.04 4.81411 -2.32696 0
M  V30 10928 C 1111.34 3.38288 -3.97943 0
M  V30 10929 H 1113.03 1.71896 -2.45137 0
M  V30 10930 H 1110.58 0.825575 -1.17984 0
M  V30 10931 H 1112.53 3.94941 -1.46968 0
M  V30 10932 H 1111.25 3.23439 -0.45332 0
M  V30 10933 H 1109.91 2.67173 -2.51026 0
M  V30 10934 H 1109.56 4.85011 -1.33317 0
M  V30 10935 H 1109.26 5.00251 -3.08257 0
M  V30 10936 H 1110.79 5.62102 -2.38481 0
M  V30 10937 H 1112.2 4.06659 -4.04106 0
M  V30 10938 H 1110.6 3.68664 -4.73505 0
M  V30 10939 H 1111.67 2.36525 -4.23301 0
M  V30 10940 N 1113.01 1.29761 0.894412 0
M  V30 10941 C 1113.97 1.15335 1.98067 0
M  V30 10942 C 1114.97 0.0872804 1.60563 0
M  V30 10943 O 1116.16 0.334645 1.70955 0
M  V30 10944 C 1113.29 0.764907 3.32208 0
M  V30 10945 H 1114.49 2.11829 2.12293 0
M  V30 10946 H 1112.04 1.13023 1.0796 0
M  V30 10947 H 1112.78 -0.199948 3.23683 0
M  V30 10948 H 1112.56 1.53523 3.60795 0
M  V30 10949 H 1114.05 0.687176 4.11907 0
M  V30 10950 N 1114.49 -1.10549 1.12324 0
M  V30 10951 C 1115.43 -2.16858 0.790024 0
M  V30 10952 C 1116.4 -1.64317 -0.242694 0
M  V30 10953 O 1117.59 -1.90438 -0.117531 0
M  V30 10954 C 1114.73 -3.44197 0.249503 0
M  V30 10955 C 1113.84 -4.10696 1.33989 0
M  V30 10956 C 1112.98 -5.25751 0.758932 0
M  V30 10957 C 1112.02 -5.8415 1.82853 0
M  V30 10958 N 1111.15 -6.90585 1.26637 0
M  V30 10959 H 1115.99 -2.44705 1.7007 0
M  V30 10960 H 1113.53 -1.20117 0.849141 0
M  V30 10961 H 1115.49 -4.1712 -0.0819251 0
M  V30 10962 H 1114.12 -3.16705 -0.624332 0
M  V30 10963 H 1113.17 -3.35754 1.78812 0
M  V30 10964 H 1114.48 -4.50144 2.14875 0
M  V30 10965 H 1113.64 -6.05521 0.378104 0
M  V30 10966 H 1112.38 -4.87632 -0.0811405 0
M  V30 10967 H 1111.38 -5.03051 2.21856 0
M  V30 10968 H 1112.61 -6.24333 2.6718 0
M  V30 10969 H 1110.55 -6.54468 0.448105 0
M  V30 10970 H 1110.47 -7.28739 2.01184 0
M  V30 10971 H 1111.74 -7.74138 0.912737 0
M  V30 10972 N 1115.97 -0.914965 -1.28321 0
M  V30 10973 C 1116.9 -0.361578 -2.2633 0
M  V30 10974 C 1117.91 0.500637 -1.54911 0
M  V30 10975 O 1119.1 0.31532 -1.75693 0
M  V30 10976 C 1116.2 0.501693 -3.35166 0
M  V30 10977 C 1115.37 -0.338289 -4.3609 0
M  V30 10978 C 1114.43 0.460267 -5.24183 0
M  V30 10979 O 1113.46 -0.127594 -5.69057 0
M  V30 10980 N 1114.66 1.76302 -5.5308 0
M  V30 10981 H 1117.42 -1.20402 -2.74451 0
M  V30 10982 H 1114.99 -0.781042 -1.41814 0
M  V30 10983 H 1116.98 1.04268 -3.91037 0
M  V30 10984 H 1115.55 1.24485 -2.86744 0
M  V30 10985 H 1114.77 -1.06064 -3.79663 0
M  V30 10986 H 1116.06 -0.912996 -5.00542 0
M  V30 10987 H 1115.45 2.26314 -5.18458 0
M  V30 10988 H 1114.01 2.25081 -6.11704 0
M  V30 10989 N 1117.44 1.42219 -0.679077 0
M  V30 10990 C 1118.69 2.01081 -0.202718 0
M  V30 10991 C 1119.01 1.53986 1.19639 0
M  V30 10992 O 1118.28 0.763359 1.80415 0
M  V30 10993 H 1116.86 0.743526 -0.0719547 0
M  V30 10994 H 1119.52 1.74077 -0.876544 0
M  V30 10995 H 1118.62 3.11411 -0.207314 0
M  V30 10996 N 1118.92 0.422693 1.51826 0
M  V30 10997 C 1119.85 -0.386913 2.30272 0
M  V30 10998 C 1120.83 -1.03411 1.35056 0
M  V30 10999 O 1122.02 -1.04055 1.6397 0
M  V30 11000 C 1119.15 -1.49645 3.13407 0
M  V30 11001 C 1118.1 -0.973532 4.16781 0
M  V30 11002 C 1117.43 -2.1777 4.88344 0
M  V30 11003 C 1118.73 -0.0181194 5.22297 0
M  V30 11004 H 1120.42 0.267697 2.98201 0
M  V30 11005 H 1117.97 0.130186 1.4341 0
M  V30 11006 H 1119.92 -2.06993 3.67059 0
M  V30 11007 H 1118.64 -2.17914 2.43272 0
M  V30 11008 H 1117.3 -0.42237 3.64159 0
M  V30 11009 H 1116.95 -2.84625 4.14726 0
M  V30 11010 H 1116.65 -1.83427 5.58237 0
M  V30 11011 H 1118.18 -2.75699 5.44814 0
M  V30 11012 H 1119.59 -0.500822 5.71108 0
M  V30 11013 H 1117.99 0.237163 5.99631 0
M  V30 11014 H 1119.06 0.923065 4.76033 0
M  V30 11015 O 1120.44 -1.58794 0.294418 0
M  V30 11016 H 1121.13 -1.91787 -0.271585 0
M  V30 END ATOM
M  V30 BEGIN BOND
M  V30 END BOND
M  V30 END CTAB
M  END
$$$$
