drugbank_target|P10745 Retinol-binding protein 3 (DB11948)
 OpenBabel12092119273D

  0  0  0     0  0            999 V3000
M  V30 BEGIN CTAB
M  V30 COUNTS 19044 19261 0 0 0
M  V30 BEGIN ATOM
M  V30 1 H -0.908 1.98254 -0.117106 0
M  V30 2 N 0 1.576 0 0
M  V30 3 C 0.933 2.03868 1.02534 0
M  V30 4 C 1.911 0.928543 1.3348 0
M  V30 5 O 3.095 1.19667 1.45644 0
M  V30 6 C 0.222 2.43627 2.35294 0
M  V30 7 C -0.732 3.65373 2.2001 0
M  V30 8 S 0.101 5.13292 1.52614 0
M  V30 9 C 1.257 5.56322 2.86805 0
M  V30 10 H 1.49 2.90518 0.631377 0
M  V30 11 H -0.977 1.52953 0.210867 0
M  V30 12 H 0.981 2.67203 3.11629 0
M  V30 13 H -0.358 1.57376 2.7183 0
M  V30 14 H -1.165 3.90944 3.18086 0
M  V30 15 H -1.563 3.418 1.51819 0
M  V30 16 H 0.729 5.58782 3.83104 0
M  V30 17 H 1.672 6.56266 2.65933 0
M  V30 18 H 2.08 4.83886 2.90714 0
M  V30 19 N 1.4781 -0.272755 1.55222 0
M  V30 20 C 2.4111 -1.3627 1.83046 0
M  V30 21 C 3.3891 -1.47536 0.683521 0
M  V30 22 O 4.5731 -1.64157 0.926545 0
M  V30 23 C 1.7001 -2.73908 1.99229 0
M  V30 24 C 0.7461 -2.79925 3.21783 0
M  V30 25 S 1.5791 -2.39146 4.79134 0
M  V30 26 C 2.7351 -3.78758 4.9829 0
M  V30 27 H 2.9681 -1.12464 2.75207 0
M  V30 28 H 0.5011 -0.472398 1.46996 0
M  V30 29 H 2.4591 -3.53171 2.09238 0
M  V30 30 H 1.1201 -2.94965 1.07956 0
M  V30 31 H 0.3131 -3.80946 3.29994 0
M  V30 32 H -0.0849 -2.08683 3.10367 0
M  V30 33 H 2.2071 -4.7403 4.84047 0
M  V30 34 H 3.1501 -3.75499 6.00338 0
M  V30 35 H 3.5581 -3.70072 4.26271 0
M  V30 36 N 2.9562 -1.48159 -0.537278 0
M  V30 37 C 4.3722 -1.34118 -0.865129 0
M  V30 38 C 4.5722 -0.346678 -1.98495 0
M  V30 39 O 3.6282 0.234715 -2.51407 0
M  V30 40 C 4.9412 -2.73963 -1.23954 0
M  V30 41 C 6.4892 -2.82397 -1.34984 0
M  V30 42 C 6.9642 -4.22928 -1.75772 0
M  V30 43 N 8.4552 -4.25566 -1.82887 0
M  V30 44 C 9.1902 -5.31235 -2.15817 0
M  V30 45 N 8.6862 -6.47189 -2.47222 0
M  V30 46 N 10.4792 -5.18624 -2.16761 0
M  V30 47 H 2.6302 -2.1144 0.201715 0
M  V30 48 H 4.8932 -0.947598 0.0275949 0
M  V30 49 H 4.5992 -3.48264 -0.490381 0
M  V30 50 H 4.4732 -3.0702 -2.19132 0
M  V30 51 H 6.8602 -2.08356 -2.08978 0
M  V30 52 H 6.9412 -2.5297 -0.379448 0
M  V30 53 H 6.5852 -4.97482 -1.02341 0
M  V30 54 H 6.5152 -4.49794 -2.73848 0
M  V30 55 H 9.0062 -3.41924 -1.60924 0
M  V30 56 H 9.3192 -7.23564 -2.71433 0
M  V30 57 H 7.6642 -6.50476 -2.44757 0
M  V30 58 H 10.8552 -4.27056 -1.91679 0
M  V30 59 H 11.0282 -6.01078 -2.42093 0
M  V30 60 N 4.4343 0.785586 -1.36625 0
M  V30 61 C 5.3443 1.92964 -1.33425 0
M  V30 62 C 6.3603 1.72394 -0.235851 0
M  V30 63 O 7.5363 1.95866 -0.468878 0
M  V30 64 C 4.6013 3.27884 -1.12662 0
M  V30 65 C 3.6623 3.61204 -2.32013 0
M  V30 66 C 2.8953 4.89687 -2.12231 0
M  V30 67 O 3.1183 5.59704 -1.09945 0
M  V30 68 O 2.0523 5.21752 -3.00098 0
M  V30 69 H 5.8783 1.98613 -2.29753 0
M  V30 70 H 3.4633 0.926384 -1.17211 0
M  V30 71 H 5.3453 4.08614 -1.03016 0
M  V30 72 H 4.0203 3.23118 -0.193991 0
M  V30 73 H 2.9273 2.80765 -2.47228 0
M  V30 74 H 4.2603 3.70698 -3.23796 0
M  V30 75 N 5.9124 1.20967 1.01018 0
M  V30 76 C 7.1584 1.0353 1.7508 0
M  V30 77 C 7.5134 -0.42734 1.87594 0
M  V30 78 O 6.8064 -1.31298 1.3954 0
M  V30 79 C 7.0004 1.65997 3.16512 0
M  V30 80 C 6.8294 3.18184 3.17788 0
M  V30 81 C 5.5994 3.87198 3.24662 0
M  V30 82 C 7.7974 4.15334 3.03319 0
M  V30 83 N 5.7794 5.26618 3.15509 0
M  V30 84 C 7.1504 5.41472 3.02007 0
M  V30 85 C 9.2054 4.06449 2.87583 0
M  V30 86 C 7.9084 6.5975 2.86571 0
M  V30 87 C 9.9344 5.24357 2.73503 0
M  V30 88 C 9.2964 6.49404 2.72862 0
M  V30 89 H 5.3954 0.433137 0.651089 0
M  V30 90 H 7.9794 1.5324 1.20107 0
M  V30 91 H 6.1504 1.18863 3.69765 0
M  V30 92 H 7.8824 1.41816 3.79039 0
M  V30 93 H 4.6374 3.38093 3.31648 0
M  V30 94 H 5.0614 5.99626 3.14289 0
M  V30 95 H 9.7034 3.10573 2.86887 0
M  V30 96 H 7.4214 7.55792 2.86015 0
M  V30 97 H 11.0074 5.19299 2.62334 0
M  V30 98 H 9.8874 7.39105 2.62093 0
M  V30 99 N 7.3905 -1.2043 1.01659 0
M  V30 100 C 8.6365 -1.90079 0.706963 0
M  V30 101 C 8.9695 -1.78648 -0.761474 0
M  V30 102 O 8.2445 -1.17069 -1.55323 0
M  V30 103 C 8.5275 -3.41469 1.14327 0
M  V30 104 C 8.3805 -3.61833 2.67201 0
M  V30 105 C 9.6995 -4.34261 0.714529 0
M  V30 106 H 6.8185 -0.690254 0.2583 0
M  V30 107 H 9.4605 -1.41826 1.26433 0
M  V30 108 H 7.6105 -3.82696 0.669056 0
M  V30 109 H 9.2825 -3.2986 3.22475 0
M  V30 110 H 7.5255 -3.05304 3.08175 0
M  V30 111 H 8.1965 -4.67955 2.92783 0
M  V30 112 H 10.6725 -4.00682 1.12221 0
M  V30 113 H 9.5485 -5.38806 1.04784 0
M  V30 114 H 9.8095 -4.40431 -0.383799 0
M  V30 115 N 8.8686 -0.792821 -1.36206 0
M  V30 116 C 9.7986 -0.207853 -2.32573 0
M  V30 117 C 10.7796 0.659055 -1.56813 0
M  V30 118 O 11.9646 0.592176 -1.84951 0
M  V30 119 C 9.0946 0.655449 -3.41059 0
M  V30 120 C 8.0486 -0.111842 -4.27854 0
M  V30 121 C 7.3746 0.872274 -5.27537 0
M  V30 122 C 8.6746 -1.30299 -5.05786 0
M  V30 123 H 10.3686 -1.01294 -2.81744 0
M  V30 124 H 7.9146 -0.48854 -1.3546 0
M  V30 125 H 9.8676 1.07464 -4.07467 0
M  V30 126 H 8.5916 1.49328 -2.90463 0
M  V30 127 H 7.2506 -0.512053 -3.63006 0
M  V30 128 H 6.8986 1.70523 -4.73214 0
M  V30 129 H 6.5986 0.363291 -5.86476 0
M  V30 130 H 8.1226 1.28996 -5.96818 0
M  V30 131 H 9.5366 -0.959379 -5.65216 0
M  V30 132 H 7.9336 -1.7455 -5.74154 0
M  V30 133 H 9.0036 -2.09663 -4.37229 0
M  V30 134 N 10.3467 1.47872 -0.545128 0
M  V30 135 C 11.2767 2.32661 0.197793 0
M  V30 136 C 12.2577 1.43041 0.920504 0
M  V30 137 O 13.4427 1.71912 0.90333 0
M  V30 138 C 10.5727 3.24569 1.23582 0
M  V30 139 C 9.5267 4.23333 0.630323 0
M  V30 140 C 8.8527 5.0448 1.77211 0
M  V30 141 C 10.1527 5.20704 -0.407974 0
M  V30 142 H 11.8467 2.95024 -0.510045 0
M  V30 143 H 9.3927 1.4187 -0.246731 0
M  V30 144 H 11.3457 3.8272 1.76362 0
M  V30 145 H 10.0697 2.60236 1.97344 0
M  V30 146 H 8.7287 3.6639 0.123922 0
M  V30 147 H 8.3767 4.36561 2.49847 0
M  V30 148 H 8.0767 5.71339 1.37281 0
M  V30 149 H 9.6007 5.65487 2.3034 0
M  V30 150 H 11.0147 5.7329 0.033305 0
M  V30 151 H 9.4117 5.95699 -0.725486 0
M  V30 152 H 10.4817 4.66917 -1.30828 0
M  V30 153 N 11.8248 0.280983 1.55075 0
M  V30 154 C 12.7578 -0.645439 2.18882 0
M  V30 155 C 13.7358 -1.14786 1.15165 0
M  V30 156 O 14.9198 -1.21975 1.43716 0
M  V30 157 C 12.0468 -1.88088 2.81674 0
M  V30 158 C 11.0928 -1.51343 3.98745 0
M  V30 159 S 11.9258 -0.586548 5.32278 0
M  V30 160 C 13.0818 -1.83024 5.98543 0
M  V30 161 H 13.3148 -0.1033 2.9712 0
M  V30 162 H 10.8478 0.0652099 1.54262 0
M  V30 163 H 12.8058 -2.58997 3.18482 0
M  V30 164 H 11.4668 -2.39417 2.03318 0
M  V30 165 H 10.6598 -2.43289 4.41392 0
M  V30 166 H 10.2618 -0.884477 3.63391 0
M  V30 167 H 12.5538 -2.77342 6.18133 0
M  V30 168 H 13.4968 -1.44668 6.93164 0
M  V30 169 H 13.9048 -1.99785 5.27964 0
M  V30 170 N 13.3029 -1.57598 0.00835791 0
M  V30 171 C 14.5279 -1.95617 -0.689103 0
M  V30 172 C 14.9529 -0.883753 -1.66046 0
M  V30 173 O 14.3109 0.157352 -1.80616 0
M  V30 174 C 14.3589 -3.32736 -1.38994 0
M  V30 175 O 13.4629 -3.27631 -2.50463 0
M  V30 176 H 12.8039 -0.638379 -0.182668 0
M  V30 177 H 15.3339 -2.045 0.064036 0
M  V30 178 H 15.3439 -3.68494 -1.75147 0
M  V30 179 H 14.0189 -4.1034 -0.677778 0
M  V30 180 H 12.5959 -3.03561 -2.16576 0
M  V30 181 N 14.781 0.264519 -1.55364 0
M  V30 182 C 16.027 0.99646 -1.76631 0
M  V30 183 C 16.36 1.85632 -0.570478 0
M  V30 184 O 15.635 1.89647 0.43175 0
M  V30 185 C 15.918 1.87187 -3.07625 0
M  V30 186 C 15.771 1.04138 -4.37579 0
M  V30 187 C 17.09 2.85749 -3.34717 0
M  V30 188 H 14.209 0.360841 -0.642622 0
M  V30 189 H 16.851 0.268218 -1.88097 0
M  V30 190 H 15.001 2.49279 -2.9798 0
M  V30 191 H 16.673 0.440517 -4.59192 0
M  V30 192 H 14.916 0.345115 -4.32425 0
M  V30 193 H 15.587 1.68729 -5.2558 0
M  V30 194 H 18.063 2.33793 -3.4421 0
M  V30 195 H 16.939 3.44136 -4.27623 0
M  V30 196 H 17.2 3.61311 -2.54768 0
M  V30 197 N 16.2591 1.48442 0.529413 0
M  V30 198 C 17.1891 1.65902 1.64313 0
M  V30 199 C 18.1701 0.507897 1.6234 0
M  V30 200 O 19.3551 0.740503 1.79528 0
M  V30 201 C 16.4851 1.69911 3.02898 0
M  V30 202 C 15.4391 2.8453 3.19729 0
M  V30 203 C 14.7651 2.73629 4.59381 0
M  V30 204 C 16.0651 4.25821 3.02447 0
M  V30 205 H 17.7591 2.5914 1.49955 0
M  V30 206 H 15.3051 1.24709 0.719982 0
M  V30 207 H 17.2581 1.80715 3.80684 0
M  V30 208 H 15.9821 0.732524 3.18279 0
M  V30 209 H 14.6411 2.73283 2.44361 0
M  V30 210 H 14.2891 1.74938 4.71599 0
M  V30 211 H 13.9891 3.50541 4.71588 0
M  V30 212 H 15.5131 2.86401 5.39265 0
M  V30 213 H 16.9271 4.37898 3.70024 0
M  V30 214 H 15.3241 5.03735 3.26146 0
M  V30 215 H 16.3941 4.42244 1.98867 0
M  V30 216 N 17.7372 -0.778329 1.37039 0
M  V30 217 C 18.6672 -1.90546 1.34962 0
M  V30 218 C 19.6482 -1.68681 0.219274 0
M  V30 219 O 20.8332 -1.89634 0.418624 0
M  V30 220 C 17.9632 -3.27734 1.14925 0
M  V30 221 C 16.9172 -3.64147 2.24902 0
M  V30 222 C 16.2432 -4.99806 1.89996 0
M  V30 223 C 17.5432 -3.71579 3.67051 0
M  V30 224 H 19.2372 -1.92541 2.29277 0
M  V30 225 H 16.7832 -0.924948 1.10366 0
M  V30 226 H 18.7362 -4.06215 1.12104 0
M  V30 227 H 17.4602 -3.26154 0.170631 0
M  V30 228 H 16.1192 -2.8797 2.26868 0
M  V30 229 H 15.7672 -4.94759 0.906796 0
M  V30 230 H 15.4672 -5.25139 2.63634 0
M  V30 231 H 16.9912 -5.80694 1.88749 0
M  V30 232 H 18.4052 -4.40227 3.67251 0
M  V30 233 H 16.8022 -4.08405 4.39688 0
M  V30 234 H 17.8722 -2.72404 4.01154 0
M  V30 235 N 19.2153 -1.21501 -1.00376 0
M  V30 236 C 20.4553 -1.04444 -1.75701 0
M  V30 237 C 20.8193 0.414644 -1.87469 0
M  V30 238 O 22.0203 0.705763 -2.59369 0
M  V30 239 C 20.2913 -1.72389 -3.13077 0
M  V30 240 S 21.8503 -1.70604 -4.04277 0
M  V30 241 H 18.6683 -0.374249 -0.604532 0
M  V30 242 H 21.2703 -1.54267 -1.20091 0
M  V30 243 H 19.9743 -2.77734 -3.02146 0
M  V30 244 H 19.5053 -1.22751 -3.73759 0
M  V30 245 H 21.5203 -0.748012 -4.9053 0
M  V30 246 N 20.6934 1.19889 -1.02296 0
M  V30 247 C 21.9414 1.89046 -0.714558 0
M  V30 248 C 22.2624 1.79636 0.758681 0
M  V30 249 O 21.5324 1.20292 1.54618 0
M  V30 250 H 20.1124 0.699802 -0.261317 0
M  V30 251 H 22.7744 1.45574 -1.29592 0
M  V30 252 H 21.8704 2.95524 -1.0036 0
M  V30 253 N 22.1715 0.800033 1.35784 0
M  V30 254 C 23.1015 0.220184 2.3246 0
M  V30 255 C 24.0825 -0.65073 1.57161 0
M  V30 256 O 25.2675 -0.582359 1.85263 0
M  V30 257 C 22.3975 -0.637353 3.41402 0
M  V30 258 C 21.3515 0.134531 4.27789 0
M  V30 259 C 20.6775 -0.844285 5.27992 0
M  V30 260 C 21.9775 1.32979 5.05088 0
M  V30 261 H 23.6715 1.02787 2.81203 0
M  V30 262 H 21.2175 0.495717 1.35199 0
M  V30 263 H 23.1705 -1.05302 4.08031 0
M  V30 264 H 21.8945 -1.47785 2.91251 0
M  V30 265 H 20.5535 0.531296 3.6273 0
M  V30 266 H 20.2015 -1.68011 4.74111 0
M  V30 267 H 19.9015 -0.332184 5.8666 0
M  V30 268 H 21.4255 -1.2583 5.97494 0
M  V30 269 H 22.8395 0.98934 5.64699 0
M  V30 270 H 21.2365 1.77593 5.7322 0
M  V30 271 H 22.3065 2.11978 4.36111 0
M  V30 272 N 23.6496 -1.47581 0.552962 0
M  V30 273 C 24.6126 -2.28439 -0.186605 0
M  V30 274 C 25.6126 -1.36706 -0.84665 0
M  V30 275 O 26.8026 -1.59378 -0.703164 0
M  V30 276 C 23.9346 -3.16264 -1.2724 0
M  V30 277 H 25.1276 -2.95294 0.523609 0
M  V30 278 H 22.6806 -1.532 0.309745 0
M  V30 279 H 23.4156 -2.54091 -2.01514 0
M  V30 280 H 23.2006 -3.83769 -0.803968 0
M  V30 281 H 24.6906 -3.77198 -1.79196 0
M  V30 282 N 25.1277 -0.289203 -1.54924 0
M  V30 283 C 26.3757 0.322879 -1.99504 0
M  V30 284 C 26.6967 1.55313 -1.1791 0
M  V30 285 O 25.9667 1.94001 -0.272097 0
M  V30 286 H 24.5467 0.122291 -0.736922 0
M  V30 287 H 27.2087 -0.397802 -1.90797 0
M  V30 288 H 26.3047 0.603061 -3.06218 0
M  V30 289 N 26.6058 1.57591 -0.0167156 0
M  V30 290 C 28.0168 1.79201 0.523834 0
M  V30 291 C 28.3678 0.925796 1.72984 0
M  V30 292 O 27.4928 0.132792 2.15992 0
M  V30 293 C 28.0878 3.25 0.957091 0
M  V30 294 C 26.6468 3.47648 1.44283 0
M  V30 295 C 25.7938 2.74374 0.401757 0
M  V30 296 H 28.7448 1.56831 -0.242816 0
M  V30 297 H 28.7658 3.34031 1.82219 0
M  V30 298 H 28.2778 3.88019 0.0791415 0
M  V30 299 H 26.3788 2.89866 2.34113 0
M  V30 300 H 26.4918 4.56352 1.45877 0
M  V30 301 H 24.8558 2.39485 0.867121 0
M  V30 302 H 25.6388 3.40102 -0.467513 0
M  V30 303 N 28.0839 -0.256276 1.55502 0
M  V30 304 C 29.3119 -1.00342 1.8094 0
M  V30 305 C 29.7269 -1.79307 0.59114 0
M  V30 306 O 29.0839 -1.77114 -0.440081 0
M  V30 307 C 29.1349 -1.94875 3.04476 0
M  V30 308 O 28.8559 -1.19107 4.21598 0
M  V30 309 C 30.3569 -2.81266 3.42644 0
M  V30 310 H 27.5769 -0.295685 0.602338 0
M  V30 311 H 30.1209 -0.281998 2.02546 0
M  V30 312 H 28.2759 -2.62457 2.84947 0
M  V30 313 H 28.6899 -1.82969 4.91551 0
M  V30 314 H 30.1639 -3.43362 4.32211 0
M  V30 315 H 30.6409 -3.51897 2.62802 0
M  V30 316 H 31.2469 -2.1915 3.64491 0
M  V30 317 N 29.562 -1.4872 -0.521534 0
M  V30 318 C 30.512 -1.60269 -1.62166 0
M  V30 319 C 31.496 -0.45935 -1.54204 0
M  V30 320 O 32.688 -0.711241 -1.62081 0
M  V30 321 C 29.817 -1.65344 -3.00859 0
M  V30 322 C 28.903 -2.85187 -3.13894 0
M  V30 323 N 29.294 -4.09509 -2.96877 0
M  V30 324 C 27.592 -2.82695 -3.44963 0
M  V30 325 C 28.293 -4.89959 -3.13552 0
M  V30 326 N 27.269 -4.22934 -3.41508 0
M  V30 327 H 31.071 -2.5413 -1.47632 0
M  V30 328 H 28.585 -1.45209 -0.727194 0
M  V30 329 H 30.582 -1.71713 -3.79895 0
M  V30 330 H 29.242 -0.726058 -3.16478 0
M  V30 331 H 30.253 -4.39814 -2.73467 0
M  V30 332 H 26.93 -1.99249 -3.66887 0
M  V30 333 H 28.32 -5.98654 -3.05061 0
M  V30 334 N 31.0401 0.771051 -1.3745 0
M  V30 335 C 31.9701 1.89827 -1.3597 0
M  V30 336 C 32.9511 1.68562 -0.228216 0
M  V30 337 O 34.1361 1.8941 -0.428675 0
M  V30 338 C 31.2661 3.2712 -1.16662 0
M  V30 339 C 30.2201 3.6295 -2.2683 0
M  V30 340 C 29.5461 4.98791 -1.92644 0
M  V30 341 C 30.8461 3.69627 -3.69017 0
M  V30 342 H 32.5401 1.91323 -2.30295 0
M  V30 343 H 30.0861 0.919082 -1.10855 0
M  V30 344 H 32.0391 4.05615 -1.14256 0
M  V30 345 H 30.7631 3.26059 -0.187926 0
M  V30 346 H 29.4221 2.86763 -2.28392 0
M  V30 347 H 29.0701 4.94271 -0.933021 0
M  V30 348 H 28.7701 5.23733 -2.66416 0
M  V30 349 H 30.2941 5.79685 -1.91826 0
M  V30 350 H 31.7081 4.38273 -3.69581 0
M  V30 351 H 30.1051 4.06067 -4.41848 0
M  V30 352 H 31.1751 2.70273 -4.02592 0
M  V30 353 N 32.5182 1.22032 0.997298 0
M  V30 354 C 33.7652 1.04222 1.73621 0
M  V30 355 C 34.0932 -0.423264 1.89839 0
M  V30 356 O 33.3482 -1.3302 1.43542 0
M  V30 357 C 33.6472 1.69345 3.14733 0
M  V30 358 C 33.3132 3.19226 3.18442 0
M  V30 359 C 31.9752 3.60124 3.19161 0
M  V30 360 C 34.3272 4.15181 3.15078 0
M  V30 361 C 31.6552 4.95467 3.14212 0
M  V30 362 C 34.0072 5.50495 3.1167 0
M  V30 363 C 32.6712 5.90779 3.10703 0
M  V30 364 H 31.9412 0.381374 0.635323 0
M  V30 365 H 34.5882 1.51732 1.16831 0
M  V30 366 H 32.8932 1.14147 3.74803 0
M  V30 367 H 34.5902 1.53059 3.7064 0
M  V30 368 H 31.1802 2.86659 3.18629 0
M  V30 369 H 35.3642 3.84605 3.13676 0
M  V30 370 H 30.6202 5.25916 3.11805 0
M  V30 371 H 34.7942 6.24576 3.08022 0
M  V30 372 H 32.4212 6.9562 3.06622 0
M  V30 373 N 33.9963 -1.19345 1.0293 0
M  V30 374 C 34.9283 -2.22036 0.56857 0
M  V30 375 C 35.9413 -1.58865 -0.355779 0
M  V30 376 O 37.1303 -1.77851 -0.152103 0
M  V30 377 C 34.2303 -3.38363 -0.190752 0
M  V30 378 C 33.4033 -4.31118 0.738643 0
M  V30 379 C 32.4623 -5.26194 0.0246497 0
M  V30 380 O 31.4883 -5.65461 0.651354 0
M  V30 381 N 32.6903 -5.66971 -1.24594 0
M  V30 382 H 35.4553 -2.6219 1.45177 0
M  V30 383 H 33.0163 -1.34015 0.908381 0
M  V30 384 H 35.0083 -3.98981 -0.677961 0
M  V30 385 H 33.5783 -2.96994 -0.975366 0
M  V30 386 H 32.7983 -3.68276 1.40593 0
M  V30 387 H 34.0863 -4.90001 1.37029 0
M  V30 388 H 33.4843 -5.37104 -1.77583 0
M  V30 389 H 32.0413 -6.2984 -1.67764 0
M  V30 390 N 35.4744 -0.807222 -1.35358 0
M  V30 391 C 36.8854 -0.44876 -1.81226 0
M  V30 392 C 37.2364 1.02929 -1.67033 0
M  V30 393 O 36.3614 1.79991 -1.20133 0
M  V30 394 C 36.9564 -0.807774 -3.2903 0
M  V30 395 C 35.5154 -0.501901 -3.73039 0
M  V30 396 C 34.6624 -1.03304 -2.57339 0
M  V30 397 H 37.6134 -0.998808 -1.23327 0
M  V30 398 H 37.6344 -0.10554 -3.80354 0
M  V30 399 H 37.1464 -1.88357 -3.39328 0
M  V30 400 H 35.2474 0.565128 -3.68289 0
M  V30 401 H 35.3604 -1.03497 -4.67787 0
M  V30 402 H 33.7244 -0.455339 -2.50597 0
M  V30 403 H 34.5074 -2.11496 -2.70415 0
M  V30 404 N 36.9525 1.47285 -0.560781 0
M  V30 405 C 38.1775 2.07359 -0.0410566 0
M  V30 406 C 38.6025 1.41017 1.24483 0
M  V30 407 O 37.9605 0.486368 1.74654 0
M  V30 408 C 38.0085 3.6035 0.134123 0
M  V30 409 O 37.1125 3.94681 1.19587 0
M  V30 410 H 36.4535 0.661887 -0.0529291 0
M  V30 411 H 38.9835 1.89252 -0.777482 0
M  V30 412 H 38.9935 4.0652 0.347207 0
M  V30 413 H 37.6685 4.08034 -0.805047 0
M  V30 414 H 36.2455 3.60251 0.962987 0
M  V30 415 N 38.4306 0.297415 1.54768 0
M  V30 416 C 39.3606 -0.573494 2.26348 0
M  V30 417 C 40.3416 -1.14085 1.26169 0
M  V30 418 O 41.5266 -1.17086 1.54934 0
M  V30 419 C 38.6566 -1.74716 3.00153 0
M  V30 420 C 37.6106 -1.31032 4.07449 0
M  V30 421 C 36.9366 -2.56887 4.68949 0
M  V30 422 C 38.2366 -0.444183 5.20408 0
M  V30 423 H 39.9306 0.0235131 2.99391 0
M  V30 424 H 37.4766 0.0127488 1.43994 0
M  V30 425 H 39.4296 -2.3625 3.48947 0
M  V30 426 H 38.1536 -2.37035 2.24682 0
M  V30 427 H 36.8126 -0.718066 3.59499 0
M  V30 428 H 36.4606 -3.17512 3.90122 0
M  V30 429 H 36.1606 -2.2836 5.41411 0
M  V30 430 H 37.6846 -3.19229 5.20505 0
M  V30 431 H 39.0986 -0.9651 5.65118 0
M  V30 432 H 37.4956 -0.252846 5.99567 0
M  V30 433 H 38.5656 0.531609 4.81977 0
M  V30 434 N 39.9087 -1.5758 0.0250728 0
M  V30 435 C 41.1547 -1.91917 -0.655413 0
M  V30 436 C 41.4877 -0.901433 -1.72011 0
M  V30 437 O 40.7627 0.0764069 -1.9435 0
M  V30 438 C 41.0457 -3.36751 -1.27558 0
M  V30 439 C 40.8987 -4.49258 -0.220719 0
M  V30 440 C 42.2177 -3.81469 -2.19475 0
M  V30 441 H 39.3367 -0.697925 -0.23679 0
M  V30 442 H 41.9787 -1.89825 0.0815036 0
M  V30 443 H 40.1287 -3.38664 -1.90365 0
M  V30 444 H 41.8007 -4.59478 0.409601 0
M  V30 445 H 40.0437 -4.31415 0.454264 0
M  V30 446 H 40.7147 -5.47618 -0.694175 0
M  V30 447 H 43.1907 -3.81266 -1.66659 0
M  V30 448 H 42.0667 -4.83512 -2.59822 0
M  V30 449 H 42.3277 -3.16744 -3.08424 0
M  V30 450 N 41.3868 0.248026 -1.55636 0
M  V30 451 C 42.3168 1.31079 -1.93237 0
M  V30 452 C 43.2978 1.50264 -0.797174 0
M  V30 453 O 44.4828 1.62891 -1.05737 0
M  V30 454 C 41.6128 2.66575 -2.22609 0
M  V30 455 C 40.5668 2.62087 -3.3837 0
M  V30 456 C 39.8928 4.01369 -3.53281 0
M  V30 457 C 41.1928 2.19171 -4.7409 0
M  V30 458 H 42.8868 0.998556 -2.82257 0
M  V30 459 H 40.4328 0.47891 -1.35803 0
M  V30 460 H 42.3858 3.41057 -2.47503 0
M  V30 461 H 41.1098 2.99432 -1.30414 0
M  V30 462 H 39.7688 1.90063 -3.13483 0
M  V30 463 H 39.4168 4.31489 -2.58508 0
M  V30 464 H 39.1168 3.99254 -4.31127 0
M  V30 465 H 40.6408 4.77552 -3.80495 0
M  V30 466 H 42.0548 2.83384 -4.98363 0
M  V30 467 H 40.4518 2.2817 -5.5503 0
M  V30 468 H 41.5218 1.14336 -4.71227 0
M  V30 469 N 42.8649 1.48995 0.513639 0
M  V30 470 C 44.1419 1.48338 1.27495 0
M  V30 471 C 44.5219 0.204065 2.10111 0
M  V30 472 O 43.8699 -0.813881 2.13514 0
M  V30 473 C 44.0799 2.75498 2.14247 0
M  V30 474 C 45.4279 3.24484 2.73852 0
M  V30 475 O 46.4519 2.76528 2.24523 0
M  V30 476 O 45.3109 4.07974 3.6362 0
M  V30 477 H 42.4049 0.593149 0.576284 0
M  V30 478 H 44.9509 1.61246 0.528948 0
M  V30 479 H 43.7229 3.60109 1.53092 0
M  V30 480 H 43.3459 2.6539 2.96064 0
M  V30 481 N 44.343 -0.763751 1.37857 0
M  V30 482 C 45.276 -1.88486 1.28639 0
M  V30 483 C 46.254 -1.61757 0.165363 0
M  V30 484 O 47.438 -1.85391 0.340948 0
M  V30 485 C 44.565 -3.23884 0.990811 0
M  V30 486 C 43.611 -3.69514 2.12983 0
M  V30 487 S 44.444 -3.82244 3.75033 0
M  V30 488 C 45.6 -5.20477 3.47641 0
M  V30 489 H 45.833 -1.96017 2.23527 0
M  V30 490 H 43.366 -0.925684 1.23574 0
M  V30 491 H 45.324 -4.02081 0.827101 0
M  V30 492 H 43.985 -3.14044 0.0592832 0
M  V30 493 H 43.178 -4.67696 1.87821 0
M  V30 494 H 42.78 -2.98441 2.25408 0
M  V30 495 H 45.072 -6.05905 3.03125 0
M  V30 496 H 46.015 -5.50655 4.4518 0
M  V30 497 H 46.423 -4.88793 2.82385 0
M  V30 498 N 45.8211 -1.22559 -0.990812 0
M  V30 499 C 46.7841 -0.998863 -2.0629 0
M  V30 500 C 47.7841 0.0354834 -1.60761 0
M  V30 501 O 48.9741 -0.203231 -1.7301 0
M  V30 502 C 46.1061 -0.509203 -3.37076 0
M  V30 503 H 47.2991 -1.95014 -2.27837 0
M  V30 504 H 44.8521 -1.04456 -1.16269 0
M  V30 505 H 45.5871 0.446335 -3.21214 0
M  V30 506 H 45.3721 -1.25547 -3.71457 0
M  V30 507 H 46.8621 -0.370888 -4.1595 0
M  V30 508 N 47.2992 1.18797 -1.03562 0
M  V30 509 C 48.2462 2.22253 -0.622259 0
M  V30 510 C 49.2162 1.61987 0.36736 0
M  V30 511 O 50.4012 1.88986 0.262492 0
M  V30 512 C 47.5412 3.45097 0.0138462 0
M  V30 513 C 46.6542 4.19722 -1.02263 0
M  V30 514 C 45.7892 5.30009 -0.355573 0
M  V30 515 C 44.8282 5.96399 -1.37749 0
M  V30 516 N 43.9652 6.98234 -0.735766 0
M  V30 517 H 48.8052 2.56968 -1.50903 0
M  V30 518 H 46.3422 1.26245 -0.755017 0
M  V30 519 H 48.3002 4.15279 0.399948 0
M  V30 520 H 46.9302 3.11018 0.864158 0
M  V30 521 H 45.9822 3.48418 -1.52673 0
M  V30 522 H 47.2942 4.65227 -1.79903 0
M  V30 523 H 46.4482 6.0664 0.0850095 0
M  V30 524 H 45.1872 4.85592 0.452967 0
M  V30 525 H 44.1922 5.18512 -1.82826 0
M  V30 526 H 45.4172 6.42899 -2.18764 0
M  V30 527 H 43.3632 6.55979 0.0525597 0
M  V30 528 H 43.2802 7.41965 -1.44995 0
M  V30 529 H 44.5482 7.78845 -0.31941 0
M  V30 530 N 48.7773 0.814389 1.34928 0
M  V30 531 C 50.0233 0.399013 1.98836 0
M  V30 532 C 50.3563 -1.03314 1.64438 0
M  V30 533 O 49.6313 -1.71811 0.911659 0
M  V30 534 C 49.9143 0.591629 3.55207 0
M  V30 535 C 49.7673 2.06928 3.99376 0
M  V30 536 C 51.0863 0.022199 4.40094 0
M  V30 537 H 48.2053 0.146451 0.722303 0
M  V30 538 H 50.8473 1.02537 1.59957 0
M  V30 539 H 48.9973 0.0584441 3.88456 0
M  V30 540 H 50.6693 2.66544 3.76499 0
M  V30 541 H 48.9123 2.56287 3.49999 0
M  V30 542 H 49.5833 2.1549 5.08201 0
M  V30 543 H 52.0593 0.477643 4.13349 0
M  V30 544 H 50.9353 0.186832 5.48582 0
M  V30 545 H 51.1963 -1.07215 4.28902 0
M  V30 546 N 50.2554 -1.46986 0.568584 0
M  V30 547 C 51.1854 -2.32946 -0.160753 0
M  V30 548 C 52.1664 -1.44487 -0.897631 0
M  V30 549 O 53.3514 -1.73327 -0.875867 0
M  V30 550 C 50.4814 -3.26494 -1.18403 0
M  V30 551 C 49.4354 -4.24282 -0.562895 0
M  V30 552 C 48.7614 -5.07236 -1.69163 0
M  V30 553 C 50.0614 -5.19989 0.490761 0
M  V30 554 H 51.7554 -2.94175 0.556916 0
M  V30 555 H 49.3014 -1.4146 0.26927 0
M  V30 556 H 51.2544 -3.85477 -1.70251 0
M  V30 557 H 49.9784 -2.63343 -1.93179 0
M  V30 558 H 48.6374 -3.66541 -0.0656164 0
M  V30 559 H 48.2854 -4.4048 -2.42871 0
M  V30 560 H 47.9854 -5.7345 -1.28174 0
M  V30 561 H 49.5094 -5.6908 -2.21314 0
M  V30 562 H 50.9234 -5.73271 0.0579047 0
M  V30 563 H 49.3204 -5.94469 0.820165 0
M  V30 564 H 50.3904 -4.64777 1.3824 0
M  V30 565 N 51.7335 -0.305618 -1.54608 0
M  V30 566 C 52.6635 0.561482 -2.26649 0
M  V30 567 C 53.6445 1.13415 -1.26772 0
M  V30 568 O 54.8295 1.16262 -1.55553 0
M  V30 569 C 51.9595 1.73122 -3.01075 0
M  V30 570 C 50.9135 1.2887 -4.08138 0
M  V30 571 C 50.2395 2.54396 -4.70305 0
M  V30 572 C 51.5395 0.416578 -5.20636 0
M  V30 573 H 53.2335 -0.0393902 -2.99374 0
M  V30 574 H 50.7795 -0.020385 -1.43986 0
M  V30 575 H 52.7325 2.34396 -3.50195 0
M  V30 576 H 51.4565 2.3584 -2.25936 0
M  V30 577 H 50.1155 0.698991 -3.59875 0
M  V30 578 H 49.7635 3.15439 -3.918 0
M  V30 579 H 49.4635 2.25486 -5.42614 0
M  V30 580 H 50.9875 3.16464 -5.2219 0
M  V30 581 H 52.4015 0.935116 -5.65622 0
M  V30 582 H 50.7985 0.221046 -5.99693 0
M  V30 583 H 51.8685 -0.557162 -4.81688 0
M  V30 584 N 53.2116 1.57565 -0.0334293 0
M  V30 585 C 54.4886 1.83282 0.683163 0
M  V30 586 C 54.8686 0.91823 1.90084 0
M  V30 587 O 54.2166 -0.025113 2.28486 0
M  V30 588 C 54.4266 3.32599 1.0573 0
M  V30 589 C 55.7746 3.99179 1.44711 0
M  V30 590 O 56.7986 3.3712 1.15015 0
M  V30 591 O 55.6576 5.08565 2.0006 0
M  V30 592 H 52.7516 0.755869 0.335546 0
M  V30 593 H 55.2976 1.69589 -0.0614402 0
M  V30 594 H 54.0696 3.90834 0.190828 0
M  V30 595 H 53.6926 3.51415 1.85993 0
M  V30 596 N 54.6897 -0.239769 1.55765 0
M  V30 597 C 55.6377 -1.31668 1.91745 0
M  V30 598 C 56.6317 -1.49462 0.797338 0
M  V30 599 O 57.8377 -1.50852 0.982021 0
M  V30 600 H 54.2127 -0.441048 0.609082 0
M  V30 601 H 56.1837 -0.985923 2.81642 0
M  V30 602 C 54.9327 -2.66368 2.2348 0
M  V30 603 H 54.2557 -2.53478 3.09175 0
M  V30 604 H 55.6957 -3.40578 2.52553 0
M  V30 605 C 54.1547 -3.20002 1.05359 0
M  V30 606 O 54.6847 -4.00538 0.305261 0
M  V30 607 N 52.8907 -2.78126 0.842292 0
M  V30 608 H 52.4377 -2.12742 1.45253 0
M  V30 609 H 52.3957 -3.14354 0.053652 0
M  V30 610 N 56.1678 -1.49265 -0.50573 0
M  V30 611 C 57.3978 -1.61979 -1.28243 0
M  V30 612 C 57.8058 -0.288576 -1.86986 0
M  V30 613 O 57.1488 0.735408 -1.68337 0
M  V30 614 C 57.2108 -2.62632 -2.45489 0
M  V30 615 C 56.8748 -4.071 -2.07651 0
M  V30 616 C 57.8718 -4.94049 -1.61901 0
M  V30 617 C 55.5568 -4.52801 -2.17431 0
M  V30 618 C 57.5508 -6.24736 -1.26428 0
M  V30 619 C 55.2378 -5.83503 -1.8157 0
M  V30 620 C 56.2358 -6.69294 -1.36142 0
M  V30 621 O 55.9238 -7.9756 -1.00764 0
M  V30 622 H 55.6558 -0.54834 -0.395347 0
M  V30 623 H 58.2098 -1.96002 -0.614204 0
M  V30 624 H 56.4398 -2.2378 -3.15372 0
M  V30 625 H 58.1288 -2.64925 -3.07522 0
M  V30 626 H 58.8948 -4.5997 -1.53795 0
M  V30 627 H 54.7738 -3.86196 -2.51742 0
M  V30 628 H 58.3178 -6.91652 -0.908992 0
M  V30 629 H 54.2148 -6.17112 -1.89324 0
M  V30 630 H 54.9828 -8.10529 -1.13952 0
M  V30 631 N 57.6459 0.756429 -1.3826 0
M  V30 632 C 58.8859 1.52833 -1.35725 0
M  V30 633 C 59.2499 1.91926 0.0534106 0
M  V30 634 O 60.4509 2.68028 0.203613 0
M  V30 635 C 58.7219 2.74919 -2.28373 0
M  V30 636 S 60.2809 3.64817 -2.43832 0
M  V30 637 H 57.0989 0.523043 -0.481608 0
M  V30 638 H 59.7009 0.888212 -1.74158 0
M  V30 639 H 58.4049 2.44304 -3.29763 0
M  V30 640 H 57.9359 3.43878 -1.91079 0
M  V30 641 H 59.9509 4.676 -1.66027 0
M  V30 642 N 59.124 1.23083 0.984299 0
M  V30 643 C 60.371 1.06057 1.72505 0
M  V30 644 C 60.699 -0.403105 1.90277 0
M  V30 645 O 59.954 -1.3149 1.44944 0
M  V30 646 C 60.253 1.72673 3.1292 0
M  V30 647 C 59.919 3.22586 3.15038 0
M  V30 648 C 58.581 3.63489 3.15324 0
M  V30 649 C 60.933 4.185 3.10657 0
M  V30 650 C 58.261 4.98772 3.08939 0
M  V30 651 C 60.613 5.53769 3.05814 0
M  V30 652 C 59.277 5.94041 3.04419 0
M  V30 653 H 58.547 0.388091 0.631242 0
M  V30 654 H 61.194 1.52963 1.15215 0
M  V30 655 H 59.499 1.18116 3.73572 0
M  V30 656 H 61.196 1.56982 3.68996 0
M  V30 657 H 57.786 2.90022 3.15571 0
M  V30 658 H 61.97 3.87911 3.09579 0
M  V30 659 H 57.226 5.29193 3.0621 0
M  V30 660 H 61.4 6.27808 3.0138 0
M  V30 661 H 59.027 6.98833 2.99227 0
M  V30 662 N 60.6021 -1.18246 1.0419 0
M  V30 663 C 62.0131 -1.69914 0.773698 0
M  V30 664 C 62.3641 -1.83085 -0.705297 0
M  V30 665 O 61.4891 -1.51123 -1.5489 0
M  V30 666 C 62.0841 -3.08619 1.39784 0
M  V30 667 C 60.6431 -3.57494 1.17792 0
M  V30 668 C 59.7901 -2.34013 1.48773 0
M  V30 669 H 62.7411 -1.02904 1.20816 0
M  V30 670 H 62.7621 -3.71958 0.801714 0
M  V30 671 H 62.2741 -2.99001 2.47426 0
M  V30 672 H 60.3751 -3.72406 0.120295 0
M  V30 673 H 60.4881 -4.40852 1.87581 0
M  V30 674 H 58.8521 -2.37986 0.907463 0
M  V30 675 H 59.6351 -2.27013 2.57527 0
M  V30 676 N 62.0802 -0.821533 -1.34494 0
M  V30 677 C 62.9902 -0.244355 -2.33324 0
M  V30 678 C 64.0062 0.620527 -1.62559 0
M  V30 679 O 65.1822 0.528754 -1.94335 0
M  V30 680 C 62.2472 0.585368 -3.41723 0
M  V30 681 C 61.3082 -0.301752 -4.28238 0
M  V30 682 C 60.5412 0.488466 -5.3146 0
M  V30 683 O 60.7642 1.72186 -5.4379 0
M  V30 684 O 59.6982 -0.12848 -6.01763 0
M  V30 685 H 63.5242 -1.06231 -2.84515 0
M  V30 686 H 61.1092 -0.583645 -1.37528 0
M  V30 687 H 62.9912 1.05747 -4.07916 0
M  V30 688 H 61.6662 1.38068 -2.92778 0
M  V30 689 H 60.5732 -0.821315 -3.64973 0
M  V30 690 H 61.9062 -1.06138 -4.8062 0
M  V30 691 N 63.5583 1.46682 -0.576371 0
M  V30 692 C 64.5063 2.31953 0.17335 0
M  V30 693 C 65.5003 1.44098 0.89062 0
M  V30 694 O 66.7063 1.60759 0.809728 0
M  V30 695 H 63.0813 0.748273 0.0747727 0
M  V30 696 H 65.0523 2.93007 -0.564738 0
M  V30 697 C 63.8013 3.27142 1.17786 0
M  V30 698 H 63.1243 3.94719 0.635361 0
M  V30 699 H 64.5643 3.896 1.67296 0
M  V30 700 C 63.0233 2.52036 2.23561 0
M  V30 701 O 63.5533 2.27877 3.3081 0
M  V30 702 N 61.7593 2.12709 1.97998 0
M  V30 703 H 61.3063 2.32557 1.10792 0
M  V30 704 H 61.2643 1.62776 2.68982 0
M  V30 705 N 65.0364 0.313813 1.54444 0
M  V30 706 C 65.9664 -0.549454 2.26943 0
M  V30 707 C 66.9474 -1.12741 1.27372 0
M  V30 708 O 68.1324 -1.15436 1.56167 0
M  V30 709 C 65.2624 -1.71523 3.01989 0
M  V30 710 C 64.2164 -1.26703 4.08816 0
M  V30 711 C 63.5424 -2.51898 4.71647 0
M  V30 712 C 64.8424 -0.388962 5.2085 0
M  V30 713 H 66.5364 0.0552661 2.99349 0
M  V30 714 H 64.0824 0.0280207 1.43973 0
M  V30 715 H 66.0354 -2.32535 3.51433 0
M  V30 716 H 64.7594 -2.34639 2.27183 0
M  V30 717 H 63.4184 -0.679896 3.6024 0
M  V30 718 H 63.0664 -3.13356 3.93468 0
M  V30 719 H 62.7664 -2.22605 5.43802 0
M  V30 720 H 64.2904 -3.1369 5.23861 0
M  V30 721 H 65.7044 -0.905107 5.6611 0
M  V30 722 H 64.1014 -0.18924 5.99802 0
M  V30 723 H 65.1714 0.582699 4.81386 0
M  V30 724 N 66.5145 -1.57545 0.0417849 0
M  V30 725 C 67.4445 -2.14009 -0.933929 0
M  V30 726 C 68.4255 -1.05938 -1.33083 0
M  V30 727 O 69.6105 -1.33833 -1.40721 0
M  V30 728 C 66.7405 -2.67747 -2.21199 0
M  V30 729 C 65.6945 -3.80718 -1.95544 0
M  V30 730 C 65.0205 -4.20935 -3.29724 0
M  V30 731 C 66.3205 -5.06258 -1.28452 0
M  V30 732 H 68.0145 -2.95788 -0.463645 0
M  V30 733 H 65.5605 -1.42285 -0.221573 0
M  V30 734 H 67.5135 -3.05886 -2.89848 0
M  V30 735 H 66.2375 -1.83147 -2.70416 0
M  V30 736 H 64.8965 -3.43037 -1.2931 0
M  V30 737 H 64.5445 -3.33298 -3.76724 0
M  V30 738 H 64.2445 -4.9707 -3.13361 0
M  V30 739 H 65.7685 -4.61666 -3.9962 0
M  V30 740 H 67.1825 -5.41903 -1.8712 0
M  V30 741 H 65.5795 -5.87475 -1.22445 0
M  V30 742 H 66.6495 -4.84207 -0.259219 0
M  V30 743 N 67.9926 0.231505 -1.5589 0
M  V30 744 C 69.2406 0.955461 -1.78088 0
M  V30 745 C 69.5616 1.85262 -0.608533 0
M  V30 746 O 68.8316 1.92277 0.375035 0
M  V30 747 H 67.4116 0.355787 -0.656829 0
M  V30 748 H 70.0736 0.245751 -1.93344 0
M  V30 749 H 69.1696 1.56814 -2.69844 0
M  V30 750 N 69.4707 1.49531 0.497807 0
M  V30 751 C 70.4037 1.61043 1.6168 0
M  V30 752 C 71.3817 0.459386 1.55976 0
M  V30 753 O 72.5657 0.675358 1.75986 0
M  V30 754 C 69.6927 1.56833 3.00202 0
M  V30 755 C 68.7387 2.77173 3.24156 0
M  V30 756 S 69.5717 4.38808 3.06933 0
M  V30 757 C 70.7277 4.37248 4.47845 0
M  V30 758 H 70.9607 2.55702 1.51671 0
M  V30 759 H 68.4937 1.38462 0.683201 0
M  V30 760 H 70.4517 1.55089 3.80076 0
M  V30 761 H 69.1127 0.634561 3.07623 0
M  V30 762 H 68.3057 2.70456 4.25288 0
M  V30 763 H 67.9077 2.76346 2.5201 0
M  V30 764 H 70.1997 4.09164 5.39992 0
M  V30 765 H 71.1427 5.38668 4.59612 0
M  V30 766 H 71.5507 3.67286 4.28674 0
M  V30 767 N 70.9488 -0.749086 1.3866 0
M  V30 768 C 71.8808 -1.87273 1.32142 0
M  V30 769 C 72.8938 -1.61127 0.232787 0
M  V30 770 O 74.0828 -1.71623 0.49069 0
M  V30 771 C 71.1828 -3.23005 1.02571 0
M  V30 772 C 70.3558 -3.7662 2.22433 0
M  V30 773 C 69.4148 -4.90879 1.89537 0
M  V30 774 O 68.4408 -5.05276 2.62078 0
M  V30 775 N 69.6428 -5.74198 0.853031 0
M  V30 776 H 72.4078 -1.93373 2.28969 0
M  V30 777 H 69.9688 -0.929216 1.32579 0
M  V30 778 H 71.9608 -3.96992 0.786085 0
M  V30 779 H 70.5308 -3.12262 0.145249 0
M  V30 780 H 69.7508 -2.94147 2.62434 0
M  V30 781 H 71.0388 -4.09173 3.02415 0
M  V30 782 H 70.4368 -5.6514 0.25155 0
M  V30 783 H 68.9938 -6.48313 0.67329 0
M  V30 784 N 72.4269 -1.23603 -0.977757 0
M  V30 785 C 73.3369 -1.03632 -2.1047 0
M  V30 786 C 74.3529 0.0199435 -1.73989 0
M  V30 787 O 75.5289 -0.176076 -2.00629 0
M  V30 788 C 72.5939 -0.63276 -3.40877 0
M  V30 789 C 71.6549 -1.76437 -3.91367 0
M  V30 790 C 70.8879 -1.37997 -5.15551 0
M  V30 791 O 71.1109 -0.265357 -5.69782 0
M  V30 792 O 70.0449 -2.20201 -5.60174 0
M  V30 793 H 73.8709 -1.98086 -2.30208 0
M  V30 794 H 71.4559 -1.02332 -1.08851 0
M  V30 795 H 73.3379 -0.418761 -4.19314 0
M  V30 796 H 72.0129 0.282754 -3.22463 0
M  V30 797 H 70.9199 -2.03304 -3.14036 0
M  V30 798 H 72.2529 -2.6583 -4.14241 0
M  V30 799 N 73.905 1.17692 -1.04816 0
M  V30 800 C 74.868 2.19787 -0.650117 0
M  V30 801 C 75.868 1.58044 0.296427 0
M  V30 802 O 77.058 1.74012 0.0808097 0
M  V30 803 C 74.19 3.40869 0.0456987 0
M  V30 804 H 75.383 2.56516 -1.5537 0
M  V30 805 H 72.936 1.31708 -0.841594 0
M  V30 806 H 73.671 3.09681 0.962726 0
M  V30 807 H 73.456 3.86928 -0.634727 0
M  V30 808 H 74.946 4.16445 0.310432 0
M  V30 809 N 75.3831 0.828654 1.34056 0
M  V30 810 C 76.6321 0.415828 1.97367 0
M  V30 811 C 76.9451 -1.02796 1.6641 0
M  V30 812 O 78.1511 -1.54497 2.23255 0
M  V30 813 C 76.6071 0.692601 3.53173 0
M  V30 814 C 76.2151 2.15038 3.93017 0
M  V30 815 C 77.9591 0.346222 4.23086 0
M  V30 816 C 75.8661 2.37174 5.41758 0
M  V30 817 H 74.7961 0.151755 0.738571 0
M  V30 818 H 77.4471 1.01581 1.52819 0
M  V30 819 H 75.8291 0.0223764 3.95994 0
M  V30 820 H 77.0031 2.86024 3.61285 0
M  V30 821 H 75.3181 2.45875 3.36057 0
M  V30 822 H 77.9151 0.48937 5.32456 0
M  V30 823 H 78.2581 -0.709842 4.10204 0
M  V30 824 H 78.7911 0.971258 3.85761 0
M  V30 825 H 75.5301 3.41308 5.59633 0
M  V30 826 H 75.0501 1.70738 5.74986 0
M  V30 827 H 76.7291 2.19818 6.08514 0
M  V30 828 N 76.8612 -1.46375 0.584142 0
M  V30 829 C 77.7932 -2.28443 -0.186119 0
M  V30 830 C 78.8062 -1.38596 -0.854115 0
M  V30 831 O 79.9952 -1.63183 -0.723438 0
M  V30 832 C 77.0952 -3.13671 -1.28311 0
M  V30 833 C 76.2682 -4.31652 -0.706758 0
M  V30 834 C 75.3272 -4.98267 -1.69163 0
M  V30 835 O 74.3532 -5.55815 -1.22712 0
M  V30 836 N 75.5552 -4.95408 -3.02575 0
M  V30 837 H 78.3202 -2.9519 0.517986 0
M  V30 838 H 75.8812 -1.56303 0.42201 0
M  V30 839 H 77.8732 -3.55101 -1.94128 0
M  V30 840 H 76.4432 -2.48989 -1.89005 0
M  V30 841 H 75.6632 -3.93989 0.128908 0
M  V30 842 H 76.9512 -5.07906 -0.301506 0
M  V30 843 H 76.3492 -4.49902 -3.42936 0
M  V30 844 H 74.9062 -5.40774 -3.63877 0
M  V30 845 N 78.3393 -0.321999 -1.54275 0
M  V30 846 C 79.2713 0.578671 -2.21775 0
M  V30 847 C 80.2843 1.08109 -1.21722 0
M  V30 848 O 81.4733 0.994938 -1.482 0
M  V30 849 C 78.5733 1.80661 -2.86731 0
M  V30 850 C 77.7463 1.44314 -4.12907 0
M  V30 851 C 76.8053 2.52845 -4.61472 0
M  V30 852 O 75.8313 2.17054 -5.2619 0
M  V30 853 N 77.0333 3.83748 -4.35566 0
M  V30 854 H 79.7983 0.000709447 -2.997 0
M  V30 855 H 77.3593 -0.145132 -1.61248 0
M  V30 856 H 79.3513 2.52655 -3.16145 0
M  V30 857 H 77.9213 2.29245 -2.12521 0
M  V30 858 H 77.1413 0.554906 -3.90275 0
M  V30 859 H 78.4293 1.17598 -4.95023 0
M  V30 860 H 77.8273 4.15625 -3.83761 0
M  V30 861 H 76.3843 4.51977 -4.69638 0
M  V30 862 N 79.8174 1.5752 -0.0501392 0
M  V30 863 C 80.7804 2.1037 0.909786 0
M  V30 864 C 81.7804 1.02308 1.24056 0
M  V30 865 O 82.9704 1.28385 1.17741 0
M  V30 866 C 80.1024 2.58708 2.21998 0
M  V30 867 H 81.2954 2.96479 0.451665 0
M  V30 868 H 78.8484 1.55038 0.198248 0
M  V30 869 H 79.5834 1.75989 2.72394 0
M  V30 870 H 79.3684 3.37675 1.99295 0
M  V30 871 H 80.8584 2.99747 2.9076 0
M  V30 872 N 81.2955 -0.223234 1.56011 0
M  V30 873 C 82.5445 -0.945912 1.78144 0
M  V30 874 C 82.8575 -1.85567 0.618396 0
M  V30 875 O 84.0635 -2.61688 0.723318 0
M  V30 876 C 82.5195 -1.73216 3.15475 0
M  V30 877 C 82.1275 -0.868619 4.39499 0
M  V30 878 C 83.8715 -2.44615 3.46935 0
M  V30 879 C 81.7785 -1.65212 5.67855 0
M  V30 880 H 80.7085 -0.356929 0.664167 0
M  V30 881 H 83.3595 -0.199845 1.82409 0
M  V30 882 H 81.7415 -2.52107 3.05382 0
M  V30 883 H 82.9155 -0.120366 4.60643 0
M  V30 884 H 81.2305 -0.26683 4.15544 0
M  V30 885 H 83.8275 -3.03732 4.40058 0
M  V30 886 H 84.1705 -3.17417 2.69355 0
M  V30 887 H 84.7035 -1.72715 3.58349 0
M  V30 888 H 81.4425 -0.967407 6.48322 0
M  V30 889 H 80.9625 -2.37503 5.50774 0
M  V30 890 H 82.6415 -2.21322 6.07968 0
M  V30 891 N 82.7736 -1.49793 -0.48987 0
M  V30 892 C 83.7206 -1.67281 -1.59014 0
M  V30 893 C 84.6906 -0.514177 -1.57941 0
M  V30 894 O 85.8756 -0.742533 -1.75759 0
M  V30 895 C 83.0156 -1.75569 -2.97102 0
M  V30 896 C 82.1286 -3.0281 -3.08107 0
M  V30 897 C 81.2636 -3.02008 -4.36995 0
M  V30 898 C 80.3026 -4.23782 -4.41673 0
M  V30 899 N 79.4396 -4.20826 -5.62005 0
M  V30 900 H 84.2796 -2.61224 -1.43409 0
M  V30 901 H 81.8166 -1.29508 -0.697565 0
M  V30 902 H 83.7746 -1.78354 -3.77155 0
M  V30 903 H 82.4046 -0.850827 -3.11385 0
M  V30 904 H 81.4566 -3.09584 -2.21047 0
M  V30 905 H 82.7686 -3.92801 -3.07423 0
M  V30 906 H 81.9226 -3.03418 -5.25378 0
M  V30 907 H 80.6616 -2.09815 -4.4026 0
M  V30 908 H 79.6666 -4.22604 -3.5169 0
M  V30 909 H 80.8916 -5.17181 -4.40115 0
M  V30 910 H 78.8376 -3.31476 -5.66091 0
M  V30 911 H 78.7546 -5.04564 -5.62984 0
M  V30 912 H 80.0226 -4.26355 -6.52565 0
M  V30 913 N 84.2517 0.741722 -1.39055 0
M  V30 914 C 85.4767 1.53607 -1.39354 0
M  V30 915 C 85.9017 1.88096 0.0116905 0
M  V30 916 O 85.2597 1.5143 0.996924 0
M  V30 917 C 85.3077 2.80441 -2.26682 0
M  V30 918 O 84.4117 3.76088 -1.69208 0
M  V30 919 H 83.7527 0.464142 -0.474835 0
M  V30 920 H 86.2827 0.915665 -1.82967 0
M  V30 921 H 86.2927 3.29246 -2.40959 0
M  V30 922 H 84.9677 2.5467 -3.2881 0
M  V30 923 H 83.5447 3.34833 -1.64138 0
M  V30 924 N 85.7298 1.2412 0.971189 0
M  V30 925 C 86.6798 0.997551 2.05019 0
M  V30 926 C 87.6638 -0.0597747 1.60789 0
M  V30 927 O 88.8558 0.153516 1.76333 0
M  V30 928 C 85.9848 0.600557 3.38006 0
M  V30 929 C 85.0708 1.69377 3.88809 0
M  V30 930 N 85.4618 2.92586 4.12586 0
M  V30 931 C 83.7598 1.57048 4.17435 0
M  V30 932 C 84.4608 3.63431 4.54195 0
M  V30 933 N 83.4368 2.90979 4.59165 0
M  V30 934 H 87.2388 1.93316 2.21374 0
M  V30 935 H 84.7528 1.14194 1.1547 0
M  V30 936 H 86.7498 0.40725 4.14906 0
M  V30 937 H 85.4098 -0.327903 3.2304 0
M  V30 938 H 86.4208 3.288 4.00139 0
M  V30 939 H 83.0978 0.709798 4.11422 0
M  V30 940 H 84.4878 4.69102 4.81033 0
M  V30 941 N 87.2079 -1.17134 1.05439 0
M  V30 942 C 88.1179 -2.24878 0.668365 0
M  V30 943 C 89.1339 -1.71186 -0.311687 0
M  V30 944 O 90.3099 -2.00738 -0.163161 0
M  V30 945 C 87.3749 -3.46662 0.051648 0
M  V30 946 C 86.4359 -4.15429 1.08246 0
M  V30 947 C 85.6689 -5.31399 0.495082 0
M  V30 948 O 85.8919 -5.66153 -0.694743 0
M  V30 949 O 84.8259 -5.89187 1.23056 0
M  V30 950 H 88.6519 -2.60189 1.56637 0
M  V30 951 H 86.2369 -1.24482 0.826104 0
M  V30 952 H 88.1189 -4.20394 -0.290966 0
M  V30 953 H 86.7939 -3.13142 -0.819971 0
M  V30 954 H 85.7009 -3.43704 1.47711 0
M  V30 955 H 87.0339 -4.52982 1.92532 0
M  V30 956 N 88.686 -0.835752 -1.33615 0
M  V30 957 C 89.935 -0.426289 -1.97144 0
M  V30 958 C 90.248 1.01912 -1.66953 0
M  V30 959 O 91.454 1.53311 -2.24072 0
M  V30 960 C 89.91 -0.711321 -3.52801 0
M  V30 961 C 89.518 -2.1712 -3.91871 0
M  V30 962 C 91.262 -0.368654 -4.22896 0
M  V30 963 C 89.169 -2.40044 -5.40493 0
M  V30 964 H 88.099 -0.15567 -0.737755 0
M  V30 965 H 90.75 -1.0239 -1.52278 0
M  V30 966 H 89.132 -0.0433766 -3.95976 0
M  V30 967 H 90.306 -2.87936 -3.59763 0
M  V30 968 H 88.621 -2.47654 -3.34749 0
M  V30 969 H 91.218 -0.517601 -5.32189 0
M  V30 970 H 91.561 0.688078 -4.10574 0
M  V30 971 H 92.094 -0.991702 -3.8524 0
M  V30 972 H 88.833 -3.44271 -5.57815 0
M  V30 973 H 88.353 -1.73785 -5.74072 0
M  V30 974 H 90.032 -2.23042 -6.0734 0
M  V30 975 N 90.1641 1.46063 -0.591896 0
M  V30 976 C 91.0941 2.33172 0.123673 0
M  V30 977 C 92.0751 1.45897 0.87453 0
M  V30 978 O 93.2601 1.74698 0.848181 0
M  V30 979 C 90.3901 3.28336 1.13194 0
M  V30 980 C 89.3441 4.25124 0.495324 0
M  V30 981 C 88.6701 5.09863 1.61071 0
M  V30 982 C 89.9701 5.19143 -0.573425 0
M  V30 983 H 91.6641 2.93252 -0.603646 0
M  V30 984 H 89.2101 1.41014 -0.291741 0
M  V30 985 H 91.1631 3.88137 1.64097 0
M  V30 986 H 89.8871 2.66383 1.88965 0
M  V30 987 H 88.5461 3.66599 0.00729452 0
M  V30 988 H 88.1941 4.44288 2.35832 0
M  V30 989 H 87.8941 5.75417 1.19035 0
M  V30 990 H 89.4181 5.72529 2.12233 0
M  V30 991 H 90.8321 5.73106 -0.1491 0
M  V30 992 H 89.2291 5.93089 -0.914636 0
M  V30 993 H 90.2991 4.62519 -1.45617 0
M  V30 994 N 91.6422 0.330177 1.54103 0
M  V30 995 C 92.8672 -0.274893 2.0557 0
M  V30 996 C 93.2922 -1.44487 1.20437 0
M  V30 997 O 92.6502 -1.80021 0.214991 0
M  V30 998 C 92.6982 -0.68079 3.54115 0
M  V30 999 O 91.8022 -1.7824 3.71893 0
M  V30 1000 H 91.1432 -0.0483849 0.662235 0
M  V30 1001 H 93.6732 0.480508 1.98878 0
M  V30 1002 H 93.6832 -0.961635 3.96505 0
M  V30 1003 H 92.3582 0.174903 4.15532 0
M  V30 1004 H 90.9352 -1.49985 3.41407 0
M  V30 1005 N 93.1203 -1.57491 0.0584922 0
M  V30 1006 C 94.3693 -1.92155 -0.613146 0
M  V30 1007 C 94.6823 -0.939334 -1.71569 0
M  V30 1008 O 95.8883 -1.17829 -2.44599 0
M  V30 1009 C 94.3443 -3.41303 -1.14195 0
M  V30 1010 C 93.9523 -4.47944 -0.0711265 0
M  V30 1011 C 95.6963 -3.84988 -1.78841 0
M  V30 1012 C 93.6033 -5.88212 -0.613225 0
M  V30 1013 H 92.5333 -0.717162 -0.232796 0
M  V30 1014 H 95.1843 -1.83049 0.12857 0
M  V30 1015 H 93.5663 -3.45437 -1.93621 0
M  V30 1016 H 94.7403 -4.55408 0.702836 0
M  V30 1017 H 93.0553 -4.13644 0.478313 0
M  V30 1018 H 95.6523 -4.87159 -2.20408 0
M  V30 1019 H 95.9953 -3.21632 -2.64308 0
M  V30 1020 H 96.5283 -3.83401 -1.06059 0
M  V30 1021 H 93.2673 -6.55183 0.203978 0
M  V30 1022 H 92.7873 -5.84294 -1.35501 0
M  V30 1023 H 94.4663 -6.37687 -1.09383 0
M  V30 1024 N 94.5984 0.214957 -1.56127 0
M  V30 1025 C 95.8234 0.95924 -1.83884 0
M  V30 1026 C 96.2484 1.7689 -0.639644 0
M  V30 1027 O 95.6064 1.76566 0.411601 0
M  V30 1028 C 95.6544 1.84723 -3.09693 0
M  V30 1029 O 94.7584 2.94346 -2.8885 0
M  V30 1030 H 94.0994 0.27125 -0.606069 0
M  V30 1031 H 96.6294 0.226276 -2.03345 0
M  V30 1032 H 96.6394 2.25576 -3.39969 0
M  V30 1033 H 95.3144 1.25218 -3.96602 0
M  V30 1034 H 93.8914 2.57391 -2.69823 0
M  V30 1035 N 96.0765 1.50051 0.48192 0
M  V30 1036 C 97.3535 1.51009 1.2432 0
M  V30 1037 C 97.7335 0.248587 2.09631 0
M  V30 1038 O 97.0815 -0.768409 2.15192 0
M  V30 1039 C 97.2915 2.79981 2.08355 0
M  V30 1040 C 98.6395 3.3022 2.66908 0
M  V30 1041 O 99.6635 2.81228 2.18607 0
M  V30 1042 O 98.5225 4.15595 3.54884 0
M  V30 1043 H 95.6165 0.605239 0.563573 0
M  V30 1044 H 98.1625 1.62332 0.494627 0
M  V30 1045 H 96.9345 3.63275 1.45419 0
M  V30 1046 H 96.5575 2.7161 2.90368 0
M  V30 1047 N 97.5546 -0.734337 1.39446 0
M  V30 1048 C 98.9656 -1.31264 1.32766 0
M  V30 1049 C 99.3166 -1.96198 -0.00767497 0
M  V30 1050 O 98.4416 -1.96346 -0.909796 0
M  V30 1051 C 99.0366 -2.38682 2.4045 0
M  V30 1052 C 97.5956 -2.92184 2.37288 0
M  V30 1053 C 96.7426 -1.6576 2.22304 0
M  V30 1054 H 99.6936 -0.531799 1.49525 0
M  V30 1055 H 99.7146 -3.19087 2.07276 0
M  V30 1056 H 99.2266 -1.91392 3.37625 0
M  V30 1057 H 97.3276 -3.43752 1.43754 0
M  V30 1058 H 97.4406 -3.45253 3.3217 0
M  V30 1059 H 95.8046 -1.9012 1.69489 0
M  V30 1060 H 96.5876 -1.20521 3.21449 0
M  V30 1061 N 99.0327 -1.24633 -0.964593 0
M  V30 1062 C 99.9647 -0.999302 -2.06268 0
M  V30 1063 C 100.978 0.0323226 -1.62768 0
M  V30 1064 O 102.167 -0.205079 -1.77318 0
M  V30 1065 C 99.2667 -0.486816 -3.35385 0
M  V30 1066 C 98.4397 -1.5823 -4.07777 0
M  V30 1067 C 97.4987 -1.07191 -5.15166 0
M  V30 1068 O 96.5247 -1.76426 -5.41168 0
M  V30 1069 N 97.7267 0.0920373 -5.80427 0
M  V30 1070 H 100.492 -1.94477 -2.28033 0
M  V30 1071 H 98.0527 -1.15704 -1.13244 0
M  V30 1072 H 100.045 -0.130066 -4.04491 0
M  V30 1073 H 98.6147 0.364459 -3.10468 0
M  V30 1074 H 97.8347 -2.11109 -3.32906 0
M  V30 1075 H 99.1227 -2.31854 -4.52903 0
M  V30 1076 H 98.5207 0.670784 -5.61709 0
M  V30 1077 H 97.0777 0.389905 -6.50633 0
M  V30 1078 N 100.511 1.16574 -1.06058 0
M  V30 1079 C 101.739 1.90952 -0.796552 0
M  V30 1080 C 102.154 1.77302 0.648808 0
M  V30 1081 O 101.511 1.11605 1.44397 0
M  V30 1082 C 101.562 3.41736 -1.17894 0
M  V30 1083 O 101.283 3.54975 -2.56758 0
M  V30 1084 C 102.784 4.33169 -0.942308 0
M  V30 1085 H 100.004 0.605594 -0.288959 0
M  V30 1086 H 102.548 1.47777 -1.41358 0
M  V30 1087 H 100.703 3.82623 -0.606491 0
M  V30 1088 H 101.117 4.4846 -2.72 0
M  V30 1089 H 102.591 5.37439 -1.25952 0
M  V30 1090 H 103.068 4.3903 0.122078 0
M  V30 1091 H 103.674 3.98007 -1.49902 0
M  V30 1092 N 101.989 0.842826 1.3317 0
M  V30 1093 C 102.919 0.294028 2.31641 0
M  V30 1094 C 103.9 -0.600401 1.59151 0
M  V30 1095 O 105.085 -0.523124 1.87022 0
M  V30 1096 C 102.215 -0.528416 3.43257 0
M  V30 1097 C 101.169 0.27056 4.27144 0
M  V30 1098 C 100.495 -0.675881 5.30411 0
M  V30 1099 C 101.795 1.48981 5.00602 0
M  V30 1100 H 103.489 1.11681 2.77791 0
M  V30 1101 H 101.035 0.538478 1.33553 0
M  V30 1102 H 102.988 -0.922674 4.11175 0
M  V30 1103 H 101.712 -1.38445 2.95805 0
M  V30 1104 H 100.371 0.646427 3.60856 0
M  V30 1105 H 100.019 -1.52842 4.79216 0
M  V30 1106 H 99.7189 -0.145374 5.8742 0
M  V30 1107 H 101.243 -1.06757 6.01195 0
M  V30 1108 H 102.657 1.16849 5.61266 0
M  V30 1109 H 101.054 1.95739 5.6728 0
M  V30 1110 H 102.124 2.25746 4.29147 0
M  V30 1111 N 103.467 -1.45747 0.599634 0
M  V30 1112 C 104.43 -2.28917 -0.113835 0
M  V30 1113 C 105.43 -1.3933 -0.802729 0
M  V30 1114 O 106.62 -1.61534 -0.652103 0
M  V30 1115 C 103.752 -3.20152 -1.17114 0
M  V30 1116 H 104.945 -2.93478 0.617289 0
M  V30 1117 H 102.498 -1.52137 0.358327 0
M  V30 1118 H 103.233 -2.60374 -1.93329 0
M  V30 1119 H 103.018 -3.86133 -0.681468 0
M  V30 1120 H 104.508 -3.82708 -1.67105 0
M  V30 1121 N 104.945 -0.338344 -1.53925 0
M  V30 1122 C 106.17 0.263987 -2.05713 0
M  V30 1123 C 106.595 1.43847 -1.21201 0
M  V30 1124 O 105.953 1.79904 -0.224535 0
M  V30 1125 C 106.001 0.662 -3.54471 0
M  V30 1126 O 105.105 1.76265 -3.72833 0
M  V30 1127 H 104.446 0.0448722 -0.662482 0
M  V30 1128 H 106.976 -0.491048 -1.9862 0
M  V30 1129 H 106.986 0.940594 -3.9701 0
M  V30 1130 H 105.661 -0.196937 -4.15433 0
M  V30 1131 H 104.238 1.48173 -3.42198 0
M  V30 1132 N 106.423 1.57458 -0.0668435 0
M  V30 1133 C 107.669 1.93587 0.6043 0
M  V30 1134 C 108.002 0.946722 1.69561 0
M  V30 1135 O 107.277 -0.0248516 1.94484 0
M  V30 1136 C 107.56 3.40014 1.18585 0
M  V30 1137 C 107.413 4.49685 0.101529 0
M  V30 1138 C 108.732 3.87154 2.09284 0
M  V30 1139 H 105.851 0.703958 0.218202 0
M  V30 1140 H 108.493 1.89542 -0.131804 0
M  V30 1141 H 106.643 3.43592 1.81319 0
M  V30 1142 H 108.315 4.5823 -0.531279 0
M  V30 1143 H 106.558 4.30059 -0.568487 0
M  V30 1144 H 107.229 5.49266 0.54874 0
M  V30 1145 H 109.705 3.85551 1.56491 0
M  V30 1146 H 108.581 4.90231 2.46911 0
M  V30 1147 H 108.842 3.2481 2.99918 0
M  V30 1148 N 107.901 -0.206675 1.56239 0
M  V30 1149 C 108.831 -1.25909 1.96645 0
M  V30 1150 C 109.812 -1.48097 0.836734 0
M  V30 1151 O 110.997 -1.6003 1.10019 0
M  V30 1152 C 108.127 -2.6058 2.29599 0
M  V30 1153 C 107.081 -2.53024 3.452 0
M  V30 1154 C 106.407 -3.91861 3.63798 0
M  V30 1155 C 107.707 -2.06524 4.79734 0
M  V30 1156 H 109.401 -0.923369 2.84806 0
M  V30 1157 H 106.947 -0.442735 1.37025 0
M  V30 1158 H 108.9 -3.34375 2.56459 0
M  V30 1159 H 107.624 -2.95869 1.38307 0
M  V30 1160 H 106.283 -1.81684 3.18412 0
M  V30 1161 H 105.931 -4.24483 2.69857 0
M  V30 1162 H 105.631 -3.87683 4.4156 0
M  V30 1163 H 107.155 -4.67296 3.93022 0
M  V30 1164 H 108.569 -2.70072 5.05702 0
M  V30 1165 H 106.966 -2.13374 5.60885 0
M  V30 1166 H 108.036 -1.01802 4.74093 0
M  V30 1167 N 109.379 -1.50304 -0.473955 0
M  V30 1168 C 110.607 -1.64902 -1.24959 0
M  V30 1169 C 111.022 -0.331198 -1.85872 0
M  V30 1170 O 110.379 0.68652 -1.69095 0
M  V30 1171 C 110.43 -2.73803 -2.36038 0
M  V30 1172 O 110.151 -4.00477 -1.77624 0
M  V30 1173 C 111.652 -2.99349 -3.26964 0
M  V30 1174 H 108.872 -0.554383 -0.378022 0
M  V30 1175 H 111.416 -1.9651 -0.566054 0
M  V30 1176 H 109.571 -2.44898 -3.00173 0
M  V30 1177 H 109.985 -4.60678 -2.5075 0
M  V30 1178 H 111.459 -3.79217 -4.01121 0
M  V30 1179 H 111.936 -2.10307 -3.85574 0
M  V30 1180 H 112.542 -3.29774 -2.68569 0
M  V30 1181 N 110.857 0.726932 -1.39834 0
M  V30 1182 C 111.82 1.82269 -1.38962 0
M  V30 1183 C 112.82 1.58248 -0.285334 0
M  V30 1184 O 114.01 1.65499 -0.54366 0
M  V30 1185 C 111.142 3.20186 -1.17019 0
M  V30 1186 H 112.335 1.84443 -2.36476 0
M  V30 1187 H 109.888 0.931416 -1.25516 0
M  V30 1188 H 110.623 3.23669 -0.202204 0
M  V30 1189 H 110.408 3.3902 -1.96998 0
M  V30 1190 H 111.898 4.00235 -1.1917 0
M  V30 1191 N 112.336 1.25143 0.95797 0
M  V30 1192 C 113.584 1.09476 1.69881 0
M  V30 1193 C 113.905 -0.365502 1.91544 0
M  V30 1194 O 113.175 -1.25985 1.50015 0
M  V30 1195 H 111.755 0.402128 0.629525 0
M  V30 1196 H 114.417 1.57214 1.15194 0
M  V30 1197 H 113.513 1.60046 2.6794 0
M  V30 1198 N 113.814 -1.1601 1.06675 0
M  V30 1199 C 115.06 -1.86909 0.786945 0
M  V30 1200 C 115.393 -1.81717 -0.685018 0
M  V30 1201 O 114.668 -1.23551 -1.50218 0
M  V30 1202 C 114.951 -3.36313 1.28707 0
M  V30 1203 C 114.804 -3.50175 2.82308 0
M  V30 1204 C 116.123 -4.3084 0.898071 0
M  V30 1205 H 113.242 -0.678677 0.287343 0
M  V30 1206 H 115.884 -1.36336 1.32334 0
M  V30 1207 H 114.034 -3.79513 0.830768 0
M  V30 1208 H 115.706 -3.15886 3.36175 0
M  V30 1209 H 113.949 -2.91959 3.20847 0
M  V30 1210 H 114.62 -4.55116 3.12368 0
M  V30 1211 H 117.096 -3.95561 1.29114 0
M  V30 1212 H 115.972 -5.33876 1.27543 0
M  V30 1213 H 116.233 -4.41662 -0.196651 0
M  V30 1214 N 115.292 -0.849877 -1.32721 0
M  V30 1215 C 116.224 -0.248332 -2.27851 0
M  V30 1216 C 117.237 0.577218 -1.52224 0
M  V30 1217 O 118.426 0.402489 -1.73903 0
M  V30 1218 C 115.526 0.668107 -3.32249 0
M  V30 1219 C 114.699 -0.120534 -4.37234 0
M  V30 1220 C 113.758 0.720932 -5.21238 0
M  V30 1221 O 112.784 0.156166 -5.68986 0
M  V30 1222 N 113.986 2.03647 -5.43607 0
M  V30 1223 H 116.751 -1.06575 -2.80111 0
M  V30 1224 H 114.312 -0.709395 -1.45531 0
M  V30 1225 H 116.304 1.23627 -3.85355 0
M  V30 1226 H 114.874 1.38621 -2.80184 0
M  V30 1227 H 114.094 -0.870108 -3.84477 0
M  V30 1228 H 115.382 -0.662406 -5.0447 0
M  V30 1229 H 114.78 2.51871 -5.06535 0
M  V30 1230 H 113.337 2.55287 -5.99727 0
M  V30 1231 N 116.77 1.45427 -0.607355 0
M  V30 1232 C 117.995 2.07124 -0.107006 0
M  V30 1233 C 118.42 1.44906 1.19933 0
M  V30 1234 O 117.778 0.541687 1.73019 0
M  V30 1235 C 117.826 3.60595 0.0194119 0
M  V30 1236 O 116.93 3.98285 1.0697 0
M  V30 1237 H 116.271 0.659868 -0.0739597 0
M  V30 1238 H 118.801 1.86683 -0.837297 0
M  V30 1239 H 118.811 4.07419 0.2177 0
M  V30 1240 H 117.486 4.05266 -0.934453 0
M  V30 1241 H 116.063 3.63133 0.847889 0
M  V30 1242 N 118.248 0.346503 1.53744 0
M  V30 1243 C 119.473 -0.253074 2.0585 0
M  V30 1244 C 119.898 -1.43202 1.21962 0
M  V30 1245 O 119.256 -1.79783 0.234073 0
M  V30 1246 C 119.304 -0.643193 3.54817 0
M  V30 1247 O 118.408 -1.74286 3.73762 0
M  V30 1248 H 117.749 -0.0413583 0.662711 0
M  V30 1249 H 120.279 0.501574 1.98357 0
M  V30 1250 H 120.289 -0.919526 3.97503 0
M  V30 1251 H 118.964 0.218966 4.15323 0
M  V30 1252 H 117.541 -1.46356 3.42979 0
M  V30 1253 N 119.726 -1.57421 0.075193 0
M  V30 1254 C 120.656 -2.15942 -0.888324 0
M  V30 1255 C 121.637 -1.08737 -1.30806 0
M  V30 1256 O 122.822 -1.36787 -1.37851 0
M  V30 1257 C 119.952 -2.72379 -2.1547 0
M  V30 1258 C 118.906 -3.8478 -1.87425 0
M  V30 1259 C 118.232 -4.27834 -3.20721 0
M  V30 1260 C 119.532 -5.08869 -1.17684 0
M  V30 1261 H 121.226 -2.96705 -0.400799 0
M  V30 1262 H 118.772 -1.42723 -0.191342 0
M  V30 1263 H 120.725 -3.11965 -2.83295 0
M  V30 1264 H 119.449 -1.88841 -2.6647 0
M  V30 1265 H 118.108 -3.45703 -1.22004 0
M  V30 1266 H 117.756 -3.41214 -3.6957 0
M  V30 1267 H 117.456 -5.03605 -3.02746 0
M  V30 1268 H 118.98 -4.70039 -3.89738 0
M  V30 1269 H 120.394 -5.4575 -1.75584 0
M  V30 1270 H 118.791 -5.8994 -1.09956 0
M  V30 1271 H 119.861 -4.84648 -0.156453 0
M  V30 1272 N 121.204 0.198386 -1.56346 0
M  V30 1273 C 122.152 1.26538 -1.95169 0
M  V30 1274 C 123.146 1.47295 -0.836685 0
M  V30 1275 O 124.352 1.48195 -1.02167 0
M  V30 1276 H 120.727 0.424744 -0.620561 0
M  V30 1277 H 122.698 0.910904 -2.84157 0
M  V30 1278 C 121.447 2.6035 -2.30463 0
M  V30 1279 H 120.77 2.45192 -3.15786 0
M  V30 1280 H 122.21 3.33762 -2.61494 0
M  V30 1281 C 120.669 3.17096 -1.13806 0
M  V30 1282 O 121.199 3.99588 -0.41135 0
M  V30 1283 N 119.405 2.75795 -0.915736 0
M  V30 1284 H 118.952 2.08816 -1.50843 0
M  V30 1285 H 118.91 3.14101 -0.136979 0
M  V30 1286 N 122.682 1.50554 0.465978 0
M  V30 1287 C 123.959 1.5232 1.22712 0
M  V30 1288 C 124.339 0.270807 2.09356 0
M  V30 1289 O 123.687 -0.745541 2.15995 0
M  V30 1290 C 123.897 2.82175 2.05374 0
M  V30 1291 C 125.245 3.33033 2.6339 0
M  V30 1292 O 126.269 2.83531 2.15612 0
M  V30 1293 O 125.128 4.19336 3.50456 0
M  V30 1294 H 122.222 0.611183 0.557122 0
M  V30 1295 H 124.768 1.62847 0.477381 0
M  V30 1296 H 123.54 3.64797 1.41558 0
M  V30 1297 H 123.163 2.74675 2.87471 0
M  V30 1298 N 124.16 -0.719506 1.40217 0
M  V30 1299 C 125.571 -1.29848 1.34151 0
M  V30 1300 C 125.922 -1.96196 0.0131349 0
M  V30 1301 O 125.047 -1.973 -0.88892 0
M  V30 1302 C 125.642 -2.36118 2.42968 0
M  V30 1303 C 124.201 -2.8965 2.40374 0
M  V30 1304 C 123.348 -1.63393 2.24049 0
M  V30 1305 H 126.299 -0.51591 1.5008 0
M  V30 1306 H 126.32 -3.16871 2.10649 0
M  V30 1307 H 125.832 -1.878 3.39636 0
M  V30 1308 H 123.933 -3.42208 1.47392 0
M  V30 1309 H 124.046 -3.4171 3.35814 0
M  V30 1310 H 122.41 -1.88312 1.71495 0
M  V30 1311 H 123.193 -1.17104 3.2271 0
M  V30 1312 N 125.638 -1.25649 -0.95132 0
M  V30 1313 C 127.054 -1.02542 -1.223 0
M  V30 1314 C 127.254 0.255715 -1.99871 0
M  V30 1315 O 126.31 0.967558 -2.33226 0
M  V30 1316 C 127.623 -2.25065 -1.99415 0
M  V30 1317 C 129.171 -2.29861 -2.12446 0
M  V30 1318 C 129.646 -3.52048 -2.92961 0
M  V30 1319 N 131.137 -3.52465 -3.00538 0
M  V30 1320 C 131.872 -4.43672 -3.63239 0
M  V30 1321 N 131.368 -5.45157 -4.27523 0
M  V30 1322 N 133.161 -4.31346 -3.60412 0
M  V30 1323 H 125.312 -2.07951 -0.432471 0
M  V30 1324 H 127.575 -0.91339 -0.253816 0
M  V30 1325 H 127.281 -3.18194 -1.49817 0
M  V30 1326 H 127.155 -2.28502 -3.00111 0
M  V30 1327 H 129.542 -1.37252 -2.61239 0
M  V30 1328 H 129.623 -2.3044 -1.11044 0
M  V30 1329 H 129.267 -4.44981 -2.44856 0
M  V30 1330 H 129.197 -3.48715 -3.94596 0
M  V30 1331 H 131.688 -2.79056 -2.54826 0
M  V30 1332 H 132.001 -6.10958 -4.73234 0
M  V30 1333 H 130.346 -5.49025 -4.26141 0
M  V30 1334 H 133.537 -3.51288 -3.09377 0
M  V30 1335 H 133.71 -5.02624 -4.0899 0
M  V30 1336 N 127.117 1.15442 -1.07289 0
M  V30 1337 C 128.047 2.22312 -0.714107 0
M  V30 1338 C 129.028 1.67467 0.298155 0
M  V30 1339 O 130.213 1.93445 0.171048 0
M  V30 1340 C 127.343 3.47124 -0.110448 0
M  V30 1341 C 126.297 4.14926 -1.04979 0
M  V30 1342 C 125.623 5.33807 -0.308924 0
M  V30 1343 C 126.923 4.64762 -2.38314 0
M  V30 1344 H 128.617 2.5258 -1.6076 0
M  V30 1345 H 126.163 1.21404 -0.77441 0
M  V30 1346 H 128.116 4.21124 0.152482 0
M  V30 1347 H 126.84 3.16187 0.81812 0
M  V30 1348 H 125.499 3.42866 -1.29764 0
M  V30 1349 H 125.147 4.99126 0.623084 0
M  V30 1350 H 124.847 5.80113 -0.935036 0
M  V30 1351 H 126.371 6.10576 -0.0537771 0
M  V30 1352 H 127.785 5.30292 -2.1786 0
M  V30 1353 H 126.182 5.21728 -2.96514 0
M  V30 1354 H 127.252 3.80434 -3.00663 0
M  V30 1355 N 128.595 0.856903 1.32268 0
M  V30 1356 C 129.841 0.462069 1.97466 0
M  V30 1357 C 130.174 -0.980298 1.67642 0
M  V30 1358 O 129.449 -1.68824 0.965858 0
M  V30 1359 C 129.732 0.704336 3.53145 0
M  V30 1360 C 129.585 2.19529 3.9259 0
M  V30 1361 C 130.904 0.1622 4.39801 0
M  V30 1362 H 128.023 0.169357 0.717278 0
M  V30 1363 H 130.665 1.07574 1.56614 0
M  V30 1364 H 128.815 0.181999 3.88073 0
M  V30 1365 H 130.487 2.78387 3.67829 0
M  V30 1366 H 128.73 2.67292 3.41668 0
M  V30 1367 H 129.401 2.31549 5.01088 0
M  V30 1368 H 131.877 0.608905 4.11621 0
M  V30 1369 H 130.753 0.361265 5.4771 0
M  V30 1370 H 131.014 -0.935158 4.32096 0
M  V30 1371 N 130.073 -1.45103 0.615059 0
M  V30 1372 C 131.322 -2.01396 0.110718 0
M  V30 1373 C 131.635 -1.48834 -1.26916 0
M  V30 1374 O 132.841 -1.97152 -1.86664 0
M  V30 1375 C 131.297 -3.59599 0.14723 0
M  V30 1376 C 130.905 -4.21158 1.52743 0
M  V30 1377 C 132.649 -4.23428 -0.30148 0
M  V30 1378 C 130.556 -5.71535 1.51992 0
M  V30 1379 H 129.486 -0.753061 0.0376241 0
M  V30 1380 H 132.137 -1.66494 0.77149 0
M  V30 1381 H 130.519 -3.91724 -0.580339 0
M  V30 1382 H 131.693 -4.00594 2.2773 0
M  V30 1383 H 130.008 -3.69552 1.91886 0
M  V30 1384 H 132.605 -5.33703 -0.326392 0
M  V30 1385 H 132.948 -3.94629 -1.32565 0
M  V30 1386 H 133.481 -3.96047 0.373065 0
M  V30 1387 H 130.22 -6.05044 2.52193 0
M  V30 1388 H 129.74 -5.94268 0.81274 0
M  V30 1389 H 131.419 -6.34873 1.24681 0
M  V30 1390 N 131.551 -0.354651 -1.53558 0
M  V30 1391 C 132.776 0.242153 -2.05981 0
M  V30 1392 C 133.201 1.42553 -1.2272 0
M  V30 1393 O 132.559 1.79656 -0.243604 0
M  V30 1394 C 132.607 0.624367 -3.55154 0
M  V30 1395 O 131.711 1.72301 -3.74681 0
M  V30 1396 H 131.052 0.0378432 -0.662921 0
M  V30 1397 H 133.582 -0.512087 -1.98088 0
M  V30 1398 H 133.592 0.898433 -3.97985 0
M  V30 1399 H 132.267 -0.240989 -4.15201 0
M  V30 1400 H 130.844 1.44535 -3.4375 0
M  V30 1401 N 133.029 1.57378 -0.0835403 0
M  V30 1402 C 134.259 1.97975 0.590713 0
M  V30 1403 C 134.667 0.961083 1.62972 0
M  V30 1404 O 134.01 -0.0590879 1.83605 0
M  V30 1405 C 134.072 3.34915 1.3066 0
M  V30 1406 C 133.736 4.55069 0.419698 0
M  V30 1407 C 134.733 5.18868 -0.32749 0
M  V30 1408 C 132.418 5.0114 0.341137 0
M  V30 1409 C 134.412 6.27098 -1.14134 0
M  V30 1410 C 132.099 6.0924 -0.476374 0
M  V30 1411 C 133.097 6.72083 -1.21627 0
M  V30 1412 O 132.785 7.781 -2.02028 0
M  V30 1413 H 132.517 0.655818 0.163947 0
M  V30 1414 H 135.071 2.04807 -0.156021 0
M  V30 1415 H 133.301 3.24733 2.09966 0
M  V30 1416 H 134.99 3.60037 1.87424 0
M  V30 1417 H 135.756 4.84211 -0.276459 0
M  V30 1418 H 131.635 4.51996 0.90668 0
M  V30 1419 H 135.179 6.7608 -1.71935 0
M  V30 1420 H 131.076 6.43329 -0.528927 0
M  V30 1421 H 131.844 7.95034 -1.94586 0
M  V30 1422 N 134.507 -0.190092 1.56449 0
M  V30 1423 C 135.417 -1.25591 1.98152 0
M  V30 1424 C 136.433 -1.49519 0.889944 0
M  V30 1425 O 137.609 -1.62036 1.19609 0
M  V30 1426 C 134.674 -2.57916 2.3169 0
M  V30 1427 C 133.735 -2.42015 3.5458 0
M  V30 1428 C 132.968 -3.6803 3.8651 0
M  V30 1429 O 133.191 -4.72413 3.1966 0
M  V30 1430 O 132.125 -3.6326 4.79923 0
M  V30 1431 H 135.951 -0.931988 2.89046 0
M  V30 1432 H 133.536 -0.395488 1.4407 0
M  V30 1433 H 135.418 -3.36008 2.54316 0
M  V30 1434 H 134.093 -2.89925 1.43963 0
M  V30 1435 H 133 -1.62017 3.37196 0
M  V30 1436 H 134.333 -2.14937 4.4279 0
M  V30 1437 N 135.985 -1.50799 -0.457987 0
M  V30 1438 C 137.396 -1.55152 -1.0385 0
M  V30 1439 C 137.747 -0.362719 -1.92818 0
M  V30 1440 O 136.872 0.522915 -2.09987 0
M  V30 1441 C 137.467 -2.81173 -1.89017 0
M  V30 1442 C 136.026 -2.88164 -2.42154 0
M  V30 1443 C 135.173 -2.49591 -1.20829 0
M  V30 1444 H 138.124 -1.56874 -0.240068 0
M  V30 1445 H 138.145 -2.63769 -2.74238 0
M  V30 1446 H 137.657 -3.67677 -1.24238 0
M  V30 1447 H 135.758 -2.06042 -3.10447 0
M  V30 1448 H 135.871 -3.91356 -2.76364 0
M  V30 1449 H 134.235 -2.02322 -1.54719 0
M  V30 1450 H 135.018 -3.38418 -0.576927 0
M  V30 1451 N 137.463 0.71206 -1.40597 0
M  V30 1452 C 138.688 1.50617 -1.42581 0
M  V30 1453 C 139.113 1.88079 -0.0282102 0
M  V30 1454 O 138.471 1.53511 0.964579 0
M  V30 1455 C 138.519 2.7557 -2.3258 0
M  V30 1456 O 137.623 3.72414 -1.77148 0
M  V30 1457 H 136.964 0.453966 -0.484573 0
M  V30 1458 H 139.494 0.876649 -1.84868 0
M  V30 1459 H 139.504 3.2406 -2.47889 0
M  V30 1460 H 138.179 2.47639 -3.34138 0
M  V30 1461 H 136.756 3.31276 -1.71204 0
M  V30 1462 N 138.941 1.26152 0.944643 0
M  V30 1463 C 140.169 1.14259 1.72489 0
M  V30 1464 C 140.584 -0.302555 1.8636 0
M  V30 1465 O 139.941 -1.20741 1.36849 0
M  V30 1466 C 139.992 1.80266 3.13347 0
M  V30 1467 O 139.713 3.19133 3.00143 0
M  V30 1468 C 141.214 1.74283 4.07603 0
M  V30 1469 H 138.434 0.398051 0.540181 0
M  V30 1470 H 140.978 1.66706 1.18446 0
M  V30 1471 H 139.133 1.31766 3.64303 0
M  V30 1472 H 139.547 3.51744 3.89071 0
M  V30 1473 H 141.021 2.25111 5.04013 0
M  V30 1474 H 141.498 0.708631 4.33446 0
M  V30 1475 H 142.104 2.22319 3.62567 0
M  V30 1476 N 140.419 -1.14872 1.07899 0
M  V30 1477 C 141.83 -1.67367 0.827363 0
M  V30 1478 C 142.181 -1.85236 -0.646693 0
M  V30 1479 O 141.306 -1.55974 -1.50004 0
M  V30 1480 C 141.901 -3.04016 1.49532 0
M  V30 1481 C 140.46 -3.53566 1.29106 0
M  V30 1482 C 139.607 -2.29161 1.56143 0
M  V30 1483 H 142.558 -0.990083 1.24028 0
M  V30 1484 H 142.579 -3.69219 0.919643 0
M  V30 1485 H 142.091 -2.90978 2.56814 0
M  V30 1486 H 140.192 -3.71835 0.238713 0
M  V30 1487 H 140.305 -4.34661 2.01511 0
M  V30 1488 H 138.669 -2.34978 0.982717 0
M  V30 1489 H 139.452 -2.18705 2.64619 0
M  V30 1490 N 141.898 -0.863906 -1.31812 0
M  V30 1491 C 142.808 -0.318461 -2.32428 0
M  V30 1492 C 143.824 0.568496 -1.64451 0
M  V30 1493 O 145 0.46666 -1.95919 0
M  V30 1494 C 142.065 0.476355 -3.43412 0
M  V30 1495 C 141.126 -0.43784 -4.27061 0
M  V30 1496 C 140.359 0.319138 -5.32745 0
M  V30 1497 O 140.582 1.54799 -5.48993 0
M  V30 1498 O 139.516 -0.319861 -6.01049 0
M  V30 1499 H 143.342 -1.15229 -2.80991 0
M  V30 1500 H 140.927 -0.627103 -1.35602 0
M  V30 1501 H 142.809 0.927156 -4.11074 0
M  V30 1502 H 141.484 1.28683 -2.97022 0
M  V30 1503 H 140.391 -0.937013 -3.62175 0
M  V30 1504 H 141.724 -1.21375 -4.77 0
M  V30 1505 N 143.376 1.44774 -0.622745 0
M  V30 1506 C 144.787 1.85546 -0.207226 0
M  V30 1507 C 145.138 1.52093 1.23944 0
M  V30 1508 O 144.263 0.95492 1.94191 0
M  V30 1509 C 144.858 3.36781 -0.369313 0
M  V30 1510 C 143.417 3.76399 -0.00836847 0
M  V30 1511 C 142.564 2.68664 -0.686651 0
M  V30 1512 H 145.515 1.3536 -0.828454 0
M  V30 1513 H 145.536 3.78453 0.394162 0
M  V30 1514 H 145.048 3.61098 -1.42231 0
M  V30 1515 H 143.149 3.57698 1.04322 0
M  V30 1516 H 143.262 4.7732 -0.412584 0
M  V30 1517 H 141.626 2.54404 -0.122777 0
M  V30 1518 H 142.409 2.95815 -1.74208 0
M  V30 1519 N 144.854 0.36279 1.53368 0
M  V30 1520 C 146.265 -0.117022 1.86333 0
M  V30 1521 C 146.616 -1.48397 1.28347 0
M  V30 1522 O 145.741 -2.07787 0.604428 0
M  V30 1523 C 146.336 -0.21912 3.38091 0
M  V30 1524 C 144.895 -0.643184 3.70864 0
M  V30 1525 C 144.042 0.211318 2.76494 0
M  V30 1526 H 146.993 0.581687 1.47655 0
M  V30 1527 H 147.014 -1.04319 3.6592 0
M  V30 1528 H 146.526 0.775902 3.80265 0
M  V30 1529 H 144.627 -1.64654 3.34245 0
M  V30 1530 H 144.74 -0.41973 4.77258 0
M  V30 1531 H 143.104 -0.319367 2.5269 0
M  V30 1532 H 143.887 1.20383 3.21501 0
M  V30 1533 N 146.332 -1.57332 0.0918853 0
M  V30 1534 C 147.743 -1.81496 -0.437739 0
M  V30 1535 C 148.094 -1.00727 -1.6837 0
M  V30 1536 O 147.219 -0.235694 -2.15113 0
M  V30 1537 C 147.814 -3.29197 -0.800939 0
M  V30 1538 C 146.373 -3.54136 -1.27532 0
M  V30 1539 C 145.52 -2.75979 -0.270392 0
M  V30 1540 H 148.471 -1.55494 0.317366 0
M  V30 1541 H 148.492 -3.42344 -1.66074 0
M  V30 1542 H 148.004 -3.87955 0.106078 0
M  V30 1543 H 146.105 -3.00705 -2.20016 0
M  V30 1544 H 146.218 -4.62792 -1.23938 0
M  V30 1545 H 144.582 -2.43349 -0.751872 0
M  V30 1546 H 145.365 -3.37484 0.629248 0
M  V30 1547 N 147.81 0.181792 -1.56548 0
M  V30 1548 C 148.742 1.24956 -1.92142 0
M  V30 1549 C 149.755 1.41022 -0.813422 0
M  V30 1550 O 150.944 1.41212 -1.09186 0
M  V30 1551 C 148.044 2.61981 -2.14987 0
M  V30 1552 C 147.217 2.6735 -3.46183 0
M  V30 1553 C 146.276 3.85664 -3.5798 0
M  V30 1554 O 145.302 3.72148 -4.30691 0
M  V30 1555 N 146.504 5.01683 -2.92053 0
M  V30 1556 H 149.269 0.947329 -2.84334 0
M  V30 1557 H 146.83 0.371629 -1.57577 0
M  V30 1558 H 148.822 3.3958 -2.20154 0
M  V30 1559 H 147.392 2.84637 -1.2923 0
M  V30 1560 H 146.612 1.75925 -3.52766 0
M  V30 1561 H 147.9 2.67939 -4.32534 0
M  V30 1562 H 147.298 5.15564 -2.32832 0
M  V30 1563 H 145.855 5.77181 -3.0283 0
M  V30 1564 N 149.288 1.51039 0.449983 0
M  V30 1565 C 150.534 1.63322 1.20223 0
M  V30 1566 C 150.867 0.34241 1.91158 0
M  V30 1567 O 150.142 -0.657344 1.83055 0
M  V30 1568 C 150.425 2.82801 2.22925 0
M  V30 1569 C 150.278 4.21823 1.56157 0
M  V30 1570 C 151.597 2.97807 3.24035 0
M  V30 1571 H 148.716 0.594407 0.435718 0
M  V30 1572 H 151.358 1.83489 0.493136 0
M  V30 1573 H 149.508 2.65738 2.834 0
M  V30 1574 H 151.18 4.50526 0.991162 0
M  V30 1575 H 149.423 4.25105 0.864172 0
M  V30 1576 H 150.094 5.01391 2.30891 0
M  V30 1577 H 152.57 3.13497 2.73603 0
M  V30 1578 H 151.446 3.82992 3.93202 0
M  V30 1579 H 151.707 2.09328 3.89402 0
M  V30 1580 N 150.766 -0.704594 1.40972 0
M  V30 1581 C 152.177 -1.28418 1.3552 0
M  V30 1582 C 152.528 -1.96171 0.0339434 0
M  V30 1583 O 151.653 -1.98231 -0.867944 0
M  V30 1584 C 152.248 -2.33528 2.45459 0
M  V30 1585 C 150.807 -2.87085 2.43433 0
M  V30 1586 C 149.954 -1.61007 2.2577 0
M  V30 1587 H 152.905 -0.499963 1.50619 0
M  V30 1588 H 152.926 -3.14619 2.13998 0
M  V30 1589 H 152.438 -1.84187 3.41609 0
M  V30 1590 H 150.539 -3.40626 1.51013 0
M  V30 1591 H 150.652 -3.3813 3.39419 0
M  V30 1592 H 149.016 -1.86482 1.73483 0
M  V30 1593 H 149.799 -1.13675 3.23933 0
M  V30 1594 N 152.244 -1.26651 -0.937939 0
M  V30 1595 C 153.207 -1.08546 -2.01867 0
M  V30 1596 C 154.207 -0.0327327 -1.60767 0
M  V30 1597 O 155.397 -0.276427 -1.71993 0
M  V30 1598 C 152.529 -0.651711 -3.34613 0
M  V30 1599 H 153.722 -2.04502 -2.1936 0
M  V30 1600 H 151.275 -1.09294 -1.11734 0
M  V30 1601 H 152.01 0.309696 -3.22818 0
M  V30 1602 H 151.795 -1.41189 -3.65798 0
M  V30 1603 H 153.285 -0.546973 -4.14002 0
M  V30 1604 N 153.722 1.14298 -1.08507 0
M  V30 1605 C 154.652 2.21542 -0.737646 0
M  V30 1606 C 155.633 1.67773 0.280377 0
M  V30 1607 O 156.818 1.93616 0.150521 0
M  V30 1608 C 153.948 3.46988 -0.147259 0
M  V30 1609 C 152.902 4.13789 -1.09374 0
M  V30 1610 C 152.228 5.33449 -0.365524 0
M  V30 1611 C 153.528 4.62208 -2.4323 0
M  V30 1612 H 155.222 2.5086 -1.6343 0
M  V30 1613 H 152.768 1.20576 -0.787243 0
M  V30 1614 H 154.721 4.21262 0.107808 0
M  V30 1615 H 153.445 3.17037 0.784538 0
M  V30 1616 H 152.104 3.4147 -1.33393 0
M  V30 1617 H 151.752 4.99759 0.57011 0
M  V30 1618 H 151.452 5.79088 -0.996512 0
M  V30 1619 H 152.976 6.10485 -0.118534 0
M  V30 1620 H 154.39 5.27952 -2.23472 0
M  V30 1621 H 152.787 5.18553 -3.02031 0
M  V30 1622 H 153.857 3.77224 -3.04681 0
M  V30 1623 N 155.201 0.870884 1.31352 0
M  V30 1624 C 156.429 0.49677 2.00848 0
M  V30 1625 C 156.844 -0.910998 1.65367 0
M  V30 1626 O 156.201 -1.59696 0.883374 0
M  V30 1627 C 156.252 0.645308 3.55694 0
M  V30 1628 O 155.973 1.99764 3.89905 0
M  V30 1629 C 157.474 0.272326 4.42463 0
M  V30 1630 H 154.694 0.193462 0.642506 0
M  V30 1631 H 157.238 1.1723 1.67563 0
M  V30 1632 H 155.393 0.0173176 3.87396 0
M  V30 1633 H 155.807 2.00607 4.84621 0
M  V30 1634 H 157.281 0.427208 5.50344 0
M  V30 1635 H 157.758 -0.788587 4.32062 0
M  V30 1636 H 158.364 0.876054 4.1618 0
M  V30 1637 N 156.679 -1.44442 0.630414 0
M  V30 1638 C 157.904 -2.06927 0.139944 0
M  V30 1639 C 158.329 -1.46795 -1.17613 0
M  V30 1640 O 157.687 -0.569144 -1.72135 0
M  V30 1641 C 157.735 -3.6058 0.0379581 0
M  V30 1642 O 156.839 -3.99937 -1.0062 0
M  V30 1643 H 156.18 -0.658608 0.0844483 0
M  V30 1644 H 158.71 -1.85327 0.866891 0
M  V30 1645 H 158.72 -4.07714 -0.152856 0
M  V30 1646 H 157.395 -4.03728 0.998809 0
M  V30 1647 H 155.972 -3.64436 -0.79001 0
M  V30 1648 N 158.157 -0.370918 -1.53173 0
M  V30 1649 C 159.087 0.464847 -2.28826 0
M  V30 1650 C 160.068 1.07936 -1.31468 0
M  V30 1651 O 161.253 1.0956 -1.60344 0
M  V30 1652 C 158.383 1.60196 -3.08147 0
M  V30 1653 C 157.337 1.11443 -4.13237 0
M  V30 1654 C 156.663 2.3422 -4.80672 0
M  V30 1655 C 157.963 0.195384 -5.21934 0
M  V30 1656 H 159.657 -0.166329 -2.98938 0
M  V30 1657 H 157.203 -0.0814359 -1.4377 0
M  V30 1658 H 159.156 2.19332 -3.59822 0
M  V30 1659 H 157.88 2.26045 -2.35735 0
M  V30 1660 H 156.539 0.545727 -3.62515 0
M  V30 1661 H 156.187 2.98537 -4.04827 0
M  V30 1662 H 155.887 2.02269 -5.51689 0
M  V30 1663 H 157.411 2.94032 -5.35143 0
M  V30 1664 H 158.825 0.694375 -5.69079 0
M  V30 1665 H 157.222 -0.0335027 -6.00091 0
M  V30 1666 H 158.292 -0.760961 -4.78892 0
M  V30 1667 N 159.635 1.57281 -0.100228 0
M  V30 1668 C 160.86 1.99302 0.573881 0
M  V30 1669 C 161.285 0.979059 1.60611 0
M  V30 1670 O 160.643 -0.0517803 1.81226 0
M  V30 1671 C 160.691 3.40274 1.19358 0
M  V30 1672 O 159.795 3.41676 2.30935 0
M  V30 1673 H 159.136 0.647944 0.145138 0
M  V30 1674 H 161.666 2.03779 -0.183156 0
M  V30 1675 H 161.676 3.78078 1.53365 0
M  V30 1676 H 160.351 4.13594 0.437385 0
M  V30 1677 H 158.928 3.15672 1.98509 0
M  V30 1678 N 161.113 -0.173488 1.56642 0
M  V30 1679 C 162.023 -1.23482 1.99473 0
M  V30 1680 C 163.039 -1.48567 0.905752 0
M  V30 1681 O 164.215 -1.60758 1.21321 0
M  V30 1682 C 161.28 -2.55444 2.34413 0
M  V30 1683 C 160.341 -2.38241 3.57127 0
M  V30 1684 C 159.574 -3.63909 3.90392 0
M  V30 1685 O 159.797 -4.68996 3.24653 0
M  V30 1686 O 158.731 -3.58149 4.83749 0
M  V30 1687 H 162.557 -0.901279 2.90018 0
M  V30 1688 H 160.142 -0.380185 1.44482 0
M  V30 1689 H 162.024 -3.33292 2.57865 0
M  V30 1690 H 160.699 -2.88382 1.4703 0
M  V30 1691 H 159.606 -1.58431 3.38896 0
M  V30 1692 H 160.939 -2.10228 4.45045 0
M  V30 1693 N 162.591 -1.51276 -0.441967 0
M  V30 1694 C 163.501 -1.75092 -1.56141 0
M  V30 1695 C 164.517 -0.634963 -1.62001 0
M  V30 1696 O 165.693 -0.916686 -1.79329 0
M  V30 1697 C 162.758 -1.86666 -2.92158 0
M  V30 1698 C 161.819 -3.10506 -2.96453 0
M  V30 1699 C 161.052 -3.21519 -4.25982 0
M  V30 1700 O 161.275 -2.38586 -5.18105 0
M  V30 1701 O 160.209 -4.14465 -4.36466 0
M  V30 1702 H 164.035 -2.70044 -1.38961 0
M  V30 1703 H 161.62 -1.35722 -0.624499 0
M  V30 1704 H 163.502 -1.96292 -3.72891 0
M  V30 1705 H 162.177 -0.949014 -3.09476 0
M  V30 1706 H 161.084 -3.06363 -2.14692 0
M  V30 1707 H 162.417 -4.01945 -2.84079 0
M  V30 1708 N 164.069 0.697108 -1.41344 0
M  V30 1709 C 164.979 1.84088 -1.45427 0
M  V30 1710 C 165.995 1.70545 -0.34501 0
M  V30 1711 O 167.171 1.92488 -0.592492 0
M  V30 1712 C 164.236 3.20056 -1.33286 0
M  V30 1713 C 163.297 3.45718 -2.54514 0
M  V30 1714 C 162.53 4.75199 -2.42944 0
M  V30 1715 O 162.753 5.51579 -1.45318 0
M  V30 1716 O 161.687 5.0161 -3.32672 0
M  V30 1717 H 165.513 1.836 -2.41919 0
M  V30 1718 H 163.098 0.849966 -1.22866 0
M  V30 1719 H 164.98 4.01236 -1.28794 0
M  V30 1720 H 163.655 3.2123 -0.39909 0
M  V30 1721 H 162.562 2.64474 -2.64583 0
M  V30 1722 H 163.895 3.49356 -3.46715 0
M  V30 1723 N 165.547 1.27147 0.931209 0
M  V30 1724 C 166.477 1.12081 2.04842 0
M  V30 1725 C 167.458 0.0232364 1.70084 0
M  V30 1726 O 168.643 0.197085 1.93197 0
M  V30 1727 C 165.773 0.76354 3.38803 0
M  V30 1728 C 164.727 1.81396 3.87659 0
M  V30 1729 C 164.053 1.31075 5.18385 0
M  V30 1730 C 165.353 3.21739 4.11438 0
M  V30 1731 H 167.047 2.05537 2.17703 0
M  V30 1732 H 164.593 0.989603 1.04608 0
M  V30 1733 H 166.546 0.644982 4.16435 0
M  V30 1734 H 165.27 -0.206727 3.25945 0
M  V30 1735 H 163.929 1.92136 3.12217 0
M  V30 1736 H 163.577 0.330037 5.01916 0
M  V30 1737 H 163.277 2.013 5.52044 0
M  V30 1738 H 164.801 1.20506 5.98591 0
M  V30 1739 H 166.215 3.14019 4.79651 0
M  V30 1740 H 164.612 3.89644 4.56397 0
M  V30 1741 H 165.682 3.67054 3.16859 0
M  V30 1742 N 167.025 -1.13721 1.09112 0
M  V30 1743 C 167.955 -2.21148 0.749385 0
M  V30 1744 C 168.936 -1.6792 -0.271475 0
M  V30 1745 O 170.121 -1.93693 -0.140251 0
M  V30 1746 C 167.251 -3.46905 0.165659 0
M  V30 1747 C 166.205 -4.13203 1.11567 0
M  V30 1748 C 165.531 -5.33248 0.393809 0
M  V30 1749 C 166.831 -4.60912 2.45678 0
M  V30 1750 H 168.525 -2.4999 1.64758 0
M  V30 1751 H 166.071 -1.20156 0.793626 0
M  V30 1752 H 168.024 -4.21313 -0.085466 0
M  V30 1753 H 166.748 -3.17449 -0.767714 0
M  V30 1754 H 165.407 -3.40758 1.35202 0
M  V30 1755 H 165.055 -5.00054 -0.543599 0
M  V30 1756 H 164.755 -5.78552 1.02721 0
M  V30 1757 H 166.279 -6.10413 0.150908 0
M  V30 1758 H 167.693 -5.26759 2.26269 0
M  V30 1759 H 166.09 -5.16944 3.04776 0
M  V30 1760 H 167.16 -3.75603 3.06677 0
M  V30 1761 N 168.503 -0.877838 -1.30888 0
M  V30 1762 C 169.466 -0.344265 -2.266 0
M  V30 1763 C 170.466 0.50922 -1.52524 0
M  V30 1764 O 171.656 0.317398 -1.71284 0
M  V30 1765 C 168.788 0.510198 -3.37061 0
M  V30 1766 H 169.981 -1.1893 -2.7531 0
M  V30 1767 H 167.534 -0.654088 -1.41956 0
M  V30 1768 H 168.269 1.37612 -2.93655 0
M  V30 1769 H 168.054 -0.101047 -3.9197 0
M  V30 1770 H 169.544 0.875537 -4.08319 0
M  V30 1771 N 169.982 1.44106 -0.638065 0
M  V30 1772 C 171.228 2.02815 -0.15409 0
M  V30 1773 C 171.583 1.49342 1.21304 0
M  V30 1774 O 170.876 0.670699 1.79478 0
M  V30 1775 C 171.07 3.5729 -0.0887327 0
M  V30 1776 C 170.899 4.2575 -1.44799 0
M  V30 1777 C 169.669 4.62443 -2.03653 0
M  V30 1778 C 171.867 4.55746 -2.38327 0
M  V30 1779 N 169.849 5.15903 -3.32741 0
M  V30 1780 C 171.22 5.10364 -3.52036 0
M  V30 1781 C 173.275 4.37703 -2.3732 0
M  V30 1782 C 171.978 5.48837 -4.64941 0
M  V30 1783 C 174.004 4.77229 -3.49294 0
M  V30 1784 C 173.366 5.31966 -4.61726 0
M  V30 1785 H 169.465 0.775519 -0.100466 0
M  V30 1786 H 172.049 1.755 -0.843071 0
M  V30 1787 H 170.22 3.84201 0.569548 0
M  V30 1788 H 171.952 4.02671 0.404711 0
M  V30 1789 H 168.707 4.46987 -1.56523 0
M  V30 1790 H 169.131 5.47102 -3.98758 0
M  V30 1791 H 173.773 3.94671 -1.51641 0
M  V30 1792 H 171.491 5.9082 -5.51323 0
M  V30 1793 H 175.077 4.64976 -3.49698 0
M  V30 1794 H 173.957 5.61986 -5.46939 0
M  V30 1795 N 171.46 0.379036 1.52974 0
M  V30 1796 C 172.39 -0.452706 2.29069 0
M  V30 1797 C 173.371 -1.07237 1.32039 0
M  V30 1798 O 174.556 -1.08708 1.60923 0
M  V30 1799 C 171.686 -1.5856 3.08992 0
M  V30 1800 C 170.64 -1.0925 4.13822 0
M  V30 1801 C 169.966 -2.31668 4.81907 0
M  V30 1802 C 171.266 -0.167702 5.22031 0
M  V30 1803 H 172.96 0.182181 2.98845 0
M  V30 1804 H 170.506 0.0890592 1.43724 0
M  V30 1805 H 172.459 -2.1742 3.6098 0
M  V30 1806 H 171.183 -2.24792 2.36931 0
M  V30 1807 H 169.842 -0.526494 3.628 0
M  V30 1808 H 169.49 -2.96386 4.06404 0
M  V30 1809 H 169.19 -1.9934 5.52754 0
M  V30 1810 H 170.714 -2.91189 5.36695 0
M  V30 1811 H 172.128 -0.664186 5.6944 0
M  V30 1812 H 170.525 0.0653265 6.00064 0
M  V30 1813 H 171.595 0.786347 4.78482 0
M  V30 1814 N 172.938 -1.57226 0.108567 0
M  V30 1815 C 173.87 -2.11809 -0.875752 0
M  V30 1816 C 174.883 -1.05839 -1.23701 0
M  V30 1817 O 176.072 -1.33245 -1.18778 0
M  V30 1818 C 173.172 -2.59411 -2.18081 0
M  V30 1819 C 172.345 -3.89364 -1.99284 0
M  V30 1820 C 171.404 -4.22672 -3.13424 0
M  V30 1821 O 170.43 -4.91668 -2.86795 0
M  V30 1822 N 171.632 -3.79154 -4.3957 0
M  V30 1823 H 174.397 -2.9689 -0.409477 0
M  V30 1824 H 171.958 -1.61721 -0.076158 0
M  V30 1825 H 173.95 -2.7873 -2.93414 0
M  V30 1826 H 172.52 -1.79268 -2.5609 0
M  V30 1827 H 171.74 -3.79059 -1.08203 0
M  V30 1828 H 173.028 -4.74358 -1.84017 0
M  V30 1829 H 172.426 -3.23486 -4.64083 0
M  V30 1830 H 170.983 -4.03602 -5.11809 0
M  V30 1831 N 174.416 0.165178 -1.56732 0
M  V30 1832 C 175.832 0.517174 -1.50988 0
M  V30 1833 C 176.032 1.84331 -0.813894 0
M  V30 1834 O 175.088 2.49672 -0.37682 0
M  V30 1835 C 176.401 0.544261 -2.95733 0
M  V30 1836 C 177.949 0.631039 -3.06573 0
M  V30 1837 C 178.424 0.68896 -4.52788 0
M  V30 1838 N 179.915 0.751683 -4.5706 0
M  V30 1839 C 180.65 0.817177 -5.67547 0
M  V30 1840 N 180.146 0.843129 -6.8765 0
M  V30 1841 N 181.939 0.856668 -5.55534 0
M  V30 1842 H 174.09 -0.704318 -2.00382 0
M  V30 1843 H 176.353 -0.254687 -0.913148 0
M  V30 1844 H 176.059 -0.361607 -3.49836 0
M  V30 1845 H 175.933 1.3886 -3.5071 0
M  V30 1846 H 178.32 1.52733 -2.52501 0
M  V30 1847 H 178.401 -0.240095 -2.54671 0
M  V30 1848 H 178.045 -0.2031 -5.07494 0
M  V30 1849 H 177.975 1.57633 -5.02454 0
M  V30 1850 H 180.466 0.739661 -3.70591 0
M  V30 1851 H 180.779 0.894448 -7.67606 0
M  V30 1852 H 179.124 0.811304 -6.90248 0
M  V30 1853 H 182.315 0.833437 -4.60621 0
M  V30 1854 H 182.488 0.904247 -6.4166 0
M  V30 1855 N 175.894 1.51508 0.433938 0
M  V30 1856 C 177.142 1.6402 1.18075 0
M  V30 1857 C 177.463 0.360328 1.91642 0
M  V30 1858 O 176.733 -0.623945 1.85698 0
M  V30 1859 H 175.313 0.6045 0.43885 0
M  V30 1860 H 177.975 1.88452 0.497178 0
M  V30 1861 H 177.071 2.46949 1.90847 0
M  V30 1862 N 177.372 -0.689602 1.41712 0
M  V30 1863 C 178.302 -1.81577 1.46806 0
M  V30 1864 C 179.283 -1.66945 0.326105 0
M  V30 1865 O 180.468 -1.86588 0.538377 0
M  V30 1866 C 177.598 -3.19762 1.35535 0
M  V30 1867 C 176.552 -3.49107 2.47605 0
M  V30 1868 C 175.878 -4.86711 2.21397 0
M  V30 1869 C 177.178 -3.47483 3.89939 0
M  V30 1870 H 178.872 -1.7757 2.41058 0
M  V30 1871 H 176.418 -0.852887 1.16025 0
M  V30 1872 H 178.371 -3.98263 1.3771 0
M  V30 1873 H 177.095 -3.24409 0.377708 0
M  V30 1874 H 175.754 -2.72959 2.44722 0
M  V30 1875 H 175.402 -4.8799 1.21961 0
M  V30 1876 H 175.102 -5.0731 2.96497 0
M  V30 1877 H 176.626 -5.67515 2.25297 0
M  V30 1878 H 178.04 -4.1598 3.94505 0
M  V30 1879 H 176.437 -3.79615 4.64771 0
M  V30 1880 H 177.507 -2.46341 4.17665 0
M  V30 1881 N 178.85 -1.27639 -0.924453 0
M  V30 1882 C 180.266 -1.05113 -1.20097 0
M  V30 1883 C 180.466 0.213262 -2.00368 0
M  V30 1884 O 179.522 0.91787 -2.35226 0
M  V30 1885 C 180.835 -2.29244 -1.94596 0
M  V30 1886 C 182.383 -2.34315 -2.07522 0
M  V30 1887 C 182.858 -3.58183 -2.85427 0
M  V30 1888 N 184.349 -3.5876 -2.92994 0
M  V30 1889 C 185.084 -4.51277 -3.53746 0
M  V30 1890 N 184.58 -5.54102 -4.15863 0
M  V30 1891 N 186.373 -4.38894 -3.51181 0
M  V30 1892 H 178.524 -2.08821 -0.388264 0
M  V30 1893 H 180.787 -0.918568 -0.234385 0
M  V30 1894 H 180.493 -3.21301 -1.43034 0
M  V30 1895 H 180.367 -2.34816 -2.95197 0
M  V30 1896 H 182.754 -1.42762 -2.58269 0
M  V30 1897 H 182.835 -2.32744 -1.06131 0
M  V30 1898 H 182.479 -4.50074 -2.35363 0
M  V30 1899 H 182.409 -3.57006 -3.8711 0
M  V30 1900 H 184.9 -2.84398 -2.4885 0
M  V30 1901 H 185.213 -6.20859 -4.60168 0
M  V30 1902 H 183.558 -5.57941 -4.144 0
M  V30 1903 H 186.749 -3.57772 -3.01856 0
M  V30 1904 H 186.922 -5.11186 -3.98237 0
M  V30 1905 N 180.328 1.1314 -1.09713 0
M  V30 1906 C 181.278 2.16709 -0.708593 0
M  V30 1907 C 182.262 1.58471 0.278523 0
M  V30 1908 O 183.454 1.76779 0.088427 0
M  V30 1909 C 180.583 3.43039 -0.133923 0
M  V30 1910 C 179.669 4.08277 -1.14763 0
M  V30 1911 N 180.06 4.48637 -2.33577 0
M  V30 1912 C 178.358 4.34954 -0.986446 0
M  V30 1913 C 179.059 4.9952 -2.98085 0
M  V30 1914 N 178.035 4.94561 -2.25632 0
M  V30 1915 H 181.837 2.45672 -1.61315 0
M  V30 1916 H 179.351 1.29967 -0.973775 0
M  V30 1917 H 181.348 4.16583 0.162465 0
M  V30 1918 H 180.008 3.15549 0.765447 0
M  V30 1919 H 181.019 4.41246 -2.7115 0
M  V30 1920 H 177.696 4.17258 -0.142008 0
M  V30 1921 H 179.086 5.40521 -3.99108 0
M  V30 1922 N 181.806 0.884767 1.30421 0
M  V30 1923 C 182.716 0.355398 2.31892 0
M  V30 1924 C 183.732 -0.542261 1.65335 0
M  V30 1925 O 184.908 -0.435432 1.96637 0
M  V30 1926 C 181.973 -0.421661 3.44126 0
M  V30 1927 C 181.034 0.505727 4.26311 0
M  V30 1928 C 180.267 -0.234343 5.33185 0
M  V30 1929 O 180.49 -1.46045 5.51386 0
M  V30 1930 O 179.424 0.415443 6.00465 0
M  V30 1931 H 183.25 1.19685 2.79122 0
M  V30 1932 H 180.835 0.648596 1.34587 0
M  V30 1933 H 182.717 -0.861641 4.12497 0
M  V30 1934 H 181.392 -1.23942 2.99032 0
M  V30 1935 H 180.299 0.994513 3.60639 0
M  V30 1936 H 181.632 1.28948 4.75009 0
M  V30 1937 N 183.284 -1.43765 0.645699 0
M  V30 1938 C 184.53 -2.02197 0.156271 0
M  V30 1939 C 184.863 -1.50776 -1.22393 0
M  V30 1940 O 184.138 -0.697771 -1.81553 0
M  V30 1941 C 184.421 -3.59749 0.158872 0
M  V30 1942 C 184.274 -4.21419 1.57245 0
M  V30 1943 C 185.593 -4.37149 -0.50879 0
M  V30 1944 H 182.712 -0.734694 0.0582602 0
M  V30 1945 H 185.354 -1.71157 0.824951 0
M  V30 1946 H 183.504 -3.86325 -0.410525 0
M  V30 1947 H 185.176 -4.059 2.19186 0
M  V30 1948 H 183.419 -3.78356 2.122 0
M  V30 1949 H 184.09 -5.30482 1.52619 0
M  V30 1950 H 186.566 -4.16093 -0.024412 0
M  V30 1951 H 185.442 -5.4683 -0.476213 0
M  V30 1952 H 185.703 -4.12839 -1.58165 0
M  V30 1953 N 184.763 -0.387143 -1.52771 0
M  V30 1954 C 185.693 0.440551 -2.29306 0
M  V30 1955 C 186.674 1.06535 -1.32606 0
M  V30 1956 O 187.859 1.07853 -1.61497 0
M  V30 1957 C 184.989 1.56919 -3.09829 0
M  V30 1958 C 183.943 1.07054 -4.14395 0
M  V30 1959 C 183.269 2.29109 -4.83129 0
M  V30 1960 C 184.569 0.140015 -5.22112 0
M  V30 1961 H 186.263 -0.198026 -2.98744 0
M  V30 1962 H 183.809 -0.09668 -1.43675 0
M  V30 1963 H 185.762 2.15503 -3.62128 0
M  V30 1964 H 184.486 2.23532 -2.3812 0
M  V30 1965 H 183.145 0.507247 -3.63074 0
M  V30 1966 H 182.793 2.94227 -4.0797 0
M  V30 1967 H 182.493 1.96406 -5.53804 0
M  V30 1968 H 184.017 2.88339 -5.38231 0
M  V30 1969 H 185.431 0.633978 -5.69784 0
M  V30 1970 H 183.828 -0.0971485 -6.00021 0
M  V30 1971 H 184.898 -0.811711 -4.78058 0
M  V30 1972 N 186.241 1.57166 -0.116904 0
M  V30 1973 C 187.151 2.18745 0.847812 0
M  V30 1974 C 188.167 1.163 1.29423 0
M  V30 1975 O 189.343 1.48761 1.35765 0
M  V30 1976 C 186.408 2.77307 2.0809 0
M  V30 1977 C 185.469 3.94781 1.68661 0
M  V30 1978 C 184.702 4.50541 2.86091 0
M  V30 1979 O 184.925 4.05202 4.01456 0
M  V30 1980 O 183.859 5.41256 2.63298 0
M  V30 1981 H 187.685 3.01632 0.353778 0
M  V30 1982 H 185.27 1.49005 0.108599 0
M  V30 1983 H 187.152 3.14647 2.80313 0
M  V30 1984 H 185.827 1.97452 2.56504 0
M  V30 1985 H 184.734 3.62214 0.935518 0
M  V30 1986 H 186.067 4.76065 1.24991 0
M  V30 1987 N 187.719 -0.156864 1.56817 0
M  V30 1988 C 188.967 -0.869404 1.82444 0
M  V30 1989 C 189.288 -1.82147 0.69623 0
M  V30 1990 O 188.558 -1.93847 -0.28287 0
M  V30 1991 H 187.138 -0.324043 0.673056 0
M  V30 1992 H 189.8 -0.153224 1.94297 0
M  V30 1993 H 188.896 -1.43761 2.77019 0
M  V30 1994 N 189.197 -1.51736 -0.425897 0
M  V30 1995 C 190.145 -1.74464 -1.53834 0
M  V30 1996 C 191.139 -0.611241 -1.57988 0
M  V30 1997 O 192.345 -0.792899 -1.61596 0
M  V30 1998 H 188.72 -0.551437 -0.511293 0
M  V30 1999 H 190.691 -2.67694 -1.31843 0
M  V30 2000 C 189.44 -1.8972 -2.91379 0
M  V30 2001 H 188.763 -2.76344 -2.88919 0
M  V30 2002 H 190.203 -2.09629 -3.68553 0
M  V30 2003 C 188.662 -0.65992 -3.30374 0
M  V30 2004 O 189.192 0.180083 -4.01296 0
M  V30 2005 N 187.398 -0.500677 -2.86254 0
M  V30 2006 H 186.945 -1.18532 -2.28709 0
M  V30 2007 H 186.903 0.325903 -3.12706 0
M  V30 2008 N 190.675 0.682077 -1.42076 0
M  V30 2009 C 191.921 1.44428 -1.42367 0
M  V30 2010 C 192.254 1.94164 -0.0373056 0
M  V30 2011 O 191.529 1.70429 0.937239 0
M  V30 2012 C 191.812 2.64654 -2.44194 0
M  V30 2013 C 191.665 2.20596 -3.91991 0
M  V30 2014 C 192.984 3.66865 -2.431 0
M  V30 2015 H 190.103 0.523834 -0.518428 0
M  V30 2016 H 192.745 0.77576 -1.73442 0
M  V30 2017 H 190.895 3.2169 -2.17826 0
M  V30 2018 H 192.567 1.68783 -4.29313 0
M  V30 2019 H 190.81 1.52242 -4.06208 0
M  V30 2020 H 191.481 3.06921 -4.58807 0
M  V30 2021 H 193.957 3.19531 -2.66532 0
M  V30 2022 H 192.833 4.48577 -3.16339 0
M  V30 2023 H 193.094 4.17493 -1.45437 0
M  V30 2024 N 192.153 1.28127 0.917671 0
M  V30 2025 C 193.401 1.14825 1.66312 0
M  V30 2026 C 193.722 -0.304379 1.9261 0
M  V30 2027 O 192.992 -1.21149 1.53947 0
M  V30 2028 H 191.572 0.421953 0.616413 0
M  V30 2029 H 194.234 1.608 1.10134 0
M  V30 2030 H 193.33 1.68489 2.62712 0
M  V30 2031 N 193.631 -1.12557 1.10312 0
M  V30 2032 C 194.861 -1.87592 0.865617 0
M  V30 2033 C 195.269 -1.79851 -0.587389 0
M  V30 2034 O 194.612 -1.16949 -1.41664 0
M  V30 2035 C 194.674 -3.37665 1.23381 0
M  V30 2036 C 194.338 -3.69181 2.69359 0
M  V30 2037 C 195.335 -3.67652 3.67597 0
M  V30 2038 C 193.02 -3.98555 3.05711 0
M  V30 2039 C 195.014 -3.95053 5.00212 0
M  V30 2040 C 192.701 -4.25616 4.38514 0
M  V30 2041 C 193.699 -4.23851 5.35574 0
M  V30 2042 O 193.387 -4.50242 6.65986 0
M  V30 2043 H 193.119 -0.600442 0.310557 0
M  V30 2044 H 195.673 -1.4335 1.47105 0
M  V30 2045 H 193.903 -3.82454 0.571467 0
M  V30 2046 H 195.592 -3.94041 0.973994 0
M  V30 2047 H 196.358 -3.45024 3.40857 0
M  V30 2048 H 192.237 -3.99071 2.30789 0
M  V30 2049 H 195.781 -3.93591 5.75962 0
M  V30 2050 H 191.678 -4.47718 4.64994 0
M  V30 2051 H 192.446 -4.67867 6.71597 0
M  V30 2052 N 195.109 -0.891671 -1.2995 0
M  V30 2053 C 196.039 -0.379797 -2.30391 0
M  V30 2054 C 197.02 0.540919 -1.6127 0
M  V30 2055 O 198.205 0.453352 -1.88834 0
M  V30 2056 C 195.335 0.400654 -3.44981 0
M  V30 2057 C 194.289 -0.428905 -4.25846 0
M  V30 2058 C 193.615 0.478557 -5.32554 0
M  V30 2059 C 194.915 -1.67458 -4.94727 0
M  V30 2060 H 196.609 -1.21914 -2.73454 0
M  V30 2061 H 194.155 -0.587675 -1.31462 0
M  V30 2062 H 196.108 0.769434 -4.14316 0
M  V30 2063 H 194.832 1.27371 -3.0074 0
M  V30 2064 H 193.491 -0.779911 -3.58208 0
M  V30 2065 H 193.139 1.34951 -4.84559 0
M  V30 2066 H 192.839 -0.0727433 -5.87555 0
M  V30 2067 H 194.363 0.843705 -6.04743 0
M  V30 2068 H 195.777 -1.376 -5.56542 0
M  V30 2069 H 194.174 -2.16659 -5.59624 0
M  V30 2070 H 195.244 -2.41518 -4.20473 0
M  V30 2071 N 196.587 1.43421 -0.653314 0
M  V30 2072 C 198.003 1.56341 -0.320886 0
M  V30 2073 C 198.203 1.63696 1.17499 0
M  V30 2074 O 197.259 1.59208 1.95982 0
M  V30 2075 C 198.572 2.82424 -1.03233 0
M  V30 2076 C 200.12 2.96168 -1.01259 0
M  V30 2077 C 200.595 4.25084 -1.70492 0
M  V30 2078 N 202.086 4.31948 -1.67257 0
M  V30 2079 C 202.821 5.30466 -2.17701 0
M  V30 2080 N 202.317 6.35261 -2.76434 0
M  V30 2081 N 204.11 5.2212 -2.082 0
M  V30 2082 H 196.261 1.3689 -1.62403 0
M  V30 2083 H 198.524 0.657455 -0.682977 0
M  V30 2084 H 198.23 2.83053 -2.08744 0
M  V30 2085 H 198.104 3.72653 -0.583948 0
M  V30 2086 H 200.491 2.9508 0.0341235 0
M  V30 2087 H 200.572 2.07229 -1.49966 0
M  V30 2088 H 200.216 4.26932 -2.7512 0
M  V30 2089 H 200.146 5.1292 -1.19251 0
M  V30 2090 H 202.637 3.56838 -1.24398 0
M  V30 2091 H 202.95 7.06754 -3.12601 0
M  V30 2092 H 201.295 6.35884 -2.80495 0
M  V30 2093 H 204.486 4.39166 -1.62021 0
M  V30 2094 H 204.659 5.98739 -2.47822 0
M  V30 2095 N 198.065 0.39524 1.52563 0
M  V30 2096 C 199.311 -0.185318 2.01952 0
M  V30 2097 C 199.644 -1.45964 1.28095 0
M  V30 2098 O 198.919 -1.90689 0.38315 0
M  V30 2099 C 199.202 -0.447193 3.57312 0
M  V30 2100 C 199.055 0.842828 4.41833 0
M  V30 2101 C 200.374 -1.23529 4.22408 0
M  V30 2102 H 197.493 -0.0658788 0.73405 0
M  V30 2103 H 200.135 0.525975 1.82575 0
M  V30 2104 H 198.285 -1.05312 3.73954 0
M  V30 2105 H 199.957 1.4795 4.36931 0
M  V30 2106 H 198.2 1.45686 4.08605 0
M  V30 2107 H 198.871 0.614165 5.48573 0
M  V30 2108 H 201.347 -0.722445 4.0978 0
M  V30 2109 H 200.223 -1.38727 5.3108 0
M  V30 2110 H 200.484 -2.25213 3.80436 0
M  V30 2111 N 199.544 -1.57102 0.125237 0
M  V30 2112 C 200.821 -1.86953 -0.575142 0
M  V30 2113 C 201.201 -1.02749 -1.84407 0
M  V30 2114 O 200.549 -0.108144 -2.28244 0
M  V30 2115 C 200.759 -3.38198 -0.861583 0
M  V30 2116 C 202.107 -4.06937 -1.21192 0
M  V30 2117 O 203.131 -3.43252 -0.951645 0
M  V30 2118 O 201.99 -5.19364 -1.70068 0
M  V30 2119 H 199.084 -0.774147 -0.290906 0
M  V30 2120 H 201.63 -1.68942 0.160211 0
M  V30 2121 H 200.402 -3.91282 0.0373647 0
M  V30 2122 H 200.025 -3.61661 -1.65188 0
M  V30 2123 N 201.022 0.148545 -1.56898 0
M  V30 2124 C 202.247 0.880385 -1.87787 0
M  V30 2125 C 202.672 1.74018 -0.714093 0
M  V30 2126 O 202.03 1.78153 0.336343 0
M  V30 2127 C 202.078 1.71422 -3.17249 0
M  V30 2128 O 201.182 2.8183 -3.01074 0
M  V30 2129 H 200.523 0.245301 -0.617028 0
M  V30 2130 H 203.053 0.139826 -2.04122 0
M  V30 2131 H 203.063 2.10954 -3.49231 0
M  V30 2132 H 201.738 1.08284 -4.01556 0
M  V30 2133 H 200.315 2.45715 -2.80497 0
M  V30 2134 N 202.5 1.5196 0.417844 0
M  V30 2135 C 203.746 1.65836 1.16732 0
M  V30 2136 C 204.079 0.382881 1.90388 0
M  V30 2137 O 203.354 -0.618368 1.84408 0
M  V30 2138 C 203.637 2.87466 2.16876 0
M  V30 2139 C 203.49 4.25041 1.47174 0
M  V30 2140 C 204.809 3.04613 3.17646 0
M  V30 2141 H 201.928 0.603515 0.423011 0
M  V30 2142 H 204.57 1.84494 0.454105 0
M  V30 2143 H 202.72 2.71689 2.777 0
M  V30 2144 H 204.392 4.52527 0.895376 0
M  V30 2145 H 202.635 4.26843 0.773806 0
M  V30 2146 H 203.306 5.06176 2.20204 0
M  V30 2147 H 205.782 3.1923 2.66892 0
M  V30 2148 H 204.658 3.91247 3.8499 0
M  V30 2149 H 204.919 2.17541 3.84874 0
M  V30 2150 N 203.978 -0.674533 1.42435 0
M  V30 2151 C 205.389 -1.25514 1.38214 0
M  V30 2152 C 205.74 -1.96055 0.0755464 0
M  V30 2153 O 204.865 -2.00028 -0.8257 0
M  V30 2154 C 205.46 -2.28269 2.50357 0
M  V30 2155 C 204.019 -2.81856 2.49467 0
M  V30 2156 C 203.166 -1.56182 2.29134 0
M  V30 2157 H 206.117 -0.467902 1.51646 0
M  V30 2158 H 206.138 -3.10009 2.20624 0
M  V30 2159 H 205.65 -1.769 3.45439 0
M  V30 2160 H 203.751 -3.37346 1.58204 0
M  V30 2161 H 203.864 -3.30854 3.46515 0
M  V30 2162 H 202.228 -1.82761 1.774 0
M  V30 2163 H 203.011 -1.06778 3.26272 0
M  V30 2164 N 205.456 -1.28612 -0.910864 0
M  V30 2165 C 206.704 -1.15705 -1.65701 0
M  V30 2166 C 207.025 0.29416 -1.92769 0
M  V30 2167 O 206.295 1.20331 -1.54588 0
M  V30 2168 H 204.875 -0.425216 -0.614167 0
M  V30 2169 H 207.537 -1.61381 -1.0928 0
M  V30 2170 H 206.633 -1.6988 -2.61815 0
M  V30 2171 N 206.934 1.1197 -1.10907 0
M  V30 2172 C 207.866 2.17592 -0.720175 0
M  V30 2173 C 208.879 1.60938 0.245495 0
M  V30 2174 O 210.068 1.78476 0.0292245 0
M  V30 2175 C 207.168 3.38873 -0.0427917 0
M  V30 2176 C 206.341 4.25006 -1.03388 0
M  V30 2177 C 205.4 5.24774 -0.387075 0
M  V30 2178 O 204.426 5.59631 -1.03934 0
M  V30 2179 N 205.628 5.74208 0.852407 0
M  V30 2180 H 208.393 2.51567 -1.62893 0
M  V30 2181 H 205.954 1.27439 -0.998543 0
M  V30 2182 H 207.946 4.02703 0.401501 0
M  V30 2183 H 206.516 3.03007 0.768456 0
M  V30 2184 H 205.736 3.57716 -1.65629 0
M  V30 2185 H 207.024 4.79397 -1.70458 0
M  V30 2186 H 206.422 5.48062 1.40161 0
M  V30 2187 H 204.979 6.39901 1.23977 0
M  V30 2188 N 208.412 0.89855 1.29475 0
M  V30 2189 C 209.322 0.379974 2.31502 0
M  V30 2190 C 210.338 -0.524695 1.659 0
M  V30 2191 O 211.514 -0.414551 1.97087 0
M  V30 2192 C 208.579 -0.385138 3.44554 0
M  V30 2193 C 207.64 0.550914 4.2575 0
M  V30 2194 C 206.873 -0.177778 5.33404 0
M  V30 2195 O 207.096 -1.40189 5.52904 0
M  V30 2196 O 206.03 0.479106 5.9999 0
M  V30 2197 H 209.856 1.22639 2.77837 0
M  V30 2198 H 207.441 0.662834 1.33891 0
M  V30 2199 H 209.323 -0.817841 4.13388 0
M  V30 2200 H 207.998 -1.20763 3.0033 0
M  V30 2201 H 206.905 1.03271 3.59564 0
M  V30 2202 H 208.238 1.33979 4.73614 0
M  V30 2203 N 209.89 -1.43072 0.660911 0
M  V30 2204 C 211.136 -2.0202 0.177708 0
M  V30 2205 C 211.469 -1.52066 -1.20787 0
M  V30 2206 O 210.744 -0.716987 -1.80802 0
M  V30 2207 C 211.027 -3.59561 0.197019 0
M  V30 2208 C 210.88 -4.19727 1.61706 0
M  V30 2209 C 212.199 -4.37664 -0.462396 0
M  V30 2210 H 209.318 -0.734034 0.0660494 0
M  V30 2211 H 211.96 -1.70272 0.843058 0
M  V30 2212 H 210.11 -3.86739 -0.369527 0
M  V30 2213 H 211.782 -4.03553 2.23479 0
M  V30 2214 H 210.025 -3.76084 2.16201 0
M  V30 2215 H 210.696 -5.28834 1.58237 0
M  V30 2216 H 213.172 -4.16095 0.0197215 0
M  V30 2217 H 212.048 -5.47305 -0.418188 0
M  V30 2218 H 212.309 -4.14493 -1.53778 0
M  V30 2219 N 211.368 -0.403325 -1.52352 0
M  V30 2220 C 212.298 0.416205 -2.29761 0
M  V30 2221 C 213.279 1.05123 -1.33728 0
M  V30 2222 O 214.464 1.06134 -1.62632 0
M  V30 2223 C 211.594 1.53624 -3.11475 0
M  V30 2224 C 210.548 1.02653 -4.15507 0
M  V30 2225 C 209.874 2.23971 -4.85532 0
M  V30 2226 C 211.174 0.08463 -5.22231 0
M  V30 2227 H 212.868 -0.229701 -2.98518 0
M  V30 2228 H 210.414 -0.111913 -1.43564 0
M  V30 2229 H 212.367 2.1165 -3.64393 0
M  V30 2230 H 211.091 2.20994 -2.40477 0
M  V30 2231 H 209.75 0.46871 -3.63591 0
M  V30 2232 H 209.398 2.89883 -4.11068 0
M  V30 2233 H 209.098 1.90521 -5.55856 0
M  V30 2234 H 210.622 2.82614 -5.41259 0
M  V30 2235 H 212.036 0.573509 -5.70424 0
M  V30 2236 H 210.433 -0.160783 -5.99885 0
M  V30 2237 H 211.503 -0.86237 -4.7717 0
M  V30 2238 N 212.846 1.57033 -0.133567 0
M  V30 2239 C 214.071 2.00475 0.531477 0
M  V30 2240 C 214.496 1.01291 1.58499 0
M  V30 2241 O 213.854 -0.0133279 1.81295 0
M  V30 2242 C 213.902 3.42729 1.12113 0
M  V30 2243 O 213.006 3.46498 2.23636 0
M  V30 2244 H 212.347 0.650876 0.131362 0
M  V30 2245 H 214.877 2.03344 -0.22634 0
M  V30 2246 H 214.887 3.81246 1.4531 0
M  V30 2247 H 213.562 4.14428 0.349557 0
M  V30 2248 H 212.139 3.19811 1.91769 0
M  V30 2249 N 214.325 -0.140222 1.56975 0
M  V30 2250 C 215.258 -1.20266 1.93936 0
M  V30 2251 C 216.236 -1.41212 0.806099 0
M  V30 2252 O 217.42 -1.55713 1.06234 0
M  V30 2253 C 214.547 -2.56037 2.21726 0
M  V30 2254 C 213.593 -2.51646 3.44349 0
M  V30 2255 S 214.426 -1.97678 4.97678 0
M  V30 2256 C 215.582 -3.35165 5.28597 0
M  V30 2257 H 215.815 -0.887358 2.83749 0
M  V30 2258 H 213.348 -0.346119 1.50471 0
M  V30 2259 H 215.306 -3.34167 2.38416 0
M  V30 2260 H 213.967 -2.84755 1.32566 0
M  V30 2261 H 213.16 -3.51608 3.61092 0
M  V30 2262 H 212.762 -1.81628 3.26936 0
M  V30 2263 H 215.054 -4.31302 5.2248 0
M  V30 2264 H 215.997 -3.23269 6.30002 0
M  V30 2265 H 216.405 -3.32614 4.56101 0
M  V30 2266 N 215.803 -1.52179 -0.40978 0
M  V30 2267 C 216.736 -1.70196 -1.52015 0
M  V30 2268 C 217.714 -0.549542 -1.53032 0
M  V30 2269 O 218.898 -0.776815 -1.71749 0
M  V30 2270 C 216.025 -1.74069 -2.90547 0
M  V30 2271 C 215.071 -2.95601 -3.07445 0
M  V30 2272 S 215.904 -4.55956 -2.80827 0
M  V30 2273 C 217.06 -4.62614 -4.21591 0
M  V30 2274 H 217.293 -2.64109 -1.36504 0
M  V30 2275 H 214.826 -1.4221 -0.601312 0
M  V30 2276 H 216.784 -1.76985 -3.70387 0
M  V30 2277 H 215.445 -0.812835 -3.034 0
M  V30 2278 H 214.638 -2.94791 -4.08796 0
M  V30 2279 H 214.24 -2.90569 -2.35469 0
M  V30 2280 H 216.532 -4.39951 -5.15218 0
M  V30 2281 H 217.475 -5.64548 -4.27424 0
M  V30 2282 H 217.883 -3.91654 -4.06531 0
M  V30 2283 N 217.281 0.66697 -1.42791 0
M  V30 2284 C 218.529 1.42417 -1.43394 0
M  V30 2285 C 218.85 1.94925 -0.0542373 0
M  V30 2286 O 218.12 1.73564 0.908415 0
M  V30 2287 H 216.7 0.528515 -0.527902 0
M  V30 2288 H 219.362 0.787562 -1.78279 0
M  V30 2289 H 218.458 2.27333 -2.13837 0
M  V30 2290 N 218.759 1.29093 0.90403 0
M  V30 2291 C 219.669 1.15727 2.0407 0
M  V30 2292 C 220.685 0.0815308 1.73809 0
M  V30 2293 O 221.861 0.292749 1.99261 0
M  V30 2294 C 218.926 0.830424 3.36608 0
M  V30 2295 C 217.987 1.98955 3.80415 0
M  V30 2296 C 217.22 1.6782 5.06628 0
M  V30 2297 O 217.443 0.597105 5.67266 0
M  V30 2298 O 216.377 2.52486 5.46383 0
M  V30 2299 H 220.203 2.11171 2.18267 0
M  V30 2300 H 217.788 1.08504 1.027 0
M  V30 2301 H 219.67 0.662521 4.16159 0
M  V30 2302 H 218.345 -0.0942678 3.23563 0
M  V30 2303 H 217.252 2.21267 3.01648 0
M  V30 2304 H 218.585 2.89529 3.98037 0
M  V30 2305 N 220.237 -1.11381 1.11499 0
M  V30 2306 C 221.484 -1.83132 0.864231 0
M  V30 2307 C 221.812 -1.84683 -0.610114 0
M  V30 2308 O 221.067 -1.29589 -1.46646 0
M  V30 2309 C 221.366 -3.30026 1.37177 0
M  V30 2310 C 221.032 -3.48634 2.85946 0
M  V30 2311 C 219.694 -3.53421 3.26569 0
M  V30 2312 C 222.046 -3.54837 3.81759 0
M  V30 2313 C 219.374 -3.61967 4.61733 0
M  V30 2314 C 221.726 -3.64915 5.1674 0
M  V30 2315 C 220.39 -3.67962 5.5692 0
M  V30 2316 H 219.66 -0.670127 0.316245 0
M  V30 2317 H 222.307 -1.31354 1.3935 0
M  V30 2318 H 220.612 -3.84304 0.762753 0
M  V30 2319 H 222.309 -3.84034 1.15408 0
M  V30 2320 H 218.899 -3.45579 2.53521 0
M  V30 2321 H 223.083 -3.50399 3.51474 0
M  V30 2322 H 218.339 -3.62603 4.92269 0
M  V30 2323 H 222.513 -3.68658 5.90816 0
M  V30 2324 H 220.14 -3.74336 6.61647 0
M  V30 2325 N 221.715 -0.905404 -1.28997 0
M  V30 2326 C 222.645 -0.404212 -2.29975 0
M  V30 2327 C 223.626 0.523784 -1.61835 0
M  V30 2328 O 224.811 0.433298 -1.89304 0
M  V30 2329 C 221.941 0.364042 -3.45387 0
M  V30 2330 C 220.895 -0.474048 -4.25367 0
M  V30 2331 C 220.221 0.422045 -5.33032 0
M  V30 2332 C 221.521 -1.72696 -4.92923 0
M  V30 2333 H 223.215 -1.24807 -2.72146 0
M  V30 2334 H 220.761 -0.601585 -1.30832 0
M  V30 2335 H 222.714 0.725447 -4.15109 0
M  V30 2336 H 221.438 1.24174 -3.02074 0
M  V30 2337 H 220.097 -0.81786 -3.57361 0
M  V30 2338 H 219.745 1.29804 -4.85963 0
M  V30 2339 H 219.445 -0.135057 -5.87445 0
M  V30 2340 H 220.969 0.779517 -6.05604 0
M  V30 2341 H 222.383 -1.43495 -5.55051 0
M  V30 2342 H 220.78 -2.22582 -5.57295 0
M  V30 2343 H 221.85 -2.45964 -4.17887 0
M  V30 2344 N 223.193 1.4272 -0.668489 0
M  V30 2345 C 224.439 2.01923 -0.188419 0
M  V30 2346 C 224.772 1.52704 1.19979 0
M  V30 2347 O 224.047 0.726566 1.8042 0
M  V30 2348 C 224.33 3.59451 -0.216085 0
M  V30 2349 C 224.183 4.18864 -1.6393 0
M  V30 2350 C 225.502 4.37903 0.439179 0
M  V30 2351 H 222.621 0.733674 -0.0699412 0
M  V30 2352 H 225.263 1.69822 -0.852076 0
M  V30 2353 H 223.413 3.86929 0.349012 0
M  V30 2354 H 225.085 4.02362 -2.25616 0
M  V30 2355 H 223.328 3.74933 -2.18193 0
M  V30 2356 H 223.999 5.27987 -1.61039 0
M  V30 2357 H 226.475 4.16079 -0.0417878 0
M  V30 2358 H 225.351 5.47519 0.389157 0
M  V30 2359 H 225.612 4.15303 1.51577 0
M  V30 2360 N 224.671 0.411399 1.52136 0
M  V30 2361 C 225.634 -0.401089 2.25663 0
M  V30 2362 C 226.634 -0.971732 1.28117 0
M  V30 2363 O 227.824 -0.850254 1.52041 0
M  V30 2364 C 224.956 -1.56483 3.02863 0
M  V30 2365 H 226.149 0.24295 2.98914 0
M  V30 2366 H 223.702 0.163968 1.55438 0
M  V30 2367 H 224.437 -2.24567 2.33967 0
M  V30 2368 H 224.222 -1.16211 3.74483 0
M  V30 2369 H 225.712 -2.13951 3.58629 0
M  V30 2370 N 226.149 -1.5696 0.141893 0
M  V30 2371 C 227.099 -2.13074 -0.811383 0
M  V30 2372 C 228.083 -1.05726 -1.21288 0
M  V30 2373 O 229.275 -1.31914 -1.18015 0
M  V30 2374 C 226.404 -2.75186 -2.0525 0
M  V30 2375 C 225.49 -3.8965 -1.67432 0
M  V30 2376 N 225.881 -4.95733 -1.0041 0
M  V30 2377 C 224.179 -4.00262 -1.96739 0
M  V30 2378 C 224.88 -5.75858 -0.822345 0
M  V30 2379 N 223.856 -5.26452 -1.3546 0
M  V30 2380 H 227.658 -2.92465 -0.290031 0
M  V30 2381 H 225.172 -1.6229 -0.0598218 0
M  V30 2382 H 227.169 -3.13745 -2.74535 0
M  V30 2383 H 225.829 -1.97266 -2.57907 0
M  V30 2384 H 226.84 -5.13607 -0.665441 0
M  V30 2385 H 223.517 -3.33412 -2.51282 0
M  V30 2386 H 224.907 -6.71254 -0.294496 0
M  V30 2387 N 227.627 0.131896 -1.57047 0
M  V30 2388 C 228.873 0.843179 -1.84441 0
M  V30 2389 C 229.206 1.80129 -0.725749 0
M  V30 2390 O 228.481 1.92624 0.269469 0
M  V30 2391 C 228.764 1.60442 -3.22382 0
M  V30 2392 C 228.617 0.666782 -4.4483 0
M  V30 2393 C 229.936 2.56354 -3.5773 0
M  V30 2394 H 227.055 0.305081 -0.670891 0
M  V30 2395 H 229.697 0.107839 -1.89694 0
M  V30 2396 H 227.847 2.23128 -3.18035 0
M  V30 2397 H 229.519 0.0497646 -4.61273 0
M  V30 2398 H 227.762 -0.022609 -4.33794 0
M  V30 2399 H 228.433 1.23579 -5.37989 0
M  V30 2400 H 230.909 2.0378 -3.62785 0
M  V30 2401 H 229.785 3.06657 -4.5525 0
M  V30 2402 H 230.046 3.38419 -2.84473 0
M  V30 2403 N 229.106 1.52395 0.401703 0
M  V30 2404 C 230.352 1.68019 1.14635 0
M  V30 2405 C 230.707 0.408722 1.88009 0
M  V30 2406 O 230 -0.597133 1.82057 0
M  V30 2407 C 230.194 2.84578 2.16217 0
M  V30 2408 C 230.023 4.22938 1.5282 0
M  V30 2409 C 228.793 4.88352 1.29772 0
M  V30 2410 C 230.991 5.04778 0.985094 0
M  V30 2411 N 228.973 6.10726 0.623455 0
M  V30 2412 C 230.344 6.1845 0.438172 0
M  V30 2413 C 232.399 4.90057 0.880275 0
M  V30 2414 C 231.102 7.19013 -0.203306 0
M  V30 2415 C 233.128 5.9086 0.252639 0
M  V30 2416 C 232.49 7.03829 -0.283573 0
M  V30 2417 H 228.589 0.668413 0.405892 0
M  V30 2418 H 231.173 1.89717 0.437674 0
M  V30 2419 H 229.344 2.64483 2.84435 0
M  V30 2420 H 231.076 2.89202 2.83098 0
M  V30 2421 H 227.831 4.46846 1.56926 0
M  V30 2422 H 228.255 6.76323 0.302733 0
M  V30 2423 H 232.897 4.02938 1.28065 0
M  V30 2424 H 230.615 8.05751 -0.615726 0
M  V30 2425 H 234.201 5.81543 0.172954 0
M  V30 2426 H 233.081 7.80493 -0.761575 0
M  V30 2427 N 230.584 -0.659388 1.43143 0
M  V30 2428 C 231.832 -1.41654 1.44147 0
M  V30 2429 C 232.153 -1.94893 0.0645739 0
M  V30 2430 O 231.423 -1.74044 -0.899198 0
M  V30 2431 H 230.003 -0.525708 0.530697 0
M  V30 2432 H 232.665 -0.778097 1.78694 0
M  V30 2433 H 231.761 -2.26195 2.1504 0
M  V30 2434 N 232.062 -1.29571 -0.897171 0
M  V30 2435 C 233.01 -1.14802 -2.02295 0
M  V30 2436 C 234.004 -0.0629637 -1.69283 0
M  V30 2437 O 235.21 -0.222945 -1.78614 0
M  V30 2438 H 231.585 -0.354692 -0.663097 0
M  V30 2439 H 233.556 -2.10108 -2.11889 0
M  V30 2440 C 232.305 -0.843966 -3.37302 0
M  V30 2441 H 231.628 -1.67093 -3.63208 0
M  V30 2442 H 233.068 -0.780672 -4.16751 0
M  V30 2443 C 231.527 0.452843 -3.33843 0
M  V30 2444 O 232.057 1.47813 -3.73516 0
M  V30 2445 N 230.263 0.459601 -2.86943 0
M  V30 2446 H 229.81 -0.375213 -2.54853 0
M  V30 2447 H 229.768 1.32726 -2.85011 0
M  V30 2448 N 233.54 1.10788 -1.12088 0
M  V30 2449 C 234.47 2.19083 -0.807755 0
M  V30 2450 C 235.451 1.6858 0.226859 0
M  V30 2451 O 236.636 1.93997 0.0888475 0
M  V30 2452 C 233.766 3.46344 -0.257576 0
M  V30 2453 C 232.72 4.101 -1.22483 0
M  V30 2454 C 232.046 5.32016 -0.535052 0
M  V30 2455 C 233.346 4.54236 -2.57811 0
M  V30 2456 H 235.04 2.45534 -1.71328 0
M  V30 2457 H 232.586 1.1801 -0.825205 0
M  V30 2458 H 234.539 4.21392 -0.0262679 0
M  V30 2459 H 233.263 3.19373 0.683278 0
M  V30 2460 H 231.922 3.37054 -1.44189 0
M  V30 2461 H 231.57 5.01319 0.410827 0
M  V30 2462 H 231.27 5.75625 -1.18024 0
M  V30 2463 H 232.794 6.09799 -0.312695 0
M  V30 2464 H 234.208 5.20575 -2.40155 0
M  V30 2465 H 232.605 5.08682 -3.18375 0
M  V30 2466 H 233.675 3.6734 -3.16528 0
M  V30 2467 N 235.018 0.912232 1.28515 0
M  V30 2468 C 235.951 0.343928 2.25593 0
M  V30 2469 C 236.929 -0.550994 1.5298 0
M  V30 2470 O 238.113 -0.494991 1.81885 0
M  V30 2471 C 235.24 -0.508525 3.34861 0
M  V30 2472 C 234.286 0.320808 4.25292 0
M  V30 2473 S 235.119 1.72658 5.06902 0
M  V30 2474 C 236.275 0.881394 6.19663 0
M  V30 2475 H 236.508 1.16674 2.73449 0
M  V30 2476 H 234.041 0.713384 1.36931 0
M  V30 2477 H 235.999 -0.994539 3.9827 0
M  V30 2478 H 234.66 -1.30571 2.85675 0
M  V30 2479 H 233.853 -0.330941 5.02912 0
M  V30 2480 H 233.455 0.74042 3.66598 0
M  V30 2481 H 235.747 0.110359 6.7741 0
M  V30 2482 H 236.69 1.63009 6.89082 0
M  V30 2483 H 237.098 0.430239 5.62858 0
M  V30 2484 N 236.496 -1.42363 0.676048 0
M  V30 2485 C 237.744 -2.01123 0.198437 0
M  V30 2486 C 238.065 -1.53731 -1.19966 0
M  V30 2487 O 237.335 -0.759518 -1.80577 0
M  V30 2488 H 235.915 -0.743678 0.0703721 0
M  V30 2489 H 238.577 -1.74263 0.872837 0
M  V30 2490 H 237.673 -3.11454 0.200686 0
M  V30 2491 N 237.974 -0.419461 -1.51915 0
M  V30 2492 C 239.202 0.152136 -2.0634 0
M  V30 2493 C 239.617 1.37988 -1.28859 0
M  V30 2494 O 238.974 1.79243 -0.343232 0
M  V30 2495 C 239.025 0.492266 -3.58133 0
M  V30 2496 O 238.746 -0.686736 -4.32684 0
M  V30 2497 C 240.247 1.11648 -4.2901 0
M  V30 2498 H 237.467 0.0158325 -0.670813 0
M  V30 2499 H 240.011 -0.593394 -1.95702 0
M  V30 2500 H 238.166 1.18769 -3.68745 0
M  V30 2501 H 238.58 -0.400341 -5.2297 0
M  V30 2502 H 240.054 1.3046 -5.36362 0
M  V30 2503 H 240.531 2.09251 -3.86148 0
M  V30 2504 H 241.137 0.460958 -4.22795 0
M  V30 2505 N 239.452 1.56882 -0.150215 0
M  V30 2506 C 240.677 2.01027 0.510184 0
M  V30 2507 C 241.102 1.02966 1.57415 0
M  V30 2508 O 240.46 0.00590158 1.81299 0
M  V30 2509 C 240.508 3.43899 1.08472 0
M  V30 2510 O 239.612 3.4885 2.19948 0
M  V30 2511 H 238.953 0.652233 0.124451 0
M  V30 2512 H 241.483 2.03093 -0.247894 0
M  V30 2513 H 241.493 3.82766 1.41259 0
M  V30 2514 H 240.168 4.14776 0.305582 0
M  V30 2515 H 238.745 3.21827 1.88366 0
M  V30 2516 N 240.93 -0.123565 1.57115 0
M  V30 2517 C 241.893 -1.13583 1.99076 0
M  V30 2518 C 242.893 -1.34564 0.880296 0
M  V30 2519 O 244.083 -1.31158 1.14644 0
M  V30 2520 C 241.215 -2.49128 2.32698 0
M  V30 2521 H 242.408 -0.775287 2.89706 0
M  V30 2522 H 239.961 -0.36771 1.51913 0
M  V30 2523 H 240.696 -2.90111 1.44934 0
M  V30 2524 H 240.481 -2.35255 3.13684 0
M  V30 2525 H 241.971 -3.2199 2.65918 0
M  V30 2526 N 242.408 -1.52605 -0.393616 0
M  V30 2527 C 243.338 -1.80022 -1.48709 0
M  V30 2528 C 244.319 -0.651995 -1.57108 0
M  V30 2529 O 245.504 -0.89913 -1.72132 0
M  V30 2530 C 242.634 -1.96492 -2.86371 0
M  V30 2531 C 241.588 -3.12161 -2.92813 0
M  V30 2532 C 240.914 -3.13877 -4.3288 0
M  V30 2533 C 242.214 -4.51322 -2.6288 0
M  V30 2534 H 243.908 -2.71589 -1.26015 0
M  V30 2535 H 241.454 -1.30684 -0.604778 0
M  V30 2536 H 243.407 -2.14255 -3.62867 0
M  V30 2537 H 242.131 -1.01611 -3.10391 0
M  V30 2538 H 240.79 -2.94173 -2.18764 0
M  V30 2539 H 240.438 -2.16687 -4.53933 0
M  V30 2540 H 240.138 -3.91576 -4.38112 0
M  V30 2541 H 241.662 -3.33789 -5.1129 0
M  V30 2542 H 243.076 -4.69435 -3.29096 0
M  V30 2543 H 241.473 -5.31053 -2.79468 0
M  V30 2544 H 242.543 -4.58353 -1.58242 0
M  V30 2545 N 243.887 0.651787 -1.4349 0
M  V30 2546 C 245.133 1.41376 -1.45398 0
M  V30 2547 C 245.466 1.94041 -0.0784823 0
M  V30 2548 O 244.741 1.72379 0.900878 0
M  V30 2549 C 245.024 2.59414 -2.49752 0
M  V30 2550 C 244.877 2.12232 -3.96582 0
M  V30 2551 C 246.196 3.61626 -2.50827 0
M  V30 2552 H 243.315 0.512719 -0.529422 0
M  V30 2553 H 245.957 0.738796 -1.75048 0
M  V30 2554 H 244.107 3.16997 -2.246 0
M  V30 2555 H 245.779 1.59639 -4.32797 0
M  V30 2556 H 244.022 1.43592 -4.09346 0
M  V30 2557 H 244.693 2.9712 -4.65214 0
M  V30 2558 H 247.169 3.13805 -2.7325 0
M  V30 2559 H 246.045 4.41766 -3.25783 0
M  V30 2560 H 246.306 4.14314 -1.5426 0
M  V30 2561 N 245.365 1.30045 0.890287 0
M  V30 2562 C 246.295 1.18541 2.01172 0
M  V30 2563 C 247.276 0.0773356 1.69924 0
M  V30 2564 O 248.461 0.25845 1.92473 0
M  V30 2565 C 245.591 0.870941 3.36202 0
M  V30 2566 C 244.545 1.93637 3.81692 0
M  V30 2567 C 243.871 1.475 5.13953 0
M  V30 2568 C 245.171 3.34666 4.00994 0
M  V30 2569 H 246.865 2.12359 2.11054 0
M  V30 2570 H 244.411 1.02238 1.01407 0
M  V30 2571 H 246.364 0.777141 4.14172 0
M  V30 2572 H 245.088 -0.102926 3.26438 0
M  V30 2573 H 243.747 2.01972 3.05946 0
M  V30 2574 H 243.395 0.489551 5.00612 0
M  V30 2575 H 243.095 2.1876 5.4536 0
M  V30 2576 H 244.619 1.39489 5.94454 0
M  V30 2577 H 246.033 3.2912 4.69417 0
M  V30 2578 H 244.43 4.03966 4.43769 0
M  V30 2579 H 245.5 3.76949 3.05021 0
M  V30 2580 N 246.843 -1.10192 1.12674 0
M  V30 2581 C 248.12 -1.78717 0.794965 0
M  V30 2582 C 248.5 -1.98628 -0.714853 0
M  V30 2583 O 247.848 -1.58135 -1.64941 0
M  V30 2584 C 248.058 -3.11546 1.5729 0
M  V30 2585 C 249.406 -3.86382 1.76052 0
M  V30 2586 O 250.43 -3.21274 1.53823 0
M  V30 2587 O 249.289 -5.03246 2.13087 0
M  V30 2588 H 246.383 -0.774702 0.289423 0
M  V30 2589 H 248.929 -1.16819 1.23091 0
M  V30 2590 H 247.701 -2.92489 2.59935 0
M  V30 2591 H 247.324 -3.81164 1.13137 0
M  V30 2592 N 248.321 -0.919034 -1.28029 0
M  V30 2593 C 249.251 -0.428581 -2.29533 0
M  V30 2594 C 250.232 0.50659 -1.62381 0
M  V30 2595 O 251.417 0.413195 -1.89753 0
M  V30 2596 C 248.547 0.327388 -3.45753 0
M  V30 2597 C 247.501 -0.519137 -4.2484 0
M  V30 2598 C 246.827 0.365486 -5.33449 0
M  V30 2599 C 248.127 -1.77914 -4.91064 0
M  V30 2600 H 249.821 -1.27687 -2.70807 0
M  V30 2601 H 247.367 -0.615428 -1.30186 0
M  V30 2602 H 249.32 0.681378 -4.15855 0
M  V30 2603 H 248.044 1.20963 -3.03374 0
M  V30 2604 H 246.703 -0.855717 -3.56473 0
M  V30 2605 H 246.351 1.24642 -4.87312 0
M  V30 2606 H 246.051 -0.197356 -5.87268 0
M  V30 2607 H 247.575 0.715241 -6.06396 0
M  V30 2608 H 248.989 -1.49374 -5.53498 0
M  V30 2609 H 247.386 -2.2848 -5.54903 0
M  V30 2610 H 248.456 -2.50382 -4.15255 0
M  V30 2611 N 249.799 1.42003 -0.683588 0
M  V30 2612 C 251.215 1.55625 -0.353976 0
M  V30 2613 C 251.415 1.66151 1.14 0
M  V30 2614 O 250.471 1.63329 1.92561 0
M  V30 2615 C 251.784 2.80171 -1.092 0
M  V30 2616 C 253.332 2.93954 -1.07518 0
M  V30 2617 C 253.807 4.21372 -1.79471 0
M  V30 2618 N 255.298 4.28303 -1.76381 0
M  V30 2619 C 256.033 5.25729 -2.28904 0
M  V30 2620 N 255.529 6.29254 -2.89846 0
M  V30 2621 N 257.322 5.17586 -2.19228 0
M  V30 2622 H 249.473 1.33415 -1.6527 0
M  V30 2623 H 251.736 0.64282 -0.696769 0
M  V30 2624 H 251.442 2.78561 -2.14701 0
M  V30 2625 H 251.316 3.7133 -0.662862 0
M  V30 2626 H 253.703 2.95086 -0.028475 0
M  V30 2627 H 253.784 2.04002 -1.54328 0
M  V30 2628 H 253.428 4.21001 -2.84114 0
M  V30 2629 H 253.358 5.10275 -1.30104 0
M  V30 2630 H 255.849 3.54119 -1.31939 0
M  V30 2631 H 256.162 6.99964 -3.27522 0
M  V30 2632 H 254.507 6.29791 -2.93919 0
M  V30 2633 H 257.698 4.35631 -1.71299 0
M  V30 2634 H 257.871 5.93348 -2.60466 0
M  V30 2635 N 251.277 0.427512 1.51691 0
M  V30 2636 C 252.227 -0.406604 2.24345 0
M  V30 2637 C 253.211 -0.998276 1.26187 0
M  V30 2638 O 254.403 -0.918045 1.51331 0
M  V30 2639 C 251.532 -1.51266 3.08177 0
M  V30 2640 C 250.618 -0.930868 4.13758 0
M  V30 2641 N 251.009 -0.0773552 5.05741 0
M  V30 2642 C 249.307 -1.19948 4.29568 0
M  V30 2643 C 250.008 0.248344 5.8117 0
M  V30 2644 N 248.984 -0.365535 5.4237 0
M  V30 2645 H 252.786 0.251581 2.92821 0
M  V30 2646 H 250.3 0.239003 1.60632 0
M  V30 2647 H 252.297 -2.123 3.58796 0
M  V30 2648 H 250.957 -2.17328 2.41244 0
M  V30 2649 H 251.968 0.288351 5.17097 0
M  V30 2650 H 248.645 -1.85832 3.73862 0
M  V30 2651 H 250.035 0.942286 6.6526 0
M  V30 2652 N 252.755 -1.56801 0.158532 0
M  V30 2653 C 253.995 -1.98383 -0.49229 0
M  V30 2654 C 254.359 -1.04184 -1.61275 0
M  V30 2655 O 255.56 -1.34856 -2.32524 0
M  V30 2656 C 253.831 -3.4385 -0.974766 0
M  V30 2657 S 255.39 -4.07459 -1.62857 0
M  V30 2658 H 252.208 -0.693041 -0.158794 0
M  V30 2659 H 254.81 -1.93856 0.252974 0
M  V30 2660 H 253.514 -4.10131 -0.148688 0
M  V30 2661 H 253.045 -3.52115 -1.75438 0
M  V30 2662 H 255.06 -4.01458 -2.91627 0
M  V30 2663 N 254.233 0.115231 -1.57178 0
M  V30 2664 C 255.461 0.836437 -1.89239 0
M  V30 2665 C 255.876 1.73256 -0.750175 0
M  V30 2666 O 255.233 1.80357 0.278832 0
M  V30 2667 C 255.284 1.66671 -3.20785 0
M  V30 2668 O 255.005 0.806652 -4.3061 0
M  V30 2669 C 256.506 2.49274 -3.66575 0
M  V30 2670 H 253.726 0.240253 -0.626514 0
M  V30 2671 H 256.27 0.0984932 -2.04263 0
M  V30 2672 H 254.425 2.35737 -3.0742 0
M  V30 2673 H 254.839 1.37969 -5.06028 0
M  V30 2674 H 256.313 3.03055 -4.6137 0
M  V30 2675 H 256.79 3.26807 -2.93417 0
M  V30 2676 H 257.396 1.85443 -3.82741 0
M  V30 2677 N 255.711 1.52812 0.385517 0
M  V30 2678 C 256.959 1.67694 1.12797 0
M  V30 2679 C 257.28 0.421115 1.90399 0
M  V30 2680 O 256.55 -0.564551 1.87589 0
M  V30 2681 H 255.13 0.618155 0.419396 0
M  V30 2682 H 257.792 1.89938 0.436972 0
M  V30 2683 H 256.888 2.52896 1.82894 0
M  V30 2684 N 257.189 -0.644168 1.43834 0
M  V30 2685 C 258.437 -1.40117 1.45642 0
M  V30 2686 C 258.758 -1.94814 0.0852413 0
M  V30 2687 O 258.028 -1.74988 -0.880688 0
M  V30 2688 H 256.608 -0.52005 0.536243 0
M  V30 2689 H 259.27 -0.7591 1.7951 0
M  V30 2690 H 258.366 -2.23902 2.17427 0
M  V30 2691 N 258.668 -1.30515 -0.883378 0
M  V30 2692 C 259.6 -1.12846 -1.99496 0
M  V30 2693 C 260.613 -0.0712571 -1.62644 0
M  V30 2694 O 261.802 -0.317432 -1.75655 0
M  V30 2695 C 258.902 -0.699123 -3.3161 0
M  V30 2696 C 258.075 -1.83842 -3.96889 0
M  V30 2697 C 257.134 -1.39737 -5.07307 0
M  V30 2698 O 256.16 -2.10485 -5.28852 0
M  V30 2699 N 257.362 -0.277279 -5.79837 0
M  V30 2700 H 260.127 -2.08585 -2.15203 0
M  V30 2701 H 257.688 -1.22672 -1.05656 0
M  V30 2702 H 259.68 -0.387044 -4.02845 0
M  V30 2703 H 258.25 0.166276 -3.12157 0
M  V30 2704 H 257.47 -2.31853 -3.18807 0
M  V30 2705 H 258.758 -2.60187 -4.37241 0
M  V30 2706 H 258.156 0.3122 -5.64838 0
M  V30 2707 H 256.713 -0.0246623 -6.51795 0
M  V30 2708 N 260.146 1.09593 -1.13257 0
M  V30 2709 C 261.392 1.82003 -0.89458 0
M  V30 2710 C 261.725 1.85402 0.577906 0
M  V30 2711 O 261 1.32099 1.42759 0
M  V30 2712 C 261.283 3.28237 -1.48096 0
M  V30 2713 C 261.136 3.3312 -3.02244 0
M  V30 2714 C 262.455 4.24871 -1.14774 0
M  V30 2715 H 259.574 0.66077 -0.326424 0
M  V30 2716 H 262.216 1.28389 -1.40058 0
M  V30 2717 H 260.366 3.74024 -1.05062 0
M  V30 2718 H 262.038 2.95748 -3.54021 0
M  V30 2719 H 260.281 2.72756 -3.37323 0
M  V30 2720 H 260.952 4.3613 -3.38371 0
M  V30 2721 H 263.428 3.87361 -1.51957 0
M  V30 2722 H 262.304 5.25532 -1.58452 0
M  V30 2723 H 262.565 4.42058 -0.0611849 0
M  V30 2724 N 261.624 0.925811 1.2754 0
M  V30 2725 C 262.849 0.580924 1.99098 0
M  V30 2726 C 263.274 -0.833555 1.68622 0
M  V30 2727 O 262.632 -1.55903 0.925422 0
M  V30 2728 C 262.68 0.811186 3.51358 0
M  V30 2729 O 261.784 -0.124129 4.12213 0
M  V30 2730 H 261.125 0.223873 0.625122 0
M  V30 2731 H 263.655 1.24455 1.62395 0
M  V30 2732 H 263.665 0.72601 4.01489 0
M  V30 2733 H 262.34 1.84227 3.72872 0
M  V30 2734 H 260.917 0.0108006 3.72898 0
M  V30 2735 N 263.102 -1.41638 0.69111 0
M  V30 2736 C 264.35 -2.00902 0.219758 0
M  V30 2737 C 264.671 -1.54994 -1.18329 0
M  V30 2738 O 263.941 -0.778628 -1.79762 0
M  V30 2739 H 262.521 -0.74289 0.0782558 0
M  V30 2740 H 265.183 -1.73327 0.891271 0
M  V30 2741 H 264.279 -3.11224 0.233708 0
M  V30 2742 N 264.58 -0.43555 -1.51462 0
M  V30 2743 C 265.829 0.133007 -2.01261 0
M  V30 2744 C 266.142 1.43942 -1.32439 0
M  V30 2745 O 267.348 2.09081 -1.73198 0
M  V30 2746 C 265.804 0.287581 -3.58749 0
M  V30 2747 C 265.412 -1.00829 -4.36506 0
M  V30 2748 C 267.156 0.810004 -4.167 0
M  V30 2749 C 265.063 -0.819454 -5.85695 0
M  V30 2750 H 263.993 0.0534822 -0.752101 0
M  V30 2751 H 266.644 -0.565038 -1.74584 0
M  V30 2752 H 265.026 1.04859 -3.81865 0
M  V30 2753 H 266.2 -1.77749 -4.25138 0
M  V30 2754 H 264.515 -1.45911 -3.89999 0
M  V30 2755 H 267.112 0.967743 -5.2587 0
M  V30 2756 H 267.455 1.79196 -3.75758 0
M  V30 2757 H 267.988 0.107357 -3.97655 0
M  V30 2758 H 264.727 -1.77374 -6.31046 0
M  V30 2759 H 264.247 -0.0900208 -5.99732 0
M  V30 2760 H 265.926 -0.471949 -6.45276 0
M  V30 2761 N 266.058 1.56714 -0.166846 0
M  V30 2762 C 267.469 1.83378 0.350646 0
M  V30 2763 C 267.82 1.08646 1.63372 0
M  V30 2764 O 266.945 0.338058 2.13743 0
M  V30 2765 C 267.54 3.32643 0.642963 0
M  V30 2766 C 266.099 3.59818 1.10491 0
M  V30 2767 C 265.246 2.76954 0.138411 0
M  V30 2768 H 268.197 1.53803 -0.391193 0
M  V30 2769 H 268.218 3.49878 1.49551 0
M  V30 2770 H 267.73 3.87007 -0.291055 0
M  V30 2771 H 265.831 3.1086 2.05418 0
M  V30 2772 H 265.944 4.68178 1.01716 0
M  V30 2773 H 264.308 2.4666 0.634911 0
M  V30 2774 H 265.091 3.34097 -0.789549 0
M  V30 2775 N 267.536 -0.106894 1.57237 0
M  V30 2776 C 268.766 -0.825191 1.89405 0
M  V30 2777 C 269.174 -1.73374 0.757496 0
M  V30 2778 O 268.517 -1.81552 -0.280115 0
M  V30 2779 C 268.579 -1.70102 3.1671 0
M  V30 2780 C 268.243 -0.965523 4.46684 0
M  V30 2781 C 269.24 -0.300741 5.19029 0
M  V30 2782 C 266.925 -0.943105 4.93367 0
M  V30 2783 C 268.919 0.376622 6.36286 0
M  V30 2784 C 266.606 -0.261949 6.10538 0
M  V30 2785 C 267.604 0.396748 6.81847 0
M  V30 2786 O 267.292 1.06701 7.96787 0
M  V30 2787 H 267.024 -0.241852 0.631255 0
M  V30 2788 H 269.578 -0.0921491 2.05193 0
M  V30 2789 H 267.808 -2.47601 2.97036 0
M  V30 2790 H 269.497 -2.29483 3.34802 0
M  V30 2791 H 270.263 -0.309599 4.84011 0
M  V30 2792 H 266.142 -1.44524 4.3776 0
M  V30 2793 H 269.686 0.891334 6.91882 0
M  V30 2794 H 265.583 -0.250896 6.45012 0
M  V30 2795 H 266.351 0.972707 8.127 0
M  V30 2796 N 269.014 -1.53014 -0.377408 0
M  V30 2797 C 270.263 -1.67845 -1.11853 0
M  V30 2798 C 270.576 -0.430625 -1.90801 0
M  V30 2799 O 271.782 -0.459261 -2.67587 0
M  V30 2800 C 270.238 -2.96668 -2.03756 0
M  V30 2801 C 269.846 -4.28671 -1.30175 0
M  V30 2802 C 271.59 -3.20865 -2.77932 0
M  V30 2803 C 269.497 -5.48591 -2.20911 0
M  V30 2804 H 268.427 -0.625343 -0.421263 0
M  V30 2805 H 271.078 -1.79514 -0.380409 0
M  V30 2806 H 269.46 -2.78773 -2.8125 0
M  V30 2807 H 270.634 -4.57157 -0.578259 0
M  V30 2808 H 268.949 -4.10825 -0.679108 0
M  V30 2809 H 271.546 -4.07642 -3.46024 0
M  V30 2810 H 271.889 -2.36424 -3.4265 0
M  V30 2811 H 272.422 -3.39379 -2.07525 0
M  V30 2812 H 269.161 -6.35474 -1.6079 0
M  V30 2813 H 268.681 -5.244 -2.91144 0
M  V30 2814 H 270.36 -5.8292 -2.80736 0
M  V30 2815 N 270.492 0.636531 -1.44174 0
M  V30 2816 C 271.741 1.39213 -1.45954 0
M  V30 2817 C 272.054 1.95374 -0.0939119 0
M  V30 2818 O 273.26 2.71498 0.0107767 0
M  V30 2819 C 271.716 2.52025 -2.56927 0
M  V30 2820 C 271.324 2.024 -3.99673 0
M  V30 2821 C 273.068 3.29269 -2.67922 0
M  V30 2822 C 270.975 3.12521 -5.0208 0
M  V30 2823 H 269.905 0.523132 -0.542999 0
M  V30 2824 H 272.556 0.685349 -1.70221 0
M  V30 2825 H 270.938 3.25253 -2.25891 0
M  V30 2826 H 272.112 1.36073 -4.40251 0
M  V30 2827 H 270.427 1.37987 -3.92872 0
M  V30 2828 H 273.024 4.11352 -3.41605 0
M  V30 2829 H 273.367 3.78397 -1.73555 0
M  V30 2830 H 273.9 2.63129 -2.98342 0
M  V30 2831 H 270.639 2.68343 -5.98057 0
M  V30 2832 H 270.159 3.77507 -4.66099 0
M  V30 2833 H 271.838 3.77385 -5.25538 0
M  V30 2834 N 271.97 1.30982 0.876444 0
M  V30 2835 C 273.195 1.23373 1.66715 0
M  V30 2836 C 273.62 -0.19885 1.87046 0
M  V30 2837 O 272.978 -1.1427 1.40756 0
M  V30 2838 C 273.026 1.97644 3.01611 0
M  V30 2839 O 272.13 1.30935 3.91062 0
M  V30 2840 H 271.471 0.426279 0.509099 0
M  V30 2841 H 274.001 1.72944 1.09323 0
M  V30 2842 H 274.011 2.06992 3.51594 0
M  V30 2843 H 272.686 3.01829 2.86133 0
M  V30 2844 H 271.263 1.29996 3.49507 0
M  V30 2845 N 273.449 -1.08991 1.13837 0
M  V30 2846 C 274.679 -1.84743 0.924859 0
M  V30 2847 C 275.087 -1.81629 -0.529874 0
M  V30 2848 O 274.43 -1.21397 -1.37872 0
M  V30 2849 C 274.492 -3.33568 1.34061 0
M  V30 2850 C 274.156 -3.60425 2.80968 0
M  V30 2851 C 275.153 -3.55771 3.79108 0
M  V30 2852 C 272.838 -3.88627 3.18236 0
M  V30 2853 C 274.832 -3.78939 5.12527 0
M  V30 2854 C 272.519 -4.11449 4.51833 0
M  V30 2855 C 273.517 -4.06598 5.48787 0
M  V30 2856 O 273.205 -4.28826 6.79973 0
M  V30 2857 H 272.937 -0.590258 0.329502 0
M  V30 2858 H 275.491 -1.38598 1.51591 0
M  V30 2859 H 273.721 -3.80442 0.692853 0
M  V30 2860 H 275.41 -3.90743 1.09886 0
M  V30 2861 H 276.176 -3.34005 3.51661 0
M  V30 2862 H 272.055 -3.91526 2.43369 0
M  V30 2863 H 275.599 -3.75068 5.88192 0
M  V30 2864 H 271.496 -4.32698 4.79002 0
M  V30 2865 H 272.264 -4.46264 6.86142 0
M  V30 2866 N 274.927 -0.932562 -1.27047 0
M  V30 2867 C 275.857 -0.452902 -2.29066 0
M  V30 2868 C 276.838 0.489338 -1.62909 0
M  V30 2869 O 278.023 0.393046 -1.90181 0
M  V30 2870 C 275.153 0.290698 -3.46081 0
M  V30 2871 C 274.107 -0.564168 -4.24265 0
M  V30 2872 C 273.433 0.308886 -5.33807 0
M  V30 2873 C 274.733 -1.83112 -4.89149 0
M  V30 2874 H 276.427 -1.30552 -2.69437 0
M  V30 2875 H 273.973 -0.629201 -1.29526 0
M  V30 2876 H 275.926 0.637233 -4.16554 0
M  V30 2877 H 274.65 1.17738 -3.0464 0
M  V30 2878 H 273.309 -0.893477 -3.55545 0
M  V30 2879 H 272.957 1.19467 -4.88607 0
M  V30 2880 H 272.657 -0.259633 -5.87026 0
M  V30 2881 H 274.181 0.650884 -6.07121 0
M  V30 2882 H 275.595 -1.55236 -5.51883 0
M  V30 2883 H 273.992 -2.34353 -5.52448 0
M  V30 2884 H 275.062 -2.54772 -4.12576 0
M  V30 2885 N 276.405 1.4127 -0.698611 0
M  V30 2886 C 277.355 2.27997 -0.0119836 0
M  V30 2887 C 278.339 1.42363 0.749765 0
M  V30 2888 O 279.531 1.65607 0.624758 0
M  V30 2889 C 276.66 3.30702 0.921458 0
M  V30 2890 C 275.746 4.23814 0.155796 0
M  V30 2891 N 276.137 4.98572 -0.852015 0
M  V30 2892 C 274.435 4.44284 0.390836 0
M  V30 2893 C 275.136 5.66744 -1.3106 0
M  V30 2894 N 274.112 5.39867 -0.635944 0
M  V30 2895 H 277.914 2.83232 -0.784649 0
M  V30 2896 H 275.428 1.53518 -0.529711 0
M  V30 2897 H 277.425 3.91661 1.42854 0
M  V30 2898 H 276.085 2.77028 1.69369 0
M  V30 2899 H 277.096 5.03024 -1.23235 0
M  V30 2900 H 273.773 4.01614 1.14071 0
M  V30 2901 H 275.163 6.36672 -2.14707 0
M  V30 2902 N 277.883 0.443576 1.51229 0
M  V30 2903 C 279.294 -0.0180867 1.86691 0
M  V30 2904 C 279.645 -1.41384 1.36033 0
M  V30 2905 O 278.77 -2.04291 0.713722 0
M  V30 2906 C 279.365 -0.039597 3.38777 0
M  V30 2907 C 277.924 -0.445692 3.73752 0
M  V30 2908 C 277.071 0.357584 2.74985 0
M  V30 2909 H 280.022 0.659138 1.44364 0
M  V30 2910 H 280.043 -0.847761 3.70936 0
M  V30 2911 H 279.555 0.976382 3.75617 0
M  V30 2912 H 277.656 -1.46704 3.42503 0
M  V30 2913 H 277.769 -0.166155 4.78812 0
M  V30 2914 H 276.133 -0.184973 2.54027 0
M  V30 2915 H 276.916 1.37256 3.14668 0
M  V30 2916 N 279.361 -1.56624 0.175154 0
M  V30 2917 C 280.609 -1.96609 -0.467885 0
M  V30 2918 C 280.93 -1.06238 -1.63519 0
M  V30 2919 O 280.2 -0.129523 -1.95471 0
M  V30 2920 H 278.78 -0.726008 -0.175845 0
M  V30 2921 H 281.442 -1.93195 0.257234 0
M  V30 2922 H 280.538 -3.00989 -0.825342 0
M  V30 2923 N 280.839 0.0985539 -1.57292 0
M  V30 2924 C 281.787 1.1387 -2.02821 0
M  V30 2925 C 282.781 1.41676 -0.928666 0
M  V30 2926 O 283.987 1.41398 -1.11385 0
M  V30 2927 H 280.362 0.384419 -0.646317 0
M  V30 2928 H 282.333 0.728347 -2.89375 0
M  V30 2929 C 281.082 2.45166 -2.46554 0
M  V30 2930 H 280.405 2.24613 -3.3074 0
M  V30 2931 H 281.845 3.16456 -2.8219 0
M  V30 2932 C 280.304 3.09216 -1.33742 0
M  V30 2933 O 280.834 3.96163 -0.66464 0
M  V30 2934 N 279.04 2.69413 -1.08928 0
M  V30 2935 H 278.587 1.98801 -1.63817 0
M  V30 2936 H 278.545 3.12594 -0.336458 0
M  V30 2937 N 282.317 1.53212 0.369288 0
M  V30 2938 C 283.545 1.73119 1.13303 0
M  V30 2939 C 283.96 0.458455 1.83149 0
M  V30 2940 O 283.317 -0.568403 1.73423 0
M  V30 2941 C 283.368 2.89413 2.16616 0
M  V30 2942 O 283.089 4.11761 1.49614 0
M  V30 2943 C 284.59 3.21161 3.05566 0
M  V30 2944 H 281.81 0.579107 0.338934 0
M  V30 2945 H 284.354 1.99942 0.429338 0
M  V30 2946 H 282.509 2.64994 2.82589 0
M  V30 2947 H 282.923 4.76858 2.18419 0
M  V30 2948 H 284.397 4.05949 3.74045 0
M  V30 2949 H 284.874 2.36369 3.70171 0
M  V30 2950 H 285.48 3.47492 2.45213 0
M  V30 2951 N 283.795 -0.628877 1.44509 0
M  V30 2952 C 285.044 -1.38437 1.4669 0
M  V30 2953 C 285.357 -1.95322 0.104272 0
M  V30 2954 O 286.563 -2.715 0.00362163 0
M  V30 2955 C 285.019 -2.50659 2.5826 0
M  V30 2956 C 284.627 -2.00277 4.0074 0
M  V30 2957 C 286.371 -3.27844 2.69664 0
M  V30 2958 C 284.278 -3.09854 5.0373 0
M  V30 2959 H 283.208 -0.520245 0.545766 0
M  V30 2960 H 285.859 -0.676313 1.70582 0
M  V30 2961 H 284.241 -3.2405 2.27612 0
M  V30 2962 H 285.415 -1.33736 4.40966 0
M  V30 2963 H 283.73 -1.35901 3.93599 0
M  V30 2964 H 286.327 -4.09534 3.43781 0
M  V30 2965 H 286.67 -3.77471 1.75559 0
M  V30 2966 H 287.203 -2.61543 2.99733 0
M  V30 2967 H 283.942 -2.65168 5.99472 0
M  V30 2968 H 283.462 -3.7503 4.68095 0
M  V30 2969 H 285.141 -3.74592 5.27532 0
M  V30 2970 N 285.273 -1.31445 -0.869486 0
M  V30 2971 C 286.203 -1.21727 -1.99261 0
M  V30 2972 C 287.184 -0.104359 -1.6978 0
M  V30 2973 O 288.369 -0.289038 -1.92037 0
M  V30 2974 C 285.499 -0.924317 -3.34774 0
M  V30 2975 C 284.453 -1.99685 -3.78563 0
M  V30 2976 C 283.779 -1.55658 -5.11541 0
M  V30 2977 C 285.079 -3.41003 -3.95619 0
M  V30 2978 H 286.773 -2.1569 -2.07649 0
M  V30 2979 H 284.319 -1.03839 -0.997675 0
M  V30 2980 H 286.272 -0.842934 -4.12883 0
M  V30 2981 H 284.996 0.0509793 -3.2656 0
M  V30 2982 H 283.655 -2.06813 -3.02694 0
M  V30 2983 H 283.303 -0.569132 -4.9977 0
M  V30 2984 H 283.003 -2.27409 -5.41811 0
M  V30 2985 H 284.527 -1.48928 -5.92159 0
M  V30 2986 H 285.941 -3.36547 -4.64122 0
M  V30 2987 H 284.338 -4.10975 -4.37286 0
M  V30 2988 H 285.408 -3.81754 -2.98985 0
M  V30 2989 N 286.751 1.08385 -1.14413 0
M  V30 2990 C 287.701 2.13509 -0.79987 0
M  V30 2991 C 288.685 1.5951 0.211059 0
M  V30 2992 O 289.877 1.76995 0.0133694 0
M  V30 2993 C 287.006 3.42162 -0.279297 0
M  V30 2994 C 286.092 4.03042 -1.31976 0
M  V30 2995 N 286.483 4.38327 -2.52395 0
M  V30 2996 C 284.781 4.30379 -1.17004 0
M  V30 2997 C 285.482 4.86428 -3.19003 0
M  V30 2998 N 284.458 4.84547 -2.46405 0
M  V30 2999 H 288.26 2.38609 -1.7159 0
M  V30 3000 H 285.774 1.2572 -1.02802 0
M  V30 3001 H 287.771 4.16898 -0.0143688 0
M  V30 3002 H 286.431 3.18511 0.630923 0
M  V30 3003 H 287.442 4.29349 -2.89621 0
M  V30 3004 H 284.119 4.16281 -0.318854 0
M  V30 3005 H 285.509 5.23107 -4.21674 0
M  V30 3006 N 288.23 0.939286 1.26551 0
M  V30 3007 C 289.476 0.586715 1.94128 0
M  V30 3008 C 289.809 -0.8717 1.73537 0
M  V30 3009 O 289.084 -1.62339 1.07127 0
M  V30 3010 C 289.367 0.927497 3.4795 0
M  V30 3011 C 289.22 2.44052 3.77834 0
M  V30 3012 C 290.539 0.441569 4.37879 0
M  V30 3013 H 287.658 0.21463 0.705055 0
M  V30 3014 H 290.3 1.17316 1.49455 0
M  V30 3015 H 288.45 0.428431 3.8613 0
M  V30 3016 H 290.122 3.01216 3.4938 0
M  V30 3017 H 288.365 2.8848 3.23978 0
M  V30 3018 H 289.036 2.62947 4.85348 0
M  V30 3019 H 291.512 0.869448 4.06915 0
M  V30 3020 H 290.388 0.708856 5.44304 0
M  V30 3021 H 290.649 -0.658467 4.37169 0
M  V30 3022 N 289.708 -1.40897 0.706093 0
M  V30 3023 C 290.985 -1.94868 0.169099 0
M  V30 3024 C 291.365 -1.64485 -1.32318 0
M  V30 3025 O 290.713 -0.95744 -2.07474 0
M  V30 3026 C 290.923 -3.45798 0.471654 0
M  V30 3027 C 292.271 -4.22663 0.405127 0
M  V30 3028 O 293.295 -3.53865 0.407168 0
M  V30 3029 O 292.154 -5.45216 0.374383 0
M  V30 3030 H 289.248 -0.82673 0.0211352 0
M  V30 3031 H 291.794 -1.50558 0.782976 0
M  V30 3032 H 290.566 -3.61235 1.50416 0
M  V30 3033 H 290.189 -3.97225 -0.172666 0
M  V30 3034 N 291.186 -0.45159 -1.50991 0
M  V30 3035 C 292.414 0.108334 -2.06616 0
M  V30 3036 C 292.829 1.35224 -1.31757 0
M  V30 3037 O 292.186 1.78475 -0.381174 0
M  V30 3038 C 292.237 0.41619 -3.59096 0
M  V30 3039 O 291.958 -0.778361 -4.3113 0
M  V30 3040 C 293.459 1.02523 -4.31282 0
M  V30 3041 H 290.679 0.00159995 -0.670998 0
M  V30 3042 H 293.223 -0.634771 -1.94399 0
M  V30 3043 H 291.378 1.10921 -3.71181 0
M  V30 3044 H 291.792 -0.511181 -5.22003 0
M  V30 3045 H 293.266 1.19053 -5.39009 0
M  V30 3046 H 293.743 2.01013 -3.905 0
M  V30 3047 H 294.349 0.371173 -4.23677 0
M  V30 3048 N 292.664 1.56529 -0.183458 0
M  V30 3049 C 293.913 1.96419 0.458511 0
M  V30 3050 C 294.226 1.0727 1.63562 0
M  V30 3051 O 295.432 1.36893 2.34462 0
M  V30 3052 C 293.888 3.49298 0.867122 0
M  V30 3053 C 293.496 4.47092 -0.285057 0
M  V30 3054 C 295.24 3.97983 1.47683 0
M  V30 3055 C 293.147 5.91225 0.143862 0
M  V30 3056 H 292.077 0.733394 0.175071 0
M  V30 3057 H 294.728 1.81448 -0.273624 0
M  V30 3058 H 293.11 3.59731 1.65559 0
M  V30 3059 H 294.284 4.48383 -1.0625 0
M  V30 3060 H 292.599 4.08535 -0.805503 0
M  V30 3061 H 295.196 5.03134 1.80999 0
M  V30 3062 H 295.539 3.41618 2.37914 0
M  V30 3063 H 296.072 3.90617 0.752562 0
M  V30 3064 H 292.811 6.5149 -0.723974 0
M  V30 3065 H 292.331 5.93214 0.886413 0
M  V30 3066 H 294.01 6.44362 0.583628 0
M  V30 3067 N 294.142 -0.090211 1.57342 0
M  V30 3068 C 295.372 -0.805055 1.90269 0
M  V30 3069 C 295.78 -1.72561 0.775842 0
M  V30 3070 O 295.123 -1.81839 -0.260843 0
M  V30 3071 C 295.185 -1.66734 3.18497 0
M  V30 3072 C 294.849 -0.918092 4.47683 0
M  V30 3073 C 295.846 -0.245674 5.19319 0
M  V30 3074 C 293.531 -0.890724 4.94339 0
M  V30 3075 C 295.525 0.444088 6.35851 0
M  V30 3076 C 293.212 -0.197179 6.10782 0
M  V30 3077 C 294.21 0.469044 6.81388 0
M  V30 3078 O 293.898 1.15146 7.95611 0
M  V30 3079 H 293.63 -0.235143 0.633785 0
M  V30 3080 H 296.184 -0.0703805 2.05279 0
M  V30 3081 H 294.414 -2.44437 2.99646 0
M  V30 3082 H 296.103 -2.25919 3.37217 0
M  V30 3083 H 296.869 -0.258246 4.84312 0
M  V30 3084 H 292.748 -1.39873 4.39268 0
M  V30 3085 H 296.292 0.964667 6.90898 0
M  V30 3086 H 292.189 -0.18247 6.45242 0
M  V30 3087 H 292.957 1.05885 8.11622 0
M  V30 3088 N 295.62 -1.53406 -0.361157 0
M  V30 3089 C 296.568 -1.80832 -1.46296 0
M  V30 3090 C 297.562 -0.677699 -1.55253 0
M  V30 3091 O 298.768 -0.860723 -1.58087 0
M  V30 3092 H 295.143 -0.572627 -0.487445 0
M  V30 3093 H 297.114 -2.73045 -1.20371 0
M  V30 3094 C 295.863 -2.01907 -2.8307 0
M  V30 3095 H 295.186 -2.88349 -2.76938 0
M  V30 3096 H 296.626 -2.25072 -3.59331 0
M  V30 3097 C 295.085 -0.799449 -3.27277 0
M  V30 3098 O 295.615 0.00971761 -4.01699 0
M  V30 3099 N 293.821 -0.621637 -2.83873 0
M  V30 3100 H 293.368 -1.28126 -2.23476 0
M  V30 3101 H 293.326 0.19298 -3.13807 0
M  V30 3102 N 297.098 0.621204 -1.44841 0
M  V30 3103 C 298.514 0.94048 -1.28946 0
M  V30 3104 C 298.714 2.00154 -0.23249 0
M  V30 3105 O 297.77 2.49651 0.378237 0
M  V30 3106 C 299.083 1.39433 -2.66419 0
M  V30 3107 C 300.631 1.50927 -2.74208 0
M  V30 3108 C 301.106 1.99692 -4.12174 0
M  V30 3109 N 302.597 2.06947 -4.144 0
M  V30 3110 C 303.332 2.45871 -5.1801 0
M  V30 3111 N 302.828 2.83862 -6.31977 0
M  V30 3112 N 304.621 2.46092 -5.05366 0
M  V30 3113 H 296.772 -0.0803548 -2.12248 0
M  V30 3114 H 299.035 0.0266913 -0.947624 0
M  V30 3115 H 298.741 0.688925 -3.44887 0
M  V30 3116 H 298.615 2.36347 -2.93973 0
M  V30 3117 H 301.002 2.20561 -1.96053 0
M  V30 3118 H 301.083 0.523627 -2.50383 0
M  V30 3119 H 300.727 1.30649 -4.90809 0
M  V30 3120 H 300.657 2.99146 -4.33381 0
M  V30 3121 H 303.148 1.80232 -3.32152 0
M  V30 3122 H 303.461 3.12405 -7.0684 0
M  V30 3123 H 301.806 2.8159 -6.35399 0
M  V30 3124 H 304.997 2.1581 -4.15384 0
M  V30 3125 H 305.17 2.76102 -5.86235 0
M  V30 3126 N 298.576 1.31904 0.862503 0
M  V30 3127 C 299.987 1.19803 1.43193 0
M  V30 3128 C 300.338 -0.192567 1.95253 0
M  V30 3129 O 299.463 -1.09081 1.86896 0
M  V30 3130 C 300.058 2.16883 2.60283 0
M  V30 3131 C 298.617 2.08692 3.13248 0
M  V30 3132 C 297.764 2.05691 1.85975 0
M  V30 3133 H 300.715 1.43846 0.670365 0
M  V30 3134 H 300.736 1.76278 3.37204 0
M  V30 3135 H 300.248 3.18083 2.22363 0
M  V30 3136 H 298.349 1.10713 3.55771 0
M  V30 3137 H 298.462 2.9815 3.75025 0
M  V30 3138 H 296.826 1.50814 2.05249 0
M  V30 3139 H 297.609 3.08659 1.50282 0
M  V30 3140 N 300.054 -1.07777 1.14986 0
M  V30 3141 C 301.279 -1.84558 0.946213 0
M  V30 3142 C 301.704 -1.81323 -0.500362 0
M  V30 3143 O 301.062 -1.20301 -1.35637 0
M  V30 3144 C 301.11 -3.29736 1.45968 0
M  V30 3145 O 300.214 -4.07149 0.65601 0
M  V30 3146 H 299.555 -0.571641 0.33782 0
M  V30 3147 H 302.085 -1.35991 1.52865 0
M  V30 3148 H 302.095 -3.80574 1.47063 0
M  V30 3149 H 300.77 -3.31406 2.51283 0
M  V30 3150 H 299.347 -3.65994 0.714322 0
M  V30 3151 N 301.532 -0.945985 -1.26051 0
M  V30 3152 C 302.48 -0.450259 -2.282 0
M  V30 3153 C 303.474 0.47497 -1.62605 0
M  V30 3154 O 304.68 0.352653 -1.76512 0
M  V30 3155 H 301.055 -0.127081 -0.741184 0
M  V30 3156 H 303.026 -1.32422 -2.67408 0
M  V30 3157 C 301.775 0.26467 -3.46691 0
M  V30 3158 H 301.098 -0.438123 -3.97392 0
M  V30 3159 H 302.538 0.575678 -4.20074 0
M  V30 3160 C 300.997 1.48416 -3.02447 0
M  V30 3161 O 301.527 2.58227 -3.07704 0
M  V30 3162 N 299.733 1.34243 -2.57735 0
M  V30 3163 H 299.28 0.448994 -2.53657 0
M  V30 3164 H 299.238 2.15957 -2.28495 0
M  V30 3165 N 303.011 1.40521 -0.713556 0
M  V30 3166 C 304.239 2.05237 -0.261775 0
M  V30 3167 C 304.654 1.53755 1.09567 0
M  V30 3168 O 304.011 0.693268 1.6882 0
M  V30 3169 C 304.062 3.60763 -0.230706 0
M  V30 3170 O 303.783 4.10345 -1.53455 0
M  V30 3171 C 305.284 4.42651 0.239874 0
M  V30 3172 H 302.504 0.660533 -0.118057 0
M  V30 3173 H 305.048 1.79967 -0.971192 0
M  V30 3174 H 303.203 3.8501 0.429661 0
M  V30 3175 H 303.617 5.04526 -1.43366 0
M  V30 3176 H 305.091 5.51599 0.210468 0
M  V30 3177 H 305.568 4.20082 1.28171 0
M  V30 3178 H 306.174 4.23507 -0.390142 0
M  V30 3179 N 304.489 0.459591 1.5075 0
M  V30 3180 C 305.717 -0.0973749 2.06671 0
M  V30 3181 C 306.132 -1.34524 1.32472 0
M  V30 3182 O 305.489 -1.7827 0.390634 0
M  V30 3183 C 305.54 -0.39714 3.59312 0
M  V30 3184 O 305.261 0.801214 4.30711 0
M  V30 3185 C 306.762 -1.00234 4.31819 0
M  V30 3186 H 303.982 0.00195854 0.670997 0
M  V30 3187 H 306.526 0.645072 1.94059 0
M  V30 3188 H 304.681 -1.08951 3.71764 0
M  V30 3189 H 305.095 0.538857 5.21725 0
M  V30 3190 H 306.569 -1.16193 5.39632 0
M  V30 3191 H 307.046 -1.98939 3.91561 0
M  V30 3192 H 307.652 -0.348699 4.23868 0
M  V30 3193 N 305.967 -1.56429 0.191757 0
M  V30 3194 C 307.195 -2.01867 -0.453586 0
M  V30 3195 C 307.61 -1.07191 -1.5542 0
M  V30 3196 O 306.967 -0.0762108 -1.82341 0
M  V30 3197 C 307.018 -3.47017 -1.013 0
M  V30 3198 O 306.739 -4.38078 0.0437005 0
M  V30 3199 C 308.24 -4.07956 -1.73456 0
M  V30 3200 H 305.46 -0.661211 -0.114199 0
M  V30 3201 H 308.004 -2.02295 0.299483 0
M  V30 3202 H 306.159 -3.47298 -1.71647 0
M  V30 3203 H 306.573 -5.23178 -0.372212 0
M  V30 3204 H 308.047 -5.1138 -2.07833 0
M  V30 3205 H 308.524 -3.51222 -2.63704 0
M  V30 3206 H 309.13 -4.11437 -1.07702 0
M  V30 3207 N 307.445 0.0818655 -1.57387 0
M  V30 3208 C 308.355 1.11642 -2.06333 0
M  V30 3209 C 309.371 1.43033 -0.99083 0
M  V30 3210 O 310.547 1.53411 -1.30488 0
M  V30 3211 C 307.612 2.41342 -2.48907 0
M  V30 3212 C 306.673 2.17014 -3.7041 0
M  V30 3213 C 305.906 3.4053 -4.10944 0
M  V30 3214 O 306.129 4.4927 -3.51444 0
M  V30 3215 O 305.063 3.29336 -5.03807 0
M  V30 3216 H 308.889 0.730657 -2.9478 0
M  V30 3217 H 306.474 0.295301 -1.46452 0
M  V30 3218 H 308.356 3.17691 -2.76858 0
M  V30 3219 H 307.031 2.79319 -1.63593 0
M  V30 3220 H 305.938 1.38403 -3.47556 0
M  V30 3221 H 307.271 1.83923 -4.56545 0
M  V30 3222 N 308.923 1.53595 0.353017 0
M  V30 3223 C 310.172 1.69603 1.09168 0
M  V30 3224 C 310.485 0.460925 1.90092 0
M  V30 3225 O 311.691 0.501774 2.66823 0
M  V30 3226 C 310.147 2.99872 1.9901 0
M  V30 3227 C 309.755 4.30687 1.23339 0
M  V30 3228 C 311.499 3.25246 2.72792 0
M  V30 3229 C 309.406 5.52036 2.12156 0
M  V30 3230 H 308.336 0.631966 0.411261 0
M  V30 3231 H 310.987 1.80096 0.351802 0
M  V30 3232 H 309.369 2.83212 2.7678 0
M  V30 3233 H 310.543 4.58019 0.505456 0
M  V30 3234 H 308.858 4.11853 0.613663 0
M  V30 3235 H 311.455 4.13095 3.39495 0
M  V30 3236 H 311.798 2.41846 3.38846 0
M  V30 3237 H 312.331 3.42638 2.021 0
M  V30 3238 H 309.07 6.37951 1.50659 0
M  V30 3239 H 308.59 5.28966 2.82764 0
M  V30 3240 H 310.269 5.87313 2.71427 0
M  V30 3241 N 310.401 -0.613514 1.45168 0
M  V30 3242 C 311.647 -1.37279 1.50087 0
M  V30 3243 C 312.002 -1.91902 0.138294 0
M  V30 3244 O 311.295 -1.71764 -0.84899 0
M  V30 3245 C 311.489 -2.54347 2.51083 0
M  V30 3246 C 311.318 -2.11186 3.97027 0
M  V30 3247 C 310.088 -1.97636 4.65046 0
M  V30 3248 C 312.286 -1.69016 4.85735 0
M  V30 3249 N 310.268 -1.48224 5.95737 0
M  V30 3250 C 311.639 -1.30976 6.06008 0
M  V30 3251 C 313.694 -1.56555 4.72647 0
M  V30 3252 C 312.397 -0.817197 7.14643 0
M  V30 3253 C 314.423 -1.08702 5.81324 0
M  V30 3254 C 313.785 -0.716233 7.00749 0
M  V30 3255 H 309.884 -0.496478 0.60418 0
M  V30 3256 H 312.468 -0.701988 1.81605 0
M  V30 3257 H 310.639 -3.19031 2.21527 0
M  V30 3258 H 312.371 -3.21208 2.46187 0
M  V30 3259 H 309.126 -2.18638 4.20112 0
M  V30 3260 H 309.55 -1.25767 6.65216 0
M  V30 3261 H 314.192 -1.83849 3.80736 0
M  V30 3262 H 311.91 -0.531797 8.06348 0
M  V30 3263 H 315.496 -0.994943 5.7323 0
M  V30 3264 H 314.376 -0.351642 7.83411 0
M  V30 3265 N 311.879 -1.3236 -0.855495 0
M  V30 3266 C 313.107 -1.2587 -1.64208 0
M  V30 3267 C 313.522 0.173457 -1.88002 0
M  V30 3268 O 312.879 1.11027 -1.44842 0
M  V30 3269 C 312.93 -2.01424 -3.00184 0
M  V30 3270 O 312.651 -3.39051 -2.77445 0
M  V30 3271 C 314.152 -2.01948 -3.94629 0
M  V30 3272 H 311.372 -0.434318 -0.511477 0
M  V30 3273 H 313.916 -1.74469 -1.0668 0
M  V30 3274 H 312.071 -1.56549 -3.5436 0
M  V30 3275 H 312.485 -3.77711 -3.63916 0
M  V30 3276 H 313.959 -2.59297 -4.87308 0
M  V30 3277 H 314.436 -1.00554 -4.27534 0
M  V30 3278 H 315.042 -2.46767 -3.4639 0
M  V30 3279 N 313.357 1.07166 -1.15556 0
M  V30 3280 C 314.287 2.16403 -0.877046 0
M  V30 3281 C 315.268 1.69217 0.173111 0
M  V30 3282 O 316.453 1.94181 0.027084 0
M  V30 3283 C 313.583 3.45349 -0.367632 0
M  V30 3284 C 312.537 4.05995 -1.35468 0
M  V30 3285 C 311.863 5.30045 -0.704038 0
M  V30 3286 C 313.163 4.45804 -2.72132 0
M  V30 3287 H 314.857 2.39959 -1.79053 0
M  V30 3288 H 312.403 1.15325 -0.862331 0
M  V30 3289 H 314.356 4.21095 -0.160317 0
M  V30 3290 H 313.08 3.21385 0.581326 0
M  V30 3291 H 311.739 3.32296 -1.54839 0
M  V30 3292 H 311.387 5.02373 0.251128 0
M  V30 3293 H 311.087 5.71579 -1.36277 0
M  V30 3294 H 312.611 6.08495 -0.50654 0
M  V30 3295 H 314.025 5.12671 -2.56595 0
M  V30 3296 H 312.422 4.98296 -3.34397 0
M  V30 3297 H 313.492 3.57083 -3.28054 0
M  V30 3298 N 314.835 0.952656 1.25548 0
M  V30 3299 C 316.246 0.647392 1.75116 0
M  V30 3300 C 316.597 -0.837274 1.77438 0
M  V30 3301 O 315.722 -1.65525 1.39393 0
M  V30 3302 C 316.317 1.16845 3.18014 0
M  V30 3303 C 314.876 0.913382 3.6515 0
M  V30 3304 C 314.023 1.31265 2.44264 0
M  V30 3305 H 316.974 1.12968 1.11462 0
M  V30 3306 H 316.995 0.527606 3.76824 0
M  V30 3307 H 316.507 2.24902 3.16292 0
M  V30 3308 H 314.608 -0.152316 3.72289 0
M  V30 3309 H 314.721 1.54845 4.53387 0
M  V30 3310 H 313.085 0.731028 2.43984 0
M  V30 3311 H 313.868 2.40239 2.45234 0
M  V30 3312 N 316.313 -1.40141 0.720998 0
M  V30 3313 C 317.245 -2.29177 0.0324669 0
M  V30 3314 C 318.258 -1.46105 -0.718126 0
M  V30 3315 O 319.447 -1.69335 -0.564608 0
M  V30 3316 C 316.547 -3.24473 -0.978292 0
M  V30 3317 C 315.72 -4.36423 -0.292115 0
M  V30 3318 C 314.779 -5.12122 -1.20901 0
M  V30 3319 O 313.805 -5.64981 -0.691766 0
M  V30 3320 N 315.007 -5.21992 -2.53978 0
M  V30 3321 H 317.772 -2.88909 0.796984 0
M  V30 3322 H 315.333 -1.51569 0.569068 0
M  V30 3323 H 317.325 -3.71987 -1.59398 0
M  V30 3324 H 315.895 -2.65871 -1.64413 0
M  V30 3325 H 315.115 -3.90967 0.503847 0
M  V30 3326 H 316.403 -5.08467 0.183971 0
M  V30 3327 H 315.801 -4.8054 -2.98493 0
M  V30 3328 H 314.358 -5.72995 -3.10677 0
M  V30 3329 N 317.792 -0.46758 -1.50504 0
M  V30 3330 C 319.038 0.0887532 -2.02606 0
M  V30 3331 C 319.371 1.39686 -1.34913 0
M  V30 3332 O 318.646 1.88644 -0.473694 0
M  V30 3333 C 318.929 0.276206 -3.59039 0
M  V30 3334 C 318.782 -1.05267 -4.37309 0
M  V30 3335 C 320.101 1.03235 -4.27821 0
M  V30 3336 H 317.22 0.0307814 -0.736357 0
M  V30 3337 H 319.862 -0.612485 -1.79857 0
M  V30 3338 H 318.012 0.8735 -3.78553 0
M  V30 3339 H 319.684 -1.68628 -4.29374 0
M  V30 3340 H 317.927 -1.65015 -4.01189 0
M  V30 3341 H 318.598 -0.875197 -5.45018 0
M  V30 3342 H 321.074 0.526111 -4.12761 0
M  V30 3343 H 319.95 1.1323 -5.37094 0
M  V30 3344 H 320.211 2.06806 -3.90748 0
M  V30 3345 N 319.27 1.56325 -0.20005 0
M  V30 3346 C 320.2 2.22318 0.713916 0
M  V30 3347 C 321.181 1.18788 1.21752 0
M  V30 3348 O 322.366 1.47309 1.26545 0
M  V30 3349 C 319.496 2.88639 1.93144 0
M  V30 3350 C 318.45 3.98457 1.56255 0
M  V30 3351 C 317.776 4.51967 2.85709 0
M  V30 3352 C 319.076 5.16612 0.768747 0
M  V30 3353 H 320.77 2.98952 0.163755 0
M  V30 3354 H 318.316 1.43792 0.0773219 0
M  V30 3355 H 320.269 3.33491 2.57608 0
M  V30 3356 H 318.993 2.09419 2.50621 0
M  V30 3357 H 317.652 3.54305 0.941471 0
M  V30 3358 H 317.3 3.69503 3.41287 0
M  V30 3359 H 317 5.26071 2.6177 0
M  V30 3360 H 318.524 4.99523 3.51154 0
M  V30 3361 H 319.938 5.57977 1.3166 0
M  V30 3362 H 318.335 5.96812 0.627286 0
M  V30 3363 H 319.405 4.84358 -0.229168 0
M  V30 3364 N 320.748 -0.0735177 1.57428 0
M  V30 3365 C 321.996 -0.771472 1.86796 0
M  V30 3366 C 322.317 -1.78201 0.791804 0
M  V30 3367 O 321.587 -1.95074 -0.179718 0
M  V30 3368 H 320.167 -0.28791 0.689287 0
M  V30 3369 H 322.829 -0.0500161 1.94836 0
M  V30 3370 H 321.925 -1.28874 2.8425 0
M  V30 3371 N 322.226 -1.5378 -0.344866 0
M  V30 3372 C 323.136 -1.84667 -1.4469 0
M  V30 3373 C 324.152 -0.736704 -1.57635 0
M  V30 3374 O 325.328 -1.02888 -1.73136 0
M  V30 3375 C 322.393 -2.04869 -2.79696 0
M  V30 3376 C 321.454 -3.28731 -2.76106 0
M  V30 3377 C 320.687 -3.4796 -4.04673 0
M  V30 3378 O 320.91 -2.71052 -5.01883 0
M  V30 3379 O 319.844 -4.41383 -4.09224 0
M  V30 3380 H 323.67 -2.78334 -1.21506 0
M  V30 3381 H 321.255 -1.39418 -0.536921 0
M  V30 3382 H 323.137 -2.19609 -3.59652 0
M  V30 3383 H 321.812 -1.14391 -3.02814 0
M  V30 3384 H 320.719 -3.19396 -1.94774 0
M  V30 3385 H 322.052 -4.19198 -2.57941 0
M  V30 3386 N 323.704 0.605807 -1.45491 0
M  V30 3387 C 325.12 0.926751 -1.29936 0
M  V30 3388 C 325.32 1.99896 -0.253706 0
M  V30 3389 O 324.376 2.50038 0.351737 0
M  V30 3390 C 325.689 1.36599 -2.67883 0
M  V30 3391 C 327.237 1.4801 -2.75793 0
M  V30 3392 C 327.712 1.95309 -4.14268 0
M  V30 3393 N 329.203 2.0254 -4.16571 0
M  V30 3394 C 329.938 2.40363 -5.20589 0
M  V30 3395 N 329.434 2.77143 -6.34952 0
M  V30 3396 N 331.227 2.40718 -5.07948 0
M  V30 3397 H 323.378 -0.102862 -2.12151 0
M  V30 3398 H 325.641 0.016639 -0.947854 0
M  V30 3399 H 325.347 0.652306 -3.45598 0
M  V30 3400 H 325.221 2.33215 -2.96463 0
M  V30 3401 H 327.608 2.1847 -1.98381 0
M  V30 3402 H 327.689 0.497041 -2.50925 0
M  V30 3403 H 327.333 1.25436 -4.92167 0
M  V30 3404 H 327.263 2.94532 -4.3653 0
M  V30 3405 H 329.754 1.76699 -3.34045 0
M  V30 3406 H 330.067 3.0489 -7.10114 0
M  V30 3407 H 328.412 2.74834 -6.3835 0
M  V30 3408 H 331.603 2.11392 -4.1765 0
M  V30 3409 H 331.776 2.69869 -5.89131 0
M  V30 3410 N 325.182 1.32811 0.848464 0
M  V30 3411 C 326.412 1.26556 1.63301 0
M  V30 3412 C 326.82 -0.1676 1.88456 0
M  V30 3413 O 326.163 -1.11713 1.45828 0
M  V30 3414 C 326.225 1.96202 3.01239 0
M  V30 3415 C 325.889 3.45528 2.99098 0
M  V30 3416 C 326.886 4.40903 2.75501 0
M  V30 3417 C 324.571 3.87558 3.19537 0
M  V30 3418 C 326.565 5.76282 2.72356 0
M  V30 3419 C 324.252 5.23044 3.16019 0
M  V30 3420 C 325.25 6.17217 2.92458 0
M  V30 3421 O 324.938 7.50223 2.88825 0
M  V30 3422 H 324.67 0.43771 0.515156 0
M  V30 3423 H 327.224 1.7559 1.0657 0
M  V30 3424 H 325.454 1.41746 3.59785 0
M  V30 3425 H 327.143 1.83573 3.62016 0
M  V30 3426 H 327.909 4.09756 2.5947 0
M  V30 3427 H 323.788 3.14674 3.369 0
M  V30 3428 H 327.332 6.4976 2.53886 0
M  V30 3429 H 323.229 5.53818 3.31596 0
M  V30 3430 H 323.997 7.59657 3.04735 0
M  V30 3431 N 326.66 -1.06551 1.16123 0
M  V30 3432 C 327.908 -1.78947 0.939267 0
M  V30 3433 C 328.229 -1.87532 -0.534476 0
M  V30 3434 O 327.499 -1.38211 -1.38833 0
M  V30 3435 H 326.079 -0.662807 0.344523 0
M  V30 3436 H 328.741 -1.28725 1.46342 0
M  V30 3437 H 327.837 -2.81117 1.35572 0
M  V30 3438 N 328.138 -0.959301 -1.25041 0
M  V30 3439 C 329.101 -0.487677 -2.23952 0
M  V30 3440 C 330.101 0.41119 -1.55454 0
M  V30 3441 O 331.291 0.207825 -1.72956 0
M  V30 3442 C 328.423 0.294807 -3.39623 0
M  V30 3443 H 329.616 -1.36198 -2.67189 0
M  V30 3444 H 327.169 -0.743042 -1.37508 0
M  V30 3445 H 327.904 1.18658 -3.01813 0
M  V30 3446 H 327.689 -0.35012 -3.90534 0
M  V30 3447 H 329.179 0.614089 -4.1306 0
M  V30 3448 N 329.616 1.39756 -0.72842 0
M  V30 3449 C 330.893 1.94574 -0.200079 0
M  V30 3450 C 331.273 1.66569 1.29684 0
M  V30 3451 O 330.621 0.990326 2.05924 0
M  V30 3452 C 330.831 3.45004 -0.526608 0
M  V30 3453 C 332.179 4.21965 -0.472318 0
M  V30 3454 O 333.203 3.53173 -0.463413 0
M  V30 3455 O 332.062 5.44552 -0.461075 0
M  V30 3456 H 329.156 0.826289 -0.0342851 0
M  V30 3457 H 331.702 1.49293 -0.806829 0
M  V30 3458 H 330.474 3.58796 -1.56144 0
M  V30 3459 H 330.097 3.97449 0.109449 0
M  V30 3460 N 331.094 0.475555 1.50254 0
M  V30 3461 C 332.041 -0.316293 2.28622 0
M  V30 3462 C 333.011 -0.983227 1.33873 0
M  V30 3463 O 334.196 -0.994805 1.62814 0
M  V30 3464 C 331.336 -1.38975 3.1588 0
M  V30 3465 C 330.449 -0.737146 4.25664 0
M  V30 3466 C 329.584 -1.78887 5.00173 0
M  V30 3467 C 328.623 -1.11676 6.01826 0
M  V30 3468 N 327.76 -2.11154 6.69596 0
M  V30 3469 H 332.6 0.358297 2.95838 0
M  V30 3470 H 330.137 0.188541 1.45887 0
M  V30 3471 H 332.095 -2.02383 3.64825 0
M  V30 3472 H 330.725 -2.03344 2.50701 0
M  V30 3473 H 329.777 0.0096065 3.80399 0
M  V30 3474 H 331.089 -0.206816 4.98371 0
M  V30 3475 H 330.243 -2.49865 5.52859 0
M  V30 3476 H 328.982 -2.35302 4.27182 0
M  V30 3477 H 327.987 -0.392633 5.48396 0
M  V30 3478 H 329.212 -0.55945 6.76792 0
M  V30 3479 H 327.158 -2.66577 5.99394 0
M  V30 3480 H 327.075 -1.63118 7.38193 0
M  V30 3481 H 328.343 -2.81497 7.26897 0
M  V30 3482 N 332.573 -1.56217 0.208337 0
M  V30 3483 C 333.85 -1.89739 -0.475234 0
M  V30 3484 C 334.23 -1.1238 -1.78701 0
M  V30 3485 O 333.578 -0.228979 -2.2735 0
M  V30 3486 C 333.788 -3.42289 -0.681101 0
M  V30 3487 C 335.136 -4.12789 -0.994507 0
M  V30 3488 O 336.16 -3.47814 -0.768357 0
M  V30 3489 O 335.019 -5.27649 -1.42299 0
M  V30 3490 H 332.113 -0.788478 -0.249461 0
M  V30 3491 H 334.659 -1.67855 0.249538 0
M  V30 3492 H 333.431 -3.90534 0.244722 0
M  V30 3493 H 333.054 -3.69909 -1.45785 0
M  V30 3494 N 334.051 0.0651679 -1.57465 0
M  V30 3495 C 335.297 0.764193 -1.87851 0
M  V30 3496 C 335.63 1.76889 -0.801495 0
M  V30 3497 O 334.905 1.93594 0.187528 0
M  V30 3498 C 335.188 1.46625 -3.28897 0
M  V30 3499 C 335.041 0.477515 -4.47258 0
M  V30 3500 C 336.36 2.4095 -3.68281 0
M  V30 3501 H 333.479 0.276351 -0.683227 0
M  V30 3502 H 336.121 0.0272868 -1.8998 0
M  V30 3503 H 334.271 2.09438 -3.27212 0
M  V30 3504 H 335.943 -0.145922 -4.61069 0
M  V30 3505 H 334.186 -0.206576 -4.33308 0
M  V30 3506 H 334.857 1.0065 -5.42746 0
M  V30 3507 H 337.333 1.88209 -3.71102 0
M  V30 3508 H 336.209 2.87072 -4.67847 0
M  V30 3509 H 336.47 3.26049 -2.98571 0
M  V30 3510 N 335.529 1.53961 0.336706 0
M  V30 3511 C 336.775 1.7179 1.07777 0
M  V30 3512 C 337.108 0.483263 1.88091 0
M  V30 3513 O 336.383 -0.519747 1.87427 0
M  V30 3514 C 336.666 2.98558 2.01334 0
M  V30 3515 C 336.519 4.32245 1.24437 0
M  V30 3516 C 337.838 3.21023 3.01052 0
M  V30 3517 H 334.957 0.625089 0.390426 0
M  V30 3518 H 337.599 1.86641 0.35567 0
M  V30 3519 H 335.749 2.86028 2.62908 0
M  V30 3520 H 337.421 4.56637 0.654243 0
M  V30 3521 H 335.664 4.30344 0.546458 0
M  V30 3522 H 336.335 5.17137 1.93063 0
M  V30 3523 H 338.811 3.32929 2.49595 0
M  V30 3524 H 337.687 4.11104 3.6371 0
M  V30 3525 H 337.948 2.37637 3.72802 0
M  V30 3526 N 337.007 -0.598083 1.45811 0
M  V30 3527 C 338.253 -1.35882 1.50545 0
M  V30 3528 C 338.586 -1.93616 0.150445 0
M  V30 3529 O 337.861 -1.75604 -0.83628 0
M  V30 3530 C 338.144 -2.49966 2.59208 0
M  V30 3531 C 337.997 -1.97367 4.04186 0
M  V30 3532 C 339.316 -3.52068 2.64076 0
M  V30 3533 H 336.435 -0.492717 0.548087 0
M  V30 3534 H 339.077 -0.673319 1.77669 0
M  V30 3535 H 337.227 -3.08443 2.3621 0
M  V30 3536 H 338.899 -1.43466 4.38423 0
M  V30 3537 H 337.142 -1.283 4.14393 0
M  V30 3538 H 337.813 -2.79649 4.75921 0
M  V30 3539 H 340.289 -3.03448 2.84708 0
M  V30 3540 H 339.165 -4.2937 3.41954 0
M  V30 3541 H 339.426 -4.08304 1.69531 0
M  V30 3542 N 338.485 -1.33259 -0.841409 0
M  V30 3543 C 339.415 -1.25926 -1.96634 0
M  V30 3544 C 340.396 -0.140349 -1.6952 0
M  V30 3545 O 341.581 -0.329707 -1.91381 0
M  V30 3546 C 338.711 -0.99512 -3.32738 0
M  V30 3547 C 337.665 -2.0767 -3.74242 0
M  V30 3548 C 336.991 -1.66474 -5.08125 0
M  V30 3549 C 338.291 -3.49318 -3.88297 0
M  V30 3550 H 339.985 -2.20046 -2.03027 0
M  V30 3551 H 337.531 -1.05931 -0.975425 0
M  V30 3552 H 339.484 -0.930323 -4.11002 0
M  V30 3553 H 338.208 -0.0183004 -3.26595 0
M  V30 3554 H 336.867 -2.13187 -2.98239 0
M  V30 3555 H 336.515 -0.675012 -4.9845 0
M  V30 3556 H 336.215 -2.3885 -5.36865 0
M  V30 3557 H 337.739 -1.61455 -5.88867 0
M  V30 3558 H 339.153 -3.46316 -4.56879 0
M  V30 3559 H 337.55 -4.20158 -4.28471 0
M  V30 3560 H 338.62 -3.8801 -2.9082 0
M  V30 3561 N 339.963 1.05934 -1.16686 0
M  V30 3562 C 341.191 1.8249 -0.974929 0
M  V30 3563 C 341.606 1.82679 0.476861 0
M  V30 3564 O 340.963 1.2486 1.33103 0
M  V30 3565 C 341.014 3.28943 -1.49929 0
M  V30 3566 O 340.735 3.28886 -2.89423 0
M  V30 3567 C 342.236 4.22215 -1.35089 0
M  V30 3568 H 339.456 0.575295 -0.345365 0
M  V30 3569 H 342 1.33631 -1.548 0
M  V30 3570 H 340.155 3.751 -0.968423 0
M  V30 3571 H 340.569 4.20493 -3.13506 0
M  V30 3572 H 342.043 5.22987 -1.76603 0
M  V30 3573 H 342.52 4.38195 -0.296935 0
M  V30 3574 H 343.126 3.81907 -1.87155 0
M  V30 3575 N 341.441 0.965919 1.2453 0
M  V30 3576 C 342.666 0.643971 1.97149 0
M  V30 3577 C 343.091 -0.779487 1.71189 0
M  V30 3578 O 342.449 -1.5288 0.974553 0
M  V30 3579 C 342.497 0.922557 3.48599 0
M  V30 3580 O 341.601 0.00707672 4.12399 0
M  V30 3581 H 340.942 0.243647 0.617683 0
M  V30 3582 H 343.472 1.29558 1.58353 0
M  V30 3583 H 343.482 0.853373 3.98976 0
M  V30 3584 H 342.157 1.95996 3.66822 0
M  V30 3585 H 340.734 0.12943 3.72675 0
M  V30 3586 N 342.919 -1.39368 0.735821 0
M  V30 3587 C 344.144 -2.05319 0.293052 0
M  V30 3588 C 344.569 -1.55115 -1.064 0
M  V30 3589 O 343.927 -0.695261 -1.67439 0
M  V30 3590 C 343.975 -3.59305 0.305323 0
M  V30 3591 O 343.079 -4.06299 -0.706761 0
M  V30 3592 H 342.42 -0.650529 0.13307 0
M  V30 3593 H 344.95 -1.78386 1.00197 0
M  V30 3594 H 344.96 -4.07724 0.149997 0
M  V30 3595 H 343.635 -3.95207 1.29553 0
M  V30 3596 H 342.212 -3.69292 -0.517504 0
M  V30 3597 N 344.397 -0.483516 -1.5 0
M  V30 3598 C 345.329 0.340634 -2.26655 0
M  V30 3599 C 346.342 0.946152 -1.32483 0
M  V30 3600 O 347.531 0.832453 -1.579 0
M  V30 3601 C 344.631 1.4929 -3.04246 0
M  V30 3602 C 343.804 0.997903 -4.25865 0
M  V30 3603 C 342.863 2.02569 -4.85646 0
M  V30 3604 O 341.889 1.60128 -5.46212 0
M  V30 3605 N 343.091 3.3548 -4.73744 0
M  V30 3606 H 345.856 -0.316577 -2.98023 0
M  V30 3607 H 343.417 -0.315024 -1.58806 0
M  V30 3608 H 345.409 2.17766 -3.41116 0
M  V30 3609 H 343.979 2.05458 -2.35597 0
M  V30 3610 H 343.199 0.138617 -3.93956 0
M  V30 3611 H 344.487 0.645305 -5.04691 0
M  V30 3612 H 343.885 3.72661 -4.25605 0
M  V30 3613 H 342.442 3.99718 -5.14848 0
M  V30 3614 N 345.875 1.56104 -0.216619 0
M  V30 3615 C 347.103 2.02563 0.421413 0
M  V30 3616 C 347.518 1.0965 1.53695 0
M  V30 3617 O 346.875 0.10521 1.82196 0
M  V30 3618 C 346.926 3.48584 0.957665 0
M  V30 3619 O 346.647 4.37953 -0.113389 0
M  V30 3620 C 348.148 4.10664 1.66943 0
M  V30 3621 H 345.368 0.662944 0.103665 0
M  V30 3622 H 347.912 2.01793 -0.331629 0
M  V30 3623 H 346.067 3.49985 1.661 0
M  V30 3624 H 346.481 5.23704 0.288932 0
M  V30 3625 H 347.955 5.14622 1.99671 0
M  V30 3626 H 348.432 3.55373 2.58083 0
M  V30 3627 H 349.038 4.13098 1.01142 0
M  V30 3628 N 347.353 -0.0568162 1.57498 0
M  V30 3629 C 348.769 -0.411933 1.54192 0
M  V30 3630 C 348.969 -1.78287 0.938942 0
M  V30 3631 O 348.025 -2.46483 0.547919 0
M  V30 3632 C 349.338 -0.339244 2.9878 0
M  V30 3633 C 350.886 -0.418348 3.10192 0
M  V30 3634 C 351.361 -0.375407 4.56459 0
M  V30 3635 N 352.852 -0.435038 4.61153 0
M  V30 3636 C 353.587 -0.424265 5.71828 0
M  V30 3637 N 353.083 -0.367418 6.91825 0
M  V30 3638 N 354.876 -0.471938 5.60115 0
M  V30 3639 H 347.027 0.840684 1.95055 0
M  V30 3640 H 349.29 0.316987 0.893433 0
M  V30 3641 H 348.996 0.601742 3.46514 0
M  V30 3642 H 348.87 -1.14371 3.59443 0
M  V30 3643 H 351.257 -1.34976 2.62422 0
M  V30 3644 H 351.338 0.414962 2.52412 0
M  V30 3645 H 350.982 0.552219 5.04889 0
M  V30 3646 H 350.912 -1.22645 5.12119 0
M  V30 3647 H 353.403 -0.482612 3.74806 0
M  V30 3648 H 353.716 -0.363535 7.71944 0
M  V30 3649 H 352.061 -0.333879 6.94198 0
M  V30 3650 H 355.252 -0.514145 4.65268 0
M  V30 3651 H 355.425 -0.460073 6.46365 0
M  V30 3652 N 348.832 -1.54138 -0.328536 0
M  V30 3653 C 350.08 -1.71765 -1.06496 0
M  V30 3654 C 350.401 -0.49149 -1.88704 0
M  V30 3655 O 349.671 0.494539 -1.89555 0
M  V30 3656 H 348.251 -0.633295 -0.396164 0
M  V30 3657 H 350.913 -1.91429 -0.366176 0
M  V30 3658 H 350.009 -2.5951 -1.73381 0
M  V30 3659 N 350.31 0.590341 -1.46126 0
M  V30 3660 C 351.556 1.35082 -1.51264 0
M  V30 3661 C 351.889 1.93534 -0.160711 0
M  V30 3662 O 351.164 1.76045 0.826956 0
M  V30 3663 C 351.447 2.48588 -2.6053 0
M  V30 3664 C 351.3 1.95221 -4.05227 0
M  V30 3665 C 352.619 3.50662 -2.6594 0
M  V30 3666 H 349.738 0.489803 -0.550692 0
M  V30 3667 H 352.38 0.663887 -1.78024 0
M  V30 3668 H 350.53 3.07186 -2.37843 0
M  V30 3669 H 352.202 1.41139 -4.39178 0
M  V30 3670 H 350.445 1.26101 -4.15068 0
M  V30 3671 H 351.116 2.77121 -4.77397 0
M  V30 3672 H 353.592 3.01934 -2.86313 0
M  V30 3673 H 352.468 4.27551 -3.44226 0
M  V30 3674 H 352.729 4.07399 -1.71694 0
M  V30 3675 N 351.788 1.33704 0.83433 0
M  V30 3676 C 352.751 1.24244 1.92603 0
M  V30 3677 C 353.751 0.160383 1.59998 0
M  V30 3678 O 354.941 0.412228 1.69252 0
M  V30 3679 C 352.073 0.91555 3.28376 0
M  V30 3680 H 353.266 2.21287 2.02416 0
M  V30 3681 H 350.819 1.17827 1.02696 0
M  V30 3682 H 351.554 -0.0521886 3.24258 0
M  V30 3683 H 351.339 1.69811 3.53422 0
M  V30 3684 H 352.829 0.874231 4.08347 0
M  V30 3685 N 353.266 -1.05314 1.17247 0
M  V30 3686 C 354.176 -2.16538 0.90268 0
M  V30 3687 C 355.192 -1.73523 -0.128707 0
M  V30 3688 O 356.368 -2.01337 0.0502701 0
M  V30 3689 C 353.433 -3.44167 0.418356 0
M  V30 3690 C 352.494 -4.01635 1.51618 0
M  V30 3691 C 351.727 -5.23171 1.05487 0
M  V30 3692 O 351.95 -5.70327 -0.0914715 0
M  V30 3693 O 350.884 -5.72848 1.8474 0
M  V30 3694 H 354.71 -2.42145 1.83302 0
M  V30 3695 H 352.295 -1.15037 0.953246 0
M  V30 3696 H 354.177 -4.21112 0.155726 0
M  V30 3697 H 352.852 -3.20063 -0.48385 0
M  V30 3698 H 351.759 -3.26135 1.83268 0
M  V30 3699 H 353.092 -4.30053 2.39405 0
M  V30 3700 N 354.744 -0.972509 -1.24016 0
M  V30 3701 C 356.021 -0.553733 -1.87598 0
M  V30 3702 C 356.401 0.969158 -1.87538 0
M  V30 3703 O 355.749 1.84255 -1.35139 0
M  V30 3704 C 355.959 -1.15076 -3.29482 0
M  V30 3705 C 357.307 -1.23862 -4.06132 0
M  V30 3706 O 358.331 -1.10363 -3.38672 0
M  V30 3707 O 357.19 -1.45252 -5.26844 0
M  V30 3708 H 354.284 -0.185331 -0.805966 0
M  V30 3709 H 356.83 -1.06709 -1.31952 0
M  V30 3710 H 355.602 -2.19333 -3.2405 0
M  V30 3711 H 355.225 -0.621746 -3.92709 0
M  V30 3712 N 356.222 1.38976 -0.743202 0
M  V30 3713 C 357.471 1.99581 -0.291592 0
M  V30 3714 C 357.784 1.59656 1.13001 0
M  V30 3715 O 358.99 2.13157 1.68156 0
M  V30 3716 C 357.446 3.56813 -0.470391 0
M  V30 3717 C 357.054 4.05695 -1.90041 0
M  V30 3718 C 358.798 4.24423 -0.0809709 0
M  V30 3719 C 356.705 5.5553 -2.02832 0
M  V30 3720 H 355.635 0.746615 -0.105272 0
M  V30 3721 H 358.286 1.58872 -0.918258 0
M  V30 3722 H 356.668 3.95359 0.225299 0
M  V30 3723 H 357.842 3.78464 -2.62872 0
M  V30 3724 H 356.157 3.50775 -2.24379 0
M  V30 3725 H 358.754 5.34474 -0.155445 0
M  V30 3726 H 359.097 4.04962 0.96497 0
M  V30 3727 H 359.63 3.9108 -0.728124 0
M  V30 3728 H 356.369 5.79881 -3.05643 0
M  V30 3729 H 355.889 5.84537 -1.34448 0
M  V30 3730 H 357.568 6.21069 -1.81335 0
M  V30 3731 N 357.7 0.491464 1.49741 0
M  V30 3732 C 358.663 -0.280906 2.27472 0
M  V30 3733 C 359.663 -0.902454 1.33088 0
M  V30 3734 O 360.853 -0.768465 1.56334 0
M  V30 3735 C 357.985 -1.40209 3.10732 0
M  V30 3736 H 359.178 0.401056 2.97206 0
M  V30 3737 H 356.731 0.246131 1.5435 0
M  V30 3738 H 357.466 -2.11849 2.45541 0
M  V30 3739 H 357.251 -0.961969 3.80117 0
M  V30 3740 H 358.741 -1.9464 3.69466 0
M  V30 3741 N 359.178 -1.55987 0.224894 0
M  V30 3742 C 360.128 -2.17076 -0.697296 0
M  V30 3743 C 361.112 -1.12006 -1.15514 0
M  V30 3744 O 362.304 -1.37985 -1.10857 0
M  V30 3745 C 359.433 -2.85679 -1.90374 0
M  V30 3746 C 358.519 -3.97977 -1.46543 0
M  V30 3747 N 358.91 -5.00359 -0.739909 0
M  V30 3748 C 357.208 -4.10128 -1.75245 0
M  V30 3749 C 357.909 -5.79407 -0.515939 0
M  V30 3750 N 356.885 -5.32892 -1.07364 0
M  V30 3751 H 360.687 -2.93592 -0.134594 0
M  V30 3752 H 358.201 -1.62379 0.0262885 0
M  V30 3753 H 360.198 -3.27857 -2.57518 0
M  V30 3754 H 358.858 -2.1066 -2.47088 0
M  V30 3755 H 359.869 -5.16412 -0.392253 0
M  V30 3756 H 356.546 -3.46263 -2.33255 0
M  V30 3757 H 357.936 -6.71872 0.0617349 0
M  V30 3758 N 360.656 0.0484629 -1.57525 0
M  V30 3759 C 361.905 0.742065 -1.87553 0
M  V30 3760 C 362.218 1.77545 -0.820802 0
M  V30 3761 O 363.424 2.52027 -1.00967 0
M  V30 3762 C 361.88 1.37081 -3.32771 0
M  V30 3763 C 361.488 0.374786 -4.4643 0
M  V30 3764 C 363.232 2.04542 -3.71972 0
M  V30 3765 C 361.139 1.01077 -5.82698 0
M  V30 3766 H 360.069 0.280903 -0.699721 0
M  V30 3767 H 362.72 -0.00411877 -1.835 0
M  V30 3768 H 361.102 2.16605 -3.31509 0
M  V30 3769 H 362.276 -0.392331 -4.59127 0
M  V30 3770 H 360.591 -0.196653 -4.15935 0
M  V30 3771 H 363.188 2.52943 -4.71088 0
M  V30 3772 H 363.531 2.85515 -3.02964 0
M  V30 3773 H 364.064 1.31819 -3.75325 0
M  V30 3774 H 360.803 0.240878 -6.55057 0
M  V30 3775 H 360.323 1.74819 -5.73758 0
M  V30 3776 H 362.002 1.52383 -6.28799 0
M  V30 3777 N 362.134 1.5431 0.320358 0
M  V30 3778 C 363.064 1.86912 1.3995 0
M  V30 3779 C 364.045 0.726211 1.53819 0
M  V30 3780 O 365.23 0.980233 1.67646 0
M  V30 3781 C 362.36 2.09932 2.7667 0
M  V30 3782 C 361.314 3.25776 2.77586 0
M  V30 3783 C 360.64 3.34173 4.17412 0
M  V30 3784 C 361.94 4.6335 2.41048 0
M  V30 3785 H 363.634 2.77292 1.12914 0
M  V30 3786 H 361.18 1.33421 0.541738 0
M  V30 3787 H 363.133 2.31324 3.52232 0
M  V30 3788 H 361.857 1.16304 3.0519 0
M  V30 3789 H 360.516 3.04276 2.04479 0
M  V30 3790 H 360.164 2.38098 4.43078 0
M  V30 3791 H 359.864 4.12033 4.18931 0
M  V30 3792 H 361.388 3.57803 4.94782 0
M  V30 3793 H 362.802 4.84602 3.06324 0
M  V30 3794 H 361.199 5.43782 2.53813 0
M  V30 3795 H 362.269 4.65381 1.36193 0
M  V30 3796 N 363.613 -0.582584 1.46437 0
M  V30 3797 C 364.56 -1.69164 1.5701 0
M  V30 3798 C 365.53 -1.60847 0.414403 0
M  V30 3799 O 366.715 -1.80058 0.631171 0
M  V30 3800 C 363.855 -3.075 1.56646 0
M  V30 3801 C 362.968 -3.2644 2.82951 0
M  V30 3802 C 362.103 -4.55026 2.7409 0
M  V30 3803 C 361.142 -4.6731 3.95333 0
M  V30 3804 N 360.279 -5.87221 3.84858 0
M  V30 3805 H 365.119 -1.59464 2.51744 0
M  V30 3806 H 362.656 -0.777186 1.24893 0
M  V30 3807 H 364.614 -3.8757 1.5442 0
M  V30 3808 H 363.244 -3.16096 0.654439 0
M  V30 3809 H 362.296 -2.39974 2.95155 0
M  V30 3810 H 363.608 -3.31385 3.72808 0
M  V30 3811 H 362.762 -5.43324 2.6997 0
M  V30 3812 H 361.501 -4.52519 1.81873 0
M  V30 3813 H 360.506 -3.77429 3.99784 0
M  V30 3814 H 361.731 -4.71595 4.88646 0
M  V30 3815 H 359.677 -5.85712 2.95427 0
M  V30 3816 H 359.594 -5.93435 4.6837 0
M  V30 3817 H 360.862 -6.7795 3.84713 0
M  V30 3818 N 365.091 -1.34144 -0.827227 0
M  V30 3819 C 366.023 -1.21206 -1.9453 0
M  V30 3820 C 367.036 -0.140176 -1.62195 0
M  V30 3821 O 368.225 -0.391647 -1.7415 0
M  V30 3822 C 365.325 -0.839141 -3.28347 0
M  V30 3823 C 364.498 -2.0051 -3.88734 0
M  V30 3824 C 363.557 -1.61128 -5.00923 0
M  V30 3825 O 362.583 -2.32726 -5.19449 0
M  V30 3826 N 363.785 -0.522958 -5.7814 0
M  V30 3827 H 366.55 -2.17525 -2.06162 0
M  V30 3828 H 364.111 -1.27043 -1.00358 0
M  V30 3829 H 366.103 -0.557556 -4.00841 0
M  V30 3830 H 364.673 0.0337293 -3.12582 0
M  V30 3831 H 363.893 -2.45166 -3.08686 0
M  V30 3832 H 365.181 -2.78498 -4.25812 0
M  V30 3833 H 364.579 0.0723518 -5.65654 0
M  V30 3834 H 363.136 -0.301089 -6.51104 0
M  V30 3835 N 366.569 1.04691 -1.17803 0
M  V30 3836 C 367.502 2.12068 -0.842765 0
M  V30 3837 C 368.48 1.61455 0.192608 0
M  V30 3838 O 369.664 1.88359 0.072995 0
M  V30 3839 C 366.791 3.37715 -0.258063 0
M  V30 3840 C 365.837 4.07164 -1.26962 0
M  V30 3841 S 366.67 4.55047 -2.82299 0
M  V30 3842 C 367.826 5.83935 -2.25323 0
M  V30 3843 H 368.059 2.4018 -1.75217 0
M  V30 3844 H 365.592 1.17366 -1.00323 0
M  V30 3845 H 367.55 4.10435 0.0727935 0
M  V30 3846 H 366.211 3.0773 0.629357 0
M  V30 3847 H 365.404 4.9746 -0.809263 0
M  V30 3848 H 365.006 3.40533 -1.54639 0
M  V30 3849 H 367.298 6.57552 -1.63192 0
M  V30 3850 H 368.241 6.34725 -3.13894 0
M  V30 3851 H 368.649 5.3874 -1.68582 0
M  V30 3852 N 368.047 0.979072 1.23499 0
M  V30 3853 C 369.463 0.687475 1.44034 0
M  V30 3854 C 369.663 -0.746801 1.8715 0
M  V30 3855 O 368.719 -1.51939 2.0167 0
M  V30 3856 C 370.032 1.68127 2.49307 0
M  V30 3857 C 371.58 1.69516 2.63122 0
M  V30 3858 C 372.055 2.67723 3.71603 0
M  V30 3859 N 373.546 2.66233 3.79044 0
M  V30 3860 C 374.281 3.38891 4.62537 0
M  V30 3861 N 373.777 4.21103 5.50131 0
M  V30 3862 N 375.57 3.27661 4.56721 0
M  V30 3863 H 367.721 1.90559 0.938135 0
M  V30 3864 H 369.984 0.821051 0.473897 0
M  V30 3865 H 369.69 2.70693 2.2454 0
M  V30 3866 H 369.564 1.46306 3.4767 0
M  V30 3867 H 371.951 0.676561 2.8724 0
M  V30 3868 H 372.032 1.95404 1.65079 0
M  V30 3869 H 371.676 3.69724 3.48233 0
M  V30 3870 H 371.606 2.39111 4.69184 0
M  V30 3871 H 374.097 2.06568 3.16446 0
M  V30 3872 H 374.41 4.73403 6.10827 0
M  V30 3873 H 372.755 4.25195 5.49759 0
M  V30 3874 H 375.946 2.62887 3.87309 0
M  V30 3875 H 376.119 3.84547 5.21562 0
M  V30 3876 N 369.525 -1.3858 0.750561 0
M  V30 3877 C 370.941 -1.53759 0.427824 0
M  V30 3878 C 371.141 -1.71401 -1.05943 0
M  V30 3879 O 370.197 -1.72331 -1.84549 0
M  V30 3880 C 371.51 -2.74642 1.22443 0
M  V30 3881 C 373.058 -2.88489 1.2142 0
M  V30 3882 C 373.533 -4.12329 1.9937 0
M  V30 3883 N 375.024 -4.194 1.96616 0
M  V30 3884 C 375.759 -5.14209 2.53727 0
M  V30 3885 N 375.255 -6.14709 3.19539 0
M  V30 3886 N 377.048 -5.06537 2.43673 0
M  V30 3887 H 369.199 -1.25377 1.71447 0
M  V30 3888 H 371.462 -0.608844 0.726645 0
M  V30 3889 H 371.168 -2.68 2.27747 0
M  V30 3890 H 371.042 -3.67745 0.839273 0
M  V30 3891 H 373.429 -2.94614 0.169232 0
M  V30 3892 H 373.51 -1.96406 1.63885 0
M  V30 3893 H 373.154 -4.06966 3.03877 0
M  V30 3894 H 373.084 -5.03486 1.54302 0
M  V30 3895 H 375.575 -3.47421 1.48684 0
M  V30 3896 H 375.888 -6.8354 3.60545 0
M  V30 3897 H 374.233 -6.1505 3.23633 0
M  V30 3898 H 377.424 -4.26962 1.91889 0
M  V30 3899 H 377.597 -5.80245 2.88479 0
M  V30 3900 N 371.003 -0.499398 -1.49478 0
M  V30 3901 C 371.966 0.268838 -2.27618 0
M  V30 3902 C 372.966 0.895383 -1.33565 0
M  V30 3903 O 374.156 0.760164 -1.56739 0
M  V30 3904 C 371.288 1.38559 -3.11471 0
M  V30 3905 H 372.481 -0.416812 -2.96989 0
M  V30 3906 H 370.034 -0.254313 -1.54217 0
M  V30 3907 H 370.769 2.10544 -2.46661 0
M  V30 3908 H 370.554 0.941797 -3.80621 0
M  V30 3909 H 372.044 1.92678 -3.70493 0
M  V30 3910 N 372.481 1.55866 -0.233164 0
M  V30 3911 C 373.73 1.97779 0.39579 0
M  V30 3912 C 374.043 1.12419 1.60066 0
M  V30 3913 O 375.249 1.44283 2.29988 0
M  V30 3914 C 373.705 3.5188 0.755556 0
M  V30 3915 C 373.313 4.45959 -0.427152 0
M  V30 3916 C 375.057 4.02479 1.34946 0
M  V30 3917 C 372.964 5.91383 -0.0443043 0
M  V30 3918 H 371.894 0.738592 0.15165 0
M  V30 3919 H 374.545 1.80486 -0.331212 0
M  V30 3920 H 372.927 3.64816 1.5403 0
M  V30 3921 H 374.101 4.44776 -1.20462 0
M  V30 3922 H 372.416 4.05765 -0.935068 0
M  V30 3923 H 375.013 5.08637 1.649 0
M  V30 3924 H 375.356 3.49014 2.26925 0
M  V30 3925 H 375.889 3.92813 0.62791 0
M  V30 3926 H 372.628 6.48857 -0.930874 0
M  V30 3927 H 372.148 5.95734 0.697238 0
M  V30 3928 H 373.827 6.45893 0.378334 0
M  V30 3929 N 373.959 -0.0401083 1.57549 0
M  V30 3930 C 375.205 -0.734211 1.89043 0
M  V30 3931 C 375.538 -1.75591 0.829535 0
M  V30 3932 O 374.813 -1.93868 -0.156706 0
M  V30 3933 C 375.096 -1.41374 3.31188 0
M  V30 3934 C 374.949 -0.406299 4.47961 0
M  V30 3935 C 376.268 -2.35061 3.72068 0
M  V30 3936 H 373.387 -0.265447 0.687537 0
M  V30 3937 H 376.029 0.00294087 1.9 0
M  V30 3938 H 374.179 -2.04206 3.30503 0
M  V30 3939 H 375.851 0.219255 4.60779 0
M  V30 3940 H 374.094 0.275485 4.32924 0
M  V30 3941 H 374.765 -0.920022 5.44279 0
M  V30 3942 H 377.241 -1.82282 3.74049 0
M  V30 3943 H 376.117 -2.79593 4.72355 0
M  V30 3944 H 376.378 -3.21258 3.0372 0
M  V30 3945 N 375.437 -1.54477 -0.31217 0
M  V30 3946 C 376.683 -1.73483 -1.0503 0
M  V30 3947 C 377.016 -0.513125 -1.87298 0
M  V30 3948 O 376.291 0.489864 -1.8823 0
M  V30 3949 C 376.574 -3.01723 -1.96558 0
M  V30 3950 C 376.427 -4.3417 -1.17545 0
M  V30 3951 C 377.746 -3.25772 -2.95907 0
M  V30 3952 H 374.865 -0.631222 -0.380432 0
M  V30 3953 H 377.507 -1.87184 -0.325932 0
M  V30 3954 H 375.657 -2.90174 -2.58324 0
M  V30 3955 H 377.329 -4.5762 -0.581513 0
M  V30 3956 H 375.572 -4.31159 -0.477925 0
M  V30 3957 H 376.243 -5.20143 -1.84811 0
M  V30 3958 H 378.719 -3.36857 -2.44267 0
M  V30 3959 H 377.595 -4.16838 -3.57123 0
M  V30 3960 H 377.856 -2.43537 -3.68974 0
M  V30 3961 N 376.915 0.57481 -1.46744 0
M  V30 3962 C 378.163 1.33009 -1.52161 0
M  V30 3963 C 378.484 1.94185 -0.178092 0
M  V30 3964 O 377.754 1.7899 0.796196 0
M  V30 3965 H 376.334 0.493873 -0.560445 0
M  V30 3966 H 378.996 0.672589 -1.82927 0
M  V30 3967 H 378.092 2.13273 -2.27862 0
M  V30 3968 N 378.394 1.34581 0.820102 0
M  V30 3969 C 379.304 1.28471 1.96297 0
M  V30 3970 C 380.32 0.191902 1.72939 0
M  V30 3971 O 381.496 0.418879 1.96996 0
M  V30 3972 C 378.561 1.04281 3.30645 0
M  V30 3973 C 377.622 2.22745 3.66992 0
M  V30 3974 C 376.855 1.997 4.9493 0
M  V30 3975 O 377.078 0.956656 5.6232 0
M  V30 3976 O 376.012 2.86723 5.2922 0
M  V30 3977 H 379.838 2.24624 2.04396 0
M  V30 3978 H 377.423 1.14816 0.955913 0
M  V30 3979 H 379.305 0.925841 4.11104 0
M  V30 3980 H 377.98 0.111697 3.23507 0
M  V30 3981 H 376.887 2.40003 2.86966 0
M  V30 3982 H 378.22 3.14257 3.78819 0
M  V30 3983 N 379.872 -1.04064 1.18357 0
M  V30 3984 C 381.288 -1.2947 0.933258 0
M  V30 3985 C 381.488 -1.97466 -0.401169 0
M  V30 3986 O 380.544 -2.25528 -1.13549 0
M  V30 3987 C 381.857 -2.15337 2.09882 0
M  V30 3988 C 383.405 -2.28683 2.13712 0
M  V30 3989 C 383.88 -3.17917 3.29686 0
M  V30 3990 N 385.371 -3.25504 3.29547 0
M  V30 3991 C 386.106 -3.94706 4.15926 0
M  V30 3992 N 385.602 -4.66239 5.12439 0
M  V30 3993 N 387.395 -3.90986 4.0384 0
M  V30 3994 H 379.546 -0.583359 2.04232 0
M  V30 3995 H 381.809 -0.319921 0.892387 0
M  V30 3996 H 381.515 -1.72682 3.06389 0
M  V30 3997 H 381.389 -3.16015 2.05947 0
M  V30 3998 H 383.776 -2.70575 1.17784 0
M  V30 3999 H 383.857 -1.27596 2.21705 0
M  V30 4000 H 383.501 -2.76736 4.25887 0
M  V30 4001 H 383.431 -4.19036 3.1893 0
M  V30 4002 H 385.922 -2.74547 2.59677 0
M  V30 4003 H 386.235 -5.16638 5.74722 0
M  V30 4004 H 384.58 -4.65143 5.16398 0
M  V30 4005 H 387.771 -3.34234 3.27727 0
M  V30 4006 H 387.944 -4.44646 4.71375 0
M  V30 4007 N 381.35 -0.985608 -1.22978 0
M  V30 4008 C 382.578 -0.675582 -1.95559 0
M  V30 4009 C 382.993 0.758413 -1.72897 0
M  V30 4010 O 382.35 1.51094 -1.02357 0
M  V30 4011 C 382.401 -0.96293 -3.48439 0
M  V30 4012 O 382.122 -2.34057 -3.70336 0
M  V30 4013 C 383.623 -0.669585 -4.38214 0
M  V30 4014 H 380.843 -0.250523 -0.622478 0
M  V30 4015 H 383.387 -1.3184 -1.56328 0
M  V30 4016 H 381.542 -0.366033 -3.85667 0
M  V30 4017 H 381.956 -2.43424 -4.64591 0
M  V30 4018 H 383.43 -0.920967 -5.44263 0
M  V30 4019 H 383.907 0.396383 -4.37408 0
M  V30 4020 H 384.513 -1.2472 -4.06602 0
M  V30 4021 N 382.828 1.3818 -0.7579 0
M  V30 4022 C 384.076 1.99624 -0.315361 0
M  V30 4023 C 384.397 1.60464 1.10799 0
M  V30 4024 O 383.667 0.863507 1.75842 0
M  V30 4025 H 382.247 0.73831 -0.113611 0
M  V30 4026 H 384.909 1.68878 -0.972952 0
M  V30 4027 H 384.005 3.09754 -0.381931 0
M  V30 4028 N 384.306 0.507319 1.49211 0
M  V30 4029 C 385.554 -0.0348839 2.0207 0
M  V30 4030 C 385.875 -1.36898 1.38866 0
M  V30 4031 O 385.145 -1.88133 0.546151 0
M  V30 4032 H 383.725 -0.0158812 0.746831 0
M  V30 4033 H 386.387 0.665998 1.83168 0
M  V30 4034 H 385.483 -0.159917 3.1169 0
M  V30 4035 N 385.784 -1.5574 0.241426 0
M  V30 4036 C 387.032 -1.98417 -0.384075 0
M  V30 4037 C 387.353 -1.13078 -1.58866 0
M  V30 4038 O 386.623 -0.212312 -1.94746 0
M  V30 4039 H 385.203 -0.732813 -0.144894 0
M  V30 4040 H 387.865 -1.9193 0.338943 0
M  V30 4041 H 386.961 -3.04219 -0.696939 0
M  V30 4042 N 387.262 0.0317525 -1.57568 0
M  V30 4043 C 388.225 1.01783 -2.0536 0
M  V30 4044 C 389.225 1.29203 -0.957253 0
M  V30 4045 O 390.415 1.24251 -1.22095 0
M  V30 4046 C 387.547 2.35137 -2.46827 0
M  V30 4047 H 388.74 0.605062 -2.93733 0
M  V30 4048 H 386.293 0.278514 -1.53799 0
M  V30 4049 H 387.028 2.81168 -1.61602 0
M  V30 4050 H 386.813 2.16566 -3.26866 0
M  V30 4051 H 388.303 3.05938 -2.84239 0
M  V30 4052 N 388.74 1.54641 0.303973 0
M  V30 4053 C 389.67 1.88386 1.3796 0
M  V30 4054 C 390.651 0.742485 1.5304 0
M  V30 4055 O 391.836 0.997959 1.66597 0
M  V30 4056 C 388.966 2.12854 2.74427 0
M  V30 4057 C 387.92 3.28702 2.74115 0
M  V30 4058 C 387.246 3.38582 4.13844 0
M  V30 4059 C 388.546 4.65881 2.3612 0
M  V30 4060 H 390.24 2.78474 1.09966 0
M  V30 4061 H 387.786 1.33988 0.527556 0
M  V30 4062 H 389.739 2.35047 3.49758 0
M  V30 4063 H 388.463 1.19535 3.03939 0
M  V30 4064 H 387.122 3.06428 2.0124 0
M  V30 4065 H 386.77 2.42784 4.40528 0
M  V30 4066 H 386.47 4.16453 4.14537 0
M  V30 4067 H 387.994 3.63031 4.90959 0
M  V30 4068 H 389.408 4.87823 3.01167 0
M  V30 4069 H 387.805 5.46444 2.48031 0
M  V30 4070 H 388.875 4.66799 1.3125 0
M  V30 4071 N 390.218 -0.567019 1.47046 0
M  V30 4072 C 391.495 -1.3276 1.43646 0
M  V30 4073 C 391.875 -2.1071 0.128186 0
M  V30 4074 O 391.223 -2.10441 -0.890326 0
M  V30 4075 C 391.433 -2.2404 2.67595 0
M  V30 4076 C 392.781 -2.85372 3.14401 0
M  V30 4077 O 393.805 -2.34346 2.68254 0
M  V30 4078 O 392.664 -3.78091 3.946 0
M  V30 4079 H 389.758 -0.597293 0.571988 0
M  V30 4080 H 392.304 -0.586735 1.59234 0
M  V30 4081 H 391.076 -1.65975 3.54356 0
M  V30 4082 H 390.699 -3.05439 2.54544 0
M  V30 4083 N 391.696 -1.35014 -0.812953 0
M  V30 4084 C 392.626 -1.30069 -1.93919 0
M  V30 4085 C 393.607 -0.176275 -1.69184 0
M  V30 4086 O 394.792 -0.370227 -1.90638 0
M  V30 4087 C 391.922 -1.06547 -3.30552 0
M  V30 4088 C 390.876 -2.15561 -3.69753 0
M  V30 4089 C 390.202 -1.77214 -5.04479 0
M  V30 4090 C 391.502 -3.57476 -3.808 0
M  V30 4091 H 393.196 -2.24303 -1.98314 0
M  V30 4092 H 390.742 -1.07977 -0.952736 0
M  V30 4093 H 392.695 -1.01729 -4.08937 0
M  V30 4094 H 391.419 -0.0875719 -3.26483 0
M  V30 4095 H 390.078 -2.19466 -2.9365 0
M  V30 4096 H 389.726 -0.780589 -4.96906 0
M  V30 4097 H 389.426 -2.50184 -5.31678 0
M  V30 4098 H 390.95 -1.7391 -5.8531 0
M  V30 4099 H 392.364 -3.55929 -4.4943 0
M  V30 4100 H 390.761 -4.29152 -4.19462 0
M  V30 4101 H 391.831 -3.94091 -2.82525 0
M  V30 4102 N 393.175 1.03435 -1.18907 0
M  V30 4103 C 394.591 1.28973 -0.940111 0
M  V30 4104 C 394.791 1.97676 0.390691 0
M  V30 4105 O 393.847 2.26127 1.12352 0
M  V30 4106 C 395.16 2.14221 -2.11021 0
M  V30 4107 C 396.708 2.27547 -2.14922 0
M  V30 4108 C 397.183 3.16164 -3.31367 0
M  V30 4109 N 398.674 3.23752 -3.31269 0
M  V30 4110 C 399.409 3.92495 -4.18014 0
M  V30 4111 N 398.905 4.63515 -5.14904 0
M  V30 4112 N 400.698 3.88838 -4.05908 0
M  V30 4113 H 392.849 0.57252 -2.04538 0
M  V30 4114 H 395.112 0.315184 -0.894071 0
M  V30 4115 H 394.818 1.71054 -3.073 0
M  V30 4116 H 394.692 3.14919 -2.0762 0
M  V30 4117 H 397.079 2.69947 -1.19217 0
M  V30 4118 H 397.16 1.26418 -2.22378 0
M  V30 4119 H 396.804 2.74474 -4.27348 0
M  V30 4120 H 396.734 4.17339 -3.21148 0
M  V30 4121 H 399.225 2.73167 -2.61129 0
M  V30 4122 H 399.538 5.13583 -5.77453 0
M  V30 4123 H 397.883 4.62398 -5.18857 0
M  V30 4124 H 401.074 3.32491 -3.29495 0
M  V30 4125 H 401.247 4.4214 -4.73726 0
M  V30 4126 N 394.653 0.992116 1.22453 0
M  V30 4127 C 395.6 0.541731 2.24352 0
M  V30 4128 C 396.57 -0.425519 1.60557 0
M  V30 4129 O 397.755 -0.330453 1.87917 0
M  V30 4130 C 394.895 -0.138248 3.44823 0
M  V30 4131 C 394.008 0.870649 4.23136 0
M  V30 4132 C 393.143 0.164269 5.30946 0
M  V30 4133 C 392.182 1.16159 6.00977 0
M  V30 4134 N 391.319 0.483568 7.00433 0
M  V30 4135 H 396.159 1.41541 2.62241 0
M  V30 4136 H 393.696 0.709013 1.28885 0
M  V30 4137 H 395.654 -0.5494 4.13567 0
M  V30 4138 H 394.284 -0.975721 3.077 0
M  V30 4139 H 393.336 1.40013 3.53696 0
M  V30 4140 H 394.648 1.63014 4.7141 0
M  V30 4141 H 393.802 -0.303653 6.0594 0
M  V30 4142 H 392.541 -0.627733 4.83643 0
M  V30 4143 H 391.546 1.64015 5.24766 0
M  V30 4144 H 392.771 1.95445 6.50368 0
M  V30 4145 H 390.717 -0.289012 6.55363 0
M  V30 4146 H 390.634 1.18152 7.4671 0
M  V30 4147 H 391.902 0.0384219 7.79491 0
M  V30 4148 N 396.131 -1.37776 0.765217 0
M  V30 4149 C 397.061 -2.32945 0.160953 0
M  V30 4150 C 398.042 -1.55454 -0.690516 0
M  V30 4151 O 399.227 -1.83721 -0.629318 0
M  V30 4152 C 396.357 -3.39669 -0.724031 0
M  V30 4153 C 395.311 -4.27992 0.0256173 0
M  V30 4154 C 394.637 -5.25673 -0.978383 0
M  V30 4155 C 395.937 -5.08309 1.20082 0
M  V30 4156 H 397.631 -2.83728 0.955969 0
M  V30 4157 H 395.177 -1.36416 0.461149 0
M  V30 4158 H 397.13 -4.05219 -1.15652 0
M  V30 4159 H 395.854 -2.87396 -1.5515 0
M  V30 4160 H 394.513 -3.63964 0.438812 0
M  V30 4161 H 394.161 -4.69682 -1.80022 0
M  V30 4162 H 393.861 -5.85625 -0.481378 0
M  V30 4163 H 395.385 -5.94098 -1.40995 0
M  V30 4164 H 396.799 -5.67034 0.845307 0
M  V30 4165 H 395.196 -5.77554 1.62947 0
M  V30 4166 H 396.266 -4.41365 2.00811 0
M  V30 4167 N 397.609 -0.515225 -1.4894 0
M  V30 4168 C 399.025 -0.172099 -1.58669 0
M  V30 4169 C 399.225 1.32405 -1.51892 0
M  V30 4170 O 398.281 2.10116 -1.40027 0
M  V30 4171 C 399.594 -0.761533 -2.90897 0
M  V30 4172 C 401.142 -0.728926 -3.04394 0
M  V30 4173 C 401.617 -1.29667 -4.39261 0
M  V30 4174 N 403.108 -1.25799 -4.4579 0
M  V30 4175 C 403.843 -1.66733 -5.48623 0
M  V30 4176 N 403.339 -2.15327 -6.58488 0
M  V30 4177 N 405.132 -1.58061 -5.39419 0
M  V30 4178 H 397.283 -1.48778 -1.51588 0
M  V30 4179 H 399.546 -0.617968 -0.718901 0
M  V30 4180 H 399.252 -1.81136 -3.01468 0
M  V30 4181 H 399.126 -0.230106 -3.76497 0
M  V30 4182 H 401.513 0.312098 -2.93445 0
M  V30 4183 H 401.594 -1.29766 -2.20442 0
M  V30 4184 H 401.238 -2.33655 -4.50963 0
M  V30 4185 H 401.168 -0.703752 -5.21876 0
M  V30 4186 H 403.659 -0.902102 -3.66975 0
M  V30 4187 H 403.972 -2.44594 -7.33071 0
M  V30 4188 H 402.317 -2.19311 -6.59491 0
M  V30 4189 H 405.508 -1.19906 -4.52482 0
M  V30 4190 H 405.681 -1.90284 -6.19432 0
M  V30 4191 N 399.087 1.5561 -0.249682 0
M  V30 4192 C 400.336 1.98187 0.37479 0
M  V30 4193 C 400.649 1.14111 1.58865 0
M  V30 4194 O 401.855 1.46714 2.28445 0
M  V30 4195 C 400.311 3.52661 0.718192 0
M  V30 4196 C 399.919 4.45481 -0.474428 0
M  V30 4197 C 401.663 4.03888 1.3067 0
M  V30 4198 C 399.57 5.91303 -0.107026 0
M  V30 4199 H 398.5 0.740159 0.143808 0
M  V30 4200 H 401.151 1.80125 -0.350336 0
M  V30 4201 H 399.533 3.66429 1.50152 0
M  V30 4202 H 400.707 4.43473 -1.25172 0
M  V30 4203 H 399.022 4.04751 -0.978052 0
M  V30 4204 H 401.619 5.10358 1.59496 0
M  V30 4205 H 401.962 3.51401 2.23211 0
M  V30 4206 H 402.495 3.93457 0.586211 0
M  V30 4207 H 399.234 6.47833 -0.999642 0
M  V30 4208 H 398.754 5.9644 0.634013 0
M  V30 4209 H 400.433 6.46258 0.309807 0
M  V30 4210 N 400.565 -0.0233959 1.57583 0
M  V30 4211 C 401.813 -0.711654 1.89156 0
M  V30 4212 C 402.134 -1.75591 0.848096 0
M  V30 4213 O 401.404 -1.95547 -0.117566 0
M  V30 4214 H 399.984 -0.265835 0.698098 0
M  V30 4215 H 402.646 0.0119948 1.94896 0
M  V30 4216 H 401.742 -1.19766 2.88206 0
M  V30 4217 N 402.043 -1.548 -0.295768 0
M  V30 4218 C 402.953 -1.89177 -1.38742 0
M  V30 4219 C 403.969 -0.786481 -1.55211 0
M  V30 4220 O 405.145 -1.08344 -1.69775 0
M  V30 4221 C 402.21 -2.13663 -2.73036 0
M  V30 4222 C 401.271 -3.37349 -2.65508 0
M  V30 4223 C 400.504 -3.60658 -3.93398 0
M  V30 4224 O 400.727 -2.86882 -4.93006 0
M  V30 4225 O 399.661 -4.54179 -3.94975 0
M  V30 4226 H 403.487 -2.82059 -1.12589 0
M  V30 4227 H 401.072 -1.41056 -0.492295 0
M  V30 4228 H 402.954 -2.3094 -3.52484 0
M  V30 4229 H 401.629 -1.23967 -2.99022 0
M  V30 4230 H 400.536 -3.25431 -1.84514 0
M  V30 4231 H 401.869 -4.27192 -2.44474 0
M  V30 4232 N 403.521 0.559213 -1.47345 0
M  V30 4233 C 404.746 1.34676 -1.57725 0
M  V30 4234 C 405.171 1.86723 -0.227164 0
M  V30 4235 O 404.529 1.6286 0.796642 0
M  V30 4236 C 404.577 2.49399 -2.60447 0
M  V30 4237 O 403.681 3.51567 -2.15578 0
M  V30 4238 H 403.022 0.400115 -0.52991 0
M  V30 4239 H 405.552 0.676009 -1.93109 0
M  V30 4240 H 405.562 2.95996 -2.80803 0
M  V30 4241 H 404.237 2.10873 -3.58477 0
M  V30 4242 H 402.814 3.11289 -2.05313 0
M  V30 4243 N 404.999 1.35443 0.805782 0
M  V30 4244 C 406.276 1.19325 1.54987 0
M  V30 4245 C 406.656 -0.227294 2.09873 0
M  V30 4246 O 406.004 -1.2309 1.92512 0
M  V30 4247 C 406.214 2.26196 2.65775 0
M  V30 4248 C 407.562 2.62043 3.34094 0
M  V30 4249 O 408.586 2.25115 2.76046 0
M  V30 4250 O 407.445 3.25542 4.38958 0
M  V30 4251 H 404.539 0.463623 0.684823 0
M  V30 4252 H 407.085 1.47127 0.845674 0
M  V30 4253 H 405.857 3.21471 2.23096 0
M  V30 4254 H 405.48 1.99667 3.43829 0
M  V30 4255 N 406.477 -1.02803 1.19454 0
M  V30 4256 C 407.724 -1.76217 0.997693 0
M  V30 4257 C 408.052 -1.887 -0.47144 0
M  V30 4258 O 407.307 -1.4011 -1.3663 0
M  V30 4259 C 407.606 -3.18941 1.6128 0
M  V30 4260 C 407.272 -3.26463 3.11019 0
M  V30 4261 C 405.934 -3.28223 3.51885 0
M  V30 4262 C 408.286 -3.25542 4.07028 0
M  V30 4263 C 405.614 -3.26719 4.8731 0
M  V30 4264 C 407.966 -3.25579 5.42385 0
M  V30 4265 C 406.63 -3.25637 5.82681 0
M  V30 4266 H 405.9 -0.644823 0.365082 0
M  V30 4267 H 408.547 -1.20655 1.4871 0
M  V30 4268 H 406.852 -3.77587 1.04572 0
M  V30 4269 H 408.549 -3.74415 1.43577 0
M  V30 4270 H 405.139 -3.25822 2.78457 0
M  V30 4271 H 409.323 -3.23362 3.76498 0
M  V30 4272 H 404.579 -3.25089 5.1781 0
M  V30 4273 H 408.753 -3.23817 6.16535 0
M  V30 4274 H 406.38 -3.24226 6.87591 0
M  V30 4275 N 407.956 -0.998596 -1.21925 0
M  V30 4276 C 409.203 -0.677663 -1.90824 0
M  V30 4277 C 409.531 0.790905 -1.77693 0
M  V30 4278 O 408.786 1.58817 -1.14349 0
M  V30 4279 C 409.085 -1.03648 -3.42041 0
M  V30 4280 C 408.751 -2.49825 -3.75364 0
M  V30 4281 C 407.413 -2.8977 -3.8417 0
M  V30 4282 C 409.765 -3.44545 -3.91073 0
M  V30 4283 C 407.093 -4.23412 -4.06127 0
M  V30 4284 C 409.445 -4.77853 -4.14535 0
M  V30 4285 C 408.109 -5.17531 -4.21566 0
M  V30 4286 H 407.379 -0.247975 -0.698276 0
M  V30 4287 H 410.026 -1.25584 -1.44571 0
M  V30 4288 H 408.331 -0.376457 -3.89987 0
M  V30 4289 H 410.028 -0.766113 -3.93614 0
M  V30 4290 H 406.618 -2.17866 -3.69097 0
M  V30 4291 H 410.802 -3.14853 -3.83642 0
M  V30 4292 H 406.058 -4.53734 -4.09799 0
M  V30 4293 H 410.232 -5.51189 -4.25633 0
M  V30 4294 H 407.859 -6.21102 -4.38333 0
M  V30 4295 N 409.434 1.37368 -0.772513 0
M  V30 4296 C 410.681 1.99673 -0.337182 0
M  V30 4297 C 411.009 1.61324 1.0865 0
M  V30 4298 O 410.264 0.851377 1.7621 0
M  V30 4299 C 410.563 3.54817 -0.428876 0
M  V30 4300 C 410.229 4.12936 -1.81092 0
M  V30 4301 C 408.891 4.28523 -2.1891 0
M  V30 4302 C 411.243 4.44801 -2.71664 0
M  V30 4303 C 408.571 4.73277 -3.46735 0
M  V30 4304 C 410.923 4.90981 -3.98899 0
M  V30 4305 C 409.587 5.04773 -4.36761 0
M  V30 4306 H 408.857 0.730656 -0.123384 0
M  V30 4307 H 411.504 1.64124 -0.986686 0
M  V30 4308 H 409.809 3.90618 0.304167 0
M  V30 4309 H 411.506 4.00933 -0.0733334 0
M  V30 4310 H 408.096 4.01233 -1.50699 0
M  V30 4311 H 412.28 4.32344 -2.43706 0
M  V30 4312 H 407.536 4.82142 -3.75964 0
M  V30 4313 H 411.71 5.14603 -4.69208 0
M  V30 4314 H 409.337 5.39211 -5.35868 0
M  V30 4315 N 410.912 0.523116 1.48665 0
M  V30 4316 C 412.14 -0.0096312 2.06898 0
M  V30 4317 C 412.555 -1.28784 1.38059 0
M  V30 4318 O 411.912 -1.76453 0.465893 0
M  V30 4319 C 411.963 -0.244386 3.60673 0
M  V30 4320 O 411.684 0.983172 4.26925 0
M  V30 4321 C 413.185 -0.818289 4.35682 0
M  V30 4322 H 410.405 0.0304161 0.67031 0
M  V30 4323 H 412.949 0.726799 1.91149 0
M  V30 4324 H 411.104 -0.930847 3.76051 0
M  V30 4325 H 411.518 0.759653 5.1897 0
M  V30 4326 H 412.992 -0.93201 5.44075 0
M  V30 4327 H 413.469 -1.82153 3.99646 0
M  V30 4328 H 414.075 -0.168609 4.24966 0
M  V30 4329 N 412.39 -1.55475 0.257931 0
M  V30 4330 C 413.636 -1.99502 -0.364266 0
M  V30 4331 C 413.969 -1.146 -1.56782 0
M  V30 4332 O 413.244 -0.211968 -1.93342 0
M  V30 4333 C 413.527 -3.51917 -0.763333 0
M  V30 4334 C 413.38 -4.4758 0.446371 0
M  V30 4335 C 414.699 -4.09742 -1.60623 0
M  V30 4336 H 411.818 -0.725277 -0.130929 0
M  V30 4337 H 414.46 -1.8653 0.361446 0
M  V30 4338 H 412.61 -3.63101 -1.38166 0
M  V30 4339 H 414.282 -4.48362 1.08487 0
M  V30 4340 H 412.525 -4.19947 1.08753 0
M  V30 4341 H 413.196 -5.51862 0.123645 0
M  V30 4342 H 415.672 -4.01727 -1.08418 0
M  V30 4343 H 414.548 -5.16631 -1.85429 0
M  V30 4344 H 414.809 -3.58889 -2.58169 0
M  V30 4345 N 413.868 0.0150385 -1.57593 0
M  V30 4346 C 415.279 0.559832 -1.78109 0
M  V30 4347 C 415.63 1.74814 -0.890756 0
M  V30 4348 O 414.755 2.16216 -0.0892482 0
M  V30 4349 C 415.35 1.02238 -3.23006 0
M  V30 4350 C 413.909 1.51258 -3.44671 0
M  V30 4351 C 413.056 0.456955 -2.73509 0
M  V30 4352 H 416.007 -0.211169 -1.57289 0
M  V30 4353 H 416.028 1.88912 -3.30292 0
M  V30 4354 H 415.54 0.157302 -3.87781 0
M  V30 4355 H 413.641 2.39905 -2.8509 0
M  V30 4356 H 413.754 1.55042 -4.5332 0
M  V30 4357 H 412.118 0.915196 -2.37689 0
M  V30 4358 H 412.901 -0.398896 -3.40975 0
M  V30 4359 N 415.346 1.54954 0.287554 0
M  V30 4360 C 416.592 1.75132 1.02257 0
M  V30 4361 C 416.925 0.542858 1.86458 0
M  V30 4362 O 416.2 -0.459856 1.88986 0
M  V30 4363 C 416.483 3.04812 1.91733 0
M  V30 4364 C 416.336 4.35985 1.10622 0
M  V30 4365 C 417.655 3.30438 2.90687 0
M  V30 4366 H 414.774 0.637194 0.370341 0
M  V30 4367 H 417.416 1.87678 0.296111 0
M  V30 4368 H 415.566 2.94247 2.53675 0
M  V30 4369 H 417.238 4.58487 0.508636 0
M  V30 4370 H 415.481 4.31865 0.409271 0
M  V30 4371 H 416.152 5.23017 1.76513 0
M  V30 4372 H 418.628 3.40701 2.38877 0
M  V30 4373 H 417.504 4.22467 3.50447 0
M  V30 4374 H 417.765 2.49377 3.65053 0
M  V30 4375 N 416.824 -0.551391 1.4764 0
M  V30 4376 C 418.049 -1.33837 1.58437 0
M  V30 4377 C 418.474 -1.866 0.237063 0
M  V30 4378 O 417.832 -1.6328 -0.787994 0
M  V30 4379 C 417.88 -2.48014 2.61766 0
M  V30 4380 O 416.984 -3.50419 2.1744 0
M  V30 4381 H 416.325 -0.397299 0.532024 0
M  V30 4382 H 418.855 -0.665759 1.93465 0
M  V30 4383 H 418.865 -2.94503 2.82369 0
M  V30 4384 H 417.54 -2.08969 3.5959 0
M  V30 4385 H 416.117 -3.10196 2.06961 0
M  V30 4386 N 418.302 -1.35869 -0.798587 0
M  V30 4387 C 419.718 -1.16082 -1.09532 0
M  V30 4388 C 419.918 0.0213124 -2.01489 0
M  V30 4389 O 418.974 0.689488 -2.42904 0
M  V30 4390 C 420.287 -2.46748 -1.7186 0
M  V30 4391 C 421.835 -2.53028 -1.84244 0
M  V30 4392 C 422.31 -3.83758 -2.49988 0
M  V30 4393 N 423.801 -3.85053 -2.57465 0
M  V30 4394 C 424.536 -4.8294 -3.09122 0
M  V30 4395 N 424.032 -5.91217 -3.61157 0
M  V30 4396 N 425.825 -4.70369 -3.0775 0
M  V30 4397 H 417.976 -2.11571 -0.187461 0
M  V30 4398 H 420.239 -0.936726 -0.145765 0
M  V30 4399 H 419.945 -3.33471 -1.11759 0
M  V30 4400 H 419.819 -2.61883 -2.71472 0
M  V30 4401 H 422.206 -1.66729 -2.43486 0
M  V30 4402 H 422.287 -2.418 -0.834643 0
M  V30 4403 H 421.931 -4.70459 -1.91393 0
M  V30 4404 H 421.861 -3.92278 -3.5132 0
M  V30 4405 H 424.352 -3.06822 -2.20609 0
M  V30 4406 H 424.665 -6.61892 -3.98896 0
M  V30 4407 H 423.01 -5.94899 -3.59333 0
M  V30 4408 H 426.201 -3.84914 -2.66381 0
M  V30 4409 H 426.374 -5.46816 -3.47701 0
M  V30 4410 N 419.78 1.02168 -1.19998 0
M  V30 4411 C 421.005 1.79833 -1.03319 0
M  V30 4412 C 421.43 1.83504 0.413281 0
M  V30 4413 O 420.788 1.26635 1.29743 0
M  V30 4414 C 420.836 3.22396 -1.61533 0
M  V30 4415 O 419.94 4.03555 -0.849519 0
M  V30 4416 H 419.281 0.554872 -0.364709 0
M  V30 4417 H 421.811 1.28542 -1.59179 0
M  V30 4418 H 421.821 3.73124 -1.65054 0
M  V30 4419 H 420.496 3.19039 -2.66809 0
M  V30 4420 H 419.073 3.62169 -0.888129 0
M  V30 4421 N 421.258 1.00505 1.21394 0
M  V30 4422 C 422.188 0.585684 2.26035 0
M  V30 4423 C 423.169 -0.393525 1.65485 0
M  V30 4424 O 424.354 -0.281497 1.92149 0
M  V30 4425 C 421.484 -0.0884283 3.47187 0
M  V30 4426 C 420.438 0.810567 4.20254 0
M  V30 4427 C 419.764 0.00286382 5.347 0
M  V30 4428 C 421.064 2.1132 4.77641 0
M  V30 4429 H 422.758 1.46039 2.61368 0
M  V30 4430 H 420.304 0.703648 1.25638 0
M  V30 4431 H 422.257 -0.393286 4.19561 0
M  V30 4432 H 420.981 -0.997766 3.10986 0
M  V30 4433 H 419.64 1.09925 3.49731 0
M  V30 4434 H 419.288 -0.907765 4.94741 0
M  V30 4435 H 418.988 0.601444 5.84514 0
M  V30 4436 H 420.512 -0.295808 6.09883 0
M  V30 4437 H 421.926 1.87148 5.41893 0
M  V30 4438 H 420.323 2.66164 5.37845 0
M  V30 4439 H 421.393 2.78393 3.9702 0
M  V30 4440 N 422.737 -1.36956 0.779787 0
M  V30 4441 C 423.985 -1.99097 0.347079 0
M  V30 4442 C 424.306 -1.62206 -1.08232 0
M  V30 4443 O 423.576 -0.891373 -1.74446 0
M  V30 4444 H 422.156 -0.736409 0.125342 0
M  V30 4445 H 424.818 -1.67308 0.999696 0
M  V30 4446 H 423.914 -3.09107 0.431162 0
M  V30 4447 N 424.215 -0.530993 -1.48385 0
M  V30 4448 C 425.626 -0.0907905 -1.86479 0
M  V30 4449 C 425.977 1.33213 -1.44044 0
M  V30 4450 O 425.102 1.99783 -0.831615 0
M  V30 4451 C 425.697 -0.157987 -3.38431 0
M  V30 4452 C 424.256 0.227026 -3.75715 0
M  V30 4453 C 423.403 -0.5173 -2.72432 0
M  V30 4454 H 426.354 -0.742186 -1.40276 0
M  V30 4455 H 426.375 0.630053 -3.75247 0
M  V30 4456 H 425.887 -1.19372 -3.69286 0
M  V30 4457 H 423.988 1.26486 -3.50474 0
M  V30 4458 H 424.101 -0.113288 -4.78966 0
M  V30 4459 H 422.465 0.0365527 -2.54674 0
M  V30 4460 H 423.248 -1.55368 -3.0613 0
M  V30 4461 N 425.693 1.55336 -0.266172 0
M  V30 4462 C 426.623 2.25146 0.618981 0
M  V30 4463 C 427.604 1.23845 1.16604 0
M  V30 4464 O 428.789 1.52544 1.20183 0
M  V30 4465 C 425.919 2.96572 1.80728 0
M  V30 4466 C 424.873 4.04726 1.39215 0
M  V30 4467 C 424.199 4.63678 2.66283 0
M  V30 4468 C 425.499 5.19407 0.548942 0
M  V30 4469 H 427.193 2.99377 0.0368116 0
M  V30 4470 H 424.739 1.43991 0.0162651 0
M  V30 4471 H 426.692 3.44116 2.43232 0
M  V30 4472 H 425.416 2.19861 2.41514 0
M  V30 4473 H 424.075 3.57979 0.790351 0
M  V30 4474 H 423.723 3.83646 3.25308 0
M  V30 4475 H 423.423 5.367 2.39222 0
M  V30 4476 H 424.947 5.13967 3.29651 0
M  V30 4477 H 426.361 5.63059 1.07876 0
M  V30 4478 H 424.758 5.98936 0.373593 0
M  V30 4479 H 425.828 4.8295 -0.434394 0
M  V30 4480 N 427.171 -0.0066808 1.57599 0
M  V30 4481 C 428.419 -0.691552 1.899 0
M  V30 4482 C 428.74 -1.74682 0.866672 0
M  V30 4483 O 428.01 -1.95661 -0.0968189 0
M  V30 4484 H 426.59 -0.258416 0.700878 0
M  V30 4485 H 429.252 0.0326655 1.94873 0
M  V30 4486 H 428.348 -1.16702 2.8946 0
M  V30 4487 N 428.649 -1.55105 -0.279332 0
M  V30 4488 C 429.897 -1.75066 -1.00977 0
M  V30 4489 C 430.218 -0.551276 -1.87045 0
M  V30 4490 O 429.488 0.433984 -1.91032 0
M  V30 4491 H 428.068 -0.645578 -0.375816 0
M  V30 4492 H 430.73 -1.92497 -0.305089 0
M  V30 4493 H 429.826 -2.64894 -1.65038 0
M  V30 4494 N 430.127 0.543554 -1.4793 0
M  V30 4495 C 431.375 1.29752 -1.54948 0
M  V30 4496 C 431.696 1.93764 -0.219242 0
M  V30 4497 O 430.966 1.80639 0.75805 0
M  V30 4498 H 429.546 0.481874 -0.570795 0
M  V30 4499 H 432.208 0.633636 -1.84312 0
M  V30 4500 H 431.304 2.08392 -2.32334 0
M  V30 4501 N 431.605 1.3629 0.791371 0
M  V30 4502 C 432.83 1.33726 1.58531 0
M  V30 4503 C 433.255 -0.0794933 1.87932 0
M  V30 4504 O 432.613 -1.05087 1.47738 0
M  V30 4505 C 432.661 2.16425 2.88431 0
M  V30 4506 O 431.765 1.5554 3.81944 0
M  V30 4507 H 431.106 0.457793 0.480959 0
M  V30 4508 H 433.636 1.79547 0.981031 0
M  V30 4509 H 433.646 2.28933 3.37718 0
M  V30 4510 H 432.321 3.19415 2.66359 0
M  V30 4511 H 430.898 1.51961 3.40532 0
M  V30 4512 N 433.083 -1.0153 1.20538 0
M  V30 4513 C 434.015 -2.10224 0.913155 0
M  V30 4514 C 435.028 -1.62495 -0.0995998 0
M  V30 4515 O 436.217 -1.78014 0.131582 0
M  V30 4516 C 433.317 -3.37111 0.347717 0
M  V30 4517 C 432.49 -4.13971 1.41233 0
M  V30 4518 C 431.549 -5.19158 0.857976 0
M  V30 4519 O 430.575 -5.48 1.53897 0
M  V30 4520 N 431.777 -5.7955 -0.331966 0
M  V30 4521 H 434.542 -2.35879 1.84881 0
M  V30 4522 H 432.103 -1.17931 1.10923 0
M  V30 4523 H 434.095 -4.04683 -0.0373026 0
M  V30 4524 H 432.665 -3.08696 -0.492527 0
M  V30 4525 H 431.885 -3.41351 1.97163 0
M  V30 4526 H 433.173 -4.62103 2.12928 0
M  V30 4527 H 432.571 -5.58455 -0.902478 0
M  V30 4528 H 431.128 -6.48464 -0.65861 0
M  V30 4529 N 434.561 -1.01147 -1.20859 0
M  V30 4530 C 435.789 -0.716911 -1.94082 0
M  V30 4531 C 436.204 0.721568 -1.74467 0
M  V30 4532 O 435.561 1.48889 -1.05539 0
M  V30 4533 C 435.612 -1.03662 -3.46318 0
M  V30 4534 O 435.333 -2.4186 -3.65288 0
M  V30 4535 C 436.834 -0.762386 -4.36695 0
M  V30 4536 H 434.054 -0.26367 -0.617024 0
M  V30 4537 H 436.598 -1.35127 -1.53496 0
M  V30 4538 H 434.753 -0.447757 -3.84804 0
M  V30 4539 H 435.167 -2.53224 -4.59323 0
M  V30 4540 H 436.641 -1.03621 -5.42187 0
M  V30 4541 H 437.118 0.303514 -4.3815 0
M  V30 4542 H 437.724 -1.33316 -4.03865 0
M  V30 4543 N 436.039 1.36541 -0.78704 0
M  V30 4544 C 437.285 2.00044 -0.367938 0
M  V30 4545 C 437.64 1.61345 1.04812 0
M  V30 4546 O 436.933 0.856936 1.71368 0
M  V30 4547 C 437.127 3.54343 -0.466485 0
M  V30 4548 C 436.956 4.08029 -1.89058 0
M  V30 4549 C 435.726 4.38284 -2.51466 0
M  V30 4550 C 437.924 4.27954 -2.85236 0
M  V30 4551 N 435.906 4.77778 -3.85488 0
M  V30 4552 C 437.277 4.70227 -4.04088 0
M  V30 4553 C 439.332 4.10119 -2.82324 0
M  V30 4554 C 438.035 4.96532 -5.20432 0
M  V30 4555 C 440.061 4.37569 -3.97854 0
M  V30 4556 C 439.423 4.80095 -5.15449 0
M  V30 4557 H 435.522 0.760525 -0.182004 0
M  V30 4558 H 438.106 1.65589 -1.02413 0
M  V30 4559 H 436.277 3.88072 0.159606 0
M  V30 4560 H 438.009 4.04693 -0.0238577 0
M  V30 4561 H 434.764 4.27905 -2.02965 0
M  V30 4562 H 435.188 5.01813 -4.54437 0
M  V30 4563 H 439.83 3.76399 -1.92571 0
M  V30 4564 H 437.548 5.29134 -6.10773 0
M  V30 4565 H 441.134 4.25341 -3.96958 0
M  V30 4566 H 440.014 5.00925 -6.0336 0
M  V30 4567 N 437.518 0.538854 1.48102 0
M  V30 4568 C 438.428 -0.222648 2.33541 0
M  V30 4569 C 439.444 -0.930225 1.47047 0
M  V30 4570 O 440.62 -0.903211 1.80011 0
M  V30 4571 C 437.685 -1.25064 3.23357 0
M  V30 4572 C 436.746 -0.552469 4.2573 0
M  V30 4573 C 435.979 -1.53149 5.11254 0
M  V30 4574 O 436.202 -2.76487 4.9891 0
M  V30 4575 O 435.136 -1.06602 5.92385 0
M  V30 4576 H 438.962 0.477707 2.99919 0
M  V30 4577 H 436.547 0.299669 1.46364 0
M  V30 4578 H 438.429 -1.8445 3.78888 0
M  V30 4579 H 437.104 -1.93325 2.59629 0
M  V30 4580 H 436.011 0.082114 3.7401 0
M  V30 4581 H 437.344 0.0883526 4.92121 0
M  V30 4582 N 438.996 -1.55193 0.274407 0
M  V30 4583 C 440.244 -1.99187 -0.341902 0
M  V30 4584 C 440.565 -1.16422 -1.56431 0
M  V30 4585 O 439.835 -0.253573 -1.94252 0
M  V30 4586 H 438.415 -0.735721 -0.129317 0
M  V30 4587 H 441.077 -1.91168 0.379578 0
M  V30 4588 H 440.173 -3.05629 -0.632253 0
M  V30 4589 N 440.474 -0.00167713 -1.576 0
M  V30 4590 C 441.699 0.69739 -1.95323 0
M  V30 4591 C 442.124 1.6642 -0.876706 0
M  V30 4592 O 441.482 1.80548 0.165007 0
M  V30 4593 C 441.53 1.40403 -3.32144 0
M  V30 4594 O 440.634 2.5185 -3.26566 0
M  V30 4595 H 439.975 0.185373 -0.637599 0
M  V30 4596 H 442.505 -0.0553665 -2.04525 0
M  V30 4597 H 442.515 1.76707 -3.67748 0
M  V30 4598 H 441.19 0.695167 -4.10049 0
M  V30 4599 H 439.767 2.17861 -3.0264 0
M  V30 4600 N 441.952 1.55251 0.271103 0
M  V30 4601 C 443.2 1.75599 1.00047 0
M  V30 4602 C 443.521 0.561188 1.8675 0
M  V30 4603 O 442.791 -0.423846 1.9126 0
M  V30 4604 H 441.371 0.647562 0.372387 0
M  V30 4605 H 444.033 1.92656 0.294876 0
M  V30 4606 H 443.129 2.65766 1.6363 0
M  V30 4607 N 443.43 -0.535701 1.48216 0
M  V30 4608 C 444.676 -1.29375 1.56173 0
M  V30 4609 C 445.009 -1.92804 0.232429 0
M  V30 4610 O 444.284 -1.78992 -0.761048 0
M  V30 4611 C 444.567 -2.38747 2.69577 0
M  V30 4612 C 444.42 -1.80046 4.12193 0
M  V30 4613 C 445.739 -3.40551 2.78771 0
M  V30 4614 H 442.858 -0.469027 0.568491 0
M  V30 4615 H 445.5 -0.597358 1.80365 0
M  V30 4616 H 443.65 -2.98147 2.4908 0
M  V30 4617 H 445.322 -1.24742 4.44114 0
M  V30 4618 H 443.565 -1.10609 4.19462 0
M  V30 4619 H 444.236 -2.59212 4.87353 0
M  V30 4620 H 446.712 -2.91099 2.97322 0
M  V30 4621 H 445.588 -4.1448 3.59857 0
M  V30 4622 H 445.849 -4.00746 1.86696 0
M  V30 4623 N 444.908 -1.36708 -0.784132 0
M  V30 4624 C 445.838 -1.34153 -1.91116 0
M  V30 4625 C 446.819 -0.212121 -1.68772 0
M  V30 4626 O 448.004 -0.410581 -1.8981 0
M  V30 4627 C 445.134 -1.13535 -3.28218 0
M  V30 4628 C 444.088 -2.23356 -3.65097 0
M  V30 4629 C 443.414 -1.87875 -5.00607 0
M  V30 4630 C 444.714 -3.65473 -3.73131 0
M  V30 4631 H 446.408 -2.28459 -1.93512 0
M  V30 4632 H 443.954 -1.09973 -0.929618 0
M  V30 4633 H 445.907 -1.10381 -4.06687 0
M  V30 4634 H 444.631 -0.156804 -3.26223 0
M  V30 4635 H 443.29 -2.25645 -2.88929 0
M  V30 4636 H 442.938 -0.885814 -4.95139 0
M  V30 4637 H 442.638 -2.61406 -5.26252 0
M  V30 4638 H 444.162 -1.86286 -5.81489 0
M  V30 4639 H 445.576 -3.65382 -4.41779 0
M  V30 4640 H 443.973 -4.37953 -4.10265 0
M  V30 4641 H 445.043 -3.99995 -2.74102 0
M  V30 4642 N 446.386 1.0089 -1.21074 0
M  V30 4643 C 447.797 1.56056 -1.02486 0
M  V30 4644 C 448.148 1.91728 0.416506 0
M  V30 4645 O 447.273 1.73066 1.29912 0
M  V30 4646 C 447.868 2.83563 -1.85411 0
M  V30 4647 C 446.427 3.3523 -1.71166 0
M  V30 4648 C 445.574 2.0846 -1.82865 0
M  V30 4649 H 448.525 0.831818 -1.35154 0
M  V30 4650 H 448.546 3.55286 -1.36205 0
M  V30 4651 H 448.058 2.57569 -2.9031 0
M  V30 4652 H 446.159 3.66167 -0.689361 0
M  V30 4653 H 446.272 4.06913 -2.52901 0
M  V30 4654 H 444.636 2.21275 -1.26132 0
M  V30 4655 H 445.419 1.84883 -2.89263 0
M  V30 4656 N 447.864 1.01787 1.20321 0
M  V30 4657 C 449.104 0.716493 1.91431 0
M  V30 4658 C 449.468 -0.740352 1.77152 0
M  V30 4659 O 450.669 -1.1543 2.42754 0
M  V30 4660 C 448.94 1.14169 3.38674 0
M  V30 4661 S 450.499 0.962482 4.28114 0
M  V30 4662 H 447.317 0.261175 0.661293 0
M  V30 4663 H 449.919 1.30539 1.45533 0
M  V30 4664 H 448.623 2.19784 3.46588 0
M  V30 4665 H 448.154 0.545621 3.89598 0
M  V30 4666 H 450.169 -0.133253 4.96021 0
M  V30 4667 N 449.342 -1.36122 0.79427 0
M  V30 4668 C 450.588 -1.99406 0.369452 0
M  V30 4669 C 450.921 -1.62886 -1.05743 0
M  V30 4670 O 450.196 -0.886053 -1.73145 0
M  V30 4671 C 450.479 -3.56046 0.538833 0
M  V30 4672 C 450.332 -4.02404 2.00976 0
M  V30 4673 C 451.651 -4.40079 -0.0431359 0
M  V30 4674 H 448.77 -0.724397 0.135712 0
M  V30 4675 H 451.412 -1.61461 1.00151 0
M  V30 4676 H 449.562 -3.885 0.000771004 0
M  V30 4677 H 451.234 -3.80415 2.60926 0
M  V30 4678 H 449.477 -3.53765 2.51063 0
M  V30 4679 H 450.148 -5.11344 2.07922 0
M  V30 4680 H 452.624 -4.14013 0.416228 0
M  V30 4681 H 451.5 -5.48799 0.105374 0
M  V30 4682 H 451.761 -4.27264 -1.13571 0
M  V30 4683 N 450.82 -0.546701 -1.47814 0
M  V30 4684 C 452.068 -0.0187037 -2.02091 0
M  V30 4685 C 452.389 1.33168 -1.42447 0
M  V30 4686 O 451.659 1.86619 -0.595839 0
M  V30 4687 H 450.239 -0.00392531 -0.74699 0
M  V30 4688 H 452.901 -0.714327 -1.81338 0
M  V30 4689 H 451.997 0.0772219 -3.12004 0
M  V30 4690 N 452.299 1.55045 -0.282633 0
M  V30 4691 C 453.527 2.04168 0.33512 0
M  V30 4692 C 453.942 1.16071 1.48906 0
M  V30 4693 O 453.299 0.182391 1.81586 0
M  V30 4694 C 453.35 3.52332 0.808957 0
M  V30 4695 O 453.071 4.37078 -0.299038 0
M  V30 4696 C 454.572 4.17375 1.49375 0
M  V30 4697 H 451.792 0.666744 0.0754543 0
M  V30 4698 H 454.336 2.00205 -0.416918 0
M  V30 4699 H 452.491 3.56715 1.51106 0
M  V30 4700 H 452.905 5.24458 0.0665514 0
M  V30 4701 H 454.379 5.22627 1.77664 0
M  V30 4702 H 454.856 3.65999 2.42778 0
M  V30 4703 H 455.462 4.17016 0.835305 0
M  V30 4704 N 453.777 0.010035 1.57597 0
M  V30 4705 C 455.188 -0.531426 1.78977 0
M  V30 4706 C 455.539 -1.73375 0.918454 0
M  V30 4707 O 454.664 -2.16047 0.123635 0
M  V30 4708 C 455.259 -0.97086 3.24592 0
M  V30 4709 C 453.818 -1.45756 3.47033 0
M  V30 4710 C 452.965 -0.413384 2.74201 0
M  V30 4711 H 455.916 0.236166 1.56933 0
M  V30 4712 H 455.937 -1.83633 3.33255 0
M  V30 4713 H 455.449 -0.0955893 3.87982 0
M  V30 4714 H 453.55 -2.35339 2.88871 0
M  V30 4715 H 453.663 -1.4781 4.55729 0
M  V30 4716 H 452.027 -0.877266 2.39115 0
M  V30 4717 H 452.81 0.453092 3.40297 0
M  V30 4718 N 455.255 -1.55392 -0.262866 0
M  V30 4719 C 456.218 -1.88181 -1.30846 0
M  V30 4720 C 457.218 -0.757079 -1.41862 0
M  V30 4721 O 458.408 -1.02519 -1.40838 0
M  V30 4722 C 455.54 -2.09609 -2.68844 0
M  V30 4723 H 456.733 -2.81659 -1.02997 0
M  V30 4724 H 454.286 -1.48039 -0.501414 0
M  V30 4725 H 455.021 -1.18547 -3.01856 0
M  V30 4726 H 454.806 -2.91508 -2.62231 0
M  V30 4727 H 456.296 -2.36215 -3.44372 0
M  V30 4728 N 456.733 0.527833 -1.48498 0
M  V30 4729 C 457.643 1.65907 -1.65867 0
M  V30 4730 C 458.659 1.6537 -0.541192 0
M  V30 4731 O 459.835 1.84282 -0.812534 0
M  V30 4732 C 456.9 3.02364 -1.69637 0
M  V30 4733 C 455.961 3.1374 -2.93028 0
M  V30 4734 C 455.194 4.43688 -2.96609 0
M  V30 4735 O 455.417 5.30913 -2.08538 0
M  V30 4736 O 454.351 4.59475 -3.88802 0
M  V30 4737 H 458.177 1.5419 -2.61647 0
M  V30 4738 H 455.762 0.701163 -1.31924 0
M  V30 4739 H 457.644 3.83515 -1.74625 0
M  V30 4740 H 456.319 3.14401 -0.770312 0
M  V30 4741 H 455.226 2.31877 -2.93571 0
M  V30 4742 H 456.559 3.06621 -3.85026 0
M  V30 4743 N 458.211 1.37122 0.776871 0
M  V30 4744 C 459.143 1.28342 1.89897 0
M  V30 4745 C 460.156 0.200277 1.61563 0
M  V30 4746 O 461.345 0.456012 1.72577 0
M  V30 4747 C 458.445 0.960427 3.25006 0
M  V30 4748 C 457.618 2.148 3.81025 0
M  V30 4749 C 456.677 1.79608 4.94598 0
M  V30 4750 O 455.703 2.51845 5.10454 0
M  V30 4751 N 456.905 0.737171 5.758 0
M  V30 4752 H 459.67 2.25027 1.97947 0
M  V30 4753 H 457.231 1.3068 0.955739 0
M  V30 4754 H 459.223 0.705942 3.98495 0
M  V30 4755 H 457.793 0.0823066 3.12492 0
M  V30 4756 H 457.013 2.56454 2.99374 0
M  V30 4757 H 458.301 2.9411 4.15183 0
M  V30 4758 H 457.699 0.137637 5.65533 0
M  V30 4759 H 456.256 0.542534 6.49538 0
M  V30 4760 N 459.689 -1.00246 1.21608 0
M  V30 4761 C 460.652 -2.07233 0.979133 0
M  V30 4762 C 461.652 -1.6072 -0.0508219 0
M  V30 4763 O 462.842 -1.73196 0.186712 0
M  V30 4764 C 459.974 -3.37546 0.477016 0
M  V30 4765 H 461.167 -2.29687 1.92831 0
M  V30 4766 H 458.72 -1.17261 1.03342 0
M  V30 4767 H 459.455 -3.20773 -0.476966 0
M  V30 4768 H 459.24 -3.72638 1.21997 0
M  V30 4769 H 460.73 -4.16285 0.331181 0
M  V30 4770 N 461.167 -1.02423 -1.1978 0
M  V30 4771 C 462.097 -0.62157 -2.25075 0
M  V30 4772 C 463.078 0.367148 -1.6609 0
M  V30 4773 O 464.263 0.250892 -1.92573 0
M  V30 4774 C 461.393 0.0331826 -3.47284 0
M  V30 4775 C 460.347 -0.877323 -4.18912 0
M  V30 4776 C 459.673 -0.0879296 -5.34628 0
M  V30 4777 C 460.973 -2.18892 -4.74219 0
M  V30 4778 H 462.667 -1.50179 -2.59011 0
M  V30 4779 H 460.213 -0.723547 -1.24502 0
M  V30 4780 H 462.166 0.326488 -4.20133 0
M  V30 4781 H 460.89 0.948164 -3.12534 0
M  V30 4782 H 459.549 -1.15475 -3.47938 0
M  V30 4783 H 459.197 0.828941 -4.96123 0
M  V30 4784 H 458.897 -0.694359 -5.83483 0
M  V30 4785 H 460.421 0.198743 -6.10276 0
M  V30 4786 H 461.835 -1.95746 -5.38847 0
M  V30 4787 H 460.232 -2.74686 -5.33542 0
M  V30 4788 H 461.302 -2.84674 -3.92541 0
M  V30 4789 N 462.645 1.35699 -0.801477 0
M  V30 4790 C 463.555 2.33661 -0.209691 0
M  V30 4791 C 464.571 1.6162 0.644591 0
M  V30 4792 O 465.747 1.93529 0.557545 0
M  V30 4793 C 462.812 3.40816 0.636033 0
M  V30 4794 C 461.873 4.28639 -0.238147 0
M  V30 4795 C 461.106 5.30676 0.567307 0
M  V30 4796 O 461.329 5.41174 1.8024 0
M  V30 4797 O 460.263 6.01887 -0.0391336 0
M  V30 4798 H 464.089 2.8606 -1.01996 0
M  V30 4799 H 461.674 1.38379 -0.563164 0
M  V30 4800 H 463.556 4.06301 1.11791 0
M  V30 4801 H 462.231 2.90696 1.42399 0
M  V30 4802 H 461.138 3.66152 -0.767044 0
M  V30 4803 H 462.471 4.82143 -0.989915 0
M  V30 4804 N 464.123 0.554532 1.47522 0
M  V30 4805 C 465.07 -0.19466 2.29978 0
M  V30 4806 C 466.04 -0.910882 1.38896 0
M  V30 4807 O 467.225 -0.907102 1.67858 0
M  V30 4808 C 464.365 -1.22035 3.22802 0
M  V30 4809 C 463.478 -0.510474 4.28973 0
M  V30 4810 C 462.613 -1.52123 5.08952 0
M  V30 4811 C 461.652 -0.796173 6.069 0
M  V30 4812 N 460.789 -1.75363 6.79847 0
M  V30 4813 H 465.629 0.51461 2.93523 0
M  V30 4814 H 463.166 0.265607 1.44682 0
M  V30 4815 H 465.124 -1.8276 3.7504 0
M  V30 4816 H 463.754 -1.89769 2.61127 0
M  V30 4817 H 462.806 0.211234 3.79813 0
M  V30 4818 H 464.118 0.0576503 4.98767 0
M  V30 4819 H 463.272 -2.20207 5.65326 0
M  V30 4820 H 462.011 -2.12327 4.39054 0
M  V30 4821 H 461.016 -0.101388 5.49707 0
M  V30 4822 H 462.241 -0.199911 6.78806 0
M  V30 4823 H 460.187 -2.3443 6.12682 0
M  V30 4824 H 460.104 -1.23759 7.45801 0
M  V30 4825 H 461.372 -2.4257 7.40797 0
M  V30 4826 N 465.601 -1.54893 0.290851 0
M  V30 4827 C 466.564 -2.21824 -0.576784 0
M  V30 4828 C 467.564 -1.20104 -1.06919 0
M  V30 4829 O 468.754 -1.44906 -0.966843 0
M  V30 4830 C 465.886 -2.89662 -1.79747 0
M  V30 4831 H 467.079 -2.99899 0.00784051 0
M  V30 4832 H 464.632 -1.56245 0.0415934 0
M  V30 4833 H 465.367 -2.15639 -2.42219 0
M  V30 4834 H 465.152 -3.64219 -1.45214 0
M  V30 4835 H 466.642 -3.4075 -2.4141 0
M  V30 4836 N 467.08 -0.0183926 -1.57589 0
M  V30 4837 C 468.01 0.965596 -2.12599 0
M  V30 4838 C 468.991 1.34641 -1.0395 0
M  V30 4839 O 470.176 1.42693 -1.31729 0
M  V30 4840 C 467.306 2.25149 -2.64434 0
M  V30 4841 C 466.26 2.01175 -3.77773 0
M  V30 4842 C 465.586 3.35937 -4.15994 0
M  V30 4843 C 466.886 1.35953 -5.04296 0
M  V30 4844 H 468.58 0.507504 -2.95067 0
M  V30 4845 H 466.126 0.242671 -1.41941 0
M  V30 4846 H 468.079 2.94357 -3.01549 0
M  V30 4847 H 466.803 2.73105 -1.79112 0
M  V30 4848 H 465.462 1.34388 -3.4108 0
M  V30 4849 H 465.11 3.81631 -3.27669 0
M  V30 4850 H 464.81 3.20705 -4.92364 0
M  V30 4851 H 466.334 4.0643 -4.55683 0
M  V30 4852 H 467.748 1.95144 -5.39065 0
M  V30 4853 H 466.145 1.31152 -5.85593 0
M  V30 4854 H 467.215 0.331071 -4.83768 0
M  V30 4855 N 468.558 1.5553 0.254621 0
M  V30 4856 C 469.521 1.88872 1.29846 0
M  V30 4857 C 470.521 0.764591 1.41459 0
M  V30 4858 O 471.711 1.03265 1.40293 0
M  V30 4859 C 468.843 2.11032 2.67728 0
M  V30 4860 H 470.036 2.82201 1.01502 0
M  V30 4861 H 467.589 1.48303 0.493556 0
M  V30 4862 H 468.324 1.20146 3.01223 0
M  V30 4863 H 468.109 2.92895 2.60682 0
M  V30 4864 H 469.599 2.38038 3.43115 0
M  V30 4865 N 470.036 -0.519951 1.48776 0
M  V30 4866 C 471.285 -1.27175 1.56555 0
M  V30 4867 C 471.598 -1.9401 0.248869 0
M  V30 4868 O 472.804 -2.70725 0.205004 0
M  V30 4869 C 471.26 -2.30811 2.76142 0
M  V30 4870 C 470.868 -1.7 4.14493 0
M  V30 4871 C 472.612 -3.06937 2.9324 0
M  V30 4872 C 470.519 -2.71635 5.25327 0
M  V30 4873 H 469.449 -0.478329 0.582853 0
M  V30 4874 H 472.1 -0.547916 1.75129 0
M  V30 4875 H 470.482 -3.06274 2.51023 0
M  V30 4876 H 471.656 -1.00658 4.49672 0
M  V30 4877 H 469.971 -1.06331 4.02595 0
M  V30 4878 H 472.568 -3.82905 3.73213 0
M  V30 4879 H 472.911 -3.63409 2.03075 0
M  V30 4880 H 473.444 -2.38589 3.18308 0
M  V30 4881 H 470.183 -2.1997 6.1749 0
M  V30 4882 H 469.703 -3.39275 4.94624 0
M  V30 4883 H 471.382 -3.34429 5.53865 0
M  V30 4884 N 471.514 -1.37532 -0.769588 0
M  V30 4885 C 472.444 -1.36172 -1.89682 0
M  V30 4886 C 473.425 -0.23001 -1.68538 0
M  V30 4887 O 474.61 -0.43069 -1.89364 0
M  V30 4888 C 471.74 -1.1701 -3.26995 0
M  V30 4889 C 470.694 -2.27216 -3.62708 0
M  V30 4890 C 470.02 -1.93174 -4.98586 0
M  V30 4891 C 471.32 -3.6941 -3.69234 0
M  V30 4892 H 473.014 -2.30499 -1.91078 0
M  V30 4893 H 470.56 -1.10953 -0.917902 0
M  V30 4894 H 472.513 -1.14688 -4.05493 0
M  V30 4895 H 471.237 -0.191395 -3.26039 0
M  V30 4896 H 469.896 -2.28697 -2.86519 0
M  V30 4897 H 469.544 -0.938281 -4.94171 0
M  V30 4898 H 469.244 -2.66973 -5.23449 0
M  V30 4899 H 470.768 -1.92443 -5.79481 0
M  V30 4900 H 472.182 -3.70047 -4.37879 0
M  V30 4901 H 470.579 -4.4228 -4.05597 0
M  V30 4902 H 471.649 -4.0288 -2.69844 0
M  V30 4903 N 472.992 0.995999 -1.22138 0
M  V30 4904 C 474.22 1.77066 -1.07029 0
M  V30 4905 C 474.635 1.8495 0.379357 0
M  V30 4906 O 473.992 1.3174 1.26297 0
M  V30 4907 C 474.043 3.20533 -1.67155 0
M  V30 4908 O 473.764 3.13082 -3.06449 0
M  V30 4909 C 475.265 4.14461 -1.5728 0
M  V30 4910 H 472.485 0.556179 -0.375374 0
M  V30 4911 H 475.029 1.25238 -1.61666 0
M  V30 4912 H 473.184 3.6944 -1.16589 0
M  V30 4913 H 473.598 4.03283 -3.35355 0
M  V30 4914 H 475.072 5.1289 -2.04078 0
M  V30 4915 H 475.549 4.36005 -0.528795 0
M  V30 4916 H 476.155 3.71449 -2.07136 0
M  V30 4917 N 474.47 1.03057 1.19235 0
M  V30 4918 C 475.4 0.633497 2.24742 0
M  V30 4919 C 476.381 -0.358335 1.66283 0
M  V30 4920 O 477.566 -0.240676 1.92703 0
M  V30 4921 C 474.696 -0.0147648 3.47297 0
M  V30 4922 C 473.65 0.899527 4.18441 0
M  V30 4923 C 472.976 0.116281 5.34574 0
M  V30 4924 C 474.276 2.21404 4.73051 0
M  V30 4925 H 475.97 1.5155 2.58211 0
M  V30 4926 H 473.516 0.73014 1.24117 0
M  V30 4927 H 475.469 -0.304202 4.20301 0
M  V30 4928 H 474.193 -0.931577 3.13032 0
M  V30 4929 H 472.852 1.17319 3.47321 0
M  V30 4930 H 472.5 -0.802619 4.96555 0
M  V30 4931 H 472.2 0.725293 5.83107 0
M  V30 4932 H 473.724 -0.166376 6.10373 0
M  V30 4933 H 475.138 1.98601 5.37802 0
M  V30 4934 H 473.535 2.77512 5.32078 0
M  V30 4935 H 474.605 2.86752 3.91026 0
M  V30 4936 N 475.948 -1.35272 0.808662 0
M  V30 4937 C 477.364 -1.51806 0.492653 0
M  V30 4938 C 477.564 -1.7574 -0.985778 0
M  V30 4939 O 476.62 -1.80003 -1.77074 0
M  V30 4940 C 477.933 -2.69202 1.33981 0
M  V30 4941 C 479.481 -2.8308 1.33547 0
M  V30 4942 C 479.956 -4.03502 2.16679 0
M  V30 4943 N 481.447 -4.10684 2.14227 0
M  V30 4944 C 482.182 -5.02984 2.75308 0
M  V30 4945 N 481.678 -6.00603 3.45323 0
M  V30 4946 N 483.471 -4.95746 2.64938 0
M  V30 4947 H 475.622 -1.17993 1.76611 0
M  V30 4948 H 477.885 -0.577476 0.751814 0
M  V30 4949 H 477.591 -2.581 2.38909 0
M  V30 4950 H 477.465 -3.63854 0.994491 0
M  V30 4951 H 479.852 -2.93631 0.294036 0
M  V30 4952 H 479.933 -1.89278 1.72068 0
M  V30 4953 H 479.577 -3.93711 3.20864 0
M  V30 4954 H 479.507 -4.96489 1.75517 0
M  V30 4955 H 481.998 -3.40802 1.63285 0
M  V30 4956 H 482.311 -6.67633 3.89212 0
M  V30 4957 H 480.656 -6.0077 3.49428 0
M  V30 4958 H 483.847 -4.18439 2.09825 0
M  V30 4959 H 484.02 -5.67487 3.12829 0
M  V30 4960 N 477.426 -0.562348 -1.47226 0
M  V30 4961 C 478.651 -0.0432632 -2.07355 0
M  V30 4962 C 479.076 1.24332 -1.41149 0
M  V30 4963 O 478.434 1.74603 -0.488226 0
M  V30 4964 C 478.482 0.130288 -3.60365 0
M  V30 4965 O 477.586 1.19166 -3.94808 0
M  V30 4966 H 476.927 -0.0536334 -0.66183 0
M  V30 4967 H 479.457 -0.779495 -1.89169 0
M  V30 4968 H 479.467 0.342881 -4.06557 0
M  V30 4969 H 478.142 -0.809389 -4.07948 0
M  V30 4970 H 476.719 0.959153 -3.60354 0
M  V30 4971 N 478.904 1.54736 -0.299062 0
M  V30 4972 C 479.867 2.22127 0.565012 0
M  V30 4973 C 480.867 1.20669 1.06281 0
M  V30 4974 O 482.057 1.45417 0.959145 0
M  V30 4975 C 479.189 2.90611 1.78208 0
M  V30 4976 H 480.382 2.99891 -0.0237448 0
M  V30 4977 H 477.935 1.5622 -0.0498788 0
M  V30 4978 H 478.67 2.16921 2.41072 0
M  V30 4979 H 478.455 3.64984 1.43281 0
M  V30 4980 H 479.945 3.42026 2.396 0
M  V30 4981 N 480.382 0.0267497 1.57577 0
M  V30 4982 C 481.312 -0.954308 2.13108 0
M  V30 4983 C 482.293 -1.34088 1.04663 0
M  V30 4984 O 483.478 -1.41992 1.32484 0
M  V30 4985 C 480.608 -2.23744 2.65624 0
M  V30 4986 C 479.562 -1.99168 3.78835 0
M  V30 4987 C 478.888 -3.33726 4.17769 0
M  V30 4988 C 480.188 -1.33277 5.0501 0
M  V30 4989 H 481.882 -0.491848 2.95332 0
M  V30 4990 H 479.428 -0.23514 1.42067 0
M  V30 4991 H 481.381 -2.92754 3.03106 0
M  V30 4992 H 480.105 -2.72151 1.80558 0
M  V30 4993 H 478.764 -1.32577 3.41788 0
M  V30 4994 H 478.412 -3.79888 3.29688 0
M  V30 4995 H 478.112 -3.18089 4.94058 0
M  V30 4996 H 479.636 -4.04008 4.57832 0
M  V30 4997 H 481.05 -1.92283 5.40093 0
M  V30 4998 H 479.447 -1.28045 5.8628 0
M  V30 4999 H 480.517 -0.305411 4.83937 0
M  V30 5000 N 481.861 -1.55662 -0.24637 0
M  V30 5001 C 483.272 -1.67953 -0.81539 0
M  V30 5002 C 483.623 -0.624302 -1.86002 0
M  V30 5003 O 482.748 0.229328 -2.15181 0
M  V30 5004 C 483.343 -3.04484 -1.48576 0
M  V30 5005 C 481.902 -3.18713 -2.00248 0
M  V30 5006 C 481.049 -2.6383 -0.853766 0
M  V30 5007 H 484 -1.58685 -0.0221692 0
M  V30 5008 H 484.021 -2.98959 -2.3538 0
M  V30 5009 H 483.533 -3.81264 -0.725222 0
M  V30 5010 H 481.634 -2.46757 -2.79181 0
M  V30 5011 H 481.747 -4.25628 -2.1995 0
M  V30 5012 H 480.111 -2.21667 -1.25442 0
M  V30 5013 H 480.894 -3.43135 -0.106302 0
M  V30 5014 N 483.339 0.512053 -1.4905 0
M  V30 5015 C 484.587 1.26436 -1.57665 0
M  V30 5016 C 484.908 1.93255 -0.260293 0
M  V30 5017 O 484.178 1.82206 0.719564 0
M  V30 5018 H 482.758 0.469658 -0.580888 0
M  V30 5019 H 485.42 0.594398 -1.85615 0
M  V30 5020 H 484.516 2.03417 -2.36702 0
M  V30 5021 N 484.817 1.37938 0.762283 0
M  V30 5022 C 486.063 1.33866 1.52341 0
M  V30 5023 C 486.396 -0.0738961 1.94059 0
M  V30 5024 O 485.671 -1.03326 1.64785 0
M  V30 5025 C 485.954 2.28644 2.78197 0
M  V30 5026 C 485.807 3.78722 2.42672 0
M  V30 5027 C 487.126 2.21702 3.80179 0
M  V30 5028 H 484.245 0.487593 0.55265 0
M  V30 5029 H 486.887 1.68717 0.873767 0
M  V30 5030 H 485.037 1.99055 3.33631 0
M  V30 5031 H 486.709 4.18948 1.93081 0
M  V30 5032 H 484.952 3.96827 1.75244 0
M  V30 5033 H 485.623 4.40486 3.3268 0
M  V30 5034 H 488.099 2.47805 3.34263 0
M  V30 5035 H 486.975 2.90143 4.65949 0
M  V30 5036 H 487.236 1.21301 4.25133 0
M  V30 5037 N 486.295 -0.989507 1.22664 0
M  V30 5038 C 487.541 -1.7321 1.05481 0
M  V30 5039 C 487.874 -1.89852 -0.408635 0
M  V30 5040 O 487.149 -1.44416 -1.30285 0
M  V30 5041 C 487.432 -3.1357 1.77047 0
M  V30 5042 C 487.285 -3.04555 3.31008 0
M  V30 5043 C 488.604 -4.12812 1.5256 0
M  V30 5044 H 485.723 -0.628697 0.384589 0
M  V30 5045 H 488.365 -1.15258 1.51049 0
M  V30 5046 H 486.515 -3.63046 1.3831 0
M  V30 5047 H 488.187 -2.62674 3.7921 0
M  V30 5048 H 486.43 -2.41278 3.6051 0
M  V30 5049 H 487.101 -4.03894 3.76263 0
M  V30 5050 H 489.577 -3.72106 1.86215 0
M  V30 5051 H 488.453 -5.09132 2.05124 0
M  V30 5052 H 488.714 -4.39711 0.458936 0
M  V30 5053 N 487.773 -1.03688 -1.18687 0
M  V30 5054 C 488.723 -0.595067 -2.20098 0
M  V30 5055 C 489.707 0.360465 -1.5681 0
M  V30 5056 O 490.899 0.180136 -1.76081 0
M  V30 5057 C 488.028 0.0444495 -3.43271 0
M  V30 5058 C 487.114 -0.934002 -4.13687 0
M  V30 5059 N 487.505 -2.09957 -4.60165 0
M  V30 5060 C 485.803 -0.759177 -4.39491 0
M  V30 5061 C 486.504 -2.71735 -5.1433 0
M  V30 5062 N 485.48 -1.99638 -5.05614 0
M  V30 5063 H 489.282 -1.48336 -2.5372 0
M  V30 5064 H 486.796 -0.904949 -1.3485 0
M  V30 5065 H 488.793 0.37864 -4.15177 0
M  V30 5066 H 487.453 0.928325 -3.11147 0
M  V30 5067 H 488.464 -2.47863 -4.54735 0
M  V30 5068 H 485.141 0.0749292 -4.17433 0
M  V30 5069 H 486.531 -3.70492 -5.60523 0
M  V30 5070 N 489.251 1.34841 -0.815825 0
M  V30 5071 C 490.491 2.00321 -0.406297 0
M  V30 5072 C 490.855 1.63293 1.00992 0
M  V30 5073 O 492.056 2.21563 1.52195 0
M  V30 5074 C 490.327 3.52421 -0.594469 0
M  V30 5075 S 491.886 4.37926 -0.276735 0
M  V30 5076 H 488.704 0.694155 -0.153848 0
M  V30 5077 H 491.306 1.64263 -1.06009 0
M  V30 5078 H 490.01 3.76858 -1.625 0
M  V30 5079 H 489.541 3.9333 0.0743157 0
M  V30 5080 H 491.556 4.87743 0.912215 0
M  V30 5081 N 490.729 0.570148 1.46925 0
M  V30 5082 C 491.659 -0.158274 2.32963 0
M  V30 5083 C 492.64 -0.896093 1.44583 0
M  V30 5084 O 493.825 -0.874022 1.7342 0
M  V30 5085 C 490.955 -1.18055 3.26619 0
M  V30 5086 C 489.909 -0.558379 4.24342 0
M  V30 5087 C 489.235 -1.68623 5.07415 0
M  V30 5088 C 490.535 0.496295 5.19937 0
M  V30 5089 H 492.229 0.560046 2.94115 0
M  V30 5090 H 489.775 0.270775 1.41431 0
M  V30 5091 H 491.728 -1.69841 3.85658 0
M  V30 5092 H 490.452 -1.92899 2.63548 0
M  V30 5093 H 489.111 -0.0617157 3.66548 0
M  V30 5094 H 488.759 -2.42402 4.40738 0
M  V30 5095 H 488.459 -1.27564 5.73586 0
M  V30 5096 H 489.983 -2.20709 5.69315 0
M  V30 5097 H 491.397 0.0640052 5.73264 0
M  V30 5098 H 489.794 0.82649 5.94381 0
M  V30 5099 H 490.864 1.38735 4.6463 0
M  V30 5100 N 492.207 -1.54576 0.307264 0
M  V30 5101 C 493.139 -2.21212 -0.599807 0
M  V30 5102 C 494.152 -1.20685 -1.09266 0
M  V30 5103 O 495.341 -1.47244 -1.00903 0
M  V30 5104 C 492.441 -2.84994 -1.83389 0
M  V30 5105 C 491.614 -4.11511 -1.48248 0
M  V30 5106 C 490.673 -4.59038 -2.57237 0
M  V30 5107 O 489.699 -5.24095 -2.22065 0
M  V30 5108 N 490.901 -4.31884 -3.87887 0
M  V30 5109 H 493.666 -2.99686 -0.0293075 0
M  V30 5110 H 491.227 -1.61379 0.129738 0
M  V30 5111 H 493.219 -3.1372 -2.5566 0
M  V30 5112 H 491.789 -2.10324 -2.31263 0
M  V30 5113 H 491.009 -3.89728 -0.592122 0
M  V30 5114 H 492.297 -4.93879 -1.22316 0
M  V30 5115 H 491.695 -3.79778 -4.19268 0
M  V30 5116 H 490.252 -4.65304 -4.56438 0
M  V30 5117 N 493.685 -0.035106 -1.57561 0
M  V30 5118 C 494.595 0.960295 -2.14046 0
M  V30 5119 C 495.611 1.3529 -1.0942 0
M  V30 5120 O 496.787 1.43309 -1.41508 0
M  V30 5121 C 493.852 2.22214 -2.66124 0
M  V30 5122 C 492.913 1.8894 -3.85487 0
M  V30 5123 C 492.146 3.09109 -4.35072 0
M  V30 5124 O 492.369 4.21963 -3.83802 0
M  V30 5125 O 491.303 2.91058 -5.26848 0
M  V30 5126 H 495.129 0.509983 -2.99387 0
M  V30 5127 H 492.714 0.185853 -1.48239 0
M  V30 5128 H 494.596 2.96279 -2.99661 0
M  V30 5129 H 493.271 2.66414 -1.83862 0
M  V30 5130 H 492.178 1.12241 -3.56865 0
M  V30 5131 H 493.511 1.49551 -4.6893 0
M  V30 5132 N 495.163 1.55791 0.238111 0
M  V30 5133 C 496.409 1.78297 0.966337 0
M  V30 5134 C 496.742 0.601903 1.84637 0
M  V30 5135 O 496.017 -0.399499 1.90353 0
M  V30 5136 C 496.3 3.10758 1.81939 0
M  V30 5137 C 496.153 4.39283 0.966958 0
M  V30 5138 C 497.472 3.39519 2.80027 0
M  V30 5139 H 494.591 0.648654 0.349882 0
M  V30 5140 H 497.233 1.88525 0.236253 0
M  V30 5141 H 495.383 3.02168 2.44185 0
M  V30 5142 H 497.055 4.59873 0.362514 0
M  V30 5143 H 495.298 4.32948 0.271669 0
M  V30 5144 H 495.969 5.28368 1.59784 0
M  V30 5145 H 498.445 3.48128 2.27917 0
M  V30 5146 H 497.321 4.33402 3.36829 0
M  V30 5147 H 497.582 2.60864 3.56934 0
M  V30 5148 N 496.642 -0.504142 1.49319 0
M  V30 5149 C 497.572 -1.61473 1.68667 0
M  V30 5150 C 498.553 -1.61455 0.535378 0
M  V30 5151 O 499.738 -1.78245 0.770868 0
M  V30 5152 C 496.868 -2.99971 1.75028 0
M  V30 5153 C 495.822 -3.14854 2.89916 0
M  V30 5154 C 495.148 -4.54671 2.81387 0
M  V30 5155 C 496.448 -2.95176 4.30893 0
M  V30 5156 H 498.142 -1.45535 2.61648 0
M  V30 5157 H 495.688 -0.698711 1.25913 0
M  V30 5158 H 497.641 -3.77562 1.8715 0
M  V30 5159 H 496.365 -3.1699 0.786441 0
M  V30 5160 H 495.024 -2.39687 2.77391 0
M  V30 5161 H 494.672 -4.68562 1.82917 0
M  V30 5162 H 494.372 -4.6557 3.58494 0
M  V30 5163 H 495.896 -5.34327 2.95512 0
M  V30 5164 H 497.31 -3.62538 4.44116 0
M  V30 5165 H 495.707 -3.17549 5.09198 0
M  V30 5166 H 496.777 -1.91332 4.45556 0
M  V30 5167 N 498.12 -1.38341 -0.754957 0
M  V30 5168 C 499.067 -1.3546 -1.86867 0
M  V30 5169 C 500.037 -0.217369 -1.64672 0
M  V30 5170 O 501.222 -0.409383 -1.86356 0
M  V30 5171 C 498.362 -1.18413 -3.24149 0
M  V30 5172 C 497.475 -2.41511 -3.58185 0
M  V30 5173 C 496.61 -2.17205 -4.84763 0
M  V30 5174 C 495.649 -3.36081 -5.11582 0
M  V30 5175 N 494.786 -3.11219 -6.29354 0
M  V30 5176 H 499.626 -2.30672 -1.88664 0
M  V30 5177 H 497.163 -1.14607 -0.922154 0
M  V30 5178 H 499.121 -1.06545 -4.03366 0
M  V30 5179 H 497.751 -0.268397 -3.21682 0
M  V30 5180 H 496.803 -2.64056 -2.73822 0
M  V30 5181 H 498.115 -3.30115 -3.73932 0
M  V30 5182 H 497.269 -2.02465 -5.7192 0
M  V30 5183 H 496.008 -1.25964 -4.71152 0
M  V30 5184 H 495.013 -3.51341 -4.22894 0
M  V30 5185 H 496.238 -4.28196 -5.27091 0
M  V30 5186 H 494.184 -2.22624 -6.17069 0
M  V30 5187 H 494.101 -3.93373 -6.45596 0
M  V30 5188 H 495.369 -3.00132 -7.19403 0
M  V30 5189 N 499.598 0.982988 -1.23187 0
M  V30 5190 C 500.875 1.69814 -0.970707 0
M  V30 5191 C 501.255 2.04811 0.511424 0
M  V30 5192 O 500.603 1.73924 1.48198 0
M  V30 5193 C 500.813 2.94143 -1.87831 0
M  V30 5194 C 502.161 3.66712 -2.14026 0
M  V30 5195 O 503.185 3.04171 -1.8536 0
M  V30 5196 O 502.044 4.79258 -2.62629 0
M  V30 5197 H 499.138 0.741659 -0.365884 0
M  V30 5198 H 501.684 1.03844 -1.34218 0
M  V30 5199 H 500.456 2.64858 -2.88038 0
M  V30 5200 H 500.079 3.6785 -1.50905 0
M  V30 5201 N 501.076 1.04316 1.18135 0
M  V30 5202 C 502.306 0.767003 1.91835 0
M  V30 5203 C 502.714 -0.68002 1.76557 0
M  V30 5204 O 502.057 -1.47548 1.09432 0
M  V30 5205 C 502.119 1.05674 3.43618 0
M  V30 5206 C 501.783 2.49818 3.82675 0
M  V30 5207 C 502.78 3.48003 3.86251 0
M  V30 5208 C 500.465 2.84596 4.13897 0
M  V30 5209 C 502.459 4.79016 4.20503 0
M  V30 5210 C 500.146 4.15813 4.4782 0
M  V30 5211 C 501.144 5.12834 4.51099 0
M  V30 5212 O 500.832 6.41699 4.84229 0
M  V30 5213 H 500.564 0.278948 0.615763 0
M  V30 5214 H 503.118 1.3946 1.50798 0
M  V30 5215 H 501.348 0.372029 3.84906 0
M  V30 5216 H 503.037 0.767994 3.98568 0
M  V30 5217 H 503.803 3.22475 3.62264 0
M  V30 5218 H 499.682 2.09748 4.1052 0
M  V30 5219 H 503.226 5.54739 4.22978 0
M  V30 5220 H 499.123 4.41109 4.71268 0
M  V30 5221 H 499.891 6.46387 5.02121 0
M  V30 5222 N 502.554 -1.34406 0.822964 0
M  V30 5223 C 503.784 -2.02214 0.423424 0
M  V30 5224 C 504.192 -1.62124 -0.975322 0
M  V30 5225 O 503.535 -0.822452 -1.6426 0
M  V30 5226 C 503.597 -3.56721 0.446107 0
M  V30 5227 C 503.261 -4.20136 1.79819 0
M  V30 5228 C 504.258 -4.4065 2.75904 0
M  V30 5229 C 501.943 -4.56906 2.08669 0
M  V30 5230 C 503.937 -4.9706 3.99012 0
M  V30 5231 C 501.624 -5.13026 3.32036 0
M  V30 5232 C 502.622 -5.33047 4.27024 0
M  V30 5233 O 502.31 -5.87979 5.48211 0
M  V30 5234 H 502.042 -0.654748 0.168169 0
M  V30 5235 H 504.596 -1.72659 1.11257 0
M  V30 5236 H 502.826 -3.85537 -0.299734 0
M  V30 5237 H 504.515 -4.05845 0.0666114 0
M  V30 5238 H 505.281 -4.12607 2.54912 0
M  V30 5239 H 501.16 -4.40626 1.35535 0
M  V30 5240 H 504.704 -5.12603 4.73164 0
M  V30 5241 H 500.601 -5.40498 3.52891 0
M  V30 5242 H 501.369 -6.06413 5.49732 0
M  V30 5243 N 504.032 -0.577932 -1.46621 0
M  V30 5244 C 505.26 -0.0671642 -2.06791 0
M  V30 5245 C 505.675 1.23571 -1.42743 0
M  V30 5246 O 505.032 1.74602 -0.531062 0
M  V30 5247 C 505.083 0.110357 -3.61332 0
M  V30 5248 O 504.804 -1.14095 -4.22982 0
M  V30 5249 C 506.305 0.656025 -4.38419 0
M  V30 5250 H 503.525 -0.0552732 -0.66872 0
M  V30 5251 H 506.069 -0.797242 -1.8832 0
M  V30 5252 H 504.224 0.790637 -3.79246 0
M  V30 5253 H 504.638 -0.951742 -5.15793 0
M  V30 5254 H 506.112 0.729438 -5.47159 0
M  V30 5255 H 506.589 1.67195 -4.06131 0
M  V30 5256 H 507.195 0.0107692 -4.25299 0
M  V30 5257 N 505.51 1.54411 -0.315457 0
M  V30 5258 C 506.44 2.27002 0.547039 0
M  V30 5259 C 507.421 1.27492 1.12605 0
M  V30 5260 O 508.606 1.5629 1.15269 0
M  V30 5261 C 505.736 3.02171 1.71201 0
M  V30 5262 C 504.69 4.0895 1.26268 0
M  V30 5263 C 504.016 4.71915 2.51396 0
M  V30 5264 C 505.316 5.20891 0.383419 0
M  V30 5265 H 507.01 2.99343 -0.0584517 0
M  V30 5266 H 504.556 1.4397 -0.0295527 0
M  V30 5267 H 506.509 3.51681 2.32161 0
M  V30 5268 H 505.233 2.27433 2.34397 0
M  V30 5269 H 503.892 3.60312 0.676062 0
M  V30 5270 H 503.54 3.93801 3.12937 0
M  V30 5271 H 503.24 5.44039 2.22026 0
M  V30 5272 H 504.764 5.24195 3.13133 0
M  V30 5273 H 506.178 5.66206 0.899082 0
M  V30 5274 H 504.575 5.99821 0.182857 0
M  V30 5275 H 505.645 4.81324 -0.587821 0
M  V30 5276 N 506.988 0.0434614 1.5754 0
M  V30 5277 C 508.234 -0.632971 1.92669 0
M  V30 5278 C 508.567 -1.70947 0.921446 0
M  V30 5279 O 507.842 -1.94426 -0.0537202 0
M  V30 5280 C 508.125 -1.23619 3.38216 0
M  V30 5281 C 507.978 -0.168274 4.49485 0
M  V30 5282 C 509.297 -2.15008 3.84005 0
M  V30 5283 H 506.416 -0.228629 0.700641 0
M  V30 5284 H 509.058 0.103651 1.89717 0
M  V30 5285 H 507.208 -1.864 3.40863 0
M  V30 5286 H 508.88 0.463196 4.58969 0
M  V30 5287 H 507.123 0.504581 4.30855 0
M  V30 5288 H 507.794 -0.630218 5.48391 0
M  V30 5289 H 510.27 -1.62198 3.83185 0
M  V30 5290 H 509.146 -2.54161 4.86511 0
M  V30 5291 H 509.407 -3.04707 3.20322 0
M  V30 5292 N 508.466 -1.55915 -0.229846 0
M  V30 5293 C 509.743 -1.6932 -0.979295 0
M  V30 5294 C 510.123 -0.588321 -2.02736 0
M  V30 5295 O 509.471 0.40586 -2.24867 0
M  V30 5296 C 509.681 -3.10305 -1.59724 0
M  V30 5297 C 511.029 -3.6945 -2.09264 0
M  V30 5298 O 512.053 -3.13214 -1.69633 0
M  V30 5299 O 510.912 -4.68072 -2.82082 0
M  V30 5300 H 508.006 -0.689314 -0.456919 0
M  V30 5301 H 510.552 -1.68238 -0.222283 0
M  V30 5302 H 509.324 -3.82177 -0.840039 0
M  V30 5303 H 508.947 -3.1547 -2.42001 0
M  V30 5304 N 509.944 0.496216 -1.49584 0
M  V30 5305 C 511.36 0.827814 -1.36453 0
M  V30 5306 C 511.56 1.97464 -0.401285 0
M  V30 5307 O 510.616 2.51958 0.165296 0
M  V30 5308 C 511.929 1.16352 -2.77277 0
M  V30 5309 C 513.477 1.27145 -2.86013 0
M  V30 5310 C 513.952 1.64042 -4.27615 0
M  V30 5311 N 515.443 1.71082 -4.30448 0
M  V30 5312 C 516.178 2.01085 -5.36984 0
M  V30 5313 N 515.674 2.2928 -6.5376 0
M  V30 5314 N 517.467 2.02376 -5.24405 0
M  V30 5315 H 509.618 -0.259947 -2.10803 0
M  V30 5316 H 511.881 -0.0537163 -0.946477 0
M  V30 5317 H 511.587 0.394153 -3.49484 0
M  V30 5318 H 511.461 2.10582 -3.12946 0
M  V30 5319 H 513.848 2.03152 -2.1404 0
M  V30 5320 H 513.929 0.309542 -2.5392 0
M  V30 5321 H 513.573 0.88583 -5.00115 0
M  V30 5322 H 513.503 2.6134 -4.57175 0
M  V30 5323 H 515.994 1.51434 -3.46232 0
M  V30 5324 H 516.307 2.51376 -7.30774 0
M  V30 5325 H 514.652 2.26726 -6.56978 0
M  V30 5326 H 517.843 1.79829 -4.32179 0
M  V30 5327 H 518.016 2.25425 -6.07526 0
M  V30 5328 N 511.423 1.38739 0.74761 0
M  V30 5329 C 512.669 1.35475 1.50912 0
M  V30 5330 C 513.002 -0.0533093 1.94127 0
M  V30 5331 O 512.277 -1.01572 1.65871 0
M  V30 5332 C 512.56 2.31582 2.75757 0
M  V30 5333 C 512.413 3.81274 2.38642 0
M  V30 5334 C 513.732 2.25722 3.77806 0
M  V30 5335 H 510.851 0.493427 0.547447 0
M  V30 5336 H 513.493 1.69634 0.855823 0
M  V30 5337 H 511.643 2.02582 3.31501 0
M  V30 5338 H 513.315 4.20972 1.88626 0
M  V30 5339 H 511.558 3.98664 1.71025 0
M  V30 5340 H 512.229 4.4399 3.27989 0
M  V30 5341 H 514.705 2.51336 3.31616 0
M  V30 5342 H 513.581 2.95069 4.62845 0
M  V30 5343 H 513.842 1.25803 4.23823 0
M  V30 5344 N 512.901 -0.976442 1.23707 0
M  V30 5345 C 514.312 -1.53284 1.06587 0
M  V30 5346 C 514.663 -1.92765 -0.365526 0
M  V30 5347 O 513.788 -1.7645 -1.25277 0
M  V30 5348 C 514.383 -2.78548 1.92864 0
M  V30 5349 C 512.942 -3.30574 1.79994 0
M  V30 5350 C 512.089 -2.03538 1.88328 0
M  V30 5351 H 515.04 -0.795692 1.37311 0
M  V30 5352 H 515.061 -3.5155 1.45577 0
M  V30 5353 H 514.573 -2.49782 2.97037 0
M  V30 5354 H 512.674 -3.64211 0.786202 0
M  V30 5355 H 512.787 -4.00065 2.636 0
M  V30 5356 H 511.151 -2.17853 1.31954 0
M  V30 5357 H 511.934 -1.77149 2.94063 0
M  V30 5358 N 514.379 -1.04941 -1.1758 0
M  V30 5359 C 515.607 -0.778294 -1.91703 0
M  V30 5360 C 516.022 0.665697 -1.76675 0
M  V30 5361 O 515.379 1.45456 -1.10222 0
M  V30 5362 C 515.43 -1.14628 -3.42845 0
M  V30 5363 O 515.151 -2.53359 -3.57409 0
M  V30 5364 C 516.652 -0.900931 -4.34049 0
M  V30 5365 H 513.872 -0.283167 -0.608323 0
M  V30 5366 H 516.416 -1.39942 -1.49119 0
M  V30 5367 H 514.571 -0.569953 -3.83184 0
M  V30 5368 H 514.985 -2.67709 -4.51035 0
M  V30 5369 H 516.459 -1.20817 -5.38616 0
M  V30 5370 H 516.936 0.163966 -4.38894 0
M  V30 5371 H 517.542 -1.46097 -3.99419 0
M  V30 5372 N 515.857 1.33968 -0.830081 0
M  V30 5373 C 516.787 2.31911 -0.271911 0
M  V30 5374 C 517.768 1.58571 0.61556 0
M  V30 5375 O 518.953 1.86514 0.540946 0
M  V30 5376 C 516.083 3.42737 0.561146 0
M  V30 5377 C 515.037 4.27383 -0.229789 0
M  V30 5378 C 514.363 5.29742 0.726463 0
M  V30 5379 C 515.663 5.02 -1.44197 0
M  V30 5380 H 517.357 2.78844 -1.09025 0
M  V30 5381 H 514.903 1.34061 -0.52571 0
M  V30 5382 H 516.856 4.10276 0.961867 0
M  V30 5383 H 515.58 2.94471 1.41261 0
M  V30 5384 H 514.239 3.61456 -0.611964 0
M  V30 5385 H 513.887 4.77736 1.57408 0
M  V30 5386 H 513.587 5.87255 0.20142 0
M  V30 5387 H 515.111 6.00149 1.12489 0
M  V30 5388 H 516.525 5.62355 -1.11488 0
M  V30 5389 H 514.922 5.69122 -1.90317 0
M  V30 5390 H 515.992 4.31281 -2.2164 0
M  V30 5391 N 517.335 0.585699 1.46312 0
M  V30 5392 C 518.265 -0.133556 2.33118 0
M  V30 5393 C 519.246 -0.880707 1.45525 0
M  V30 5394 O 520.431 -0.855579 1.74337 0
M  V30 5395 C 517.561 -1.14585 3.27853 0
M  V30 5396 C 516.515 -0.513341 4.2491 0
M  V30 5397 C 515.841 -1.63231 5.09175 0
M  V30 5398 C 517.141 0.551413 5.19381 0
M  V30 5399 H 518.835 0.59121 2.93505 0
M  V30 5400 H 516.381 0.285761 1.41136 0
M  V30 5401 H 518.334 -1.65741 3.87438 0
M  V30 5402 H 517.058 -1.90093 2.65579 0
M  V30 5403 H 515.717 -0.0228349 3.66593 0
M  V30 5404 H 515.365 -2.37713 4.43285 0
M  V30 5405 H 515.065 -1.21473 5.74907 0
M  V30 5406 H 516.589 -2.14658 5.71624 0
M  V30 5407 H 518.003 0.124804 5.73164 0
M  V30 5408 H 516.4 0.889486 5.93471 0
M  V30 5409 H 517.47 1.43655 4.63132 0
M  V30 5410 N 518.813 -1.54241 0.323641 0
M  V30 5411 C 519.745 -2.21836 -0.576311 0
M  V30 5412 C 520.758 -1.21837 -1.07979 0
M  V30 5413 O 521.947 -1.48306 -0.99336 0
M  V30 5414 C 519.047 -2.86923 -1.80356 0
M  V30 5415 C 518.22 -4.1306 -1.43875 0
M  V30 5416 C 517.279 -4.6174 -2.52353 0
M  V30 5417 O 516.305 -5.26421 -2.16494 0
M  V30 5418 N 517.507 -4.35974 -3.83284 0
M  V30 5419 H 520.272 -2.997 0.00247987 0
M  V30 5420 H 517.833 -1.61233 0.146848 0
M  V30 5421 H 519.825 -3.16414 -2.52318 0
M  V30 5422 H 518.395 -2.12765 -2.29019 0
M  V30 5423 H 517.615 -3.90334 -0.550752 0
M  V30 5424 H 518.903 -4.95148 -1.17071 0
M  V30 5425 H 518.301 -3.84203 -4.15216 0
M  V30 5426 H 516.858 -4.70119 -4.51477 0
M  V30 5427 N 520.291 -0.0518155 -1.57515 0
M  V30 5428 C 521.241 0.932017 -2.0808 0
M  V30 5429 C 522.225 1.27141 -0.986098 0
M  V30 5430 O 523.417 1.25373 -1.24943 0
M  V30 5431 C 520.546 2.20665 -2.62986 0
M  V30 5432 C 519.632 1.89462 -3.79427 0
M  V30 5433 N 520.023 1.28621 -4.89173 0
M  V30 5434 C 518.321 2.19327 -3.88345 0
M  V30 5435 C 519.022 1.15062 -5.70207 0
M  V30 5436 N 517.998 1.65372 -5.17835 0
M  V30 5437 H 521.8 0.456964 -2.90326 0
M  V30 5438 H 519.314 0.152619 -1.61681 0
M  V30 5439 H 521.311 2.92044 -2.97516 0
M  V30 5440 H 519.971 2.68776 -1.8218 0
M  V30 5441 H 520.982 0.958341 -5.08956 0
M  V30 5442 H 517.659 2.69955 -3.18482 0
M  V30 5443 H 519.049 0.678243 -6.68468 0
M  V30 5444 N 521.769 1.56035 0.221574 0
M  V30 5445 C 522.699 1.95434 1.2778 0
M  V30 5446 C 523.68 0.822564 1.48889 0
M  V30 5447 O 524.865 1.08486 1.61072 0
M  V30 5448 C 521.995 2.27102 2.62759 0
M  V30 5449 C 520.949 3.4277 2.56306 0
M  V30 5450 C 520.275 3.60043 3.95314 0
M  V30 5451 C 521.575 4.77742 2.11093 0
M  V30 5452 H 523.269 2.83912 0.950504 0
M  V30 5453 H 520.815 1.36596 0.455791 0
M  V30 5454 H 522.768 2.53256 3.36807 0
M  V30 5455 H 521.492 1.35478 2.97176 0
M  V30 5456 H 520.151 3.16664 1.84715 0
M  V30 5457 H 519.799 2.65794 4.27039 0
M  V30 5458 H 519.499 4.37841 3.91879 0
M  V30 5459 H 521.023 3.88545 4.71025 0
M  V30 5460 H 522.437 5.03102 2.74885 0
M  V30 5461 H 520.834 5.58823 2.18716 0
M  V30 5462 H 521.904 4.731 1.06321 0
M  V30 5463 N 523.247 -0.488276 1.49845 0
M  V30 5464 C 524.21 -1.57069 1.66919 0
M  V30 5465 C 525.21 -1.51445 0.540479 0
M  V30 5466 O 526.4 -1.5437 0.807188 0
M  V30 5467 C 523.532 -2.96718 1.67844 0
M  V30 5468 H 524.725 -1.43254 2.63474 0
M  V30 5469 H 522.278 -0.713435 1.39068 0
M  V30 5470 H 523.013 -3.15996 0.7292 0
M  V30 5471 H 522.798 -3.02208 2.49826 0
M  V30 5472 H 524.288 -3.75335 1.83066 0
M  V30 5473 N 524.725 -1.39134 -0.740242 0
M  V30 5474 C 525.95 -1.39518 -1.53459 0
M  V30 5475 C 526.375 0.00968883 -1.88098 0
M  V30 5476 O 525.733 0.995312 -1.51536 0
M  V30 5477 C 525.781 -2.26981 -2.802 0
M  V30 5478 O 524.885 -1.69609 -3.75908 0
M  V30 5479 H 524.226 -0.475328 -0.463637 0
M  V30 5480 H 526.756 -1.83064 -0.913717 0
M  V30 5481 H 526.766 -2.41309 -3.28989 0
M  V30 5482 H 525.441 -3.29081 -2.5432 0
M  V30 5483 H 524.018 -1.64495 -3.34658 0
M  V30 5484 N 526.204 0.969867 -1.24223 0
M  V30 5485 C 527.137 2.06279 -0.975926 0
M  V30 5486 C 528.115 1.62353 0.0895385 0
M  V30 5487 O 529.299 1.88442 -0.0469418 0
M  V30 5488 C 526.426 3.35391 -0.472315 0
M  V30 5489 C 525.472 3.98266 -1.526 0
M  V30 5490 S 526.305 4.36172 -3.10667 0
M  V30 5491 C 527.461 5.68423 -2.62003 0
M  V30 5492 H 527.694 2.28551 -1.90137 0
M  V30 5493 H 525.227 1.10748 -1.07584 0
M  V30 5494 H 527.185 4.10068 -0.188376 0
M  V30 5495 H 525.846 3.1111 0.432378 0
M  V30 5496 H 525.039 4.91307 -1.12399 0
M  V30 5497 H 524.641 3.30009 -1.75983 0
M  V30 5498 H 526.933 6.45842 -2.0468 0
M  V30 5499 H 527.876 6.13478 -3.53625 0
M  V30 5500 H 528.284 5.26928 -2.02502 0
M  V30 5501 N 527.682 1.05563 1.17022 0
M  V30 5502 C 528.959 0.68165 1.83338 0
M  V30 5503 C 529.339 -0.837665 1.93769 0
M  V30 5504 O 528.687 -1.74507 1.47511 0
M  V30 5505 C 528.897 1.375 3.20772 0
M  V30 5506 C 530.245 1.51545 3.96635 0
M  V30 5507 O 531.269 1.33431 3.30264 0
M  V30 5508 O 530.128 1.812 5.15586 0
M  V30 5509 H 527.222 0.240412 0.791285 0
M  V30 5510 H 529.768 1.15545 1.24288 0
M  V30 5511 H 528.54 2.41135 3.08171 0
M  V30 5512 H 528.163 0.890798 3.87493 0
M  V30 5513 N 529.16 -1.33526 0.837174 0
M  V30 5514 C 530.407 -1.97837 0.432064 0
M  V30 5515 C 530.735 -1.66324 -1.00829 0
M  V30 5516 O 529.99 -0.93448 -1.71948 0
M  V30 5517 C 530.289 -3.52367 0.597675 0
M  V30 5518 C 529.955 -4.03826 2.00587 0
M  V30 5519 C 528.617 -4.1759 2.39106 0
M  V30 5520 C 530.969 -4.31333 2.92576 0
M  V30 5521 C 528.297 -4.56195 3.68921 0
M  V30 5522 C 530.649 -4.7139 4.2187 0
M  V30 5523 C 529.313 -4.8336 4.60347 0
M  V30 5524 H 528.583 -0.723937 0.158104 0
M  V30 5525 H 531.23 -1.5923 1.06387 0
M  V30 5526 H 529.535 -3.91624 -0.117452 0
M  V30 5527 H 531.232 -4.00126 0.26454 0
M  V30 5528 H 527.822 -3.93586 1.69671 0
M  V30 5529 H 532.006 -4.20224 2.64056 0
M  V30 5530 H 527.262 -4.63655 3.9854 0
M  V30 5531 H 531.436 -4.91631 4.93226 0
M  V30 5532 H 529.063 -5.1303 5.60985 0
M  V30 5533 N 530.638 -0.59345 -1.46 0
M  V30 5534 C 531.863 -0.0872365 -2.07216 0
M  V30 5535 C 532.288 1.2131 -1.43755 0
M  V30 5536 O 531.646 1.73528 -0.525152 0
M  V30 5537 C 531.694 0.0538197 -3.6056 0
M  V30 5538 O 530.798 1.10765 -3.97247 0
M  V30 5539 H 530.139 -0.0676598 -0.660544 0
M  V30 5540 H 532.669 -0.819445 -1.87473 0
M  V30 5541 H 532.679 0.256567 -4.07193 0
M  V30 5542 H 531.354 -0.895739 -4.0614 0
M  V30 5543 H 529.931 0.882501 -3.62307 0
M  V30 5544 N 532.116 1.54067 -0.331816 0
M  V30 5545 C 533.344 2.05131 0.269996 0
M  V30 5546 C 533.759 1.20749 1.45138 0
M  V30 5547 O 533.116 0.240069 1.80914 0
M  V30 5548 C 533.167 3.54728 0.696456 0
M  V30 5549 O 532.888 4.35906 -0.43794 0
M  V30 5550 C 534.389 4.21916 1.36021 0
M  V30 5551 H 531.609 0.668807 0.0542042 0
M  V30 5552 H 534.153 1.98777 -0.4804 0
M  V30 5553 H 532.308 3.61342 1.39681 0
M  V30 5554 H 532.722 5.24404 -0.100334 0
M  V30 5555 H 534.196 5.28015 1.60947 0
M  V30 5556 H 534.673 3.73538 2.31011 0
M  V30 5557 H 535.279 4.19463 0.702212 0
M  V30 5558 N 533.594 0.0601682 1.57485 0
M  V30 5559 C 534.84 -0.612501 1.93329 0
M  V30 5560 C 535.173 -1.6996 0.939526 0
M  V30 5561 O 534.448 -1.94472 -0.0330957 0
M  V30 5562 C 534.731 -1.20025 3.39508 0
M  V30 5563 C 534.584 -0.12059 4.49638 0
M  V30 5564 C 535.903 -2.10923 3.86264 0
M  V30 5565 H 533.022 -0.221185 0.703027 0
M  V30 5566 H 535.664 0.123768 1.89596 0
M  V30 5567 H 533.814 -1.82774 3.42821 0
M  V30 5568 H 535.486 0.51185 4.58452 0
M  V30 5569 H 533.729 0.550251 4.30296 0
M  V30 5570 H 534.4 -0.572019 5.49028 0
M  V30 5571 H 536.876 -1.58124 3.84884 0
M  V30 5572 H 535.752 -2.48987 4.8918 0
M  V30 5573 H 536.013 -3.01292 3.23536 0
M  V30 5574 N 535.072 -1.5615 -0.213296 0
M  V30 5575 C 536.318 -1.79812 -0.937849 0
M  V30 5576 C 536.651 -0.631201 -1.83656 0
M  V30 5577 O 535.926 0.369165 -1.90964 0
M  V30 5578 C 536.209 -3.13613 -1.76972 0
M  V30 5579 C 536.062 -4.40766 -0.89695 0
M  V30 5580 C 537.381 -3.43931 -2.7459 0
M  V30 5581 H 534.5 -0.654138 -0.339518 0
M  V30 5582 H 537.142 -1.88877 -0.20623 0
M  V30 5583 H 535.292 -3.06015 -2.39347 0
M  V30 5584 H 536.964 -4.60392 -0.289306 0
M  V30 5585 H 535.207 -4.33326 -0.202756 0
M  V30 5586 H 535.878 -5.30843 -1.51358 0
M  V30 5587 H 538.354 -3.5171 -2.22349 0
M  V30 5588 H 537.23 -4.38706 -3.29891 0
M  V30 5589 H 537.491 -2.6651 -3.52739 0
M  V30 5590 N 536.55 0.480323 -1.50102 0
M  V30 5591 C 537.775 1.26126 -1.64642 0
M  V30 5592 C 538.2 1.85257 -0.325823 0
M  V30 5593 O 537.558 1.66854 0.709194 0
M  V30 5594 C 537.606 2.35243 -2.73301 0
M  V30 5595 O 536.71 3.39646 -2.33911 0
M  V30 5596 H 536.051 0.371463 -0.550374 0
M  V30 5597 H 538.581 0.572696 -1.96421 0
M  V30 5598 H 538.591 2.80695 -2.96098 0
M  V30 5599 H 537.266 1.91574 -3.6915 0
M  V30 5600 H 535.843 2.99969 -2.21525 0
M  V30 5601 N 538.028 1.39524 0.732853 0
M  V30 5602 C 538.938 1.40695 1.87729 0
M  V30 5603 C 539.954 0.301496 1.71368 0
M  V30 5604 O 541.13 0.543313 1.93933 0
M  V30 5605 C 538.195 1.25098 3.23344 0
M  V30 5606 C 537.256 2.45634 3.52083 0
M  V30 5607 C 536.489 2.30772 4.81228 0
M  V30 5608 O 536.712 1.31233 5.55098 0
M  V30 5609 O 535.646 3.19799 5.09914 0
M  V30 5610 H 539.472 2.37168 1.89697 0
M  V30 5611 H 537.057 1.20663 0.880959 0
M  V30 5612 H 538.939 1.18541 4.04383 0
M  V30 5613 H 537.614 0.317209 3.22142 0
M  V30 5614 H 536.521 2.57767 2.71122 0
M  V30 5615 H 537.854 3.37712 3.58066 0
M  V30 5616 N 539.506 -0.963266 1.24736 0
M  V30 5617 C 540.416 -2.09246 1.06082 0
M  V30 5618 C 541.432 -1.74 0.000363101 0
M  V30 5619 O 542.608 -2.0041 0.199479 0
M  V30 5620 C 539.673 -3.40115 0.672498 0
M  V30 5621 C 538.734 -3.89282 1.80993 0
M  V30 5622 C 537.967 -5.13905 1.44004 0
M  V30 5623 O 538.19 -5.69434 0.331835 0
M  V30 5624 O 537.124 -5.57566 2.26723 0
M  V30 5625 H 540.95 -2.27881 2.00759 0
M  V30 5626 H 538.535 -1.07649 1.03595 0
M  V30 5627 H 540.417 -4.18797 0.467668 0
M  V30 5628 H 539.092 -3.22771 -0.245102 0
M  V30 5629 H 537.999 -3.11642 2.06955 0
M  V30 5630 H 539.332 -4.1111 2.70646 0
M  V30 5631 N 540.985 -1.06182 -1.16461 0
M  V30 5632 C 542.262 -0.691364 -1.82974 0
M  V30 5633 C 542.642 0.827377 -1.9421 0
M  V30 5634 O 541.99 1.73723 -1.48434 0
M  V30 5635 C 542.2 -1.39199 -3.20038 0
M  V30 5636 C 543.548 -1.53647 -3.95825 0
M  V30 5637 O 544.572 -1.35181 -3.29552 0
M  V30 5638 O 543.431 -1.83932 -5.14618 0
M  V30 5639 H 540.525 -0.244605 -0.789998 0
M  V30 5640 H 543.071 -1.16203 -1.23673 0
M  V30 5641 H 541.843 -2.42766 -3.06888 0
M  V30 5642 H 541.466 -0.911335 -3.87015 0
M  V30 5643 N 542.463 1.3308 -0.844243 0
M  V30 5644 C 543.393 2.3161 -0.296493 0
M  V30 5645 C 544.374 1.59215 0.598707 0
M  V30 5646 O 545.559 1.87077 0.521134 0
M  V30 5647 C 542.689 3.43313 0.524762 0
M  V30 5648 C 541.643 4.27115 -0.275106 0
M  V30 5649 C 540.969 5.30483 0.670236 0
M  V30 5650 C 542.269 5.00443 -1.49514 0
M  V30 5651 H 543.963 2.77672 -1.11976 0
M  V30 5652 H 541.509 1.33496 -0.539899 0
M  V30 5653 H 543.462 4.11273 0.918298 0
M  V30 5654 H 542.186 2.95952 1.3813 0
M  V30 5655 H 540.845 3.60787 -0.650267 0
M  V30 5656 H 540.493 4.79379 1.52332 0
M  V30 5657 H 540.193 5.87435 0.139123 0
M  V30 5658 H 541.717 6.01308 1.06117 0
M  V30 5659 H 543.131 5.61141 -1.17447 0
M  V30 5660 H 541.528 5.67071 -1.96343 0
M  V30 5661 H 542.598 4.28906 -2.26202 0
M  V30 5662 N 543.941 0.601185 1.45683 0
M  V30 5663 C 545.187 0.0940202 2.02582 0
M  V30 5664 C 545.52 -1.26972 1.46941 0
M  V30 5665 O 544.795 -1.83613 0.641612 0
M  V30 5666 C 545.078 0.0481715 3.60068 0
M  V30 5667 C 544.931 1.44212 4.26055 0
M  V30 5668 C 546.25 -0.642975 4.35378 0
M  V30 5669 H 543.369 0.0356404 0.736138 0
M  V30 5670 H 546.011 0.771929 1.73612 0
M  V30 5671 H 544.161 -0.529128 3.8488 0
M  V30 5672 H 545.833 2.06601 4.12449 0
M  V30 5673 H 544.076 2.00465 3.84703 0
M  V30 5674 H 544.747 1.36234 5.34925 0
M  V30 5675 H 547.223 -0.152351 4.15821 0
M  V30 5676 H 546.099 -0.644141 5.45107 0
M  V30 5677 H 546.36 -1.70785 4.0778 0
M  V30 5678 N 545.419 -1.53889 0.339982 0
M  V30 5679 C 546.647 -2.05271 -0.259114 0
M  V30 5680 C 547.062 -1.21517 -1.44496 0
M  V30 5681 O 546.419 -0.24966 -1.80784 0
M  V30 5682 C 546.47 -3.55092 -0.677634 0
M  V30 5683 O 546.191 -4.35667 0.461051 0
M  V30 5684 C 547.692 -4.22631 -1.33782 0
M  V30 5685 H 544.912 -0.669085 -0.0506566 0
M  V30 5686 H 547.456 -1.9852 0.490935 0
M  V30 5687 H 545.611 -3.62077 -1.37763 0
M  V30 5688 H 546.025 -5.24343 0.128144 0
M  V30 5689 H 547.499 -5.28861 -1.58145 0
M  V30 5690 H 547.976 -3.74758 -2.29027 0
M  V30 5691 H 548.582 -4.19829 -0.679957 0
M  V30 5692 N 546.897 -0.0685191 -1.57451 0
M  V30 5693 C 547.844 0.899861 -2.12535 0
M  V30 5694 C 548.814 1.29749 -1.03703 0
M  V30 5695 O 549.999 1.38392 -1.31348 0
M  V30 5696 C 547.139 2.16328 -2.6888 0
M  V30 5697 C 546.252 1.81857 -3.91857 0
M  V30 5698 C 545.387 3.02786 -4.36457 0
M  V30 5699 C 544.426 2.64317 -5.5209 0
M  V30 5700 N 543.563 3.77994 -5.91663 0
M  V30 5701 H 548.403 0.423243 -2.94979 0
M  V30 5702 H 545.94 0.197268 -1.45771 0
M  V30 5703 H 547.898 2.90281 -2.99655 0
M  V30 5704 H 546.528 2.61536 -1.89206 0
M  V30 5705 H 545.58 0.979808 -3.67565 0
M  V30 5706 H 546.892 1.49553 -4.75852 0
M  V30 5707 H 546.046 3.85021 -4.68875 0
M  V30 5708 H 544.785 3.38281 -3.51308 0
M  V30 5709 H 543.79 1.80503 -5.19325 0
M  V30 5710 H 545.015 2.29995 -6.38967 0
M  V30 5711 H 542.961 4.13258 -5.09464 0
M  V30 5712 H 542.878 3.49447 -6.7039 0
M  V30 5713 H 544.146 4.60818 -6.28703 0
M  V30 5714 N 548.375 1.56261 0.205012 0
M  V30 5715 C 549.305 1.96779 1.257 0
M  V30 5716 C 550.286 0.838309 1.48008 0
M  V30 5717 O 551.471 1.10189 1.59913 0
M  V30 5718 C 548.601 2.29876 2.60335 0
M  V30 5719 C 547.555 3.45469 2.52656 0
M  V30 5720 C 546.881 3.64215 3.91473 0
M  V30 5721 C 548.181 4.79954 2.06014 0
M  V30 5722 H 549.875 2.84904 0.920338 0
M  V30 5723 H 547.421 1.37072 0.441277 0
M  V30 5724 H 549.374 2.56814 3.34102 0
M  V30 5725 H 548.098 1.38622 2.95722 0
M  V30 5726 H 546.757 3.18605 1.81345 0
M  V30 5727 H 546.405 2.70309 4.24196 0
M  V30 5728 H 546.105 4.41973 3.87213 0
M  V30 5729 H 547.629 3.93519 4.66878 0
M  V30 5730 H 549.043 5.05989 2.69533 0
M  V30 5731 H 547.44 5.61111 2.12777 0
M  V30 5732 H 548.51 4.74201 1.01297 0
M  V30 5733 N 549.853 -0.472356 1.50355 0
M  V30 5734 C 550.801 -1.59126 1.69651 0
M  V30 5735 C 551.795 -1.59793 0.56237 0
M  V30 5736 O 553.001 -1.63957 0.742832 0
M  V30 5737 H 549.376 -0.528008 0.535454 0
M  V30 5738 H 551.347 -1.40013 2.63513 0
M  V30 5739 C 550.096 -2.97075 1.8067 0
M  V30 5740 H 549.419 -2.9728 2.67329 0
M  V30 5741 H 550.859 -3.74825 1.98197 0
M  V30 5742 C 549.318 -3.32247 0.558016 0
M  V30 5743 O 549.848 -4.00553 -0.303399 0
M  V30 5744 N 548.054 -2.87659 0.412415 0
M  V30 5745 H 547.601 -2.32246 1.11443 0
M  V30 5746 H 547.559 -3.11556 -0.421908 0
M  V30 5747 N 551.331 -1.39911 -0.725443 0
M  V30 5748 C 552.294 -1.39156 -1.82121 0
M  V30 5749 C 553.294 -0.287018 -1.58218 0
M  V30 5750 O 554.484 -0.545421 -1.65441 0
M  V30 5751 C 551.616 -1.1736 -3.20062 0
M  V30 5752 H 552.809 -2.36672 -1.84191 0
M  V30 5753 H 550.362 -1.25615 -0.930079 0
M  V30 5754 H 551.097 -0.205648 -3.23647 0
M  V30 5755 H 550.882 -1.97358 -3.3881 0
M  V30 5756 H 552.372 -1.19596 -4.00108 0
M  V30 5757 N 552.809 0.956637 -1.25245 0
M  V30 5758 C 554.057 1.69764 -1.09657 0
M  V30 5759 C 554.378 1.91583 0.363464 0
M  V30 5760 O 553.648 1.50149 1.25825 0
M  V30 5761 H 552.228 0.629097 -0.402798 0
M  V30 5762 H 554.89 1.15026 -1.57337 0
M  V30 5763 H 553.986 2.67769 -1.60331 0
M  V30 5764 N 554.287 1.06798 1.15896 0
M  V30 5765 C 555.217 0.704677 2.22613 0
M  V30 5766 C 556.198 -0.305252 1.67339 0
M  V30 5767 O 557.383 -0.179247 1.93371 0
M  V30 5768 C 554.513 0.0957325 3.47168 0
M  V30 5769 C 553.467 1.0322 4.15367 0
M  V30 5770 C 552.793 0.286293 5.33933 0
M  V30 5771 C 554.093 2.36341 4.65768 0
M  V30 5772 H 555.787 1.59688 2.53259 0
M  V30 5773 H 553.333 0.769257 1.21731 0
M  V30 5774 H 555.286 -0.170333 4.21056 0
M  V30 5775 H 554.01 -0.831516 3.15838 0
M  V30 5776 H 552.669 1.28309 3.43413 0
M  V30 5777 H 552.317 -0.644237 4.98857 0
M  V30 5778 H 552.017 0.910436 5.80504 0
M  V30 5779 H 553.541 0.0278938 6.10594 0
M  V30 5780 H 554.955 2.1561 5.31211 0
M  V30 5781 H 553.352 2.94299 5.2298 0
M  V30 5782 H 554.422 2.99047 3.81705 0
M  V30 5783 N 555.766 -1.3263 0.851289 0
M  V30 5784 C 556.698 -2.27824 0.250757 0
M  V30 5785 C 557.711 -1.52285 -0.575598 0
M  V30 5786 O 558.9 -1.73946 -0.400638 0
M  V30 5787 C 556 -3.3232 -0.664571 0
M  V30 5788 C 555.173 -4.37221 0.125187 0
M  V30 5789 C 554.232 -5.21314 -0.715385 0
M  V30 5790 O 553.258 -5.69002 -0.150111 0
M  V30 5791 N 554.46 -5.43823 -2.03069 0
M  V30 5792 H 557.225 -2.79997 1.06873 0
M  V30 5793 H 554.786 -1.45455 0.710943 0
M  V30 5794 H 556.778 -3.85486 -1.23216 0
M  V30 5795 H 555.348 -2.80331 -1.38323 0
M  V30 5796 H 554.568 -3.84384 0.874199 0
M  V30 5797 H 555.856 -5.04399 0.667774 0
M  V30 5798 H 555.254 -5.06803 -2.51332 0
M  V30 5799 H 553.811 -5.99998 -2.54648 0
M  V30 5800 N 557.244 -0.608902 -1.45362 0
M  V30 5801 C 558.207 0.0992563 -2.28985 0
M  V30 5802 C 559.207 0.793841 -1.39838 0
M  V30 5803 O 560.397 0.641804 -1.61946 0
M  V30 5804 C 557.529 1.15073 -3.20891 0
M  V30 5805 H 558.722 -0.635964 -2.93079 0
M  V30 5806 H 556.275 -0.368007 -1.51906 0
M  V30 5807 H 557.01 1.91667 -2.616 0
M  V30 5808 H 556.795 0.656867 -3.86559 0
M  V30 5809 H 558.285 1.64665 -3.83765 0
M  V30 5810 N 558.722 1.53707 -0.348139 0
M  V30 5811 C 559.685 2.23812 0.494058 0
M  V30 5812 C 560.685 1.23989 1.02388 0
M  V30 5813 O 561.875 1.48395 0.912396 0
M  V30 5814 C 559.007 2.96133 1.68872 0
M  V30 5815 H 560.2 2.99663 -0.119141 0
M  V30 5816 H 557.753 1.55983 -0.0995539 0
M  V30 5817 H 558.488 2.24481 2.34049 0
M  V30 5818 H 558.273 3.69357 1.31596 0
M  V30 5819 H 559.763 3.49475 2.28597 0
M  V30 5820 N 560.2 0.0768682 1.57412 0
M  V30 5821 C 561.425 -0.603404 1.98428 0
M  V30 5822 C 561.85 -1.62047 0.955108 0
M  V30 5823 O 561.208 -1.81129 -0.0786778 0
M  V30 5824 C 561.256 -1.24396 3.38464 0
M  V30 5825 O 560.36 -2.35982 3.3821 0
M  V30 5826 H 559.701 -0.154741 0.645718 0
M  V30 5827 H 562.231 0.152885 2.04028 0
M  V30 5828 H 562.241 -1.5896 3.7576 0
M  V30 5829 H 560.916 -0.498735 4.12899 0
M  V30 5830 H 559.493 -2.03173 3.1269 0
M  V30 5831 N 561.678 -1.56367 -0.196722 0
M  V30 5832 C 562.588 -1.97617 -1.2643 0
M  V30 5833 C 563.604 -0.883598 -1.49895 0
M  V30 5834 O 564.78 -1.18921 -1.62541 0
M  V30 5835 C 561.845 -2.30595 -2.58895 0
M  V30 5836 C 560.906 -3.53551 -2.43516 0
M  V30 5837 C 560.139 -3.84946 -3.69665 0
M  V30 5838 O 560.362 -3.17655 -4.73763 0
M  V30 5839 O 559.296 -4.78379 -3.65291 0
M  V30 5840 H 563.122 -2.88648 -0.944233 0
M  V30 5841 H 560.707 -1.43901 -0.401592 0
M  V30 5842 H 562.589 -2.52889 -3.37083 0
M  V30 5843 H 561.264 -1.42732 -2.90533 0
M  V30 5844 H 560.171 -3.36507 -1.63445 0
M  V30 5845 H 561.504 -4.41875 -2.16812 0
M  V30 5846 N 563.156 0.464375 -1.50603 0
M  V30 5847 C 564.433 1.22549 -1.5245 0
M  V30 5848 C 564.813 2.09327 -0.273035 0
M  V30 5849 O 564.161 2.16074 0.743242 0
M  V30 5850 C 564.371 2.05074 -2.82393 0
M  V30 5851 C 565.719 2.63036 -3.33313 0
M  V30 5852 O 566.743 2.1531 -2.8376 0
M  V30 5853 O 565.602 3.5001 -4.19709 0
M  V30 5854 H 562.696 0.556471 -0.611775 0
M  V30 5855 H 565.242 0.475648 -1.62898 0
M  V30 5856 H 564.014 1.41169 -3.64948 0
M  V30 5857 H 563.637 2.87179 -2.7498 0
M  V30 5858 N 564.634 1.40294 0.718013 0
M  V30 5859 C 566.045 1.34289 1.29705 0
M  V30 5860 C 566.396 0.0152228 1.96194 0
M  V30 5861 O 565.521 -0.88682 1.97394 0
M  V30 5862 C 566.116 2.43219 2.3586 0
M  V30 5863 C 564.675 2.40682 2.89394 0
M  V30 5864 C 563.822 2.24223 1.63154 0
M  V30 5865 H 566.773 1.50135 0.514312 0
M  V30 5866 H 566.794 2.10986 3.16647 0
M  V30 5867 H 566.306 3.39836 1.87439 0
M  V30 5868 H 564.407 1.47756 3.42051 0
M  V30 5869 H 564.52 3.36177 3.41353 0
M  V30 5870 H 562.884 1.71696 1.88129 0
M  V30 5871 H 563.667 3.22834 1.16761 0
M  V30 5872 N 566.112 -0.949982 1.2575 0
M  V30 5873 C 567.528 -1.22191 1.02672 0
M  V30 5874 C 567.728 -1.99898 -0.253588 0
M  V30 5875 O 566.784 -2.33329 -0.965076 0
M  V30 5876 C 568.097 -1.99175 2.25277 0
M  V30 5877 C 569.645 -2.12201 2.30087 0
M  V30 5878 C 570.12 -2.92586 3.5236 0
M  V30 5879 N 571.611 -3.00163 3.52784 0
M  V30 5880 C 572.346 -3.62766 4.44059 0
M  V30 5881 N 571.842 -4.26943 5.45611 0
M  V30 5882 N 573.635 -3.59953 4.3173 0
M  V30 5883 H 565.786 -0.430258 2.07996 0
M  V30 5884 H 568.049 -0.252844 0.91366 0
M  V30 5885 H 567.755 -1.49479 3.18354 0
M  V30 5886 H 567.629 -2.99868 2.28821 0
M  V30 5887 H 570.016 -2.61093 1.3753 0
M  V30 5888 H 570.097 -1.10799 2.30559 0
M  V30 5889 H 569.741 -2.44383 4.45241 0
M  V30 5890 H 569.671 -3.94224 3.49134 0
M  V30 5891 H 572.162 -2.54529 2.79327 0
M  V30 5892 H 572.475 -4.72583 6.11461 0
M  V30 5893 H 570.82 -4.25557 5.49478 0
M  V30 5894 H 574.011 -3.09003 3.51617 0
M  V30 5895 H 574.184 -4.08455 5.03059 0
M  V30 5896 N 567.59 -1.07411 -1.15328 0
M  V30 5897 C 568.52 -0.716472 -2.22236 0
M  V30 5898 C 569.501 0.296373 -1.67498 0
M  V30 5899 O 570.686 0.168989 -1.93463 0
M  V30 5900 C 567.816 -0.114142 -3.47112 0
M  V30 5901 C 566.77 -1.05421 -4.14814 0
M  V30 5902 C 566.096 -0.314604 -5.33774 0
M  V30 5903 C 567.396 -2.38808 -4.64508 0
M  V30 5904 H 569.09 -1.61029 -2.52408 0
M  V30 5905 H 566.636 -0.775702 -1.21321 0
M  V30 5906 H 568.589 0.148001 -4.2114 0
M  V30 5907 H 567.313 0.814755 -3.16274 0
M  V30 5908 H 565.972 -1.30128 -3.42728 0
M  V30 5909 H 565.62 0.617772 -4.99192 0
M  V30 5910 H 565.32 -0.941209 -5.80013 0
M  V30 5911 H 566.844 -0.0602747 -6.1057 0
M  V30 5912 H 568.258 -2.18424 -5.3006 0
M  V30 5913 H 566.655 -2.97069 -5.21412 0
M  V30 5914 H 567.725 -3.01067 -3.80114 0
M  V30 5915 N 569.068 1.32177 -0.85831 0
M  V30 5916 C 569.998 2.31282 -0.321041 0
M  V30 5917 C 570.979 1.59841 0.581786 0
M  V30 5918 O 572.164 1.87619 0.501262 0
M  V30 5919 C 569.294 3.4385 0.48832 0
M  V30 5920 C 568.248 4.26799 -0.320391 0
M  V30 5921 C 567.574 5.31164 0.613934 0
M  V30 5922 C 568.874 4.98829 -1.54813 0
M  V30 5923 H 570.568 2.76469 -1.14915 0
M  V30 5924 H 568.114 1.32916 -0.554028 0
M  V30 5925 H 570.067 4.12224 0.874626 0
M  V30 5926 H 568.791 2.97401 1.34983 0
M  V30 5927 H 567.45 3.60077 -0.688497 0
M  V30 5928 H 567.098 4.80967 1.47239 0
M  V30 5929 H 566.798 5.8755 0.0768097 0
M  V30 5930 H 568.322 6.024 0.997336 0
M  V30 5931 H 569.736 5.59864 -1.23392 0
M  V30 5932 H 568.133 5.64957 -2.02346 0
M  V30 5933 H 569.203 4.26483 -2.30739 0
M  V30 5934 N 570.547 0.616602 1.45037 0
M  V30 5935 C 571.793 0.115501 2.02471 0
M  V30 5936 C 572.126 -1.25406 1.4828 0
M  V30 5937 O 571.401 -1.82922 0.661051 0
M  V30 5938 C 571.684 0.0863588 3.59996 0
M  V30 5939 C 571.537 1.48723 4.24501 0
M  V30 5940 C 572.856 -0.596762 4.36035 0
M  V30 5941 H 569.975 0.0434461 0.735718 0
M  V30 5942 H 572.617 0.7903 1.72784 0
M  V30 5943 H 570.767 -0.488277 3.85419 0
M  V30 5944 H 572.439 2.10964 4.10234 0
M  V30 5945 H 570.682 2.04534 3.82555 0
M  V30 5946 H 571.353 1.419 5.3345 0
M  V30 5947 H 573.829 -0.10824 4.15959 0
M  V30 5948 H 572.705 -0.586289 5.4576 0
M  V30 5949 H 572.966 -1.66451 4.09569 0
M  V30 5950 N 572.025 -1.5352 0.356285 0
M  V30 5951 C 573.441 -1.59599 0.00485267 0
M  V30 5952 C 573.641 -1.37179 -1.47595 0
M  V30 5953 O 572.697 -1.17234 -2.23635 0
M  V30 5954 C 574.01 -2.97277 0.452454 0
M  V30 5955 C 575.558 -3.10357 0.405881 0
M  V30 5956 C 576.033 -4.50432 0.829148 0
M  V30 5957 N 577.524 -4.5652 0.783838 0
M  V30 5958 C 578.259 -5.63077 1.08315 0
M  V30 5959 N 577.755 -6.77429 1.45126 0
M  V30 5960 N 579.548 -5.53014 1.00655 0
M  V30 5961 H 571.699 -1.66346 1.32071 0
M  V30 5962 H 573.962 -0.77971 0.539218 0
M  V30 5963 H 573.668 -3.18792 1.48542 0
M  V30 5964 H 573.542 -3.76836 -0.165762 0
M  V30 5965 H 575.929 -2.88558 -0.617934 0
M  V30 5966 H 576.01 -2.32828 1.05947 0
M  V30 5967 H 575.654 -4.72968 1.85103 0
M  V30 5968 H 575.584 -5.26378 0.152906 0
M  V30 5969 H 578.075 -3.74408 0.512513 0
M  V30 5970 H 578.388 -7.54669 1.66415 0
M  V30 5971 H 576.733 -6.78844 1.48983 0
M  V30 5972 H 579.924 -4.62557 0.718215 0
M  V30 5973 H 580.097 -6.35964 1.24315 0
M  V30 5974 N 573.503 -0.0852151 -1.57369 0
M  V30 5975 C 574.466 0.8627 -2.12344 0
M  V30 5976 C 575.466 1.21746 -1.05046 0
M  V30 5977 O 576.656 1.14852 -1.30976 0
M  V30 5978 C 573.788 2.1618 -2.63589 0
M  V30 5979 H 574.981 0.385511 -2.97412 0
M  V30 5980 H 572.534 0.163663 -1.55441 0
M  V30 5981 H 573.269 2.68406 -1.82013 0
M  V30 5982 H 573.054 1.91723 -3.4203 0
M  V30 5983 H 574.544 2.84011 -3.06149 0
M  V30 5984 N 574.981 1.5647 0.188427 0
M  V30 5985 C 576.23 1.80207 0.905995 0
M  V30 5986 C 576.543 0.659579 1.84144 0
M  V30 5987 O 577.749 0.781431 2.60011 0
M  V30 5988 C 576.205 3.19255 1.66145 0
M  V30 5989 C 575.813 4.41324 0.770504 0
M  V30 5990 C 577.557 3.52298 2.36826 0
M  V30 5991 C 575.464 5.71394 1.52521 0
M  V30 5992 H 574.394 0.671953 0.342045 0
M  V30 5993 H 577.045 1.82808 0.159164 0
M  V30 5994 H 575.427 3.10922 2.45242 0
M  V30 5995 H 576.601 4.60797 0.0177261 0
M  V30 5996 H 574.916 4.16035 0.174199 0
M  V30 5997 H 577.513 4.46715 2.93854 0
M  V30 5998 H 577.856 2.76359 3.11338 0
M  V30 5999 H 578.389 3.62108 1.6469 0
M  V30 6000 H 575.128 6.50316 0.82275 0
M  V30 6001 H 574.648 5.55928 2.25175 0
M  V30 6002 H 576.327 6.12747 2.07725 0
M  V30 6003 N 576.459 -0.456382 1.50847 0
M  V30 6004 C 577.707 -1.20497 1.62249 0
M  V30 6005 C 578.028 -1.92156 0.331839 0
M  V30 6006 O 577.298 -1.84751 -0.651443 0
M  V30 6007 H 575.878 -0.447775 0.597918 0
M  V30 6008 H 578.54 -0.525099 1.87693 0
M  V30 6009 H 577.636 -1.94492 2.44089 0
M  V30 6010 N 577.937 -1.40673 -0.710563 0
M  V30 6011 C 579.348 -1.34975 -1.28991 0
M  V30 6012 C 579.699 -0.0256272 -1.96183 0
M  V30 6013 O 578.824 0.876339 -1.97862 0
M  V30 6014 C 579.419 -2.44467 -2.34567 0
M  V30 6015 C 577.978 -2.42213 -2.88114 0
M  V30 6016 C 577.125 -2.25085 -1.61963 0
M  V30 6017 H 580.076 -1.50406 -0.506343 0
M  V30 6018 H 580.097 -2.12663 -3.15523 0
M  V30 6019 H 579.609 -3.40825 -1.85634 0
M  V30 6020 H 577.71 -1.49568 -3.41263 0
M  V30 6021 H 577.823 -3.37983 -3.39565 0
M  V30 6022 H 576.187 -1.72691 -1.87216 0
M  V30 6023 H 576.97 -3.23449 -1.15047 0
M  V30 6024 N 579.415 0.9433 -1.26252 0
M  V30 6025 C 580.643 1.72367 -1.14443 0
M  V30 6026 C 581.058 1.86392 0.300572 0
M  V30 6027 O 580.415 1.36978 1.20596 0
M  V30 6028 C 580.466 3.13155 -1.806 0
M  V30 6029 O 580.187 2.99803 -3.19452 0
M  V30 6030 C 581.688 4.07417 -1.74717 0
M  V30 6031 H 578.908 0.539758 -0.398626 0
M  V30 6032 H 581.452 1.18268 -1.66832 0
M  V30 6033 H 579.607 3.64162 -1.32154 0
M  V30 6034 H 580.021 3.88697 -3.52158 0
M  V30 6035 H 581.495 5.03773 -2.25647 0
M  V30 6036 H 581.972 4.3337 -0.713244 0
M  V30 6037 H 582.578 3.6233 -2.22704 0
M  V30 6038 N 580.893 1.08022 1.14757 0
M  V30 6039 C 581.803 0.718292 2.23333 0
M  V30 6040 C 582.819 -0.273477 1.71837 0
M  V30 6041 O 583.995 -0.118406 2.01052 0
M  V30 6042 C 581.06 0.128855 3.4646 0
M  V30 6043 C 580.121 1.17473 4.12915 0
M  V30 6044 C 579.354 0.61333 5.30164 0
M  V30 6045 O 579.577 -0.568458 5.6756 0
M  V30 6046 O 578.511 1.3615 5.86299 0
M  V30 6047 H 582.337 1.62394 2.56636 0
M  V30 6048 H 579.922 0.853628 1.22611 0
M  V30 6049 H 581.804 -0.197249 4.20938 0
M  V30 6050 H 580.479 -0.750014 3.14891 0
M  V30 6051 H 579.386 1.5533 3.40328 0
M  V30 6052 H 580.719 2.02574 4.48581 0
M  V30 6053 N 582.371 -1.3172 0.865308 0
M  V30 6054 C 583.599 -2.01057 0.488251 0
M  V30 6055 C 584.014 -1.64979 -0.918 0
M  V30 6056 O 583.371 -0.876597 -1.60069 0
M  V30 6057 C 583.422 -3.55964 0.630224 0
M  V30 6058 O 583.143 -3.90749 1.98109 0
M  V30 6059 C 584.644 -4.42574 0.253567 0
M  V30 6060 H 581.864 -0.64332 0.190736 0
M  V30 6061 H 584.408 -1.68058 1.16519 0
M  V30 6062 H 582.563 -3.874 0.000895422 0
M  V30 6063 H 582.977 -4.85467 1.9855 0
M  V30 6064 H 584.451 -5.50521 0.403875 0
M  V30 6065 H 584.928 -4.31724 -0.806895 0
M  V30 6066 H 585.534 -4.16547 0.858404 0
M  V30 6067 N 583.85 -0.624285 -1.44708 0
M  V30 6068 C 585.26 -0.2092 -1.85524 0
M  V30 6069 C 585.611 1.23783 -1.52225 0
M  V30 6070 O 584.736 1.94089 -0.956986 0
M  V30 6071 C 585.332 -0.372897 -3.36742 0
M  V30 6072 C 583.891 -0.012374 -3.76398 0
M  V30 6073 C 583.038 -0.68951 -2.68591 0
M  V30 6074 H 585.989 -0.829894 -1.35272 0
M  V30 6075 H 586.01 0.390134 -3.78495 0
M  V30 6076 H 585.522 -1.42615 -3.60947 0
M  V30 6077 H 583.623 1.03941 -3.57809 0
M  V30 6078 H 583.736 -0.417663 -4.77276 0
M  V30 6079 H 582.1 -0.125484 -2.54391 0
M  V30 6080 H 582.883 -1.74522 -2.9563 0
M  V30 6081 N 585.328 1.53329 -0.364422 0
M  V30 6082 C 586.553 2.06132 0.229033 0
M  V30 6083 C 586.978 1.23625 1.41769 0
M  V30 6084 O 586.336 0.255038 1.79497 0
M  V30 6085 C 586.384 3.55544 0.60174 0
M  V30 6086 O 585.488 3.75771 1.69912 0
M  V30 6087 H 584.829 0.663148 0.0336213 0
M  V30 6088 H 587.359 1.97758 -0.524689 0
M  V30 6089 H 587.369 3.98549 0.873073 0
M  V30 6090 H 586.044 4.15039 -0.267421 0
M  V30 6091 H 584.621 3.44663 1.42343 0
M  V30 6092 N 586.806 0.0935595 1.57322 0
M  V30 6093 C 588.052 -0.565234 1.95388 0
M  V30 6094 C 588.407 -1.65888 0.974632 0
M  V30 6095 O 587.7 -1.916 0.000376385 0
M  V30 6096 C 587.894 -1.16692 3.37813 0
M  V30 6097 C 587.723 -0.133091 4.49503 0
M  V30 6098 C 586.493 0.289884 5.04468 0
M  V30 6099 C 588.691 0.638141 5.10326 0
M  V30 6100 N 586.673 1.31214 5.99713 0
M  V30 6101 C 588.044 1.51227 6.01274 0
M  V30 6102 C 590.099 0.691827 4.9307 0
M  V30 6103 C 588.802 2.43536 6.76818 0
M  V30 6104 C 590.828 1.60251 5.69274 0
M  V30 6105 C 590.19 2.46427 6.59889 0
M  V30 6106 H 586.289 -0.177212 0.761656 0
M  V30 6107 H 588.873 0.175769 1.93905 0
M  V30 6108 H 587.044 -1.87775 3.39993 0
M  V30 6109 H 588.776 -1.78795 3.63063 0
M  V30 6110 H 585.531 -0.0975541 4.735 0
M  V30 6111 H 585.955 1.82143 6.52038 0
M  V30 6112 H 590.597 0.0397431 4.22781 0
M  V30 6113 H 588.315 3.0977 7.4637 0
M  V30 6114 H 591.901 1.64917 5.57937 0
M  V30 6115 H 590.781 3.15751 7.17824 0
M  V30 6116 N 588.284 -1.56567 -0.180126 0
M  V30 6117 C 589.695 -1.7126 -0.743422 0
M  V30 6118 C 590.046 -0.70263 -1.83187 0
M  V30 6119 O 589.171 0.137856 -2.1596 0
M  V30 6120 C 589.766 -3.10512 -1.35528 0
M  V30 6121 C 588.325 -3.26919 -1.8655 0
M  V30 6122 C 587.472 -2.67213 -0.741099 0
M  V30 6123 H 590.423 -1.58636 0.0451543 0
M  V30 6124 H 590.444 -3.08673 -2.22489 0
M  V30 6125 H 589.956 -3.83997 -0.562862 0
M  V30 6126 H 588.057 -2.58376 -2.68464 0
M  V30 6127 H 588.17 -4.34574 -2.01699 0
M  V30 6128 H 586.534 -2.26788 -1.15927 0
M  V30 6129 H 587.317 -3.43277 0.0393291 0
M  V30 6130 N 589.762 0.448376 -1.51087 0
M  V30 6131 C 590.725 1.52588 -1.71025 0
M  V30 6132 C 591.725 1.49958 -0.580442 0
M  V30 6133 O 592.915 1.52176 -0.847833 0
M  V30 6134 C 590.047 2.92163 -1.75652 0
M  V30 6135 H 591.24 1.36218 -2.67179 0
M  V30 6136 H 588.793 0.676313 -1.4091 0
M  V30 6137 H 589.528 3.13951 -0.812724 0
M  V30 6138 H 589.313 2.95478 -2.57751 0
M  V30 6139 H 590.803 3.70349 -1.92953 0
M  V30 6140 N 591.24 1.41047 0.703093 0
M  V30 6141 C 592.651 1.35657 1.28274 0
M  V30 6142 C 593.002 0.0360309 1.96167 0
M  V30 6143 O 592.127 -0.865833 1.98324 0
M  V30 6144 C 592.722 2.45707 2.33267 0
M  V30 6145 C 591.281 2.43738 2.86825 0
M  V30 6146 C 590.428 2.25941 1.60767 0
M  V30 6147 H 593.379 1.50672 0.49836 0
M  V30 6148 H 593.4 2.14333 3.14391 0
M  V30 6149 H 592.912 3.41805 1.83824 0
M  V30 6150 H 591.013 1.51375 3.40465 0
M  V30 6151 H 591.126 3.39779 3.37768 0
M  V30 6152 H 589.49 1.73681 1.86298 0
M  V30 6153 H 590.273 3.24054 1.1333 0
M  V30 6154 N 592.718 -0.936591 1.26751 0
M  V30 6155 C 593.995 -1.66094 1.03306 0
M  V30 6156 C 594.375 -2.06568 -0.435058 0
M  V30 6157 O 593.723 -1.79305 -1.41641 0
M  V30 6158 C 593.933 -2.86969 1.98619 0
M  V30 6159 C 595.281 -3.58516 2.27489 0
M  V30 6160 O 596.305 -2.97082 1.96522 0
M  V30 6161 O 595.164 -4.69181 2.80235 0
M  V30 6162 H 592.258 -0.727568 0.393158 0
M  V30 6163 H 594.804 -0.987914 1.3798 0
M  V30 6164 H 593.576 -2.53985 2.9767 0
M  V30 6165 H 593.199 -3.61996 1.64454 0
M  V30 6166 N 594.196 -1.08629 -1.14182 0
M  V30 6167 C 595.159 -0.722027 -2.1753 0
M  V30 6168 C 596.159 0.244305 -1.58933 0
M  V30 6169 O 597.349 0.0235545 -1.74184 0
M  V30 6170 C 594.481 -0.0663966 -3.40835 0
M  V30 6171 H 595.674 -1.63719 -2.51269 0
M  V30 6172 H 593.227 -0.884442 -1.28869 0
M  V30 6173 H 593.962 0.860389 -3.12678 0
M  V30 6174 H 593.747 -0.761598 -3.84632 0
M  V30 6175 H 595.237 0.173346 -4.1724 0
M  V30 6176 N 595.674 1.31259 -0.872281 0
M  V30 6177 C 596.637 2.26744 -0.334656 0
M  V30 6178 C 597.637 1.52307 0.515681 0
M  V30 6179 O 598.827 1.71148 0.324656 0
M  V30 6180 C 595.959 3.36841 0.524482 0
M  V30 6181 H 597.152 2.75812 -1.17762 0
M  V30 6182 H 594.705 1.42232 -0.648064 0
M  V30 6183 H 595.44 2.93069 1.38855 0
M  V30 6184 H 595.225 3.92009 -0.0844299 0
M  V30 6185 H 596.715 4.07944 0.892838 0
M  V30 6186 N 597.152 0.631951 1.44375 0
M  V30 6187 C 598.115 -0.0628142 2.29114 0
M  V30 6188 C 599.115 -0.771494 1.41084 0
M  V30 6189 O 600.305 -0.615959 1.62947 0
M  V30 6190 C 597.437 -1.09953 3.22681 0
M  V30 6191 H 598.63 0.682509 2.92031 0
M  V30 6192 H 596.183 0.392128 1.51301 0
M  V30 6193 H 596.918 -1.87481 2.64616 0
M  V30 6194 H 596.703 -0.595286 3.87555 0
M  V30 6195 H 598.193 -1.58538 3.86336 0
M  V30 6196 N 598.631 -1.53133 0.372548 0
M  V30 6197 C 599.541 -2.29671 -0.478379 0
M  V30 6198 C 600.557 -1.35913 -1.08644 0
M  V30 6199 O 601.733 -1.68975 -1.09588 0
M  V30 6200 C 598.798 -3.07625 -1.599 0
M  V30 6201 C 597.859 -4.17061 -1.01776 0
M  V30 6202 C 597.092 -4.91289 -2.08497 0
M  V30 6203 O 597.315 -4.65442 -3.29727 0
M  V30 6204 O 596.249 -5.7705 -1.71164 0
M  V30 6205 H 600.075 -3.03355 0.144649 0
M  V30 6206 H 597.66 -1.48773 0.136729 0
M  V30 6207 H 599.542 -3.56281 -2.25038 0
M  V30 6208 H 598.217 -2.3677 -2.2073 0
M  V30 6209 H 597.124 -3.72641 -0.330098 0
M  V30 6210 H 598.457 -4.90102 -0.453915 0
M  V30 6211 N 600.109 -0.101901 -1.5727 0
M  V30 6212 C 601.386 0.602832 -1.86079 0
M  V30 6213 C 601.766 1.85912 -1 0
M  V30 6214 O 601.114 2.28379 -0.0742488 0
M  V30 6215 C 601.324 0.911694 -3.36881 0
M  V30 6216 C 602.672 1.2722 -4.05093 0
M  V30 6217 O 603.696 1.0025 -3.41802 0
M  V30 6218 O 602.555 1.7776 -5.16782 0
M  V30 6219 H 599.649 0.302366 -0.769743 0
M  V30 6220 H 602.195 -0.135113 -1.69161 0
M  V30 6221 H 600.967 0.0207256 -3.91295 0
M  V30 6222 H 600.59 1.70538 -3.59169 0
M  V30 6223 N 601.587 1.56661 0.17182 0
M  V30 6224 C 602.812 1.86459 0.908165 0
M  V30 6225 C 603.237 0.688181 1.75059 0
M  V30 6226 O 602.595 -0.362753 1.77634 0
M  V30 6227 C 602.643 3.14669 1.76112 0
M  V30 6228 O 601.747 2.96858 2.86268 0
M  V30 6229 H 601.088 0.613318 0.254434 0
M  V30 6230 H 603.618 2.03892 0.170113 0
M  V30 6231 H 603.628 3.46061 2.16115 0
M  V30 6232 H 602.303 3.99905 1.14233 0
M  V30 6233 H 600.88 2.76819 2.49852 0
M  V30 6234 N 603.065 -0.440357 1.51323 0
M  V30 6235 C 604.476 -1.02032 1.56353 0
M  V30 6236 C 604.827 -1.92382 0.385197 0
M  V30 6237 O 603.952 -2.10583 -0.498373 0
M  V30 6238 C 604.547 -1.85723 2.83359 0
M  V30 6239 C 603.106 -2.38774 2.90971 0
M  V30 6240 C 602.253 -1.17908 2.50984 0
M  V30 6241 H 605.204 -0.221744 1.57143 0
M  V30 6242 H 605.225 -2.71141 2.66951 0
M  V30 6243 H 604.737 -1.19939 3.69102 0
M  V30 6244 H 602.838 -3.08021 2.09651 0
M  V30 6245 H 602.951 -2.71778 3.94555 0
M  V30 6246 H 601.315 -1.52347 2.04114 0
M  V30 6247 H 602.098 -0.537393 3.39068 0
M  V30 6248 N 604.543 -1.41418 -0.695603 0
M  V30 6249 C 605.791 -1.40496 -1.45277 0
M  V30 6250 C 606.112 -0.0149538 -1.94994 0
M  V30 6251 O 605.382 0.9432 -1.71699 0
M  V30 6252 H 603.962 -0.517147 -0.539044 0
M  V30 6253 H 606.624 -1.76656 -0.823321 0
M  V30 6254 H 605.72 -2.09214 -2.31595 0
M  V30 6255 N 606.021 0.929856 -1.27246 0
M  V30 6256 C 607.267 1.6798 -1.13625 0
M  V30 6257 C 607.6 1.91586 0.317589 0
M  V30 6258 O 606.875 1.50467 1.23247 0
M  V30 6259 C 607.158 3.04766 -1.91806 0
M  V30 6260 C 607.011 2.88415 -3.45162 0
M  V30 6261 C 608.33 4.05063 -1.72082 0
M  V30 6262 H 605.449 0.609632 -0.414147 0
M  V30 6263 H 608.091 1.0792 -1.56376 0
M  V30 6264 H 606.241 3.56034 -1.55474 0
M  V30 6265 H 607.913 2.44282 -3.91311 0
M  V30 6266 H 606.156 2.23802 -3.71611 0
M  V30 6267 H 606.827 3.85482 -3.95105 0
M  V30 6268 H 609.303 3.62798 -2.03757 0
M  V30 6269 H 608.179 4.98765 -2.29182 0
M  V30 6270 H 608.44 4.37021 -0.668206 0
M  V30 6271 N 607.499 1.09233 1.13605 0
M  V30 6272 C 608.462 0.733553 2.17144 0
M  V30 6273 C 609.462 -0.235873 1.59061 0
M  V30 6274 O 610.652 -0.0143167 1.74194 0
M  V30 6275 C 607.784 0.084471 3.40795 0
M  V30 6276 H 608.977 1.65049 2.50397 0
M  V30 6277 H 606.53 0.891264 1.28399 0
M  V30 6278 H 607.265 -0.843795 3.1313 0
M  V30 6279 H 607.05 0.781985 3.84223 0
M  V30 6280 H 608.54 -0.151216 4.17326 0
M  V30 6281 N 608.977 -1.30795 0.87923 0
M  V30 6282 C 610.388 -1.78535 0.546093 0
M  V30 6283 C 610.739 -1.72354 -0.937467 0
M  V30 6284 O 609.864 -1.2969 -1.73233 0
M  V30 6285 C 610.459 -3.24181 0.9845 0
M  V30 6286 C 609.018 -3.69779 0.702871 0
M  V30 6287 C 608.165 -2.51377 1.17068 0
M  V30 6288 H 611.116 -1.17746 1.06403 0
M  V30 6289 H 611.137 -3.79227 0.311045 0
M  V30 6290 H 610.649 -3.28647 2.06429 0
M  V30 6291 H 608.75 -3.70806 -0.365166 0
M  V30 6292 H 608.863 -4.61507 1.28639 0
M  V30 6293 H 607.227 -2.47768 0.590172 0
M  V30 6294 H 608.01 -2.58584 2.25808 0
M  V30 6295 N 610.455 -0.639598 -1.44038 0
M  V30 6296 C 611.365 0.0612377 -2.3452 0
M  V30 6297 C 612.381 0.826717 -1.53106 0
M  V30 6298 O 613.557 0.777059 -1.85806 0
M  V30 6299 C 610.622 1.02492 -3.31204 0
M  V30 6300 C 609.683 0.25788 -4.28525 0
M  V30 6301 C 608.916 1.17566 -5.2059 0
M  V30 6302 O 609.139 2.41461 -5.16771 0
M  V30 6303 O 608.073 0.655407 -5.98321 0
M  V30 6304 H 611.899 -0.68318 -2.95916 0
M  V30 6305 H 609.484 -0.399784 -1.43952 0
M  V30 6306 H 611.366 1.57911 -3.90694 0
M  V30 6307 H 610.041 1.7498 -2.7233 0
M  V30 6308 H 608.948 -0.339566 -3.72556 0
M  V30 6309 H 610.281 -0.427154 -4.90343 0
M  V30 6310 N 611.933 1.52934 -0.380664 0
M  V30 6311 C 612.863 2.29118 0.450268 0
M  V30 6312 C 613.844 1.32153 1.07096 0
M  V30 6313 O 615.029 1.61038 1.08537 0
M  V30 6314 C 612.159 3.09161 1.58231 0
M  V30 6315 C 611.113 4.13938 1.0881 0
M  V30 6316 C 610.439 4.82153 2.31155 0
M  V30 6317 C 611.739 5.22048 0.162146 0
M  V30 6318 H 613.433 2.98826 -0.185361 0
M  V30 6319 H 610.979 1.43715 -0.0905886 0
M  V30 6320 H 612.932 3.61211 2.17036 0
M  V30 6321 H 611.656 2.3717 2.2454 0
M  V30 6322 H 610.315 3.62855 0.522633 0
M  V30 6323 H 609.963 4.06719 2.95953 0
M  V30 6324 H 609.663 5.52966 1.98752 0
M  V30 6325 H 611.187 5.37004 2.90618 0
M  V30 6326 H 612.601 5.6951 0.658126 0
M  V30 6327 H 610.998 6.00057 -0.0717122 0
M  V30 6328 H 612.068 4.78398 -0.791438 0
M  V30 6329 N 613.412 0.11024 1.57214 0
M  V30 6330 C 614.823 -0.416527 1.81994 0
M  V30 6331 C 615.174 -1.67183 1.02686 0
M  V30 6332 O 614.299 -2.14823 0.260782 0
M  V30 6333 C 614.894 -0.762466 3.30109 0
M  V30 6334 C 613.453 -1.23391 3.556 0
M  V30 6335 C 612.6 -0.238166 2.76275 0
M  V30 6336 H 615.551 0.335491 1.55113 0
M  V30 6337 H 615.572 -1.62068 3.44259 0
M  V30 6338 H 615.084 0.151346 3.87805 0
M  V30 6339 H 613.185 -2.16492 3.03253 0
M  V30 6340 H 613.298 -1.18528 4.64207 0
M  V30 6341 H 611.662 -0.723421 2.4421 0
M  V30 6342 H 612.445 0.668591 3.36727 0
M  V30 6343 N 614.89 -1.56749 -0.16351 0
M  V30 6344 C 615.8 -2.00255 -1.2221 0
M  V30 6345 C 616.816 -0.915194 -1.47987 0
M  V30 6346 O 617.992 -1.22342 -1.59982 0
M  V30 6347 C 615.057 -2.36035 -2.53946 0
M  V30 6348 C 614.118 -3.58637 -2.35962 0
M  V30 6349 C 613.351 -3.92701 -3.61416 0
M  V30 6350 O 613.574 -3.27632 -4.66919 0
M  V30 6351 O 612.508 -4.86019 -3.55062 0
M  V30 6352 H 616.334 -2.90586 -0.882794 0
M  V30 6353 H 613.919 -1.44721 -0.370978 0
M  V30 6354 H 615.801 -2.59982 -3.31643 0
M  V30 6355 H 614.476 -1.48863 -2.8744 0
M  V30 6356 H 613.383 -3.39898 -1.5627 0
M  V30 6357 H 614.716 -4.46374 -2.0739 0
M  V30 6358 N 616.368 0.432326 -1.51554 0
M  V30 6359 C 617.645 1.19288 -1.55015 0
M  V30 6360 C 618.025 2.08701 -0.317375 0
M  V30 6361 O 617.373 2.17602 0.697243 0
M  V30 6362 C 617.583 1.99037 -2.86679 0
M  V30 6363 C 618.931 2.55907 -3.38817 0
M  V30 6364 O 619.955 2.09243 -2.88263 0
M  V30 6365 O 618.814 3.41029 -4.27038 0
M  V30 6366 H 615.908 0.543369 -0.623441 0
M  V30 6367 H 618.454 0.440988 -1.6387 0
M  V30 6368 H 617.226 1.33397 -3.6786 0
M  V30 6369 H 616.849 2.81281 -2.8101 0
M  V30 6370 N 617.846 1.41785 0.688094 0
M  V30 6371 C 618.756 1.46596 1.83158 0
M  V30 6372 C 619.772 0.355862 1.70322 0
M  V30 6373 O 620.948 0.604737 1.92106 0
M  V30 6374 C 618.013 1.35322 3.192 0
M  V30 6375 C 617.074 2.56711 3.4409 0
M  V30 6376 C 616.307 2.45965 4.73642 0
M  V30 6377 O 616.53 1.48827 5.50642 0
M  V30 6378 O 615.464 3.35859 4.99482 0
M  V30 6379 H 619.29 2.43083 1.82056 0
M  V30 6380 H 616.875 1.23404 0.842126 0
M  V30 6381 H 618.757 1.31347 4.00407 0
M  V30 6382 H 617.432 0.419536 3.2097 0
M  V30 6383 H 616.339 2.66262 2.62784 0
M  V30 6384 H 617.672 3.48933 3.47141 0
M  V30 6385 N 619.324 -0.923095 1.27737 0
M  V30 6386 C 620.287 -2.00587 1.10894 0
M  V30 6387 C 621.287 -1.60718 0.0514927 0
M  V30 6388 O 622.477 -1.71658 0.296481 0
M  V30 6389 C 619.609 -3.33829 0.690717 0
M  V30 6390 H 620.802 -2.16959 2.07048 0
M  V30 6391 H 618.355 -1.10451 1.1059 0
M  V30 6392 H 619.09 -3.23157 -0.272 0
M  V30 6393 H 618.875 -3.64125 1.45448 0
M  V30 6394 H 620.365 -4.13336 0.595252 0
M  V30 6395 N 620.802 -1.09834 -1.13024 0
M  V30 6396 C 622.051 -0.831806 -1.83749 0
M  V30 6397 C 622.364 0.644763 -1.84668 0
M  V30 6398 O 623.57 1.02697 -2.51327 0
M  V30 6399 C 622.026 -1.43817 -3.29916 0
M  V30 6400 C 621.634 -2.94759 -3.37374 0
M  V30 6401 C 623.378 -1.25077 -4.05655 0
M  V30 6402 C 621.285 -3.48461 -4.77838 0
M  V30 6403 H 620.215 -0.30751 -0.688443 0
M  V30 6404 H 622.866 -1.32156 -1.27307 0
M  V30 6405 H 621.248 -0.876106 -3.86187 0
M  V30 6406 H 622.422 -3.57228 -2.91076 0
M  V30 6407 H 620.737 -3.12581 -2.75103 0
M  V30 6408 H 623.334 -1.62649 -5.09362 0
M  V30 6409 H 623.677 -0.191782 -4.15858 0
M  V30 6410 H 624.21 -1.78057 -3.55725 0
M  V30 6411 H 620.949 -4.53998 -4.72828 0
M  V30 6412 H 620.469 -2.90757 -5.24615 0
M  V30 6413 H 622.148 -3.45914 -5.46766 0
M  V30 6414 N 622.28 1.30327 -0.886154 0
M  V30 6415 C 623.696 1.48676 -0.580323 0
M  V30 6416 C 623.896 1.81189 0.881639 0
M  V30 6417 O 622.952 1.90021 1.66278 0
M  V30 6418 C 624.265 2.60932 -1.49449 0
M  V30 6419 C 625.813 2.74812 -1.49824 0
M  V30 6420 C 626.288 3.90183 -2.39836 0
M  V30 6421 N 627.779 3.97495 -2.37806 0
M  V30 6422 C 628.514 4.86078 -3.04165 0
M  V30 6423 N 628.01 5.79448 -3.79753 0
M  V30 6424 N 629.803 4.79456 -2.93391 0
M  V30 6425 H 621.954 1.07495 -1.8319 0
M  V30 6426 H 624.217 0.532661 -0.784204 0
M  V30 6427 H 623.923 2.43731 -2.5355 0
M  V30 6428 H 623.797 3.57437 -1.20494 0
M  V30 6429 H 626.184 2.91418 -0.464731 0
M  V30 6430 H 626.265 1.78924 -1.82811 0
M  V30 6431 H 625.909 3.74334 -3.43273 0
M  V30 6432 H 625.839 4.85411 -2.04166 0
M  V30 6433 H 628.33 3.30703 -1.82877 0
M  V30 6434 H 628.643 6.43805 -4.27475 0
M  V30 6435 H 626.988 5.79376 -3.8386 0
M  V30 6436 H 630.179 4.05494 -2.33864 0
M  V30 6437 H 630.352 5.48283 -3.45383 0
M  V30 6438 N 623.758 0.647228 1.43697 0
M  V30 6439 C 624.69 -0.0866232 2.29036 0
M  V30 6440 C 625.703 -0.793051 1.42178 0
M  V30 6441 O 626.892 -0.651807 1.66174 0
M  V30 6442 C 623.992 -1.14552 3.18953 0
M  V30 6443 C 623.165 -0.518422 4.34317 0
M  V30 6444 C 622.224 -1.4734 5.05151 0
M  V30 6445 O 621.25 -0.984312 5.60625 0
M  V30 6446 N 622.452 -2.8075 5.08094 0
M  V30 6447 H 625.217 0.645834 2.92659 0
M  V30 6448 H 622.778 0.489567 1.54321 0
M  V30 6449 H 624.77 -1.78505 3.63205 0
M  V30 6450 H 623.34 -1.78001 2.56971 0
M  V30 6451 H 622.56 0.300079 3.93056 0
M  V30 6452 H 623.848 -0.080401 5.08736 0
M  V30 6453 H 623.246 -3.23052 4.64386 0
M  V30 6454 H 621.803 -3.40022 5.56083 0
M  V30 6455 N 625.236 -1.5273 0.388769 0
M  V30 6456 C 626.199 -2.25043 -0.434544 0
M  V30 6457 C 627.199 -1.26661 -0.990644 0
M  V30 6458 O 628.389 -1.50762 -0.872731 0
M  V30 6459 C 625.521 -3.00507 -1.60961 0
M  V30 6460 H 626.714 -2.99242 0.198549 0
M  V30 6461 H 624.267 -1.55664 0.140875 0
M  V30 6462 H 625.002 -2.30607 -2.28015 0
M  V30 6463 H 624.787 -3.72716 -1.21757 0
M  V30 6464 H 626.277 -3.55413 -2.19251 0
M  V30 6465 N 626.714 -0.118576 -1.57153 0
M  V30 6466 C 627.644 0.828436 -2.1831 0
M  V30 6467 C 628.625 1.27758 -1.12303 0
M  V30 6468 O 629.81 1.34026 -1.40537 0
M  V30 6469 C 626.94 2.07876 -2.78217 0
M  V30 6470 C 625.894 1.76742 -3.89803 0
M  V30 6471 C 625.22 3.08801 -4.36516 0
M  V30 6472 C 626.52 1.03606 -5.11921 0
M  V30 6473 H 628.214 0.318824 -2.97698 0
M  V30 6474 H 625.76 0.151911 -1.43196 0
M  V30 6475 H 627.713 2.74584 -3.19659 0
M  V30 6476 H 626.437 2.61161 -1.96118 0
M  V30 6477 H 625.096 1.12424 -3.48936 0
M  V30 6478 H 624.744 3.6002 -3.51276 0
M  V30 6479 H 624.444 2.88743 -5.11763 0
M  V30 6480 H 625.968 3.76627 -4.80608 0
M  V30 6481 H 627.382 1.60467 -5.50385 0
M  V30 6482 H 625.779 0.936454 -5.92748 0
M  V30 6483 H 626.849 0.0227421 -4.84895 0
M  V30 6484 N 628.193 1.56834 0.155195 0
M  V30 6485 C 629.439 1.83169 0.870467 0
M  V30 6486 C 629.772 0.698929 1.81187 0
M  V30 6487 O 629.047 -0.298035 1.92203 0
M  V30 6488 C 629.33 3.19965 1.65211 0
M  V30 6489 C 629.183 4.43792 0.732744 0
M  V30 6490 C 630.502 3.53885 2.61636 0
M  V30 6491 H 627.621 0.666288 0.315006 0
M  V30 6492 H 630.263 1.89513 0.135988 0
M  V30 6493 H 628.413 3.14687 2.27825 0
M  V30 6494 H 630.085 4.61148 0.118236 0
M  V30 6495 H 628.328 4.3378 0.0417906 0
M  V30 6496 H 628.999 5.36095 1.31552 0
M  V30 6497 H 631.475 3.5972 2.09143 0
M  V30 6498 H 630.351 4.50648 3.13381 0
M  V30 6499 H 630.612 2.79418 3.42605 0
M  V30 6500 N 629.671 -0.424282 1.51781 0
M  V30 6501 C 630.948 -1.18464 1.55646 0
M  V30 6502 C 631.328 -2.08529 0.328438 0
M  V30 6503 O 630.676 -2.17969 -0.685693 0
M  V30 6504 C 630.886 -1.97514 2.87731 0
M  V30 6505 C 632.234 -2.54106 3.40169 0
M  V30 6506 O 633.258 -2.07711 2.89369 0
M  V30 6507 O 632.117 -3.38759 4.28841 0
M  V30 6508 H 629.211 -0.540055 0.626314 0
M  V30 6509 H 631.757 -0.432291 1.64102 0
M  V30 6510 H 630.529 -1.31444 3.68562 0
M  V30 6511 H 630.152 -2.79787 2.82498 0
M  V30 6512 N 631.149 -1.42148 -0.680565 0
M  V30 6513 C 632.374 -1.45901 -1.47403 0
M  V30 6514 C 632.799 -0.0700985 -1.87969 0
M  V30 6515 O 632.157 0.930145 -1.55621 0
M  V30 6516 C 632.205 -2.38661 -2.70321 0
M  V30 6517 O 631.309 -1.85399 -3.68376 0
M  V30 6518 H 630.65 -0.494565 -0.443059 0
M  V30 6519 H 633.18 -1.86774 -0.835251 0
M  V30 6520 H 633.19 -2.55046 -3.18458 0
M  V30 6521 H 631.865 -3.39571 -2.40134 0
M  V30 6522 H 630.442 -1.78541 -3.2738 0
M  V30 6523 N 632.627 0.916307 -1.28225 0
M  V30 6524 C 633.873 1.66765 -1.154 0
M  V30 6525 C 634.206 1.91912 0.297251 0
M  V30 6526 O 633.481 1.51766 1.21644 0
M  V30 6527 C 633.764 3.02715 -1.95028 0
M  V30 6528 C 633.617 2.84738 -3.48201 0
M  V30 6529 C 634.936 4.03215 -1.76369 0
M  V30 6530 H 632.055 0.605205 -0.42059 0
M  V30 6531 H 634.697 1.06255 -1.57512 0
M  V30 6532 H 632.847 3.54365 -1.59242 0
M  V30 6533 H 634.519 2.40118 -3.9388 0
M  V30 6534 H 632.762 2.19848 -3.73964 0
M  V30 6535 H 633.433 3.8127 -3.99171 0
M  V30 6536 H 635.909 3.60617 -2.07593 0
M  V30 6537 H 634.785 4.96306 -2.34459 0
M  V30 6538 H 635.046 4.36288 -0.71452 0
M  V30 6539 N 634.105 1.10431 1.1244 0
M  V30 6540 C 635.352 0.846717 1.83948 0
M  V30 6541 C 635.68 -0.627709 1.84093 0
M  V30 6542 O 634.935 -1.47876 1.28184 0
M  V30 6543 C 635.234 1.34022 3.3132 0
M  V30 6544 C 634.9 2.82606 3.51347 0
M  V30 6545 C 633.562 3.23182 3.56521 0
M  V30 6546 C 635.914 3.78356 3.58464 0
M  V30 6547 C 633.242 4.58258 3.66356 0
M  V30 6548 C 635.594 5.13234 3.69829 0
M  V30 6549 C 634.258 5.53384 3.73259 0
M  V30 6550 H 633.528 0.309836 0.673114 0
M  V30 6551 H 636.175 1.38091 1.32677 0
M  V30 6552 H 634.48 0.726047 3.85014 0
M  V30 6553 H 636.177 1.11739 3.85118 0
M  V30 6554 H 632.767 2.50212 3.47983 0
M  V30 6555 H 636.951 3.48115 3.53737 0
M  V30 6556 H 632.207 4.88787 3.67284 0
M  V30 6557 H 636.381 5.87272 3.74279 0
M  V30 6558 H 634.008 6.58045 3.80633 0
M  V30 6559 N 635.583 -1.29855 0.893053 0
M  V30 6560 C 636.515 -2.26911 0.32311 0
M  V30 6561 C 637.528 -1.54039 -0.526858 0
M  V30 6562 O 638.717 -1.75132 -0.345095 0
M  V30 6563 C 635.817 -3.34266 -0.558509 0
M  V30 6564 C 634.99 -4.36601 0.264222 0
M  V30 6565 C 634.049 -5.23326 -0.549171 0
M  V30 6566 O 633.075 -5.69192 0.0309883 0
M  V30 6567 N 634.277 -5.50008 -1.85664 0
M  V30 6568 H 637.042 -2.76455 1.15726 0
M  V30 6569 H 634.603 -1.4312 0.756859 0
M  V30 6570 H 636.595 -3.89211 -1.1089 0
M  V30 6571 H 635.165 -2.8459 -1.29334 0
M  V30 6572 H 634.385 -3.81409 0.996046 0
M  V30 6573 H 635.673 -5.02019 0.827906 0
M  V30 6574 H 635.071 -5.14542 -2.35081 0
M  V30 6575 H 633.628 -6.07796 -2.35431 0
M  V30 6576 N 637.061 -0.65484 -1.43351 0
M  V30 6577 C 638.307 -0.169142 -2.02093 0
M  V30 6578 C 638.64 1.21431 -1.51553 0
M  V30 6579 O 637.915 1.81105 -0.709317 0
M  V30 6580 C 638.198 -0.181775 -3.59641 0
M  V30 6581 C 638.051 -1.59926 -4.20409 0
M  V30 6582 C 639.37 0.480945 -4.37464 0
M  V30 6583 H 636.489 -0.0629371 -0.734308 0
M  V30 6584 H 639.131 -0.835833 -1.70628 0
M  V30 6585 H 637.281 0.385918 -3.86578 0
M  V30 6586 H 638.953 -2.21766 -4.04497 0
M  V30 6587 H 637.196 -2.14605 -3.76998 0
M  V30 6588 H 637.867 -1.55994 -5.295 0
M  V30 6589 H 640.343 -0.00208273 -4.161 0
M  V30 6590 H 639.219 0.441384 -5.47122 0
M  V30 6591 H 639.48 1.55533 -4.13838 0
M  V30 6592 N 638.539 1.52521 -0.396863 0
M  V30 6593 C 639.764 2.06571 0.185258 0
M  V30 6594 C 640.189 1.26605 1.39115 0
M  V30 6595 O 639.547 0.293055 1.78916 0
M  V30 6596 C 639.595 3.5674 0.526189 0
M  V30 6597 O 638.699 3.7929 1.61903 0
M  V30 6598 H 638.04 0.663712 0.0195474 0
M  V30 6599 H 640.57 1.966 -0.566519 0
M  V30 6600 H 640.58 4.00311 0.788338 0
M  V30 6601 H 639.255 4.14379 -0.355397 0
M  V30 6602 H 637.832 3.47605 1.35 0
M  V30 6603 N 640.017 0.126909 1.57088 0
M  V30 6604 C 641.263 -0.529952 1.95753 0
M  V30 6605 C 641.596 -1.65823 1.01077 0
M  V30 6606 O 640.871 -1.94437 0.0494162 0
M  V30 6607 C 641.154 -1.05517 3.44294 0
M  V30 6608 C 641.007 0.0702253 4.49745 0
M  V30 6609 C 642.326 -1.9435 3.94862 0
M  V30 6610 H 639.445 -0.191168 0.711775 0
M  V30 6611 H 642.087 0.204071 1.88901 0
M  V30 6612 H 640.237 -1.68069 3.50264 0
M  V30 6613 H 641.909 0.705834 4.55868 0
M  V30 6614 H 640.152 0.732259 4.27575 0
M  V30 6615 H 640.823 -0.338642 5.5096 0
M  V30 6616 H 643.299 -1.41658 3.91244 0
M  V30 6617 H 642.175 -2.28015 4.993 0
M  V30 6618 H 642.436 -2.87299 3.36024 0
M  V30 6619 N 641.495 -1.56914 -0.146875 0
M  V30 6620 C 642.425 -2.01308 -1.1831 0
M  V30 6621 C 643.406 -0.892664 -1.44795 0
M  V30 6622 O 644.591 -1.16048 -1.55713 0
M  V30 6623 C 641.721 -2.3938 -2.51624 0
M  V30 6624 C 640.675 -3.54608 -2.3966 0
M  V30 6625 C 640.001 -3.78493 -3.77686 0
M  V30 6626 C 641.301 -4.87269 -1.88058 0
M  V30 6627 H 642.995 -2.88123 -0.813964 0
M  V30 6628 H 640.541 -1.38615 -0.3901 0
M  V30 6629 H 642.494 -2.69037 -3.24341 0
M  V30 6630 H 641.218 -1.49502 -2.90373 0
M  V30 6631 H 639.877 -3.25116 -1.69396 0
M  V30 6632 H 639.525 -2.85866 -4.13871 0
M  V30 6633 H 639.225 -4.56039 -3.70543 0
M  V30 6634 H 640.749 -4.10576 -4.51951 0
M  V30 6635 H 642.163 -5.15644 -2.50568 0
M  V30 6636 H 640.56 -5.68622 -1.91805 0
M  V30 6637 H 641.63 -4.77634 -0.836277 0
M  V30 6638 N 642.974 0.416227 -1.52004 0
M  V30 6639 C 644.385 0.995319 -1.57957 0
M  V30 6640 C 644.736 1.91744 -0.415754 0
M  V30 6641 O 643.861 2.11349 0.464808 0
M  V30 6642 C 644.456 1.81191 -2.86278 0
M  V30 6643 C 643.015 2.34115 -2.94732 0
M  V30 6644 C 642.162 1.139 -2.52828 0
M  V30 6645 H 645.113 0.196716 -1.57476 0
M  V30 6646 H 645.134 2.66859 -2.71231 0
M  V30 6647 H 644.646 1.14051 -3.70963 0
M  V30 6648 H 642.747 3.04647 -2.14525 0
M  V30 6649 H 642.86 2.65466 -3.98829 0
M  V30 6650 H 641.224 1.49081 -2.06511 0
M  V30 6651 H 642.007 0.483383 -3.3988 0
M  V30 6652 N 644.452 1.42507 0.673017 0
M  V30 6653 C 645.7 1.42789 1.43023 0
M  V30 6654 C 646.021 0.0459738 1.94946 0
M  V30 6655 O 645.291 -0.915765 1.73178 0
M  V30 6656 H 643.871 0.525657 0.530748 0
M  V30 6657 H 646.533 1.77944 0.795113 0
M  V30 6658 H 645.629 2.12872 2.28237 0
M  V30 6659 N 645.93 -0.909495 1.28709 0
M  V30 6660 C 646.878 -2.03381 1.12866 0
M  V30 6661 C 647.872 -1.69335 0.0468074 0
M  V30 6662 O 649.078 -1.78819 0.205891 0
M  V30 6663 H 645.453 -0.666452 0.348348 0
M  V30 6664 H 647.424 -2.13885 2.08077 0
M  V30 6665 C 646.173 -3.38092 0.811742 0
M  V30 6666 H 645.496 -3.64786 1.63619 0
M  V30 6667 H 646.936 -4.17477 0.740869 0
M  V30 6668 C 645.395 -3.33395 -0.484679 0
M  V30 6669 O 645.925 -3.72089 -1.5137 0
M  V30 6670 N 644.131 -2.86491 -0.486961 0
M  V30 6671 H 643.678 -2.55199 0.350877 0
M  V30 6672 H 643.636 -2.83731 -1.3544 0
M  V30 6673 N 647.408 -1.11026 -1.11852 0
M  V30 6674 C 648.654 -0.857729 -1.83768 0
M  V30 6675 C 648.987 0.615143 -1.842 0
M  V30 6676 O 648.262 1.45391 -1.29196 0
M  V30 6677 C 648.545 -1.41453 -3.31154 0
M  V30 6678 C 648.398 -2.95471 -3.39142 0
M  V30 6679 C 649.717 -1.0619 -4.27097 0
M  V30 6680 H 646.836 -0.313044 -0.667212 0
M  V30 6681 H 649.478 -1.37443 -1.31185 0
M  V30 6682 H 647.628 -0.975052 -3.76065 0
M  V30 6683 H 649.3 -3.4799 -3.02821 0
M  V30 6684 H 647.543 -3.31759 -2.79497 0
M  V30 6685 H 648.214 -3.29515 -4.42859 0
M  V30 6686 H 650.69 -1.44122 -3.90344 0
M  V30 6687 H 649.566 -1.47832 -5.28618 0
M  V30 6688 H 649.827 0.0278912 -4.42091 0
M  V30 6689 N 648.886 1.2938 -0.899927 0
M  V30 6690 C 650.134 1.95164 -0.524924 0
M  V30 6691 C 650.455 1.71292 0.931888 0
M  V30 6692 O 649.725 1.04481 1.65712 0
M  V30 6693 H 648.305 0.722133 -0.191135 0
M  V30 6694 H 650.967 1.57628 -1.14627 0
M  V30 6695 H 650.063 3.0397 -0.707711 0
M  V30 6696 N 650.364 0.662433 1.43002 0
M  V30 6697 C 651.594 0.187343 2.05749 0
M  V30 6698 C 652.002 -1.15582 1.49791 0
M  V30 6699 O 651.345 -1.72651 0.627487 0
M  V30 6700 C 651.407 0.0316493 3.59486 0
M  V30 6701 C 651.071 1.30156 4.38073 0
M  V30 6702 C 652.068 2.23234 4.69535 0
M  V30 6703 C 649.753 1.54572 4.77926 0
M  V30 6704 C 651.747 3.39012 5.39768 0
M  V30 6705 C 649.434 2.70641 5.47902 0
M  V30 6706 C 650.432 3.62687 5.78746 0
M  V30 6707 O 650.12 4.76728 6.47291 0
M  V30 6708 H 649.852 0.0915214 0.669776 0
M  V30 6709 H 652.406 0.905982 1.8434 0
M  V30 6710 H 650.636 -0.742451 3.79506 0
M  V30 6711 H 652.325 -0.401977 4.03905 0
M  V30 6712 H 653.091 2.05616 4.39257 0
M  V30 6713 H 648.97 0.83804 4.53319 0
M  V30 6714 H 652.514 4.10877 5.63761 0
M  V30 6715 H 648.411 2.88189 5.77596 0
M  V30 6716 H 649.179 4.76113 6.65777 0
M  V30 6717 N 651.842 -1.52309 0.404946 0
M  V30 6718 C 652.772 -2.29805 -0.41376 0
M  V30 6719 C 653.753 -1.3384 -1.0498 0
M  V30 6720 O 654.938 -1.62745 -1.05961 0
M  V30 6721 C 652.068 -3.11639 -1.53292 0
M  V30 6722 C 651.022 -4.15616 -1.02211 0
M  V30 6723 C 650.348 -4.8577 -2.23455 0
M  V30 6724 C 651.648 -5.2224 -0.0790725 0
M  V30 6725 H 653.342 -2.98493 0.232878 0
M  V30 6726 H 650.888 -1.43552 0.113441 0
M  V30 6727 H 652.841 -3.64618 -2.11262 0
M  V30 6728 H 651.565 -2.40712 -2.20738 0
M  V30 6729 H 650.224 -3.63641 -0.46484 0
M  V30 6730 H 649.872 -4.11376 -2.89445 0
M  V30 6731 H 649.572 -5.56058 -1.89929 0
M  V30 6732 H 651.096 -5.4156 -2.82038 0
M  V30 6733 H 652.51 -5.70485 -0.567438 0
M  V30 6734 H 650.907 -5.99867 0.167167 0
M  V30 6735 H 651.977 -4.77078 0.867447 0
M  V30 6736 N 653.32 -0.135238 -1.57019 0
M  V30 6737 C 654.736 0.221262 -1.58059 0
M  V30 6738 C 654.936 1.65538 -1.14889 0
M  V30 6739 O 653.992 2.37985 -0.843751 0
M  V30 6740 C 655.305 -0.0268114 -3.00688 0
M  V30 6741 C 656.853 0.0378206 -3.12977 0
M  V30 6742 C 657.328 -0.182769 -4.57635 0
M  V30 6743 N 658.819 -0.129292 -4.6302 0
M  V30 6744 C 659.554 -0.274648 -5.72742 0
M  V30 6745 N 659.05 -0.477075 -6.91155 0
M  V30 6746 N 660.843 -0.213077 -5.61696 0
M  V30 6747 H 652.994 -1.07177 -1.83376 0
M  V30 6748 H 655.257 -0.423338 -0.848227 0
M  V30 6749 H 654.963 -1.01889 -3.36618 0
M  V30 6750 H 654.837 0.697863 -3.70688 0
M  V30 6751 H 657.224 1.02043 -2.76896 0
M  V30 6752 H 657.305 -0.718996 -2.45487 0
M  V30 6753 H 656.949 -1.16243 -4.94419 0
M  V30 6754 H 656.879 0.59423 -5.23237 0
M  V30 6755 H 659.37 0.0229896 -3.77893 0
M  V30 6756 H 659.683 -0.578413 -7.70632 0
M  V30 6757 H 658.028 -0.513252 -6.93102 0
M  V30 6758 H 661.219 -0.0557796 -4.68067 0
M  V30 6759 H 661.392 -0.329796 -6.4716 0
M  V30 6760 N 654.798 1.5699 0.138552 0
M  V30 6761 C 656.045 1.83809 0.849732 0
M  V30 6762 C 656.373 0.717409 1.80786 0
M  V30 6763 O 655.628 -0.292897 1.93496 0
M  V30 6764 C 655.927 3.17007 1.65049 0
M  V30 6765 C 655.593 4.43037 0.838398 0
M  V30 6766 C 654.255 4.77262 0.614385 0
M  V30 6767 C 656.607 5.20495 0.271044 0
M  V30 6768 C 653.935 5.864 -0.187552 0
M  V30 6769 C 656.287 6.30476 -0.517979 0
M  V30 6770 C 654.951 6.63245 -0.75249 0
M  V30 6771 H 654.221 0.672605 0.310939 0
M  V30 6772 H 656.868 1.91166 0.112971 0
M  V30 6773 H 655.173 3.05138 2.4576 0
M  V30 6774 H 656.87 3.34975 2.20437 0
M  V30 6775 H 653.46 4.16211 1.02307 0
M  V30 6776 H 657.644 4.94422 0.431371 0
M  V30 6777 H 652.9 6.10226 -0.378659 0
M  V30 6778 H 657.074 6.89686 -0.964694 0
M  V30 6779 H 654.701 7.47648 -1.37573 0
M  V30 6780 N 656.276 -0.40816 1.52223 0
M  V30 6781 C 657.553 -1.16807 1.56893 0
M  V30 6782 C 657.933 -2.08169 0.350537 0
M  V30 6783 O 657.281 -2.18684 -0.662536 0
M  V30 6784 C 657.491 -1.94451 2.8981 0
M  V30 6785 C 658.839 -2.50484 3.42845 0
M  V30 6786 O 659.863 -2.0463 2.91556 0
M  V30 6787 O 658.722 -3.34192 4.3241 0
M  V30 6788 H 655.816 -0.533382 0.632007 0
M  V30 6789 H 658.362 -0.414862 1.64551 0
M  V30 6790 H 657.134 -1.27527 3.69936 0
M  V30 6791 H 656.757 -2.76775 2.85449 0
M  V30 6792 N 657.755 -1.42862 -0.66545 0
M  V30 6793 C 658.98 -1.47456 -1.45848 0
M  V30 6794 C 659.405 -0.0900312 -1.87884 0
M  V30 6795 O 658.763 0.913587 -1.56599 0
M  V30 6796 C 658.811 -2.41514 -2.67774 0
M  V30 6797 O 657.915 -1.89296 -3.66389 0
M  V30 6798 H 657.256 -0.499236 -0.437789 0
M  V30 6799 H 659.786 -1.8765 -0.815394 0
M  V30 6800 H 659.796 -2.58409 -3.15735 0
M  V30 6801 H 658.471 -3.42099 -2.36519 0
M  V30 6802 H 657.048 -1.82003 -3.25468 0
M  V30 6803 N 659.233 0.902656 -1.29189 0
M  V30 6804 C 660.48 1.65287 -1.16989 0
M  V30 6805 C 660.808 1.92485 0.279232 0
M  V30 6806 O 660.063 1.53143 1.21843 0
M  V30 6807 C 660.362 3.011 -1.92545 0
M  V30 6808 C 660.028 2.93521 -3.42281 0
M  V30 6809 C 658.69 2.91161 -3.83117 0
M  V30 6810 C 661.042 2.82947 -4.3771 0
M  V30 6811 C 658.37 2.76043 -5.17704 0
M  V30 6812 C 660.722 2.69368 -5.72384 0
M  V30 6813 C 659.386 2.65373 -6.12482 0
M  V30 6814 H 658.656 0.604828 -0.428094 0
M  V30 6815 H 661.303 1.05084 -1.60092 0
M  V30 6816 H 659.608 3.65153 -1.42024 0
M  V30 6817 H 661.305 3.58073 -1.80512 0
M  V30 6818 H 657.895 2.96158 -3.09819 0
M  V30 6819 H 662.079 2.83849 -4.07116 0
M  V30 6820 H 657.335 2.71352 -5.47885 0
M  V30 6821 H 661.509 2.60156 -6.45981 0
M  V30 6822 H 659.136 2.53415 -7.16718 0
M  V30 6823 N 660.711 1.11618 1.11262 0
M  V30 6824 C 661.674 0.779447 2.15539 0
M  V30 6825 C 662.674 -0.202081 1.59525 0
M  V30 6826 O 663.864 0.0226356 1.74185 0
M  V30 6827 C 660.996 0.15674 3.40539 0
M  V30 6828 H 662.189 1.70324 2.4684 0
M  V30 6829 H 659.742 0.918298 1.26479 0
M  V30 6830 H 660.477 -0.777186 3.1485 0
M  V30 6831 H 660.262 0.863308 3.82478 0
M  V30 6832 H 661.752 -0.062661 4.17553 0
M  V30 6833 N 662.189 -1.289 0.906776 0
M  V30 6834 C 663.466 -1.90221 0.455537 0
M  V30 6835 C 663.846 -1.82251 -1.06527 0
M  V30 6836 O 663.194 -1.25385 -1.91026 0
M  V30 6837 C 663.404 -3.35015 0.97806 0
M  V30 6838 C 664.752 -4.12018 1.02598 0
M  V30 6839 O 665.776 -3.43947 0.926218 0
M  V30 6840 O 664.635 -5.33677 1.17689 0
M  V30 6841 H 661.729 -0.814505 0.143214 0
M  V30 6842 H 664.275 -1.37317 0.997104 0
M  V30 6843 H 663.047 -3.35006 2.02204 0
M  V30 6844 H 662.67 -3.95408 0.416914 0
M  V30 6845 N 663.667 -0.670007 -1.42649 0
M  V30 6846 C 664.63 0.00204659 -2.292 0
M  V30 6847 C 665.63 0.733817 -1.4308 0
M  V30 6848 O 666.82 0.57254 -1.64522 0
M  V30 6849 C 663.952 1.01359 -3.25483 0
M  V30 6850 H 665.145 -0.759696 -2.90118 0
M  V30 6851 H 662.698 -0.432105 -1.50208 0
M  V30 6852 H 663.433 1.80399 -2.69493 0
M  V30 6853 H 663.218 0.492323 -3.88997 0
M  V30 6854 H 664.708 1.4824 -3.90403 0
M  V30 6855 N 665.145 1.52092 -0.413018 0
M  V30 6856 C 666.37 2.06756 0.163338 0
M  V30 6857 C 666.795 1.28073 1.37764 0
M  V30 6858 O 666.153 0.312015 1.78595 0
M  V30 6859 C 666.201 3.57278 0.488322 0
M  V30 6860 O 665.305 3.80986 1.57871 0
M  V30 6861 H 664.646 0.663882 0.0125068 0
M  V30 6862 H 667.176 1.95988 -0.587339 0
M  V30 6863 H 667.186 4.01125 0.745836 0
M  V30 6864 H 665.861 4.13978 -0.399327 0
M  V30 6865 H 664.438 3.49017 1.31306 0
M  V30 6866 N 666.623 0.143563 1.56945 0
M  V30 6867 C 667.869 -0.50916 1.96304 0
M  V30 6868 C 668.202 -1.64741 1.0283 0
M  V30 6869 O 667.477 -1.94374 0.0700361 0
M  V30 6870 C 667.76 -1.0186 3.45393 0
M  V30 6871 C 667.613 0.117923 4.49645 0
M  V30 6872 C 668.932 -1.90151 3.96901 0
M  V30 6873 H 666.051 -0.183608 0.713763 0
M  V30 6874 H 668.693 0.224095 1.88674 0
M  V30 6875 H 666.843 -1.64345 3.52027 0
M  V30 6876 H 668.515 0.754145 4.55094 0
M  V30 6877 H 666.758 0.777568 4.26774 0
M  V30 6878 H 667.429 -0.280187 5.51288 0
M  V30 6879 H 669.905 -1.375 3.92725 0
M  V30 6880 H 668.781 -2.22707 5.0169 0
M  V30 6881 H 669.042 -2.83718 3.39052 0
M  V30 6882 N 668.101 -1.57061 -0.130224 0
M  V30 6883 C 669.031 -2.02552 -1.16168 0
M  V30 6884 C 670.012 -0.907971 -1.4384 0
M  V30 6885 O 671.197 -1.17693 -1.54473 0
M  V30 6886 C 668.327 -2.42035 -2.49071 0
M  V30 6887 C 667.281 -3.5713 -2.35886 0
M  V30 6888 C 666.607 -3.82478 -3.7365 0
M  V30 6889 C 667.907 -4.89236 -1.8288 0
M  V30 6890 H 669.601 -2.8897 -0.783359 0
M  V30 6891 H 667.147 -1.39021 -0.375376 0
M  V30 6892 H 669.1 -2.72462 -3.21469 0
M  V30 6893 H 667.824 -1.52573 -2.88771 0
M  V30 6894 H 666.483 -3.26895 -1.65938 0
M  V30 6895 H 666.131 -2.9024 -4.10816 0
M  V30 6896 H 665.831 -4.59944 -3.65685 0
M  V30 6897 H 667.355 -4.15347 -4.47571 0
M  V30 6898 H 668.769 -5.18272 -2.45085 0
M  V30 6899 H 667.166 -5.70624 -1.85763 0
M  V30 6900 H 668.236 -4.78494 -0.785571 0
M  V30 6901 N 669.579 0.400081 -1.52437 0
M  V30 6902 C 670.827 1.14392 -1.6661 0
M  V30 6903 C 671.148 1.90792 -0.402927 0
M  V30 6904 O 670.418 1.87042 0.582425 0
M  V30 6905 H 668.998 0.425275 -0.614125 0
M  V30 6906 H 671.66 0.455076 -1.89513 0
M  V30 6907 H 670.756 1.85298 -2.51139 0
M  V30 6908 N 671.057 1.43213 0.657864 0
M  V30 6909 C 672.303 1.44798 1.41991 0
M  V30 6910 C 672.636 0.070256 1.94073 0
M  V30 6911 O 671.911 -0.908177 1.71995 0
M  V30 6912 C 672.194 2.4865 2.60471 0
M  V30 6913 C 672.047 3.95679 2.13911 0
M  V30 6914 C 673.366 2.49292 3.62686 0
M  V30 6915 H 670.485 0.527244 0.514959 0
M  V30 6916 H 673.127 1.74733 0.74621 0
M  V30 6917 H 671.277 2.23254 3.17946 0
M  V30 6918 H 672.949 4.32116 1.61472 0
M  V30 6919 H 671.192 4.08733 1.45325 0
M  V30 6920 H 671.863 4.6395 2.99089 0
M  V30 6921 H 674.339 2.71917 3.14961 0
M  V30 6922 H 673.215 3.23907 4.43143 0
M  V30 6923 H 673.476 1.52502 4.14964 0
M  V30 6924 N 672.536 -0.895792 1.29666 0
M  V30 6925 C 673.466 -2.01673 1.17688 0
M  V30 6926 C 674.447 -1.69955 0.0701317 0
M  V30 6927 O 675.632 -1.9258 0.250289 0
M  V30 6928 C 672.762 -3.36568 0.856681 0
M  V30 6929 C 671.716 -3.82509 1.92017 0
M  V30 6930 C 671.042 -5.14574 1.4532 0
M  V30 6931 C 672.342 -4.02409 3.32963 0
M  V30 6932 H 674.036 -2.11953 2.11463 0
M  V30 6933 H 671.582 -1.01839 1.01807 0
M  V30 6934 H 673.535 -4.14498 0.759577 0
M  V30 6935 H 672.259 -3.26391 -0.116763 0
M  V30 6936 H 670.918 -3.068 2.00673 0
M  V30 6937 H 670.566 -5.00815 0.468325 0
M  V30 6938 H 670.266 -5.46283 2.16447 0
M  V30 6939 H 671.79 -5.9504 1.36968 0
M  V30 6940 H 673.204 -4.70808 3.27127 0
M  V30 6941 H 671.601 -4.45478 4.02082 0
M  V30 6942 H 672.671 -3.06616 3.75652 0
M  V30 6943 N 674.014 -1.12206 -1.10668 0
M  V30 6944 C 674.977 -0.790867 -2.15123 0
M  V30 6945 C 675.977 0.193618 -1.5963 0
M  V30 6946 O 677.167 -0.0318728 -1.74171 0
M  V30 6947 C 674.299 -0.174797 -3.40452 0
M  V30 6948 H 675.492 -1.7163 -2.45933 0
M  V30 6949 H 673.045 -0.924993 -1.2599 0
M  V30 6950 H 673.78 0.760478 -3.15257 0
M  V30 6951 H 673.565 -0.88358 -3.82015 0
M  V30 6952 H 675.055 0.0405162 -4.1758 0
M  V30 6953 N 675.492 1.28418 -0.913599 0
M  V30 6954 C 676.903 1.77024 -0.593237 0
M  V30 6955 C 677.254 1.74779 0.891441 0
M  V30 6956 O 676.379 1.34237 1.69733 0
M  V30 6957 C 676.974 3.21456 -1.07011 0
M  V30 6958 C 675.533 3.67786 -0.800664 0
M  V30 6959 C 674.68 2.48185 -1.23691 0
M  V30 6960 H 677.631 1.14883 -1.09487 0
M  V30 6961 H 677.652 3.78269 -0.411481 0
M  V30 6962 H 677.164 3.23058 -2.1507 0
M  V30 6963 H 675.265 3.71644 0.266725 0
M  V30 6964 H 675.378 4.57934 -1.4083 0
M  V30 6965 H 673.742 2.46116 -0.655655 0
M  V30 6966 H 674.525 2.52506 -2.32585 0
M  V30 6967 N 676.97 0.677563 1.42291 0
M  V30 6968 C 678.2 0.209155 2.05539 0
M  V30 6969 C 678.608 -1.13987 1.51009 0
M  V30 6970 O 677.951 -1.71976 0.645764 0
M  V30 6971 C 678.013 0.0697758 3.59432 0
M  V30 6972 C 677.677 1.34795 4.36668 0
M  V30 6973 C 678.674 2.28201 4.67141 0
M  V30 6974 C 676.359 1.59632 4.76259 0
M  V30 6975 C 678.353 3.44718 5.36142 0
M  V30 6976 C 676.04 2.76437 5.45 0
M  V30 6977 C 677.038 3.68805 5.74867 0
M  V30 6978 O 676.726 4.83567 6.42198 0
M  V30 6979 H 676.458 0.0986202 0.668768 0
M  V30 6980 H 679.012 0.925483 1.83368 0
M  V30 6981 H 677.242 -0.702157 3.80272 0
M  V30 6982 H 678.931 -0.359115 4.04308 0
M  V30 6983 H 679.697 2.10264 4.37052 0
M  V30 6984 H 675.576 0.886073 4.52404 0
M  V30 6985 H 679.12 4.16833 5.59371 0
M  V30 6986 H 675.017 2.94299 5.74507 0
M  V30 6987 H 675.785 4.83147 6.6069 0
M  V30 6988 N 678.448 -1.51871 0.421078 0
M  V30 6989 C 679.694 -2.02237 -0.151014 0
M  V30 6990 C 680.027 -1.30554 -1.43768 0
M  V30 6991 O 679.302 -0.41546 -1.90011 0
M  V30 6992 C 679.585 -3.5802 -0.386482 0
M  V30 6993 C 679.438 -4.40339 0.9177 0
M  V30 6994 C 680.757 -4.24444 -1.16342 0
M  V30 6995 H 677.876 -0.735062 -0.0534102 0
M  V30 6996 H 680.518 -1.81656 0.556888 0
M  V30 6997 H 678.668 -3.75688 -0.989494 0
M  V30 6998 H 680.34 -4.34357 1.55344 0
M  V30 6999 H 678.583 -4.06073 1.526 0
M  V30 7000 H 679.254 -5.47451 0.707187 0
M  V30 7001 H 681.73 -4.10948 -0.652788 0
M  V30 7002 H 680.606 -5.33358 -1.29693 0
M  V30 7003 H 680.867 -3.84204 -2.18724 0
M  V30 7004 N 679.926 -0.151884 -1.56866 0
M  V30 7005 C 680.856 0.781943 -2.20018 0
M  V30 7006 C 681.837 1.25347 -1.14987 0
M  V30 7007 O 683.022 1.31015 -1.43348 0
M  V30 7008 C 680.152 2.01928 -2.82564 0
M  V30 7009 C 679.106 1.68434 -3.93464 0
M  V30 7010 C 678.432 2.99472 -4.42968 0
M  V30 7011 C 679.732 0.927244 -5.14003 0
M  V30 7012 H 681.426 0.255607 -2.98307 0
M  V30 7013 H 678.972 0.121502 -1.43486 0
M  V30 7014 H 680.925 2.67741 -3.25411 0
M  V30 7015 H 679.649 2.56943 -2.01614 0
M  V30 7016 H 678.308 1.04998 -3.51242 0
M  V30 7017 H 677.956 3.52488 -3.58834 0
M  V30 7018 H 677.656 2.77823 -5.17772 0
M  V30 7019 H 679.18 3.66348 -4.88489 0
M  V30 7020 H 680.594 1.48756 -5.53665 0
M  V30 7021 H 678.991 0.810513 -5.94601 0
M  V30 7022 H 680.061 -0.0801163 -4.84834 0
M  V30 7023 N 681.404 1.57128 0.121893 0
M  V30 7024 C 682.82 1.52357 0.47534 0
M  V30 7025 C 683.02 0.864417 1.82017 0
M  V30 7026 O 682.076 0.445529 2.48538 0
M  V30 7027 C 683.389 2.97122 0.4625 0
M  V30 7028 C 684.937 3.08196 0.546255 0
M  V30 7029 C 685.412 4.54516 0.563833 0
M  V30 7030 N 686.903 4.58959 0.625353 0
M  V30 7031 C 687.638 5.69585 0.660354 0
M  V30 7032 N 687.134 6.89714 0.653175 0
M  V30 7033 N 688.927 5.57685 0.703143 0
M  V30 7034 H 681.078 1.98364 -0.75931 0
M  V30 7035 H 683.341 0.905777 -0.279772 0
M  V30 7036 H 683.047 3.48706 -0.457943 0
M  V30 7037 H 682.921 3.54406 1.29136 0
M  V30 7038 H 685.308 2.56617 1.45712 0
M  V30 7039 H 685.389 2.53912 -0.310234 0
M  V30 7040 H 685.033 5.06741 -0.342974 0
M  V30 7041 H 684.963 5.06609 1.43716 0
M  V30 7042 H 687.454 3.72489 0.637182 0
M  V30 7043 H 687.767 7.69781 0.682425 0
M  V30 7044 H 686.112 6.92223 0.620646 0
M  V30 7045 H 689.303 4.62744 0.706095 0
M  V30 7046 H 689.476 6.43909 0.726952 0
M  V30 7047 N 682.882 -0.391992 1.52647 0
M  V30 7048 C 683.814 -1.49811 1.73463 0
M  V30 7049 C 684.827 -1.50734 0.615078 0
M  V30 7050 O 686.016 -1.5469 0.890696 0
M  V30 7051 C 683.116 -2.88667 1.77552 0
M  V30 7052 C 682.289 -3.11743 3.06815 0
M  V30 7053 C 681.348 -4.30564 3.02491 0
M  V30 7054 O 680.374 -4.27014 3.76361 0
M  V30 7055 N 681.576 -5.36593 2.21468 0
M  V30 7056 H 684.341 -1.32343 2.68897 0
M  V30 7057 H 681.902 -0.581475 1.51098 0
M  V30 7058 H 683.894 -3.66251 1.7217 0
M  V30 7059 H 682.464 -2.99508 0.895181 0
M  V30 7060 H 681.684 -2.2205 3.25711 0
M  V30 7061 H 682.972 -3.24013 3.92292 0
M  V30 7062 H 682.37 -5.42332 1.60913 0
M  V30 7063 H 680.927 -6.12855 2.21928 0
M  V30 7064 N 684.36 -1.4356 -0.65026 0
M  V30 7065 C 685.606 -1.45549 -1.41221 0
M  V30 7066 C 685.939 -0.0805472 -1.94033 0
M  V30 7067 O 685.214 0.899043 -1.72475 0
M  V30 7068 C 685.497 -2.50028 -2.59148 0
M  V30 7069 C 685.35 -3.96808 -2.1181 0
M  V30 7070 C 686.669 -2.51212 -3.61359 0
M  V30 7071 H 683.788 -0.529967 -0.512156 0
M  V30 7072 H 686.43 -1.75127 -0.736933 0
M  V30 7073 H 684.58 -2.24937 -3.16758 0
M  V30 7074 H 686.252 -4.32966 -1.59178 0
M  V30 7075 H 684.495 -4.09498 -1.43156 0
M  V30 7076 H 685.166 -4.6553 -2.96625 0
M  V30 7077 H 687.642 -2.73583 -3.13515 0
M  V30 7078 H 686.518 -3.26252 -4.41419 0
M  V30 7079 H 686.779 -1.54701 -4.1415 0
M  V30 7080 N 685.838 0.888903 -1.30139 0
M  V30 7081 C 687.084 1.64288 -1.19922 0
M  V30 7082 C 687.439 1.90839 0.244561 0
M  V30 7083 O 686.732 1.51544 1.17239 0
M  V30 7084 C 686.926 2.99041 -1.95728 0
M  V30 7085 C 686.755 2.85644 -3.47329 0
M  V30 7086 C 685.525 2.85836 -4.16685 0
M  V30 7087 C 687.723 2.6188 -4.42632 0
M  V30 7088 N 685.705 2.63289 -5.54574 0
M  V30 7089 C 687.076 2.48418 -5.68057 0
M  V30 7090 C 689.131 2.47073 -4.32272 0
M  V30 7091 C 687.834 2.21655 -6.84296 0
M  V30 7092 C 689.86 2.21695 -5.48275 0
M  V30 7093 C 689.222 2.09007 -6.72678 0
M  V30 7094 H 685.321 0.606315 -0.493868 0
M  V30 7095 H 687.905 1.0478 -1.64102 0
M  V30 7096 H 686.076 3.56589 -1.53945 0
M  V30 7097 H 687.808 3.63607 -1.77685 0
M  V30 7098 H 684.563 2.97521 -3.68481 0
M  V30 7099 H 684.987 2.55039 -6.27124 0
M  V30 7100 H 689.629 2.55621 -3.36776 0
M  V30 7101 H 687.347 2.11845 -7.79838 0
M  V30 7102 H 690.933 2.11067 -5.42164 0
M  V30 7103 H 689.813 1.89643 -7.60924 0
M  V30 7104 N 687.317 1.12792 1.10072 0
M  V30 7105 C 688.227 0.812369 2.20086 0
M  V30 7106 C 689.243 -0.200349 1.72843 0
M  V30 7107 O 690.419 -0.0330262 2.01373 0
M  V30 7108 C 687.484 0.275685 3.45602 0
M  V30 7109 C 686.545 1.34881 4.07561 0
M  V30 7110 C 685.778 0.837639 5.27086 0
M  V30 7111 O 686.001 -0.327224 5.69461 0
M  V30 7112 O 684.935 1.60894 5.79997 0
M  V30 7113 H 688.761 1.73133 2.49517 0
M  V30 7114 H 686.346 0.904863 1.18881 0
M  V30 7115 H 688.228 -0.0185375 4.21396 0
M  V30 7116 H 686.903 -0.615783 3.17789 0
M  V30 7117 H 685.81 1.69625 3.33434 0
M  V30 7118 H 687.143 2.21418 4.39585 0
M  V30 7119 N 688.795 -1.27931 0.920396 0
M  V30 7120 C 690.206 -1.76707 0.602616 0
M  V30 7121 C 690.557 -1.75249 -0.882159 0
M  V30 7122 O 689.682 -1.35135 -1.69019 0
M  V30 7123 C 690.277 -3.20884 1.08714 0
M  V30 7124 C 688.836 -3.67356 0.820157 0
M  V30 7125 C 687.983 -2.47525 1.25006 0
M  V30 7126 H 690.934 -1.14301 1.10095 0
M  V30 7127 H 690.955 -3.78045 0.431535 0
M  V30 7128 H 690.467 -3.21913 2.1678 0
M  V30 7129 H 688.568 -3.7178 -0.247012 0
M  V30 7130 H 688.681 -4.57181 1.43257 0
M  V30 7131 H 687.045 -2.45765 0.668698 0
M  V30 7132 H 687.828 -2.51269 2.3392 0
M  V30 7133 N 690.273 -0.685099 -1.4193 0
M  V30 7134 C 691.203 -0.0273506 -2.33484 0
M  V30 7135 C 692.184 0.778366 -1.51246 0
M  V30 7136 O 693.369 0.733449 -1.79817 0
M  V30 7137 C 690.499 0.917272 -3.34968 0
M  V30 7138 C 689.453 0.21941 -4.27437 0
M  V30 7139 C 688.779 1.27768 -5.1921 0
M  V30 7140 C 690.079 -0.907894 -5.14349 0
M  V30 7141 H 691.773 -0.791994 -2.88735 0
M  V30 7142 H 689.319 -0.382308 -1.38832 0
M  V30 7143 H 691.272 1.38657 -3.97935 0
M  V30 7144 H 689.996 1.71346 -2.78043 0
M  V30 7145 H 688.655 -0.229757 -3.65879 0
M  V30 7146 H 688.303 2.06612 -4.58607 0
M  V30 7147 H 688.003 0.815803 -5.81909 0
M  V30 7148 H 689.527 1.7477 -5.85054 0
M  V30 7149 H 690.941 -0.519348 -5.70943 0
M  V30 7150 H 689.338 -1.2962 -5.85934 0
M  V30 7151 H 690.408 -1.75218 -4.52136 0
M  V30 7152 N 691.751 1.51645 -0.429126 0
M  V30 7153 C 692.683 2.25279 0.422124 0
M  V30 7154 C 693.696 1.28986 0.993299 0
M  V30 7155 O 694.885 1.54797 0.888836 0
M  V30 7156 C 691.985 2.98666 1.60162 0
M  V30 7157 C 691.158 4.2199 1.15078 0
M  V30 7158 C 690.217 4.78028 2.19946 0
M  V30 7159 O 689.243 5.40084 1.79716 0
M  V30 7160 N 690.445 4.61342 3.5234 0
M  V30 7161 H 693.21 2.98971 -0.208931 0
M  V30 7162 H 690.771 1.59838 -0.257568 0
M  V30 7163 H 692.763 3.33044 2.29922 0
M  V30 7164 H 691.333 2.28036 2.13818 0
M  V30 7165 H 690.553 3.932 0.280552 0
M  V30 7166 H 691.841 5.02037 0.826831 0
M  V30 7167 H 691.239 4.11894 3.87763 0
M  V30 7168 H 689.796 5.00104 4.18019 0
M  V30 7169 N 693.229 0.160201 1.56784 0
M  V30 7170 C 694.506 -0.533355 1.88188 0
M  V30 7171 C 694.886 -1.82072 1.06831 0
M  V30 7172 O 694.234 -2.27946 0.158959 0
M  V30 7173 C 694.444 -0.786034 3.40033 0
M  V30 7174 C 695.792 -1.12097 4.09536 0
M  V30 7175 O 696.816 -0.874949 3.45287 0
M  V30 7176 O 695.675 -1.58457 5.23023 0
M  V30 7177 H 692.769 -0.273589 0.780434 0
M  V30 7178 H 695.315 0.197803 1.68543 0
M  V30 7179 H 694.087 0.124515 3.91102 0
M  V30 7180 H 693.71 -1.57091 3.65251 0
M  V30 7181 N 694.707 -1.5719 -0.113559 0
M  V30 7182 C 695.935 -1.89328 -0.834422 0
M  V30 7183 C 696.35 -0.752018 -1.73177 0
M  V30 7184 O 695.707 0.276912 -1.80387 0
M  V30 7185 C 695.758 -3.20962 -1.66329 0
M  V30 7186 O 695.479 -4.30695 -0.802069 0
M  V30 7187 C 696.98 -3.6684 -2.48884 0
M  V30 7188 H 694.2 -0.626769 -0.239587 0
M  V30 7189 H 696.744 -2.04273 -0.0963195 0
M  V30 7190 H 694.899 -3.0767 -2.35409 0
M  V30 7191 H 695.313 -5.06175 -1.37431 0
M  V30 7192 H 696.787 -4.61692 -3.02563 0
M  V30 7193 H 697.264 -2.93765 -3.26495 0
M  V30 7194 H 697.87 -3.82938 -1.85036 0
M  V30 7195 N 696.185 0.383891 -1.52853 0
M  V30 7196 C 697.095 1.49343 -1.80925 0
M  V30 7197 C 698.111 1.59458 -0.696348 0
M  V30 7198 O 699.287 1.75698 -0.984481 0
M  V30 7199 C 696.352 2.84819 -1.97684 0
M  V30 7200 C 695.413 2.84382 -3.21598 0
M  V30 7201 C 694.646 4.13397 -3.37548 0
M  V30 7202 O 694.869 5.08619 -2.58192 0
M  V30 7203 O 693.803 4.20325 -4.30826 0
M  V30 7204 H 697.629 1.2855 -2.75152 0
M  V30 7205 H 695.214 0.572229 -1.38007 0
M  V30 7206 H 697.096 3.65125 -2.10385 0
M  V30 7207 H 695.771 3.05627 -1.06647 0
M  V30 7208 H 694.678 2.0284 -3.14336 0
M  V30 7209 H 696.011 2.68526 -4.12498 0
M  V30 7210 N 697.663 1.43903 0.642637 0
M  V30 7211 C 698.613 1.46321 1.74854 0
M  V30 7212 C 699.597 0.330361 1.57472 0
M  V30 7213 O 700.789 0.574881 1.67404 0
M  V30 7214 C 697.918 1.39919 3.13493 0
M  V30 7215 C 697.004 2.58274 3.36385 0
M  V30 7216 N 697.395 3.83578 3.29699 0
M  V30 7217 C 695.693 2.53224 3.67142 0
M  V30 7218 C 696.394 4.62375 3.52965 0
M  V30 7219 N 695.37 3.93269 3.75287 0
M  V30 7220 H 699.172 2.41062 1.68126 0
M  V30 7221 H 696.686 1.38704 0.844693 0
M  V30 7222 H 698.683 1.39735 3.92785 0
M  V30 7223 H 697.343 0.46207 3.21395 0
M  V30 7224 H 698.354 4.15713 3.08874 0
M  V30 7225 H 695.031 1.68252 3.82096 0
M  V30 7226 H 696.421 5.714 3.53485 0
M  V30 7227 N 699.141 -0.881989 1.30609 0
M  V30 7228 C 700.071 -2.00413 1.1982 0
M  V30 7229 C 701.052 -1.69871 0.0881538 0
M  V30 7230 O 702.237 -1.92304 0.2707 0
M  V30 7231 C 699.367 -3.35641 0.89233 0
M  V30 7232 C 698.321 -3.80451 1.96064 0
M  V30 7233 C 697.647 -5.13003 1.5077 0
M  V30 7234 C 698.947 -3.98855 3.37213 0
M  V30 7235 H 700.641 -2.09698 2.13699 0
M  V30 7236 H 698.187 -1.00754 1.02882 0
M  V30 7237 H 700.14 -4.13669 0.803497 0
M  V30 7238 H 698.864 -3.26497 -0.0821381 0
M  V30 7239 H 697.523 -3.04654 2.03916 0
M  V30 7240 H 697.171 -5.0029 0.521417 0
M  V30 7241 H 696.871 -5.43956 2.22229 0
M  V30 7242 H 698.395 -5.93554 1.43271 0
M  V30 7243 H 699.809 -4.67312 3.32103 0
M  V30 7244 H 698.206 -4.41188 4.06784 0
M  V30 7245 H 699.276 -3.02614 3.78883 0
M  V30 7246 N 700.619 -1.13374 -1.09472 0
M  V30 7247 C 701.868 -0.889844 -1.8101 0
M  V30 7248 C 702.181 0.585686 -1.86625 0
M  V30 7249 O 703.387 0.946497 -2.54467 0
M  V30 7250 C 701.843 -1.54241 -3.25174 0
M  V30 7251 C 701.451 -3.05343 -3.27826 0
M  V30 7252 C 703.195 -1.37919 -4.0147 0
M  V30 7253 C 701.102 -3.63486 -4.6651 0
M  V30 7254 H 700.032 -0.329256 -0.678311 0
M  V30 7255 H 702.683 -1.36139 -1.23038 0
M  V30 7256 H 701.065 -0.998525 -3.83204 0
M  V30 7257 H 702.239 -3.66307 -2.79563 0
M  V30 7258 H 700.554 -3.21175 -2.65019 0
M  V30 7259 H 703.151 -1.78771 -5.03929 0
M  V30 7260 H 703.494 -0.323987 -4.15037 0
M  V30 7261 H 704.027 -1.89284 -3.49881 0
M  V30 7262 H 700.766 -4.68811 -4.58145 0
M  V30 7263 H 700.286 -3.073 -5.15099 0
M  V30 7264 H 701.965 -3.63134 -5.35484 0
M  V30 7265 N 702.098 1.27442 -0.927168 0
M  V30 7266 C 703.031 2.25177 -0.370232 0
M  V30 7267 C 704.009 1.53612 0.533103 0
M  V30 7268 O 705.193 1.8245 0.47373 0
M  V30 7269 C 702.32 3.35431 0.469411 0
M  V30 7270 C 701.366 4.24888 -0.370419 0
M  V30 7271 S 702.199 5.04852 -1.78562 0
M  V30 7272 C 703.355 6.18592 -0.953651 0
M  V30 7273 H 703.588 2.72069 -1.19858 0
M  V30 7274 H 701.121 1.36089 -0.729316 0
M  V30 7275 H 703.079 3.99404 0.947992 0
M  V30 7276 H 701.74 2.87179 1.27228 0
M  V30 7277 H 700.933 5.03264 0.272226 0
M  V30 7278 H 700.535 3.65709 -0.783153 0
M  V30 7279 H 702.827 6.77235 -0.189408 0
M  V30 7280 H 703.77 6.87132 -1.7104 0
M  V30 7281 H 704.178 5.62318 -0.495897 0
M  V30 7282 N 703.576 0.692616 1.41565 0
M  V30 7283 C 704.853 0.150496 1.9502 0
M  V30 7284 C 705.233 -1.33881 1.63215 0
M  V30 7285 O 704.581 -2.08378 0.937598 0
M  V30 7286 C 704.791 0.438636 3.46233 0
M  V30 7287 C 706.139 0.364777 4.2303 0
M  V30 7288 O 707.163 0.373383 3.54238 0
M  V30 7289 O 706.022 0.32234 5.45549 0
M  V30 7290 H 703.116 0.0132454 0.826894 0
M  V30 7291 H 705.662 0.768574 1.51298 0
M  V30 7292 H 704.434 1.46962 3.62654 0
M  V30 7293 H 704.057 -0.210562 3.97042 0
M  V30 7294 N 705.054 -1.51416 0.437162 0
M  V30 7295 C 705.984 -2.30631 -0.364922 0
M  V30 7296 C 706.965 -1.36037 -1.02118 0
M  V30 7297 O 708.15 -1.64956 -1.02485 0
M  V30 7298 C 705.28 -3.1482 -1.46648 0
M  V30 7299 C 704.234 -4.17691 -0.933717 0
M  V30 7300 C 703.56 -4.904 -2.13101 0
M  V30 7301 C 704.86 -5.2229 0.0317201 0
M  V30 7302 H 706.554 -2.97932 0.29614 0
M  V30 7303 H 704.1 -1.4328 0.143865 0
M  V30 7304 H 706.053 -3.69017 -2.03481 0
M  V30 7305 H 704.777 -2.4534 -2.15583 0
M  V30 7306 H 703.436 -3.64545 -0.387602 0
M  V30 7307 H 703.084 -4.17423 -2.80654 0
M  V30 7308 H 702.784 -5.59962 -1.78092 0
M  V30 7309 H 704.308 -5.4742 -2.70487 0
M  V30 7310 H 705.722 -5.7156 -0.446302 0
M  V30 7311 H 704.119 -5.99378 0.29437 0
M  V30 7312 H 705.189 -4.75131 0.968447 0
M  V30 7313 N 706.532 -0.168513 -1.56696 0
M  V30 7314 C 707.948 0.187686 -1.58493 0
M  V30 7315 C 708.148 1.63063 -1.18375 0
M  V30 7316 O 707.204 2.36142 -0.894042 0
M  V30 7317 C 708.517 -0.0905858 -3.00564 0
M  V30 7318 C 710.065 -0.028575 -3.12987 0
M  V30 7319 C 710.54 -0.279799 -4.57145 0
M  V30 7320 N 712.031 -0.227476 -4.62641 0
M  V30 7321 C 712.766 -0.396073 -5.7203 0
M  V30 7322 N 712.262 -0.623572 -6.89988 0
M  V30 7323 N 714.055 -0.332173 -5.61118 0
M  V30 7324 H 706.206 -1.11042 -1.81062 0
M  V30 7325 H 708.469 -0.441235 -0.839056 0
M  V30 7326 H 708.175 -1.09006 -3.34381 0
M  V30 7327 H 708.049 0.619078 -3.72085 0
M  V30 7328 H 710.436 0.961471 -2.78998 0
M  V30 7329 H 710.517 -0.770905 -2.43907 0
M  V30 7330 H 710.161 -1.26704 -4.91842 0
M  V30 7331 H 710.091 0.48311 -5.24379 0
M  V30 7332 H 712.582 -0.0571723 -3.77857 0
M  V30 7333 H 712.895 -0.741745 -7.69232 0
M  V30 7334 H 711.24 -0.660153 -6.91858 0
M  V30 7335 H 714.431 -0.155051 -4.67843 0
M  V30 7336 H 714.604 -0.466994 -6.46315 0
M  V30 7337 N 708.01 1.57248 0.105221 0
M  V30 7338 C 708.96 1.9777 1.1345 0
M  V30 7339 C 709.944 0.854654 1.36325 0
M  V30 7340 O 711.136 1.11844 1.37186 0
M  V30 7341 C 708.265 2.39717 2.45745 0
M  V30 7342 C 707.351 3.58686 2.26286 0
M  V30 7343 N 707.742 4.73942 1.76671 0
M  V30 7344 C 706.04 3.64586 2.56891 0
M  V30 7345 C 706.741 5.55923 1.71245 0
M  V30 7346 N 705.717 4.98803 2.16093 0
M  V30 7347 H 709.519 2.84336 0.743664 0
M  V30 7348 H 707.033 1.59359 0.312787 0
M  V30 7349 H 709.03 2.66971 3.20206 0
M  V30 7350 H 707.69 1.54523 2.85574 0
M  V30 7351 H 708.701 4.9689 1.46016 0
M  V30 7352 H 705.378 2.90031 3.00314 0
M  V30 7353 H 706.768 6.58398 1.34022 0
M  V30 7354 N 709.488 -0.375779 1.53054 0
M  V30 7355 C 710.436 -1.48015 1.79428 0
M  V30 7356 C 711.43 -1.55893 0.662854 0
M  V30 7357 O 712.636 -1.58901 0.845599 0
M  V30 7358 H 709.011 -0.492887 0.56795 0
M  V30 7359 H 710.982 -1.22971 2.71884 0
M  V30 7360 C 709.731 -2.84984 1.99197 0
M  V30 7361 H 709.054 -2.79677 2.85693 0
M  V30 7362 H 710.494 -3.61462 2.21633 0
M  V30 7363 C 708.953 -3.28025 0.768183 0
M  V30 7364 O 709.483 -4.01671 -0.0480482 0
M  V30 7365 N 707.689 -2.84454 0.594521 0
M  V30 7366 H 707.236 -2.24688 1.25988 0
M  V30 7367 H 707.194 -3.13609 -0.222916 0
M  V30 7368 N 710.966 -1.44241 -0.634997 0
M  V30 7369 C 712.377 -1.41622 -1.21655 0
M  V30 7370 C 712.728 -0.129584 -1.95772 0
M  V30 7371 O 711.853 0.770225 -2.02229 0
M  V30 7372 C 712.448 -2.56557 -2.21278 0
M  V30 7373 C 711.007 -2.57145 -2.7487 0
M  V30 7374 C 710.154 -2.33354 -1.49804 0
M  V30 7375 H 713.105 -1.52878 -0.425905 0
M  V30 7376 H 713.126 -2.29089 -3.03807 0
M  V30 7377 H 712.638 -3.50186 -1.67306 0
M  V30 7378 H 710.739 -1.67447 -3.32855 0
M  V30 7379 H 710.852 -3.55507 -3.21172 0
M  V30 7380 H 709.216 -1.82372 -1.77799 0
M  V30 7381 H 709.999 -3.29092 -0.977402 0
M  V30 7382 N 712.444 0.87505 -1.31075 0
M  V30 7383 C 713.692 1.62447 -1.20231 0
M  V30 7384 C 714.013 1.93506 0.240888 0
M  V30 7385 O 713.283 1.57847 1.16022 0
M  V30 7386 H 711.863 0.602207 -0.441991 0
M  V30 7387 H 714.525 1.04788 -1.64334 0
M  V30 7388 H 713.621 2.57031 -1.77036 0
M  V30 7389 N 713.922 1.13953 1.08869 0
M  V30 7390 C 715.17 0.903023 1.80803 0
M  V30 7391 C 715.491 -0.572151 1.86417 0
M  V30 7392 O 714.761 -1.41589 1.35386 0
M  V30 7393 H 713.341 0.331099 0.669614 0
M  V30 7394 H 716.003 1.43719 1.31647 0
M  V30 7395 H 715.099 1.29881 2.83791 0
M  V30 7396 N 715.4 -1.26948 0.933913 0
M  V30 7397 C 716.811 -1.76058 0.621324 0
M  V30 7398 C 717.162 -1.76175 -0.863522 0
M  V30 7399 O 716.287 -1.36921 -1.67576 0
M  V30 7400 C 716.882 -3.19713 1.12111 0
M  V30 7401 C 715.441 -3.66465 0.859074 0
M  V30 7402 C 714.588 -2.46186 1.27624 0
M  V30 7403 H 717.539 -1.13127 1.11301 0
M  V30 7404 H 717.56 -3.77566 0.471608 0
M  V30 7405 H 717.072 -3.19596 2.20182 0
M  V30 7406 H 715.173 -3.72021 -0.207566 0
M  V30 7407 H 715.286 -4.55636 1.48098 0
M  V30 7408 H 713.65 -2.45042 0.694727 0
M  V30 7409 H 714.433 -2.48774 2.36572 0
M  V30 7410 N 716.879 -0.700114 -1.41195 0
M  V30 7411 C 718.104 -0.240704 -2.05998 0
M  V30 7412 C 718.529 1.10313 -1.52357 0
M  V30 7413 O 717.887 1.69154 -0.652424 0
M  V30 7414 C 717.935 -0.213783 -3.59966 0
M  V30 7415 O 717.039 0.809933 -4.04368 0
M  V30 7416 H 716.38 -0.116471 -0.653705 0
M  V30 7417 H 718.91 -0.956251 -1.80878 0
M  V30 7418 H 718.92 -0.0461852 -4.07974 0
M  V30 7419 H 717.595 -1.19454 -3.98376 0
M  V30 7420 H 716.172 0.611319 -3.67855 0
M  V30 7421 N 718.357 1.51182 -0.445186 0
M  V30 7422 C 719.582 2.07056 0.119445 0
M  V30 7423 C 720.007 1.30966 1.35016 0
M  V30 7424 O 719.365 0.349827 1.77893 0
M  V30 7425 C 719.413 3.58234 0.412428 0
M  V30 7426 O 718.517 3.84249 1.49754 0
M  V30 7427 H 717.858 0.663998 -0.00157797 0
M  V30 7428 H 720.388 1.94699 -0.628779 0
M  V30 7429 H 720.398 4.02617 0.660583 0
M  V30 7430 H 719.073 4.13038 -0.487049 0
M  V30 7431 H 717.65 3.51724 1.23873 0
M  V30 7432 N 719.835 0.176821 1.56605 0
M  V30 7433 C 720.798 -0.737429 2.17013 0
M  V30 7434 C 721.798 -1.15414 1.11965 0
M  V30 7435 O 722.988 -1.0702 1.37449 0
M  V30 7436 C 720.12 -2.00445 2.75744 0
M  V30 7437 H 721.313 -0.211455 2.99154 0
M  V30 7438 H 718.866 -0.0727582 1.56131 0
M  V30 7439 H 719.601 -2.57338 1.97352 0
M  V30 7440 H 719.386 -1.71456 3.52626 0
M  V30 7441 H 720.876 -2.65679 3.22187 0
M  V30 7442 N 721.313 -1.57302 -0.09688 0
M  V30 7443 C 722.559 -1.86273 -0.801885 0
M  V30 7444 C 722.892 -0.765694 -1.78468 0
M  V30 7445 O 722.167 0.226495 -1.93177 0
M  V30 7446 C 722.45 -3.25876 -1.53221 0
M  V30 7447 C 722.303 -4.46205 -0.567529 0
M  V30 7448 C 723.622 -3.63352 -2.48321 0
M  V30 7449 H 720.741 -0.67752 -0.29006 0
M  V30 7450 H 723.383 -1.89887 -0.0655577 0
M  V30 7451 H 721.533 -3.22926 -2.15988 0
M  V30 7452 H 723.205 -4.6127 0.0529982 0
M  V30 7453 H 721.448 -4.33636 0.119233 0
M  V30 7454 H 722.119 -5.40608 -1.11564 0
M  V30 7455 H 724.595 -3.67234 -1.95648 0
M  V30 7456 H 723.471 -4.61968 -2.9644 0
M  V30 7457 H 723.732 -2.91941 -3.31998 0
M  V30 7458 N 722.791 0.367657 -1.53252 0
M  V30 7459 C 724.202 0.944563 -1.61043 0
M  V30 7460 C 724.553 1.90325 -0.476546 0
M  V30 7461 O 723.678 2.12721 0.397333 0
M  V30 7462 C 724.273 1.71992 -2.91898 0
M  V30 7463 C 722.832 2.2462 -3.02031 0
M  V30 7464 C 721.979 1.05799 -2.56324 0
M  V30 7465 H 724.93 0.146516 -1.58022 0
M  V30 7466 H 724.951 2.58095 -2.79584 0
M  V30 7467 H 724.463 1.02192 -3.74404 0
M  V30 7468 H 722.564 2.97668 -2.24108 0
M  V30 7469 H 722.677 2.52644 -4.07073 0
M  V30 7470 H 721.041 1.42435 -2.1115 0
M  V30 7471 H 721.824 0.375008 -3.41246 0
M  V30 7472 N 724.269 1.44576 0.627338 0
M  V30 7473 C 725.199 1.54562 1.75022 0
M  V30 7474 C 726.18 0.398378 1.65369 0
M  V30 7475 O 727.365 0.61899 1.84071 0
M  V30 7476 C 724.495 1.49309 3.13567 0
M  V30 7477 C 723.449 2.62549 3.38012 0
M  V30 7478 C 722.775 2.42348 4.76625 0
M  V30 7479 C 724.075 4.04678 3.30202 0
M  V30 7480 H 725.769 2.4855 1.66922 0
M  V30 7481 H 723.315 1.19624 0.801636 0
M  V30 7482 H 725.268 1.54895 3.919 0
M  V30 7483 H 723.992 0.518392 3.2246 0
M  V30 7484 H 722.651 2.56358 2.62061 0
M  V30 7485 H 722.299 1.43062 4.82226 0
M  V30 7486 H 721.999 3.18273 4.93939 0
M  V30 7487 H 723.523 2.49758 5.57183 0
M  V30 7488 H 724.937 4.12217 3.98435 0
M  V30 7489 H 723.334 4.80836 3.5905 0
M  V30 7490 H 724.404 4.2798 2.27949 0
M  V30 7491 N 725.747 -0.868086 1.31537 0
M  V30 7492 C 726.677 -1.99131 1.21939 0
M  V30 7493 C 727.658 -1.69768 0.106166 0
M  V30 7494 O 728.843 -1.92006 0.291081 0
M  V30 7495 C 725.973 -3.34676 0.927879 0
M  V30 7496 C 724.927 -3.7835 2.00088 0
M  V30 7497 C 724.253 -5.11375 1.56203 0
M  V30 7498 C 725.553 -3.95256 3.41424 0
M  V30 7499 H 727.247 -2.07419 2.15911 0
M  V30 7500 H 724.793 -0.996569 1.03945 0
M  V30 7501 H 726.746 -4.12793 0.847327 0
M  V30 7502 H 725.47 -3.26565 -0.0475042 0
M  V30 7503 H 724.129 -3.02474 2.07135 0
M  V30 7504 H 723.777 -4.99709 0.57445 0
M  V30 7505 H 723.477 -5.41568 2.27985 0
M  V30 7506 H 725.001 -5.92001 1.49558 0
M  V30 7507 H 726.415 -4.63764 3.3704 0
M  V30 7508 H 724.812 -4.36849 4.1144 0
M  V30 7509 H 725.882 -2.98579 3.82072 0
M  V30 7510 N 727.225 -1.14528 -1.08264 0
M  V30 7511 C 728.155 -0.856356 -2.1723 0
M  V30 7512 C 729.136 0.189251 -1.69044 0
M  V30 7513 O 730.321 0.0456119 -1.94146 0
M  V30 7514 C 727.451 -0.334662 -3.45684 0
M  V30 7515 C 726.405 -1.31588 -4.0727 0
M  V30 7516 C 725.731 -0.653428 -5.30692 0
M  V30 7517 C 727.031 -2.67866 -4.48381 0
M  V30 7518 H 728.725 -1.76755 -2.41657 0
M  V30 7519 H 726.271 -0.851287 -1.16143 0
M  V30 7520 H 728.224 -0.120128 -4.21229 0
M  V30 7521 H 726.948 0.611967 -3.20815 0
M  V30 7522 H 725.607 -1.51661 -3.33758 0
M  V30 7523 H 725.255 0.299054 -5.0211 0
M  V30 7524 H 724.955 -1.30817 -5.72853 0
M  V30 7525 H 726.479 -0.448453 -6.08951 0
M  V30 7526 H 727.893 -2.51692 -5.15096 0
M  V30 7527 H 726.29 -3.29627 -5.01464 0
M  V30 7528 H 727.36 -3.24632 -3.60198 0
M  V30 7529 N 728.703 1.26451 -0.940633 0
M  V30 7530 C 729.928 1.98407 -0.60412 0
M  V30 7531 C 730.353 1.69584 0.81382 0
M  V30 7532 O 729.711 0.943553 1.54812 0
M  V30 7533 C 729.759 3.50387 -0.852136 0
M  V30 7534 O 728.863 4.1233 0.076013 0
M  V30 7535 H 728.204 0.622466 -0.231153 0
M  V30 7536 H 730.734 1.60932 -1.26342 0
M  V30 7537 H 730.744 4.00614 -0.772816 0
M  V30 7538 H 729.419 3.70696 -1.88566 0
M  V30 7539 H 727.996 3.7286 -0.0543187 0
M  V30 7540 N 730.181 0.707592 1.40822 0
M  V30 7541 C 731.411 0.252706 2.05049 0
M  V30 7542 C 731.819 -1.10758 1.53393 0
M  V30 7543 O 731.162 -1.70567 0.682097 0
M  V30 7544 C 731.224 0.146001 3.59203 0
M  V30 7545 C 730.888 1.44027 4.33711 0
M  V30 7546 C 731.885 2.38058 4.62195 0
M  V30 7547 C 729.57 1.69698 4.72766 0
M  V30 7548 C 731.564 3.56013 5.28709 0
M  V30 7549 C 729.251 2.87936 5.39014 0
M  V30 7550 C 730.249 3.80915 5.66915 0
M  V30 7551 O 729.937 4.9708 6.31796 0
M  V30 7552 H 729.669 0.112784 0.666525 0
M  V30 7553 H 732.223 0.96417 1.81364 0
M  V30 7554 H 730.453 -0.621338 3.81676 0
M  V30 7555 H 732.142 -0.273275 4.04979 0
M  V30 7556 H 732.908 2.19487 4.32493 0
M  V30 7557 H 728.787 0.981835 4.50423 0
M  V30 7558 H 732.331 4.28604 5.50404 0
M  V30 7559 H 728.228 3.06419 5.68135 0
M  V30 7560 H 728.996 4.97053 6.50293 0
M  V30 7561 N 731.66 -1.50943 0.453197 0
M  V30 7562 C 732.907 -2.02212 -0.107922 0
M  V30 7563 C 733.235 -1.33639 -1.41318 0
M  V30 7564 O 732.49 -0.445154 -1.9057 0
M  V30 7565 C 732.789 -3.55603 -0.357944 0
M  V30 7566 C 732.455 -4.42556 0.863427 0
M  V30 7567 C 731.117 -4.6604 1.19834 0
M  V30 7568 C 733.469 -4.93468 1.67747 0
M  V30 7569 C 730.797 -5.37681 2.34768 0
M  V30 7570 C 733.149 -5.6637 2.81793 0
M  V30 7571 C 731.813 -5.88113 3.1572 0
M  V30 7572 H 731.083 -0.739947 -0.0394916 0
M  V30 7573 H 733.73 -1.81738 0.60363 0
M  V30 7574 H 732.035 -3.74495 -1.15156 0
M  V30 7575 H 733.732 -3.92821 -0.805781 0
M  V30 7576 H 730.322 -4.24485 0.592478 0
M  V30 7577 H 734.506 -4.75194 1.43192 0
M  V30 7578 H 729.762 -5.52727 2.61348 0
M  V30 7579 H 733.936 -6.04806 3.45229 0
M  V30 7580 H 731.563 -6.43404 4.04889 0
M  V30 7581 N 733.138 -0.185124 -1.56509 0
M  V30 7582 C 734.07 0.771401 -2.15829 0
M  V30 7583 C 735.083 1.18392 -1.11747 0
M  V30 7584 O 736.272 1.12137 -1.38879 0
M  V30 7585 C 733.372 2.05169 -2.69739 0
M  V30 7586 C 732.545 1.80056 -3.98621 0
M  V30 7587 C 731.604 2.92435 -4.37456 0
M  V30 7588 O 730.63 2.62473 -5.05071 0
M  V30 7589 N 731.832 4.20554 -4.00143 0
M  V30 7590 H 734.597 0.264184 -2.98533 0
M  V30 7591 H 732.158 -0.00281069 -1.619 0
M  V30 7592 H 734.15 2.7947 -2.92709 0
M  V30 7593 H 732.72 2.47041 -1.91545 0
M  V30 7594 H 731.94 0.895862 -3.83885 0
M  V30 7595 H 733.228 1.60662 -4.82768 0
M  V30 7596 H 732.626 4.47753 -3.45736 0
M  V30 7597 H 731.183 4.91514 -4.28085 0
M  V30 7598 N 734.616 1.57351 0.0885366 0
M  V30 7599 C 735.864 1.86051 0.789262 0
M  V30 7600 C 736.185 0.774763 1.78948 0
M  V30 7601 O 735.455 -0.198324 1.94894 0
M  V30 7602 H 734.035 0.686508 0.294475 0
M  V30 7603 H 736.697 1.94779 0.0686055 0
M  V30 7604 H 735.793 2.83007 1.31581 0
M  V30 7605 N 736.094 -0.359525 1.53444 0
M  V30 7606 C 737.505 -0.936009 1.61542 0
M  V30 7607 C 737.856 -1.90069 0.486633 0
M  V30 7608 O 736.981 -2.12929 -0.386047 0
M  V30 7609 C 737.576 -1.70441 2.92806 0
M  V30 7610 C 736.135 -2.23015 3.03218 0
M  V30 7611 C 735.282 -1.04438 2.56881 0
M  V30 7612 H 738.233 -0.138134 1.58098 0
M  V30 7613 H 738.254 -2.56609 2.80948 0
M  V30 7614 H 737.766 -1.00205 3.74941 0
M  V30 7615 H 735.867 -2.96475 2.25684 0
M  V30 7616 H 735.98 -2.50481 4.08407 0
M  V30 7617 H 734.344 -1.41314 2.11902 0
M  V30 7618 H 735.127 -0.356905 3.4144 0
M  V30 7619 N 737.572 -1.44907 -0.619662 0
M  V30 7620 C 738.482 -1.55168 -1.75955 0
M  V30 7621 C 739.498 -0.43672 -1.6843 0
M  V30 7622 O 740.674 -0.695704 -1.89002 0
M  V30 7623 C 737.739 -1.50397 -3.12381 0
M  V30 7624 C 736.8 -2.72835 -3.31451 0
M  V30 7625 C 736.033 -2.68283 -4.61368 0
M  V30 7626 O 736.256 -1.74929 -5.42914 0
M  V30 7627 O 735.19 -3.59308 -4.82889 0
M  V30 7628 H 739.016 -2.51493 -1.7025 0
M  V30 7629 H 736.601 -1.27282 -0.782289 0
M  V30 7630 H 738.483 -1.50301 -3.93685 0
M  V30 7631 H 737.158 -0.572197 -3.18603 0
M  V30 7632 H 736.065 -2.78496 -2.49781 0
M  V30 7633 H 737.398 -3.65098 -3.30098 0
M  V30 7634 N 739.05 0.861098 -1.31996 0
M  V30 7635 C 740.013 1.95068 -1.20338 0
M  V30 7636 C 741.013 1.60289 -0.128114 0
M  V30 7637 O 742.203 1.70048 -0.378044 0
M  V30 7638 C 739.335 3.30153 -0.849205 0
M  V30 7639 H 740.528 2.06833 -2.17164 0
M  V30 7640 H 738.081 1.05049 -1.15734 0
M  V30 7641 H 738.816 3.24087 0.117508 0
M  V30 7642 H 738.601 3.56771 -1.62655 0
M  V30 7643 H 740.091 4.10025 -0.791782 0
M  V30 7644 N 740.528 1.15101 1.07655 0
M  V30 7645 C 741.776 0.922149 1.79836 0
M  V30 7646 C 742.097 -0.552346 1.87014 0
M  V30 7647 O 741.367 -1.40145 1.3688 0
M  V30 7648 H 739.947 0.338182 0.666064 0
M  V30 7649 H 742.609 1.45107 1.30115 0
M  V30 7650 H 741.705 1.32883 2.82398 0
M  V30 7651 N 742.006 -1.2595 0.947325 0
M  V30 7652 C 743.417 -1.75389 0.639963 0
M  V30 7653 C 743.768 -1.77081 -0.844788 0
M  V30 7654 O 742.893 -1.3869 -1.66114 0
M  V30 7655 C 743.488 -3.18506 1.15496 0
M  V30 7656 C 742.047 -3.65534 0.897894 0
M  V30 7657 C 741.194 -2.44818 1.30228 0
M  V30 7658 H 744.145 -1.1194 1.12495 0
M  V30 7659 H 744.166 -3.77045 0.511627 0
M  V30 7660 H 743.678 -3.17243 2.23559 0
M  V30 7661 H 741.779 -3.72221 -0.168096 0
M  V30 7662 H 741.892 -4.54039 1.52922 0
M  V30 7663 H 740.256 -2.44291 0.720678 0
M  V30 7664 H 741.039 -2.46251 2.39198 0
M  V30 7665 N 743.484 -0.715051 -1.40445 0
M  V30 7666 C 744.73 -0.254705 -2.01194 0
M  V30 7667 C 745.063 1.14894 -1.56567 0
M  V30 7668 O 744.338 1.77933 -0.785491 0
M  V30 7669 C 744.621 -0.334148 -3.58546 0
M  V30 7670 C 744.474 -1.77613 -4.13248 0
M  V30 7671 C 745.793 0.294968 -4.3911 0
M  V30 7672 H 742.912 -0.094025 -0.730978 0
M  V30 7673 H 745.554 -0.907449 -1.66929 0
M  V30 7674 H 743.704 0.221609 -3.87867 0
M  V30 7675 H 745.376 -2.38723 -3.94727 0
M  V30 7676 H 743.619 -2.30402 -3.67556 0
M  V30 7677 H 744.29 -1.78311 -5.22407 0
M  V30 7678 H 746.766 -0.178563 -4.15717 0
M  V30 7679 H 745.642 0.208934 -5.48502 0
M  V30 7680 H 745.903 1.37841 -4.20062 0
M  V30 7681 N 744.962 1.50701 -0.461195 0
M  V30 7682 C 745.912 2.25195 0.35653 0
M  V30 7683 C 746.896 1.2838 0.96992 0
M  V30 7684 O 748.088 1.53338 0.884108 0
M  V30 7685 C 745.217 3.11471 1.44364 0
M  V30 7686 C 744.303 4.15729 0.83847 0
M  V30 7687 N 744.694 5.05788 -0.0353198 0
M  V30 7688 C 742.992 4.32133 1.1035 0
M  V30 7689 C 743.693 5.80472 -0.37774 0
M  V30 7690 N 742.669 5.43049 0.24463 0
M  V30 7691 H 746.471 2.92188 -0.316746 0
M  V30 7692 H 743.985 1.60059 -0.274725 0
M  V30 7693 H 745.982 3.63436 2.04255 0
M  V30 7694 H 744.642 2.46025 2.11901 0
M  V30 7695 H 745.653 5.16326 -0.403465 0
M  V30 7696 H 742.33 3.77908 1.77458 0
M  V30 7697 H 743.72 6.62996 -1.09024 0
M  V30 7698 N 746.441 0.193421 1.56409 0
M  V30 7699 C 747.371 -0.723334 2.22014 0
M  V30 7700 C 748.352 -1.22254 1.1827 0
M  V30 7701 O 749.537 -1.27168 1.46771 0
M  V30 7702 C 746.667 -1.94366 2.87818 0
M  V30 7703 C 745.621 -1.57943 3.97791 0
M  V30 7704 C 744.947 -2.87623 4.50752 0
M  V30 7705 C 746.247 -0.790639 5.16281 0
M  V30 7706 H 747.941 -0.176426 2.9888 0
M  V30 7707 H 745.487 -0.0834166 1.43758 0
M  V30 7708 H 747.44 -2.5902 3.32396 0
M  V30 7709 H 746.164 -2.51507 2.08355 0
M  V30 7710 H 744.823 -0.956482 3.53903 0
M  V30 7711 H 744.471 -3.4285 3.68053 0
M  V30 7712 H 744.171 -2.63998 5.24956 0
M  V30 7713 H 745.695 -3.53268 4.9803 0
M  V30 7714 H 747.109 -1.34024 5.57414 0
M  V30 7715 H 745.506 -0.65258 5.96541 0
M  V30 7716 H 746.576 0.208633 4.84451 0
M  V30 7717 N 747.919 -1.57396 -0.0801906 0
M  V30 7718 C 749.166 -1.86836 -0.780927 0
M  V30 7719 C 749.494 -0.784012 -1.77999 0
M  V30 7720 O 748.749 0.220881 -1.94449 0
M  V30 7721 C 749.048 -3.22915 -1.53169 0
M  V30 7722 C 748.714 -4.45843 -0.67339 0
M  V30 7723 C 747.376 -4.79213 -0.436829 0
M  V30 7724 C 749.728 -5.21142 -0.0776786 0
M  V30 7725 C 747.056 -5.853 0.405062 0
M  V30 7726 C 749.408 -6.28119 0.751619 0
M  V30 7727 C 748.072 -6.59995 0.998131 0
M  V30 7728 H 747.342 -0.683682 -0.285761 0
M  V30 7729 H 749.989 -1.91454 -0.0419435 0
M  V30 7730 H 748.294 -3.14049 -2.34265 0
M  V30 7731 H 749.991 -3.42926 -2.07853 0
M  V30 7732 H 746.581 -4.19721 -0.867891 0
M  V30 7733 H 750.765 -4.95682 -0.247572 0
M  V30 7734 H 746.021 -6.084 0.60488 0
M  V30 7735 H 750.195 -6.8563 1.22 0
M  V30 7736 H 747.822 -7.42027 1.65227 0
M  V30 7737 N 749.397 0.351382 -1.53633 0
M  V30 7738 C 750.625 1.11275 -1.74429 0
M  V30 7739 C 751.04 1.82602 -0.479798 0
M  V30 7740 O 750.397 1.74074 0.548125 0
M  V30 7741 C 750.448 2.13223 -2.91921 0
M  V30 7742 O 750.169 1.44798 -4.13479 0
M  V30 7743 C 751.67 3.01797 -3.24706 0
M  V30 7744 H 748.89 0.332153 -0.583023 0
M  V30 7745 H 751.434 0.405974 -2.0043 0
M  V30 7746 H 749.589 2.79477 -2.68274 0
M  V30 7747 H 750.003 2.12839 -4.79374 0
M  V30 7748 H 751.477 3.69282 -4.10286 0
M  V30 7749 H 751.954 3.67387 -2.40673 0
M  V30 7750 H 752.56 2.41141 -3.5033 0
M  V30 7751 N 750.875 1.45233 0.611969 0
M  V30 7752 C 752.103 1.52539 1.39784 0
M  V30 7753 C 752.518 0.156533 1.8815 0
M  V30 7754 O 751.875 -0.84112 1.61961 0
M  V30 7755 C 751.926 2.50614 2.60528 0
M  V30 7756 O 751.647 3.8218 2.14173 0
M  V30 7757 C 753.148 2.67574 3.53439 0
M  V30 7758 H 750.368 0.51674 0.428043 0
M  V30 7759 H 752.912 1.90379 0.746727 0
M  V30 7760 H 751.067 2.15858 3.2169 0
M  V30 7761 H 751.481 4.35305 2.92592 0
M  V30 7762 H 752.955 3.40184 4.34717 0
M  V30 7763 H 753.432 1.73458 4.03496 0
M  V30 7764 H 754.038 3.0331 2.98133 0
M  V30 7765 N 752.353 -0.854086 1.3245 0
M  V30 7766 C 753.583 -1.63836 1.25862 0
M  V30 7767 C 753.991 -1.88383 -0.175588 0
M  V30 7768 O 753.334 -1.45353 -1.1233 0
M  V30 7769 C 753.396 -3.02068 1.94923 0
M  V30 7770 C 753.06 -3.0056 3.44257 0
M  V30 7771 C 754.057 -2.77368 4.39731 0
M  V30 7772 C 751.742 -3.21177 3.862 0
M  V30 7773 C 753.736 -2.74797 5.75122 0
M  V30 7774 C 751.423 -3.18234 5.217 0
M  V30 7775 C 752.421 -2.95072 6.15972 0
M  V30 7776 O 752.109 -2.92003 7.48992 0
M  V30 7777 H 751.841 -0.517007 0.435523 0
M  V30 7778 H 754.395 -1.07314 1.75137 0
M  V30 7779 H 752.625 -3.60382 1.40219 0
M  V30 7780 H 754.314 -3.62791 1.82037 0
M  V30 7781 H 755.08 -2.61205 4.08653 0
M  V30 7782 H 750.959 -3.38231 3.13243 0
M  V30 7783 H 754.503 -2.56638 6.48678 0
M  V30 7784 H 750.4 -3.33941 5.52407 0
M  V30 7785 H 751.168 -3.07953 7.58358 0
M  V30 7786 N 753.831 -1.1567 -1.07043 0
M  V30 7787 C 755.108 -0.843948 -1.76456 0
M  V30 7788 C 755.488 0.659806 -2.00524 0
M  V30 7789 O 754.836 1.60518 -1.62623 0
M  V30 7790 C 755.046 -1.65822 -3.0709 0
M  V30 7791 C 756.394 -1.8664 -3.8138 0
M  V30 7792 O 757.418 -1.62624 -3.1691 0
M  V30 7793 O 756.277 -2.26884 -4.97178 0
M  V30 7794 H 753.371 -0.310677 -0.766426 0
M  V30 7795 H 755.917 -1.26266 -1.1338 0
M  V30 7796 H 754.689 -2.67902 -2.85209 0
M  V30 7797 H 754.312 -1.23605 -3.77899 0
M  V30 7798 N 755.309 1.25446 -0.953992 0
M  V30 7799 C 756.725 1.4539 -0.658316 0
M  V30 7800 C 756.925 1.85607 0.784356 0
M  V30 7801 O 755.981 1.98568 1.55972 0
M  V30 7802 C 757.294 2.52643 -1.6307 0
M  V30 7803 C 758.842 2.66484 -1.64181 0
M  V30 7804 C 759.317 3.76921 -2.60182 0
M  V30 7805 N 760.808 3.84331 -2.58542 0
M  V30 7806 C 761.543 4.69271 -3.29503 0
M  V30 7807 N 761.039 5.58503 -4.09934 0
M  V30 7808 N 762.832 4.6323 -3.18393 0
M  V30 7809 H 754.983 0.976337 -1.8863 0
M  V30 7810 H 757.246 0.490343 -0.811337 0
M  V30 7811 H 756.952 2.29949 -2.66114 0
M  V30 7812 H 756.826 3.50547 -1.39271 0
M  V30 7813 H 759.213 2.88545 -0.618552 0
M  V30 7814 H 759.294 1.68982 -1.92038 0
M  V30 7815 H 758.938 3.55612 -3.62633 0
M  V30 7816 H 758.868 4.73906 -2.29609 0
M  V30 7817 H 761.359 3.20544 -2.0015 0
M  V30 7818 H 761.672 6.20241 -4.61 0
M  V30 7819 H 760.017 5.58214 -4.14032 0
M  V30 7820 H 763.208 3.92527 -2.5503 0
M  V30 7821 H 763.381 5.29204 -3.73961 0
M  V30 7822 N 756.787 0.722489 1.40064 0
M  V30 7823 C 758.203 0.396758 1.5459 0
M  V30 7824 C 758.403 -1.09375 1.69232 0
M  V30 7825 O 757.459 -1.87984 1.68578 0
M  V30 7826 C 758.772 1.16885 2.77053 0
M  V30 7827 C 760.32 1.15583 2.90877 0
M  V30 7828 C 760.795 1.91023 4.16262 0
M  V30 7829 N 762.286 1.88126 4.23276 0
M  V30 7830 C 763.021 2.43315 5.19216 0
M  V30 7831 N 762.517 3.07089 6.21022 0
M  V30 7832 N 764.31 2.33418 5.11344 0
M  V30 7833 H 756.461 1.68887 1.28806 0
M  V30 7834 H 758.724 0.714231 0.62336 0
M  V30 7835 H 758.43 2.22301 2.72534 0
M  V30 7836 H 758.304 0.765011 3.69361 0
M  V30 7837 H 760.691 0.10984 2.94896 0
M  V30 7838 H 760.772 1.59895 1.99668 0
M  V30 7839 H 760.416 2.95616 4.13006 0
M  V30 7840 H 760.346 1.44126 5.06493 0
M  V30 7841 H 762.837 1.41654 3.50346 0
M  V30 7842 H 763.15 3.467 6.90666 0
M  V30 7843 H 761.495 3.11175 6.21446 0
M  V30 7844 H 764.686 1.83248 4.30741 0
M  V30 7845 H 764.859 2.7673 5.85939 0
M  V30 7846 N 758.265 -1.50454 0.469181 0
M  V30 7847 C 759.493 -2.06729 -0.0842134 0
M  V30 7848 C 759.908 -1.33326 -1.33677 0
M  V30 7849 O 759.265 -0.401977 -1.78018 0
M  V30 7850 C 759.316 -3.59557 -0.374253 0
M  V30 7851 O 759.037 -4.30192 0.828622 0
M  V30 7852 C 760.538 -4.32449 -0.974824 0
M  V30 7853 H 757.758 -0.670971 0.006231 0
M  V30 7854 H 760.302 -1.93645 0.657415 0
M  V30 7855 H 758.457 -3.7245 -1.06581 0
M  V30 7856 H 758.871 -5.21371 0.572066 0
M  V30 7857 H 760.345 -5.40361 -1.12755 0
M  V30 7858 H 760.822 -3.92819 -1.96442 0
M  V30 7859 H 761.428 -4.24082 -0.321703 0
M  V30 7860 N 759.743 -0.201713 -1.56304 0
M  V30 7861 C 760.691 0.733133 -2.20744 0
M  V30 7862 C 761.685 1.2148 -1.18064 0
M  V30 7863 O 762.891 1.17692 -1.36193 0
M  V30 7864 H 759.266 0.254789 -0.707521 0
M  V30 7865 H 761.237 0.165996 -2.97938 0
M  V30 7866 C 759.986 1.93925 -2.88597 0
M  V30 7867 H 759.309 1.5777 -3.67353 0
M  V30 7868 H 760.749 2.57158 -3.37114 0
M  V30 7869 C 759.208 2.78219 -1.89989 0
M  V30 7870 O 759.738 3.76353 -1.40432 0
M  V30 7871 N 757.944 2.43847 -1.58072 0
M  V30 7872 H 757.491 1.64103 -1.98565 0
M  V30 7873 H 757.449 3.0053 -0.923524 0
M  V30 7874 N 761.222 1.57436 0.0718424 0
M  V30 7875 C 762.471 1.86431 0.769826 0
M  V30 7876 C 762.784 0.794355 1.78744 0
M  V30 7877 O 763.99 0.972148 2.53499 0
M  V30 7878 C 762.446 3.307 1.42006 0
M  V30 7879 C 762.054 4.45824 0.441017 0
M  V30 7880 C 763.798 3.68894 2.10041 0
M  V30 7881 C 761.705 5.81134 1.09717 0
M  V30 7882 H 760.635 0.695474 0.291259 0
M  V30 7883 H 763.286 1.83485 0.0231224 0
M  V30 7884 H 761.668 3.28257 2.21502 0
M  V30 7885 H 762.842 4.59659 -0.32413 0
M  V30 7886 H 761.157 4.16181 -0.134886 0
M  V30 7887 H 763.754 4.67281 2.59908 0
M  V30 7888 H 764.097 2.98692 2.89981 0
M  V30 7889 H 764.63 3.73326 1.37376 0
M  V30 7890 H 761.369 6.54628 0.338095 0
M  V30 7891 H 760.889 5.711 1.83317 0
M  V30 7892 H 762.568 6.26468 1.617 0
M  V30 7893 N 762.7 -0.34323 1.53817 0
M  V30 7894 C 763.928 -1.10348 1.75017 0
M  V30 7895 C 764.343 -1.82345 0.489475 0
M  V30 7896 O 763.7 -1.74362 -0.538886 0
M  V30 7897 C 763.751 -2.11672 2.93048 0
M  V30 7898 O 763.472 -1.42603 4.14241 0
M  V30 7899 C 764.973 -3.0007 3.26301 0
M  V30 7900 H 762.193 -0.329056 0.584776 0
M  V30 7901 H 764.737 -0.395339 2.00642 0
M  V30 7902 H 762.892 -2.78051 2.69753 0
M  V30 7903 H 763.306 -2.10294 4.80496 0
M  V30 7904 H 764.78 -3.67101 4.12239 0
M  V30 7905 H 765.257 -3.66105 2.42618 0
M  V30 7906 H 765.863 -2.3928 3.51604 0
M  V30 7907 N 764.178 -1.45556 -0.604258 0
M  V30 7908 C 765.11 -1.50494 -1.72871 0
M  V30 7909 C 766.123 -0.395368 -1.57926 0
M  V30 7910 O 767.312 -0.662603 -1.65746 0
M  V30 7911 C 764.412 -1.34874 -3.10906 0
M  V30 7912 C 763.585 -2.59564 -3.52058 0
M  V30 7913 C 762.644 -2.38453 -4.6907 0
M  V30 7914 O 761.67 -3.12082 -4.76018 0
M  V30 7915 N 762.872 -1.43229 -5.62553 0
M  V30 7916 H 765.637 -2.4744 -1.69097 0
M  V30 7917 H 763.198 -1.41338 -0.789636 0
M  V30 7918 H 765.19 -1.18556 -3.86945 0
M  V30 7919 H 763.76 -0.461913 -3.09168 0
M  V30 7920 H 762.98 -2.90974 -2.65946 0
M  V30 7921 H 764.268 -3.42441 -3.76313 0
M  V30 7922 H 763.666 -0.824714 -5.59656 0
M  V30 7923 H 762.223 -1.32882 -6.38111 0
M  V30 7924 N 765.656 0.84705 -1.32902 0
M  V30 7925 C 766.566 1.98845 -1.2449 0
M  V30 7926 C 767.582 1.7329 -0.15702 0
M  V30 7927 O 768.758 1.978 -0.379104 0
M  V30 7928 C 765.823 3.32679 -0.975985 0
M  V30 7929 C 764.884 3.71405 -2.15306 0
M  V30 7930 C 764.117 4.98853 -1.89688 0
M  V30 7931 O 764.34 5.64134 -0.843168 0
M  V30 7932 O 763.274 5.34889 -2.76002 0
M  V30 7933 H 767.1 2.0888 -2.2046 0
M  V30 7934 H 764.685 0.978852 -1.12867 0
M  V30 7935 H 766.567 4.12885 -0.842826 0
M  V30 7936 H 765.242 3.23667 -0.0464954 0
M  V30 7937 H 764.149 2.91743 -2.34172 0
M  V30 7938 H 765.482 3.85073 -3.06561 0
M  V30 7939 N 767.134 1.16236 1.06428 0
M  V30 7940 C 768.084 0.835994 2.12121 0
M  V30 7941 C 769.068 -0.183955 1.59845 0
M  V30 7942 O 770.26 0.0166741 1.76992 0
M  V30 7943 C 767.389 0.337333 3.41639 0
M  V30 7944 C 766.475 1.38798 4.00744 0
M  V30 7945 N 766.866 2.59799 4.3398 0
M  V30 7946 C 765.164 1.24292 4.28331 0
M  V30 7947 C 765.865 3.27213 4.80943 0
M  V30 7948 N 764.841 2.54594 4.80294 0
M  V30 7949 H 768.643 1.75615 2.35662 0
M  V30 7950 H 766.157 1.04921 1.23957 0
M  V30 7951 H 768.154 0.0851274 4.16813 0
M  V30 7952 H 766.814 -0.57677 3.19536 0
M  V30 7953 H 767.825 2.96867 4.24371 0
M  V30 7954 H 764.502 0.389464 4.15679 0
M  V30 7955 H 765.892 4.30492 5.15874 0
M  V30 7956 N 768.612 -1.24939 0.960631 0
M  V30 7957 C 769.859 -1.92818 0.618663 0
M  V30 7958 C 770.187 -1.75177 -0.845173 0
M  V30 7959 O 769.442 -1.09412 -1.62258 0
M  V30 7960 C 769.741 -3.45066 0.930809 0
M  V30 7961 C 769.407 -3.82869 2.38164 0
M  V30 7962 C 768.069 -3.92899 2.7782 0
M  V30 7963 C 770.421 -4.01483 3.32356 0
M  V30 7964 C 767.749 -4.18955 4.10723 0
M  V30 7965 C 770.101 -4.29033 4.6488 0
M  V30 7966 C 768.765 -4.37282 5.04322 0
M  V30 7967 H 768.035 -0.705571 0.226385 0
M  V30 7968 H 770.682 -1.48365 1.21079 0
M  V30 7969 H 768.987 -3.9096 0.256355 0
M  V30 7970 H 770.684 -3.95783 0.644712 0
M  V30 7971 H 767.274 -3.75622 2.06413 0
M  V30 7972 H 771.458 -3.93143 3.02907 0
M  V30 7973 H 766.714 -4.23558 4.40918 0
M  V30 7974 H 770.888 -4.42381 5.3784 0
M  V30 7975 H 768.515 -4.57225 6.0733 0
M  V30 7976 N 770.09 -0.729906 -1.39679 0
M  V30 7977 C 771.315 -0.284345 -2.05442 0
M  V30 7978 C 771.74 1.07056 -1.54663 0
M  V30 7979 O 771.098 1.67732 -0.688157 0
M  V30 7980 C 771.146 -0.290089 -3.59431 0
M  V30 7981 O 770.25 0.723978 -4.05995 0
M  V30 7982 H 769.591 -0.130311 -0.651088 0
M  V30 7983 H 772.121 -0.994403 -1.78809 0
M  V30 7984 H 772.131 -0.132712 -4.07784 0
M  V30 7985 H 770.806 -1.27877 -3.95753 0
M  V30 7986 H 769.383 0.533154 -3.69069 0
M  V30 7987 N 771.568 1.50203 -0.477153 0
M  V30 7988 C 772.518 2.25561 0.332625 0
M  V30 7989 C 773.502 1.29401 0.956249 0
M  V30 7990 O 774.694 1.54267 0.867795 0
M  V30 7991 C 771.823 3.12984 1.41052 0
M  V30 7992 C 770.909 4.16595 0.79433 0
M  V30 7993 N 771.3 5.05722 -0.0889633 0
M  V30 7994 C 769.598 4.33279 1.0576 0
M  V30 7995 C 770.299 5.80039 -0.439286 0
M  V30 7996 N 769.275 5.43278 0.187018 0
M  V30 7997 H 773.077 2.91836 -0.347718 0
M  V30 7998 H 770.591 1.59759 -0.291686 0
M  V30 7999 H 772.588 3.65582 2.00388 0
M  V30 8000 H 771.248 2.48258 2.09279 0
M  V30 8001 H 772.259 5.15869 -0.458205 0
M  V30 8002 H 768.936 3.79769 1.7344 0
M  V30 8003 H 770.326 6.61802 -1.1605 0
M  V30 8004 N 773.046 0.209999 1.56195 0
M  V30 8005 C 773.979 -0.744546 2.15712 0
M  V30 8006 C 774.957 -1.19917 1.09812 0
M  V30 8007 O 776.141 -1.284 1.38006 0
M  V30 8008 C 773.268 -2.00733 2.72807 0
M  V30 8009 C 772.314 -1.69363 3.91431 0
M  V30 8010 S 773.147 -0.828579 5.29051 0
M  V30 8011 C 774.303 -2.10118 5.89577 0
M  V30 8012 H 774.536 -0.238636 2.96341 0
M  V30 8013 H 772.069 -0.00517877 1.54399 0
M  V30 8014 H 774.027 -2.73246 3.06344 0
M  V30 8015 H 772.688 -2.48436 1.92193 0
M  V30 8016 H 771.881 -2.63157 4.29842 0
M  V30 8017 H 771.483 -1.04921 3.58981 0
M  V30 8018 H 773.775 -3.05231 6.04847 0
M  V30 8019 H 774.718 -1.76116 6.85849 0
M  V30 8020 H 775.126 -2.23644 5.18308 0
M  V30 8021 N 774.524 -1.57472 -0.0634922 0
M  V30 8022 C 775.434 -2.07621 -1.09227 0
M  V30 8023 C 776.45 -1.00746 -1.41867 0
M  V30 8024 O 777.626 -1.32269 -1.51878 0
M  V30 8025 C 774.691 -2.51707 -2.38421 0
M  V30 8026 C 773.752 -3.72917 -2.12676 0
M  V30 8027 C 772.985 -4.14891 -3.3571 0
M  V30 8028 O 773.208 -3.56663 -4.45137 0
M  V30 8029 O 772.142 -5.07616 -3.23434 0
M  V30 8030 H 775.968 -2.95612 -0.696205 0
M  V30 8031 H 773.553 -1.46787 -0.27819 0
M  V30 8032 H 775.435 -2.80547 -3.14438 0
M  V30 8033 H 774.11 -1.66842 -2.77391 0
M  V30 8034 H 773.017 -3.49148 -1.34337 0
M  V30 8035 H 774.35 -4.5866 -1.78583 0
M  V30 8036 N 776.003 0.335068 -1.53997 0
M  V30 8037 C 776.933 1.41727 -1.85568 0
M  V30 8038 C 777.914 1.54505 -0.7115 0
M  V30 8039 O 779.099 1.68573 -0.964191 0
M  V30 8040 C 776.229 2.7866 -2.07282 0
M  V30 8041 C 775.183 2.80682 -3.23112 0
M  V30 8042 C 774.509 4.20581 -3.30175 0
M  V30 8043 C 775.809 2.45458 -4.61029 0
M  V30 8044 H 777.503 1.15555 -2.76202 0
M  V30 8045 H 775.049 0.554445 -1.32898 0
M  V30 8046 H 777.002 3.54423 -2.27952 0
M  V30 8047 H 775.726 3.06286 -1.13387 0
M  V30 8048 H 774.385 2.07373 -3.02311 0
M  V30 8049 H 774.033 4.4533 -2.33859 0
M  V30 8050 H 773.733 4.22843 -4.08016 0
M  V30 8051 H 775.257 4.98174 -3.53066 0
M  V30 8052 H 776.671 3.10934 -4.81656 0
M  V30 8053 H 775.068 2.5899 -5.41336 0
M  V30 8054 H 776.138 1.40628 -4.6406 0
M  V30 8055 N 777.481 1.45874 0.596531 0
M  V30 8056 C 778.892 1.44798 1.17857 0
M  V30 8057 C 779.243 0.181443 1.95359 0
M  V30 8058 O 778.368 -0.716336 2.042 0
M  V30 8059 C 778.963 2.62333 2.14398 0
M  V30 8060 C 777.522 2.64342 2.67955 0
M  V30 8061 C 776.669 2.37244 1.43564 0
M  V30 8062 H 779.62 1.53954 0.385222 0
M  V30 8063 H 779.641 2.37063 2.97626 0
M  V30 8064 H 779.153 3.54499 1.57963 0
M  V30 8065 H 777.254 1.76213 3.28298 0
M  V30 8066 H 777.367 3.63897 3.11634 0
M  V30 8067 H 775.731 1.87022 1.72901 0
M  V30 8068 H 776.514 3.31568 0.889805 0
M  V30 8069 N 778.959 -0.83999 1.33349 0
M  V30 8070 C 780.207 -1.59202 1.24496 0
M  V30 8071 C 780.528 -1.94077 -0.189499 0
M  V30 8072 O 779.798 -1.60868 -1.11796 0
M  V30 8073 H 778.378 -0.590276 0.457802 0
M  V30 8074 H 781.04 -1.00394 1.67054 0
M  V30 8075 H 780.136 -2.52247 1.83788 0
M  V30 8076 N 780.437 -1.16799 -1.0581 0
M  V30 8077 C 781.848 -0.95945 -1.60161 0
M  V30 8078 C 782.199 0.49543 -1.89842 0
M  V30 8079 O 781.324 1.36957 -1.67546 0
M  V30 8080 C 781.919 -1.73527 -2.90987 0
M  V30 8081 C 780.478 -1.57158 -3.42021 0
M  V30 8082 C 779.625 -1.74089 -2.15843 0
M  V30 8083 H 782.576 -1.31598 -0.886992 0
M  V30 8084 H 782.597 -1.21397 -3.60615 0
M  V30 8085 H 782.109 -2.79411 -2.69353 0
M  V30 8086 H 780.21 -0.537361 -3.68705 0
M  V30 8087 H 780.323 -2.35858 -4.17022 0
M  V30 8088 H 778.687 -1.16874 -2.26302 0
M  V30 8089 H 779.47 -2.81371 -1.96686 0
M  V30 8090 N 781.915 1.24427 -0.967243 0
M  V30 8091 C 783.331 1.44684 -0.6737 0
M  V30 8092 C 783.531 1.86429 0.764625 0
M  V30 8093 O 782.587 2.00211 1.53857 0
M  V30 8094 C 783.9 2.509 -1.6574 0
M  V30 8095 C 785.448 2.64728 -1.66998 0
M  V30 8096 C 785.923 3.7414 -2.64165 0
M  V30 8097 N 787.414 3.81567 -2.62604 0
M  V30 8098 C 788.149 4.6575 -3.34462 0
M  V30 8099 N 787.645 5.54124 -4.15835 0
M  V30 8100 N 789.438 4.59827 -3.23288 0
M  V30 8101 H 781.589 0.956276 -1.89655 0
M  V30 8102 H 783.852 0.48171 -0.816492 0
M  V30 8103 H 783.558 2.27113 -2.68538 0
M  V30 8104 H 783.432 3.4905 -1.42981 0
M  V30 8105 H 785.819 2.87872 -0.649121 0
M  V30 8106 H 785.9 1.66936 -1.93819 0
M  V30 8107 H 785.544 3.51745 -3.66384 0
M  V30 8108 H 785.474 4.71444 -2.34623 0
M  V30 8109 H 787.965 3.18403 -2.03539 0
M  V30 8110 H 788.278 6.15316 -4.67553 0
M  V30 8111 H 786.623 5.53791 -4.19929 0
M  V30 8112 H 789.814 3.898 -2.59179 0
M  V30 8113 H 789.987 5.25208 -3.79553 0
M  V30 8114 N 783.393 0.737304 1.3929 0
M  V30 8115 C 784.623 0.296143 2.04467 0
M  V30 8116 C 785.031 -1.0748 1.55707 0
M  V30 8117 O 784.374 -1.69082 0.718123 0
M  V30 8118 C 784.436 0.222161 3.58813 0
M  V30 8119 C 784.1 1.53195 4.30558 0
M  V30 8120 C 785.097 2.47809 4.57041 0
M  V30 8121 C 782.782 1.79688 4.6906 0
M  V30 8122 C 784.776 3.67147 5.21039 0
M  V30 8123 C 782.463 2.99304 5.32785 0
M  V30 8124 C 783.461 3.92855 5.58708 0
M  V30 8125 O 783.149 5.1037 6.2111 0
M  V30 8126 H 782.881 0.126896 0.663983 0
M  V30 8127 H 785.435 1.00242 1.79278 0
M  V30 8128 H 783.665 -0.540239 3.82908 0
M  V30 8129 H 785.354 -0.187311 4.05468 0
M  V30 8130 H 786.12 2.28611 4.2774 0
M  V30 8131 H 781.999 1.07716 4.48239 0
M  V30 8132 H 785.543 4.40183 5.41188 0
M  V30 8133 H 781.44 3.18401 5.61508 0
M  V30 8134 H 782.208 5.10735 6.39603 0
M  V30 8135 N 784.871 -1.49948 0.485112 0
M  V30 8136 C 786.096 -2.073 -0.0645059 0
M  V30 8137 C 786.521 -1.345 -1.31497 0
M  V30 8138 O 785.879 -0.39687 -1.76903 0
M  V30 8139 C 785.927 -3.59201 -0.317304 0
M  V30 8140 O 785.031 -3.88085 -1.39514 0
M  V30 8141 H 784.372 -0.663723 0.0191822 0
M  V30 8142 H 786.902 -1.92963 0.680179 0
M  V30 8143 H 786.912 -4.04227 -0.553604 0
M  V30 8144 H 785.587 -4.11602 0.596387 0
M  V30 8145 H 784.164 -3.54885 -1.14504 0
M  V30 8146 N 786.349 -0.21828 -1.56081 0
M  V30 8147 C 787.577 0.419258 -2.02608 0
M  V30 8148 C 787.992 1.53578 -1.09814 0
M  V30 8149 O 787.349 1.82185 -0.107149 0
M  V30 8150 C 787.4 0.953955 -3.48686 0
M  V30 8151 O 787.121 -0.11805 -4.37941 0
M  V30 8152 C 788.622 1.66506 -4.10841 0
M  V30 8153 H 785.842 0.10296 -0.663054 0
M  V30 8154 H 788.386 -0.333776 -2.01758 0
M  V30 8155 H 786.541 1.65727 -3.50162 0
M  V30 8156 H 786.955 0.283359 -5.23734 0
M  V30 8157 H 788.429 1.99123 -5.14834 0
M  V30 8158 H 788.906 2.57705 -3.55647 0
M  V30 8159 H 789.512 1.00703 -4.13206 0
M  V30 8160 N 787.827 1.57504 0.0551401 0
M  V30 8161 C 788.759 2.0158 1.09078 0
M  V30 8162 C 789.772 0.92434 1.34014 0
M  V30 8163 O 790.961 1.20202 1.31961 0
M  V30 8164 C 788.061 2.35385 2.43818 0
M  V30 8165 C 787.234 3.66588 2.38605 0
M  V30 8166 C 786.293 3.87874 3.55585 0
M  V30 8167 O 785.319 4.59259 3.36258 0
M  V30 8168 N 786.521 3.31503 4.76536 0
M  V30 8169 H 789.286 2.91039 0.71529 0
M  V30 8170 H 786.847 1.60058 0.243532 0
M  V30 8171 H 788.839 2.46784 3.20749 0
M  V30 8172 H 787.409 1.51731 2.73307 0
M  V30 8173 H 786.629 3.65787 1.46947 0
M  V30 8174 H 787.917 4.52706 2.32239 0
M  V30 8175 H 787.315 2.73592 4.9514 0
M  V30 8176 H 785.872 3.48324 5.50921 0
M  V30 8177 N 789.305 -0.326896 1.54172 0
M  V30 8178 C 790.721 -0.671034 1.44808 0
M  V30 8179 C 790.921 -1.91781 0.618258 0
M  V30 8180 O 789.977 -2.52235 0.115751 0
M  V30 8181 C 791.29 -0.848147 2.88491 0
M  V30 8182 C 792.838 -0.945702 2.98371 0
M  V30 8183 C 793.313 -1.15501 4.43197 0
M  V30 8184 N 794.804 -1.22183 4.46795 0
M  V30 8185 C 795.539 -1.4016 5.56006 0
M  V30 8186 N 795.035 -1.55202 6.75192 0
M  V30 8187 N 796.828 -1.42841 5.43648 0
M  V30 8188 H 788.979 0.49262 2.06608 0
M  V30 8189 H 791.242 0.158574 0.934643 0
M  V30 8190 H 790.948 -0.00329969 3.517 0
M  V30 8191 H 790.822 -1.74497 3.34411 0
M  V30 8192 H 793.209 -1.78106 2.35292 0
M  V30 8193 H 793.29 -0.0254215 2.55787 0
M  V30 8194 H 792.934 -0.324521 5.06862 0
M  V30 8195 H 792.864 -2.08911 4.83388 0
M  V30 8196 H 795.355 -1.12016 3.60917 0
M  V30 8197 H 795.668 -1.68601 7.54184 0
M  V30 8198 H 794.013 -1.52306 6.78106 0
M  V30 8199 H 797.204 -1.30683 4.49488 0
M  V30 8200 H 797.377 -1.56509 6.28816 0
M  V30 8201 N 790.784 -1.46188 -0.588786 0
M  V30 8202 C 792.032 -1.50885 -1.34455 0
M  V30 8203 C 792.353 -0.159555 -1.94346 0
M  V30 8204 O 791.623 0.813239 -1.78222 0
M  V30 8205 H 790.203 -0.555707 -0.499198 0
M  V30 8206 H 792.865 -1.82277 -0.690014 0
M  V30 8207 H 791.961 -2.25816 -2.15438 0
M  V30 8208 N 792.262 0.832906 -1.33792 0
M  V30 8209 C 793.508 1.59089 -1.25772 0
M  V30 8210 C 793.841 1.93414 0.174601 0
M  V30 8211 O 793.116 1.59195 1.11746 0
M  V30 8212 C 793.399 2.89699 -2.13885 0
M  V30 8213 C 793.252 2.62017 -3.65605 0
M  V30 8214 C 794.571 3.91182 -2.01654 0
M  V30 8215 H 791.69 0.577232 -0.458227 0
M  V30 8216 H 794.332 0.960227 -1.6395 0
M  V30 8217 H 792.482 3.4352 -1.81456 0
M  V30 8218 H 794.154 2.14582 -4.08353 0
M  V30 8219 H 792.397 1.95621 -3.87189 0
M  V30 8220 H 793.068 3.55112 -4.2261 0
M  V30 8221 H 795.544 3.46684 -2.30107 0
M  V30 8222 H 794.42 4.80391 -2.65548 0
M  V30 8223 H 794.681 4.30861 -0.990536 0
M  V30 8224 N 793.74 1.17359 1.05189 0
M  V30 8225 C 794.97 0.985099 1.81602 0
M  V30 8226 C 795.378 -0.469872 1.83273 0
M  V30 8227 O 794.721 -1.33806 1.25864 0
M  V30 8228 C 794.783 1.44956 3.2898 0
M  V30 8229 C 794.447 2.92666 3.50993 0
M  V30 8230 C 795.444 3.906 3.43115 0
M  V30 8231 C 793.129 3.30841 3.77954 0
M  V30 8232 C 795.123 5.24709 3.61883 0
M  V30 8233 C 792.81 4.65116 3.96371 0
M  V30 8234 C 793.808 5.61859 3.88335 0
M  V30 8235 O 793.496 6.93704 4.06238 0
M  V30 8236 H 793.228 0.348731 0.579105 0
M  V30 8237 H 795.782 1.56066 1.33539 0
M  V30 8238 H 794.012 0.817559 3.77959 0
M  V30 8239 H 795.701 1.22674 3.86919 0
M  V30 8240 H 796.467 3.62453 3.22262 0
M  V30 8241 H 792.346 2.5611 3.83313 0
M  V30 8242 H 795.89 6.00205 3.55527 0
M  V30 8243 H 791.787 4.92969 4.16715 0
M  V30 8244 H 792.555 7.00443 4.23463 0
M  V30 8245 N 795.218 -1.23913 0.973828 0
M  V30 8246 C 796.148 -2.27453 0.527969 0
M  V30 8247 C 797.129 -1.6443 -0.435513 0
M  V30 8248 O 798.314 -1.9137 -0.330306 0
M  V30 8249 C 795.444 -3.4685 -0.176757 0
M  V30 8250 C 794.398 -4.22181 0.703352 0
M  V30 8251 C 793.724 -5.34534 -0.133215 0
M  V30 8252 C 795.024 -4.82865 1.99096 0
M  V30 8253 H 796.718 -2.65 1.3934 0
M  V30 8254 H 794.264 -1.27388 0.671446 0
M  V30 8255 H 796.217 -4.18424 -0.499934 0
M  V30 8256 H 794.941 -3.08346 -1.07659 0
M  V30 8257 H 793.6 -3.52416 1.00989 0
M  V30 8258 H 793.248 -4.92271 -1.03338 0
M  V30 8259 H 792.948 -5.85855 0.452494 0
M  V30 8260 H 794.472 -6.08933 -0.450924 0
M  V30 8261 H 795.886 -5.46481 1.73297 0
M  V30 8262 H 794.283 -5.44444 2.52389 0
M  V30 8263 H 795.353 -4.03977 2.68199 0
M  V30 8264 N 796.696 -0.74468 -1.38897 0
M  V30 8265 C 797.626 -0.126355 -2.33158 0
M  V30 8266 C 798.607 0.713517 -1.54412 0
M  V30 8267 O 799.792 0.656523 -1.82766 0
M  V30 8268 C 796.922 0.774375 -3.38557 0
M  V30 8269 C 795.876 0.0379214 -4.27983 0
M  V30 8270 C 795.202 1.05631 -5.24162 0
M  V30 8271 C 796.502 -1.12523 -5.10035 0
M  V30 8272 H 798.196 -0.913744 -2.85116 0
M  V30 8273 H 795.742 -0.440847 -1.37086 0
M  V30 8274 H 797.695 1.21655 -4.03458 0
M  V30 8275 H 796.419 1.59399 -2.85061 0
M  V30 8276 H 795.078 -0.384733 -3.64576 0
M  V30 8277 H 794.726 1.86975 -4.66958 0
M  V30 8278 H 794.426 0.568261 -5.84846 0
M  V30 8279 H 795.95 1.49799 -5.9194 0
M  V30 8280 H 797.364 -0.761037 -5.68226 0
M  V30 8281 H 795.761 -1.54355 -5.79909 0
M  V30 8282 H 796.831 -1.94237 -4.44297 0
M  V30 8283 N 798.174 1.49689 -0.493057 0
M  V30 8284 C 799.402 2.06836 0.0513141 0
M  V30 8285 C 799.817 1.35436 1.31539 0
M  V30 8286 O 799.174 0.430248 1.77356 0
M  V30 8287 C 799.225 3.60107 0.317003 0
M  V30 8288 O 798.946 4.2882 -0.896957 0
M  V30 8289 C 800.447 4.33945 0.905902 0
M  V30 8290 H 797.667 0.670787 -0.0169048 0
M  V30 8291 H 800.211 1.92574 -0.688139 0
M  V30 8292 H 798.366 3.74099 1.00642 0
M  V30 8293 H 798.78 5.20395 -0.654939 0
M  V30 8294 H 800.254 5.42087 1.04144 0
M  V30 8295 H 800.731 3.95895 1.90168 0
M  V30 8296 H 801.337 4.2454 0.254195 0
M  V30 8297 N 799.652 0.226554 1.55963 0
M  V30 8298 C 800.877 -0.411527 2.03276 0
M  V30 8299 C 801.302 -1.52206 1.10521 0
M  V30 8300 O 800.66 -1.81054 0.0943217 0
M  V30 8301 C 800.708 -0.915694 3.4878 0
M  V30 8302 O 799.812 -2.02672 3.59163 0
M  V30 8303 H 799.153 -0.0924907 0.657527 0
M  V30 8304 H 801.683 0.346656 2.01642 0
M  V30 8305 H 801.693 -1.22421 3.892 0
M  V30 8306 H 800.368 -0.102915 4.15773 0
M  V30 8307 H 798.945 -1.72445 3.30632 0
M  V30 8308 N 801.13 -1.57531 -0.0467866 0
M  V30 8309 C 802.08 -2.01845 -1.06031 0
M  V30 8310 C 803.064 -0.904662 -1.33059 0
M  V30 8311 O 804.256 -1.16858 -1.32941 0
M  V30 8312 C 801.385 -2.48673 -2.36679 0
M  V30 8313 C 800.471 -3.66837 -2.12818 0
M  V30 8314 N 800.862 -4.80172 -1.5896 0
M  V30 8315 C 799.16 -3.73869 -2.43183 0
M  V30 8316 C 799.861 -5.61895 -1.50494 0
M  V30 8317 N 798.837 -5.0648 -1.97431 0
M  V30 8318 H 802.639 -2.869 -0.637623 0
M  V30 8319 H 800.153 -1.6041 -0.253427 0
M  V30 8320 H 802.15 -2.78671 -3.10077 0
M  V30 8321 H 800.81 -1.65016 -2.79642 0
M  V30 8322 H 801.821 -5.01967 -1.27474 0
M  V30 8323 H 798.498 -3.00977 -2.89342 0
M  V30 8324 H 799.888 -6.62918 -1.09494 0
M  V30 8325 N 802.608 0.318715 -1.54344 0
M  V30 8326 C 804.024 0.663345 -1.45162 0
M  V30 8327 C 804.224 1.9145 -0.62842 0
M  V30 8328 O 803.28 2.5217 -0.129126 0
M  V30 8329 C 804.593 0.832836 -2.88937 0
M  V30 8330 C 806.141 0.929866 -2.98869 0
M  V30 8331 C 806.616 1.13149 -4.43803 0
M  V30 8332 N 808.107 1.19811 -4.47437 0
M  V30 8333 C 808.842 1.37209 -5.56742 0
M  V30 8334 N 808.338 1.51619 -6.76006 0
M  V30 8335 N 810.131 1.39956 -5.44398 0
M  V30 8336 H 802.282 -0.50357 -2.06344 0
M  V30 8337 H 804.545 -0.163528 -0.933789 0
M  V30 8338 H 804.251 -0.0153519 -3.51697 0
M  V30 8339 H 804.125 1.72721 -3.35332 0
M  V30 8340 H 806.512 1.76855 -2.36233 0
M  V30 8341 H 806.593 0.0118561 -2.55797 0
M  V30 8342 H 806.237 0.297636 -5.07027 0
M  V30 8343 H 806.167 2.06345 -4.84489 0
M  V30 8344 H 808.658 1.101 -3.61506 0
M  V30 8345 H 808.971 1.64599 -7.55067 0
M  V30 8346 H 807.316 1.48708 -6.78904 0
M  V30 8347 H 810.507 1.28298 -4.50175 0
M  V30 8348 H 810.68 1.53172 -6.29637 0
M  V30 8349 N 804.086 1.46499 0.581025 0
M  V30 8350 C 805.314 1.5547 1.36517 0
M  V30 8351 C 805.729 0.196407 1.87776 0
M  V30 8352 O 805.086 -0.806577 1.63709 0
M  V30 8353 C 805.137 2.56084 2.55154 0
M  V30 8354 O 804.858 3.86637 2.06018 0
M  V30 8355 C 806.359 2.75011 3.47683 0
M  V30 8356 H 803.579 0.525703 0.416986 0
M  V30 8357 H 806.123 1.9192 0.706177 0
M  V30 8358 H 804.278 2.22633 3.17039 0
M  V30 8359 H 804.692 4.41413 2.83292 0
M  V30 8360 H 806.166 3.49329 4.27403 0
M  V30 8361 H 806.643 1.81978 3.99726 0
M  V30 8362 H 807.249 3.09565 2.91632 0
M  V30 8363 N 805.565 -0.825799 1.34232 0
M  V30 8364 C 806.528 -1.91808 1.25468 0
M  V30 8365 C 807.528 -1.59893 0.170567 0
M  V30 8366 O 808.718 -1.68986 0.422996 0
M  V30 8367 C 805.85 -3.27786 0.93644 0
M  V30 8368 H 807.043 -2.01003 2.22571 0
M  V30 8369 H 804.596 -1.01944 1.18479 0
M  V30 8370 H 805.331 -3.24285 -0.0315408 0
M  V30 8371 H 805.116 -3.52333 1.72057 0
M  V30 8372 H 806.606 -4.07782 0.900214 0
M  V30 8373 N 807.043 -1.17915 -1.04565 0
M  V30 8374 C 808.271 -0.99616 -1.8134 0
M  V30 8375 C 808.686 0.455509 -1.83223 0
M  V30 8376 O 808.043 1.31636 -1.26405 0
M  V30 8377 C 808.094 -1.53758 -3.27171 0
M  V30 8378 O 807.815 -2.93241 -3.25486 0
M  V30 8379 C 809.316 -1.40007 -4.2061 0
M  V30 8380 H 806.536 -0.352055 -0.571225 0
M  V30 8381 H 809.08 -1.56349 -1.31815 0
M  V30 8382 H 807.235 -1.01213 -3.73945 0
M  V30 8383 H 807.649 -3.18392 -4.16805 0
M  V30 8384 H 809.123 -1.82695 -5.2089 0
M  V30 8385 H 809.6 -0.348054 -4.37819 0
M  V30 8386 H 810.206 -1.916 -3.79697 0
M  V30 8387 N 808.521 1.23394 -0.980386 0
M  V30 8388 C 809.484 2.23092 -0.525619 0
M  V30 8389 C 810.484 1.56129 0.384745 0
M  V30 8390 O 811.674 1.73284 0.178439 0
M  V30 8391 C 808.806 3.40074 0.23712 0
M  V30 8392 H 809.999 2.64839 -1.40714 0
M  V30 8393 H 807.552 1.36227 -0.766275 0
M  V30 8394 H 808.287 3.03783 1.13518 0
M  V30 8395 H 808.072 3.89883 -0.416356 0
M  V30 8396 H 809.562 4.14043 0.543892 0
M  V30 8397 N 809.999 0.752036 1.385 0
M  V30 8398 C 810.962 0.131587 2.28822 0
M  V30 8399 C 811.962 -0.649149 1.47115 0
M  V30 8400 O 813.152 -0.475645 1.67581 0
M  V30 8401 C 810.284 -0.822101 3.30839 0
M  V30 8402 H 811.477 0.927551 2.85196 0
M  V30 8403 H 809.03 0.518945 1.47434 0
M  V30 8404 H 809.765 -1.6438 2.79553 0
M  V30 8405 H 809.55 -0.264689 3.91206 0
M  V30 8406 H 811.04 -1.25226 3.98382 0
M  V30 8407 N 811.477 -1.49425 0.500989 0
M  V30 8408 C 812.387 -2.32899 -0.282011 0
M  V30 8409 C 813.403 -1.44632 -0.967346 0
M  V30 8410 O 814.579 -1.77654 -0.94873 0
M  V30 8411 C 811.644 -3.20069 -1.33253 0
M  V30 8412 C 810.705 -4.24186 -0.660636 0
M  V30 8413 C 809.938 -5.07191 -1.6611 0
M  V30 8414 O 810.161 -4.91712 -2.89094 0
M  V30 8415 O 809.095 -5.8948 -1.21643 0
M  V30 8416 H 812.921 -3.01038 0.401224 0
M  V30 8417 H 810.506 -1.47079 0.262323 0
M  V30 8418 H 812.388 -3.74071 -1.94033 0
M  V30 8419 H 811.063 -2.54625 -1.9987 0
M  V30 8420 H 809.97 -3.74098 -0.0130959 0
M  V30 8421 H 811.303 -4.92186 -0.0369179 0
M  V30 8422 N 812.955 -0.234822 -1.55841 0
M  V30 8423 C 813.865 0.680828 -2.24504 0
M  V30 8424 C 814.881 1.20306 -1.25708 0
M  V30 8425 O 816.057 1.24188 -1.58554 0
M  V30 8426 C 813.122 1.86636 -2.92178 0
M  V30 8427 C 812.183 1.3848 -4.06352 0
M  V30 8428 C 811.416 2.51382 -4.70789 0
M  V30 8429 O 811.639 3.69831 -4.34259 0
M  V30 8430 O 810.573 2.21828 -5.59532 0
M  V30 8431 H 814.399 0.12583 -3.03439 0
M  V30 8432 H 811.984 -0.00381817 -1.494 0
M  V30 8433 H 813.866 2.55845 -3.34845 0
M  V30 8434 H 812.541 2.40921 -2.16192 0
M  V30 8435 H 811.448 0.660341 -3.68226 0
M  V30 8436 H 812.781 0.888177 -4.8412 0
M  V30 8437 N 814.433 1.57553 0.0384317 0
M  V30 8438 C 815.68 1.88841 0.731116 0
M  V30 8439 C 816.008 0.83093 1.75857 0
M  V30 8440 O 815.263 -0.169248 1.94967 0
M  V30 8441 C 815.562 3.26862 1.44554 0
M  V30 8442 C 815.228 4.47472 0.554946 0
M  V30 8443 C 813.89 4.80203 0.309621 0
M  V30 8444 C 816.242 5.21165 -0.0605204 0
M  V30 8445 C 813.57 5.8402 -0.560101 0
M  V30 8446 C 815.922 6.25905 -0.91789 0
M  V30 8447 C 814.586 6.57117 -1.17277 0
M  V30 8448 H 813.856 0.691018 0.267534 0
M  V30 8449 H 816.503 1.91498 -0.00883195 0
M  V30 8450 H 814.808 3.2015 2.25856 0
M  V30 8451 H 816.505 3.48316 1.98688 0
M  V30 8452 H 813.095 4.21874 0.756304 0
M  V30 8453 H 817.279 4.96164 0.116064 0
M  V30 8454 H 812.535 6.06583 -0.765974 0
M  V30 8455 H 816.709 6.82155 -1.40136 0
M  V30 8456 H 814.336 7.37385 -1.84843 0
M  V30 8457 N 815.911 -0.310526 1.54511 0
M  V30 8458 C 816.874 -1.3657 1.84068 0
M  V30 8459 C 817.874 -1.44123 0.713097 0
M  V30 8460 O 819.064 -1.43924 0.981399 0
M  V30 8461 C 816.196 -2.75162 2.01243 0
M  V30 8462 H 817.389 -1.1161 2.78358 0
M  V30 8463 H 814.942 -0.546699 1.46427 0
M  V30 8464 H 815.677 -3.05359 1.09208 0
M  V30 8465 H 815.462 -2.71071 2.83307 0
M  V30 8466 H 816.952 -3.51473 2.25514 0
M  V30 8467 N 817.389 -1.46805 -0.573248 0
M  V30 8468 C 818.636 -1.52604 -1.3311 0
M  V30 8469 C 818.964 -0.181633 -1.9365 0
M  V30 8470 O 818.219 0.823775 -1.77517 0
M  V30 8471 C 818.518 -2.58001 -2.47326 0
M  V30 8472 C 818.184 -4.01747 -2.04719 0
M  V30 8473 C 816.846 -4.40881 -1.92814 0
M  V30 8474 C 819.198 -4.92008 -1.71982 0
M  V30 8475 C 816.526 -5.68129 -1.46445 0
M  V30 8476 C 818.878 -6.19703 -1.27089 0
M  V30 8477 C 817.542 -6.57733 -1.13768 0
M  V30 8478 H 816.812 -0.558417 -0.487084 0
M  V30 8479 H 819.459 -1.80327 -0.644538 0
M  V30 8480 H 817.764 -2.23974 -3.2147 0
M  V30 8481 H 819.461 -2.59715 -3.05531 0
M  V30 8482 H 816.051 -3.70819 -2.14922 0
M  V30 8483 H 820.235 -4.62485 -1.8006 0
M  V30 8484 H 815.491 -5.96359 -1.34783 0
M  V30 8485 H 819.665 -6.89064 -1.00814 0
M  V30 8486 H 817.292 -7.56228 -0.776142 0
M  V30 8487 N 818.867 0.818669 -1.34668 0
M  V30 8488 C 819.797 1.94468 -1.29245 0
M  V30 8489 C 820.778 1.69257 -0.169101 0
M  V30 8490 O 821.963 1.90794 -0.362143 0
M  V30 8491 C 819.093 3.31001 -1.05145 0
M  V30 8492 C 818.047 3.70663 -2.13992 0
M  V30 8493 C 817.373 5.05226 -1.75074 0
M  V30 8494 C 818.673 3.82312 -3.55858 0
M  V30 8495 H 820.367 1.99263 -2.2346 0
M  V30 8496 H 817.913 0.957304 -1.07572 0
M  V30 8497 H 819.866 4.09364 -0.999949 0
M  V30 8498 H 818.59 3.26517 -0.0737312 0
M  V30 8499 H 817.249 2.94578 -2.18219 0
M  V30 8500 H 816.897 4.97233 -0.759518 0
M  V30 8501 H 816.597 5.32734 -2.47928 0
M  V30 8502 H 818.121 5.86042 -1.71427 0
M  V30 8503 H 819.535 4.50935 -3.5402 0
M  V30 8504 H 817.932 4.21278 -4.2737 0
M  V30 8505 H 819.002 2.84193 -3.9289 0
M  V30 8506 N 820.346 1.18468 1.03938 0
M  V30 8507 C 821.279 0.856251 2.11527 0
M  V30 8508 C 822.257 -0.182323 1.61575 0
M  V30 8509 O 823.441 -0.061 1.88401 0
M  V30 8510 C 820.568 0.279562 3.37544 0
M  V30 8511 C 819.614 1.29552 4.06348 0
M  V30 8512 S 820.447 2.85191 4.5324 0
M  V30 8513 C 821.603 2.29037 5.82489 0
M  V30 8514 H 821.836 1.76742 2.39059 0
M  V30 8515 H 819.369 1.01068 1.16725 0
M  V30 8516 H 821.327 -0.0466579 4.10473 0
M  V30 8517 H 819.988 -0.60975 3.08125 0
M  V30 8518 H 819.181 0.840922 4.96935 0
M  V30 8519 H 818.783 1.56804 3.39541 0
M  V30 8520 H 821.075 1.67376 6.565 0
M  V30 8521 H 822.018 3.17929 6.32714 0
M  V30 8522 H 822.426 1.72009 5.37655 0
M  V30 8523 N 821.824 -1.22873 0.986916 0
M  V30 8524 C 822.756 -2.23889 0.490537 0
M  V30 8525 C 823.769 -1.57523 -0.411144 0
M  V30 8526 O 824.958 -1.7721 -0.214236 0
M  V30 8527 C 822.058 -3.37488 -0.30902 0
M  V30 8528 C 821.231 -4.33438 0.587354 0
M  V30 8529 C 820.29 -5.25958 -0.159467 0
M  V30 8530 O 819.316 -5.67394 0.453115 0
M  V30 8531 N 820.518 -5.62265 -1.44355 0
M  V30 8532 H 823.283 -2.67109 1.35914 0
M  V30 8533 H 820.844 -1.37111 0.860937 0
M  V30 8534 H 822.836 -3.96365 -0.817139 0
M  V30 8535 H 821.406 -2.934 -1.07868 0
M  V30 8536 H 820.626 -3.72969 1.27622 0
M  V30 8537 H 821.914 -4.94495 1.19801 0
M  V30 8538 H 821.312 -5.30562 -1.96266 0
M  V30 8539 H 819.869 -6.23585 -1.89698 0
M  V30 8540 N 823.302 -0.75937 -1.38099 0
M  V30 8541 C 824.527 -0.327859 -2.04792 0
M  V30 8542 C 824.952 1.03752 -1.56899 0
M  V30 8543 O 824.31 1.66235 -0.723581 0
M  V30 8544 C 824.358 -0.366264 -3.58735 0
M  V30 8545 O 823.462 0.637697 -4.0744 0
M  V30 8546 H 822.803 -0.144092 -0.648177 0
M  V30 8547 H 825.333 -1.03211 -1.7666 0
M  V30 8548 H 825.343 -0.219179 -4.07411 0
M  V30 8549 H 824.018 -1.36243 -3.92951 0
M  V30 8550 H 822.595 0.454749 -3.70117 0
M  V30 8551 N 824.78 1.49157 -0.508906 0
M  V30 8552 C 825.71 2.32109 0.254469 0
M  V30 8553 C 826.691 1.40754 0.955111 0
M  V30 8554 O 827.876 1.69658 0.944983 0
M  V30 8555 C 825.006 3.21458 1.3146 0
M  V30 8556 C 823.96 4.2167 0.733368 0
M  V30 8557 C 823.286 5.00009 1.8946 0
M  V30 8558 C 824.586 5.21544 -0.280875 0
M  V30 8559 H 826.28 2.9618 -0.43795 0
M  V30 8560 H 823.826 1.4243 -0.212062 0
M  V30 8561 H 825.779 3.78305 1.85643 0
M  V30 8562 H 824.503 2.55346 2.03632 0
M  V30 8563 H 823.162 3.65979 0.213231 0
M  V30 8564 H 822.81 4.30338 2.60419 0
M  V30 8565 H 822.51 5.67821 1.51173 0
M  V30 8566 H 824.034 5.59702 2.44061 0
M  V30 8567 H 825.448 5.73039 0.173095 0
M  V30 8568 H 823.845 5.97291 -0.580006 0
M  V30 8569 H 824.915 4.69969 -1.19404 0
M  V30 8570 N 826.258 0.243083 1.55714 0
M  V30 8571 C 827.506 -0.381964 1.98458 0
M  V30 8572 C 827.827 -1.58745 1.13247 0
M  V30 8573 O 827.097 -1.94723 0.214384 0
M  V30 8574 H 825.677 -0.144114 0.732967 0
M  V30 8575 H 828.339 0.340985 1.91894 0
M  V30 8576 H 827.435 -0.693702 3.04293 0
M  V30 8577 N 827.736 -1.57571 -0.0300757 0
M  V30 8578 C 828.982 -1.90355 -0.716687 0
M  V30 8579 C 829.337 -0.841568 -1.73018 0
M  V30 8580 O 828.63 0.149847 -1.91013 0
M  V30 8581 C 828.824 -3.27624 -1.42818 0
M  V30 8582 C 828.653 -4.47076 -0.485111 0
M  V30 8583 C 827.423 -5.05188 -0.106533 0
M  V30 8584 C 829.621 -5.13758 0.236059 0
M  V30 8585 N 827.603 -6.08155 0.837899 0
M  V30 8586 C 828.974 -6.1128 1.03619 0
M  V30 8587 C 831.029 -4.96977 0.30311 0
M  V30 8588 C 829.732 -6.93829 1.89721 0
M  V30 8589 C 831.758 -5.80086 1.15125 0
M  V30 8590 C 831.12 -6.77178 1.9393 0
M  V30 8591 H 827.219 -0.745417 -0.236384 0
M  V30 8592 H 829.803 -1.94686 0.0231985 0
M  V30 8593 H 827.974 -3.24224 -2.13854 0
M  V30 8594 H 829.706 -3.47927 -2.0671 0
M  V30 8595 H 826.461 -4.71277 -0.468498 0
M  V30 8596 H 826.885 -6.64311 1.30459 0
M  V30 8597 H 831.527 -4.21791 -0.291858 0
M  V30 8598 H 829.245 -7.6836 2.50298 0
M  V30 8599 H 832.831 -5.6915 1.20665 0
M  V30 8600 H 831.711 -7.4037 2.58499 0
M  V30 8601 N 829.214 0.302327 -1.54673 0
M  V30 8602 C 830.177 1.35592 -1.8479 0
M  V30 8603 C 831.177 1.43743 -0.72073 0
M  V30 8604 O 832.367 1.43402 -0.989017 0
M  V30 8605 C 829.499 2.74091 -2.02699 0
M  V30 8606 H 830.692 1.10132 -2.78946 0
M  V30 8607 H 828.245 0.538926 -1.46715 0
M  V30 8608 H 828.98 3.04775 -1.10826 0
M  V30 8609 H 828.765 2.69565 -2.8474 0
M  V30 8610 H 830.255 3.50272 -2.27374 0
M  V30 8611 N 830.692 1.47107 0.565454 0
M  V30 8612 C 831.92 1.56909 1.3486 0
M  V30 8613 C 832.335 0.216312 1.87557 0
M  V30 8614 O 831.692 -0.789168 1.64555 0
M  V30 8615 C 831.743 2.58776 2.52423 0
M  V30 8616 O 831.464 3.888 2.01906 0
M  V30 8617 C 832.965 2.78683 3.44747 0
M  V30 8618 H 830.185 0.530096 0.411387 0
M  V30 8619 H 832.729 1.92658 0.685782 0
M  V30 8620 H 830.884 2.25983 3.1466 0
M  V30 8621 H 831.298 4.44393 2.78595 0
M  V30 8622 H 832.772 3.53842 4.23674 0
M  V30 8623 H 833.249 1.86208 3.97773 0
M  V30 8624 H 833.855 3.12641 2.88333 0
M  V30 8625 N 832.17 -0.811516 1.35101 0
M  V30 8626 C 833.1 -1.9378 1.30275 0
M  V30 8627 C 834.081 -1.69165 0.178075 0
M  V30 8628 O 835.266 -1.90599 0.372256 0
M  V30 8629 C 832.396 -3.30439 1.06899 0
M  V30 8630 C 831.35 -3.69523 2.15955 0
M  V30 8631 C 830.676 -5.0429 1.77751 0
M  V30 8632 C 831.976 -3.80419 3.57881 0
M  V30 8633 H 833.67 -1.98075 2.24514 0
M  V30 8634 H 831.216 -0.951586 1.08078 0
M  V30 8635 H 833.169 -4.08828 1.02164 0
M  V30 8636 H 831.893 -3.26473 0.0910462 0
M  V30 8637 H 830.552 -2.93416 2.19778 0
M  V30 8638 H 830.2 -4.96823 0.785876 0
M  V30 8639 H 829.9 -5.31411 2.5075 0
M  V30 8640 H 831.424 -5.85125 1.74533 0
M  V30 8641 H 832.838 -4.49051 3.56407 0
M  V30 8642 H 831.235 -4.19005 4.29598 0
M  V30 8643 H 832.305 -2.82105 3.94391 0
M  V30 8644 N 833.648 -1.19017 -1.03309 0
M  V30 8645 C 834.894 -0.991681 -1.769 0
M  V30 8646 C 835.227 0.476813 -1.88255 0
M  V30 8647 O 834.502 1.35407 -1.39625 0
M  V30 8648 C 834.785 -1.65627 -3.19749 0
M  V30 8649 C 834.638 -3.19813 -3.1629 0
M  V30 8650 C 835.957 -1.37579 -4.18043 0
M  V30 8651 H 833.076 -0.361674 -0.642153 0
M  V30 8652 H 835.718 -1.46795 -1.20628 0
M  V30 8653 H 833.868 -1.25132 -3.67796 0
M  V30 8654 H 835.54 -3.69494 -2.76174 0
M  V30 8655 H 833.783 -3.51578 -2.54117 0
M  V30 8656 H 834.454 -3.61457 -4.17196 0
M  V30 8657 H 836.93 -1.72679 -3.78578 0
M  V30 8658 H 835.806 -1.86636 -5.16196 0
M  V30 8659 H 836.067 -0.300118 -4.4108 0
M  V30 8660 N 835.127 1.22348 -0.993418 0
M  V30 8661 C 836.375 1.90733 -0.668246 0
M  V30 8662 C 836.696 1.77732 0.802261 0
M  V30 8663 O 835.966 1.16486 1.57505 0
M  V30 8664 H 834.546 0.705966 -0.244174 0
M  V30 8665 H 837.208 1.48691 -1.26004 0
M  V30 8666 H 836.304 2.97883 -0.931239 0
M  V30 8667 N 836.605 0.766683 1.37694 0
M  V30 8668 C 837.515 0.150158 2.34119 0
M  V30 8669 C 838.531 -0.685513 1.59927 0
M  V30 8670 O 839.707 -0.606616 1.92047 0
M  V30 8671 C 836.772 -0.722562 3.39087 0
M  V30 8672 C 835.833 0.128983 4.29106 0
M  V30 8673 C 835.066 -0.702178 5.29061 0
M  V30 8674 O 835.289 -1.93954 5.36412 0
M  V30 8675 O 834.223 -0.114056 6.01792 0
M  V30 8676 H 838.049 0.946829 2.88563 0
M  V30 8677 H 835.634 0.527765 1.39768 0
M  V30 8678 H 837.516 -1.22095 4.03325 0
M  V30 8679 H 836.191 -1.49751 2.86978 0
M  V30 8680 H 835.098 0.673612 3.67985 0
M  V30 8681 H 836.431 0.866892 4.84506 0
M  V30 8682 N 838.083 -1.48885 0.516809 0
M  V30 8683 C 839.332 -2.01686 -0.0239899 0
M  V30 8684 C 839.645 -1.40029 -1.3657 0
M  V30 8685 O 840.851 -1.84249 -1.9941 0
M  V30 8686 C 839.307 -3.59779 -0.0931825 0
M  V30 8687 C 838.915 -4.30416 1.24283 0
M  V30 8688 C 840.659 -4.20471 -0.583507 0
M  V30 8689 C 838.566 -5.80408 1.13494 0
M  V30 8690 H 837.496 -0.753892 -0.0127376 0
M  V30 8691 H 840.147 -1.71273 0.65861 0
M  V30 8692 H 838.529 -3.86976 -0.840577 0
M  V30 8693 H 839.703 -4.14905 2.00476 0
M  V30 8694 H 838.018 -3.81539 1.66785 0
M  V30 8695 H 840.615 -5.30333 -0.681987 0
M  V30 8696 H 840.958 -3.84898 -1.58617 0
M  V30 8697 H 841.491 -3.97654 0.107814 0
M  V30 8698 H 838.23 -6.20532 2.11235 0
M  V30 8699 H 837.75 -5.98368 0.414167 0
M  V30 8700 H 839.429 -6.41781 0.820162 0
M  V30 8701 N 839.561 -0.251338 -1.55583 0
M  V30 8702 C 840.789 0.376187 -2.03451 0
M  V30 8703 C 841.204 1.51215 -1.13047 0
M  V30 8704 O 840.561 1.81917 -0.145769 0
M  V30 8705 C 840.612 0.879779 -3.50631 0
M  V30 8706 O 840.333 -0.210917 -4.37592 0
M  V30 8707 C 841.834 1.57754 -4.14281 0
M  V30 8708 H 839.054 0.0888722 -0.665089 0
M  V30 8709 H 841.598 -0.376497 -2.01004 0
M  V30 8710 H 839.753 1.58263 -3.53598 0
M  V30 8711 H 840.167 0.172203 -5.24217 0
M  V30 8712 H 841.641 1.88158 -5.18942 0
M  V30 8713 H 842.118 2.50103 -3.61034 0
M  V30 8714 H 842.724 0.919154 -4.15249 0
M  V30 8715 N 841.039 1.57585 0.0217189 0
M  V30 8716 C 842.002 2.06004 1.00474 0
M  V30 8717 C 843.002 0.965461 1.2859 0
M  V30 8718 O 844.192 1.22884 1.23471 0
M  V30 8719 C 841.324 2.48319 2.33561 0
M  V30 8720 H 842.517 2.94112 0.586346 0
M  V30 8721 H 840.07 1.53973 0.268716 0
M  V30 8722 H 840.805 1.63389 2.80133 0
M  V30 8723 H 840.59 3.28239 2.1448 0
M  V30 8724 H 842.08 2.86181 3.04122 0
M  V30 8725 N 842.517 -0.29412 1.54831 0
M  V30 8726 C 843.765 -1.02643 1.74094 0
M  V30 8727 C 844.086 -1.87563 0.533402 0
M  V30 8728 O 843.356 -1.9061 -0.452192 0
M  V30 8729 H 841.936 -0.381959 0.641963 0
M  V30 8730 H 844.598 -0.323444 1.92197 0
M  V30 8731 H 843.694 -1.67558 2.63307 0
M  V30 8732 N 843.995 -1.47404 -0.557645 0
M  V30 8733 C 844.943 -1.60265 -1.68576 0
M  V30 8734 C 845.937 -0.469982 -1.6275 0
M  V30 8735 O 847.143 -0.647764 -1.67941 0
M  V30 8736 H 843.518 -0.504353 -0.557792 0
M  V30 8737 H 845.489 -2.55066 -1.54867 0
M  V30 8738 C 844.238 -1.63369 -3.0693 0
M  V30 8739 H 843.561 -2.49874 -3.12095 0
M  V30 8740 H 845.001 -1.76417 -3.85556 0
M  V30 8741 C 843.46 -0.366921 -3.34896 0
M  V30 8742 O 843.99 0.53218 -3.98159 0
M  V30 8743 N 842.196 -0.247082 -2.89548 0
M  V30 8744 H 841.743 -0.979669 -2.38244 0
M  V30 8745 H 841.701 0.599552 -3.0863 0
M  V30 8746 N 845.473 0.80434 -1.35529 0
M  V30 8747 C 846.403 1.93086 -1.31301 0
M  V30 8748 C 847.384 1.69068 -0.187044 0
M  V30 8749 O 848.569 1.90399 -0.382359 0
M  V30 8750 C 845.699 3.29867 -1.0865 0
M  V30 8751 C 844.653 3.68373 -2.17911 0
M  V30 8752 C 843.979 5.0334 -1.80423 0
M  V30 8753 C 845.279 3.78516 -3.59893 0
M  V30 8754 H 846.973 1.96882 -2.25561 0
M  V30 8755 H 844.519 0.945841 -1.08581 0
M  V30 8756 H 846.472 4.08281 -1.04331 0
M  V30 8757 H 845.196 3.2642 -0.108359 0
M  V30 8758 H 843.855 2.92247 -2.21331 0
M  V30 8759 H 843.503 4.96399 -0.812213 0
M  V30 8760 H 843.203 5.30074 -2.53565 0
M  V30 8761 H 844.727 5.84191 -1.77633 0
M  V30 8762 H 846.141 4.47155 -3.58783 0
M  V30 8763 H 844.538 4.16721 -4.31814 0
M  V30 8764 H 845.608 2.8001 -3.95882 0
M  V30 8765 N 846.951 1.19563 1.02676 0
M  V30 8766 C 847.881 0.959024 2.12897 0
M  V30 8767 C 848.862 -0.108382 1.69754 0
M  V30 8768 O 850.047 0.0470698 1.94143 0
M  V30 8769 C 847.177 0.499211 3.43693 0
M  V30 8770 C 846.131 1.5087 4.00528 0
M  V30 8771 C 845.457 0.905884 5.2697 0
M  V30 8772 C 846.757 2.88954 4.3509 0
M  V30 8773 H 848.451 1.88084 2.32948 0
M  V30 8774 H 845.997 0.905731 1.11949 0
M  V30 8775 H 847.95 0.320965 4.20176 0
M  V30 8776 H 846.674 -0.458205 3.2337 0
M  V30 8777 H 845.333 1.67413 3.26142 0
M  V30 8778 H 844.981 -0.0591506 5.02965 0
M  V30 8779 H 844.681 1.58 5.65959 0
M  V30 8780 H 846.205 0.73848 6.06118 0
M  V30 8781 H 847.619 2.75981 5.02501 0
M  V30 8782 H 846.016 3.53177 4.85166 0
M  V30 8783 H 847.086 3.41447 3.44299 0
M  V30 8784 N 848.429 -1.21819 0.999893 0
M  V30 8785 C 849.379 -2.21823 0.527104 0
M  V30 8786 C 850.363 -1.55628 -0.408515 0
M  V30 8787 O 851.555 -1.75444 -0.234196 0
M  V30 8788 C 848.684 -3.42972 -0.149986 0
M  V30 8789 C 847.77 -4.16364 0.806349 0
M  V30 8790 N 848.161 -4.66403 1.95708 0
M  V30 8791 C 846.459 -4.41618 0.623672 0
M  V30 8792 C 847.16 -5.22443 2.5579 0
M  V30 8793 N 846.136 -5.11514 1.83995 0
M  V30 8794 H 849.938 -2.58161 1.40464 0
M  V30 8795 H 847.452 -1.37569 0.863054 0
M  V30 8796 H 849.449 -4.13816 -0.50613 0
M  V30 8797 H 848.109 -3.08145 -1.02357 0
M  V30 8798 H 849.12 -4.62142 2.33763 0
M  V30 8799 H 845.797 -4.17005 -0.203257 0
M  V30 8800 H 847.187 -5.7165 3.5308 0
M  V30 8801 N 849.908 -0.773975 -1.37286 0
M  V30 8802 C 851.136 -0.350758 -2.03905 0
M  V30 8803 C 851.551 1.02779 -1.58373 0
M  V30 8804 O 850.908 1.65646 -0.766009 0
M  V30 8805 C 850.959 -0.387335 -3.59419 0
M  V30 8806 O 850.68 -1.7115 -4.03286 0
M  V30 8807 C 852.181 0.047198 -4.43275 0
M  V30 8808 H 849.401 -0.146663 -0.654775 0
M  V30 8809 H 851.945 -1.04852 -1.75574 0
M  V30 8810 H 850.1 0.261865 -3.86514 0
M  V30 8811 H 850.514 -1.65166 -4.97816 0
M  V30 8812 H 851.988 -0.0295474 -5.51992 0
M  V30 8813 H 852.465 1.09786 -4.25257 0
M  V30 8814 H 853.071 -0.573899 -4.2141 0
M  V30 8815 N 851.386 1.48609 -0.524698 0
M  V30 8816 C 852.802 1.58557 -0.182199 0
M  V30 8817 C 853.002 1.52732 1.31435 0
M  V30 8818 O 852.058 1.41362 2.0922 0
M  V30 8819 C 853.371 2.90406 -0.78004 0
M  V30 8820 C 854.919 3.03924 -0.748293 0
M  V30 8821 C 855.394 4.38427 -1.32462 0
M  V30 8822 N 856.885 4.4498 -1.28635 0
M  V30 8823 C 857.62 5.47551 -1.70223 0
M  V30 8824 N 857.116 6.57103 -2.19515 0
M  V30 8825 N 858.909 5.38402 -1.61493 0
M  V30 8826 H 851.06 1.50638 -1.4974 0
M  V30 8827 H 853.323 0.714952 -0.622533 0
M  V30 8828 H 853.029 3.00308 -1.83052 0
M  V30 8829 H 852.903 3.76343 -0.254075 0
M  V30 8830 H 855.29 2.93638 0.293407 0
M  V30 8831 H 855.371 2.19611 -1.31167 0
M  V30 8832 H 855.015 4.49466 -2.36522 0
M  V30 8833 H 854.945 5.21418 -0.736967 0
M  V30 8834 H 857.436 3.66393 -0.92545 0
M  V30 8835 H 857.749 7.31499 -2.49257 0
M  V30 8836 H 856.094 6.58081 -2.23506 0
M  V30 8837 H 859.285 4.5171 -1.22785 0
M  V30 8838 H 859.458 6.18208 -1.94225 0
M  V30 8839 N 852.864 0.259585 1.55447 0
M  V30 8840 C 854.092 -0.365392 2.03648 0
M  V30 8841 C 854.507 -1.50613 1.13847 0
M  V30 8842 O 853.864 -1.81837 0.155414 0
M  V30 8843 C 853.915 -0.861172 3.51093 0
M  V30 8844 O 853.636 0.234121 4.37474 0
M  V30 8845 C 855.137 -1.55555 4.15111 0
M  V30 8846 H 852.357 -0.0853439 0.66555 0
M  V30 8847 H 854.901 0.387151 2.00802 0
M  V30 8848 H 853.056 -1.56385 3.54433 0
M  V30 8849 H 853.47 -0.1444 5.24301 0
M  V30 8850 H 854.944 -1.85403 5.19932 0
M  V30 8851 H 855.421 -2.48185 3.62355 0
M  V30 8852 H 856.027 -0.89712 4.15731 0
M  V30 8853 N 854.342 -1.57594 -0.0133615 0
M  V30 8854 C 855.588 -1.90262 -0.702019 0
M  V30 8855 C 855.921 -0.859219 -1.74158 0
M  V30 8856 O 855.196 0.123778 -1.94106 0
M  V30 8857 C 855.479 -3.3354 -1.35732 0
M  V30 8858 C 855.332 -4.48586 -0.330208 0
M  V30 8859 C 856.651 -3.76004 -2.28712 0
M  V30 8860 H 853.77 -0.691943 -0.253739 0
M  V30 8861 H 856.412 -1.89967 0.0351894 0
M  V30 8862 H 854.562 -3.33921 -1.98567 0
M  V30 8863 H 856.234 -4.6034 0.297433 0
M  V30 8864 H 854.477 -4.32394 0.348926 0
M  V30 8865 H 855.148 -5.45762 -0.827508 0
M  V30 8866 H 857.624 -3.77089 -1.75906 0
M  V30 8867 H 856.5 -4.77032 -2.71535 0
M  V30 8868 H 856.761 -3.09129 -3.16056 0
M  V30 8869 N 855.82 0.285905 -1.54985 0
M  V30 8870 C 857.231 0.857869 -1.65824 0
M  V30 8871 C 857.582 1.87531 -0.576763 0
M  V30 8872 O 856.707 2.14528 0.284016 0
M  V30 8873 C 857.302 1.56277 -3.00604 0
M  V30 8874 C 855.861 2.08294 -3.13513 0
M  V30 8875 C 855.008 0.920633 -2.61571 0
M  V30 8876 H 857.959 0.0625463 -1.58577 0
M  V30 8877 H 857.98 2.42912 -2.92872 0
M  V30 8878 H 857.492 0.822017 -3.79295 0
M  V30 8879 H 855.593 2.8537 -2.39572 0
M  V30 8880 H 855.706 2.3071 -4.19892 0
M  V30 8881 H 854.07 1.31043 -2.18403 0
M  V30 8882 H 854.853 0.193594 -3.42754 0
M  V30 8883 N 857.298 1.47698 0.54982 0
M  V30 8884 C 858.228 1.63622 1.66583 0
M  V30 8885 C 859.209 0.485477 1.63025 0
M  V30 8886 O 860.394 0.715692 1.80531 0
M  V30 8887 C 857.524 1.65721 3.05211 0
M  V30 8888 C 856.478 2.80097 3.2362 0
M  V30 8889 C 855.804 2.67272 4.63109 0
M  V30 8890 C 857.104 4.21612 3.08286 0
M  V30 8891 H 858.798 2.57049 1.53512 0
M  V30 8892 H 856.344 1.23705 0.737099 0
M  V30 8893 H 858.297 1.75451 3.83138 0
M  V30 8894 H 857.021 0.688593 3.19258 0
M  V30 8895 H 855.68 2.69889 2.48104 0
M  V30 8896 H 855.328 1.68422 4.73965 0
M  V30 8897 H 855.028 3.44008 4.76374 0
M  V30 8898 H 856.552 2.78942 5.43161 0
M  V30 8899 H 857.966 4.32758 3.76024 0
M  V30 8900 H 856.363 4.99193 3.33057 0
M  V30 8901 H 857.433 4.39462 2.04942 0
M  V30 8902 N 858.776 -0.797141 1.35954 0
M  V30 8903 C 859.706 -1.92387 1.32323 0
M  V30 8904 C 860.687 -1.68967 0.196007 0
M  V30 8905 O 861.872 -1.90193 0.39245 0
M  V30 8906 C 859.002 -3.29286 1.10398 0
M  V30 8907 C 857.956 -3.67212 2.19862 0
M  V30 8908 C 857.282 -5.02377 1.8309 0
M  V30 8909 C 858.582 -3.76602 3.61896 0
M  V30 8910 H 860.276 -1.95683 2.26602 0
M  V30 8911 H 857.822 -0.94007 1.09081 0
M  V30 8912 H 859.775 -4.07721 1.06495 0
M  V30 8913 H 858.499 -3.26358 0.125668 0
M  V30 8914 H 857.158 -2.91069 2.22878 0
M  V30 8915 H 856.806 -4.95961 0.838527 0
M  V30 8916 H 856.506 -5.28722 2.56372 0
M  V30 8917 H 858.03 -5.8324 1.80729 0
M  V30 8918 H 859.444 -4.45246 3.6115 0
M  V30 8919 H 857.841 -4.14425 4.34018 0
M  V30 8920 H 858.911 -2.77906 3.97361 0
M  V30 8921 N 860.254 -1.20106 -1.0204 0
M  V30 8922 C 861.531 -0.918029 -1.72718 0
M  V30 8923 C 861.911 0.574163 -2.03142 0
M  V30 8924 O 861.259 1.53476 -1.69285 0
M  V30 8925 C 861.469 -1.78698 -2.9978 0
M  V30 8926 C 862.817 -2.02648 -3.7312 0
M  V30 8927 O 863.841 -1.75919 -3.09727 0
M  V30 8928 O 862.7 -2.47767 -4.87107 0
M  V30 8929 H 859.794 -0.342904 -0.752559 0
M  V30 8930 H 862.34 -1.30961 -1.07923 0
M  V30 8931 H 861.112 -2.79757 -2.7359 0
M  V30 8932 H 860.735 -1.39522 -3.72316 0
M  V30 8933 N 861.732 1.21287 -1.00634 0
M  V30 8934 C 862.96 1.94385 -0.708678 0
M  V30 8935 C 863.375 1.7416 0.728957 0
M  V30 8936 O 862.732 1.04906 1.49335 0
M  V30 8937 C 862.783 3.46755 -1.02193 0
M  V30 8938 O 862.504 3.6631 -2.40309 0
M  V30 8939 C 864.005 4.37014 -0.743867 0
M  V30 8940 H 861.225 0.618136 -0.261052 0
M  V30 8941 H 863.769 1.54067 -1.34475 0
M  V30 8942 H 861.924 3.8499 -0.431441 0
M  V30 8943 H 862.338 4.60393 -2.51274 0
M  V30 8944 H 863.812 5.42621 -1.01321 0
M  V30 8945 H 864.289 4.38017 0.322084 0
M  V30 8946 H 864.895 4.04426 -1.31603 0
M  V30 8947 N 863.21 0.781244 1.36873 0
M  V30 8948 C 864.621 0.414093 1.8205 0
M  V30 8949 C 864.972 -1.06098 1.65039 0
M  V30 8950 O 864.097 -1.82251 1.16677 0
M  V30 8951 C 864.692 0.744837 3.30511 0
M  V30 8952 C 863.251 0.430621 3.73929 0
M  V30 8953 C 862.398 0.983746 2.59264 0
M  V30 8954 H 865.349 0.975091 1.2521 0
M  V30 8955 H 865.37 0.032936 3.80486 0
M  V30 8956 H 864.882 1.81847 3.42861 0
M  V30 8957 H 862.983 -0.635308 3.67144 0
M  V30 8958 H 863.096 0.945514 4.69677 0
M  V30 8959 H 861.46 0.407433 2.5142 0
M  V30 8960 H 862.243 2.06297 2.74402 0
M  V30 8961 N 864.689 -1.48329 0.532571 0
M  V30 8962 C 865.599 -2.33445 -0.232546 0
M  V30 8963 C 866.615 -1.46651 -0.93645 0
M  V30 8964 O 867.791 -1.79627 -0.910834 0
M  V30 8965 C 864.856 -3.22824 -1.26434 0
M  V30 8966 C 863.917 -4.25492 -0.570511 0
M  V30 8967 C 863.15 -5.10601 -1.55315 0
M  V30 8968 O 863.373 -4.97733 -2.78599 0
M  V30 8969 O 862.307 -5.91927 -1.09112 0
M  V30 8970 H 866.133 -3.00119 0.464988 0
M  V30 8971 H 863.718 -1.46489 0.293462 0
M  V30 8972 H 865.6 -3.78103 -1.86055 0
M  V30 8973 H 864.275 -2.58807 -1.94424 0
M  V30 8974 H 863.182 -3.74041 0.0662587 0
M  V30 8975 H 864.515 -4.92154 0.0674904 0
M  V30 8976 N 866.167 -0.267825 -1.55308 0
M  V30 8977 C 867.415 0.350343 -1.9904 0
M  V30 8978 C 867.736 1.56924 -1.15758 0
M  V30 8979 O 867.006 1.94358 -0.245336 0
M  V30 8980 H 865.586 0.132435 -0.735167 0
M  V30 8981 H 868.248 -0.371471 -1.91327 0
M  V30 8982 H 867.344 0.645203 -3.05358 0
M  V30 8983 N 867.645 1.57599 0.00500368 0
M  V30 8984 C 868.87 1.95026 0.705663 0
M  V30 8985 C 869.295 0.869643 1.6679 0
M  V30 8986 O 868.653 -0.172659 1.80476 0
M  V30 8987 C 868.701 3.31545 1.4181 0
M  V30 8988 O 867.805 3.25495 2.53232 0
M  V30 8989 H 867.146 0.636808 0.188074 0
M  V30 8990 H 869.676 2.04547 -0.046696 0
M  V30 8991 H 869.686 3.66996 1.78265 0
M  V30 8992 H 868.361 4.09751 0.712543 0
M  V30 8993 H 866.938 3.01714 2.19142 0
M  V30 8994 N 869.123 -0.277682 1.55134 0
M  V30 8995 C 870.053 -1.34742 1.90701 0
M  V30 8996 C 871.034 -1.51757 0.768354 0
M  V30 8997 O 872.219 -1.64879 1.02609 0
M  V30 8998 C 869.349 -2.70775 2.17481 0
M  V30 8999 C 868.303 -2.68497 3.33307 0
M  V30 9000 C 867.629 -4.08037 3.45557 0
M  V30 9001 C 868.929 -2.28178 4.69821 0
M  V30 9002 H 870.623 -1.05224 2.803 0
M  V30 9003 H 868.169 -0.504738 1.34864 0
M  V30 9004 H 870.122 -3.45719 2.40949 0
M  V30 9005 H 868.846 -3.01867 1.24676 0
M  V30 9006 H 867.505 -1.9601 3.09799 0
M  V30 9007 H 867.153 -4.36344 2.50226 0
M  V30 9008 H 866.853 -4.07409 4.23429 0
M  V30 9009 H 868.377 -4.84726 3.71312 0
M  V30 9010 H 869.791 -2.92843 4.92865 0
M  V30 9011 H 868.188 -2.3872 5.50575 0
M  V30 9012 H 869.258 -1.23308 4.6896 0
M  V30 9013 N 870.601 -1.47988 -0.541979 0
M  V30 9014 C 871.564 -1.61148 -1.62984 0
M  V30 9015 C 872.564 -0.48553 -1.53295 0
M  V30 9016 O 873.754 -0.751012 -1.5718 0
M  V30 9017 C 870.886 -1.57038 -3.02576 0
M  V30 9018 H 872.079 -2.58138 -1.52659 0
M  V30 9019 H 869.632 -1.36405 -0.763106 0
M  V30 9020 H 870.367 -0.614807 -3.18419 0
M  V30 9021 H 870.152 -2.38769 -3.11018 0
M  V30 9022 H 871.642 -1.69416 -3.81691 0
M  V30 9023 N 872.079 0.78992 -1.36375 0
M  V30 9024 C 873.009 1.91683 -1.33341 0
M  V30 9025 C 873.99 1.68861 -0.204965 0
M  V30 9026 O 875.175 1.89982 -0.402531 0
M  V30 9027 C 872.305 3.28696 -1.12143 0
M  V30 9028 C 871.259 3.66041 -2.21806 0
M  V30 9029 C 870.585 5.01399 -1.85751 0
M  V30 9030 C 871.885 3.74677 -3.63888 0
M  V30 9031 H 873.579 1.94478 -2.27637 0
M  V30 9032 H 871.125 0.934271 -1.09578 0
M  V30 9033 H 873.078 4.07151 -1.08656 0
M  V30 9034 H 871.802 3.26287 -0.142974 0
M  V30 9035 H 870.461 2.89883 -2.24418 0
M  V30 9036 H 870.109 4.9551 -0.864817 0
M  V30 9037 H 869.809 5.27355 -2.59173 0
M  V30 9038 H 871.333 5.82274 -1.83819 0
M  V30 9039 H 872.747 4.43324 -3.63506 0
M  V30 9040 H 871.144 4.12118 -4.3621 0
M  V30 9041 H 872.214 2.75795 -3.9883 0
M  V30 9042 N 873.557 1.20646 1.01402 0
M  V30 9043 C 874.785 1.04389 1.78635 0
M  V30 9044 C 875.2 -0.406771 1.84366 0
M  V30 9045 O 874.557 -1.28239 1.2985 0
M  V30 9046 C 874.608 1.62378 3.22979 0
M  V30 9047 O 874.329 3.01768 3.17597 0
M  V30 9048 C 875.83 1.5111 4.1675 0
M  V30 9049 H 873.05 0.367077 0.56169 0
M  V30 9050 H 875.594 1.59789 1.27624 0
M  V30 9051 H 873.749 1.11092 3.7113 0
M  V30 9052 H 874.163 3.29331 4.08217 0
M  V30 9053 H 875.637 1.96441 5.15863 0
M  V30 9054 H 876.114 0.464011 4.36742 0
M  V30 9055 H 876.72 2.01599 3.74483 0
M  V30 9056 N 875.035 -1.20752 1.01276 0
M  V30 9057 C 876.281 -1.90302 0.700924 0
M  V30 9058 C 876.614 -1.78406 -0.767142 0
M  V30 9059 O 875.889 -1.16575 -1.55694 0
M  V30 9060 C 876.172 -3.41831 1.13242 0
M  V30 9061 C 876.025 -3.6268 2.66051 0
M  V30 9062 C 877.344 -4.34486 0.700738 0
M  V30 9063 H 874.463 -0.69107 0.256107 0
M  V30 9064 H 877.105 -1.42227 1.25982 0
M  V30 9065 H 875.255 -3.82906 0.656902 0
M  V30 9066 H 876.927 -3.30882 3.21426 0
M  V30 9067 H 875.17 -3.06281 3.07204 0
M  V30 9068 H 875.841 -4.68882 2.91296 0
M  V30 9069 H 878.317 -4.01036 1.10948 0
M  V30 9070 H 877.193 -5.39136 1.03073 0
M  V30 9071 H 877.454 -4.40307 -0.39778 0
M  V30 9072 N 876.513 -0.788492 -1.36457 0
M  V30 9073 C 877.924 -0.423742 -1.81828 0
M  V30 9074 C 878.275 1.05221 -1.65599 0
M  V30 9075 O 877.4 1.8163 -1.17641 0
M  V30 9076 C 877.995 -0.762354 -3.30112 0
M  V30 9077 C 876.554 -0.450445 -3.73695 0
M  V30 9078 C 875.701 -0.997482 -2.58738 0
M  V30 9079 H 878.652 -0.981718 -1.24692 0
M  V30 9080 H 878.673 -0.0531136 -3.80463 0
M  V30 9081 H 878.185 -1.83662 -3.41891 0
M  V30 9082 H 876.286 0.615829 -3.67476 0
M  V30 9083 H 876.399 -0.970408 -4.69169 0
M  V30 9084 H 874.763 -0.420761 -2.51201 0
M  V30 9085 H 875.546 -2.07749 -2.73304 0
M  V30 9086 N 877.991 1.48044 -0.54043 0
M  V30 9087 C 879.237 2.02797 -0.0101718 0
M  V30 9088 C 879.57 1.41565 1.32939 0
M  V30 9089 O 878.845 0.565139 1.86109 0
M  V30 9090 C 879.128 3.59959 0.100758 0
M  V30 9091 C 878.981 4.31654 -1.26471 0
M  V30 9092 C 880.3 4.32347 0.822455 0
M  V30 9093 H 877.419 0.736982 -0.00517052 0
M  V30 9094 H 880.061 1.76656 -0.69948 0
M  V30 9095 H 878.211 3.82363 0.687824 0
M  V30 9096 H 879.883 4.20639 -1.89369 0
M  V30 9097 H 878.126 3.92663 -1.84386 0
M  V30 9098 H 878.797 5.401 -1.13998 0
M  V30 9099 H 881.273 4.14835 0.324164 0
M  V30 9100 H 880.149 5.41978 0.868993 0
M  V30 9101 H 880.41 4.00369 1.87501 0
M  V30 9102 N 879.47 0.276058 1.55163 0
M  V30 9103 C 880.4 -0.604633 2.25536 0
M  V30 9104 C 881.381 -1.15813 1.24585 0
M  V30 9105 O 882.566 -1.1921 1.53306 0
M  V30 9106 C 879.696 -1.78836 2.97716 0
M  V30 9107 C 878.65 -1.36635 4.05604 0
M  V30 9108 C 877.976 -2.63325 4.65364 0
M  V30 9109 C 879.276 -0.515858 5.19746 0
M  V30 9110 H 880.97 -0.0177483 2.99395 0
M  V30 9111 H 878.516 -0.00709627 1.43998 0
M  V30 9112 H 880.469 -2.41036 3.45658 0
M  V30 9113 H 879.193 -2.40109 2.21394 0
M  V30 9114 H 877.852 -0.767541 3.58475 0
M  V30 9115 H 877.5 -3.22858 3.85709 0
M  V30 9116 H 877.2 -2.358 5.38212 0
M  V30 9117 H 878.724 -3.26372 5.16056 0
M  V30 9118 H 880.138 -1.04289 5.63735 0
M  V30 9119 H 878.535 -0.335449 5.99162 0
M  V30 9120 H 879.605 0.465137 4.82664 0
M  V30 9121 N 880.948 -1.576 0.00335426 0
M  V30 9122 C 882.176 -1.94996 -0.691685 0
M  V30 9123 C 882.591 -0.878405 -1.67121 0
M  V30 9124 O 881.948 0.142343 -1.81944 0
M  V30 9125 C 881.999 -3.32416 -1.42063 0
M  V30 9126 O 881.72 -4.35458 -0.48038 0
M  V30 9127 C 883.221 -3.84291 -2.20987 0
M  V30 9128 H 880.441 -0.642814 -0.192434 0
M  V30 9129 H 882.985 -2.04425 0.0554706 0
M  V30 9130 H 881.14 -3.24285 -2.11939 0
M  V30 9131 H 881.554 -5.14975 -0.995054 0
M  V30 9132 H 883.028 -4.82863 -2.67483 0
M  V30 9133 H 883.505 -3.17174 -3.03805 0
M  V30 9134 H 884.111 -3.95609 -1.56121 0
M  V30 9135 N 882.426 0.269451 -1.5528 0
M  V30 9136 C 883.673 1.00058 -1.76053 0
M  V30 9137 C 884.001 1.86156 -0.563592 0
M  V30 9138 O 883.256 1.90366 0.453806 0
M  V30 9139 C 883.555 1.91 -3.02082 0
M  V30 9140 C 883.221 1.20623 -4.34466 0
M  V30 9141 C 881.883 1.01165 -4.70446 0
M  V30 9142 C 884.235 0.705695 -5.164 0
M  V30 9143 C 881.563 0.303865 -5.85913 0
M  V30 9144 C 883.915 0.0114838 -6.32599 0
M  V30 9145 C 882.579 -0.19478 -6.67216 0
M  V30 9146 H 881.849 0.366138 -0.644223 0
M  V30 9147 H 884.496 0.272563 -1.8955 0
M  V30 9148 H 882.801 2.70435 -2.835 0
M  V30 9149 H 884.498 2.47698 -3.15352 0
M  V30 9150 H 881.088 1.36781 -4.06188 0
M  V30 9151 H 885.272 0.84364 -4.89077 0
M  V30 9152 H 880.528 0.133368 -6.11255 0
M  V30 9153 H 884.702 -0.384111 -6.9534 0
M  V30 9154 H 882.329 -0.745201 -7.56539 0
M  V30 9155 N 883.904 1.48273 0.534124 0
M  V30 9156 C 885.153 1.55334 1.28663 0
M  V30 9157 C 885.466 0.230345 1.94239 0
M  V30 9158 O 886.672 0.179161 2.70908 0
M  V30 9159 C 885.128 2.73927 2.33435 0
M  V30 9160 C 884.736 4.12852 1.73947 0
M  V30 9161 C 886.48 2.90298 3.09722 0
M  V30 9162 C 884.387 5.22711 2.76636 0
M  V30 9163 H 883.317 0.578262 0.483869 0
M  V30 9164 H 885.968 1.74598 0.564602 0
M  V30 9165 H 884.35 2.48089 3.08655 0
M  V30 9166 H 885.524 4.48691 1.04944 0
M  V30 9167 H 883.839 4.01562 1.10167 0
M  V30 9168 H 886.436 3.69542 3.86449 0
M  V30 9169 H 886.779 1.99598 3.6533 0
M  V30 9170 H 887.312 3.16017 2.41616 0
M  V30 9171 H 884.051 6.15362 2.25852 0
M  V30 9172 H 883.571 4.91364 3.43979 0
M  V30 9173 H 885.25 5.50648 3.39699 0
M  V30 9174 N 885.382 -0.782676 1.36792 0
M  V30 9175 C 886.659 -1.52939 1.21939 0
M  V30 9176 C 887.039 -2.10228 -0.191639 0
M  V30 9177 O 886.387 -1.94574 -1.19805 0
M  V30 9178 C 886.597 -2.61898 2.30674 0
M  V30 9179 C 887.945 -3.29598 2.67676 0
M  V30 9180 O 888.969 -2.72186 2.29768 0
M  V30 9181 O 887.828 -4.3337 3.32946 0
M  V30 9182 H 884.922 -0.676856 0.47518 0
M  V30 9183 H 887.468 -0.82058 1.48542 0
M  V30 9184 H 886.24 -2.17607 3.25212 0
M  V30 9185 H 885.863 -3.40391 2.05475 0
M  V30 9186 N 886.86 -1.21182 -1.00761 0
M  V30 9187 C 887.808 -0.965728 -2.11604 0
M  V30 9188 C 888.802 0.0861028 -1.69181 0
M  V30 9189 O 890.008 -0.0650558 -1.79882 0
M  V30 9190 H 886.383 -0.295023 -0.691712 0
M  V30 9191 H 888.354 -1.90667 -2.2954 0
M  V30 9192 C 887.103 -0.544164 -3.43415 0
M  V30 9193 H 886.426 -1.34515 -3.76491 0
M  V30 9194 H 887.866 -0.411268 -4.22001 0
M  V30 9195 C 886.325 0.744583 -3.28569 0
M  V30 9196 O 886.855 1.80078 -3.59075 0
M  V30 9197 N 885.061 0.710083 -2.81791 0
M  V30 9198 H 884.608 -0.14971 -2.57165 0
M  V30 9199 H 884.566 1.57268 -2.72239 0
M  V30 9200 N 888.338 1.20213 -1.01915 0
M  V30 9201 C 889.288 2.20957 -0.562327 0
M  V30 9202 C 890.272 1.56258 0.383704 0
M  V30 9203 O 891.464 1.75794 0.206255 0
M  V30 9204 C 888.593 3.43167 0.0954035 0
M  V30 9205 C 887.679 4.15028 -0.872487 0
M  V30 9206 N 888.07 4.63231 -2.03103 0
M  V30 9207 C 886.368 4.4057 -0.69385 0
M  V30 9208 C 887.069 5.18307 -2.64069 0
M  V30 9209 N 886.045 5.08522 -1.9211 0
M  V30 9210 H 889.847 2.55894 -1.44553 0
M  V30 9211 H 887.361 1.36178 -0.884831 0
M  V30 9212 H 889.358 4.14569 0.440232 0
M  V30 9213 H 888.018 3.09734 0.974413 0
M  V30 9214 H 889.029 4.58365 -2.41086 0
M  V30 9215 H 885.706 4.17276 0.136889 0
M  V30 9216 H 887.096 5.65961 -3.6213 0
M  V30 9217 N 889.816 0.795718 1.36037 0
M  V30 9218 C 891.064 0.370291 1.98679 0
M  V30 9219 C 891.385 -1.06332 1.63458 0
M  V30 9220 O 890.655 -1.73394 0.911671 0
M  V30 9221 H 889.235 0.133928 0.734896 0
M  V30 9222 H 891.897 1.01915 1.6613 0
M  V30 9223 H 890.993 0.467207 3.08583 0
M  V30 9224 N 891.294 -1.47756 0.548274 0
M  V30 9225 C 892.204 -2.33678 -0.207773 0
M  V30 9226 C 893.22 -1.47636 -0.920843 0
M  V30 9227 O 894.396 -1.80583 -0.89173 0
M  V30 9228 C 891.461 -3.24147 -1.23003 0
M  V30 9229 C 890.522 -4.26073 -0.52535 0
M  V30 9230 C 889.755 -5.12219 -1.4989 0
M  V30 9231 O 889.978 -5.0066 -2.73305 0
M  V30 9232 O 888.912 -5.93051 -1.02828 0
M  V30 9233 H 892.738 -2.99609 0.496794 0
M  V30 9234 H 890.323 -1.4617 0.308982 0
M  V30 9235 H 892.205 -3.80055 -1.82034 0
M  V30 9236 H 890.88 -2.60855 -1.91668 0
M  V30 9237 H 889.787 -3.7395 0.105927 0
M  V30 9238 H 891.12 -4.92054 0.119686 0
M  V30 9239 N 892.772 -0.284283 -1.55015 0
M  V30 9240 C 893.735 0.586182 -2.21577 0
M  V30 9241 C 894.735 1.07427 -1.1965 0
M  V30 9242 O 895.925 0.972977 -1.44495 0
M  V30 9243 C 893.057 1.80973 -2.88897 0
M  V30 9244 H 894.25 0.00487253 -2.999 0
M  V30 9245 H 891.803 -0.0349696 -1.56261 0
M  V30 9246 H 892.538 2.43131 -2.14611 0
M  V30 9247 H 892.323 1.46757 -3.636 0
M  V30 9248 H 893.813 2.42853 -3.39724 0
M  V30 9249 N 894.251 1.57596 -0.0117121 0
M  V30 9250 C 895.497 1.92189 0.665966 0
M  V30 9251 C 895.852 0.887145 1.70726 0
M  V30 9252 O 895.145 -0.099151 1.91343 0
M  V30 9253 C 895.339 3.31296 1.34082 0
M  V30 9254 C 895.168 4.48205 0.366406 0
M  V30 9255 C 893.938 5.05293 -0.0274458 0
M  V30 9256 C 896.136 5.12951 -0.37219 0
M  V30 9257 N 894.118 6.0572 -0.998846 0
M  V30 9258 C 895.489 6.08318 -1.1979 0
M  V30 9259 C 897.544 4.95998 -0.434768 0
M  V30 9260 C 896.247 6.88555 -2.0805 0
M  V30 9261 C 898.273 5.7683 -1.30464 0
M  V30 9262 C 897.635 6.71798 -2.11816 0
M  V30 9263 H 893.734 0.751422 0.216537 0
M  V30 9264 H 896.318 1.94556 -0.0748079 0
M  V30 9265 H 894.489 3.2978 2.05182 0
M  V30 9266 H 896.221 3.53285 1.97413 0
M  V30 9267 H 892.976 4.72354 0.343382 0
M  V30 9268 H 893.4 6.60619 -1.48027 0
M  V30 9269 H 898.042 4.22417 0.179925 0
M  V30 9270 H 895.76 7.61453 -2.70581 0
M  V30 9271 H 899.346 5.6575 -1.35712 0
M  V30 9272 H 898.226 7.33256 -2.78037 0
M  V30 9273 N 895.729 -0.261212 1.5542 0
M  V30 9274 C 896.659 -1.32712 1.92119 0
M  V30 9275 C 897.64 -1.50934 0.784406 0
M  V30 9276 O 898.825 -1.63781 1.04352 0
M  V30 9277 C 895.955 -2.68453 2.20341 0
M  V30 9278 C 894.909 -2.64947 3.36136 0
M  V30 9279 C 894.235 -4.04349 3.49865 0
M  V30 9280 C 895.535 -2.23182 4.72215 0
M  V30 9281 H 897.229 -1.02245 2.81401 0
M  V30 9282 H 894.775 -0.490406 1.35392 0
M  V30 9283 H 896.728 -3.43144 2.44603 0
M  V30 9284 H 895.452 -3.00527 1.27871 0
M  V30 9285 H 894.111 -1.92714 3.11861 0
M  V30 9286 H 893.759 -4.33665 2.5484 0
M  V30 9287 H 893.459 -4.02895 4.27726 0
M  V30 9288 H 894.983 -4.80761 3.76432 0
M  V30 9289 H 896.397 -2.87599 4.95943 0
M  V30 9290 H 894.794 -2.32867 5.53076 0
M  V30 9291 H 895.864 -1.18327 4.70241 0
M  V30 9292 N 897.207 -1.48554 -0.526253 0
M  V30 9293 C 898.455 -1.56452 -1.27935 0
M  V30 9294 C 898.776 -0.24184 -1.93495 0
M  V30 9295 O 898.046 0.736917 -1.81511 0
M  V30 9296 H 896.626 -0.576379 -0.47518 0
M  V30 9297 H 899.288 -1.85039 -0.612083 0
M  V30 9298 H 898.384 -2.34751 -2.05666 0
M  V30 9299 N 898.685 0.775411 -1.37205 0
M  V30 9300 C 899.933 1.53081 -1.3195 0
M  V30 9301 C 900.254 1.9476 0.0966864 0
M  V30 9302 O 899.524 1.66019 1.03993 0
M  V30 9303 H 898.104 0.567762 -0.485444 0
M  V30 9304 H 900.766 0.92309 -1.71654 0
M  V30 9305 H 899.862 2.4319 -1.95614 0
M  V30 9306 N 900.163 1.21714 1.00117 0
M  V30 9307 C 901.411 1.03465 1.73607 0
M  V30 9308 C 901.732 -0.432295 1.90148 0
M  V30 9309 O 901.002 -1.31157 1.45515 0
M  V30 9310 H 899.582 0.379857 0.643209 0
M  V30 9311 H 902.244 1.53088 1.20624 0
M  V30 9312 H 901.34 1.50574 2.73375 0
M  V30 9313 N 901.641 -1.19671 1.02551 0
M  V30 9314 C 902.887 -1.89548 0.721069 0
M  V30 9315 C 903.22 -1.79209 -0.748176 0
M  V30 9316 O 902.495 -1.1822 -1.54448 0
M  V30 9317 C 902.778 -3.4061 1.16861 0
M  V30 9318 C 902.631 -3.59838 2.69883 0
M  V30 9319 C 903.95 -4.33718 0.746782 0
M  V30 9320 H 901.069 -0.688315 0.263422 0
M  V30 9321 H 903.711 -1.40883 1.27483 0
M  V30 9322 H 901.861 -3.82188 0.697477 0
M  V30 9323 H 903.533 -3.27454 3.24917 0
M  V30 9324 H 901.776 -3.03005 3.10435 0
M  V30 9325 H 902.447 -4.65766 2.96253 0
M  V30 9326 H 904.923 -3.99837 1.15195 0
M  V30 9327 H 903.799 -5.38012 1.08786 0
M  V30 9328 H 904.06 -4.40704 -0.351057 0
M  V30 9329 N 903.119 -0.802921 -1.35613 0
M  V30 9330 C 904.365 -0.382141 -1.99167 0
M  V30 9331 C 904.698 1.04704 -1.63556 0
M  V30 9332 O 903.973 1.72578 -0.89706 0
M  V30 9333 C 904.256 -0.561493 -3.55695 0
M  V30 9334 C 904.109 -2.03534 -4.01116 0
M  V30 9335 C 905.428 0.0151135 -4.40097 0
M  V30 9336 H 902.547 -0.140322 -0.723518 0
M  V30 9337 H 905.189 -1.01177 -1.6082 0
M  V30 9338 H 903.339 -0.0255083 -3.88492 0
M  V30 9339 H 905.011 -2.63343 -3.78746 0
M  V30 9340 H 903.254 -2.5331 -3.52159 0
M  V30 9341 H 903.925 -2.11173 -5.1001 0
M  V30 9342 H 906.401 -0.442582 -4.1374 0
M  V30 9343 H 905.277 -0.140316 -5.48721 0
M  V30 9344 H 905.538 1.10848 -4.27978 0
M  V30 9345 N 904.597 1.47463 -0.556102 0
M  V30 9346 C 906.008 1.86298 -0.122429 0
M  V30 9347 C 906.359 1.46285 1.30749 0
M  V30 9348 O 905.484 0.865405 1.98342 0
M  V30 9349 C 906.079 3.38115 -0.215407 0
M  V30 9350 C 904.638 3.76046 0.163223 0
M  V30 9351 C 903.785 2.71515 -0.563466 0
M  V30 9352 H 906.736 1.38996 -0.765888 0
M  V30 9353 H 906.757 3.76263 0.566271 0
M  V30 9354 H 906.269 3.67207 -1.25622 0
M  V30 9355 H 904.37 3.5257 1.20519 0
M  V30 9356 H 904.483 4.78705 -0.194568 0
M  V30 9357 H 902.847 2.54699 -0.00667879 0
M  V30 9358 H 903.63 3.03449 -1.60542 0
M  V30 9359 N 906.075 0.2925 1.54862 0
M  V30 9360 C 907.352 -0.371946 1.92031 0
M  V30 9361 C 907.732 -1.72363 1.21878 0
M  V30 9362 O 907.08 -2.25779 0.351573 0
M  V30 9363 C 907.29 -0.495027 3.45471 0
M  V30 9364 C 908.638 -0.769855 4.17562 0
M  V30 9365 O 909.662 -0.579168 3.5146 0
M  V30 9366 O 908.521 -1.13561 5.34571 0
M  V30 9367 H 905.615 -0.206463 0.800813 0
M  V30 9368 H 908.161 0.339933 1.6626 0
M  V30 9369 H 906.933 0.455528 3.88639 0
M  V30 9370 H 906.556 -1.2557 3.7725 0
M  V30 9371 N 907.553 -1.57587 0.0200696 0
M  V30 9372 C 908.516 -2.08595 -0.949767 0
M  V30 9373 C 909.516 -0.999215 -1.25985 0
M  V30 9374 O 910.706 -1.26115 -1.2017 0
M  V30 9375 C 907.838 -2.54424 -2.26895 0
M  V30 9376 H 909.031 -2.95563 -0.508161 0
M  V30 9377 H 906.584 -1.54631 -0.227798 0
M  V30 9378 H 907.319 -1.70758 -2.75703 0
M  V30 9379 H 907.104 -3.3381 -2.05702 0
M  V30 9380 H 908.594 -2.94144 -2.96427 0
M  V30 9381 N 909.032 0.252966 -1.55557 0
M  V30 9382 C 910.281 0.979736 -1.76307 0
M  V30 9383 C 910.594 1.86714 -0.582871 0
M  V30 9384 O 911.8 2.6302 -0.673247 0
M  V30 9385 C 910.256 1.79205 -3.12112 0
M  V30 9386 C 909.864 0.952333 -4.37761 0
M  V30 9387 C 911.608 2.51191 -3.42203 0
M  V30 9388 C 909.515 1.76018 -5.64599 0
M  V30 9389 H 908.445 0.369538 -0.657235 0
M  V30 9390 H 911.096 0.234619 -1.81994 0
M  V30 9391 H 909.478 2.57888 -3.00515 0
M  V30 9392 H 910.652 0.208251 -4.60329 0
M  V30 9393 H 908.967 0.346082 -4.14959 0
M  V30 9394 H 911.564 3.12074 -4.34182 0
M  V30 9395 H 911.907 3.22499 -2.63249 0
M  V30 9396 H 912.44 1.79523 -3.54988 0
M  V30 9397 H 909.179 1.09095 -6.46358 0
M  V30 9398 H 908.699 2.4797 -5.46142 0
M  V30 9399 H 910.378 2.32884 -6.03634 0
M  V30 9400 N 910.51 1.48831 0.518367 0
M  V30 9401 C 911.756 1.57672 1.27543 0
M  V30 9402 C 912.089 0.254915 1.9252 0
M  V30 9403 O 911.364 -0.740107 1.79868 0
M  V30 9404 C 911.647 2.72345 2.35585 0
M  V30 9405 C 911.5 4.14267 1.75224 0
M  V30 9406 C 912.819 2.82726 3.37274 0
M  V30 9407 H 909.938 0.573926 0.462361 0
M  V30 9408 H 912.58 1.8105 0.576267 0
M  V30 9409 H 910.73 2.52543 2.95219 0
M  V30 9410 H 912.402 4.45539 1.19551 0
M  V30 9411 H 910.645 4.20724 1.05706 0
M  V30 9412 H 911.316 4.90345 2.53507 0
M  V30 9413 H 913.792 3.00699 2.8761 0
M  V30 9414 H 912.668 3.6467 4.10252 0
M  V30 9415 H 912.929 1.9136 3.9854 0
M  V30 9416 N 911.988 -0.768124 1.37614 0
M  V30 9417 C 912.918 -1.89537 1.36374 0
M  V30 9418 C 913.899 -1.68513 0.231803 0
M  V30 9419 O 915.084 -1.89318 0.432705 0
M  V30 9420 C 912.214 -3.26871 1.17358 0
M  V30 9421 C 911.168 -3.62466 2.27602 0
M  V30 9422 C 910.494 -4.9838 1.93705 0
M  V30 9423 C 911.794 -3.68841 3.69802 0
M  V30 9424 H 913.488 -1.90832 2.30702 0
M  V30 9425 H 911.034 -0.91672 1.11051 0
M  V30 9426 H 912.987 -4.05371 1.15119 0
M  V30 9427 H 911.711 -3.26018 0.194865 0
M  V30 9428 H 910.37 -2.86276 2.29002 0
M  V30 9429 H 910.018 -4.94071 0.943539 0
M  V30 9430 H 909.718 -5.23165 2.6753 0
M  V30 9431 H 911.242 -5.79276 1.93059 0
M  V30 9432 H 912.656 -4.37485 3.70513 0
M  V30 9433 H 911.053 -4.05126 4.42711 0
M  V30 9434 H 912.123 -2.69415 4.03167 0
M  V30 9435 N 913.466 -1.22244 -0.994698 0
M  V30 9436 C 914.429 -0.992308 -2.06606 0
M  V30 9437 C 915.429 0.0405872 -1.60749 0
M  V30 9438 O 916.619 -0.197737 -1.73074 0
M  V30 9439 C 913.751 -0.498499 -3.37236 0
M  V30 9440 H 914.944 -1.9429 -2.28455 0
M  V30 9441 H 912.497 -1.04087 -1.166 0
M  V30 9442 H 913.232 0.456531 -3.21071 0
M  V30 9443 H 913.017 -1.24367 -3.71854 0
M  V30 9444 H 914.507 -0.35768 -4.16065 0
M  V30 9445 N 914.944 1.19125 -1.03184 0
M  V30 9446 C 915.854 2.26112 -0.625329 0
M  V30 9447 C 916.87 1.7056 0.344298 0
M  V30 9448 O 918.046 2.0039 0.20144 0
M  V30 9449 C 915.111 3.46697 0.0145169 0
M  V30 9450 C 914.172 4.17419 -1.00299 0
M  V30 9451 C 913.405 5.32247 -0.393581 0
M  V30 9452 O 913.628 5.64724 0.802659 0
M  V30 9453 O 912.562 5.91428 -1.1179 0
M  V30 9454 H 916.388 2.63131 -1.51643 0
M  V30 9455 H 913.973 1.26036 -0.802197 0
M  V30 9456 H 915.855 4.19762 0.371139 0
M  V30 9457 H 914.53 3.11521 0.879581 0
M  V30 9458 H 913.437 3.4646 -1.41125 0
M  V30 9459 H 914.77 4.56573 -1.83852 0
M  V30 9460 N 916.422 0.810101 1.35185 0
M  V30 9461 C 917.332 0.224565 2.33523 0
M  V30 9462 C 918.348 -0.634287 1.62027 0
M  V30 9463 O 919.524 -0.545211 1.9388 0
M  V30 9464 C 916.589 -0.614319 3.41214 0
M  V30 9465 C 915.65 0.265435 4.28479 0
M  V30 9466 C 914.883 -0.533506 5.31027 0
M  V30 9467 O 915.106 -1.7679 5.42311 0
M  V30 9468 O 914.04 0.0774573 6.0185 0
M  V30 9469 H 917.866 1.03815 2.85405 0
M  V30 9470 H 915.451 0.571964 1.38018 0
M  V30 9471 H 917.333 -1.09201 4.07005 0
M  V30 9472 H 916.008 -1.40545 2.91597 0
M  V30 9473 H 914.915 0.790343 3.65656 0
M  V30 9474 H 916.248 1.0206 4.81503 0
M  V30 9475 N 917.9 -1.47166 0.563914 0
M  V30 9476 C 918.863 -2.28571 -0.169624 0
M  V30 9477 C 919.863 -1.37331 -0.836467 0
M  V30 9478 O 921.053 -1.59896 -0.6913 0
M  V30 9479 C 918.185 -3.17201 -1.24886 0
M  V30 9480 H 919.378 -2.94896 0.545539 0
M  V30 9481 H 916.931 -1.52966 0.321121 0
M  V30 9482 H 917.666 -2.55582 -1.99621 0
M  V30 9483 H 917.451 -3.84356 -0.775426 0
M  V30 9484 H 918.941 -3.7852 -1.76388 0
M  V30 9485 N 919.378 -0.300708 -1.54705 0
M  V30 9486 C 920.308 0.568675 -2.26469 0
M  V30 9487 C 921.289 1.13817 -1.26411 0
M  V30 9488 O 922.474 1.16756 -1.55183 0
M  V30 9489 C 919.604 1.74077 -3.00524 0
M  V30 9490 C 918.558 1.30165 -4.07727 0
M  V30 9491 C 917.884 2.55888 -4.69495 0
M  V30 9492 C 919.184 0.433106 -5.20501 0
M  V30 9493 H 920.878 -0.0298851 -2.99385 0
M  V30 9494 H 918.424 -0.0158135 -1.43991 0
M  V30 9495 H 920.377 2.35506 -3.49449 0
M  V30 9496 H 919.101 2.36556 -2.25186 0
M  V30 9497 H 917.76 0.710414 -3.59651 0
M  V30 9498 H 917.408 3.16681 -3.90797 0
M  V30 9499 H 917.108 2.27207 -5.41895 0
M  V30 9500 H 918.632 3.18121 -5.21183 0
M  V30 9501 H 920.046 0.95307 -5.65322 0
M  V30 9502 H 918.443 0.240085 -5.9962 0
M  V30 9503 H 919.513 -0.541866 -4.81863 0
M  V30 9504 N 920.856 1.57574 -0.0284266 0
M  V30 9505 C 922.133 1.83064 0.688979 0
M  V30 9506 C 922.513 0.91219 1.90374 0
M  V30 9507 O 921.861 -0.0323672 2.28477 0
M  V30 9508 C 922.071 3.32262 1.06785 0
M  V30 9509 C 923.419 3.98717 1.45978 0
M  V30 9510 O 924.443 3.36753 1.16085 0
M  V30 9511 O 923.302 5.07927 2.01673 0
M  V30 9512 H 920.396 0.7548 0.337944 0
M  V30 9513 H 922.942 1.69607 -0.0560555 0
M  V30 9514 H 921.714 3.90772 0.203235 0
M  V30 9515 H 921.337 3.50823 1.87107 0
M  V30 9516 N 922.334 -0.244713 1.55689 0
M  V30 9517 C 923.281 -1.30301 1.905 0
M  V30 9518 C 924.251 -1.4772 0.759478 0
M  V30 9519 O 925.436 -1.61667 1.01333 0
M  V30 9520 C 922.576 -2.653 2.20703 0
M  V30 9521 C 921.689 -2.55872 3.48071 0
M  V30 9522 C 920.824 -3.83238 3.67834 0
M  V30 9523 C 919.863 -3.68436 4.88796 0
M  V30 9524 N 919 -4.877 5.05068 0
M  V30 9525 H 923.84 -0.999143 2.80751 0
M  V30 9526 H 921.377 -0.482099 1.38976 0
M  V30 9527 H 923.335 -3.43884 2.36219 0
M  V30 9528 H 921.965 -2.93831 1.33653 0
M  V30 9529 H 921.017 -1.68846 3.40874 0
M  V30 9530 H 922.329 -2.40845 4.36801 0
M  V30 9531 H 921.483 -4.70266 3.83321 0
M  V30 9532 H 920.222 -4.01165 2.77341 0
M  V30 9533 H 919.227 -2.79793 4.73282 0
M  V30 9534 H 920.452 -3.52003 5.8075 0
M  V30 9535 H 918.398 -5.05983 4.17513 0
M  V30 9536 H 918.315 -4.75312 5.8789 0
M  V30 9537 H 919.583 -5.76219 5.24969 0
M  V30 9538 N 923.813 -1.49104 -0.510467 0
M  V30 9539 C 924.776 -1.64569 -1.59529 0
M  V30 9540 C 925.776 -0.517937 -1.5223 0
M  V30 9541 O 926.966 -0.784183 -1.55551 0
M  V30 9542 C 924.098 -1.6342 -2.99177 0
M  V30 9543 H 925.291 -2.61318 -1.4715 0
M  V30 9544 H 922.844 -1.37993 -0.734001 0
M  V30 9545 H 923.579 -0.68221 -3.17043 0
M  V30 9546 H 923.364 -2.45312 -3.05883 0
M  V30 9547 H 924.854 -1.77474 -3.78011 0
M  V30 9548 N 925.291 0.760815 -1.38019 0
M  V30 9549 C 926.223 1.88387 -1.30549 0
M  V30 9550 C 927.236 1.61319 -0.219119 0
M  V30 9551 O 928.425 1.72033 -0.476122 0
M  V30 9552 C 925.525 3.23863 -0.998291 0
M  V30 9553 C 924.698 3.78492 -2.19232 0
M  V30 9554 C 923.757 4.92468 -1.85368 0
M  V30 9555 O 922.783 5.0748 -2.57785 0
M  V30 9556 N 923.985 5.74901 -0.804319 0
M  V30 9557 H 926.75 1.95308 -2.27322 0
M  V30 9558 H 924.311 0.940423 -1.31786 0
M  V30 9559 H 926.303 3.97644 -0.7524 0
M  V30 9560 H 924.873 3.12374 -0.11877 0
M  V30 9561 H 924.093 2.96361 -2.5993 0
M  V30 9562 H 925.381 4.11722 -2.98935 0
M  V30 9563 H 924.779 5.65333 -0.203628 0
M  V30 9564 H 923.336 6.48861 -0.618301 0
M  V30 9565 N 926.769 1.22769 0.988202 0
M  V30 9566 C 927.679 1.01844 2.11341 0
M  V30 9567 C 928.695 -0.0346937 1.73965 0
M  V30 9568 O 929.871 0.159061 2.00771 0
M  V30 9569 C 926.936 0.603837 3.41401 0
M  V30 9570 C 925.997 1.73113 3.92849 0
M  V30 9571 C 925.23 1.33621 5.16702 0
M  V30 9572 O 925.453 0.217041 5.69987 0
M  V30 9573 O 924.387 2.15444 5.62021 0
M  V30 9574 H 928.213 1.96127 2.31879 0
M  V30 9575 H 925.798 1.01405 1.09715 0
M  V30 9576 H 927.68 0.383196 4.19654 0
M  V30 9577 H 926.355 -0.310082 3.22211 0
M  V30 9578 H 925.262 2.00634 3.15748 0
M  V30 9579 H 926.595 2.62308 4.1648 0
M  V30 9580 N 928.247 -1.18576 1.03814 0
M  V30 9581 C 929.493 -1.88773 0.741132 0
M  V30 9582 C 929.826 -1.79993 -0.729127 0
M  V30 9583 O 929.101 -1.19851 -1.53186 0
M  V30 9584 C 929.384 -3.39352 1.20468 0
M  V30 9585 C 929.237 -3.56955 2.73684 0
M  V30 9586 C 930.556 -4.32901 0.792741 0
M  V30 9587 H 927.675 -0.685482 0.270708 0
M  V30 9588 H 930.317 -1.39523 1.2897 0
M  V30 9589 H 928.467 -3.81427 0.737974 0
M  V30 9590 H 930.139 -3.2399 3.28372 0
M  V30 9591 H 928.382 -2.99696 3.13632 0
M  V30 9592 H 929.053 -4.62598 3.01176 0
M  V30 9593 H 931.529 -3.98592 1.1943 0
M  V30 9594 H 930.405 -5.36828 1.14486 0
M  V30 9595 H 930.666 -4.41052 -0.304295 0
M  V30 9596 N 929.725 -0.817259 -1.34754 0
M  V30 9597 C 930.655 -0.249769 -2.3216 0
M  V30 9598 C 931.636 0.630663 -1.57977 0
M  V30 9599 O 932.821 0.558719 -1.85989 0
M  V30 9600 C 929.951 0.593825 -3.42186 0
M  V30 9601 C 928.905 -0.188997 -4.27583 0
M  V30 9602 C 928.231 0.776979 -5.29025 0
M  V30 9603 C 929.531 -1.39401 -5.03354 0
M  V30 9604 H 931.225 -1.06359 -2.79872 0
M  V30 9605 H 928.771 -0.512894 -1.34556 0
M  V30 9606 H 930.724 1.00097 -4.09339 0
M  V30 9607 H 929.448 1.44064 -2.93109 0
M  V30 9608 H 928.107 -0.577445 -3.62024 0
M  V30 9609 H 927.755 1.61959 -4.76212 0
M  V30 9610 H 927.455 0.257448 -5.87036 0
M  V30 9611 H 928.979 1.18211 -5.99048 0
M  V30 9612 H 930.393 -1.06117 -5.63393 0
M  V30 9613 H 928.79 -1.84878 -5.70912 0
M  V30 9614 H 929.86 -2.17515 -4.33377 0
M  V30 9615 N 931.203 1.46865 -0.571711 0
M  V30 9616 C 932.113 2.33979 0.170571 0
M  V30 9617 C 933.129 1.49083 0.897239 0
M  V30 9618 O 934.305 1.81979 0.862888 0
M  V30 9619 C 931.37 3.26063 1.17831 0
M  V30 9620 C 930.431 4.26855 0.457499 0
M  V30 9621 C 929.664 5.14539 1.41722 0
M  V30 9622 O 929.887 5.04945 2.65305 0
M  V30 9623 O 928.821 5.94612 0.9338 0
M  V30 9624 H 932.647 2.98781 -0.544396 0
M  V30 9625 H 930.232 1.4566 -0.332198 0
M  V30 9626 H 932.114 3.82903 1.75965 0
M  V30 9627 H 930.789 2.63871 1.87493 0
M  V30 9628 H 929.696 3.73734 -0.165406 0
M  V30 9629 H 931.029 4.91802 -0.197953 0
M  V30 9630 N 932.681 0.308908 1.54543 0
M  V30 9631 C 933.928 -0.298036 2.00295 0
M  V30 9632 C 934.256 -1.53285 1.19724 0
M  V30 9633 O 933.511 -1.93917 0.263551 0
M  V30 9634 C 933.81 -0.691522 3.50646 0
M  V30 9635 C 933.476 0.442454 4.48724 0
M  V30 9636 C 932.138 0.753739 4.7526 0
M  V30 9637 C 934.49 1.20488 5.07082 0
M  V30 9638 C 931.818 1.83044 5.57415 0
M  V30 9639 C 934.17 2.27156 5.90409 0
M  V30 9640 C 932.834 2.58882 6.15253 0
M  V30 9641 H 932.104 -0.109059 0.73293 0
M  V30 9642 H 934.751 0.429647 1.86618 0
M  V30 9643 H 933.056 -1.49941 3.61974 0
M  V30 9644 H 934.753 -1.17244 3.83477 0
M  V30 9645 H 931.343 0.189744 4.2818 0
M  V30 9646 H 935.527 0.977653 4.86575 0
M  V30 9647 H 930.783 2.08088 5.749 0
M  V30 9648 H 934.957 2.86687 6.34652 0
M  V30 9649 H 932.584 3.42443 6.78702 0
M  V30 9650 N 934.159 -1.57557 0.0367827 0
M  V30 9651 C 935.109 -2.07182 -0.95183 0
M  V30 9652 C 936.093 -0.973921 -1.28076 0
M  V30 9653 O 937.285 -1.23741 -1.26559 0
M  V30 9654 C 934.414 -2.60869 -2.23164 0
M  V30 9655 C 933.5 -3.77602 -1.93074 0
M  V30 9656 N 933.891 -4.87923 -1.33283 0
M  V30 9657 C 932.189 -3.86234 -2.23023 0
M  V30 9658 C 932.89 -5.69083 -1.20498 0
M  V30 9659 N 931.866 -5.16233 -1.70306 0
M  V30 9660 H 935.668 -2.89876 -0.484647 0
M  V30 9661 H 933.182 -1.61528 -0.16804 0
M  V30 9662 H 935.179 -2.94716 -2.9487 0
M  V30 9663 H 933.839 -1.79607 -2.70502 0
M  V30 9664 H 934.85 -5.08018 -1.00686 0
M  V30 9665 H 931.527 -3.15891 -2.72981 0
M  V30 9666 H 932.917 -6.6779 -0.741999 0
M  V30 9667 N 935.637 0.236453 -1.55816 0
M  V30 9668 C 936.569 1.31602 -1.87653 0
M  V30 9669 C 937.582 1.43782 -0.763584 0
M  V30 9670 O 938.771 1.44945 -1.04178 0
M  V30 9671 C 935.871 2.69342 -2.05689 0
M  V30 9672 C 935.044 2.79298 -3.36617 0
M  V30 9673 C 934.103 3.97952 -3.44268 0
M  V30 9674 O 933.129 3.86989 -4.17406 0
M  V30 9675 N 934.331 5.11594 -2.74321 0
M  V30 9676 H 937.096 1.04623 -2.80845 0
M  V30 9677 H 934.657 0.426534 -1.5618 0
M  V30 9678 H 936.649 3.47074 -2.08138 0
M  V30 9679 H 935.219 2.88984 -1.19192 0
M  V30 9680 H 934.439 1.8816 -3.46395 0
M  V30 9681 H 935.727 2.82908 -4.22895 0
M  V30 9682 H 935.125 5.23394 -2.14651 0
M  V30 9683 H 933.682 5.87422 -2.8245 0
M  V30 9684 N 937.115 1.49373 0.502552 0
M  V30 9685 C 938.34 1.62752 1.28556 0
M  V30 9686 C 938.765 0.298285 1.8572 0
M  V30 9687 O 938.123 -0.733885 1.65782 0
M  V30 9688 C 938.171 2.69778 2.39274 0
M  V30 9689 O 937.275 2.28843 3.43081 0
M  V30 9690 H 936.616 0.544799 0.379592 0
M  V30 9691 H 939.146 1.9555 0.601792 0
M  V30 9692 H 939.156 2.91899 2.8506 0
M  V30 9693 H 937.831 3.66266 1.97033 0
M  V30 9694 H 936.408 2.17047 3.03224 0
M  V30 9695 N 938.594 -0.753485 1.38421 0
M  V30 9696 C 939.524 -1.8808 1.38377 0
M  V30 9697 C 940.505 -1.68258 0.249664 0
M  V30 9698 O 941.69 -1.88848 0.45276 0
M  V30 9699 C 938.82 -3.25608 1.20818 0
M  V30 9700 C 937.774 -3.60032 2.31433 0
M  V30 9701 C 937.1 -4.96297 1.9898 0
M  V30 9702 C 938.4 -3.64898 3.73694 0
M  V30 9703 H 940.094 -1.88375 2.32713 0
M  V30 9704 H 937.64 -0.90489 1.12017 0
M  V30 9705 H 939.593 -4.04127 1.19412 0
M  V30 9706 H 938.317 -3.25793 0.229433 0
M  V30 9707 H 936.976 -2.83831 2.32025 0
M  V30 9708 H 936.624 -4.93043 0.995889 0
M  V30 9709 H 936.324 -5.20298 2.73063 0
M  V30 9710 H 937.848 -5.77196 1.99193 0
M  V30 9711 H 939.262 -4.33531 3.75132 0
M  V30 9712 H 937.659 -4.00407 4.46983 0
M  V30 9713 H 938.729 -2.65124 4.06002 0
M  V30 9714 N 940.072 -1.23292 -0.981677 0
M  V30 9715 C 941.32 -1.06214 -1.71939 0
M  V30 9716 C 941.641 0.401989 -1.90812 0
M  V30 9717 O 940.911 1.28825 -1.47584 0
M  V30 9718 H 939.491 -0.390042 -0.637084 0
M  V30 9719 H 942.153 -1.54988 -1.18173 0
M  V30 9720 H 941.249 -1.54904 -2.70945 0
M  V30 9721 N 941.55 1.18024 -1.04442 0
M  V30 9722 C 942.513 2.19992 -0.643136 0
M  V30 9723 C 943.513 1.57949 0.301444 0
M  V30 9724 O 944.703 1.73986 0.0863341 0
M  V30 9725 C 941.835 3.40853 0.0565208 0
M  V30 9726 H 943.028 2.57008 -1.54554 0
M  V30 9727 H 940.581 1.31974 -0.837408 0
M  V30 9728 H 941.316 3.09373 0.972553 0
M  V30 9729 H 941.101 3.87128 -0.622439 0
M  V30 9730 H 942.591 4.16344 0.323652 0
M  V30 9731 N 943.028 0.824394 1.34319 0
M  V30 9732 C 943.958 0.262077 2.32025 0
M  V30 9733 C 944.939 -0.622277 1.58309 0
M  V30 9734 O 946.124 -0.548848 1.86283 0
M  V30 9735 C 943.254 -0.57567 3.42496 0
M  V30 9736 C 942.208 0.21167 4.27476 0
M  V30 9737 C 941.534 -0.748913 5.29429 0
M  V30 9738 C 942.834 1.42068 5.02607 0
M  V30 9739 H 944.528 1.07842 2.79304 0
M  V30 9740 H 942.074 0.520022 1.34282 0
M  V30 9741 H 944.027 -0.979251 4.09864 0
M  V30 9742 H 942.751 -1.42508 2.93869 0
M  V30 9743 H 941.41 0.596636 3.61712 0
M  V30 9744 H 941.058 -1.59432 4.77064 0
M  V30 9745 H 940.758 -0.226313 5.87164 0
M  V30 9746 H 942.282 -1.15032 5.99667 0
M  V30 9747 H 943.696 1.09103 5.62823 0
M  V30 9748 H 942.093 1.87903 5.69923 0
M  V30 9749 H 943.163 2.1981 4.32217 0
M  V30 9750 N 944.506 -1.46559 0.579492 0
M  V30 9751 C 945.752 -2.02699 0.0639363 0
M  V30 9752 C 946.085 -1.4504 -1.29139 0
M  V30 9753 O 945.36 -0.614284 -1.84545 0
M  V30 9754 C 945.643 -3.601 -0.00528618 0
M  V30 9755 C 945.496 -4.28149 1.37871 0
M  V30 9756 C 946.815 -4.34375 -0.707537 0
M  V30 9757 H 943.934 -0.736586 0.0247085 0
M  V30 9758 H 946.576 -1.74739 0.746071 0
M  V30 9759 H 944.726 -3.84052 -0.586206 0
M  V30 9760 H 946.398 -4.1547 2.00455 0
M  V30 9761 H 944.641 -3.87636 1.94732 0
M  V30 9762 H 945.312 -5.36888 1.28278 0
M  V30 9763 H 947.788 -4.15549 -0.214064 0
M  V30 9764 H 946.664 -5.44091 -0.724992 0
M  V30 9765 H 946.925 -4.052 -1.7682 0
M  V30 9766 N 945.984 -0.3171 -1.54377 0
M  V30 9767 C 946.894 0.560867 -2.27797 0
M  V30 9768 C 947.91 1.13473 -1.31908 0
M  V30 9769 O 949.086 1.15608 -1.64914 0
M  V30 9770 C 946.151 1.70886 -3.0166 0
M  V30 9771 C 945.212 1.16745 -4.13121 0
M  V30 9772 C 944.445 2.26073 -4.83453 0
M  V30 9773 O 944.668 3.46292 -4.53252 0
M  V30 9774 O 943.602 1.91856 -5.70504 0
M  V30 9775 H 947.428 -0.035193 -3.0368 0
M  V30 9776 H 945.013 -0.0830062 -1.49169 0
M  V30 9777 H 946.895 2.37736 -3.47936 0
M  V30 9778 H 945.57 2.29122 -2.28658 0
M  V30 9779 H 944.477 0.464224 -3.71209 0
M  V30 9780 H 945.81 0.630307 -4.88147 0
M  V30 9781 N 947.462 1.57535 -0.0451378 0
M  V30 9782 C 948.71 1.92071 0.628743 0
M  V30 9783 C 949.031 0.923635 1.71738 0
M  V30 9784 O 948.301 -0.0324376 1.95873 0
M  V30 9785 H 946.881 0.708995 0.235233 0
M  V30 9786 H 949.543 1.9466 -0.0967177 0
M  V30 9787 H 948.639 2.9314 1.07123 0
M  V30 9788 N 948.94 -0.228186 1.55939 0
M  V30 9789 C 950.168 -0.970618 1.8272 0
M  V30 9790 C 950.583 -1.78212 0.623385 0
M  V30 9791 O 949.94 -1.77879 -0.408063 0
M  V30 9792 C 949.991 -1.89352 3.07942 0
M  V30 9793 O 949.712 -1.11483 4.23678 0
M  V30 9794 C 951.213 -2.75039 3.47661 0
M  V30 9795 H 948.433 -0.284772 0.607574 0
M  V30 9796 H 950.977 -0.245419 2.03022 0
M  V30 9797 H 949.132 -2.57275 2.89635 0
M  V30 9798 H 949.546 -1.74073 4.94772 0
M  V30 9799 H 951.02 -3.35511 4.38334 0
M  V30 9800 H 951.497 -3.471 2.69106 0
M  V30 9801 H 952.103 -2.1254 3.68384 0
M  V30 9802 N 950.418 -1.49637 -0.494624 0
M  V30 9803 C 951.666 -1.5913 -1.24587 0
M  V30 9804 C 951.987 -0.282828 -1.92938 0
M  V30 9805 O 951.257 0.69825 -1.83034 0
M  V30 9806 H 949.837 -0.586329 -0.462847 0
M  V30 9807 H 952.499 -1.86296 -0.572696 0
M  V30 9808 H 951.595 -2.3906 -2.00641 0
M  V30 9809 N 951.896 0.746133 -1.38819 0
M  V30 9810 C 952.846 1.85085 -1.33145 0
M  V30 9811 C 953.83 1.59466 -0.214339 0
M  V30 9812 O 955.022 1.71159 -0.450943 0
M  V30 9813 C 952.151 3.22884 -1.16623 0
M  V30 9814 C 951.237 3.54369 -2.32988 0
M  V30 9815 N 951.628 3.56863 -3.58445 0
M  V30 9816 C 949.926 3.84674 -2.25703 0
M  V30 9817 C 950.627 3.85827 -4.3533 0
M  V30 9818 N 949.603 4.03037 -3.64777 0
M  V30 9819 H 953.405 1.85301 -2.28124 0
M  V30 9820 H 950.919 0.943847 -1.32156 0
M  V30 9821 H 952.916 4.0195 -1.10642 0
M  V30 9822 H 951.576 3.23914 -0.225841 0
M  V30 9823 H 952.587 3.38443 -3.92017 0
M  V30 9824 H 949.264 3.93375 -1.39864 0
M  V30 9825 H 950.654 3.94317 -5.44025 0
M  V30 9826 N 953.375 1.23811 0.975125 0
M  V30 9827 C 954.305 1.04846 2.08638 0
M  V30 9828 C 955.286 -0.0362859 1.70061 0
M  V30 9829 O 956.471 0.12937 1.93769 0
M  V30 9830 C 953.601 0.644534 3.41267 0
M  V30 9831 C 952.555 1.67722 3.93768 0
M  V30 9832 C 951.881 1.12857 5.22654 0
M  V30 9833 C 953.181 3.07147 4.22443 0
M  V30 9834 H 954.875 1.97795 2.24761 0
M  V30 9835 H 952.421 0.952397 1.08006 0
M  V30 9836 H 954.374 0.498887 4.18436 0
M  V30 9837 H 953.098 -0.320641 3.25022 0
M  V30 9838 H 951.757 1.81095 3.18748 0
M  V30 9839 H 951.405 0.154227 5.02764 0
M  V30 9840 H 951.105 1.81862 5.58749 0
M  V30 9841 H 952.629 0.994891 6.0244 0
M  V30 9842 H 954.043 2.97045 4.90344 0
M  V30 9843 H 952.44 3.73437 4.6975 0
M  V30 9844 H 953.51 3.55743 3.29507 0
M  V30 9845 N 954.853 -1.17469 1.05066 0
M  V30 9846 C 955.783 -2.23635 0.671552 0
M  V30 9847 C 956.764 -1.66867 -0.33006 0
M  V30 9848 O 957.949 -1.93084 -0.207933 0
M  V30 9849 C 955.079 -3.47272 0.0441845 0
M  V30 9850 C 954.033 -4.16854 0.97042 0
M  V30 9851 C 953.359 -5.34299 0.206998 0
M  V30 9852 C 954.659 -4.69225 2.29401 0
M  V30 9853 H 956.353 -2.55602 1.55911 0
M  V30 9854 H 953.899 -1.2286 0.751101 0
M  V30 9855 H 955.852 -4.20756 -0.23282 0
M  V30 9856 H 954.576 -3.14568 -0.878311 0
M  V30 9857 H 953.235 -3.4528 1.23197 0
M  V30 9858 H 952.883 -4.97846 -0.718222 0
M  V30 9859 H 952.583 -5.81792 0.82416 0
M  V30 9860 H 954.107 -6.10568 -0.0627525 0
M  V30 9861 H 955.521 -5.34353 2.077 0
M  V30 9862 H 953.918 -5.27291 2.86503 0
M  V30 9863 H 954.988 -3.86102 2.93348 0
M  V30 9864 N 956.331 -0.831506 -1.3388 0
M  V30 9865 C 957.241 -0.261688 -2.33136 0
M  V30 9866 C 958.257 0.608429 -1.63016 0
M  V30 9867 O 959.433 0.514297 -1.94723 0
M  V30 9868 C 956.498 0.559957 -3.42148 0
M  V30 9869 C 955.559 -0.333569 -4.28002 0
M  V30 9870 C 954.792 0.448956 -5.31808 0
M  V30 9871 O 955.015 1.6814 -5.45055 0
M  V30 9872 O 953.949 -0.173197 -6.01651 0
M  V30 9873 H 957.775 -1.08343 -2.83717 0
M  V30 9874 H 955.36 -0.593849 -1.3709 0
M  V30 9875 H 957.242 1.02712 -4.08691 0
M  V30 9876 H 955.917 1.35888 -2.93796 0
M  V30 9877 H 954.824 -0.848416 -3.64352 0
M  V30 9878 H 956.157 -1.09707 -4.79818 0
M  V30 9879 N 957.809 1.4625 -0.587256 0
M  V30 9880 C 958.772 2.28812 0.133238 0
M  V30 9881 C 959.772 1.38645 0.814513 0
M  V30 9882 O 960.962 1.60975 0.665774 0
M  V30 9883 C 958.094 3.19147 1.19824 0
M  V30 9884 H 959.287 2.93991 -0.592386 0
M  V30 9885 H 956.84 1.52435 -0.345416 0
M  V30 9886 H 957.575 2.58725 1.95529 0
M  V30 9887 H 957.36 3.85541 0.71418 0
M  V30 9888 H 958.85 3.81278 1.70344 0
M  V30 9889 N 959.287 0.325282 1.54207 0
M  V30 9890 C 960.237 -0.55548 2.2113 0
M  V30 9891 C 961.221 -1.0803 1.19241 0
M  V30 9892 O 962.413 -1.01703 1.44864 0
M  V30 9893 C 959.542 -1.71504 2.97391 0
M  V30 9894 C 958.628 -1.20503 4.0662 0
M  V30 9895 N 959.019 -0.414838 5.04096 0
M  V30 9896 C 957.317 -1.4836 4.20601 0
M  V30 9897 C 958.018 -0.140225 5.81531 0
M  V30 9898 N 956.994 -0.72683 5.38719 0
M  V30 9899 H 960.796 0.0555192 2.93848 0
M  V30 9900 H 958.31 0.131225 1.61869 0
M  V30 9901 H 960.307 -2.35781 3.43821 0
M  V30 9902 H 958.967 -2.3295 2.26195 0
M  V30 9903 H 959.978 -0.0575291 5.17868 0
M  V30 9904 H 956.655 -2.10378 3.60621 0
M  V30 9905 H 958.045 0.496026 6.70067 0
M  V30 9906 N 960.765 -1.57509 0.0534917 0
M  V30 9907 C 961.995 -1.96812 -0.628386 0
M  V30 9908 C 962.403 -0.929808 -1.64776 0
M  V30 9909 O 961.746 0.0941155 -1.83459 0
M  V30 9910 C 961.808 -3.32361 -1.37027 0
M  V30 9911 C 961.472 -4.54185 -0.506465 0
M  V30 9912 C 962.469 -5.19398 0.228412 0
M  V30 9913 C 960.154 -5.00398 -0.43671 0
M  V30 9914 C 962.148 -6.29162 1.02146 0
M  V30 9915 C 959.835 -6.10039 0.360022 0
M  V30 9916 C 960.833 -6.74282 1.08779 0
M  V30 9917 O 960.521 -7.81814 1.87142 0
M  V30 9918 H 960.253 -0.65257 -0.176432 0
M  V30 9919 H 962.807 -2.05067 0.116908 0
M  V30 9920 H 961.037 -3.20667 -2.16125 0
M  V30 9921 H 962.726 -3.56395 -1.94261 0
M  V30 9922 H 963.492 -4.84651 0.184003 0
M  V30 9923 H 959.371 -4.50183 -0.992772 0
M  V30 9924 H 962.915 -6.79238 1.59002 0
M  V30 9925 H 958.812 -6.44222 0.406061 0
M  V30 9926 H 959.58 -7.98602 1.79378 0
M  V30 9927 N 962.243 0.219913 -1.56058 0
M  V30 9928 C 963.206 1.25606 -1.91718 0
M  V30 9929 C 964.206 1.39721 -0.795912 0
M  V30 9930 O 965.396 1.37958 -1.06364 0
M  V30 9931 C 962.528 2.62961 -2.16943 0
M  V30 9932 H 963.721 0.951909 -2.84392 0
M  V30 9933 H 961.274 0.460398 -1.49365 0
M  V30 9934 H 962.009 2.98472 -1.26826 0
M  V30 9935 H 961.794 2.54093 -2.98629 0
M  V30 9936 H 963.284 3.37727 -2.45622 0
M  V30 9937 N 963.721 1.49897 0.486681 0
M  V30 9938 C 965.137 1.36977 0.819109 0
M  V30 9939 C 965.337 0.41385 1.97204 0
M  V30 9940 O 964.393 -0.149249 2.52059 0
M  V30 9941 C 965.706 2.78013 1.14584 0
M  V30 9942 C 967.254 2.86816 1.25321 0
M  V30 9943 C 967.729 4.28651 1.61316 0
M  V30 9944 N 969.22 4.31528 1.68337 0
M  V30 9945 C 969.955 5.38254 1.97662 0
M  V30 9946 N 969.451 6.55207 2.25113 0
M  V30 9947 N 971.244 5.25683 1.99033 0
M  V30 9948 H 963.395 2.10634 -0.273364 0
M  V30 9949 H 965.658 0.946116 -0.0597418 0
M  V30 9950 H 965.364 3.49728 0.371892 0
M  V30 9951 H 965.238 3.1428 2.08585 0
M  V30 9952 H 967.625 2.15329 2.01785 0
M  V30 9953 H 967.706 2.54112 0.293368 0
M  V30 9954 H 967.35 5.00669 0.853968 0
M  V30 9955 H 967.28 4.5883 2.58424 0
M  V30 9956 H 969.771 3.47189 1.49226 0
M  V30 9957 H 970.084 7.32359 2.46717 0
M  V30 9958 H 968.429 6.58408 2.22538 0
M  V30 9959 H 971.62 4.33316 1.77074 0
M  V30 9960 H 971.793 6.08949 2.21552 0
M  V30 9961 N 965.199 -0.738761 1.39212 0
M  V30 9962 C 966.61 -1.31684 1.32348 0
M  V30 9963 C 966.961 -1.96195 -0.0139041 0
M  V30 9964 O 966.086 -1.96056 -0.916025 0
M  V30 9965 C 966.681 -2.39444 2.39691 0
M  V30 9966 C 965.24 -2.92935 2.36359 0
M  V30 9967 C 964.387 -1.66465 2.21776 0
M  V30 9968 H 967.338 -0.536543 1.49355 0
M  V30 9969 H 967.359 -3.19744 2.06262 0
M  V30 9970 H 966.871 -1.92463 3.37016 0
M  V30 9971 H 964.972 -3.44207 1.42662 0
M  V30 9972 H 965.085 -3.46306 3.31073 0
M  V30 9973 H 963.449 -1.90657 1.68884 0
M  V30 9974 H 964.232 -1.21541 3.21065 0
M  V30 9975 N 966.677 -1.24326 -0.968545 0
M  V30 9976 C 967.587 -1.05194 -2.09694 0
M  V30 9977 C 968.603 0.00701291 -1.73999 0
M  V30 9978 O 969.779 -0.190981 -2.00492 0
M  V30 9979 C 966.844 -0.658075 -3.40397 0
M  V30 9980 C 965.905 -1.79341 -3.90045 0
M  V30 9981 C 965.138 -1.41824 -5.14511 0
M  V30 9982 O 965.361 -0.307693 -5.69569 0
M  V30 9983 O 964.295 -2.24358 -5.58522 0
M  V30 9984 H 968.121 -1.99791 -2.2873 0
M  V30 9985 H 965.706 -1.03138 -1.08088 0
M  V30 9986 H 967.588 -0.449911 -4.18991 0
M  V30 9987 H 966.263 0.258782 -3.22664 0
M  V30 9988 H 965.17 -2.05632 -3.12516 0
M  V30 9989 H 966.503 -2.68901 -4.12254 0
M  V30 9990 N 968.156 1.1691 -1.05688 0
M  V30 9991 C 969.402 1.8757 -0.771071 0
M  V30 9992 C 969.735 1.8113 0.700399 0
M  V30 9993 O 969.01 1.22273 1.5126 0
M  V30 9994 C 969.293 3.37392 -1.25851 0
M  V30 9995 C 969.146 3.52556 -2.79329 0
M  V30 9996 C 970.465 4.31585 -0.861512 0
M  V30 9997 H 967.584 0.681089 -0.281579 0
M  V30 9998 H 970.226 1.37453 -1.31174 0
M  V30 9999 H 968.376 3.80204 -0.798563 0
M  V30 10000 H 970.048 3.18725 -3.33485 0
M  V30 10001 H 968.291 2.94668 -3.1836 0
M  V30 10002 H 968.962 4.57748 -3.08498 0
M  V30 10003 H 971.438 3.96642 -1.25756 0
M  V30 10004 H 970.314 5.34939 -1.23012 0
M  V30 10005 H 970.575 4.4148 0.234089 0
M  V30 10006 N 969.634 0.838594 1.33437 0
M  V30 10007 C 970.88 0.434813 1.98084 0
M  V30 10008 C 971.213 -1.00331 1.66275 0
M  V30 10009 O 970.488 -1.70139 0.942501 0
M  V30 10010 C 970.771 0.655602 3.54082 0
M  V30 10011 C 970.624 2.14097 3.95578 0
M  V30 10012 C 971.943 0.101576 4.39983 0
M  V30 10013 H 969.062 0.159456 0.719544 0
M  V30 10014 H 971.704 1.05406 1.58081 0
M  V30 10015 H 969.854 0.128501 3.88287 0
M  V30 10016 H 971.526 2.73292 3.71631 0
M  V30 10017 H 969.769 2.62558 3.4532 0
M  V30 10018 H 970.44 2.24621 5.04231 0
M  V30 10019 H 972.916 0.552122 4.12421 0
M  V30 10020 H 971.792 0.28575 5.48156 0
M  V30 10021 H 972.053 -0.994616 4.30767 0
M  V30 10022 N 971.112 -1.45937 0.595003 0
M  V30 10023 C 972.36 -2.01921 0.0851368 0
M  V30 10024 C 972.681 -1.46748 -1.28413 0
M  V30 10025 O 971.951 -0.656873 -1.84559 0
M  V30 10026 H 970.531 -0.746457 0.0284826 0
M  V30 10027 H 973.193 -1.78891 0.773561 0
M  V30 10028 H 972.289 -3.1209 0.0254002 0
M  V30 10029 N 972.59 -0.333456 -1.54032 0
M  V30 10030 C 973.522 0.562174 -2.22199 0
M  V30 10031 C 974.535 1.07202 -1.22522 0
M  V30 10032 O 975.724 0.983897 -1.48935 0
M  V30 10033 C 972.824 1.78525 -2.88066 0
M  V30 10034 C 971.997 1.41242 -4.13968 0
M  V30 10035 C 971.056 2.49408 -4.63338 0
M  V30 10036 O 970.082 2.13138 -5.27789 0
M  V30 10037 N 971.284 3.805 -4.38406 0
M  V30 10038 H 974.049 -0.0215629 -2.99692 0
M  V30 10039 H 971.61 -0.157111 -1.61136 0
M  V30 10040 H 973.602 2.50298 -3.18014 0
M  V30 10041 H 972.172 2.2766 -2.14219 0
M  V30 10042 H 971.392 0.525887 -3.90676 0
M  V30 10043 H 972.68 1.13916 -4.95884 0
M  V30 10044 H 972.078 4.12761 -3.86839 0
M  V30 10045 H 970.635 4.48474 -4.72984 0
M  V30 10046 N 974.068 1.57479 -0.061844 0
M  V30 10047 C 975.296 1.97429 0.618837 0
M  V30 10048 C 975.711 0.939826 1.63746 0
M  V30 10049 O 975.068 -0.0747173 1.82347 0
M  V30 10050 C 975.119 3.3746 1.29628 0
M  V30 10051 O 974.84 4.36941 0.318431 0
M  V30 10052 C 976.341 3.92228 2.06572 0
M  V30 10053 H 973.561 0.649513 0.168444 0
M  V30 10054 H 976.105 2.04078 -0.131303 0
M  V30 10055 H 974.26 3.31928 1.99757 0
M  V30 10056 H 974.674 5.18313 0.803239 0
M  V30 10057 H 976.148 4.92458 2.49377 0
M  V30 10058 H 976.625 3.28231 2.91824 0
M  V30 10059 H 977.231 4.01131 1.4133 0
M  V30 10060 N 975.546 -0.211634 1.56173 0
M  V30 10061 C 976.771 -0.955324 1.84088 0
M  V30 10062 C 977.196 -1.76754 0.643407 0
M  V30 10063 O 976.554 -1.76653 -0.407842 0
M  V30 10064 C 976.602 -1.84063 3.10085 0
M  V30 10065 O 975.706 -2.9373 2.89476 0
M  V30 10066 H 975.047 -0.26996 0.606645 0
M  V30 10067 H 977.577 -0.221947 2.03393 0
M  V30 10068 H 977.587 -2.24852 3.40449 0
M  V30 10069 H 976.262 -1.24373 3.96868 0
M  V30 10070 H 974.839 -2.56816 2.7037 0
M  V30 10071 N 977.024 -1.50153 -0.478725 0
M  V30 10072 C 977.987 -1.67916 -1.56003 0
M  V30 10073 C 978.987 -0.550111 -1.51097 0
M  V30 10074 O 980.177 -0.817001 -1.53853 0
M  V30 10075 C 977.309 -1.6973 -2.95643 0
M  V30 10076 H 978.502 -2.6438 -1.41573 0
M  V30 10077 H 976.055 -1.39519 -0.704565 0
M  V30 10078 H 976.79 -0.749306 -3.15525 0
M  V30 10079 H 976.575 -2.51745 -3.00611 0
M  V30 10080 H 978.065 -1.85453 -3.74162 0
M  V30 10081 N 978.502 0.731368 -1.39602 0
M  V30 10082 C 979.432 1.85855 -1.41351 0
M  V30 10083 C 980.413 1.67839 -0.2764 0
M  V30 10084 O 981.598 1.88104 -0.482747 0
M  V30 10085 C 978.728 3.23644 -1.25983 0
M  V30 10086 C 977.682 3.56304 -2.37132 0
M  V30 10087 C 977.008 4.93069 -2.0685 0
M  V30 10088 C 978.308 3.58906 -3.79452 0
M  V30 10089 H 980.002 1.84648 -2.3568 0
M  V30 10090 H 977.548 0.886955 -1.13442 0
M  V30 10091 H 979.501 4.02176 -1.25826 0
M  V30 10092 H 978.225 3.25387 -0.281234 0
M  V30 10093 H 976.884 2.80104 -2.36511 0
M  V30 10094 H 976.532 4.91396 -1.0742 0
M  V30 10095 H 976.232 5.15888 -2.81306 0
M  V30 10096 H 977.756 5.73953 -2.0835 0
M  V30 10097 H 979.17 4.27508 -3.81982 0
M  V30 10098 H 977.567 3.93246 -4.53297 0
M  V30 10099 H 978.637 2.58631 -4.10168 0
M  V30 10100 N 979.98 1.24838 0.961938 0
M  V30 10101 C 980.91 1.07053 2.07514 0
M  V30 10102 C 981.891 -0.0182465 1.7009 0
M  V30 10103 O 983.076 0.149915 1.9362 0
M  V30 10104 C 980.206 0.680693 3.40564 0
M  V30 10105 C 979.16 1.71889 3.91967 0
M  V30 10106 C 978.486 1.18395 5.21428 0
M  V30 10107 C 979.786 3.1161 4.19161 0
M  V30 10108 H 981.48 2.00167 2.22651 0
M  V30 10109 H 979.026 0.963799 1.0699 0
M  V30 10110 H 980.979 0.54324 4.17884 0
M  V30 10111 H 979.703 -0.28615 3.25344 0
M  V30 10112 H 978.362 1.84465 3.16809 0
M  V30 10113 H 978.01 0.207543 5.02572 0
M  V30 10114 H 977.71 1.87778 5.56788 0
M  V30 10115 H 979.234 1.05873 6.01351 0
M  V30 10116 H 980.648 3.0223 4.87165 0
M  V30 10117 H 979.045 3.78398 4.65763 0
M  V30 10118 H 980.115 3.59218 3.25715 0
M  V30 10119 N 981.458 -1.16348 1.06306 0
M  V30 10120 C 982.874 -1.38873 0.786543 0
M  V30 10121 C 983.074 -1.91915 -0.614061 0
M  V30 10122 O 982.13 -2.11804 -1.3746 0
M  V30 10123 C 983.443 -2.36936 1.85154 0
M  V30 10124 C 984.991 -2.5062 1.87506 0
M  V30 10125 C 985.466 -3.51965 2.9306 0
M  V30 10126 N 986.957 -3.59492 2.92095 0
M  V30 10127 C 987.692 -4.37699 3.70415 0
M  V30 10128 N 987.188 -5.19327 4.58553 0
M  V30 10129 N 988.981 -4.32683 3.58806 0
M  V30 10130 H 981.132 -0.802542 1.96655 0
M  V30 10131 H 983.395 -0.415304 0.852189 0
M  V30 10132 H 983.101 -2.05056 2.85736 0
M  V30 10133 H 982.975 -3.36585 1.70267 0
M  V30 10134 H 985.362 -2.81804 0.875827 0
M  V30 10135 H 985.443 -1.51006 2.06472 0
M  V30 10136 H 985.087 -3.21518 3.93177 0
M  V30 10137 H 985.017 -4.51309 2.71344 0
M  V30 10138 H 987.508 -3.01222 2.28197 0
M  V30 10139 H 987.821 -5.76216 5.1497 0
M  V30 10140 H 986.166 -5.1867 4.62608 0
M  V30 10141 H 989.357 -3.67971 2.89335 0
M  V30 10142 H 989.53 -4.93386 4.20088 0
M  V30 10143 N 982.937 -0.845659 -1.3299 0
M  V30 10144 C 983.9 -0.288905 -2.27372 0
M  V30 10145 C 984.9 0.546263 -1.51237 0
M  V30 10146 O 986.09 0.359072 -1.70459 0
M  V30 10147 C 983.222 0.59224 -3.35716 0
M  V30 10148 H 984.415 -1.12181 -2.78128 0
M  V30 10149 H 981.968 -0.619276 -1.43508 0
M  V30 10150 H 982.703 1.44732 -2.90212 0
M  V30 10151 H 982.488 -0.00543255 -3.921 0
M  V30 10152 H 983.978 0.974848 -4.06062 0
M  V30 10153 N 984.415 1.45619 -0.602734 0
M  V30 10154 C 985.362 2.30493 0.118944 0
M  V30 10155 C 986.332 1.41816 0.864723 0
M  V30 10156 O 987.517 1.7075 0.851424 0
M  V30 10157 C 984.657 3.2664 1.11356 0
M  V30 10158 C 983.77 4.3042 0.369161 0
M  V30 10159 C 982.905 5.13678 1.35307 0
M  V30 10160 C 981.944 6.09189 0.596207 0
M  V30 10161 N 981.081 6.85245 1.52916 0
M  V30 10162 H 985.921 2.91672 -0.610836 0
M  V30 10163 H 983.458 1.43731 -0.313032 0
M  V30 10164 H 985.416 3.80846 1.7033 0
M  V30 10165 H 984.046 2.67225 1.81081 0
M  V30 10166 H 983.098 3.78913 -0.335994 0
M  V30 10167 H 984.41 4.98307 -0.221603 0
M  V30 10168 H 983.564 5.7226 2.01502 0
M  V30 10169 H 982.303 4.45798 1.97777 0
M  V30 10170 H 981.308 5.49743 -0.0793984 0
M  V30 10171 H 982.533 6.79096 -0.0233734 0
M  V30 10172 H 980.479 6.20058 2.14159 0
M  V30 10173 H 980.396 7.49467 0.991713 0
M  V30 10174 H 981.664 7.48371 2.18083 0
M  V30 10175 N 985.893 0.34162 1.53853 0
M  V30 10176 C 986.823 -0.508431 2.27897 0
M  V30 10177 C 987.804 -1.10425 1.29384 0
M  V30 10178 O 988.989 -1.126 1.58224 0
M  V30 10179 C 986.119 -1.66048 3.05034 0
M  V30 10180 C 985.073 -1.19309 4.11035 0
M  V30 10181 C 984.399 -2.4335 4.76114 0
M  V30 10182 C 985.699 -0.294952 5.21467 0
M  V30 10183 H 987.393 0.109251 2.99201 0
M  V30 10184 H 984.939 0.0539847 1.43899 0
M  V30 10185 H 986.892 -2.26158 3.5557 0
M  V30 10186 H 985.616 -2.30503 2.31379 0
M  V30 10187 H 984.275 -0.614809 3.61408 0
M  V30 10188 H 983.923 -3.06208 3.99056 0
M  V30 10189 H 983.623 -2.1276 5.47729 0
M  V30 10190 H 985.147 -3.0419 5.29434 0
M  V30 10191 H 986.561 -0.80285 5.67651 0
M  V30 10192 H 984.958 -0.0810221 6.00045 0
M  V30 10193 H 986.028 0.669433 4.80257 0
M  V30 10194 N 987.371 -1.57444 0.0701946 0
M  V30 10195 C 988.334 -2.11511 -0.882923 0
M  V30 10196 C 989.334 -1.03879 -1.22743 0
M  V30 10197 O 990.524 -1.29874 -1.16097 0
M  V30 10198 C 987.656 -2.61514 -2.18686 0
M  V30 10199 H 988.849 -2.9703 -0.413873 0
M  V30 10200 H 986.402 -1.55278 -0.178488 0
M  V30 10201 H 987.137 -1.79443 -2.70131 0
M  V30 10202 H 986.922 -3.40185 -1.94978 0
M  V30 10203 H 988.412 -3.03425 -2.86919 0
M  V30 10204 N 988.849 0.203349 -1.56283 0
M  V30 10205 C 989.781 1.27592 -1.90402 0
M  V30 10206 C 990.794 1.4213 -0.79391 0
M  V30 10207 O 991.983 1.42703 -1.07229 0
M  V30 10208 C 989.083 2.64919 -2.11356 0
M  V30 10209 C 988.256 2.72095 -3.42466 0
M  V30 10210 C 987.315 3.9056 -3.52631 0
M  V30 10211 O 986.341 3.78048 -4.25521 0
M  V30 10212 N 987.543 5.0566 -2.85111 0
M  V30 10213 H 990.308 0.986423 -2.83001 0
M  V30 10214 H 987.869 0.39331 -1.5705 0
M  V30 10215 H 989.861 3.42581 -2.15453 0
M  V30 10216 H 988.431 2.86391 -1.25295 0
M  V30 10217 H 987.651 1.8077 -3.50308 0
M  V30 10218 H 988.939 2.73874 -4.28801 0
M  V30 10219 H 988.337 5.18723 -2.25705 0
M  V30 10220 H 986.894 5.81299 -2.94847 0
M  V30 10221 N 990.327 1.50405 0.470755 0
M  V30 10222 C 991.575 1.61092 1.2204 0
M  V30 10223 C 991.896 0.313487 1.92464 0
M  V30 10224 O 991.166 -0.669043 1.84121 0
M  V30 10225 H 989.746 0.593618 0.45346 0
M  V30 10226 H 992.408 1.87184 0.542985 0
M  V30 10227 H 991.504 2.42222 1.96812 0
M  V30 10228 N 991.805 -0.723954 1.39988 0
M  V30 10229 C 992.768 -1.81973 1.3935 0
M  V30 10230 C 993.768 -1.58187 0.288702 0
M  V30 10231 O 994.958 -1.65383 0.547181 0
M  V30 10232 C 992.09 -3.19937 1.177 0
M  V30 10233 H 993.283 -1.83939 2.36868 0
M  V30 10234 H 990.836 -0.928742 1.25714 0
M  V30 10235 H 991.571 -3.23625 0.209093 0
M  V30 10236 H 991.356 -3.386 1.97719 0
M  V30 10237 H 992.846 -3.99981 1.20022 0
M  V30 10238 N 993.283 -1.25346 -0.955304 0
M  V30 10239 C 994.513 -1.12629 -1.732 0
M  V30 10240 C 994.921 0.322748 -1.86427 0
M  V30 10241 O 994.264 1.23381 -1.36099 0
M  V30 10242 C 994.326 -1.7064 -3.16421 0
M  V30 10243 C 993.99 -3.19632 -3.26626 0
M  V30 10244 C 994.987 -4.1663 -3.10991 0
M  V30 10245 C 992.672 -3.59829 -3.50468 0
M  V30 10246 C 994.666 -5.51806 -3.19043 0
M  V30 10247 C 992.353 -4.95143 -3.58157 0
M  V30 10248 C 993.351 -5.90941 -3.42459 0
M  V30 10249 O 993.039 -7.23792 -3.49828 0
M  V30 10250 H 992.771 -0.393646 -0.549562 0
M  V30 10251 H 995.325 -1.66184 -1.20715 0
M  V30 10252 H 993.555 -1.11532 -3.70267 0
M  V30 10253 H 995.244 -1.53032 -3.75947 0
M  V30 10254 H 996.01 -3.86915 -2.92441 0
M  V30 10255 H 991.889 -2.8576 -3.61749 0
M  V30 10256 H 995.433 -6.26559 -3.06707 0
M  V30 10257 H 991.33 -5.24525 -3.76224 0
M  V30 10258 H 992.098 -7.31879 -3.66463 0
M  V30 10259 N 994.761 1.15782 -1.06922 0
M  V30 10260 C 996.177 1.38454 -0.793896 0
M  V30 10261 C 996.377 1.92238 0.603875 0
M  V30 10262 O 995.433 2.1253 1.36335 0
M  V30 10263 C 996.746 2.3595 -1.86408 0
M  V30 10264 C 998.294 2.49622 -1.88833 0
M  V30 10265 C 998.769 3.50406 -2.94923 0
M  V30 10266 N 1000.26 3.57938 -2.93997 0
M  V30 10267 C 1001 4.35728 -3.72731 0
M  V30 10268 N 1000.49 5.16888 -4.61301 0
M  V30 10269 N 1002.28 4.30774 -3.61096 0
M  V30 10270 H 994.435 0.792101 -1.97077 0
M  V30 10271 H 996.698 0.410779 -0.85438 0
M  V30 10272 H 996.404 2.03537 -2.86819 0
M  V30 10273 H 996.278 3.35677 -1.72049 0
M  V30 10274 H 998.665 2.81335 -0.890759 0
M  V30 10275 H 998.746 1.49909 -2.0727 0
M  V30 10276 H 998.39 3.19429 -3.94877 0
M  V30 10277 H 998.32 4.49864 -2.73734 0
M  V30 10278 H 1000.81 3.00007 -2.29791 0
M  V30 10279 H 1001.12 5.73477 -5.18019 0
M  V30 10280 H 999.469 5.16209 -4.65353 0
M  V30 10281 H 1002.66 3.66432 -2.91282 0
M  V30 10282 H 1002.83 4.91151 -4.22699 0
M  V30 10283 N 996.239 0.8527 1.3254 0
M  V30 10284 C 997.467 0.469044 2.01513 0
M  V30 10285 C 997.882 -0.933701 1.64096 0
M  V30 10286 O 997.239 -1.60898 0.861283 0
M  V30 10287 C 997.29 0.596228 3.56549 0
M  V30 10288 O 997.011 1.94371 3.92621 0
M  V30 10289 C 998.512 0.211324 4.42796 0
M  V30 10290 H 995.732 0.184589 0.645111 0
M  V30 10291 H 998.276 1.1491 1.69163 0
M  V30 10292 H 996.431 -0.0360712 3.87383 0
M  V30 10293 H 996.845 1.93909 4.87339 0
M  V30 10294 H 998.319 0.351324 5.50881 0
M  V30 10295 H 998.796 -0.848055 4.30935 0
M  V30 10296 H 999.402 0.818617 4.17347 0
M  V30 10297 N 997.718 -1.45297 0.610449 0
M  V30 10298 C 998.681 -2.28995 -0.0968194 0
M  V30 10299 C 999.681 -1.39923 -0.792353 0
M  V30 10300 O 1000.87 -1.62014 -0.64008 0
M  V30 10301 C 998.003 -3.21013 -1.14731 0
M  V30 10302 H 999.196 -2.93012 0.639082 0
M  V30 10303 H 996.749 -1.51867 0.369624 0
M  V30 10304 H 997.484 -2.61803 -1.91388 0
M  V30 10305 H 997.269 -3.86628 -0.652753 0
M  V30 10306 H 998.759 -3.8394 -1.64256 0
M  V30 10307 N 999.196 -0.349774 -1.5367 0
M  V30 10308 C 1000.44 0.245189 -2.01312 0
M  V30 10309 C 1000.77 1.49702 -1.23705 0
M  V30 10310 O 1000.05 1.91742 -0.326371 0
M  V30 10311 C 1000.33 0.553071 -3.55827 0
M  V30 10312 C 1000.19 -0.71129 -4.4414 0
M  V30 10313 C 1001.5 1.36015 -4.18555 0
M  V30 10314 H 998.624 0.0876415 -0.73177 0
M  V30 10315 H 1001.27 -0.471543 -1.84056 0
M  V30 10316 H 999.416 1.16367 -3.70663 0
M  V30 10317 H 1001.09 -1.34913 -4.41131 0
M  V30 10318 H 999.331 -1.33491 -4.1275 0
M  V30 10319 H 1000 -0.45104 -5.50154 0
M  V30 10320 H 1002.48 0.843778 -4.07455 0
M  V30 10321 H 1001.35 1.54432 -5.26728 0
M  V30 10322 H 1001.61 2.36408 -3.73582 0
M  V30 10323 N 1000.67 1.57404 -0.0785433 0
M  V30 10324 C 1001.95 1.85163 0.630389 0
M  V30 10325 C 1002.33 0.972295 1.87376 0
M  V30 10326 O 1001.68 0.0403375 2.28464 0
M  V30 10327 C 1001.89 3.35491 0.961604 0
M  V30 10328 C 1003.24 4.0316 1.33219 0
M  V30 10329 O 1004.26 3.40276 1.05313 0
M  V30 10330 O 1003.12 5.14086 1.85412 0
M  V30 10331 H 1000.21 0.765169 0.31376 0
M  V30 10332 H 1002.76 1.69343 -0.109986 0
M  V30 10333 H 1001.53 3.91221 0.0788113 0
M  V30 10334 H 1001.15 3.56598 1.75852 0
M  V30 10335 N 1002.15 -0.195058 1.56388 0
M  V30 10336 C 1003.08 -1.24444 1.97575 0
M  V30 10337 C 1004.06 -1.47471 0.847717 0
M  V30 10338 O 1005.25 -1.59208 1.11205 0
M  V30 10339 C 1002.38 -2.58866 2.31529 0
M  V30 10340 C 1001.33 -2.50451 3.47071 0
M  V30 10341 C 1000.66 -3.89146 3.667 0
M  V30 10342 C 1001.96 -2.02953 4.81256 0
M  V30 10343 H 1003.65 -0.902178 2.85484 0
M  V30 10344 H 1001.2 -0.43254 1.3735 0
M  V30 10345 H 1003.15 -3.3246 2.58936 0
M  V30 10346 H 1001.87 -2.94833 1.40502 0
M  V30 10347 H 1000.53 -1.79313 3.19754 0
M  V30 10348 H 1000.18 -4.22466 2.73004 0
M  V30 10349 H 999.882 -3.84391 4.44429 0
M  V30 10350 H 1001.41 -4.64363 3.96484 0
M  V30 10351 H 1002.82 -2.66306 5.07695 0
M  V30 10352 H 1001.22 -2.092 5.62455 0
M  V30 10353 H 1002.29 -0.982757 4.74837 0
M  V30 10354 N 1003.63 -1.50653 -0.462772 0
M  V30 10355 C 1004.54 -1.72923 -1.58539 0
M  V30 10356 C 1005.56 -0.612577 -1.6286 0
M  V30 10357 O 1006.73 -0.891885 -1.80575 0
M  V30 10358 C 1003.8 -1.82623 -2.94703 0
M  V30 10359 C 1002.86 -3.06392 -3.00704 0
M  V30 10360 C 1002.09 -3.15618 -4.30373 0
M  V30 10361 O 1002.31 -2.31423 -5.21344 0
M  V30 10362 O 1001.25 -4.0841 -4.42136 0
M  V30 10363 H 1005.07 -2.68103 -1.42669 0
M  V30 10364 H 1002.66 -1.34848 -0.643144 0
M  V30 10365 H 1004.54 -1.91134 -3.7556 0
M  V30 10366 H 1003.22 -0.906275 -3.10754 0
M  V30 10367 H 1002.12 -3.03375 -2.18894 0
M  V30 10368 H 1003.46 -3.97992 -2.89591 0
M  V30 10369 N 1005.11 0.71652 -1.4037 0
M  V30 10370 C 1006.33 1.51069 -1.42102 0
M  V30 10371 C 1006.76 1.88087 -0.0222387 0
M  V30 10372 O 1006.12 1.53204 0.969448 0
M  V30 10373 C 1006.16 2.76307 -2.31704 0
M  V30 10374 O 1005.27 3.72975 -1.75964 0
M  V30 10375 H 1004.61 0.455502 -0.483129 0
M  V30 10376 H 1007.14 0.882514 -1.84588 0
M  V30 10377 H 1007.15 3.24846 -2.46859 0
M  V30 10378 H 1005.82 2.48698 -3.3335 0
M  V30 10379 H 1004.4 3.31818 -1.70151 0
M  V30 10380 N 1006.59 1.25851 0.948643 0
M  V30 10381 C 1007.52 1.09248 2.06367 0
M  V30 10382 C 1008.5 -0.000205168 1.701 0
M  V30 10383 O 1009.68 0.170442 1.93451 0
M  V30 10384 C 1006.81 0.716777 3.39823 0
M  V30 10385 C 1005.77 1.76036 3.90122 0
M  V30 10386 C 1005.09 1.23918 5.20143 0
M  V30 10387 C 1006.39 3.16039 4.15833 0
M  V30 10388 H 1008.09 2.02518 2.20515 0
M  V30 10389 H 1005.63 0.975093 1.05962 0
M  V30 10390 H 1007.59 0.587531 4.17284 0
M  V30 10391 H 1006.31 -0.251626 3.25629 0
M  V30 10392 H 1004.97 1.87815 3.14835 0
M  V30 10393 H 1004.62 0.260836 5.02323 0
M  V30 10394 H 1004.32 1.93673 5.54765 0
M  V30 10395 H 1005.84 1.12245 6.00194 0
M  V30 10396 H 1007.25 3.0738 4.83933 0
M  V30 10397 H 1005.65 3.83317 4.61723 0
M  V30 10398 H 1006.72 3.62652 3.21887 0
M  V30 10399 N 1008.06 -1.15214 1.07534 0
M  V30 10400 C 1009.03 -2.18209 0.701237 0
M  V30 10401 C 1010.03 -1.58693 -0.25946 0
M  V30 10402 O 1011.22 -1.74154 -0.0401744 0
M  V30 10403 C 1008.35 -3.40883 0.0338703 0
M  V30 10404 H 1009.54 -2.5282 1.61314 0
M  V30 10405 H 1007.1 -1.29707 0.872105 0
M  V30 10406 H 1007.83 -3.11843 -0.890187 0
M  V30 10407 H 1007.62 -3.85342 0.72486 0
M  V30 10408 H 1009.11 -4.17056 -0.213152 0
M  V30 10409 N 1009.54 -0.859717 -1.32086 0
M  V30 10410 C 1010.77 -0.478865 -2.01796 0
M  V30 10411 C 1011.19 0.918274 -1.64163 0
M  V30 10412 O 1010.55 1.60409 -0.844896 0
M  V30 10413 C 1010.6 -0.631356 -3.5503 0
M  V30 10414 O 1009.7 0.333712 -4.11048 0
M  V30 10415 H 1009.04 -0.191775 -0.635703 0
M  V30 10416 H 1011.57 -1.16031 -1.68517 0
M  V30 10417 H 1011.58 -0.520783 -4.04663 0
M  V30 10418 H 1010.26 -1.65015 -3.81763 0
M  V30 10419 H 1008.84 0.178953 -3.7247 0
M  V30 10420 N 1011.02 1.44971 -0.618145 0
M  V30 10421 C 1011.95 2.28815 0.132751 0
M  V30 10422 C 1012.97 1.40551 0.821535 0
M  V30 10423 O 1014.15 1.64827 0.685155 0
M  V30 10424 C 1011.25 3.1658 1.20955 0
M  V30 10425 C 1010.43 4.33184 0.605821 0
M  V30 10426 C 1009.49 5.0208 1.57488 0
M  V30 10427 O 1008.51 5.58528 1.09706 0
M  V30 10428 N 1009.71 5.02335 2.9093 0
M  V30 10429 H 1012.48 2.939 -0.58674 0
M  V30 10430 H 1010.04 1.55276 -0.458375 0
M  V30 10431 H 1012.03 3.59535 1.85787 0
M  V30 10432 H 1010.6 2.53333 1.83143 0
M  V30 10433 H 1009.82 3.93581 -0.220827 0
M  V30 10434 H 1011.11 5.08471 0.182883 0
M  V30 10435 H 1010.51 4.57783 3.32342 0
M  V30 10436 H 1009.07 5.49119 3.51157 0
M  V30 10437 N 1012.5 0.357919 1.53482 0
M  V30 10438 C 1013.43 -0.484231 2.28424 0
M  V30 10439 C 1014.41 -1.09046 1.30548 0
M  V30 10440 O 1015.59 -1.10916 1.59409 0
M  V30 10441 C 1012.72 -1.62803 3.06778 0
M  V30 10442 C 1011.68 -1.14943 4.12277 0
M  V30 10443 C 1011 -2.38287 4.78669 0
M  V30 10444 C 1012.3 -0.239627 5.2175 0
M  V30 10445 H 1014 0.140979 2.99068 0
M  V30 10446 H 1011.54 0.069244 1.43833 0
M  V30 10447 H 1013.5 -2.22374 3.57949 0
M  V30 10448 H 1012.22 -2.28036 2.3381 0
M  V30 10449 H 1010.88 -0.576442 3.6204 0
M  V30 10450 H 1010.53 -3.01959 4.02281 0
M  V30 10451 H 1010.23 -2.06939 5.49955 0
M  V30 10452 H 1011.75 -2.98558 5.32631 0
M  V30 10453 H 1013.17 -0.742597 5.6847 0
M  V30 10454 H 1011.56 -0.0173747 6.00097 0
M  V30 10455 H 1012.63 0.720333 4.7952 0
M  V30 10456 N 1013.98 -1.5736 0.0868897 0
M  V30 10457 C 1015.2 -1.98388 -0.587349 0
M  V30 10458 C 1015.62 -0.965757 -1.6223 0
M  V30 10459 O 1014.98 0.0456981 -1.82443 0
M  V30 10460 C 1015.03 -3.39479 -1.24242 0
M  V30 10461 O 1014.75 -4.37393 -0.248878 0
M  V30 10462 C 1016.25 -3.95465 -2.00305 0
M  V30 10463 H 1013.47 -0.652111 -0.15809 0
M  V30 10464 H 1016.01 -2.03843 0.163754 0
M  V30 10465 H 1014.17 -3.35063 -1.94451 0
M  V30 10466 H 1014.58 -5.19525 -0.720678 0
M  V30 10467 H 1016.06 -4.96363 -2.41511 0
M  V30 10468 H 1016.53 -3.32832 -2.86565 0
M  V30 10469 H 1017.14 -4.03328 -1.34931 0
M  V30 10470 N 1015.45 0.186762 -1.56489 0
M  V30 10471 C 1016.42 1.21511 -1.94339 0
M  V30 10472 C 1017.42 1.38001 -0.82537 0
M  V30 10473 O 1018.61 1.3567 -1.09266 0
M  V30 10474 C 1015.74 2.583 -2.22472 0
M  V30 10475 H 1016.93 0.891371 -2.86347 0
M  V30 10476 H 1014.49 0.428612 -1.50308 0
M  V30 10477 H 1015.22 2.95715 -1.33129 0
M  V30 10478 H 1015.01 2.47701 -3.03951 0
M  V30 10479 H 1016.5 3.32441 -2.5273 0
M  V30 10480 N 1016.93 1.50896 0.454776 0
M  V30 10481 C 1018.21 1.53227 1.21576 0
M  V30 10482 C 1018.59 0.286358 2.09149 0
M  V30 10483 O 1017.94 -0.729469 2.16543 0
M  V30 10484 C 1018.15 2.83693 2.03271 0
M  V30 10485 C 1019.5 3.34981 2.60908 0
M  V30 10486 O 1020.52 2.85126 2.13499 0
M  V30 10487 O 1019.38 4.21929 3.4733 0
M  V30 10488 H 1016.47 0.615306 0.552564 0
M  V30 10489 H 1019.02 1.63197 0.465266 0
M  V30 10490 H 1017.79 3.65839 1.38843 0
M  V30 10491 H 1017.41 2.76803 2.85422 0
M  V30 10492 N 1018.41 -0.709066 1.40748 0
M  V30 10493 C 1019.34 -1.83583 1.4429 0
M  V30 10494 C 1020.32 -1.67378 0.303067 0
M  V30 10495 O 1021.51 -1.87312 0.512612 0
M  V30 10496 C 1018.64 -3.21599 1.31116 0
M  V30 10497 C 1017.59 -3.52486 2.4277 0
M  V30 10498 C 1016.92 -4.89716 2.14668 0
M  V30 10499 C 1018.22 -3.52824 3.85113 0
M  V30 10500 H 1019.91 -1.80876 2.38588 0
M  V30 10501 H 1017.46 -0.868795 1.14839 0
M  V30 10502 H 1019.41 -4.00123 1.32209 0
M  V30 10503 H 1018.13 -3.24898 0.332965 0
M  V30 10504 H 1016.79 -2.76305 2.40937 0
M  V30 10505 H 1016.44 -4.89625 1.15224 0
M  V30 10506 H 1016.14 -5.11347 2.89478 0
M  V30 10507 H 1017.66 -5.70566 2.17455 0
M  V30 10508 H 1019.08 -4.21377 3.88734 0
M  V30 10509 H 1017.48 -3.85984 4.59496 0
M  V30 10510 H 1018.55 -2.52073 4.14231 0
M  V30 10511 N 1019.89 -1.26353 -0.941956 0
M  V30 10512 C 1020.82 -1.03634 -2.04432 0
M  V30 10513 C 1021.83 0.00295864 -1.628 0
M  V30 10514 O 1023.02 -0.237029 -1.76919 0
M  V30 10515 C 1020.12 -0.547231 -3.34453 0
M  V30 10516 C 1019.3 -1.65559 -4.04857 0
M  V30 10517 C 1018.36 -1.16466 -5.13149 0
M  V30 10518 O 1017.38 -1.86158 -5.37898 0
M  V30 10519 N 1018.58 -0.0126703 -5.80499 0
M  V30 10520 H 1021.35 -1.98558 -2.24488 0
M  V30 10521 H 1018.91 -1.17728 -1.11138 0
M  V30 10522 H 1020.9 -0.203004 -4.04191 0
M  V30 10523 H 1019.47 0.308401 -3.11075 0
M  V30 10524 H 1018.69 -2.17079 -3.29044 0
M  V30 10525 H 1019.98 -2.39985 -4.48647 0
M  V30 10526 H 1019.38 0.569358 -5.62828 0
M  V30 10527 H 1017.93 0.272486 -6.5123 0
M  V30 10528 N 1021.37 1.14642 -1.08144 0
M  V30 10529 C 1022.28 2.23257 -0.720668 0
M  V30 10530 C 1023.29 1.71866 0.271648 0
M  V30 10531 O 1024.47 2.01064 0.116266 0
M  V30 10532 C 1021.53 3.46447 -0.132542 0
M  V30 10533 C 1020.6 4.12789 -1.17913 0
M  V30 10534 C 1019.83 5.30099 -0.618971 0
M  V30 10535 O 1020.05 5.6762 0.562418 0
M  V30 10536 O 1018.99 5.86154 -1.36774 0
M  V30 10537 H 1022.81 2.56463 -1.62667 0
M  V30 10538 H 1020.4 1.22521 -0.854932 0
M  V30 10539 H 1022.28 4.20959 0.19277 0
M  V30 10540 H 1020.95 3.14971 0.746662 0
M  V30 10541 H 1019.86 3.40163 -1.55693 0
M  V30 10542 H 1021.19 4.48365 -2.03051 0
M  V30 10543 N 1022.85 0.866709 1.31628 0
M  V30 10544 C 1024.09 0.476731 1.97117 0
M  V30 10545 C 1024.42 -0.967813 1.68366 0
M  V30 10546 O 1023.7 -1.68101 0.978377 0
M  V30 10547 C 1023.98 0.730561 3.52611 0
M  V30 10548 C 1023.84 2.2244 3.90948 0
M  V30 10549 C 1025.15 0.19488 4.39668 0
M  V30 10550 H 1022.27 0.174682 0.715999 0
M  V30 10551 H 1024.92 1.08735 1.5581 0
M  V30 10552 H 1023.07 0.210834 3.87927 0
M  V30 10553 H 1024.74 2.81113 3.6575 0
M  V30 10554 H 1022.98 2.69824 3.39673 0
M  V30 10555 H 1023.65 2.35266 4.99353 0
M  V30 10556 H 1026.13 0.639478 4.11157 0
M  V30 10557 H 1025 0.401958 5.47426 0
M  V30 10558 H 1025.26 -0.90302 4.32779 0
M  V30 10559 N 1024.32 -1.44642 0.625825 0
M  V30 10560 C 1025.55 -2.06971 0.133373 0
M  V30 10561 C 1025.97 -1.46421 -1.18078 0
M  V30 10562 O 1025.33 -0.563676 -1.72315 0
M  V30 10563 C 1025.38 -3.6059 0.0265097 0
M  V30 10564 O 1024.48 -3.99615 -1.01889 0
M  V30 10565 H 1023.82 -0.658873 0.0823568 0
M  V30 10566 H 1026.35 -1.85601 0.861002 0
M  V30 10567 H 1026.36 -4.07663 -0.1658 0
M  V30 10568 H 1025.04 -4.04043 0.985986 0
M  V30 10569 H 1023.62 -3.64183 -0.801577 0
M  V30 10570 N 1025.8 -0.366053 -1.5329 0
M  V30 10571 C 1027.05 0.223051 -2.00865 0
M  V30 10572 C 1027.37 1.49244 -1.25504 0
M  V30 10573 O 1026.64 1.92404 -0.368444 0
M  V30 10574 H 1025.22 0.085413 -0.742101 0
M  V30 10575 H 1027.88 -0.492396 -1.88578 0
M  V30 10576 H 1026.98 0.449701 -3.08843 0
M  V30 10577 N 1027.28 1.57312 -0.0952337 0
M  V30 10578 C 1028.56 1.85822 0.610715 0
M  V30 10579 C 1028.94 0.992114 1.86334 0
M  V30 10580 O 1028.28 0.0645669 2.28409 0
M  V30 10581 C 1028.49 3.36492 0.925967 0
M  V30 10582 C 1029.84 4.0455 1.28936 0
M  V30 10583 O 1030.87 3.41374 1.01698 0
M  V30 10584 O 1029.73 5.16024 1.79949 0
M  V30 10585 H 1026.82 0.768454 0.305626 0
M  V30 10586 H 1029.37 1.69217 -0.127941 0
M  V30 10587 H 1028.14 3.91282 0.0373127 0
M  V30 10588 H 1027.76 3.58443 1.7206 0
M  V30 10589 N 1028.76 -0.17846 1.56586 0
M  V30 10590 C 1029.71 -1.22552 1.92263 0
M  V30 10591 C 1030.69 -1.40163 0.790131 0
M  V30 10592 O 1031.88 -1.42254 1.05322 0
M  V30 10593 C 1029.01 -2.5666 2.27993 0
M  V30 10594 C 1028.1 -2.42772 3.47739 0
M  V30 10595 N 1028.49 -1.98588 4.65185 0
M  V30 10596 C 1026.79 -2.73619 3.52205 0
M  V30 10597 C 1027.49 -1.96991 5.47329 0
M  V30 10598 N 1026.46 -2.39126 4.8818 0
M  V30 10599 H 1030.27 -0.875493 2.80557 0
M  V30 10600 H 1027.78 -0.386785 1.57727 0
M  V30 10601 H 1029.78 -3.32312 2.51743 0
M  V30 10602 H 1028.44 -2.92472 1.41034 0
M  V30 10603 H 1029.45 -1.69036 4.89538 0
M  V30 10604 H 1026.13 -3.13516 2.75706 0
M  V30 10605 H 1027.52 -1.64589 6.51429 0
M  V30 10606 N 1030.24 -1.51135 -0.446768 0
M  V30 10607 C 1031.65 -1.39101 -0.782504 0
M  V30 10608 C 1031.85 -0.46599 -1.96038 0
M  V30 10609 O 1030.91 0.0823679 -2.52366 0
M  V30 10610 C 1032.22 -2.80953 -1.07173 0
M  V30 10611 C 1033.77 -2.90038 -1.17673 0
M  V30 10612 C 1034.24 -4.32777 -1.49894 0
M  V30 10613 N 1035.73 -4.3584 -1.56837 0
M  V30 10614 C 1036.47 -5.43305 -1.83322 0
M  V30 10615 N 1035.97 -6.60945 -2.07662 0
M  V30 10616 N 1037.76 -5.30775 -1.85026 0
M  V30 10617 H 1029.91 -2.09835 0.329114 0
M  V30 10618 H 1032.17 -0.944199 0.0848054 0
M  V30 10619 H 1031.88 -3.50591 -0.279037 0
M  V30 10620 H 1031.75 -3.197 -2.00179 0
M  V30 10621 H 1034.14 -2.20603 -1.96005 0
M  V30 10622 H 1034.22 -2.54801 -0.225892 0
M  V30 10623 H 1033.86 -5.02757 -0.720924 0
M  V30 10624 H 1033.79 -4.6552 -2.46168 0
M  V30 10625 H 1036.29 -3.51023 -1.39968 0
M  V30 10626 H 1036.6 -7.38643 -2.27214 0
M  V30 10627 H 1034.94 -6.64077 -2.05003 0
M  V30 10628 H 1038.13 -4.37858 -1.65523 0
M  V30 10629 H 1038.31 -6.14609 -2.05329 0
M  V30 10630 N 1031.71 0.701592 -1.41122 0
M  V30 10631 C 1032.64 1.82815 -1.45262 0
M  V30 10632 C 1033.62 1.67215 -0.311939 0
M  V30 10633 O 1034.81 1.87038 -0.522538 0
M  V30 10634 C 1031.94 3.20899 -1.32819 0
M  V30 10635 C 1030.89 3.51194 -2.44636 0
M  V30 10636 C 1030.22 4.8857 -2.17263 0
M  V30 10637 C 1031.52 3.50777 -3.86979 0
M  V30 10638 H 1033.21 1.79608 -2.39544 0
M  V30 10639 H 1030.76 0.862693 -1.15298 0
M  V30 10640 H 1032.71 3.99417 -1.34329 0
M  V30 10641 H 1031.44 3.24717 -0.350191 0
M  V30 10642 H 1030.1 2.75024 -2.42399 0
M  V30 10643 H 1029.74 4.89007 -1.17819 0
M  V30 10644 H 1029.44 5.09805 -2.92186 0
M  V30 10645 H 1030.97 5.69405 -2.20478 0
M  V30 10646 H 1032.38 4.19309 -3.90964 0
M  V30 10647 H 1030.78 3.83542 -4.61536 0
M  V30 10648 H 1031.85 2.49873 -4.15562 0
M  V30 10649 N 1033.19 1.2685 0.935242 0
M  V30 10650 C 1034.12 1.1143 2.05196 0
M  V30 10651 C 1035.1 0.0178362 1.70091 0
M  V30 10652 O 1036.29 0.190951 1.93259 0
M  V30 10653 C 1033.42 0.752779 3.39044 0
M  V30 10654 C 1032.37 1.80164 3.88233 0
M  V30 10655 C 1031.7 1.29428 5.18799 0
M  V30 10656 C 1033 3.20431 4.12457 0
M  V30 10657 H 1034.69 2.04845 2.18355 0
M  V30 10658 H 1032.24 0.986276 1.04922 0
M  V30 10659 H 1034.19 0.631757 4.16637 0
M  V30 10660 H 1032.91 -0.217075 3.25878 0
M  V30 10661 H 1031.57 1.91144 3.12825 0
M  V30 10662 H 1031.22 0.3141 5.02018 0
M  V30 10663 H 1030.92 1.99546 5.5268 0
M  V30 10664 H 1032.45 1.18605 5.9897 0
M  V30 10665 H 1033.86 3.12495 4.80645 0
M  V30 10666 H 1032.26 3.88193 4.57631 0
M  V30 10667 H 1033.33 3.66046 3.18023 0
M  V30 10668 N 1034.67 -1.14067 1.0875 0
M  V30 10669 C 1035.92 -1.85459 0.82053 0
M  V30 10670 C 1036.25 -1.82923 -0.65213 0
M  V30 10671 O 1035.52 -1.26241 -1.47965 0
M  V30 10672 C 1035.81 -3.33937 1.34752 0
M  V30 10673 C 1035.66 -3.45026 2.88578 0
M  V30 10674 C 1036.98 -4.2915 0.975636 0
M  V30 10675 H 1034.1 -0.673384 0.299538 0
M  V30 10676 H 1036.74 -1.33927 1.34772 0
M  V30 10677 H 1034.89 -3.77953 0.899086 0
M  V30 10678 H 1036.56 -3.09771 3.41818 0
M  V30 10679 H 1034.81 -2.86124 3.26061 0
M  V30 10680 H 1035.48 -4.49408 3.20526 0
M  V30 10681 H 1037.95 -3.93168 1.36228 0
M  V30 10682 H 1036.83 -5.31489 1.37152 0
M  V30 10683 H 1037.09 -4.41945 -0.116956 0
M  V30 10684 N 1036.15 -0.873678 -1.31166 0
M  V30 10685 C 1037.4 -0.486457 -1.9657 0
M  V30 10686 C 1037.72 0.962042 -1.69041 0
M  V30 10687 O 1036.98 1.69305 -0.981543 0
M  V30 10688 C 1037.28 -0.69462 -3.50585 0
M  V30 10689 C 1036.94 -2.11647 -3.98141 0
M  V30 10690 C 1035.61 -2.50531 -4.10838 0
M  V30 10691 C 1037.96 -3.0436 -4.23101 0
M  V30 10692 C 1035.29 -3.81361 -4.45848 0
M  V30 10693 C 1037.64 -4.34709 -4.59577 0
M  V30 10694 C 1036.3 -4.73502 -4.70481 0
M  V30 10695 H 1035.57 -0.178007 -0.719301 0
M  V30 10696 H 1038.22 -1.10737 -1.56235 0
M  V30 10697 H 1036.52 0.00940878 -3.91799 0
M  V30 10698 H 1038.22 -0.374782 -3.99245 0
M  V30 10699 H 1034.81 -1.8046 -3.88757 0
M  V30 10700 H 1038.99 -2.75544 -4.12782 0
M  V30 10701 H 1034.25 -4.11174 -4.52488 0
M  V30 10702 H 1038.42 -5.06596 -4.77842 0
M  V30 10703 H 1036.05 -5.74919 -4.97365 0
M  V30 10704 N 1037.63 1.44308 -0.633487 0
M  V30 10705 C 1038.58 2.27814 0.0919619 0
M  V30 10706 C 1039.56 1.38798 0.813882 0
M  V30 10707 O 1040.75 1.62587 0.699601 0
M  V30 10708 C 1037.88 3.26158 1.07125 0
M  V30 10709 C 1036.97 4.22663 0.348831 0
M  V30 10710 N 1037.36 5.01938 -0.623854 0
M  V30 10711 C 1035.66 4.42041 0.592958 0
M  V30 10712 C 1036.36 5.72129 -1.05088 0
M  V30 10713 N 1035.33 5.42205 -0.389183 0
M  V30 10714 H 1039.14 2.86515 -0.654721 0
M  V30 10715 H 1036.65 1.55773 -0.459178 0
M  V30 10716 H 1038.65 3.84742 1.60559 0
M  V30 10717 H 1037.31 2.69019 1.81821 0
M  V30 10718 H 1038.32 5.08119 -1.00176 0
M  V30 10719 H 1034.99 3.95997 1.32261 0
M  V30 10720 H 1036.38 6.45797 -1.85461 0
M  V30 10721 N 1039.1 0.374177 1.53094 0
M  V30 10722 C 1040.33 -0.215903 2.06273 0
M  V30 10723 C 1040.75 -1.40979 1.24526 0
M  V30 10724 O 1040.11 -1.79331 0.266462 0
M  V30 10725 C 1040.16 -0.579089 3.5592 0
M  V30 10726 O 1039.26 -1.67516 3.76845 0
M  V30 10727 H 1038.61 -0.0293981 0.663349 0
M  V30 10728 H 1041.14 0.537271 1.9742 0
M  V30 10729 H 1041.15 -0.847678 3.99097 0
M  V30 10730 H 1039.82 0.293843 4.14861 0
M  V30 10731 H 1038.4 -1.40146 3.45563 0
M  V30 10732 N 1040.58 -1.57259 0.103575 0
M  V30 10733 C 1041.99 -1.81816 -0.424239 0
M  V30 10734 C 1042.34 -1.01976 -1.67617 0
M  V30 10735 O 1041.47 -0.251673 -2.14932 0
M  V30 10736 C 1042.06 -3.29783 -0.776453 0
M  V30 10737 C 1040.62 -3.55074 -1.24897 0
M  V30 10738 C 1039.77 -2.76172 -0.249875 0
M  V30 10739 H 1042.72 -1.55254 0.328913 0
M  V30 10740 H 1042.74 -3.43569 -1.63526 0
M  V30 10741 H 1042.25 -3.87865 0.134906 0
M  V30 10742 H 1040.36 -3.02332 -2.17775 0
M  V30 10743 H 1040.47 -4.637 -1.20495 0
M  V30 10744 H 1038.83 -2.43902 -0.733767 0
M  V30 10745 H 1039.62 -3.37007 0.65431 0
M  V30 10746 N 1042.06 0.170153 -1.56679 0
M  V30 10747 C 1043.31 0.884841 -1.817 0
M  V30 10748 C 1043.63 1.82731 -0.680763 0
M  V30 10749 O 1042.9 1.936 0.299294 0
M  V30 10750 H 1041.48 0.329738 -0.670285 0
M  V30 10751 H 1044.14 0.169691 -1.9416 0
M  V30 10752 H 1043.24 1.46104 -2.7579 0
M  V30 10753 N 1043.54 1.5137 0.438746 0
M  V30 10754 C 1044.45 1.75424 1.55768 0
M  V30 10755 C 1045.46 0.638409 1.61865 0
M  V30 10756 O 1046.64 0.9205 1.79133 0
M  V30 10757 C 1043.71 1.87288 2.9176 0
M  V30 10758 C 1042.77 3.11137 2.95791 0
M  V30 10759 C 1042 3.22425 4.25297 0
M  V30 10760 O 1042.22 2.39688 5.17596 0
M  V30 10761 O 1041.16 4.15393 4.35583 0
M  V30 10762 H 1044.98 2.70339 1.38386 0
M  V30 10763 H 1042.57 1.35854 0.621609 0
M  V30 10764 H 1044.45 1.97085 3.72472 0
M  V30 10765 H 1043.12 0.955599 3.09273 0
M  V30 10766 H 1042.03 3.06819 2.1404 0
M  V30 10767 H 1043.36 4.02549 2.83223 0
M  V30 10768 N 1045.02 -0.694098 1.41492 0
M  V30 10769 C 1045.95 -1.82042 1.46229 0
M  V30 10770 C 1046.93 -1.67047 0.320803 0
M  V30 10771 O 1048.11 -1.86758 0.53245 0
M  V30 10772 C 1045.24 -3.2019 1.34519 0
M  V30 10773 C 1044.2 -3.49892 2.46495 0
M  V30 10774 C 1043.52 -4.87411 2.1985 0
M  V30 10775 C 1044.82 -3.4872 3.88834 0
M  V30 10776 H 1046.52 -1.78335 2.40493 0
M  V30 10777 H 1044.06 -0.856566 1.15754 0
M  V30 10778 H 1046.02 -3.98699 1.36445 0
M  V30 10779 H 1044.74 -3.24527 0.367406 0
M  V30 10780 H 1043.4 -2.73734 2.43854 0
M  V30 10781 H 1043.05 -4.88375 1.20411 0
M  V30 10782 H 1042.75 -5.08248 2.94885 0
M  V30 10783 H 1044.27 -5.68228 2.23494 0
M  V30 10784 H 1045.68 -4.1723 3.93182 0
M  V30 10785 H 1044.08 -3.81089 4.63564 0
M  V30 10786 H 1045.15 -2.47665 4.16881 0
M  V30 10787 N 1046.49 -1.27344 -0.928501 0
M  V30 10788 C 1047.74 -1.13804 -1.67859 0
M  V30 10789 C 1048.07 0.31555 -1.91619 0
M  V30 10790 O 1047.35 1.23087 -1.50599 0
M  V30 10791 C 1047.63 -1.9213 -3.04562 0
M  V30 10792 C 1047.48 -3.45468 -2.88048 0
M  V30 10793 C 1048.8 -1.72513 -4.04879 0
M  V30 10794 H 1045.92 -0.414796 -0.609191 0
M  V30 10795 H 1048.56 -1.5649 -1.07753 0
M  V30 10796 H 1046.71 -1.55853 -3.55868 0
M  V30 10797 H 1048.39 -3.9157 -2.43865 0
M  V30 10798 H 1046.63 -3.71849 -2.23407 0
M  V30 10799 H 1047.3 -3.95515 -3.85061 0
M  V30 10800 H 1049.78 -2.04143 -3.62581 0
M  V30 10801 H 1048.65 -2.29713 -4.98521 0
M  V30 10802 H 1048.91 -0.672856 -4.3695 0
M  V30 10803 N 1047.97 1.13488 -1.09353 0
M  V30 10804 C 1049.22 1.85022 -0.830354 0
M  V30 10805 C 1049.55 1.83266 0.64242 0
M  V30 10806 O 1048.83 1.27024 1.47293 0
M  V30 10807 C 1049.11 3.33218 -1.36521 0
M  V30 10808 C 1048.96 3.43491 -2.90404 0
M  V30 10809 C 1050.28 4.28626 -0.998381 0
M  V30 10810 H 1047.4 0.671786 -0.303105 0
M  V30 10811 H 1050.04 1.33211 -1.3548 0
M  V30 10812 H 1048.19 3.77471 -0.919117 0
M  V30 10813 H 1049.86 3.07954 -3.43456 0
M  V30 10814 H 1048.11 2.84391 -3.27573 0
M  V30 10815 H 1048.78 4.47702 -3.22905 0
M  V30 10816 H 1051.25 3.9244 -1.38311 0
M  V30 10817 H 1050.13 5.30754 -1.39968 0
M  V30 10818 H 1050.39 4.42001 0.093517 0
M  V30 10819 N 1049.45 0.880621 1.30701 0
M  V30 10820 C 1050.36 0.348034 2.32004 0
M  V30 10821 C 1051.38 -0.547508 1.65162 0
M  V30 10822 O 1052.55 -0.441673 1.96497 0
M  V30 10823 C 1049.62 -0.432585 3.43991 0
M  V30 10824 C 1048.68 0.492189 4.26469 0
M  V30 10825 C 1047.91 -0.25127 5.33108 0
M  V30 10826 O 1048.14 -1.47795 5.5092 0
M  V30 10827 O 1047.07 0.396376 6.00593 0
M  V30 10828 H 1050.9 1.18798 2.79501 0
M  V30 10829 H 1048.48 0.64432 1.34792 0
M  V30 10830 H 1050.36 -0.874733 4.12221 0
M  V30 10831 H 1049.04 -1.2489 2.98637 0
M  V30 10832 H 1047.94 0.983058 3.60953 0
M  V30 10833 H 1049.28 1.27439 4.75416 0
M  V30 10834 N 1050.93 -1.4397 0.641131 0
M  V30 10835 C 1051.84 -2.34526 -0.058742 0
M  V30 10836 C 1052.86 -1.53194 -0.825088 0
M  V30 10837 O 1054.03 -1.85888 -0.775081 0
M  V30 10838 C 1051.1 -3.31313 -1.02139 0
M  V30 10839 C 1050.16 -4.28552 -0.253319 0
M  V30 10840 C 1049.39 -5.20715 -1.17012 0
M  V30 10841 O 1049.61 -5.17028 -2.40911 0
M  V30 10842 O 1048.55 -5.9839 -0.649039 0
M  V30 10843 H 1052.37 -2.95843 0.686329 0
M  V30 10844 H 1049.96 -1.43909 0.401316 0
M  V30 10845 H 1051.84 -3.90862 -1.57496 0
M  V30 10846 H 1050.52 -2.72516 -1.7469 0
M  V30 10847 H 1049.42 -3.72519 0.343531 0
M  V30 10848 H 1050.76 -4.90297 0.432372 0
M  V30 10849 N 1052.41 -0.382291 -1.52893 0
M  V30 10850 C 1053.37 0.44408 -2.24857 0
M  V30 10851 C 1054.37 0.996004 -1.26239 0
M  V30 10852 O 1055.56 0.879114 -1.5039 0
M  V30 10853 C 1052.69 1.62234 -2.99822 0
M  V30 10854 H 1053.89 -0.185862 -2.99324 0
M  V30 10855 H 1051.44 -0.134275 -1.55722 0
M  V30 10856 H 1052.17 2.28991 -2.29638 0
M  V30 10857 H 1051.96 1.23336 -3.72197 0
M  V30 10858 H 1053.45 2.20756 -3.54481 0
M  V30 10859 N 1053.89 1.57202 -0.111913 0
M  V30 10860 C 1055.3 1.82039 0.414591 0
M  V30 10861 C 1055.65 1.02863 1.67074 0
M  V30 10862 O 1054.77 0.263068 2.14795 0
M  V30 10863 C 1055.37 3.3019 0.758953 0
M  V30 10864 C 1053.93 3.55732 1.23012 0
M  V30 10865 C 1053.07 2.76301 0.235226 0
M  V30 10866 H 1056.02 1.55078 -0.337142 0
M  V30 10867 H 1056.05 3.44431 1.61701 0
M  V30 10868 H 1055.56 3.87788 -0.155473 0
M  V30 10869 H 1053.66 3.03483 2.16169 0
M  V30 10870 H 1053.77 4.64333 1.18034 0
M  V30 10871 H 1052.14 2.44287 0.720822 0
M  V30 10872 H 1052.92 3.36655 -0.672173 0
M  V30 10873 N 1055.36 -0.161842 1.56767 0
M  V30 10874 C 1056.77 -0.723385 1.72116 0
M  V30 10875 C 1057.13 -1.82355 0.723961 0
M  V30 10876 O 1056.25 -2.16107 -0.112643 0
M  V30 10877 C 1056.85 -1.31895 3.12072 0
M  V30 10878 C 1055.4 -1.82722 3.29074 0
M  V30 10879 C 1054.55 -0.709863 2.6806 0
M  V30 10880 H 1057.5 0.0636647 1.58572 0
M  V30 10881 H 1057.52 -2.18871 3.11249 0
M  V30 10882 H 1057.04 -0.51801 3.84627 0
M  V30 10883 H 1055.14 -2.6543 2.61491 0
M  V30 10884 H 1055.25 -1.96614 4.36898 0
M  V30 10885 H 1053.61 -1.13273 2.28126 0
M  V30 10886 H 1054.4 0.0793884 3.43208 0
M  V30 10887 N 1056.84 -1.516 -0.430713 0
M  V30 10888 C 1058.25 -1.57 -1.01035 0
M  V30 10889 C 1058.6 -0.397439 -1.92132 0
M  V30 10890 O 1057.73 0.484954 -2.10896 0
M  V30 10891 C 1058.32 -2.84536 -1.83915 0
M  V30 10892 C 1056.88 -2.92485 -2.36917 0
M  V30 10893 C 1056.03 -2.5173 -1.16308 0
M  V30 10894 H 1058.98 -1.57281 -0.211734 0
M  V30 10895 H 1059 -2.68672 -2.69435 0
M  V30 10896 H 1058.51 -3.69858 -1.17586 0
M  V30 10897 H 1056.61 -2.11608 -3.0668 0
M  V30 10898 H 1056.73 -3.96277 -2.6926 0
M  V30 10899 H 1055.09 -2.05079 -1.51045 0
M  V30 10900 H 1055.87 -3.39403 -0.515793 0
M  V30 10901 N 1058.32 0.686584 -1.41858 0
M  V30 10902 C 1059.73 1.26682 -1.37145 0
M  V30 10903 C 1060.08 1.96112 -0.058922 0
M  V30 10904 O 1059.21 1.99321 0.842629 0
M  V30 10905 C 1059.8 2.30383 -2.48413 0
M  V30 10906 C 1058.36 2.83961 -2.47069 0
M  V30 10907 C 1057.51 1.58119 -2.27802 0
M  V30 10908 H 1060.46 0.480742 -1.51243 0
M  V30 10909 H 1060.48 3.11868 -2.17987 0
M  V30 10910 H 1059.99 1.79822 -3.43927 0
M  V30 10911 H 1058.09 3.38675 -1.55338 0
M  V30 10912 H 1058.21 3.3378 -3.43697 0
M  V30 10913 H 1056.57 1.84258 -1.75844 0
M  V30 10914 H 1057.35 1.09541 -3.25355 0
M  V30 10915 N 1059.8 1.27835 0.921735 0
M  V30 10916 C 1061.21 1.13151 1.48505 0
M  V30 10917 C 1061.56 -0.281373 1.94172 0
M  V30 10918 O 1060.68 -1.17487 1.8173 0
M  V30 10919 C 1061.28 2.04792 2.69899 0
M  V30 10920 C 1059.84 1.94196 3.22436 0
M  V30 10921 C 1058.99 1.96999 1.95158 0
M  V30 10922 H 1061.94 1.40641 0.735241 0
M  V30 10923 H 1061.96 1.60724 3.44889 0
M  V30 10924 H 1061.47 3.07615 2.36631 0
M  V30 10925 H 1059.57 0.943805 3.60448 0
M  V30 10926 H 1059.68 2.80744 3.88226 0
M  V30 10927 H 1058.05 1.41301 2.11911 0
M  V30 10928 H 1058.83 3.01487 1.64196 0
M  V30 10929 N 1061.28 -1.12907 1.09954 0
M  V30 10930 C 1062.24 -2.16673 0.747364 0
M  V30 10931 C 1063.24 -1.59208 -0.225741 0
M  V30 10932 O 1064.43 -1.742 -0.00322482 0
M  V30 10933 C 1061.56 -3.40735 0.106169 0
M  V30 10934 H 1062.75 -2.49341 1.6664 0
M  V30 10935 H 1060.31 -1.27828 0.899421 0
M  V30 10936 H 1061.04 -3.13661 -0.82384 0
M  V30 10937 H 1060.83 -3.83717 0.806434 0
M  V30 10938 H 1062.32 -4.17414 -0.12464 0
M  V30 10939 N 1062.75 -0.88754 -1.30232 0
M  V30 10940 C 1064 -0.508031 -1.96334 0
M  V30 10941 C 1064.33 0.940905 -1.69884 0
M  V30 10942 O 1063.61 1.66523 -1.005 0
M  V30 10943 C 1063.89 -0.786566 -3.51405 0
M  V30 10944 C 1063.74 -2.28632 -3.8736 0
M  V30 10945 C 1065.06 -0.264803 -4.39303 0
M  V30 10946 H 1062.18 -0.186051 -0.71313 0
M  V30 10947 H 1064.82 -1.112 -1.5406 0
M  V30 10948 H 1062.97 -0.272523 -3.87543 0
M  V30 10949 H 1064.65 -2.86896 -3.61231 0
M  V30 10950 H 1062.89 -2.75194 -3.35337 0
M  V30 10951 H 1063.56 -2.43181 -4.95547 0
M  V30 10952 H 1066.04 -0.704809 -4.10087 0
M  V30 10953 H 1064.91 -0.488998 -5.46717 0
M  V30 10954 H 1065.17 0.834055 -4.34161 0
M  V30 10955 N 1064.23 1.43628 -0.648757 0
M  V30 10956 C 1065.64 1.85142 -0.24066 0
M  V30 10957 C 1065.99 1.54304 1.21181 0
M  V30 10958 O 1065.12 0.989792 1.92437 0
M  V30 10959 C 1065.71 3.3606 -0.429999 0
M  V30 10960 C 1064.27 3.76323 -0.0762588 0
M  V30 10961 C 1063.42 2.67382 -0.734999 0
M  V30 10962 H 1066.37 1.33844 -0.852734 0
M  V30 10963 H 1066.39 3.79102 0.325836 0
M  V30 10964 H 1065.9 3.58474 -1.48721 0
M  V30 10965 H 1064.01 3.59521 0.978529 0
M  V30 10966 H 1064.12 4.76498 -0.498612 0
M  V30 10967 H 1062.48 2.54141 -0.168644 0
M  V30 10968 H 1063.27 2.92625 -1.79515 0
M  V30 10969 N 1065.71 0.390394 1.52688 0
M  V30 10970 C 1066.94 -0.194013 2.06491 0
M  V30 10971 C 1067.36 -1.3965 1.26014 0
M  V30 10972 O 1066.72 -1.79038 0.285468 0
M  V30 10973 C 1066.77 -0.541306 3.56514 0
M  V30 10974 O 1065.87 -1.63509 3.78601 0
M  V30 10975 H 1065.21 -0.0223608 0.663623 0
M  V30 10976 H 1067.74 0.558179 1.96839 0
M  V30 10977 H 1067.75 -0.805301 3.99974 0
M  V30 10978 H 1066.43 0.337828 4.14526 0
M  V30 10979 H 1065 -1.36473 3.4703 0
M  V30 10980 N 1067.19 -1.57141 0.120249 0
M  V30 10981 C 1068.6 -1.82256 -0.404931 0
M  V30 10982 C 1068.95 -1.03748 -1.66526 0
M  V30 10983 O 1068.08 -0.274456 -2.14653 0
M  V30 10984 C 1068.67 -3.30588 -0.741431 0
M  V30 10985 C 1067.23 -3.56379 -1.21124 0
M  V30 10986 C 1066.38 -2.76421 -0.220569 0
M  V30 10987 H 1069.33 -1.54897 0.345361 0
M  V30 10988 H 1069.35 -3.45284 -1.59872 0
M  V30 10989 H 1068.86 -3.87701 0.176036 0
M  V30 10990 H 1066.96 -3.04625 -2.14556 0
M  V30 10991 H 1067.07 -4.64952 -1.1557 0
M  V30 10992 H 1065.44 -2.44666 -0.707857 0
M  V30 10993 H 1066.22 -3.36294 0.690018 0
M  V30 10994 N 1068.67 0.153526 -1.5685 0
M  V30 10995 C 1069.58 1.20932 -2.01029 0
M  V30 10996 C 1070.59 1.47401 -0.924598 0
M  V30 10997 O 1071.77 1.592 -1.23359 0
M  V30 10998 C 1068.83 2.52438 -2.37647 0
M  V30 10999 C 1067.89 2.33673 -3.60132 0
M  V30 11000 C 1067.13 3.58909 -3.94994 0
M  V30 11001 O 1067.35 4.64823 -3.30599 0
M  V30 11002 O 1066.28 3.5196 -4.8827 0
M  V30 11003 H 1070.11 0.864273 -2.91143 0
M  V30 11004 H 1067.7 0.361755 -1.44954 0
M  V30 11005 H 1069.58 3.29981 -2.62088 0
M  V30 11006 H 1068.25 2.86486 -1.5069 0
M  V30 11007 H 1067.16 1.54102 -3.40886 0
M  V30 11008 H 1068.49 2.04544 -4.47686 0
M  V30 11009 N 1070.14 1.51827 0.422667 0
M  V30 11010 C 1071.05 1.77066 1.53899 0
M  V30 11011 C 1072.07 0.655541 1.61179 0
M  V30 11012 O 1073.25 0.939448 1.78147 0
M  V30 11013 C 1070.31 1.90372 2.89758 0
M  V30 11014 C 1069.37 3.14256 2.92475 0
M  V30 11015 C 1068.61 3.26918 4.21853 0
M  V30 11016 O 1068.83 2.45164 5.15025 0
M  V30 11017 O 1067.76 4.19989 4.31153 0
M  V30 11018 H 1071.59 2.71791 1.35511 0
M  V30 11019 H 1069.17 1.36506 0.607165 0
M  V30 11020 H 1071.06 2.01024 3.70361 0
M  V30 11021 H 1069.73 0.988347 3.08242 0
M  V30 11022 H 1068.64 3.09072 2.10773 0
M  V30 11023 H 1069.97 4.0553 2.78937 0
M  V30 11024 N 1071.62 -0.679052 1.4222 0
M  V30 11025 C 1072.55 -1.80481 1.48152 0
M  V30 11026 C 1073.53 -1.66698 0.338502 0
M  V30 11027 O 1074.72 -1.86183 0.552228 0
M  V30 11028 C 1071.85 -3.18746 1.37908 0
M  V30 11029 C 1070.8 -3.47258 2.50192 0
M  V30 11030 C 1070.13 -4.85052 2.25008 0
M  V30 11031 C 1071.43 -3.44576 3.92511 0
M  V30 11032 H 1073.12 -1.75774 2.42371 0
M  V30 11033 H 1070.67 -0.844241 1.16656 0
M  V30 11034 H 1072.62 -3.97229 1.40666 0
M  V30 11035 H 1071.35 -3.24119 0.401806 0
M  V30 11036 H 1070 -2.71133 2.46744 0
M  V30 11037 H 1069.65 -4.8707 1.25584 0
M  V30 11038 H 1069.35 -5.05092 3.00259 0
M  V30 11039 H 1070.88 -5.65825 2.29508 0
M  V30 11040 H 1072.29 -4.13036 3.97585 0
M  V30 11041 H 1070.69 -3.76151 4.67579 0
M  V30 11042 H 1071.76 -2.4323 4.19484 0
M  V30 11043 N 1073.1 -1.28322 -0.914942 0
M  V30 11044 C 1074.33 -1.18254 -1.69775 0
M  V30 11045 C 1074.74 0.258978 -1.87015 0
M  V30 11046 O 1074.1 1.17514 -1.3963 0
M  V30 11047 C 1074.15 -1.8753 -3.09054 0
M  V30 11048 O 1073.87 -3.26051 -2.92613 0
M  V30 11049 C 1075.37 -1.83749 -4.03424 0
M  V30 11050 H 1072.59 -0.41055 -0.530744 0
M  V30 11051 H 1075.14 -1.69425 -1.14523 0
M  V30 11052 H 1073.29 -1.40233 -3.61128 0
M  V30 11053 H 1073.71 -3.60729 -3.80756 0
M  V30 11054 H 1075.18 -2.36813 -4.98622 0
M  V30 11055 H 1075.66 -0.809601 -4.31674 0
M  V30 11056 H 1076.26 -2.3072 -3.57279 0
M  V30 11057 N 1074.58 1.12322 -1.10551 0
M  V30 11058 C 1075.81 1.87407 -0.869607 0
M  V30 11059 C 1076.22 1.79976 0.58356 0
M  V30 11060 O 1075.56 1.1725 1.41415 0
M  V30 11061 C 1075.62 3.37401 -1.24099 0
M  V30 11062 C 1075.29 3.68607 -2.70144 0
M  V30 11063 C 1076.28 3.66869 -3.68379 0
M  V30 11064 C 1073.97 3.97903 -3.06559 0
M  V30 11065 C 1075.96 3.93987 -5.01052 0
M  V30 11066 C 1073.65 4.24681 -4.39419 0
M  V30 11067 C 1074.65 4.2271 -5.36475 0
M  V30 11068 O 1074.33 4.48823 -6.66943 0
M  V30 11069 H 1074.07 0.59978 -0.311834 0
M  V30 11070 H 1076.62 1.43037 -1.4741 0
M  V30 11071 H 1074.85 3.82332 -0.579606 0
M  V30 11072 H 1076.54 3.93833 -0.982378 0
M  V30 11073 H 1077.31 3.44297 -3.41591 0
M  V30 11074 H 1073.18 3.98578 -2.31638 0
M  V30 11075 H 1076.73 3.92364 -5.76798 0
M  V30 11076 H 1072.63 4.46727 -4.65945 0
M  V30 11077 H 1073.39 4.66436 -6.72592 0
M  V30 11078 N 1076.06 0.894434 1.2976 0
M  V30 11079 C 1076.99 0.3847 2.30309 0
M  V30 11080 C 1077.97 -0.537486 1.61385 0
M  V30 11081 O 1079.15 -0.449332 1.8893 0
M  V30 11082 C 1076.28 -0.393311 3.45066 0
M  V30 11083 C 1075.24 0.437968 4.25753 0
M  V30 11084 C 1074.56 -0.467221 5.32655 0
M  V30 11085 C 1075.86 1.6851 4.9437 0
M  V30 11086 H 1077.56 1.22496 2.73194 0
M  V30 11087 H 1075.1 0.590471 1.31337 0
M  V30 11088 H 1077.06 -0.760614 4.14479 0
M  V30 11089 H 1075.78 -1.2673 3.0101 0
M  V30 11090 H 1074.44 0.787533 3.58041 0
M  V30 11091 H 1074.09 -1.33919 4.84845 0
M  V30 11092 H 1073.79 0.0852482 5.87538 0
M  V30 11093 H 1075.31 -0.830833 6.04921 0
M  V30 11094 H 1076.72 1.38784 5.56248 0
M  V30 11095 H 1075.12 2.17849 5.59162 0
M  V30 11096 H 1076.19 2.42412 4.19958 0
M  V30 11097 N 1077.53 -1.43282 0.656365 0
M  V30 11098 C 1078.78 -2.00996 0.168354 0
M  V30 11099 C 1079.1 -1.52408 -1.22601 0
M  V30 11100 O 1080.3 -2.02417 -1.80941 0
M  V30 11101 C 1078.76 -3.5903 0.250161 0
M  V30 11102 C 1078.37 -4.1661 1.64742 0
M  V30 11103 C 1080.11 -4.24118 -0.180084 0
M  V30 11104 C 1078.02 -5.66948 1.68299 0
M  V30 11105 H 1076.95 -0.751674 0.0591769 0
M  V30 11106 H 1079.6 -1.64216 0.818859 0
M  V30 11107 H 1077.98 -3.93226 -0.467908 0
M  V30 11108 H 1079.15 -3.93908 2.3911 0
M  V30 11109 H 1077.47 -3.63905 2.02391 0
M  V30 11110 H 1080.07 -5.34419 -0.173401 0
M  V30 11111 H 1080.41 -3.98264 -1.21208 0
M  V30 11112 H 1080.94 -3.94816 0.486343 0
M  V30 11113 H 1077.68 -5.97573 2.69419 0
M  V30 11114 H 1077.2 -5.91697 0.98261 0
M  V30 11115 H 1078.88 -6.31041 1.42813 0
M  V30 11116 N 1079.01 -0.398486 -1.52479 0
M  V30 11117 C 1079.92 0.439328 -2.3045 0
M  V30 11118 C 1080.94 1.06322 -1.37738 0
M  V30 11119 O 1082.12 1.06704 -1.7081 0
M  V30 11120 C 1079.18 1.54655 -3.10294 0
M  V30 11121 C 1078.24 0.946824 -4.18729 0
M  V30 11122 C 1077.47 2.00129 -4.94757 0
M  V30 11123 O 1077.7 3.2178 -4.70971 0
M  V30 11124 O 1076.63 1.61345 -5.79872 0
M  V30 11125 H 1080.46 -0.196118 -3.03066 0
M  V30 11126 H 1078.04 -0.161961 -1.4852 0
M  V30 11127 H 1079.92 2.18958 -3.60049 0
M  V30 11128 H 1078.6 2.1668 -2.40482 0
M  V30 11129 H 1077.51 0.266802 -3.73147 0
M  V30 11130 H 1078.84 0.370664 -4.90802 0
M  V30 11131 N 1080.49 1.57075 -0.12858 0
M  V30 11132 C 1081.45 2.14643 0.803813 0
M  V30 11133 C 1082.45 1.08363 1.18803 0
M  V30 11134 O 1083.64 1.34093 1.11197 0
M  V30 11135 C 1080.78 2.6945 2.08829 0
M  V30 11136 H 1081.97 2.98362 0.303347 0
M  V30 11137 H 1079.52 1.55833 0.120735 0
M  V30 11138 H 1080.26 1.89345 2.63285 0
M  V30 11139 H 1080.04 3.47187 1.82218 0
M  V30 11140 H 1081.53 3.13865 2.7546 0
M  V30 11141 N 1081.97 -0.145205 1.5693 0
M  V30 11142 C 1082.9 -1.18096 2.01434 0
M  V30 11143 C 1083.88 -1.447 0.894204 0
M  V30 11144 O 1085.07 -1.55589 1.16214 0
M  V30 11145 C 1082.2 -2.51369 2.39647 0
M  V30 11146 C 1081.15 -2.39283 3.54863 0
M  V30 11147 C 1080.48 -3.77283 3.78895 0
M  V30 11148 C 1081.78 -1.8754 4.87469 0
M  V30 11149 H 1083.47 -0.810897 2.8821 0
M  V30 11150 H 1081.02 -0.388624 1.38657 0
M  V30 11151 H 1082.97 -3.24054 2.69382 0
M  V30 11152 H 1081.69 -2.90214 1.49811 0
M  V30 11153 H 1080.35 -1.6905 3.25296 0
M  V30 11154 H 1080 -4.13567 2.86307 0
M  V30 11155 H 1079.7 -3.70057 4.56433 0
M  V30 11156 H 1081.22 -4.51514 4.11057 0
M  V30 11157 H 1082.64 -2.50019 5.1591 0
M  V30 11158 H 1081.03 -1.912 5.68826 0
M  V30 11159 H 1082.1 -0.831194 4.77723 0
M  V30 11160 N 1083.45 -1.52049 -0.414609 0
M  V30 11161 C 1084.69 -1.65838 -1.16206 0
M  V30 11162 C 1085.02 -0.385623 -1.90639 0
M  V30 11163 O 1084.28 0.631214 -1.85241 0
M  V30 11164 C 1084.58 -2.82735 -2.18622 0
M  V30 11165 C 1084.24 -4.21163 -1.61037 0
M  V30 11166 C 1082.9 -4.58816 -1.45056 0
M  V30 11167 C 1085.26 -5.0745 -1.18928 0
M  V30 11168 C 1082.58 -5.8044 -0.854761 0
M  V30 11169 C 1084.94 -6.29674 -0.607686 0
M  V30 11170 C 1083.6 -6.66081 -0.434968 0
M  V30 11171 H 1082.87 -0.606845 -0.425229 0
M  V30 11172 H 1085.52 -1.86137 -0.450009 0
M  V30 11173 H 1083.82 -2.56749 -2.95952 0
M  V30 11174 H 1085.52 -2.90601 -2.76319 0
M  V30 11175 H 1082.11 -3.91488 -1.74457 0
M  V30 11176 H 1086.29 -4.78948 -1.30086 0
M  V30 11177 H 1081.55 -6.07276 -0.70891 0
M  V30 11178 H 1085.72 -6.95865 -0.272988 0
M  V30 11179 H 1083.35 -7.60195 0.0288116 0
M  V30 11180 N 1084.93 0.6715 -1.42579 0
M  V30 11181 C 1085.87 1.78496 -1.46314 0
M  V30 11182 C 1086.84 1.63091 -0.314743 0
M  V30 11183 O 1088.03 1.83597 -0.519292 0
M  V30 11184 C 1085.17 3.16548 -1.37447 0
M  V30 11185 C 1084.28 3.43216 -2.62348 0
M  V30 11186 C 1083.42 4.71014 -2.456 0
M  V30 11187 C 1082.45 4.90728 -3.65859 0
M  V30 11188 N 1081.59 6.09769 -3.48032 0
M  V30 11189 H 1086.43 1.74638 -2.41466 0
M  V30 11190 H 1083.97 0.852491 -1.19879 0
M  V30 11191 H 1085.93 3.96329 -1.30303 0
M  V30 11192 H 1084.56 3.19522 -0.458891 0
M  V30 11193 H 1083.61 2.57664 -2.79846 0
M  V30 11194 H 1084.92 3.53675 -3.51732 0
M  V30 11195 H 1084.07 5.58892 -2.3606 0
M  V30 11196 H 1082.81 4.62843 -1.53712 0
M  V30 11197 H 1081.82 4.01291 -3.75827 0
M  V30 11198 H 1083.04 5.00741 -4.58732 0
M  V30 11199 H 1080.99 6.02765 -2.58864 0
M  V30 11200 H 1080.91 6.21104 -4.31005 0
M  V30 11201 H 1082.17 7.00317 -3.42311 0
M  V30 11202 N 1086.4 1.28806 0.908124 0
M  V30 11203 C 1087.63 1.19153 1.69146 0
M  V30 11204 C 1088.05 -0.249056 1.8715 0
M  V30 11205 O 1087.4 -1.16772 1.40251 0
M  V30 11206 C 1087.45 1.89167 3.08055 0
M  V30 11207 O 1087.18 3.27599 2.90879 0
M  V30 11208 C 1088.68 1.85886 4.02444 0
M  V30 11209 H 1085.9 0.413359 0.528559 0
M  V30 11210 H 1088.44 1.7003 1.13622 0
M  V30 11211 H 1086.6 1.42146 3.60379 0
M  V30 11212 H 1087.01 3.62743 3.78837 0
M  V30 11213 H 1088.48 2.39454 4.97359 0
M  V30 11214 H 1088.96 0.832483 4.31238 0
M  V30 11215 H 1089.57 2.32612 3.5605 0
M  V30 11216 N 1087.88 -1.11734 1.11145 0
M  V30 11217 C 1088.79 -2.21267 0.779607 0
M  V30 11218 C 1089.81 -1.72526 -0.225986 0
M  V30 11219 O 1090.98 -2.01302 -0.0629166 0
M  V30 11220 C 1088.05 -3.45973 0.22435 0
M  V30 11221 C 1087.11 -4.09518 1.28816 0
M  V30 11222 C 1086.34 -5.28271 0.7593 0
M  V30 11223 O 1086.57 -5.68912 -0.411725 0
M  V30 11224 O 1085.5 -5.82322 1.52266 0
M  V30 11225 H 1089.33 -2.5206 1.6941 0
M  V30 11226 H 1086.91 -1.20211 0.887115 0
M  V30 11227 H 1088.79 -4.21322 -0.0810921 0
M  V30 11228 H 1087.47 -3.1684 -0.662891 0
M  V30 11229 H 1086.37 -3.35915 1.64657 0
M  V30 11230 H 1087.71 -4.42824 2.14868 0
M  V30 11231 N 1089.36 -0.901303 -1.29284 0
M  V30 11232 C 1090.61 -0.528826 -1.95784 0
M  V30 11233 C 1090.94 0.922833 -1.70873 0
M  V30 11234 O 1090.21 1.65448 -1.0226 0
M  V30 11235 C 1090.5 -0.823793 -3.50551 0
M  V30 11236 C 1090.35 -2.32727 -3.84913 0
M  V30 11237 C 1091.67 -0.311382 -4.38997 0
M  V30 11238 H 1088.79 -0.193604 -0.711116 0
M  V30 11239 H 1091.43 -1.12828 -1.52872 0
M  V30 11240 H 1089.58 -0.313612 -3.87232 0
M  V30 11241 H 1091.25 -2.90712 -3.58168 0
M  V30 11242 H 1089.49 -2.78735 -3.32399 0
M  V30 11243 H 1090.17 -2.48423 -4.9294 0
M  V30 11244 H 1092.64 -0.748265 -4.09317 0
M  V30 11245 H 1091.52 -0.546957 -5.46168 0
M  V30 11246 H 1091.78 0.787959 -4.35021 0
M  V30 11247 N 1090.84 1.42931 -0.663954 0
M  V30 11248 C 1091.77 2.33499 0.00731327 0
M  V30 11249 C 1092.75 1.50074 0.800733 0
M  V30 11250 O 1093.93 1.78708 0.760062 0
M  V30 11251 C 1091.06 3.33569 0.966897 0
M  V30 11252 C 1090.02 4.27064 0.282839 0
M  V30 11253 C 1089.34 5.17257 1.35461 0
M  V30 11254 C 1090.64 5.1564 -0.831438 0
M  V30 11255 H 1092.34 2.89879 -0.749044 0
M  V30 11256 H 1089.88 1.39385 -0.361656 0
M  V30 11257 H 1091.84 3.95833 1.44549 0
M  V30 11258 H 1090.56 2.75469 1.75455 0
M  V30 11259 H 1089.22 3.6618 -0.175417 0
M  V30 11260 H 1088.87 4.5549 2.13397 0
M  V30 11261 H 1088.57 5.80634 0.902098 0
M  V30 11262 H 1090.09 5.82395 1.83436 0
M  V30 11263 H 1091.51 5.71651 -0.434534 0
M  V30 11264 H 1089.9 5.87794 -1.20908 0
M  V30 11265 H 1090.97 4.54687 -1.68487 0
M  V30 11266 N 1092.32 0.406567 1.52266 0
M  V30 11267 C 1093.73 -0.063607 1.86592 0
M  V30 11268 C 1094.08 -1.4466 1.32544 0
M  V30 11269 O 1093.2 -2.05971 0.663692 0
M  V30 11270 C 1093.8 -0.122198 3.3858 0
M  V30 11271 C 1092.36 -0.536701 3.72554 0
M  V30 11272 C 1091.5 0.290422 2.75775 0
M  V30 11273 H 1094.45 0.623738 1.45929 0
M  V30 11274 H 1094.48 -0.937964 3.68758 0
M  V30 11275 H 1093.99 0.884495 3.77887 0
M  V30 11276 H 1092.09 -1.55013 3.38824 0
M  V30 11277 H 1092.2 -0.282867 4.78264 0
M  V30 11278 H 1090.57 -0.246864 2.53501 0
M  V30 11279 H 1091.35 1.29541 3.17921 0
M  V30 11280 N 1093.79 -1.57004 0.136909 0
M  V30 11281 C 1095.04 -1.9541 -0.51569 0
M  V30 11282 C 1095.36 -1.02219 -1.66061 0
M  V30 11283 O 1094.63 -0.0818172 -1.95729 0
M  V30 11284 H 1093.21 -0.721504 -0.193497 0
M  V30 11285 H 1095.88 -1.93765 0.210046 0
M  V30 11286 H 1094.97 -2.98887 -0.898494 0
M  V30 11287 N 1095.27 0.136881 -1.57004 0
M  V30 11288 C 1096.2 1.19402 -1.95642 0
M  V30 11289 C 1097.22 1.38635 -0.853478 0
M  V30 11290 O 1098.41 1.38027 -1.13185 0
M  V30 11291 C 1095.51 2.55716 -2.22402 0
M  V30 11292 C 1094.68 2.57325 -3.53698 0
M  V30 11293 C 1093.74 3.75253 -3.68879 0
M  V30 11294 O 1092.76 3.5966 -4.41173 0
M  V30 11295 N 1093.97 4.93112 -3.06302 0
M  V30 11296 H 1096.73 0.865504 -2.8693 0
M  V30 11297 H 1094.29 0.326346 -1.58577 0
M  V30 11298 H 1096.28 3.33135 -2.29789 0
M  V30 11299 H 1094.85 2.80819 -1.37329 0
M  V30 11300 H 1094.07 1.65749 -3.5766 0
M  V30 11301 H 1095.36 2.55441 -4.40031 0
M  V30 11302 H 1094.76 5.08684 -2.47502 0
M  V30 11303 H 1093.32 5.68271 -3.19236 0
M  V30 11304 N 1096.75 1.52266 0.40654 0
M  V30 11305 C 1097.68 1.78755 1.50229 0
M  V30 11306 C 1098.66 0.638652 1.57655 0
M  V30 11307 O 1099.85 0.884505 1.72888 0
M  V30 11308 C 1096.98 1.94057 2.88026 0
M  V30 11309 C 1095.93 3.09667 2.95449 0
M  V30 11310 C 1095.26 3.10196 4.35526 0
M  V30 11311 C 1096.56 4.49077 2.66697 0
M  V30 11312 H 1098.25 2.70511 1.28313 0
M  V30 11313 H 1095.8 1.30167 0.615836 0
M  V30 11314 H 1097.75 2.11171 3.64671 0
M  V30 11315 H 1096.47 0.989755 3.11242 0
M  V30 11316 H 1095.13 2.92308 2.2125 0
M  V30 11317 H 1094.78 2.12831 4.55754 0
M  V30 11318 H 1094.48 3.87847 4.41416 0
M  V30 11319 H 1096 3.29443 5.14101 0
M  V30 11320 H 1097.42 4.66628 3.33064 0
M  V30 11321 H 1095.82 5.28665 2.8396 0
M  V30 11322 H 1096.89 4.56995 1.62122 0
M  V30 11323 N 1098.23 -0.663929 1.42933 0
M  V30 11324 C 1099.48 -1.42111 1.43697 0
M  V30 11325 C 1099.8 -1.94913 0.0583858 0
M  V30 11326 O 1099.07 -1.73757 -0.904719 0
M  V30 11327 H 1097.65 -0.527391 0.529026 0
M  V30 11328 H 1100.31 -0.783766 1.78446 0
M  V30 11329 H 1099.41 -2.26877 2.1432 0
M  V30 11330 N 1099.71 -1.29285 -0.901281 0
M  V30 11331 C 1100.94 -1.19874 -1.68267 0
M  V30 11332 C 1101.34 0.243387 -1.87628 0
M  V30 11333 O 1100.69 1.17497 -1.41209 0
M  V30 11334 C 1100.75 -1.83907 -3.08899 0
M  V30 11335 C 1100.41 -3.33198 -3.12775 0
M  V30 11336 C 1101.41 -4.29446 -2.9304 0
M  V30 11337 C 1099.1 -3.7437 -3.34892 0
M  V30 11338 C 1101.09 -5.64842 -2.95352 0
M  V30 11339 C 1098.78 -5.09888 -3.36834 0
M  V30 11340 C 1099.77 -6.04934 -3.17087 0
M  V30 11341 O 1099.46 -7.37979 -3.18815 0
M  V30 11342 H 1099.19 -0.416601 -0.532372 0
M  V30 11343 H 1101.75 -1.71154 -1.13558 0
M  V30 11344 H 1099.98 -1.27136 -3.65203 0
M  V30 11345 H 1101.67 -1.6884 -3.69118 0
M  V30 11346 H 1102.43 -3.9897 -2.75767 0
M  V30 11347 H 1098.31 -3.00846 -3.49303 0
M  V30 11348 H 1101.86 -6.39004 -2.79856 0
M  V30 11349 H 1097.75 -5.40009 -3.53638 0
M  V30 11350 H 1098.52 -7.46763 -3.35092 0
M  V30 11351 N 1101.18 1.11143 -1.11736 0
M  V30 11352 C 1102.11 2.19339 -0.800795 0
M  V30 11353 C 1103.1 1.68508 0.23221 0
M  V30 11354 O 1104.28 1.93967 0.0950063 0
M  V30 11355 C 1101.41 3.46424 -0.246579 0
M  V30 11356 C 1100.36 4.10487 -1.21181 0
M  V30 11357 C 1099.69 5.32183 -0.518158 0
M  V30 11358 C 1100.99 4.55052 -2.56368 0
M  V30 11359 H 1102.68 2.46077 -1.70548 0
M  V30 11360 H 1100.23 1.18271 -0.821454 0
M  V30 11361 H 1102.18 4.21398 -0.0128889 0
M  V30 11362 H 1100.91 3.19154 0.693415 0
M  V30 11363 H 1099.57 3.3751 -1.43118 0
M  V30 11364 H 1099.21 5.01187 0.426742 0
M  V30 11365 H 1098.91 5.75997 -1.16196 0
M  V30 11366 H 1100.44 6.09895 -0.293333 0
M  V30 11367 H 1101.85 5.21335 -2.38501 0
M  V30 11368 H 1100.25 5.0969 -3.16758 0
M  V30 11369 H 1101.32 3.68343 -3.1536 0
M  V30 11370 N 1102.66 0.908147 1.28804 0
M  V30 11371 C 1104.08 0.605474 1.47669 0
M  V30 11372 C 1104.28 -0.850759 1.82659 0
M  V30 11373 O 1103.33 -1.63029 1.92816 0
M  V30 11374 C 1104.65 1.53856 2.58358 0
M  V30 11375 C 1106.2 1.54467 2.7223 0
M  V30 11376 C 1106.67 2.46424 3.86056 0
M  V30 11377 N 1108.16 2.44519 3.93402 0
M  V30 11378 C 1108.9 3.12371 4.80845 0
M  V30 11379 N 1108.39 3.89533 5.72919 0
M  V30 11380 N 1110.19 3.01486 4.74407 0
M  V30 11381 H 1102.34 1.84988 1.04371 0
M  V30 11382 H 1104.6 0.793132 0.519274 0
M  V30 11383 H 1104.31 2.57651 2.39393 0
M  V30 11384 H 1104.18 1.26543 3.5534 0
M  V30 11385 H 1106.57 0.514127 2.90587 0
M  V30 11386 H 1106.65 1.85821 1.75796 0
M  V30 11387 H 1106.29 3.49577 3.68454 0
M  V30 11388 H 1106.22 2.12375 4.81876 0
M  V30 11389 H 1108.71 1.88464 3.27551 0
M  V30 11390 H 1109.03 4.3834 6.36457 0
M  V30 11391 H 1107.37 3.93639 5.72777 0
M  V30 11392 H 1110.56 2.40713 4.01466 0
M  V30 11393 H 1110.73 3.5464 5.42342 0
M  V30 11394 N 1104.14 -1.42577 0.671525 0
M  V30 11395 C 1105.39 -2.01584 0.192431 0
M  V30 11396 C 1105.72 -1.53076 -1.19992 0
M  V30 11397 O 1104.97 -0.722196 -1.81887 0
M  V30 11398 C 1105.27 -3.56985 0.172097 0
M  V30 11399 C 1104.94 -4.24912 1.50867 0
M  V30 11400 C 1103.6 -4.43182 1.87464 0
M  V30 11401 C 1105.95 -4.6322 2.38908 0
M  V30 11402 C 1103.28 -4.97031 3.11732 0
M  V30 11403 C 1105.63 -5.18447 3.62485 0
M  V30 11404 C 1104.29 -5.34932 3.99255 0
M  V30 11405 H 1103.56 -0.737647 0.0704155 0
M  V30 11406 H 1106.21 -1.70807 0.865862 0
M  V30 11407 H 1104.52 -3.87411 -0.584835 0
M  V30 11408 H 1106.21 -4.00419 -0.215749 0
M  V30 11409 H 1102.8 -4.11048 1.21397 0
M  V30 11410 H 1106.99 -4.4878 2.1192 0
M  V30 11411 H 1102.24 -5.07979 3.40246 0
M  V30 11412 H 1106.42 -5.47075 4.30909 0
M  V30 11413 H 1104.04 -5.76422 4.95623 0
M  V30 11414 N 1105.62 -0.414636 -1.52048 0
M  V30 11415 C 1106.9 0.218172 -1.94379 0
M  V30 11416 C 1107.28 1.62133 -1.35189 0
M  V30 11417 O 1106.62 2.22271 -0.529877 0
M  V30 11418 C 1106.83 0.218932 -3.48313 0
M  V30 11419 C 1108.18 0.435604 -4.2236 0
M  V30 11420 O 1109.21 0.298049 -3.54951 0
M  V30 11421 O 1108.06 0.707217 -5.41905 0
M  V30 11422 H 1105.16 0.142173 -0.814688 0
M  V30 11423 H 1107.7 -0.470977 -1.63033 0
M  V30 11424 H 1106.48 -0.76292 -3.83791 0
M  V30 11425 H 1106.1 0.951949 -3.86036 0
M  V30 11426 N 1107.1 1.56929 -0.145233 0
M  V30 11427 C 1108.06 2.15483 0.781002 0
M  V30 11428 C 1109.06 1.09617 1.17647 0
M  V30 11429 O 1110.25 1.35265 1.09768 0
M  V30 11430 C 1107.38 2.7165 2.05959 0
M  V30 11431 H 1108.57 2.98667 0.271685 0
M  V30 11432 H 1106.13 1.55952 0.1042 0
M  V30 11433 H 1106.86 1.92127 2.61262 0
M  V30 11434 H 1106.65 3.491 1.78526 0
M  V30 11435 H 1108.14 3.16769 2.72116 0
M  V30 11436 N 1108.58 -0.128553 1.57075 0
M  V30 11437 C 1109.51 -1.18822 1.94825 0
M  V30 11438 C 1110.49 -1.40609 0.816571 0
M  V30 11439 O 1111.67 -1.5492 1.07388 0
M  V30 11440 C 1108.8 -2.54383 2.23623 0
M  V30 11441 C 1107.84 -2.4908 3.4621 0
M  V30 11442 S 1108.68 -1.93974 4.99133 0
M  V30 11443 C 1109.83 -3.31228 5.31074 0
M  V30 11444 H 1110.07 -0.866246 2.844 0
M  V30 11445 H 1107.6 -0.334927 1.50724 0
M  V30 11446 H 1109.56 -3.32386 2.40893 0
M  V30 11447 H 1108.22 -2.83761 1.34678 0
M  V30 11448 H 1107.41 -3.48915 3.63695 0
M  V30 11449 H 1107.01 -1.79193 3.28277 0
M  V30 11450 H 1109.3 -4.27407 5.25671 0
M  V30 11451 H 1110.25 -3.18578 6.32387 0
M  V30 11452 H 1110.66 -3.29215 4.5856 0
M  V30 11453 N 1110.05 -1.5248 -0.398459 0
M  V30 11454 C 1111.02 -1.75949 -1.46883 0
M  V30 11455 C 1112.02 -0.629431 -1.47969 0
M  V30 11456 O 1113.21 -0.897407 -1.49306 0
M  V30 11457 C 1110.34 -1.85162 -2.8623 0
M  V30 11458 H 1111.53 -2.71513 -1.2736 0
M  V30 11459 H 1109.08 -1.43058 -0.629619 0
M  V30 11460 H 1109.82 -0.915505 -3.11109 0
M  V30 11461 H 1109.6 -2.67326 -2.86844 0
M  V30 11462 H 1111.09 -2.05025 -3.63805 0
M  V30 11463 N 1111.53 0.65634 -1.43283 0
M  V30 11464 C 1112.44 1.79847 -1.50639 0
M  V30 11465 C 1113.46 1.69487 -0.393714 0
M  V30 11466 O 1114.63 1.90712 -0.647379 0
M  V30 11467 C 1111.7 3.16107 -1.42398 0
M  V30 11468 C 1110.76 3.38287 -2.64312 0
M  V30 11469 C 1109.99 4.68046 -2.56454 0
M  V30 11470 O 1110.22 5.4719 -1.61056 0
M  V30 11471 O 1109.15 4.91877 -3.46902 0
M  V30 11472 H 1112.98 1.76596 -2.47078 0
M  V30 11473 H 1110.56 0.814428 -1.25249 0
M  V30 11474 H 1112.44 3.97382 -1.40233 0
M  V30 11475 H 1111.12 3.19956 -0.490929 0
M  V30 11476 H 1110.02 2.56788 -2.72049 0
M  V30 11477 H 1111.36 3.39282 -3.56579 0
M  V30 11478 N 1113.01 1.29761 0.894412 0
M  V30 11479 C 1113.94 1.17902 2.01547 0
M  V30 11480 C 1114.92 0.0719402 1.69948 0
M  V30 11481 O 1116.11 0.252338 1.92554 0
M  V30 11482 C 1113.24 0.860262 3.36477 0
M  V30 11483 C 1112.19 1.92424 3.82305 0
M  V30 11484 C 1111.52 1.45868 5.14419 0
M  V30 11485 C 1112.82 3.33391 4.02054 0
M  V30 11486 H 1114.51 2.11688 2.11727 0
M  V30 11487 H 1112.06 1.01916 1.01731 0
M  V30 11488 H 1114.01 0.763987 4.14417 0
M  V30 11489 H 1112.73 -0.113289 3.26403 0
M  V30 11490 H 1111.39 2.00999 3.06586 0
M  V30 11491 H 1111.04 0.473654 5.00765 0
M  V30 11492 H 1110.74 2.17028 5.46052 0
M  V30 11493 H 1112.26 1.37601 5.94894 0
M  V30 11494 H 1113.68 3.27628 4.7046 0
M  V30 11495 H 1112.07 4.02555 4.4505 0
M  V30 11496 H 1113.14 3.75978 3.06216 0
M  V30 11497 N 1114.49 -1.10549 1.12324 0
M  V30 11498 C 1115.4 -2.20428 0.803032 0
M  V30 11499 C 1116.41 -1.72756 -0.207674 0
M  V30 11500 O 1117.59 -2.01357 -0.0415623 0
M  V30 11501 C 1114.65 -3.45716 0.261032 0
M  V30 11502 C 1113.72 -4.08129 1.33152 0
M  V30 11503 C 1112.95 -5.27436 0.815288 0
M  V30 11504 O 1113.17 -5.69317 -0.351361 0
M  V30 11505 O 1112.11 -5.80674 1.58434 0
M  V30 11506 H 1115.93 -2.50249 1.72073 0
M  V30 11507 H 1113.52 -1.19263 0.899815 0
M  V30 11508 H 1115.4 -4.21384 -0.0364007 0
M  V30 11509 H 1114.07 -3.17525 -0.629249 0
M  V30 11510 H 1112.98 -3.3415 1.6821 0
M  V30 11511 H 1114.31 -4.4052 2.19552 0
M  V30 11512 N 1115.97 -0.914965 -1.28321 0
M  V30 11513 C 1117.19 -0.564654 -1.99046 0
M  V30 11514 C 1117.61 0.854345 -1.68364 0
M  V30 11515 O 1116.97 1.56605 -0.937068 0
M  V30 11516 C 1117.02 -0.765663 -3.53299 0
M  V30 11517 O 1116.74 -2.12883 -3.829 0
M  V30 11518 C 1118.24 -0.422347 -4.41283 0
M  V30 11519 H 1115.46 -0.215158 -0.635569 0
M  V30 11520 H 1118 -1.2285 -1.63487 0
M  V30 11521 H 1116.16 -0.148795 -3.87114 0
M  V30 11522 H 1116.57 -2.1694 -4.77533 0
M  V30 11523 H 1118.05 -0.613757 -5.48577 0
M  V30 11524 H 1118.52 0.641484 -4.3449 0
M  V30 11525 H 1119.13 -1.01681 -4.12966 0
M  V30 11526 N 1117.44 1.42219 -0.679077 0
M  V30 11527 C 1118.69 2.01777 -0.20342 0
M  V30 11528 C 1119.02 1.53592 1.18841 0
M  V30 11529 O 1118.3 0.739954 1.79875 0
M  V30 11530 C 1118.58 3.59281 -0.242791 0
M  V30 11531 C 1118.43 4.17634 -1.67038 0
M  V30 11532 C 1119.75 4.38218 0.406624 0
M  V30 11533 H 1116.87 0.733134 -0.0753916 0
M  V30 11534 H 1119.51 1.69185 -0.864673 0
M  V30 11535 H 1117.66 3.87178 0.320248 0
M  V30 11536 H 1119.34 4.00674 -2.286 0
M  V30 11537 H 1117.58 3.73301 -2.20973 0
M  V30 11538 H 1118.25 5.26776 -1.64958 0
M  V30 11539 H 1120.73 4.16036 -0.0727077 0
M  V30 11540 H 1119.6 5.47793 0.348457 0
M  V30 11541 H 1119.86 4.16418 1.48487 0
M  V30 11542 N 1118.92 0.422693 1.51826 0
M  V30 11543 C 1119.87 -0.396088 2.27376 0
M  V30 11544 C 1120.84 -1.02946 1.30351 0
M  V30 11545 O 1122.02 -1.05116 1.59233 0
M  V30 11546 C 1119.16 -1.49942 3.10824 0
M  V30 11547 C 1118.28 -0.885623 4.22825 0
M  V30 11548 C 1117.41 -1.96278 4.93608 0
M  V30 11549 C 1116.45 -1.32664 5.97551 0
M  V30 11550 N 1115.59 -2.34452 6.61798 0
M  V30 11551 H 1120.43 0.254571 2.96911 0
M  V30 11552 H 1117.96 0.137383 1.46457 0
M  V30 11553 H 1119.92 -2.15023 3.57521 0
M  V30 11554 H 1118.55 -2.11991 2.43433 0
M  V30 11555 H 1117.6 -0.123491 3.80199 0
M  V30 11556 H 1118.92 -0.381057 4.97342 0
M  V30 11557 H 1118.07 -2.69055 5.43778 0
M  V30 11558 H 1116.81 -2.50103 4.18688 0
M  V30 11559 H 1115.81 -0.584262 5.46687 0
M  V30 11560 H 1117.04 -0.7959 6.7442 0
M  V30 11561 H 1114.99 -2.87385 5.897 0
M  V30 11562 H 1114.9 -1.88845 7.32034 0
M  V30 11563 H 1116.17 -3.06757 7.16603 0
M  V30 11564 N 1120.4 -1.5685 0.153553 0
M  V30 11565 C 1121.36 -2.15894 -0.769564 0
M  V30 11566 C 1122.36 -1.10239 -1.17064 0
M  V30 11567 O 1123.55 -1.35845 -1.09049 0
M  V30 11568 C 1120.68 -2.72738 -2.04516 0
M  V30 11569 H 1121.88 -2.98807 -0.255842 0
M  V30 11570 H 1119.43 -1.56005 -0.0959279 0
M  V30 11571 H 1120.17 -1.9351 -2.60239 0
M  V30 11572 H 1119.95 -3.50042 -1.76672 0
M  V30 11573 H 1121.44 -3.18208 -2.70432 0
M  V30 11574 N 1121.88 0.120221 -1.57141 0
M  V30 11575 C 1123.12 0.829449 -1.85062 0
M  V30 11576 C 1123.46 1.79585 -0.739116 0
M  V30 11577 O 1122.73 1.92819 0.255147 0
M  V30 11578 C 1123.01 1.58042 -3.23566 0
M  V30 11579 C 1122.87 0.633706 -4.45314 0
M  V30 11580 C 1124.19 2.53688 -3.59625 0
M  V30 11581 H 1121.31 0.300086 -0.67314 0
M  V30 11582 H 1123.95 0.0937393 -1.89769 0
M  V30 11583 H 1122.1 2.20758 -3.19684 0
M  V30 11584 H 1123.77 0.0154836 -4.61297 0
M  V30 11585 H 1122.01 -0.054846 -4.33765 0
M  V30 11586 H 1122.68 1.19577 -5.38893 0
M  V30 11587 H 1125.16 2.01078 -3.6429 0
M  V30 11588 H 1124.04 3.03265 -4.57516 0
M  V30 11589 H 1124.3 3.36296 -2.8698 0
M  V30 11590 N 1123.36 1.52689 0.390367 0
M  V30 11591 C 1124.6 1.67335 1.13329 0
M  V30 11592 C 1124.93 0.415068 1.90531 0
M  V30 11593 O 1124.2 -0.570504 1.87409 0
M  V30 11594 H 1122.78 0.616821 0.421356 0
M  V30 11595 H 1125.44 1.89799 0.443 0
M  V30 11596 H 1124.53 2.52314 1.83696 0
M  V30 11597 N 1124.83 -0.648732 1.43629 0
M  V30 11598 C 1126.25 -1.23001 1.40455 0
M  V30 11599 C 1126.6 -1.95886 0.110897 0
M  V30 11600 O 1125.72 -2.01485 -0.789487 0
M  V30 11601 C 1126.32 -2.23716 2.54434 0
M  V30 11602 C 1124.88 -2.77311 2.54511 0
M  V30 11603 C 1124.02 -1.52024 2.31914 0
M  V30 11604 H 1126.97 -0.440473 1.52465 0
M  V30 11605 H 1126.99 -3.05979 2.26179 0
M  V30 11606 H 1126.51 -1.7064 3.48574 0
M  V30 11607 H 1124.61 -3.34437 1.64263 0
M  V30 11608 H 1124.72 -3.2455 3.52426 0
M  V30 11609 H 1123.08 -1.79531 1.80667 0
M  V30 11610 H 1123.87 -1.00876 3.28145 0
M  V30 11611 N 1126.31 -1.30234 -0.887518 0
M  V30 11612 C 1127.24 -1.12212 -1.99853 0
M  V30 11613 C 1128.26 -0.0660929 -1.62666 0
M  V30 11614 O 1129.45 -0.311853 -1.75755 0
M  V30 11615 C 1126.55 -0.688591 -3.31831 0
M  V30 11616 C 1125.72 -1.82581 -3.97471 0
M  V30 11617 C 1124.78 -1.38126 -5.07748 0
M  V30 11618 O 1123.8 -2.08805 -5.29518 0
M  V30 11619 N 1125.01 -0.258868 -5.79923 0
M  V30 11620 H 1127.77 -2.07901 -2.15864 0
M  V30 11621 H 1125.33 -1.22336 -1.06045 0
M  V30 11622 H 1127.32 -0.374252 -4.02966 0
M  V30 11623 H 1125.89 0.176185 -3.12103 0
M  V30 11624 H 1125.11 -2.3084 -3.19541 0
M  V30 11625 H 1126.4 -2.58798 -4.38065 0
M  V30 11626 H 1125.8 0.330131 -5.64736 0
M  V30 11627 H 1124.36 -0.00396813 -6.518 0
M  V30 11628 N 1127.79 1.09952 -1.12909 0
M  V30 11629 C 1128.72 2.18477 -0.824014 0
M  V30 11630 C 1129.7 1.68744 0.214324 0
M  V30 11631 O 1130.89 1.94057 0.0744281 0
M  V30 11632 C 1128.02 3.46143 -0.283308 0
M  V30 11633 C 1126.97 4.09178 -1.25528 0
M  V30 11634 C 1126.3 5.31604 -0.574574 0
M  V30 11635 C 1127.6 4.52308 -2.6118 0
M  V30 11636 H 1129.29 2.44254 -1.73148 0
M  V30 11637 H 1126.84 1.17394 -0.833952 0
M  V30 11638 H 1128.79 4.21361 -0.057583 0
M  V30 11639 H 1127.51 3.19872 0.659525 0
M  V30 11640 H 1126.17 3.35973 -1.4669 0
M  V30 11641 H 1125.82 5.01611 0.37356 0
M  V30 11642 H 1125.52 5.74732 -1.22299 0
M  V30 11643 H 1127.04 6.0955 -0.358004 0
M  V30 11644 H 1128.46 5.18776 -2.44017 0
M  V30 11645 H 1126.86 5.06302 -3.22147 0
M  V30 11646 H 1127.93 3.64977 -3.19249 0
M  V30 11647 N 1129.27 0.921757 1.27833 0
M  V30 11648 C 1130.51 0.559906 1.94918 0
M  V30 11649 C 1130.85 -0.895532 1.72319 0
M  V30 11650 O 1130.12 -1.638 1.04879 0
M  V30 11651 C 1130.41 0.879458 3.49196 0
M  V30 11652 C 1130.26 2.38821 3.81162 0
M  V30 11653 C 1131.58 0.381183 4.38446 0
M  V30 11654 H 1128.7 0.204893 0.707946 0
M  V30 11655 H 1131.34 1.15246 1.51058 0
M  V30 11656 H 1129.49 0.375177 3.86684 0
M  V30 11657 H 1131.16 2.96373 3.53498 0
M  V30 11658 H 1129.4 2.83988 3.27923 0
M  V30 11659 H 1130.07 2.56234 4.88926 0
M  V30 11660 H 1132.55 0.813289 4.08075 0
M  V30 11661 H 1131.43 0.633778 5.45229 0
M  V30 11662 H 1131.69 -0.718651 4.3622 0
M  V30 11663 N 1130.75 -1.41857 0.686609 0
M  V30 11664 C 1132.16 -1.55549 0.357288 0
M  V30 11665 C 1132.36 -1.66394 -1.13646 0
M  V30 11666 O 1131.42 -1.63739 -1.92213 0
M  V30 11667 C 1132.73 -2.79938 1.09796 0
M  V30 11668 C 1134.28 -2.93724 1.08143 0
M  V30 11669 C 1134.75 -4.20989 1.80367 0
M  V30 11670 N 1136.25 -4.27927 1.77293 0
M  V30 11671 C 1136.98 -5.2524 2.30022 0
M  V30 11672 N 1136.48 -6.28636 2.91185 0
M  V30 11673 N 1138.27 -5.17118 2.20329 0
M  V30 11674 H 1130.42 -1.33063 1.65554 0
M  V30 11675 H 1132.68 -0.641335 0.698135 0
M  V30 11676 H 1132.39 -2.78104 2.15293 0
M  V30 11677 H 1132.26 -3.71188 0.670763 0
M  V30 11678 H 1134.65 -2.9508 0.0347554 0
M  V30 11679 H 1134.73 -2.03673 1.54761 0
M  V30 11680 H 1134.38 -4.20395 2.85009 0
M  V30 11681 H 1134.31 -5.09997 1.3119 0
M  V30 11682 H 1136.8 -3.53838 1.32692 0
M  V30 11683 H 1137.11 -6.99265 3.29011 0
M  V30 11684 H 1135.45 -6.29164 2.95259 0
M  V30 11685 H 1138.65 -4.35265 1.72226 0
M  V30 11686 H 1138.82 -5.92792 2.61728 0
M  V30 11687 N 1132.22 -0.430739 -1.51599 0
M  V30 11688 C 1133.15 0.374695 -2.30474 0
M  V30 11689 C 1134.14 1.02694 -1.35602 0
M  V30 11690 O 1135.32 1.03184 -1.6452 0
M  V30 11691 C 1132.45 1.47981 -3.14196 0
M  V30 11692 C 1131.4 0.951415 -4.17291 0
M  V30 11693 C 1130.73 2.15177 -4.89492 0
M  V30 11694 C 1132.03 -0.00957951 -5.22299 0
M  V30 11695 H 1133.72 -0.283508 -2.98055 0
M  V30 11696 H 1131.27 -0.13779 -1.43339 0
M  V30 11697 H 1133.22 2.05043 -3.68151 0
M  V30 11698 H 1131.95 2.16621 -2.44424 0
M  V30 11699 H 1130.61 0.403052 -3.64378 0
M  V30 11700 H 1130.25 2.82421 -4.1623 0
M  V30 11701 H 1129.95 1.80464 -5.59202 0
M  V30 11702 H 1131.48 2.72806 -5.46269 0
M  V30 11703 H 1132.89 0.470527 -5.71366 0
M  V30 11704 H 1131.29 -0.268959 -5.99497 0
M  V30 11705 H 1132.36 -0.948297 -4.75537 0
M  V30 11706 N 1133.7 1.56767 -0.161869 0
M  V30 11707 C 1134.95 1.96885 0.486215 0
M  V30 11708 C 1135.28 1.04745 1.6353 0
M  V30 11709 O 1134.56 0.0927156 1.94279 0
M  V30 11710 C 1134.84 3.46559 0.97822 0
M  V30 11711 C 1134.69 4.49477 -0.17039 0
M  V30 11712 C 1136.01 3.99093 1.85506 0
M  V30 11713 H 1133.13 0.715857 0.175265 0
M  V30 11714 H 1135.77 1.88399 -0.246098 0
M  V30 11715 H 1133.92 3.53921 1.60225 0
M  V30 11716 H 1135.59 4.54183 -0.807205 0
M  V30 11717 H 1133.84 4.25838 -0.827322 0
M  V30 11718 H 1134.51 5.51578 0.21583 0
M  V30 11719 H 1136.98 3.94303 1.32908 0
M  V30 11720 H 1135.86 5.04255 2.16837 0
M  V30 11721 H 1136.12 3.4234 2.79742 0
M  V30 11722 N 1135.18 -0.111886 1.57202 0
M  V30 11723 C 1136.43 -0.8146 1.86376 0
M  V30 11724 C 1136.78 -1.77156 0.750558 0
M  V30 11725 O 1136.07 -1.89977 -0.248867 0
M  V30 11726 C 1136.27 -1.59644 3.19763 0
M  V30 11727 C 1136.1 -0.71669 4.43952 0
M  V30 11728 C 1134.87 -0.36881 5.03952 0
M  V30 11729 C 1137.07 -0.0311316 5.14291 0
M  V30 11730 N 1135.05 0.520861 6.11686 0
M  V30 11731 C 1136.42 0.71726 6.15837 0
M  V30 11732 C 1138.47 0.0445453 4.9788 0
M  V30 11733 C 1137.18 1.53423 7.02747 0
M  V30 11734 C 1139.2 0.848364 5.85283 0
M  V30 11735 C 1138.56 1.58493 6.86338 0
M  V30 11736 H 1134.66 -0.274785 0.732132 0
M  V30 11737 H 1137.25 -0.0779628 1.94544 0
M  V30 11738 H 1135.42 -2.30407 3.12678 0
M  V30 11739 H 1137.15 -2.24504 3.36719 0
M  V30 11740 H 1133.91 -0.712671 4.68207 0
M  V30 11741 H 1134.33 0.957756 6.70191 0
M  V30 11742 H 1138.97 -0.510564 4.19706 0
M  V30 11743 H 1136.69 2.10047 7.80324 0
M  V30 11744 H 1140.28 0.909372 5.74649 0
M  V30 11745 H 1139.16 2.19691 7.52798 0
M  V30 11746 N 1136.66 -1.52894 -0.382264 0
M  V30 11747 C 1137.59 -1.74413 -1.48703 0
M  V30 11748 C 1138.6 -0.624663 -1.50339 0
M  V30 11749 O 1139.79 -0.900527 -1.54119 0
M  V30 11750 C 1136.89 -1.79387 -2.8753 0
M  V30 11751 C 1136.07 -3.08794 -3.09783 0
M  V30 11752 C 1135.12 -3.05226 -4.2863 0
M  V30 11753 O 1134.15 -3.79073 -4.24609 0
M  V30 11754 N 1135.35 -2.2488 -5.35172 0
M  V30 11755 H 1138.12 -2.69734 -1.30628 0
M  V30 11756 H 1135.68 -1.51465 -0.571842 0
M  V30 11757 H 1137.67 -1.74498 -3.65147 0
M  V30 11758 H 1136.24 -0.914233 -2.98932 0
M  V30 11759 H 1135.46 -3.27118 -2.19971 0
M  V30 11760 H 1136.75 -3.94347 -3.21509 0
M  V30 11761 H 1136.15 -1.64363 -5.41296 0
M  V30 11762 H 1134.7 -2.25825 -6.1143 0
M  V30 11763 N 1138.14 0.641106 -1.43971 0
M  V30 11764 C 1139.07 1.76645 -1.46046 0
M  V30 11765 C 1140.08 1.58881 -0.355049 0
M  V30 11766 O 1141.27 1.67379 -0.620207 0
M  V30 11767 C 1138.37 3.14237 -1.26918 0
M  V30 11768 C 1137.54 3.5855 -2.50521 0
M  V30 11769 C 1136.6 4.74986 -2.26438 0
M  V30 11770 O 1135.63 4.83807 -2.99866 0
M  V30 11771 N 1136.83 5.66016 -1.28866 0
M  V30 11772 H 1139.6 1.75339 -2.43056 0
M  V30 11773 H 1137.16 0.82535 -1.39282 0
M  V30 11774 H 1139.15 3.89837 -1.0867 0
M  V30 11775 H 1137.72 3.10244 -0.383082 0
M  V30 11776 H 1136.94 2.73265 -2.84112 0
M  V30 11777 H 1138.23 3.84906 -3.32754 0
M  V30 11778 H 1137.63 5.61574 -0.682018 0
M  V30 11779 H 1136.18 6.41286 -1.16599 0
M  V30 11780 N 1139.62 1.30703 0.880598 0
M  V30 11781 C 1140.55 1.20033 2.00286 0
M  V30 11782 C 1141.53 0.0899614 1.69862 0
M  V30 11783 O 1142.71 0.272747 1.92275 0
M  V30 11784 C 1139.84 0.895902 3.35546 0
M  V30 11785 C 1138.8 1.96468 3.80242 0
M  V30 11786 C 1138.12 1.51316 5.12843 0
M  V30 11787 C 1139.42 3.37637 3.98496 0
M  V30 11788 H 1141.12 2.13922 2.0947 0
M  V30 11789 H 1138.66 1.02989 1.00644 0
M  V30 11790 H 1140.61 0.807899 4.13583 0
M  V30 11791 H 1139.34 -0.0786636 3.26505 0
M  V30 11792 H 1138 2.0424 3.04437 0
M  V30 11793 H 1137.65 0.52674 5.00234 0
M  V30 11794 H 1137.35 2.22807 5.43719 0
M  V30 11795 H 1138.87 1.43903 5.93401 0
M  V30 11796 H 1140.28 3.326 4.66959 0
M  V30 11797 H 1138.68 4.07253 4.40755 0
M  V30 11798 H 1139.75 3.79205 3.02211 0
M  V30 11799 N 1141.09 -1.09351 1.1349 0
M  V30 11800 C 1142.34 -1.81812 0.898452 0
M  V30 11801 C 1142.67 -1.85525 -0.573959 0
M  V30 11802 O 1141.95 -1.32403 -1.42477 0
M  V30 11803 C 1142.23 -3.27921 1.48794 0
M  V30 11804 C 1142.08 -3.32476 3.02952 0
M  V30 11805 C 1143.4 -4.24625 1.15678 0
M  V30 11806 H 1140.52 -0.660074 0.327829 0
M  V30 11807 H 1143.16 -1.28091 1.40331 0
M  V30 11808 H 1141.31 -3.738 1.05858 0
M  V30 11809 H 1142.99 -2.94994 3.54649 0
M  V30 11810 H 1141.23 -2.72037 3.37903 0
M  V30 11811 H 1141.9 -4.35409 3.39298 0
M  V30 11812 H 1144.38 -3.87036 1.52781 0
M  V30 11813 H 1143.25 -5.25194 1.59571 0
M  V30 11814 H 1143.51 -4.42044 0.0705933 0
M  V30 11815 N 1142.57 -0.928524 -1.27343 0
M  V30 11816 C 1143.85 -0.487758 -1.89421 0
M  V30 11817 C 1144.23 1.03418 -1.84032 0
M  V30 11818 O 1143.58 1.8887 -1.2861 0
M  V30 11819 C 1143.79 -1.03478 -3.33307 0
M  V30 11820 C 1145.13 -1.09577 -4.10217 0
M  V30 11821 O 1146.16 -0.984463 -3.42326 0
M  V30 11822 O 1145.02 -1.2673 -5.31603 0
M  V30 11823 H 1142.11 -0.157018 -0.811957 0
M  V30 11824 H 1144.66 -1.02027 -1.35605 0
M  V30 11825 H 1143.43 -2.07861 -3.31526 0
M  V30 11826 H 1143.05 -0.483967 -3.94644 0
M  V30 11827 N 1144.05 1.41491 -0.694123 0
M  V30 11828 C 1145.28 2.05579 -0.233466 0
M  V30 11829 C 1145.69 1.5223 1.11675 0
M  V30 11830 O 1145.05 0.669937 1.69759 0
M  V30 11831 C 1145.1 3.61047 -0.180967 0
M  V30 11832 O 1144.82 4.12421 -1.47785 0
M  V30 11833 C 1146.32 4.42278 0.300853 0
M  V30 11834 H 1143.54 0.662097 -0.108943 0
M  V30 11835 H 1146.09 1.81288 -0.946299 0
M  V30 11836 H 1144.24 3.84381 0.482678 0
M  V30 11837 H 1144.66 5.06454 -1.364 0
M  V30 11838 H 1146.13 5.51256 0.286464 0
M  V30 11839 H 1146.61 4.18276 1.33948 0
M  V30 11840 H 1147.21 4.24004 -0.331741 0
M  V30 11841 N 1145.53 0.438773 1.51369 0
M  V30 11842 C 1146.49 -0.36032 2.2635 0
M  V30 11843 C 1147.49 -0.948465 1.29849 0
M  V30 11844 O 1148.68 -0.822692 1.53549 0
M  V30 11845 C 1145.81 -1.50994 3.05636 0
M  V30 11846 H 1147.01 0.296826 2.98427 0
M  V30 11847 H 1144.56 0.191978 1.55117 0
M  V30 11848 H 1145.29 -2.2031 2.37979 0
M  V30 11849 H 1145.08 -1.09437 3.76518 0
M  V30 11850 H 1146.57 -2.07447 3.6243 0
M  V30 11851 N 1147.01 -1.56678 0.170181 0
M  V30 11852 C 1147.97 -2.16698 -0.746622 0
M  V30 11853 C 1148.97 -1.11475 -1.15888 0
M  V30 11854 O 1150.16 -1.36994 -1.07602 0
M  V30 11855 C 1147.29 -2.74892 -2.01612 0
M  V30 11856 H 1148.48 -2.99061 -0.224135 0
M  V30 11857 H 1146.04 -1.56098 -0.0793761 0
M  V30 11858 H 1146.77 -1.96259 -2.58172 0
M  V30 11859 H 1146.56 -3.51896 -1.72949 0
M  V30 11860 H 1148.05 -3.21058 -2.67042 0
M  V30 11861 N 1148.48 0.103547 -1.57259 0
M  V30 11862 C 1149.41 1.12714 -2.04494 0
M  V30 11863 C 1150.39 1.42278 -0.932255 0
M  V30 11864 O 1151.58 1.52453 -1.20298 0
M  V30 11865 C 1148.71 2.44927 -2.46228 0
M  V30 11866 C 1147.66 2.2979 -3.61082 0
M  V30 11867 C 1146.99 3.67105 -3.88765 0
M  V30 11868 C 1148.29 1.7455 -4.9227 0
M  V30 11869 H 1149.98 0.734198 -2.90258 0
M  V30 11870 H 1147.53 0.351725 -1.39638 0
M  V30 11871 H 1149.48 3.16798 -2.77879 0
M  V30 11872 H 1148.21 2.8614 -1.57453 0
M  V30 11873 H 1146.87 1.60366 -3.29664 0
M  V30 11874 H 1146.51 4.05831 -2.97171 0
M  V30 11875 H 1146.21 3.57825 -4.66084 0
M  V30 11876 H 1147.74 4.40456 -4.22884 0
M  V30 11877 H 1149.15 2.36253 -5.22358 0
M  V30 11878 H 1147.55 1.76051 -5.73695 0
M  V30 11879 H 1148.62 0.704242 -4.79759 0
M  V30 11880 N 1149.96 1.53094 0.37415 0
M  V30 11881 C 1151.21 1.69111 1.11934 0
M  V30 11882 C 1151.54 0.437252 1.89213 0
M  V30 11883 O 1150.82 -0.565298 1.86104 0
M  V30 11884 C 1151.1 2.93559 2.08554 0
M  V30 11885 C 1150.95 4.29082 1.3494 0
M  V30 11886 C 1152.27 3.13586 3.08791 0
M  V30 11887 H 1149.39 0.615383 0.405553 0
M  V30 11888 H 1152.03 1.85719 0.401078 0
M  V30 11889 H 1150.18 2.79531 2.69805 0
M  V30 11890 H 1151.85 4.54906 0.765402 0
M  V30 11891 H 1150.1 4.28884 0.651238 0
M  V30 11892 H 1150.77 5.12275 2.05616 0
M  V30 11893 H 1153.24 3.26743 2.57639 0
M  V30 11894 H 1152.12 4.02112 3.73627 0
M  V30 11895 H 1152.38 2.28475 3.78486 0
M  V30 11896 N 1151.44 -0.633461 1.44309 0
M  V30 11897 C 1152.69 -1.38902 1.4625 0
M  V30 11898 C 1153 -1.95354 0.0980699 0
M  V30 11899 O 1154.21 -2.715 -0.0049983 0
M  V30 11900 C 1152.66 -2.51477 2.57463 0
M  V30 11901 C 1152.27 -2.01549 4.00103 0
M  V30 11902 C 1154.02 -3.28698 2.68622 0
M  V30 11903 C 1151.92 -3.11452 5.02744 0
M  V30 11904 H 1150.85 -0.521976 0.544112 0
M  V30 11905 H 1153.5 -0.681725 1.70367 0
M  V30 11906 H 1151.89 -3.24771 2.26582 0
M  V30 11907 H 1153.06 -1.35135 4.4054 0
M  V30 11908 H 1151.37 -1.3715 3.93165 0
M  V30 11909 H 1153.97 -4.10624 3.42479 0
M  V30 11910 H 1154.31 -3.78027 1.7436 0
M  V30 11911 H 1154.85 -2.62494 2.98901 0
M  V30 11912 H 1151.59 -2.6707 5.98627 0
M  V30 11913 H 1151.11 -3.76514 4.66902 0
M  V30 11914 H 1152.79 -3.76265 5.2634 0
M  V30 11915 N 1152.92 -1.31168 -0.873655 0
M  V30 11916 C 1154.2 -1.11285 -1.60857 0
M  V30 11917 C 1154.58 0.333788 -2.08444 0
M  V30 11918 O 1153.92 1.32726 -1.86 0
M  V30 11919 C 1154.13 -2.12379 -2.7694 0
M  V30 11920 C 1155.48 -2.44704 -3.46994 0
M  V30 11921 O 1156.51 -2.10778 -2.87143 0
M  V30 11922 O 1155.36 -3.02786 -4.54954 0
M  V30 11923 H 1152.46 -0.428177 -0.707526 0
M  V30 11924 H 1155 -1.42634 -0.91944 0
M  V30 11925 H 1153.78 -3.09703 -2.39164 0
M  V30 11926 H 1153.4 -1.81914 -3.53544 0
M  V30 11927 N 1154.4 1.08748 -1.14068 0
M  V30 11928 C 1155.33 2.17591 -0.84714 0
M  V30 11929 C 1156.31 1.68962 0.196415 0
M  V30 11930 O 1157.49 1.94125 0.0538415 0
M  V30 11931 C 1154.62 3.45823 -0.320005 0
M  V30 11932 C 1153.58 4.07824 -1.2986 0
M  V30 11933 C 1152.9 5.30965 -0.630925 0
M  V30 11934 C 1154.2 4.49512 -2.65963 0
M  V30 11935 H 1155.9 2.42404 -1.75729 0
M  V30 11936 H 1153.44 1.16502 -0.846356 0
M  V30 11937 H 1155.4 4.21276 -0.102271 0
M  V30 11938 H 1154.12 3.20553 0.625561 0
M  V30 11939 H 1152.78 3.34398 -1.50245 0
M  V30 11940 H 1152.43 5.01979 0.320337 0
M  V30 11941 H 1152.13 5.73402 -1.28388 0
M  V30 11942 H 1153.65 6.09136 -0.422635 0
M  V30 11943 H 1155.06 5.16159 -2.49506 0
M  V30 11944 H 1153.46 5.02857 -3.27498 0
M  V30 11945 H 1154.53 3.6157 -3.23102 0
M  V30 11946 N 1155.87 0.935264 1.26849 0
M  V30 11947 C 1157.29 0.636661 1.46352 0
M  V30 11948 C 1157.49 -0.811823 1.84423 0
M  V30 11949 O 1156.55 -1.58902 1.9623 0
M  V30 11950 C 1157.86 1.59301 2.55036 0
M  V30 11951 C 1159.41 1.60207 2.68892 0
M  V30 11952 C 1159.88 2.54558 3.80742 0
M  V30 11953 N 1161.37 2.52809 3.88126 0
M  V30 11954 C 1162.11 3.225 4.74111 0
M  V30 11955 N 1161.6 4.01598 5.64527 0
M  V30 11956 N 1163.4 3.11481 4.67906 0
M  V30 11957 H 1155.55 1.8716 1.00423 0
M  V30 11958 H 1157.81 0.803968 0.502334 0
M  V30 11959 H 1157.52 2.62671 2.33874 0
M  V30 11960 H 1157.39 1.34052 3.52576 0
M  V30 11961 H 1159.78 0.575649 2.89431 0
M  V30 11962 H 1159.86 1.89508 1.71815 0
M  V30 11963 H 1159.5 3.57314 3.60956 0
M  V30 11964 H 1159.43 2.22549 4.77263 0
M  V30 11965 H 1161.92 1.9537 3.2348 0
M  V30 11966 H 1162.24 4.51742 6.27016 0
M  V30 11967 H 1160.58 4.057 5.64298 0
M  V30 11968 H 1163.77 2.49175 3.9627 0
M  V30 11969 H 1163.95 3.66064 5.34697 0
M  V30 11970 N 1157.35 -1.41121 0.701616 0
M  V30 11971 C 1158.58 -2.05154 0.244011 0
M  V30 11972 C 1158.99 -1.52922 -1.11407 0
M  V30 11973 O 1158.33 -0.67486 -1.70855 0
M  V30 11974 C 1158.4 -3.59262 0.130773 0
M  V30 11975 C 1158.06 -4.34318 1.42187 0
M  V30 11976 C 1159.06 -4.632 2.36097 0
M  V30 11977 C 1156.74 -4.73481 1.67693 0
M  V30 11978 C 1158.74 -5.30214 3.53768 0
M  V30 11979 C 1156.42 -5.4023 2.85648 0
M  V30 11980 C 1157.42 -5.68524 3.78509 0
M  V30 11981 O 1157.11 -6.33898 4.94397 0
M  V30 11982 H 1156.84 -0.666997 0.109957 0
M  V30 11983 H 1159.39 -1.81771 0.956473 0
M  V30 11984 H 1157.62 -3.81409 -0.637512 0
M  V30 11985 H 1159.31 -4.0486 -0.29044 0
M  V30 11986 H 1160.08 -4.3342 2.17652 0
M  V30 11987 H 1155.96 -4.50835 0.962733 0
M  V30 11988 H 1159.5 -5.52215 4.26267 0
M  V30 11989 H 1155.4 -5.69429 3.04008 0
M  V30 11990 H 1156.17 -6.52394 4.94292 0
M  V30 11991 N 1158.83 -0.446794 -1.51134 0
M  V30 11992 C 1159.78 0.374154 -2.29571 0
M  V30 11993 C 1160.77 1.01241 -1.35818 0
M  V30 11994 O 1161.98 0.946293 -1.53119 0
M  V30 11995 H 1158.35 0.13948 -0.738951 0
M  V30 11996 H 1160.32 -0.308117 -2.96805 0
M  V30 11997 C 1159.07 1.45754 -3.15675 0
M  V30 11998 H 1158.4 0.975787 -3.87709 0
M  V30 11999 H 1159.84 2.00502 -3.73597 0
M  V30 12000 C 1158.3 2.44606 -2.31667 0
M  V30 12001 O 1158.83 3.49352 -1.98284 0
M  V30 12002 N 1157.03 2.15725 -1.94708 0
M  V30 12003 H 1156.58 1.30572 -2.22056 0
M  V30 12004 H 1156.54 2.82103 -1.38798 0
M  V30 12005 N 1160.31 1.56586 -0.178487 0
M  V30 12006 C 1161.72 1.83633 0.337009 0
M  V30 12007 C 1162.07 1.09857 1.6256 0
M  V30 12008 O 1161.2 0.353933 2.13486 0
M  V30 12009 C 1161.79 3.33112 0.618225 0
M  V30 12010 C 1160.35 3.60629 1.07814 0
M  V30 12011 C 1159.5 2.7705 0.117825 0
M  V30 12012 H 1162.45 1.53508 -0.402612 0
M  V30 12013 H 1162.47 3.5098 1.46947 0
M  V30 12014 H 1161.98 3.8678 -0.319808 0
M  V30 12015 H 1160.08 3.12378 2.03103 0
M  V30 12016 H 1160.19 4.68921 0.982339 0
M  V30 12017 H 1158.56 2.47125 0.616563 0
M  V30 12018 H 1159.34 3.33501 -0.814356 0
M  V30 12019 N 1161.79 -0.095206 1.57312 0
M  V30 12020 C 1163.03 -0.797142 1.85715 0
M  V30 12021 C 1163.36 -1.79275 0.767171 0
M  V30 12022 O 1162.63 -1.94808 -0.206584 0
M  V30 12023 H 1161.21 -0.297382 0.685254 0
M  V30 12024 H 1163.87 -0.0768617 1.94748 0
M  V30 12025 H 1162.96 -1.32779 2.82447 0
M  V30 12026 N 1163.26 -1.53291 -0.366026 0
M  V30 12027 C 1164.49 -1.73665 -1.13381 0
M  V30 12028 C 1164.91 -0.464284 -1.8228 0
M  V30 12029 O 1164.27 0.581645 -1.71717 0
M  V30 12030 C 1164.32 -2.90225 -2.14013 0
M  V30 12031 O 1163.42 -2.58803 -3.21084 0
M  V30 12032 H 1162.77 -0.576762 -0.329 0
M  V30 12033 H 1165.3 -2.00174 -0.423287 0
M  V30 12034 H 1165.31 -3.16378 -2.57622 0
M  V30 12035 H 1163.98 -3.82518 -1.63257 0
M  V30 12036 H 1162.56 -2.43466 -2.82451 0
M  V30 12037 N 1164.74 0.6258 -1.44643 0
M  V30 12038 C 1165.97 1.41028 -1.50979 0
M  V30 12039 C 1166.38 1.88717 -0.135092 0
M  V30 12040 O 1165.72 1.61778 0.870268 0
M  V30 12041 C 1165.79 2.66094 -2.41732 0
M  V30 12042 C 1165.45 2.40166 -3.88805 0
M  V30 12043 C 1166.45 2.01661 -4.79196 0
M  V30 12044 C 1164.13 2.53641 -4.33557 0
M  V30 12045 C 1166.13 1.76966 -6.12341 0
M  V30 12046 C 1163.81 2.2856 -5.66748 0
M  V30 12047 C 1164.81 1.90282 -6.55959 0
M  V30 12048 O 1164.5 1.65484 -7.86683 0
M  V30 12049 H 1164.23 0.438757 -0.514265 0
M  V30 12050 H 1166.78 0.772034 -1.90339 0
M  V30 12051 H 1165.01 3.32575 -1.97309 0
M  V30 12052 H 1166.7 3.28107 -2.38957 0
M  V30 12053 H 1167.47 1.90802 -4.45892 0
M  V30 12054 H 1163.35 2.82404 -3.64375 0
M  V30 12055 H 1166.89 1.47014 -6.81933 0
M  V30 12056 H 1162.79 2.3903 -5.99612 0
M  V30 12057 H 1163.56 1.79686 -7.98533 0
M  V30 12058 N 1166.22 1.31629 0.866686 0
M  V30 12059 C 1167.45 1.24609 1.65793 0
M  V30 12060 C 1167.87 -0.184944 1.87189 0
M  V30 12061 O 1167.23 -1.1322 1.41601 0
M  V30 12062 C 1167.28 1.9988 3.00134 0
M  V30 12063 O 1166.38 1.33838 3.90079 0
M  V30 12064 H 1165.72 0.430051 0.505917 0
M  V30 12065 H 1168.25 1.73752 1.08035 0
M  V30 12066 H 1168.26 2.09599 3.50046 0
M  V30 12067 H 1166.94 3.03947 2.83882 0
M  V30 12068 H 1165.51 1.3259 3.48532 0
M  V30 12069 N 1167.7 -1.08142 1.14644 0
M  V30 12070 C 1168.93 -1.84318 0.939926 0
M  V30 12071 C 1169.34 -1.81735 -0.511636 0
M  V30 12072 O 1168.7 -1.22297 -1.35461 0
M  V30 12073 C 1168.75 -3.31744 1.43625 0
M  V30 12074 O 1168.47 -3.3435 2.83094 0
M  V30 12075 C 1169.97 -4.24717 1.27007 0
M  V30 12076 H 1167.19 -0.581781 0.334323 0
M  V30 12077 H 1169.74 -1.36561 1.52221 0
M  V30 12078 H 1167.89 -3.7688 0.896664 0
M  V30 12079 H 1168.31 -4.26399 3.05425 0
M  V30 12080 H 1169.78 -5.26262 1.66591 0
M  V30 12081 H 1170.26 -4.38682 0.213257 0
M  V30 12082 H 1170.86 -3.85409 1.79833 0
M  V30 12083 N 1169.18 -0.941978 -1.26351 0
M  V30 12084 C 1170.14 -0.456768 -2.24602 0
M  V30 12085 C 1171.14 0.432574 -1.54872 0
M  V30 12086 O 1172.33 0.23164 -1.72653 0
M  V30 12087 C 1169.46 0.341583 -3.39184 0
M  V30 12088 H 1170.66 -1.32503 -2.69041 0
M  V30 12089 H 1168.21 -0.724021 -1.38519 0
M  V30 12090 H 1168.94 1.22806 -3.00149 0
M  V30 12091 H 1168.73 -0.296268 -3.90979 0
M  V30 12092 H 1170.22 0.670955 -4.12175 0
M  V30 12093 N 1170.66 1.40747 -0.709091 0
M  V30 12094 C 1171.9 2.00233 -0.242836 0
M  V30 12095 C 1172.22 1.56853 1.1686 0
M  V30 12096 O 1173.42 2.08993 1.73304 0
M  V30 12097 C 1171.88 3.57854 -0.383241 0
M  V30 12098 C 1171.49 4.10209 -1.80091 0
M  V30 12099 C 1173.23 4.24494 0.0225511 0
M  V30 12100 C 1171.14 5.60311 -1.89225 0
M  V30 12101 H 1170.07 0.74896 -0.087034 0
M  V30 12102 H 1172.72 1.61064 -0.879243 0
M  V30 12103 H 1171.1 3.94692 0.321642 0
M  V30 12104 H 1172.28 3.84762 -2.53564 0
M  V30 12105 H 1170.59 3.56142 -2.15758 0
M  V30 12106 H 1173.19 5.34694 -0.0250644 0
M  V30 12107 H 1173.53 4.02488 1.06344 0
M  V30 12108 H 1174.06 3.92739 -0.632541 0
M  V30 12109 H 1170.8 5.87162 -2.91412 0
M  V30 12110 H 1170.32 5.87642 -1.20154 0
M  V30 12111 H 1172 6.25306 -1.66136 0
M  V30 12112 N 1172.13 0.454803 1.50895 0
M  V30 12113 C 1173.54 -0.00421212 1.867 0
M  V30 12114 C 1173.9 -1.4037 1.3708 0
M  V30 12115 O 1173.02 -2.03755 0.728884 0
M  V30 12116 C 1173.62 -0.0144196 3.38797 0
M  V30 12117 C 1172.17 -0.417905 3.74073 0
M  V30 12118 C 1171.32 0.37801 2.74711 0
M  V30 12119 H 1174.27 0.669849 1.4387 0
M  V30 12120 H 1174.29 -0.820172 3.71555 0
M  V30 12121 H 1173.81 1.00427 3.74881 0
M  V30 12122 H 1171.91 -1.44155 3.43584 0
M  V30 12123 H 1172.02 -0.130568 4.78922 0
M  V30 12124 H 1170.38 -0.166089 2.54158 0
M  V30 12125 H 1171.17 1.3959 3.13639 0
M  V30 12126 N 1173.61 -1.56489 0.186789 0
M  V30 12127 C 1174.54 -2.21705 -0.732739 0
M  V30 12128 C 1175.52 -1.17751 -1.22755 0
M  V30 12129 O 1176.71 -1.46231 -1.27789 0
M  V30 12130 C 1173.84 -2.86992 -1.95584 0
M  V30 12131 C 1172.79 -3.97118 -1.59628 0
M  V30 12132 C 1172.12 -4.49529 -2.89531 0
M  V30 12133 C 1173.42 -5.15941 -0.812518 0
M  V30 12134 H 1175.11 -2.98802 -0.189094 0
M  V30 12135 H 1172.66 -1.43722 -0.0895099 0
M  V30 12136 H 1174.61 -3.31295 -2.60426 0
M  V30 12137 H 1173.33 -2.07287 -2.52388 0
M  V30 12138 H 1171.99 -3.53494 -0.971475 0
M  V30 12139 H 1171.64 -3.66596 -3.44407 0
M  V30 12140 H 1171.34 -5.23832 -2.66221 0
M  V30 12141 H 1172.87 -4.96528 -3.55376 0
M  V30 12142 H 1174.28 -5.56841 -1.36386 0
M  V30 12143 H 1172.68 -5.96259 -0.677862 0
M  V30 12144 H 1173.75 -4.84535 0.188095 0
M  V30 12145 N 1175.09 0.086862 -1.5736 0
M  V30 12146 C 1176.02 1.10538 -2.05678 0
M  V30 12147 C 1177 1.41281 -0.947293 0
M  V30 12148 O 1178.19 1.51169 -1.21908 0
M  V30 12149 C 1175.32 2.42302 -2.48812 0
M  V30 12150 C 1174.27 2.25948 -3.63499 0
M  V30 12151 C 1173.6 3.62961 -3.92637 0
M  V30 12152 C 1174.9 1.69319 -4.94094 0
M  V30 12153 H 1176.59 0.703371 -2.91021 0
M  V30 12154 H 1174.14 0.336895 -1.40004 0
M  V30 12155 H 1176.09 3.13833 -2.81224 0
M  V30 12156 H 1174.81 2.84454 -1.60479 0
M  V30 12157 H 1173.47 1.5686 -3.31347 0
M  V30 12158 H 1173.12 4.02656 -3.01459 0
M  V30 12159 H 1172.82 3.52862 -4.69853 0
M  V30 12160 H 1174.34 4.35946 -4.27531 0
M  V30 12161 H 1175.76 2.30699 -5.24834 0
M  V30 12162 H 1174.15 1.69957 -5.7553 0
M  V30 12163 H 1175.22 0.653318 -4.80479 0
M  V30 12164 N 1176.57 1.53483 0.357892 0
M  V30 12165 C 1177.81 1.71743 1.10832 0
M  V30 12166 C 1178.17 0.463303 1.86326 0
M  V30 12167 O 1179.37 0.522715 2.63669 0
M  V30 12168 C 1177.64 2.93741 2.03595 0
M  V30 12169 S 1179.2 3.32744 2.86054 0
M  V30 12170 H 1176.02 0.604247 0.374709 0
M  V30 12171 H 1178.62 1.916 0.388565 0
M  V30 12172 H 1177.33 3.83205 1.46909 0
M  V30 12173 H 1176.86 2.76309 2.8003 0
M  V30 12174 H 1178.87 2.85358 4.05938 0
M  V30 12175 N 1178.05 -0.61812 1.44973 0
M  V30 12176 C 1179.27 -1.40921 1.52171 0
M  V30 12177 C 1179.7 -1.87487 0.151755 0
M  V30 12178 O 1179.05 -1.59518 -0.861606 0
M  V30 12179 C 1179.1 -2.59689 2.50188 0
M  V30 12180 O 1178.21 -3.59967 2.0124 0
M  V30 12181 H 1177.55 -0.421138 0.51336 0
M  V30 12182 H 1180.08 -0.753258 1.90229 0
M  V30 12183 H 1180.09 -3.07069 2.6865 0
M  V30 12184 H 1178.76 -2.25144 3.4969 0
M  V30 12185 H 1177.34 -3.19308 1.92605 0
M  V30 12186 N 1179.52 -1.32087 -0.859693 0
M  V30 12187 C 1180.75 -1.25167 -1.64368 0
M  V30 12188 C 1181.16 0.183572 -1.88307 0
M  V30 12189 O 1180.5 1.12945 -1.44876 0
M  V30 12190 C 1180.57 -1.93641 -3.02892 0
M  V30 12191 C 1180.23 -3.4298 -3.02017 0
M  V30 12192 C 1181.23 -4.38551 -2.79229 0
M  V30 12193 C 1178.91 -3.84835 -3.22812 0
M  V30 12194 C 1180.91 -5.73952 -2.77232 0
M  V30 12195 C 1178.59 -5.20346 -3.20442 0
M  V30 12196 C 1179.59 -6.14716 -2.97681 0
M  V30 12197 O 1179.28 -7.47748 -2.95175 0
M  V30 12198 H 1179.01 -0.433327 -0.518848 0
M  V30 12199 H 1181.57 -1.7468 -1.08055 0
M  V30 12200 H 1179.8 -1.3869 -3.60974 0
M  V30 12201 H 1181.48 -1.80497 -3.63559 0
M  V30 12202 H 1182.25 -4.07542 -2.62935 0
M  V30 12203 H 1178.13 -3.11806 -3.39555 0
M  V30 12204 H 1181.67 -6.47584 -2.59385 0
M  V30 12205 H 1177.57 -5.50987 -3.36279 0
M  V30 12206 H 1178.34 -7.57046 -3.11165 0
M  V30 12207 N 1181 1.07532 -1.15215 0
M  V30 12208 C 1182.25 1.80093 -0.925891 0
M  V30 12209 C 1182.58 1.86648 0.547079 0
M  V30 12210 O 1181.83 1.34492 1.42164 0
M  V30 12211 C 1182.13 3.2518 -1.483 0
M  V30 12212 C 1181.8 3.38728 -2.97614 0
M  V30 12213 C 1180.46 3.42133 -3.38376 0
M  V30 12214 C 1182.81 3.41676 -3.93583 0
M  V30 12215 C 1180.14 3.46086 -4.73752 0
M  V30 12216 C 1182.49 3.47166 -5.28828 0
M  V30 12217 C 1181.15 3.48847 -5.69089 0
M  V30 12218 H 1180.42 0.659007 -0.338808 0
M  V30 12219 H 1183.07 1.26548 -1.43728 0
M  V30 12220 H 1181.38 3.81493 -0.892751 0
M  V30 12221 H 1183.07 3.79895 -1.28376 0
M  V30 12222 H 1179.66 3.36775 -2.65105 0
M  V30 12223 H 1183.85 3.38268 -3.63165 0
M  V30 12224 H 1179.1 3.45686 -5.04293 0
M  V30 12225 H 1183.28 3.48393 -6.02989 0
M  V30 12226 H 1180.9 3.51663 -6.73971 0
M  V30 12227 N 1182.48 0.948665 1.2585 0
M  V30 12228 C 1183.73 0.600236 1.934 0
M  V30 12229 C 1184.06 -0.86185 1.74363 0
M  V30 12230 O 1183.31 -1.63294 1.07858 0
M  V30 12231 C 1183.61 0.89784 3.45939 0
M  V30 12232 C 1183.28 2.345 3.85124 0
M  V30 12233 C 1181.94 2.74058 3.95532 0
M  V30 12234 C 1184.29 3.2851 4.04636 0
M  V30 12235 C 1181.62 4.06707 4.22855 0
M  V30 12236 C 1183.97 4.60764 4.3345 0
M  V30 12237 C 1182.63 5.00127 4.42074 0
M  V30 12238 H 1181.9 0.219642 0.707699 0
M  V30 12239 H 1184.55 1.19658 1.49513 0
M  V30 12240 H 1182.86 0.219037 3.91187 0
M  V30 12241 H 1184.55 0.606916 3.96381 0
M  V30 12242 H 1181.14 2.02819 3.77574 0
M  V30 12243 H 1185.33 2.99141 3.96015 0
M  V30 12244 H 1180.58 4.36856 4.27746 0
M  V30 12245 H 1184.76 5.33594 4.47493 0
M  V30 12246 H 1182.38 6.02939 4.63 0
M  V30 12247 N 1183.96 -1.40369 0.716545 0
M  V30 12248 C 1184.87 -2.34508 0.065658 0
M  V30 12249 C 1185.88 -1.57352 -0.742723 0
M  V30 12250 O 1187.06 -1.89735 -0.675456 0
M  V30 12251 C 1184.13 -3.36262 -0.844337 0
M  V30 12252 C 1183.19 -4.29292 -0.0257971 0
M  V30 12253 C 1182.42 -5.26185 -0.892452 0
M  V30 12254 O 1182.64 -5.29071 -2.13166 0
M  V30 12255 O 1181.58 -6.0099 -0.330933 0
M  V30 12256 H 1185.4 -2.91789 0.842184 0
M  V30 12257 H 1182.99 -1.41579 0.477034 0
M  V30 12258 H 1184.87 -3.98661 -1.36555 0
M  V30 12259 H 1183.54 -2.81393 -1.59999 0
M  V30 12260 H 1182.45 -3.70175 0.540512 0
M  V30 12261 H 1183.78 -4.87316 0.69166 0
M  V30 12262 N 1185.44 -0.462799 -1.50652 0
M  V30 12263 C 1186.4 0.324264 -2.26895 0
M  V30 12264 C 1187.4 0.927687 -1.31342 0
M  V30 12265 O 1188.59 0.798159 -1.54839 0
M  V30 12266 C 1185.72 1.46113 -3.08 0
M  V30 12267 H 1186.91 -0.344266 -2.97917 0
M  V30 12268 H 1184.47 -0.216631 -1.54791 0
M  V30 12269 H 1185.2 2.16496 -2.41454 0
M  V30 12270 H 1184.99 1.03433 -3.78212 0
M  V30 12271 H 1186.48 2.01655 -3.65684 0
M  V30 12272 N 1186.91 1.56388 -0.195085 0
M  V30 12273 C 1187.82 2.22698 0.737743 0
M  V30 12274 C 1188.84 1.22605 1.23466 0
M  V30 12275 O 1190.02 1.55342 1.28183 0
M  V30 12276 C 1187.08 2.87333 1.94011 0
M  V30 12277 C 1186.14 4.02696 1.48776 0
M  V30 12278 C 1185.38 4.64239 2.63282 0
M  V30 12279 O 1185.6 4.24706 3.80763 0
M  V30 12280 O 1184.53 5.53705 2.35996 0
M  V30 12281 H 1188.36 3.03021 0.203013 0
M  V30 12282 H 1185.94 1.49361 0.0342044 0
M  V30 12283 H 1187.83 3.28226 2.64284 0
M  V30 12284 H 1186.5 2.0999 2.46345 0
M  V30 12285 H 1185.41 3.66426 0.753839 0
M  V30 12286 H 1186.74 4.81703 1.01109 0
M  V30 12287 N 1188.39 -0.0785156 1.57404 0
M  V30 12288 C 1189.8 -0.631132 1.75709 0
M  V30 12289 C 1190.15 -1.78261 0.819605 0
M  V30 12290 O 1189.28 -2.164 0.00206912 0
M  V30 12291 C 1189.87 -1.15168 3.18625 0
M  V30 12292 C 1188.43 -1.65021 3.38297 0
M  V30 12293 C 1187.58 -0.566773 2.71446 0
M  V30 12294 H 1190.53 0.147631 1.58012 0
M  V30 12295 H 1190.55 -2.02065 3.22413 0
M  V30 12296 H 1190.06 -0.313399 3.86833 0
M  V30 12297 H 1188.17 -2.51196 2.75194 0
M  V30 12298 H 1188.28 -1.73179 4.46706 0
M  V30 12299 H 1186.64 -1.01021 2.33809 0
M  V30 12300 H 1187.43 0.261204 3.42305 0
M  V30 12301 N 1189.87 -1.5367 -0.349747 0
M  V30 12302 C 1191.29 -1.43796 -0.692457 0
M  V30 12303 C 1191.49 -0.58972 -1.92677 0
M  V30 12304 O 1190.54 -0.078294 -2.52379 0
M  V30 12305 C 1191.86 -2.872 -0.890881 0
M  V30 12306 C 1193.4 -2.96935 -0.989892 0
M  V30 12307 C 1193.88 -4.41433 -1.22068 0
M  V30 12308 N 1195.37 -4.44932 -1.28802 0
M  V30 12309 C 1196.1 -5.53864 -1.48398 0
M  V30 12310 N 1195.6 -6.72814 -1.65208 0
M  V30 12311 N 1197.39 -5.41467 -1.50896 0
M  V30 12312 H 1189.54 -2.07317 0.461895 0
M  V30 12313 H 1191.81 -0.936895 0.144681 0
M  V30 12314 H 1191.51 -3.51656 -0.0555095 0
M  V30 12315 H 1191.39 -3.31784 -1.79442 0
M  V30 12316 H 1193.77 -2.32622 -1.81579 0
M  V30 12317 H 1193.86 -2.55721 -0.0633906 0
M  V30 12318 H 1193.5 -5.06325 -0.399729 0
M  V30 12319 H 1193.43 -4.80233 -2.16064 0
M  V30 12320 H 1195.92 -3.59214 -1.17361 0
M  V30 12321 H 1196.23 -7.51598 -1.79779 0
M  V30 12322 H 1194.58 -6.7577 -1.62356 0
M  V30 12323 H 1197.77 -4.47498 -1.37342 0
M  V30 12324 H 1197.94 -6.26423 -1.65826 0
M  V30 12325 N 1191.35 0.610423 -1.45298 0
M  V30 12326 C 1192.28 1.73507 -1.4976 0
M  V30 12327 C 1193.29 1.58092 -0.38867 0
M  V30 12328 O 1194.48 1.66026 -0.655571 0
M  V30 12329 C 1191.58 3.11475 -1.33554 0
M  V30 12330 C 1190.76 3.53156 -2.5807 0
M  V30 12331 C 1189.81 4.70076 -2.36463 0
M  V30 12332 O 1188.84 4.77337 -3.10061 0
M  V30 12333 N 1190.04 5.63155 -1.40843 0
M  V30 12334 H 1192.81 1.70144 -2.46721 0
M  V30 12335 H 1190.37 0.79562 -1.41002 0
M  V30 12336 H 1192.36 3.87444 -1.16914 0
M  V30 12337 H 1190.93 3.09361 -0.448803 0
M  V30 12338 H 1190.15 2.67178 -2.89844 0
M  V30 12339 H 1191.44 3.77761 -3.40843 0
M  V30 12340 H 1190.84 5.60001 -0.800982 0
M  V30 12341 H 1189.39 6.38669 -1.30175 0
M  V30 12342 N 1192.83 1.32541 0.852676 0
M  V30 12343 C 1193.78 1.18224 1.94954 0
M  V30 12344 C 1194.76 0.0886514 1.60656 0
M  V30 12345 O 1195.95 0.315359 1.74168 0
M  V30 12346 C 1193.08 0.909484 3.31034 0
M  V30 12347 C 1192.17 2.04486 3.71546 0
M  V30 12348 N 1192.56 3.29362 3.83868 0
M  V30 12349 C 1190.86 1.94848 4.01186 0
M  V30 12350 C 1191.56 4.0374 4.18771 0
M  V30 12351 N 1190.53 3.32054 4.30396 0
M  V30 12352 H 1194.34 2.12893 2.02617 0
M  V30 12353 H 1191.85 1.24349 1.04456 0
M  V30 12354 H 1193.85 0.787865 4.09388 0
M  V30 12355 H 1192.51 -0.0288163 3.24687 0
M  V30 12356 H 1193.52 3.64274 3.68137 0
M  V30 12357 H 1190.19 1.08591 4.0313 0
M  V30 12358 H 1191.58 5.11434 4.35757 0
M  V30 12359 N 1194.3 -1.0692 1.15784 0
M  V30 12360 C 1195.23 -2.16216 0.881649 0
M  V30 12361 C 1196.22 -1.69253 -0.16951 0
M  V30 12362 O 1197.4 -1.94186 -0.0229511 0
M  V30 12363 C 1194.53 -3.4527 0.374982 0
M  V30 12364 C 1193.48 -4.05706 1.36332 0
M  V30 12365 C 1192.81 -5.29894 0.715317 0
M  V30 12366 C 1194.11 -4.45224 2.7308 0
M  V30 12367 H 1195.8 -2.39577 1.79563 0
M  V30 12368 H 1193.35 -1.15141 0.864784 0
M  V30 12369 H 1195.3 -4.2106 0.169279 0
M  V30 12370 H 1194.03 -3.21508 -0.574485 0
M  V30 12371 H 1192.69 -3.31965 1.55546 0
M  V30 12372 H 1192.33 -5.02425 -0.240436 0
M  V30 12373 H 1192.03 -5.71287 1.37494 0
M  V30 12374 H 1193.56 -6.08386 0.519489 0
M  V30 12375 H 1194.97 -5.12124 2.57686 0
M  V30 12376 H 1193.37 -4.97583 3.35457 0
M  V30 12377 H 1194.44 -3.56384 3.28813 0
M  V30 12378 N 1195.78 -0.955326 -1.25345 0
M  V30 12379 C 1197.01 -0.626783 -1.96863 0
M  V30 12380 C 1197.42 0.80547 -1.71198 0
M  V30 12381 O 1196.76 1.55049 -0.985163 0
M  V30 12382 C 1196.83 -0.806404 -3.50339 0
M  V30 12383 C 1196.49 -2.21595 -3.99681 0
M  V30 12384 C 1197.49 -3.19268 -4.10322 0
M  V30 12385 C 1195.17 -2.54032 -4.33328 0
M  V30 12386 C 1197.17 -4.47471 -4.53926 0
M  V30 12387 C 1194.85 -3.82465 -4.76617 0
M  V30 12388 C 1195.85 -4.78997 -4.86879 0
M  V30 12389 O 1195.54 -6.0514 -5.29208 0
M  V30 12390 H 1195.27 -0.233854 -0.634262 0
M  V30 12391 H 1197.82 -1.28232 -1.60455 0
M  V30 12392 H 1196.05 -0.0937184 -3.86586 0
M  V30 12393 H 1197.74 -0.47881 -4.03066 0
M  V30 12394 H 1198.51 -2.95534 -3.84558 0
M  V30 12395 H 1194.39 -1.79623 -4.24566 0
M  V30 12396 H 1197.93 -5.22819 -4.6185 0
M  V30 12397 H 1193.83 -4.06005 -5.01827 0
M  V30 12398 H 1194.6 -6.08527 -5.47392 0
M  V30 12399 N 1197.26 1.39987 -0.723979 0
M  V30 12400 C 1198.49 2.0556 -0.275634 0
M  V30 12401 C 1198.91 1.54207 1.07711 0
M  V30 12402 O 1198.27 0.681041 1.68022 0
M  V30 12403 C 1198.32 3.59551 -0.27485 0
M  V30 12404 O 1197.42 4.05685 0.741182 0
M  V30 12405 H 1196.76 0.651634 -0.12755 0
M  V30 12406 H 1199.29 1.79229 -0.986814 0
M  V30 12407 H 1199.3 4.07837 -0.115425 0
M  V30 12408 H 1197.98 3.96291 -1.26198 0
M  V30 12409 H 1196.55 3.6884 0.548795 0
M  V30 12410 N 1198.74 0.470782 1.50404 0
M  V30 12411 C 1199.99 -0.0844409 2.02624 0
M  V30 12412 C 1200.32 -1.39398 1.3521 0
M  V30 12413 O 1199.59 -1.88542 0.477707 0
M  V30 12414 C 1199.88 -0.268563 3.59097 0
M  V30 12415 C 1199.73 1.06198 4.37084 0
M  V30 12416 C 1201.05 -1.02324 4.28039 0
M  V30 12417 H 1198.17 -0.0292141 0.736421 0
M  V30 12418 H 1200.81 0.616312 1.79726 0
M  V30 12419 H 1198.96 -0.865441 3.78738 0
M  V30 12420 H 1200.63 1.69541 4.29015 0
M  V30 12421 H 1198.87 1.65868 4.00837 0
M  V30 12422 H 1199.55 0.886795 5.4483 0
M  V30 12423 H 1202.02 -0.517325 4.12872 0
M  V30 12424 H 1200.9 -1.12087 5.37334 0
M  V30 12425 H 1201.16 -2.05974 3.91187 0
M  V30 12426 N 1200.22 -1.56282 0.203376 0
M  V30 12427 C 1201.46 -1.97812 -0.433202 0
M  V30 12428 C 1201.79 -1.09052 -1.61053 0
M  V30 12429 O 1201.05 -0.131417 -1.95258 0
M  V30 12430 C 1201.35 -3.45148 -0.927759 0
M  V30 12431 C 1201.01 -4.50692 0.137083 0
M  V30 12432 C 1199.67 -4.79278 0.429652 0
M  V30 12433 C 1202.03 -5.14086 0.858174 0
M  V30 12434 C 1199.35 -5.68547 1.44815 0
M  V30 12435 C 1201.71 -6.04457 1.86588 0
M  V30 12436 C 1200.37 -6.31395 2.16556 0
M  V30 12437 H 1199.64 -0.723846 -0.15852 0
M  V30 12438 H 1202.29 -1.89102 0.302082 0
M  V30 12439 H 1200.59 -3.5097 -1.74147 0
M  V30 12440 H 1202.29 -3.74642 -1.42984 0
M  V30 12441 H 1198.88 -4.28481 -0.101111 0
M  V30 12442 H 1203.06 -4.92086 0.645376 0
M  V30 12443 H 1198.32 -5.87689 1.68615 0
M  V30 12444 H 1202.49 -6.52636 2.4298 0
M  V30 12445 H 1200.12 -7.00366 2.9562 0
M  V30 12446 N 1201.7 0.070167 -1.57444 0
M  V30 12447 C 1202.97 0.802108 -1.78397 0
M  V30 12448 C 1203.35 1.95706 -0.791356 0
M  V30 12449 O 1202.7 2.27827 0.17518 0
M  V30 12450 C 1202.91 1.27354 -3.24934 0
M  V30 12451 C 1204.26 1.70626 -3.88808 0
M  V30 12452 O 1205.28 1.36916 -3.28835 0
M  V30 12453 O 1204.14 2.33041 -4.94322 0
M  V30 12454 H 1201.24 0.384483 -0.73219 0
M  V30 12455 H 1203.78 0.0501168 -1.69626 0
M  V30 12456 H 1202.55 0.447204 -3.88736 0
M  V30 12457 H 1202.18 2.0868 -3.38435 0
M  V30 12458 N 1203.17 1.53854 0.341593 0
M  V30 12459 C 1204.59 1.44161 0.684821 0
M  V30 12460 C 1204.79 0.599929 1.92362 0
M  V30 12461 O 1203.85 0.0916771 2.52334 0
M  V30 12462 C 1205.16 2.87668 0.875637 0
M  V30 12463 C 1206.71 2.97455 0.974131 0
M  V30 12464 C 1207.18 4.42075 1.19725 0
M  V30 12465 N 1208.67 4.45609 1.2644 0
M  V30 12466 C 1209.41 5.54643 1.45459 0
M  V30 12467 N 1208.9 6.7368 1.61637 0
M  V30 12468 N 1210.7 5.4226 1.48022 0
M  V30 12469 H 1202.85 2.07069 -0.472883 0
M  V30 12470 H 1205.11 0.936114 -0.149648 0
M  V30 12471 H 1204.82 3.51681 0.0368595 0
M  V30 12472 H 1204.69 3.32731 1.7768 0
M  V30 12473 H 1207.08 2.33582 1.80343 0
M  V30 12474 H 1207.16 2.55751 0.0498282 0
M  V30 12475 H 1206.8 5.06529 0.372872 0
M  V30 12476 H 1206.73 4.81372 2.13515 0
M  V30 12477 H 1209.22 3.59831 1.15455 0
M  V30 12478 H 1209.54 7.52541 1.7579 0
M  V30 12479 H 1207.88 6.76622 1.5877 0
M  V30 12480 H 1211.07 4.48221 1.34966 0
M  V30 12481 H 1211.25 6.27293 1.62502 0
M  V30 12482 N 1204.65 -0.602709 1.4562 0
M  V30 12483 C 1205.61 -1.69508 1.54271 0
M  V30 12484 C 1206.61 -1.55171 0.421727 0
M  V30 12485 O 1207.8 -1.60151 0.685375 0
M  V30 12486 C 1204.94 -3.0881 1.44392 0
M  V30 12487 H 1206.13 -1.63203 2.51605 0
M  V30 12488 H 1203.68 -0.818857 1.33133 0
M  V30 12489 H 1204.42 -3.20689 0.482614 0
M  V30 12490 H 1204.2 -3.20625 2.25704 0
M  V30 12491 H 1205.69 -3.8837 1.53488 0
M  V30 12492 N 1206.13 -1.32992 -0.845635 0
M  V30 12493 C 1207.36 -1.27087 -1.63268 0
M  V30 12494 C 1207.77 0.159481 -1.88125 0
M  V30 12495 O 1207.13 1.09948 -1.45663 0
M  V30 12496 C 1207.18 -2.03649 -2.98679 0
M  V30 12497 O 1206.9 -3.41104 -2.74918 0
M  V30 12498 C 1208.4 -2.04875 -3.93117 0
M  V30 12499 H 1205.62 -0.438107 -0.508236 0
M  V30 12500 H 1208.17 -1.75257 -1.05381 0
M  V30 12501 H 1206.32 -1.59178 -3.53187 0
M  V30 12502 H 1206.74 -3.80405 -3.61099 0
M  V30 12503 H 1208.21 -2.62911 -4.85368 0
M  V30 12504 H 1208.69 -1.03728 -4.26775 0
M  V30 12505 H 1209.29 -2.49334 -3.44547 0
M  V30 12506 N 1207.61 1.06304 -1.1635 0
M  V30 12507 C 1208.83 1.83338 -0.969639 0
M  V30 12508 C 1209.26 1.81945 0.477231 0
M  V30 12509 O 1208.62 1.22018 1.34094 0
M  V30 12510 C 1208.66 3.2785 -1.50155 0
M  V30 12511 O 1207.77 4.06281 -0.707805 0
M  V30 12512 H 1207.11 0.567293 -0.345072 0
M  V30 12513 H 1209.64 1.34033 -1.54584 0
M  V30 12514 H 1209.65 3.7867 -1.51898 0
M  V30 12515 H 1208.32 3.28179 -2.55483 0
M  V30 12516 H 1206.9 3.65055 -0.760872 0
M  V30 12517 N 1209.09 0.96196 1.24836 0
M  V30 12518 C 1210.03 0.48686 2.25607 0
M  V30 12519 C 1211 -0.464546 1.59472 0
M  V30 12520 O 1212.19 -0.376179 1.87055 0
M  V30 12521 C 1209.33 -0.222294 3.44383 0
M  V30 12522 C 1208.44 0.767206 4.25133 0
M  V30 12523 C 1207.58 0.0347458 5.31189 0
M  V30 12524 C 1206.61 1.01469 6.03631 0
M  V30 12525 N 1205.75 0.312619 7.01404 0
M  V30 12526 H 1210.59 1.35104 2.65614 0
M  V30 12527 H 1208.13 0.677373 1.30576 0
M  V30 12528 H 1210.09 -0.650087 4.12104 0
M  V30 12529 H 1208.72 -1.05047 3.0523 0
M  V30 12530 H 1207.77 1.31346 3.57005 0
M  V30 12531 H 1209.08 1.5147 4.75245 0
M  V30 12532 H 1208.23 -0.451325 6.05019 0
M  V30 12533 H 1206.97 -0.745485 4.81969 0
M  V30 12534 H 1205.98 1.51169 5.28609 0
M  V30 12535 H 1207.2 1.79527 6.5494 0
M  V30 12536 H 1205.15 -0.44874 6.54463 0
M  V30 12537 H 1205.07 0.999079 7.49369 0
M  V30 12538 H 1206.33 -0.151673 7.79352 0
M  V30 12539 N 1210.56 -1.39601 0.731392 0
M  V30 12540 C 1211.81 -2.00883 0.278168 0
M  V30 12541 C 1212.14 -1.57897 -1.13059 0
M  V30 12542 O 1211.42 -0.806203 -1.77005 0
M  V30 12543 C 1211.7 -3.58132 0.375969 0
M  V30 12544 C 1211.55 -4.11147 1.82423 0
M  V30 12545 C 1212.87 -4.39425 -0.243702 0
M  V30 12546 H 1209.99 -0.729831 0.102549 0
M  V30 12547 H 1212.63 -1.65859 0.926869 0
M  V30 12548 H 1210.78 -3.881 -0.176329 0
M  V30 12549 H 1212.46 -3.91914 2.43313 0
M  V30 12550 H 1210.7 -3.64842 2.34675 0
M  V30 12551 H 1211.37 -5.20291 1.84396 0
M  V30 12552 H 1213.85 -4.1548 0.227067 0
M  V30 12553 H 1212.72 -5.48709 -0.144907 0
M  V30 12554 H 1212.98 -4.21642 -1.32929 0
M  V30 12555 N 1212.04 -0.478751 -1.50152 0
M  V30 12556 C 1213.27 0.0710485 -2.06778 0
M  V30 12557 C 1213.69 1.32826 -1.34174 0
M  V30 12558 O 1213.04 1.77758 -0.413304 0
M  V30 12559 C 1213.09 0.351351 -3.59789 0
M  V30 12560 O 1212.81 -0.855998 -4.29656 0
M  V30 12561 C 1214.32 0.947269 -4.33061 0
M  V30 12562 H 1211.54 -0.0105032 -0.670918 0
M  V30 12563 H 1214.08 -0.669732 -1.93222 0
M  V30 12564 H 1212.23 1.04207 -3.73121 0
M  V30 12565 H 1212.65 -0.605252 -5.20996 0
M  V30 12566 H 1214.12 1.09312 -5.41068 0
M  V30 12567 H 1214.6 1.93937 -3.94062 0
M  V30 12568 H 1215.21 0.294693 -4.24278 0
M  V30 12569 N 1213.52 1.56172 -0.211661 0
M  V30 12570 C 1214.43 2.23468 0.714081 0
M  V30 12571 C 1215.45 1.23908 1.22159 0
M  V30 12572 O 1216.62 1.56693 1.26528 0
M  V30 12573 C 1213.69 2.89375 1.90953 0
M  V30 12574 C 1212.75 4.04251 1.44497 0
M  V30 12575 C 1211.98 4.67006 2.58343 0
M  V30 12576 O 1212.2 4.28721 3.76237 0
M  V30 12577 O 1211.14 5.56177 2.3011 0
M  V30 12578 H 1214.96 3.03219 0.170862 0
M  V30 12579 H 1212.55 1.49389 0.0183607 0
M  V30 12580 H 1214.43 3.3101 2.60787 0
M  V30 12581 H 1213.11 2.12591 2.44104 0
M  V30 12582 H 1212.01 3.67205 0.714932 0
M  V30 12583 H 1213.35 4.82748 0.959947 0
M  V30 12584 N 1215 -0.0618163 1.57479 0
M  V30 12585 C 1216.24 -0.760193 1.88013 0
M  V30 12586 C 1216.58 -1.76718 0.805258 0
M  V30 12587 O 1215.85 -1.93633 -0.183408 0
M  V30 12588 C 1216.14 -1.45924 3.29208 0
M  V30 12589 C 1215.99 -0.467994 4.47359 0
M  V30 12590 C 1217.31 -2.40166 3.68793 0
M  V30 12591 H 1214.43 -0.274896 0.683814 0
M  V30 12592 H 1217.07 -0.0232433 1.89986 0
M  V30 12593 H 1215.22 -2.08741 3.27657 0
M  V30 12594 H 1216.89 0.155735 4.61037 0
M  V30 12595 H 1215.13 0.215797 4.33263 0
M  V30 12596 H 1215.8 -0.994942 5.42959 0
M  V30 12597 H 1218.28 -1.87419 3.71501 0
M  V30 12598 H 1217.16 -2.86076 4.68457 0
M  V30 12599 H 1217.42 -3.25413 2.99264 0
M  V30 12600 N 1216.48 -1.54033 -0.333429 0
M  V30 12601 C 1217.72 -1.72958 -1.07038 0
M  V30 12602 C 1218.08 -0.492055 -1.86002 0
M  V30 12603 O 1217.37 0.515453 -1.84536 0
M  V30 12604 C 1217.56 -2.93926 -2.03328 0
M  V30 12605 C 1217.39 -4.29324 -1.33831 0
M  V30 12606 C 1216.16 -4.93647 -1.07892 0
M  V30 12607 C 1218.36 -5.08664 -0.75929 0
M  V30 12608 N 1216.34 -6.12897 -0.35082 0
M  V30 12609 C 1217.71 -6.19788 -0.162281 0
M  V30 12610 C 1219.77 -4.93491 -0.661131 0
M  V30 12611 C 1218.47 -7.17394 0.523351 0
M  V30 12612 C 1220.5 -5.91399 0.0107794 0
M  V30 12613 C 1219.86 -7.01867 0.596775 0
M  V30 12614 H 1215.96 -0.685828 -0.375718 0
M  V30 12615 H 1218.54 -1.91478 -0.35274 0
M  V30 12616 H 1216.71 -2.76889 -2.72373 0
M  V30 12617 H 1218.45 -3.01524 -2.69936 0
M  V30 12618 H 1215.2 -4.53392 -1.36868 0
M  V30 12619 H 1215.63 -6.77 -0.00120039 0
M  V30 12620 H 1220.27 -4.08242 -1.09991 0
M  V30 12621 H 1217.99 -8.02209 0.973994 0
M  V30 12622 H 1221.57 -5.81736 0.0862353 0
M  V30 12623 H 1220.45 -7.76327 1.10845 0
M  V30 12624 N 1217.95 0.594978 -1.45938 0
M  V30 12625 C 1219.18 1.37994 -1.5416 0
M  V30 12626 C 1219.6 1.87954 -0.17848 0
M  V30 12627 O 1218.95 1.62932 0.822161 0
M  V30 12628 C 1219.01 2.57586 -2.53637 0
M  V30 12629 O 1218.73 2.09698 -3.84653 0
M  V30 12630 C 1220.23 3.50292 -2.71681 0
M  V30 12631 H 1217.45 0.421983 -0.5217 0
M  V30 12632 H 1219.99 0.724459 -1.91238 0
M  V30 12633 H 1218.15 3.19149 -2.19597 0
M  V30 12634 H 1218.56 2.87492 -4.3869 0
M  V30 12635 H 1220.03 4.30717 -3.45234 0
M  V30 12636 H 1220.51 4.01444 -1.78156 0
M  V30 12637 H 1221.12 2.94573 -3.06768 0
M  V30 12638 N 1219.43 1.33438 0.838571 0
M  V30 12639 C 1220.36 1.26344 1.96365 0
M  V30 12640 C 1221.34 0.143956 1.6949 0
M  V30 12641 O 1222.53 0.333779 1.9131 0
M  V30 12642 C 1219.66 1.0022 3.32526 0
M  V30 12643 C 1218.61 2.08466 3.73799 0
M  V30 12644 C 1217.94 1.67555 5.07769 0
M  V30 12645 C 1219.24 3.50144 3.87552 0
M  V30 12646 H 1220.93 2.20478 2.02558 0
M  V30 12647 H 1218.48 1.06139 0.973168 0
M  V30 12648 H 1220.43 0.939068 4.10803 0
M  V30 12649 H 1219.16 0.0252514 3.2659 0
M  V30 12650 H 1217.81 2.13822 2.97785 0
M  V30 12651 H 1217.46 0.685619 4.98305 0
M  V30 12652 H 1217.16 2.39993 5.36356 0
M  V30 12653 H 1218.69 1.62708 5.88522 0
M  V30 12654 H 1220.1 3.47287 4.56141 0
M  V30 12655 H 1218.5 4.21069 4.27575 0
M  V30 12656 H 1219.57 3.88628 2.89994 0
M  V30 12657 N 1220.91 -1.05686 1.16912 0
M  V30 12658 C 1222.32 -1.60059 0.961153 0
M  V30 12659 C 1222.67 -1.89894 -0.493409 0
M  V30 12660 O 1221.8 -1.67692 -1.36778 0
M  V30 12661 C 1222.39 -2.90803 1.73837 0
M  V30 12662 C 1220.95 -3.41854 1.57522 0
M  V30 12663 C 1220.1 -2.15658 1.74319 0
M  V30 12664 H 1223.05 -0.885592 1.31693 0
M  V30 12665 H 1223.07 -3.60485 1.21781 0
M  V30 12666 H 1222.58 -2.69056 2.79697 0
M  V30 12667 H 1220.68 -3.68647 0.541284 0
M  V30 12668 H 1220.8 -4.16771 2.36302 0
M  V30 12669 H 1219.16 -2.26177 1.17115 0
M  V30 12670 H 1219.94 -1.96386 2.8158 0
M  V30 12671 N 1222.39 -0.968567 -1.24324 0
M  V30 12672 C 1223.32 -0.457247 -2.24593 0
M  V30 12673 C 1224.33 0.434483 -1.56895 0
M  V30 12674 O 1225.52 0.240519 -1.76872 0
M  V30 12675 C 1222.62 0.359086 -3.36992 0
M  V30 12676 C 1221.8 -0.522945 -4.34263 0
M  V30 12677 C 1220.85 0.237528 -5.25664 0
M  V30 12678 O 1219.88 -0.368835 -5.68004 0
M  V30 12679 N 1221.08 1.52686 -5.6006 0
M  V30 12680 H 1223.85 -1.31934 -2.69098 0
M  V30 12681 H 1221.41 -0.840488 -1.38374 0
M  V30 12682 H 1223.4 0.87589 -3.95108 0
M  V30 12683 H 1221.97 1.12212 -2.91766 0
M  V30 12684 H 1221.19 -1.22071 -3.74823 0
M  V30 12685 H 1222.48 -1.12447 -4.96219 0
M  V30 12686 H 1221.88 2.0412 -5.2759 0
M  V30 12687 H 1220.43 1.98934 -6.207 0
M  V30 12688 N 1223.87 1.39211 -0.738786 0
M  V30 12689 C 1225.11 2.00733 -0.288817 0
M  V30 12690 C 1225.45 1.58494 1.1222 0
M  V30 12691 O 1224.72 0.815579 1.76575 0
M  V30 12692 C 1225 3.57928 -0.394956 0
M  V30 12693 C 1224.86 4.10174 -1.84601 0
M  V30 12694 C 1226.18 4.39548 0.220395 0
M  V30 12695 H 1223.29 0.729276 -0.106418 0
M  V30 12696 H 1225.94 1.65365 -0.935652 0
M  V30 12697 H 1224.09 3.88188 0.155744 0
M  V30 12698 H 1225.76 3.90618 -2.45388 0
M  V30 12699 H 1224 3.63593 -2.36607 0
M  V30 12700 H 1224.67 5.19305 -1.87152 0
M  V30 12701 H 1227.15 4.15354 -0.249098 0
M  V30 12702 H 1226.02 5.48778 0.115806 0
M  V30 12703 H 1226.29 4.22341 1.30691 0
M  V30 12704 N 1225.34 0.486708 1.49896 0
M  V30 12705 C 1226.31 -0.288126 2.27382 0
M  V30 12706 C 1227.31 -0.906675 1.32801 0
M  V30 12707 O 1228.5 -0.773425 1.56089 0
M  V30 12708 C 1225.63 -1.41194 3.10285 0
M  V30 12709 H 1226.82 0.391618 2.97332 0
M  V30 12710 H 1224.38 0.24123 1.54427 0
M  V30 12711 H 1225.11 -2.12627 2.44868 0
M  V30 12712 H 1224.9 -0.974033 3.79809 0
M  V30 12713 H 1226.39 -1.95812 3.68846 0
M  V30 12714 N 1226.82 -1.56058 0.219941 0
M  V30 12715 C 1228.07 -1.97869 -0.411383 0
M  V30 12716 C 1228.39 -1.10878 -1.60409 0
M  V30 12717 O 1227.66 -0.185454 -1.9502 0
M  V30 12718 H 1226.24 -0.730747 -0.154979 0
M  V30 12719 H 1228.9 -1.92379 0.312461 0
M  V30 12720 H 1228 -3.0323 -0.738798 0
M  V30 12721 N 1228.3 0.053464 -1.57509 0
M  V30 12722 C 1229.23 1.08863 -2.01696 0
M  V30 12723 C 1230.25 1.33916 -0.925765 0
M  V30 12724 O 1231.44 1.31833 -1.20343 0
M  V30 12725 C 1228.54 2.43567 -2.35644 0
M  V30 12726 C 1227.71 2.38215 -3.66841 0
M  V30 12727 C 1226.77 3.55172 -3.88252 0
M  V30 12728 O 1225.79 3.35769 -4.59617 0
M  V30 12729 N 1227 4.76182 -3.3201 0
M  V30 12730 H 1229.76 0.712192 -2.91115 0
M  V30 12731 H 1227.32 0.241829 -1.60084 0
M  V30 12732 H 1229.31 3.20486 -2.47125 0
M  V30 12733 H 1227.88 2.73145 -1.52022 0
M  V30 12734 H 1227.1 1.46557 -3.65943 0
M  V30 12735 H 1228.39 2.31757 -4.52953 0
M  V30 12736 H 1227.79 4.94849 -2.74118 0
M  V30 12737 H 1226.35 5.5055 -3.4891 0
M  V30 12738 N 1229.78 1.54207 0.325255 0
M  V30 12739 C 1231.2 1.44879 0.669492 0
M  V30 12740 C 1231.4 0.620298 1.91715 0
M  V30 12741 O 1230.45 0.118435 2.52222 0
M  V30 12742 C 1231.76 2.88581 0.845077 0
M  V30 12743 C 1233.31 2.98472 0.942527 0
M  V30 12744 C 1233.79 4.4332 1.15029 0
M  V30 12745 N 1235.28 4.46925 1.21707 0
M  V30 12746 C 1236.01 5.56155 1.39568 0
M  V30 12747 N 1235.51 6.75357 1.54483 0
M  V30 12748 N 1237.3 5.43799 1.42263 0
M  V30 12749 H 1229.45 2.06556 -0.494819 0
M  V30 12750 H 1231.72 0.934474 -0.159568 0
M  V30 12751 H 1231.42 3.517 -0.000442996 0
M  V30 12752 H 1231.3 3.34596 1.74141 0
M  V30 12753 H 1233.68 2.35481 1.77855 0
M  V30 12754 H 1233.76 2.5579 0.0226995 0
M  V30 12755 H 1233.41 5.06896 0.319127 0
M  V30 12756 H 1233.34 4.8361 2.08397 0
M  V30 12757 H 1235.83 3.61036 1.11632 0
M  V30 12758 H 1236.14 7.54363 1.67799 0
M  V30 12759 H 1234.49 6.78268 1.51584 0
M  V30 12760 H 1237.68 4.49627 1.30205 0
M  V30 12761 H 1237.85 6.28982 1.5584 0
M  V30 12762 N 1231.26 -0.58723 1.46251 0
M  V30 12763 C 1232.49 -1.36976 1.54665 0
M  V30 12764 C 1232.9 -1.88293 0.185079 0
M  V30 12765 O 1232.24 -1.64028 -0.82707 0
M  V30 12766 C 1232.3 -2.59591 2.48702 0
M  V30 12767 C 1231.96 -2.29773 3.95036 0
M  V30 12768 C 1232.96 -1.88885 4.84374 0
M  V30 12769 C 1230.65 -2.42057 4.40129 0
M  V30 12770 C 1232.64 -1.60669 6.16818 0
M  V30 12771 C 1230.33 -2.13454 5.72609 0
M  V30 12772 C 1231.33 -1.72824 6.60773 0
M  V30 12773 O 1231.01 -1.44569 7.90794 0
M  V30 12774 H 1230.75 -0.424968 0.525717 0
M  V30 12775 H 1233.3 -0.721298 1.92319 0
M  V30 12776 H 1231.53 -3.27226 2.06058 0
M  V30 12777 H 1233.22 -3.21656 2.47573 0
M  V30 12778 H 1233.98 -1.78913 4.50794 0
M  V30 12779 H 1229.86 -2.72644 3.71734 0
M  V30 12780 H 1233.41 -1.28882 6.85591 0
M  V30 12781 H 1229.3 -2.23048 6.05739 0
M  V30 12782 H 1230.07 -1.58452 8.03016 0
M  V30 12783 N 1232.74 -1.33881 -0.831482 0
M  V30 12784 C 1233.98 -1.25507 -1.58406 0
M  V30 12785 C 1234.3 0.177137 -1.94194 0
M  V30 12786 O 1233.57 1.10769 -1.61576 0
M  V30 12787 H 1232.15 -0.461551 -0.587349 0
M  V30 12788 H 1234.82 -1.6769 -0.99328 0
M  V30 12789 H 1233.91 -1.85391 -2.51071 0
M  V30 12790 N 1234.21 1.05064 -1.1747 0
M  V30 12791 C 1235.44 1.82299 -0.98903 0
M  V30 12792 C 1235.86 1.82441 0.457907 0
M  V30 12793 O 1235.22 1.23433 1.32793 0
M  V30 12794 C 1235.27 3.26239 -1.53624 0
M  V30 12795 O 1234.37 4.05507 -0.750857 0
M  V30 12796 H 1233.71 0.563601 -0.35107 0
M  V30 12797 H 1236.24 1.32386 -1.55997 0
M  V30 12798 H 1236.25 3.77038 -1.55906 0
M  V30 12799 H 1234.93 3.25451 -2.58949 0
M  V30 12800 H 1233.51 3.64227 -0.799548 0
M  V30 12801 N 1235.69 0.975146 1.23809 0
M  V30 12802 C 1236.64 0.482305 2.2284 0
M  V30 12803 C 1237.63 -0.439787 1.54773 0
M  V30 12804 O 1238.82 -0.269496 1.74936 0
M  V30 12805 C 1235.95 -0.219056 3.426 0
M  V30 12806 C 1235.03 0.722299 4.17904 0
M  V30 12807 N 1235.42 1.86271 4.70252 0
M  V30 12808 C 1233.72 0.53457 4.42785 0
M  V30 12809 C 1234.42 2.45212 5.2749 0
M  V30 12810 N 1233.4 1.73652 5.15117 0
M  V30 12811 H 1237.2 1.35234 2.60939 0
M  V30 12812 H 1234.71 0.835162 1.3928 0
M  V30 12813 H 1236.71 -0.589401 4.12713 0
M  V30 12814 H 1235.37 -1.08544 3.0602 0
M  V30 12815 H 1236.38 2.24404 4.66758 0
M  V30 12816 H 1233.06 -0.287232 4.16511 0
M  V30 12817 H 1234.45 3.41491 5.78648 0
M  V30 12818 N 1237.17 -1.38817 0.746158 0
M  V30 12819 C 1238.12 -2.30521 0.113517 0
M  V30 12820 C 1239.09 -1.49795 -0.717682 0
M  V30 12821 O 1240.27 -1.78448 -0.675345 0
M  V30 12822 C 1237.41 -3.36185 -0.779343 0
M  V30 12823 C 1236.52 -4.3195 0.0656784 0
M  V30 12824 C 1235.66 -5.24684 -0.829492 0
M  V30 12825 C 1234.7 -6.12097 0.0196112 0
M  V30 12826 N 1233.84 -6.97152 -0.832107 0
M  V30 12827 H 1238.68 -2.84048 0.901136 0
M  V30 12828 H 1236.21 -1.39853 0.456025 0
M  V30 12829 H 1238.17 -3.96048 -1.31156 0
M  V30 12830 H 1236.8 -2.84085 -1.53282 0
M  V30 12831 H 1235.85 -3.73611 0.715445 0
M  V30 12832 H 1237.16 -4.93551 0.721735 0
M  V30 12833 H 1236.32 -5.89627 -1.42915 0
M  V30 12834 H 1235.06 -4.63431 -1.5193 0
M  V30 12835 H 1234.06 -5.46156 0.631991 0
M  V30 12836 H 1235.29 -6.75416 0.706369 0
M  V30 12837 H 1233.23 -6.38456 -1.507 0
M  V30 12838 H 1233.15 -7.55642 -0.232782 0
M  V30 12839 H 1234.42 -7.66513 -1.41697 0
M  V30 12840 N 1238.65 -0.49465 -1.49636 0
M  V30 12841 C 1239.92 0.114829 -1.95263 0
M  V30 12842 C 1240.3 1.54739 -1.43593 0
M  V30 12843 O 1239.65 2.1915 -0.646953 0
M  V30 12844 C 1239.86 0.0339912 -3.48983 0
M  V30 12845 C 1241.21 0.211108 -4.24075 0
M  V30 12846 O 1242.23 0.109478 -3.56032 0
M  V30 12847 O 1241.09 0.418971 -5.44892 0
M  V30 12848 H 1238.19 0.0987883 -0.821078 0
M  V30 12849 H 1240.73 -0.556736 -1.60308 0
M  V30 12850 H 1239.51 -0.965287 -3.79207 0
M  V30 12851 H 1239.13 0.745982 -3.90539 0
M  V30 12852 N 1240.13 1.55939 -0.228214 0
M  V30 12853 C 1241.06 2.2357 0.6737 0
M  V30 12854 C 1242.04 1.20964 1.1959 0
M  V30 12855 O 1243.22 1.49568 1.23867 0
M  V30 12856 C 1240.35 2.92076 1.87906 0
M  V30 12857 C 1239.31 4.01211 1.49043 0
M  V30 12858 C 1238.63 4.57047 2.77511 0
M  V30 12859 C 1239.93 5.17914 0.67544 0
M  V30 12860 H 1241.63 2.99199 0.109806 0
M  V30 12861 H 1239.17 1.43908 0.0513732 0
M  V30 12862 H 1241.12 3.38083 2.51551 0
M  V30 12863 H 1239.85 2.13906 2.46803 0
M  V30 12864 H 1238.51 3.55945 0.877411 0
M  V30 12865 H 1238.16 3.75599 3.34566 0
M  V30 12866 H 1237.86 5.30707 2.52239 0
M  V30 12867 H 1239.38 5.05776 3.42087 0
M  V30 12868 H 1240.79 5.60261 1.21575 0
M  V30 12869 H 1239.19 5.97847 0.519536 0
M  V30 12870 H 1240.26 4.83866 -0.316495 0
M  V30 12871 N 1241.6 -0.0451101 1.57535 0
M  V30 12872 C 1242.83 -0.750231 1.92497 0
M  V30 12873 C 1243.24 -1.70268 0.824946 0
M  V30 12874 O 1242.59 -1.82511 -0.208656 0
M  V30 12875 C 1242.65 -1.57543 3.23141 0
M  V30 12876 C 1242.31 -0.789495 4.50129 0
M  V30 12877 C 1243.31 -0.0968367 5.1981 0
M  V30 12878 C 1240.99 -0.748776 4.96688 0
M  V30 12879 C 1242.99 0.626018 6.34318 0
M  V30 12880 C 1240.67 -0.0221652 6.11096 0
M  V30 12881 C 1241.67 0.664006 6.79765 0
M  V30 12882 O 1241.36 1.37885 7.91987 0
M  V30 12883 H 1241.09 -0.216895 0.64026 0
M  V30 12884 H 1243.65 -0.011558 2.05397 0
M  V30 12885 H 1241.88 -2.35754 3.06524 0
M  V30 12886 H 1243.57 -2.16168 3.4355 0
M  V30 12887 H 1244.33 -0.119429 4.84853 0
M  V30 12888 H 1240.21 -1.27235 4.43094 0
M  V30 12889 H 1243.75 1.16215 6.87852 0
M  V30 12890 H 1239.65 0.00240707 6.455 0
M  V30 12891 H 1240.42 1.29087 8.08257 0
M  V30 12892 N 1243.08 -1.54377 -0.317073 0
M  V30 12893 C 1244.33 -1.72105 -1.0518 0
M  V30 12894 C 1244.64 -0.505166 -1.88964 0
M  V30 12895 O 1245.85 -0.563912 -2.65579 0
M  V30 12896 C 1244.31 -3.04435 -1.91957 0
M  V30 12897 C 1243.91 -4.33449 -1.13253 0
M  V30 12898 C 1245.66 -3.31524 -2.65127 0
M  V30 12899 C 1243.57 -5.56837 -1.99214 0
M  V30 12900 H 1242.5 -0.641392 -0.396399 0
M  V30 12901 H 1245.15 -1.80868 -0.309673 0
M  V30 12902 H 1243.53 -2.89595 -2.70094 0
M  V30 12903 H 1244.7 -4.59074 -0.39842 0
M  V30 12904 H 1243.02 -4.13173 -0.517372 0
M  V30 12905 H 1245.61 -4.20906 -3.29761 0
M  V30 12906 H 1245.96 -2.49688 -3.33109 0
M  V30 12907 H 1246.49 -3.47261 -1.94048 0
M  V30 12908 H 1243.23 -6.41294 -1.35729 0
M  V30 12909 H 1242.75 -5.35421 -2.70341 0
M  V30 12910 H 1244.43 -5.93488 -2.57646 0
M  V30 12911 N 1244.56 0.579466 -1.4656 0
M  V30 12912 C 1245.49 1.69846 -1.60233 0
M  V30 12913 C 1246.47 1.6397 -0.452533 0
M  V30 12914 O 1247.66 1.81936 -0.679174 0
M  V30 12915 C 1244.79 3.08488 -1.59538 0
M  V30 12916 C 1243.74 3.29197 -2.7352 0
M  V30 12917 C 1243.07 4.684 -2.57887 0
M  V30 12918 C 1244.37 3.16718 -4.15315 0
M  V30 12919 H 1246.06 1.5866 -2.53904 0
M  V30 12920 H 1243.61 0.761873 -1.22194 0
M  V30 12921 H 1245.56 3.86595 -1.67696 0
M  V30 12922 H 1244.28 3.20581 -0.62413 0
M  V30 12923 H 1242.94 2.53491 -2.64836 0
M  V30 12924 H 1242.59 4.77262 -1.58839 0
M  V30 12925 H 1242.29 4.83208 -3.34341 0
M  V30 12926 H 1243.81 5.48671 -2.67942 0
M  V30 12927 H 1245.23 3.84666 -4.25094 0
M  V30 12928 H 1243.63 3.43047 -4.92381 0
M  V30 12929 H 1244.7 2.13755 -4.35244 0
M  V30 12930 N 1246.04 1.3432 0.824371 0
M  V30 12931 C 1246.97 1.2012 1.94027 0
M  V30 12932 C 1247.95 0.0931808 1.62333 0
M  V30 12933 O 1249.13 0.258069 1.86725 0
M  V30 12934 C 1246.26 0.845628 3.27974 0
M  V30 12935 C 1245.31 1.9632 3.7863 0
M  V30 12936 S 1246.14 3.57642 3.98563 0
M  V30 12937 C 1247.3 3.24124 5.35439 0
M  V30 12938 H 1247.53 2.14579 2.05775 0
M  V30 12939 H 1245.06 1.1933 0.979783 0
M  V30 12940 H 1247.02 0.647266 4.05365 0
M  V30 12941 H 1245.68 -0.0805948 3.13997 0
M  V30 12942 H 1244.87 1.66812 4.75594 0
M  V30 12943 H 1244.48 2.11897 3.08181 0
M  V30 12944 H 1246.77 2.75848 6.188 0
M  V30 12945 H 1247.71 4.20222 5.69929 0
M  V30 12946 H 1248.12 2.60343 5.00881 0
M  V30 12947 N 1247.52 -1.0444 1.18026 0
M  V30 12948 C 1248.74 -1.81772 0.998684 0
M  V30 12949 C 1249.17 -1.82682 -0.448225 0
M  V30 12950 O 1248.52 -1.24136 -1.32136 0
M  V30 12951 C 1248.57 -3.2542 1.55352 0
M  V30 12952 O 1247.68 -4.05103 0.772351 0
M  V30 12953 H 1247.02 -0.561731 0.354054 0
M  V30 12954 H 1249.55 -1.31557 1.56697 0
M  V30 12955 H 1249.56 -3.76206 1.57903 0
M  V30 12956 H 1248.23 -3.24073 2.60672 0
M  V30 12957 H 1246.81 -3.63798 0.818852 0
M  V30 12958 N 1248.99 -0.981699 -1.2329 0
M  V30 12959 C 1249.94 -0.494116 -2.22581 0
M  V30 12960 C 1250.93 0.431573 -1.55004 0
M  V30 12961 O 1252.12 0.260215 -1.75077 0
M  V30 12962 C 1249.25 0.200884 -3.42712 0
M  V30 12963 C 1248.34 -0.744451 -4.17515 0
M  V30 12964 N 1248.73 -1.88762 -4.69257 0
M  V30 12965 C 1247.02 -0.558044 -4.42495 0
M  V30 12966 C 1247.73 -2.48006 -5.26182 0
M  V30 12967 N 1246.7 -1.76382 -5.14189 0
M  V30 12968 H 1250.5 -1.36616 -2.60218 0
M  V30 12969 H 1248.02 -0.842537 -1.38835 0
M  V30 12970 H 1250.01 0.567506 -4.13019 0
M  V30 12971 H 1248.67 1.0692 -3.06591 0
M  V30 12972 H 1249.69 -2.26877 -4.65561 0
M  V30 12973 H 1246.36 0.265139 -4.16657 0
M  V30 12974 H 1247.75 -3.44555 -5.76829 0
M  V30 12975 N 1250.47 1.3842 -0.753509 0
M  V30 12976 C 1251.7 2.04403 -0.320449 0
M  V30 12977 C 1252.12 1.5683 1.05118 0
M  V30 12978 O 1251.47 0.741335 1.66765 0
M  V30 12979 C 1251.52 3.59954 -0.333937 0
M  V30 12980 O 1251.24 4.05782 -1.65144 0
M  V30 12981 C 1252.75 4.43156 0.112997 0
M  V30 12982 H 1249.97 0.656881 -0.136927 0
M  V30 12983 H 1252.51 1.77112 -1.02234 0
M  V30 12984 H 1250.66 3.86083 0.319215 0
M  V30 12985 H 1251.08 5.00213 -1.57757 0
M  V30 12986 H 1252.55 5.51975 0.0523995 0
M  V30 12987 H 1253.03 4.23581 1.16087 0
M  V30 12988 H 1253.64 4.22216 -0.511278 0
M  V30 12989 N 1251.95 0.502579 1.49372 0
M  V30 12990 C 1253.18 -0.0403087 2.07361 0
M  V30 12991 C 1253.6 -1.29918 1.36026 0
M  V30 12992 O 1252.96 -1.76428 0.417488 0
M  V30 12993 C 1253.01 -0.275362 3.59547 0
M  V30 12994 O 1252.11 -1.34975 3.89686 0
M  V30 12995 H 1251.45 0.0269268 0.663454 0
M  V30 12996 H 1253.98 0.702652 1.92156 0
M  V30 12997 H 1253.99 -0.506392 4.04845 0
M  V30 12998 H 1252.67 0.644382 4.10878 0
M  V30 12999 H 1251.24 -1.10355 3.56197 0
M  V30 13000 N 1253.43 -1.55816 0.23648 0
M  V30 13001 C 1254.68 -1.98294 -0.390373 0
M  V30 13002 C 1255 -1.12573 -1.59224 0
M  V30 13003 O 1254.27 -0.206128 -1.94813 0
M  V30 13004 H 1252.85 -0.732349 -0.14722 0
M  V30 13005 H 1255.51 -1.92037 0.332848 0
M  V30 13006 H 1254.61 -3.03996 -0.706595 0
M  V30 13007 N 1254.91 0.036755 -1.57557 0
M  V30 13008 C 1256.13 0.744813 -1.93565 0
M  V30 13009 C 1256.56 1.68508 -0.835863 0
M  V30 13010 O 1255.91 1.80091 0.208986 0
M  V30 13011 C 1255.96 1.48461 -3.28621 0
M  V30 13012 O 1255.07 2.59739 -3.20327 0
M  V30 13013 H 1254.41 0.200866 -0.632889 0
M  V30 13014 H 1256.94 -0.00547543 -2.04599 0
M  V30 13015 H 1256.95 1.85622 -3.63329 0
M  V30 13016 H 1255.62 0.794953 -4.08232 0
M  V30 13017 H 1254.2 2.25176 -2.97237 0
M  V30 13018 N 1256.39 1.54543 0.308881 0
M  V30 13019 C 1257.35 1.84214 1.36374 0
M  V30 13020 C 1258.35 0.71463 1.44047 0
M  V30 13021 O 1259.54 0.98293 1.4382 0
M  V30 13022 C 1256.67 2.01535 2.74948 0
M  V30 13023 H 1257.86 2.78477 1.11314 0
M  V30 13024 H 1255.42 1.46485 0.545141 0
M  V30 13025 H 1256.15 1.09533 3.05242 0
M  V30 13026 H 1255.94 2.83595 2.7077 0
M  V30 13027 H 1257.43 2.25888 3.51233 0
M  V30 13028 N 1257.86 -0.571685 1.46866 0
M  V30 13029 C 1258.83 -1.66198 1.57832 0
M  V30 13030 C 1259.83 -1.54242 0.454547 0
M  V30 13031 O 1261.02 -1.58661 0.719191 0
M  V30 13032 C 1258.15 -3.05678 1.5091 0
M  V30 13033 H 1259.34 -1.57829 2.5501 0
M  V30 13034 H 1256.89 -0.790433 1.3484 0
M  V30 13035 H 1257.63 -3.19593 0.550529 0
M  V30 13036 H 1257.41 -3.15765 2.32454 0
M  V30 13037 H 1258.9 -3.85027 1.61692 0
M  V30 13038 N 1259.34 -1.34755 -0.817236 0
M  V30 13039 C 1260.25 -1.28888 -1.96023 0
M  V30 13040 C 1261.27 -0.195582 -1.72897 0
M  V30 13041 O 1262.44 -0.423071 -1.96906 0
M  V30 13042 C 1259.51 -1.04985 -3.30423 0
M  V30 13043 C 1258.57 -2.23526 -3.66517 0
M  V30 13044 C 1257.8 -2.00753 -4.94504 0
M  V30 13045 O 1258.03 -0.968622 -5.62116 0
M  V30 13046 O 1256.96 -2.87848 -5.28608 0
M  V30 13047 H 1260.79 -2.25059 -2.03917 0
M  V30 13048 H 1258.37 -1.15019 -0.953467 0
M  V30 13049 H 1260.25 -0.934589 -4.10906 0
M  V30 13050 H 1258.93 -0.118582 -3.23483 0
M  V30 13051 H 1257.83 -2.40613 -2.86455 0
M  V30 13052 H 1259.17 -3.15062 -3.78149 0
M  V30 13053 N 1260.82 1.03812 -1.18578 0
M  V30 13054 C 1261.78 2.10049 -0.91718 0
M  V30 13055 C 1262.78 1.60498 0.0985122 0
M  V30 13056 O 1263.97 1.73674 -0.135213 0
M  V30 13057 C 1261.1 3.38813 -0.376599 0
M  V30 13058 H 1262.3 2.3531 -1.85927 0
M  V30 13059 H 1259.85 1.20277 -0.998156 0
M  V30 13060 H 1260.59 3.19216 0.571983 0
M  V30 13061 H 1260.37 3.76096 -1.10881 0
M  V30 13062 H 1261.86 4.17084 -0.207453 0
M  V30 13063 N 1262.3 0.988223 1.22768 0
M  V30 13064 C 1263.54 0.661461 1.91392 0
M  V30 13065 C 1263.87 -0.805942 1.77016 0
M  V30 13066 O 1263.13 -1.5978 1.12999 0
M  V30 13067 C 1263.43 1.00744 3.42907 0
M  V30 13068 C 1263.09 2.46634 3.77469 0
M  V30 13069 C 1261.75 2.86503 3.86613 0
M  V30 13070 C 1264.11 3.41217 3.9398 0
M  V30 13071 C 1261.43 4.19954 4.09702 0
M  V30 13072 C 1263.79 4.74321 4.18572 0
M  V30 13073 C 1262.45 5.13938 4.25939 0
M  V30 13074 H 1261.72 0.242046 0.700353 0
M  V30 13075 H 1264.37 1.24354 1.45631 0
M  V30 13076 H 1262.67 0.34338 3.90292 0
M  V30 13077 H 1264.37 0.732714 3.94249 0
M  V30 13078 H 1260.96 2.14729 3.70931 0
M  V30 13079 H 1265.14 3.11589 3.86298 0
M  V30 13080 H 1260.4 4.50243 4.13631 0
M  V30 13081 H 1264.57 5.47561 4.30291 0
M  V30 13082 H 1262.2 6.17364 4.43583 0
M  V30 13083 N 1263.78 -1.38018 0.760839 0
M  V30 13084 C 1264.74 -2.28734 0.146154 0
M  V30 13085 C 1265.74 -1.47525 -0.639768 0
M  V30 13086 O 1266.93 -1.6788 -0.464964 0
M  V30 13087 C 1264.06 -3.31356 -0.801019 0
M  V30 13088 H 1265.25 -2.84599 0.945692 0
M  V30 13089 H 1262.81 -1.471 0.528323 0
M  V30 13090 H 1263.54 -2.80594 -1.62597 0
M  V30 13091 H 1263.33 -3.91366 -0.239775 0
M  V30 13092 H 1264.82 -3.99171 -1.22687 0
M  V30 13093 N 1265.25 -0.510493 -1.49103 0
M  V30 13094 C 1266.2 0.282297 -2.26246 0
M  V30 13095 C 1267.19 0.927187 -1.31499 0
M  V30 13096 O 1268.38 0.833216 -1.56162 0
M  V30 13097 C 1265.51 1.34046 -3.16049 0
M  V30 13098 C 1264.59 0.701334 -4.18261 0
M  V30 13099 N 1264.99 -0.201593 -5.05398 0
M  V30 13100 C 1263.28 0.960822 -4.35527 0
M  V30 13101 C 1263.98 -0.568383 -5.78916 0
M  V30 13102 N 1262.96 0.0659546 -5.4356 0
M  V30 13103 H 1266.76 -0.41264 -2.90989 0
M  V30 13104 H 1264.28 -0.327201 -1.5907 0
M  V30 13105 H 1266.27 1.92195 -3.69955 0
M  V30 13106 H 1264.93 2.03697 -2.52859 0
M  V30 13107 H 1265.94 -0.573004 -5.1472 0
M  V30 13108 H 1262.62 1.64938 -3.83539 0
M  V30 13109 H 1264.01 -1.30763 -6.59053 0
M  V30 13110 N 1266.73 1.55688 -0.24474 0
M  V30 13111 C 1267.96 2.0329 0.384808 0
M  V30 13112 C 1268.37 1.12405 1.51692 0
M  V30 13113 O 1267.73 0.138056 1.81977 0
M  V30 13114 C 1267.78 3.50255 0.894635 0
M  V30 13115 O 1267.5 4.37677 -0.192365 0
M  V30 13116 C 1269 4.13608 1.59509 0
M  V30 13117 H 1266.22 0.664706 0.0916908 0
M  V30 13118 H 1268.77 2.01162 -0.367973 0
M  V30 13119 H 1266.92 3.52924 1.5976 0
M  V30 13120 H 1267.34 5.2414 0.194424 0
M  V30 13121 H 1268.81 5.1814 1.90356 0
M  V30 13122 H 1269.29 3.5997 2.51631 0
M  V30 13123 H 1269.89 4.14856 0.936749 0
M  V30 13124 N 1268.21 -0.0283989 1.57574 0
M  V30 13125 C 1269.14 -1.06191 2.01987 0
M  V30 13126 C 1270.12 -1.35131 0.90434 0
M  V30 13127 O 1271.3 -1.47777 1.17023 0
M  V30 13128 C 1268.43 -2.39646 2.39348 0
M  V30 13129 C 1267.48 -2.26558 3.6135 0
M  V30 13130 S 1268.31 -1.61839 5.10459 0
M  V30 13131 C 1269.47 -2.96783 5.51063 0
M  V30 13132 H 1269.7 -0.683625 2.89333 0
M  V30 13133 H 1267.23 -0.238394 1.52548 0
M  V30 13134 H 1269.19 -3.16394 2.61544 0
M  V30 13135 H 1267.85 -2.74622 1.52452 0
M  V30 13136 H 1267.04 -3.25079 3.85149 0
M  V30 13137 H 1266.65 -1.57954 3.39008 0
M  V30 13138 H 1268.94 -3.93111 5.51788 0
M  V30 13139 H 1269.88 -2.77716 6.51367 0
M  V30 13140 H 1270.29 -2.99386 4.78569 0
M  V30 13141 N 1269.69 -1.54705 -0.300681 0
M  V30 13142 C 1270.62 -1.8205 -1.39249 0
M  V30 13143 C 1271.63 -0.703476 -1.46816 0
M  V30 13144 O 1272.82 -0.980957 -1.49129 0
M  V30 13145 C 1269.92 -1.94376 -2.77617 0
M  V30 13146 C 1269.09 -3.2478 -2.92979 0
M  V30 13147 C 1268.15 -3.27518 -4.11848 0
M  V30 13148 O 1267.18 -4.01047 -4.03918 0
M  V30 13149 N 1268.38 -2.52932 -5.22499 0
M  V30 13150 H 1271.15 -2.76279 -1.16146 0
M  V30 13151 H 1268.71 -1.54283 -0.49075 0
M  V30 13152 H 1270.7 -1.93609 -3.55384 0
M  V30 13153 H 1269.27 -1.07141 -2.93666 0
M  V30 13154 H 1268.49 -3.38319 -2.02322 0
M  V30 13155 H 1269.78 -4.10835 -3.00153 0
M  V30 13156 H 1269.18 -1.92825 -5.31822 0
M  V30 13157 H 1267.73 -2.57919 -5.98599 0
M  V30 13158 N 1271.17 0.563888 -1.47167 0
M  V30 13159 C 1272.44 1.32454 -1.43928 0
M  V30 13160 C 1272.82 2.10683 -0.13267 0
M  V30 13161 O 1272.17 2.1063 0.885845 0
M  V30 13162 C 1272.38 2.2347 -2.68071 0
M  V30 13163 C 1273.73 2.84702 -3.15008 0
M  V30 13164 O 1274.75 2.33775 -2.68752 0
M  V30 13165 O 1273.61 3.77251 -3.95404 0
M  V30 13166 H 1270.71 0.596074 -0.573258 0
M  V30 13167 H 1273.25 0.583345 -1.59359 0
M  V30 13168 H 1272.02 1.6522 -3.54708 0
M  V30 13169 H 1271.65 3.04897 -2.55193 0
M  V30 13170 N 1272.64 1.35187 0.810078 0
M  V30 13171 C 1273.57 1.30481 1.93641 0
M  V30 13172 C 1274.56 0.179875 1.69146 0
M  V30 13173 O 1275.74 0.374284 1.90559 0
M  V30 13174 C 1272.87 1.07251 3.30325 0
M  V30 13175 C 1271.82 2.16348 3.69293 0
M  V30 13176 C 1271.15 1.78288 5.04101 0
M  V30 13177 C 1272.45 3.58285 3.80038 0
M  V30 13178 H 1274.14 2.24725 1.97836 0
M  V30 13179 H 1271.69 1.08179 0.950436 0
M  V30 13180 H 1273.64 1.02599 4.08719 0
M  V30 13181 H 1272.37 0.0945203 3.26463 0
M  V30 13182 H 1271.03 2.2009 2.93182 0
M  V30 13183 H 1270.67 0.791163 4.96739 0
M  V30 13184 H 1270.37 2.51315 5.31144 0
M  V30 13185 H 1271.9 1.75155 5.84938 0
M  V30 13186 H 1273.31 3.56884 4.48672 0
M  V30 13187 H 1271.71 4.30044 4.18548 0
M  V30 13188 H 1272.78 3.94691 2.81685 0
M  V30 13189 N 1274.12 -1.03182 1.19127 0
M  V30 13190 C 1275.05 -2.11462 0.884098 0
M  V30 13191 C 1276.07 -1.62342 -0.121984 0
M  V30 13192 O 1277.26 -1.78179 0.107038 0
M  V30 13193 C 1274.36 -3.37559 0.301227 0
M  V30 13194 C 1273.53 -4.15878 1.35514 0
M  V30 13195 C 1272.59 -5.20291 0.786349 0
M  V30 13196 O 1271.61 -5.50069 1.46331 0
M  V30 13197 N 1272.82 -5.79038 -0.411803 0
M  V30 13198 H 1275.58 -2.38405 1.81613 0
M  V30 13199 H 1273.14 -1.19449 1.09287 0
M  V30 13200 H 1275.13 -4.04593 -0.0930685 0
M  V30 13201 H 1273.7 -3.07987 -0.535022 0
M  V30 13202 H 1272.92 -3.44036 1.9244 0
M  V30 13203 H 1274.21 -4.64993 2.06539 0
M  V30 13204 H 1273.61 -5.57158 -0.979353 0
M  V30 13205 H 1272.17 -6.47495 -0.747912 0
M  V30 13206 N 1275.6 -0.99472 -1.22242 0
M  V30 13207 C 1277.02 -0.705762 -1.43147 0
M  V30 13208 C 1277.22 0.722908 -1.88086 0
M  V30 13209 O 1276.27 1.49359 -2.03588 0
M  V30 13210 C 1277.59 -1.71288 -2.47145 0
M  V30 13211 C 1279.13 -1.72853 -2.60942 0
M  V30 13212 C 1279.61 -2.72433 -3.68163 0
M  V30 13213 N 1281.1 -2.71039 -3.75623 0
M  V30 13214 C 1281.83 -3.44753 -4.58184 0
M  V30 13215 N 1281.33 -4.28075 -5.44724 0
M  V30 13216 N 1283.12 -3.33451 -4.52512 0
M  V30 13217 H 1275.27 -1.91738 -0.913792 0
M  V30 13218 H 1277.54 -0.82702 -0.463403 0
M  V30 13219 H 1277.24 -2.7353 -2.21075 0
M  V30 13220 H 1277.12 -1.50721 -3.45779 0
M  V30 13221 H 1279.5 -0.713085 -2.86355 0
M  V30 13222 H 1279.59 -1.9749 -1.62577 0
M  V30 13223 H 1279.23 -3.74129 -3.43497 0
M  V30 13224 H 1279.16 -2.45066 -4.66101 0
M  V30 13225 H 1281.65 -2.10581 -3.1379 0
M  V30 13226 H 1281.96 -4.81143 -6.04749 0
M  V30 13227 H 1280.31 -4.32161 -5.44299 0
M  V30 13228 H 1283.5 -2.67797 -3.8393 0
M  V30 13229 H 1283.67 -3.91158 -5.16623 0
M  V30 13230 N 1277.08 1.37613 -0.768148 0
M  V30 13231 C 1278.04 2.28653 -0.158283 0
M  V30 13232 C 1279.04 1.47862 0.631936 0
M  V30 13233 O 1280.23 1.68124 0.456055 0
M  V30 13234 C 1277.36 3.31776 0.783435 0
M  V30 13235 H 1278.56 2.84094 -0.960772 0
M  V30 13236 H 1276.11 1.46818 -0.536116 0
M  V30 13237 H 1276.84 2.81452 1.61106 0
M  V30 13238 H 1276.63 3.91488 0.219016 0
M  V30 13239 H 1278.12 3.99816 1.20568 0
M  V30 13240 N 1278.56 0.518393 1.4883 0
M  V30 13241 C 1279.78 -0.0162 2.06894 0
M  V30 13242 C 1280.2 -1.29222 1.37649 0
M  V30 13243 O 1279.56 -1.766 0.460288 0
M  V30 13244 C 1279.61 -0.255836 3.60594 0
M  V30 13245 O 1279.33 0.969612 4.27235 0
M  V30 13246 C 1280.83 -0.832117 4.3542 0
M  V30 13247 H 1278.05 0.0282877 0.670403 0
M  V30 13248 H 1280.59 0.720726 1.91379 0
M  V30 13249 H 1278.75 -0.942782 3.75753 0
M  V30 13250 H 1279.16 0.743172 5.19208 0
M  V30 13251 H 1280.64 -0.949279 5.43776 0
M  V30 13252 H 1281.11 -1.83421 3.99066 0
M  V30 13253 H 1281.72 -0.1821 4.2491 0
M  V30 13254 N 1280.03 -1.55556 0.252993 0
M  V30 13255 C 1281.28 -1.99385 -0.370599 0
M  V30 13256 C 1281.61 -1.14101 -1.57145 0
M  V30 13257 O 1280.89 -0.205828 -1.93408 0
M  V30 13258 C 1281.17 -3.51672 -0.774503 0
M  V30 13259 C 1281.02 -4.47719 0.432159 0
M  V30 13260 C 1282.34 -4.0923 -1.61923 0
M  V30 13261 H 1279.46 -0.724858 -0.133231 0
M  V30 13262 H 1282.1 -1.86644 0.355522 0
M  V30 13263 H 1280.25 -3.62661 -1.39318 0
M  V30 13264 H 1281.93 -4.48704 1.07063 0
M  V30 13265 H 1280.17 -4.2029 1.07419 0
M  V30 13266 H 1280.84 -5.51898 0.106123 0
M  V30 13267 H 1283.32 -4.01381 -1.09693 0
M  V30 13268 H 1282.19 -5.16039 -1.87068 0
M  V30 13269 H 1282.45 -3.58067 -2.59307 0
M  V30 13270 N 1281.51 0.0200419 -1.57587 0
M  V30 13271 C 1282.76 0.708115 -1.88861 0
M  V30 13272 C 1283.07 1.76036 -0.852693 0
M  V30 13273 O 1284.28 2.50165 -1.05497 0
M  V30 13274 C 1282.74 1.31057 -3.3519 0
M  V30 13275 C 1282.34 0.294202 -4.47033 0
M  V30 13276 C 1284.09 1.97799 -3.756 0
M  V30 13277 C 1282 0.905508 -5.84427 0
M  V30 13278 H 1280.93 0.268236 -0.704674 0
M  V30 13279 H 1283.58 -0.0372162 -1.83462 0
M  V30 13280 H 1281.96 2.1059 -3.35362 0
M  V30 13281 H 1283.13 -0.475081 -4.58344 0
M  V30 13282 H 1281.45 -0.271644 -4.15513 0
M  V30 13283 H 1284.04 2.44404 -4.75574 0
M  V30 13284 H 1284.39 2.80004 -3.08064 0
M  V30 13285 H 1284.92 1.25028 -3.77641 0
M  V30 13286 H 1281.66 0.122685 -6.55385 0
M  V30 13287 H 1281.18 1.64442 -5.76818 0
M  V30 13288 H 1282.86 1.41016 -6.31446 0
M  V30 13289 N 1282.99 1.54862 0.292472 0
M  V30 13290 C 1284.24 1.74203 1.02458 0
M  V30 13291 C 1284.56 0.535398 1.87506 0
M  V30 13292 O 1283.83 -0.450164 1.90658 0
M  V30 13293 H 1282.41 0.642369 0.381276 0
M  V30 13294 H 1285.07 1.92232 0.321398 0
M  V30 13295 H 1284.17 2.63486 1.67277 0
M  V30 13296 N 1284.47 -0.556076 1.47464 0
M  V30 13297 C 1285.38 -1.69043 1.62671 0
M  V30 13298 C 1286.39 -1.66372 0.509535 0
M  V30 13299 O 1287.57 -1.85799 0.777218 0
M  V30 13300 C 1284.64 -3.05546 1.63836 0
M  V30 13301 C 1283.7 -3.19275 2.86988 0
M  V30 13302 C 1282.93 -4.49267 2.88088 0
M  V30 13303 O 1283.15 -5.34796 1.98368 0
M  V30 13304 O 1282.09 -4.66811 3.79962 0
M  V30 13305 H 1285.91 -1.59155 2.58657 0
M  V30 13306 H 1283.5 -0.726211 1.30562 0
M  V30 13307 H 1285.38 -3.86778 1.67275 0
M  V30 13308 H 1284.05 -3.15814 0.710173 0
M  V30 13309 H 1282.96 -2.37437 2.89093 0
M  V30 13310 H 1284.29 -3.13912 3.79104 0
M  V30 13311 N 1285.95 -1.35615 -0.802897 0
M  V30 13312 C 1287.36 -1.26062 -1.37715 0
M  V30 13313 C 1287.71 0.105411 -1.95917 0
M  V30 13314 O 1286.83 1.00648 -1.91569 0
M  V30 13315 C 1287.43 -2.28261 -2.50365 0
M  V30 13316 C 1285.99 -2.22437 -3.03642 0
M  V30 13317 C 1285.14 -2.1377 -1.76629 0
M  V30 13318 H 1288.09 -1.46689 -0.605631 0
M  V30 13319 H 1288.11 -1.91122 -3.29017 0
M  V30 13320 H 1287.62 -3.27671 -2.07975 0
M  V30 13321 H 1285.72 -1.2645 -3.50487 0
M  V30 13322 H 1285.83 -3.14558 -3.61373 0
M  V30 13323 H 1284.2 -1.59806 -1.98328 0
M  V30 13324 H 1284.98 -3.15046 -1.36385 0
M  V30 13325 N 1287.43 1.02549 -1.19673 0
M  V30 13326 C 1288.65 1.79623 -1.0268 0
M  V30 13327 C 1289.07 1.83969 0.424345 0
M  V30 13328 O 1288.43 1.28621 1.29472 0
M  V30 13329 C 1288.48 3.24514 -1.59289 0
M  V30 13330 O 1288.2 3.20462 -2.98723 0
M  V30 13331 C 1289.7 4.18173 -1.47126 0
M  V30 13332 H 1286.92 0.565167 -0.3617 0
M  V30 13333 H 1289.46 1.29143 -1.58564 0
M  V30 13334 H 1287.62 3.72173 -1.07546 0
M  V30 13335 H 1288.03 4.11341 -3.25421 0
M  V30 13336 H 1289.51 5.17714 -1.9151 0
M  V30 13337 H 1289.98 4.37165 -0.422315 0
M  V30 13338 H 1290.59 3.7639 -1.98017 0
M  V30 13339 N 1288.9 1.00119 1.21713 0
M  V30 13340 C 1289.87 0.563409 2.22167 0
M  V30 13341 C 1290.87 -0.35819 1.5676 0
M  V30 13342 O 1292.06 -0.149001 1.73562 0
M  V30 13343 C 1289.19 -0.179365 3.40428 0
M  V30 13344 H 1290.38 1.45189 2.62412 0
M  V30 13345 H 1287.93 0.789286 1.34907 0
M  V30 13346 H 1288.67 -1.08345 3.05666 0
M  V30 13347 H 1288.45 0.482471 3.8912 0
M  V30 13348 H 1289.94 -0.473537 4.14906 0
M  V30 13349 N 1290.38 -1.37203 0.775435 0
M  V30 13350 C 1291.63 -1.99207 0.340756 0
M  V30 13351 C 1291.95 -1.61861 -1.08747 0
M  V30 13352 O 1291.22 -0.88583 -1.74728 0
M  V30 13353 H 1289.8 -0.736803 0.123004 0
M  V30 13354 H 1292.46 -1.67625 0.994379 0
M  V30 13355 H 1291.56 -3.09243 0.421346 0
M  V30 13356 N 1291.86 -0.526279 -1.48553 0
M  V30 13357 C 1293.11 0.00914839 -2.02098 0
M  V30 13358 C 1293.43 1.35119 -1.40598 0
M  V30 13359 O 1292.7 1.87422 -0.570065 0
M  V30 13360 H 1291.28 0.00636935 -0.746973 0
M  V30 13361 H 1293.94 -0.689269 -1.82305 0
M  V30 13362 H 1293.04 0.120212 -3.11868 0
M  V30 13363 N 1293.34 1.5542 -0.261239 0
M  V30 13364 C 1294.3 2.20683 0.619011 0
M  V30 13365 C 1295.3 1.18042 1.09192 0
M  V30 13366 O 1296.49 1.43035 0.99432 0
M  V30 13367 C 1293.62 2.86179 1.85242 0
M  V30 13368 H 1294.82 2.99859 0.0493924 0
M  V30 13369 H 1292.37 1.56296 -0.0117687 0
M  V30 13370 H 1293.1 2.10978 2.4629 0
M  V30 13371 H 1292.89 3.61381 1.52138 0
M  V30 13372 H 1294.38 3.36081 2.47869 0
M  V30 13373 N 1294.82 -0.0116844 1.57596 0
M  V30 13374 C 1295.75 -1.00599 2.10718 0
M  V30 13375 C 1296.73 -1.36601 1.01362 0
M  V30 13376 O 1297.91 -1.4518 1.28982 0
M  V30 13377 C 1295.04 -2.30155 2.60089 0
M  V30 13378 C 1294 -2.08347 3.73866 0
M  V30 13379 C 1293.32 -3.43814 4.09507 0
M  V30 13380 C 1294.62 -1.45552 5.01609 0
M  V30 13381 H 1296.32 -0.563721 2.94045 0
M  V30 13382 H 1293.86 -0.269714 1.41452 0
M  V30 13383 H 1295.81 -3.00058 2.95877 0
M  V30 13384 H 1294.54 -2.76473 1.73868 0
M  V30 13385 H 1293.2 -1.40872 3.38453 0
M  V30 13386 H 1292.85 -3.87814 3.20326 0
M  V30 13387 H 1292.55 -3.30043 4.86154 0
M  V30 13388 H 1294.07 -4.15052 4.47844 0
M  V30 13389 H 1295.48 -2.05396 5.35243 0
M  V30 13390 H 1293.88 -1.42304 5.82983 0
M  V30 13391 H 1294.95 -0.423331 4.83049 0
M  V30 13392 N 1296.29 -1.55015 -0.284256 0
M  V30 13393 C 1297.52 -1.79431 -1.04016 0
M  V30 13394 C 1297.94 -0.560254 -1.79563 0
M  V30 13395 O 1297.3 0.489804 -1.74558 0
M  V30 13396 C 1297.35 -3.01162 -1.98328 0
M  V30 13397 O 1296.45 -2.75459 -3.06914 0
M  V30 13398 H 1295.79 -0.593391 -0.297965 0
M  V30 13399 H 1298.32 -2.02136 -0.316585 0
M  V30 13400 H 1298.33 -3.29589 -2.40489 0
M  V30 13401 H 1297.01 -3.90634 -1.42751 0
M  V30 13402 H 1295.59 -2.58096 -2.69148 0
M  V30 13403 N 1297.77 0.548248 -1.47757 0
M  V30 13404 C 1299.02 1.30694 -1.55071 0
M  V30 13405 C 1299.35 1.92994 -0.216075 0
M  V30 13406 O 1298.63 1.78341 0.776196 0
M  V30 13407 C 1298.91 2.41024 -2.67543 0
M  V30 13408 C 1298.76 1.83534 -4.10652 0
M  V30 13409 C 1300.08 3.42902 -2.75874 0
M  V30 13410 H 1297.2 0.47383 -0.564494 0
M  V30 13411 H 1299.84 0.612628 -1.79852 0
M  V30 13412 H 1297.99 3.00248 -2.46543 0
M  V30 13413 H 1299.66 1.28503 -4.4304 0
M  V30 13414 H 1297.91 1.14161 -4.18509 0
M  V30 13415 H 1298.58 2.63335 -4.85138 0
M  V30 13416 H 1301.05 2.9361 -2.94843 0
M  V30 13417 H 1299.93 4.17516 -3.5633 0
M  V30 13418 H 1300.19 4.02314 -1.83291 0
M  V30 13419 N 1299.25 1.36039 0.795694 0
M  V30 13420 C 1300.5 1.29663 1.55023 0
M  V30 13421 C 1300.82 -0.125588 1.94595 0
M  V30 13422 O 1300.09 -1.06447 1.64456 0
M  V30 13423 H 1298.67 0.476962 0.574906 0
M  V30 13424 H 1301.33 1.70265 0.948471 0
M  V30 13425 H 1300.43 1.91982 2.46068 0
M  V30 13426 N 1300.73 -1.01913 1.20215 0
M  V30 13427 C 1301.98 -1.74878 1.00502 0
M  V30 13428 C 1302.29 -1.90022 -0.463792 0
M  V30 13429 O 1303.5 -2.60055 -0.779982 0
M  V30 13430 C 1301.95 -3.1452 1.74943 0
M  V30 13431 C 1301.56 -3.07397 3.259 0
M  V30 13432 C 1303.3 -3.91713 1.63589 0
M  V30 13433 C 1301.21 -4.42032 3.92889 0
M  V30 13434 H 1300.14 -0.655603 0.372426 0
M  V30 13435 H 1302.79 -1.13978 1.4381 0
M  V30 13436 H 1301.17 -3.75946 1.24421 0
M  V30 13437 H 1302.35 -2.55294 3.83617 0
M  V30 13438 H 1300.66 -2.43698 3.37639 0
M  V30 13439 H 1303.26 -4.91316 2.1098 0
M  V30 13440 H 1303.6 -4.12074 0.591665 0
M  V30 13441 H 1304.14 -3.3691 2.11511 0
M  V30 13442 H 1300.88 -4.26874 4.97453 0
M  V30 13443 H 1300.4 -4.94151 3.39962 0
M  V30 13444 H 1302.07 -5.10884 3.96997 0
M  V30 13445 N 1302.21 -1.00763 -1.2118 0
M  V30 13446 C 1303.44 -0.709715 -1.94027 0
M  V30 13447 C 1303.84 0.732135 -1.7446 0
M  V30 13448 O 1303.19 1.50731 -1.05004 0
M  V30 13449 C 1303.25 -0.95427 -3.46603 0
M  V30 13450 C 1302.91 -2.38347 -3.89923 0
M  V30 13451 C 1303.91 -3.36383 -3.96412 0
M  V30 13452 C 1301.6 -2.72183 -4.22163 0
M  V30 13453 C 1303.59 -4.66321 -4.34538 0
M  V30 13454 C 1301.28 -4.02336 -4.59966 0
M  V30 13455 C 1302.27 -4.99216 -4.66125 0
M  V30 13456 O 1301.96 -6.27041 -5.03065 0
M  V30 13457 H 1301.69 -0.260545 -0.623773 0
M  V30 13458 H 1304.25 -1.34922 -1.54872 0
M  V30 13459 H 1302.48 -0.257599 -3.85841 0
M  V30 13460 H 1304.17 -0.649333 -4.00673 0
M  V30 13461 H 1304.93 -3.11578 -3.71677 0
M  V30 13462 H 1300.81 -1.97468 -4.16566 0
M  V30 13463 H 1304.36 -5.41938 -4.3926 0
M  V30 13464 H 1300.25 -4.26924 -4.84155 0
M  V30 13465 H 1301.02 -6.31196 -5.21089 0
M  V30 13466 N 1303.68 1.3679 -0.7827 0
M  V30 13467 C 1304.62 2.28805 -0.13451 0
M  V30 13468 C 1305.63 1.49159 0.652338 0
M  V30 13469 O 1306.82 1.71682 0.488626 0
M  V30 13470 C 1303.92 3.28508 0.832802 0
M  V30 13471 C 1303.09 4.37291 0.0974435 0
M  V30 13472 C 1302.15 5.16999 0.979715 0
M  V30 13473 O 1301.18 5.67501 0.439439 0
M  V30 13474 N 1302.38 5.32786 2.30477 0
M  V30 13475 H 1305.14 2.85072 -0.924873 0
M  V30 13476 H 1302.7 1.48884 -0.636012 0
M  V30 13477 H 1304.7 3.78718 1.42671 0
M  V30 13478 H 1303.27 2.7293 1.52408 0
M  V30 13479 H 1302.49 3.88335 -0.677483 0
M  V30 13480 H 1303.77 5.07143 -0.410259 0
M  V30 13481 H 1303.17 4.93358 2.76793 0
M  V30 13482 H 1301.73 5.86264 2.84848 0
M  V30 13483 N 1305.16 0.53415 1.48272 0
M  V30 13484 C 1306.41 0.00157492 2.028 0
M  V30 13485 C 1306.74 -1.33538 1.41001 0
M  V30 13486 O 1306.02 -1.86347 0.557245 0
M  V30 13487 C 1306.3 -0.116016 3.59913 0
M  V30 13488 C 1306.15 1.2464 4.32186 0
M  V30 13489 C 1307.47 -0.840775 4.31994 0
M  V30 13490 H 1304.59 0.00204634 0.736997 0
M  V30 13491 H 1307.23 0.691985 1.76951 0
M  V30 13492 H 1305.38 -0.704027 3.82068 0
M  V30 13493 H 1307.05 1.87584 4.21438 0
M  V30 13494 H 1305.3 1.8272 3.93441 0
M  V30 13495 H 1305.97 1.11708 5.40579 0
M  V30 13496 H 1308.44 -0.341746 4.14694 0
M  V30 13497 H 1307.32 -0.89196 5.41604 0
M  V30 13498 H 1307.58 -1.89197 3.99571 0
M  V30 13499 N 1306.64 -1.55279 0.269478 0
M  V30 13500 C 1307.89 -1.99077 -0.348224 0
M  V30 13501 C 1308.21 -1.15925 -1.568 0
M  V30 13502 O 1307.48 -0.247404 -1.94331 0
M  V30 13503 H 1306.06 -0.735307 -0.131653 0
M  V30 13504 H 1308.72 -1.91288 0.373506 0
M  V30 13505 H 1307.82 -3.05427 -0.641953 0
M  V30 13506 N 1308.12 0.00332656 -1.576 0
M  V30 13507 C 1309.34 0.703587 -1.95101 0
M  V30 13508 C 1309.77 1.66697 -0.871418 0
M  V30 13509 O 1309.13 1.80494 0.170739 0
M  V30 13510 C 1309.17 1.41457 -3.31696 0
M  V30 13511 O 1308.28 2.52885 -3.25765 0
M  V30 13512 H 1307.62 0.187396 -0.637008 0
M  V30 13513 H 1310.15 -0.0488727 -2.04542 0
M  V30 13514 H 1310.16 1.77874 -3.67185 0
M  V30 13515 H 1308.83 0.708182 -4.09826 0
M  V30 13516 H 1307.41 2.18821 -3.01947 0
M  V30 13517 N 1309.6 1.55164 0.276031 0
M  V30 13518 C 1310.82 1.7998 1.03063 0
M  V30 13519 C 1311.25 0.569769 1.79263 0
M  V30 13520 O 1310.6 -0.48054 1.74816 0
M  V30 13521 C 1310.65 3.02209 1.96728 0
M  V30 13522 O 1309.76 2.77083 3.05449 0
M  V30 13523 H 1309.1 0.594963 0.294814 0
M  V30 13524 H 1311.63 2.02301 0.305861 0
M  V30 13525 H 1311.64 3.3086 2.38738 0
M  V30 13526 H 1310.31 3.91386 1.40677 0
M  V30 13527 H 1308.89 2.5952 2.67776 0
M  V30 13528 N 1311.07 -0.540404 1.48045 0
M  V30 13529 C 1312.49 -1.12243 1.49192 0
M  V30 13530 C 1312.84 -1.94524 0.255895 0
M  V30 13531 O 1311.96 -2.06786 -0.637855 0
M  V30 13532 C 1312.56 -2.04227 2.70327 0
M  V30 13533 C 1311.12 -2.57668 2.7438 0
M  V30 13534 C 1310.26 -1.34402 2.42552 0
M  V30 13535 H 1313.21 -0.326165 1.55312 0
M  V30 13536 H 1313.23 -2.88359 2.48253 0
M  V30 13537 H 1312.75 -1.44314 3.60271 0
M  V30 13538 H 1310.85 -3.21331 1.88618 0
M  V30 13539 H 1310.96 -2.97514 3.7553 0
M  V30 13540 H 1309.32 -1.65635 1.93487 0
M  V30 13541 H 1310.11 -0.762571 3.34723 0
M  V30 13542 N 1312.55 -1.36459 -0.788468 0
M  V30 13543 C 1313.48 -1.33545 -1.91541 0
M  V30 13544 C 1314.46 -0.206762 -1.68839 0
M  V30 13545 O 1315.65 -0.404553 -1.89939 0
M  V30 13546 C 1312.78 -1.12492 -3.28577 0
M  V30 13547 C 1311.73 -2.22196 -3.65805 0
M  V30 13548 C 1311.06 -1.86285 -5.01201 0
M  V30 13549 C 1312.36 -3.64286 -3.7429 0
M  V30 13550 H 1314.05 -2.27844 -1.94236 0
M  V30 13551 H 1311.6 -1.09677 -0.933105 0
M  V30 13552 H 1313.55 -1.09089 -4.07035 0
M  V30 13553 H 1312.28 -0.146446 -3.26272 0
M  V30 13554 H 1310.93 -2.24727 -2.89644 0
M  V30 13555 H 1310.58 -0.87009 -4.95417 0
M  V30 13556 H 1310.28 -2.59734 -5.27079 0
M  V30 13557 H 1311.81 -1.84439 -5.82078 0
M  V30 13558 H 1313.22 -3.63977 -4.42937 0
M  V30 13559 H 1311.62 -4.36648 -4.11653 0
M  V30 13560 H 1312.69 -3.99123 -2.75371 0
M  V30 13561 N 1314.03 1.01274 -1.20754 0
M  V30 13562 C 1315.26 1.78265 -1.04427 0
M  V30 13563 C 1315.67 1.84718 0.409361 0
M  V30 13564 O 1315.01 1.30195 1.29595 0
M  V30 13565 C 1315.07 3.24037 -1.55693 0
M  V30 13566 C 1314.74 3.41181 -3.04047 0
M  V30 13567 C 1315.73 3.30087 -4.0167 0
M  V30 13568 C 1313.42 3.66872 -3.43089 0
M  V30 13569 C 1315.41 3.44436 -5.36323 0
M  V30 13570 C 1313.1 3.80865 -4.77896 0
M  V30 13571 C 1314.1 3.69652 -5.74322 0
M  V30 13572 O 1313.79 3.83211 -7.06686 0
M  V30 13573 H 1313.52 0.567327 -0.367582 0
M  V30 13574 H 1316.07 1.28336 -1.60372 0
M  V30 13575 H 1314.3 3.75067 -0.941382 0
M  V30 13576 H 1315.99 3.82676 -1.35328 0
M  V30 13577 H 1316.76 3.10172 -3.72852 0
M  V30 13578 H 1312.64 3.74685 -2.68574 0
M  V30 13579 H 1316.18 3.35601 -6.1157 0
M  V30 13580 H 1312.08 4.00282 -5.06403 0
M  V30 13581 H 1312.85 4.00205 -7.13987 0
M  V30 13582 N 1315.51 1.01404 1.20644 0
M  V30 13583 C 1316.47 0.586941 2.21557 0
M  V30 13584 C 1317.47 -0.341543 1.57131 0
M  V30 13585 O 1318.66 -0.130585 1.7371 0
M  V30 13586 C 1315.79 -0.143248 3.40599 0
M  V30 13587 H 1316.99 1.47964 2.60858 0
M  V30 13588 H 1314.54 0.803551 1.34063 0
M  V30 13589 H 1315.28 -1.05097 3.06798 0
M  V30 13590 H 1315.06 0.523716 3.88587 0
M  V30 13591 H 1316.55 -0.429504 4.15385 0
M  V30 13592 N 1316.99 -1.36373 0.789944 0
M  V30 13593 C 1318.21 -2.04011 0.373396 0
M  V30 13594 C 1318.64 -1.59171 -1.00231 0
M  V30 13595 O 1318 -0.760431 -1.64582 0
M  V30 13596 C 1318.04 -3.5783 0.446083 0
M  V30 13597 O 1317.15 -4.08759 -0.54678 0
M  V30 13598 H 1316.49 -0.644807 0.158495 0
M  V30 13599 H 1319.02 -1.74317 1.0712 0
M  V30 13600 H 1319.03 -4.06822 0.309877 0
M  V30 13601 H 1317.7 -3.89819 1.44962 0
M  V30 13602 H 1316.28 -3.71038 -0.372192 0
M  V30 13603 N 1318.47 -0.542005 -1.47987 0
M  V30 13604 C 1319.4 0.261671 -2.26695 0
M  V30 13605 C 1320.38 0.93404 -1.33096 0
M  V30 13606 O 1321.56 0.956051 -1.62456 0
M  V30 13607 C 1318.69 1.37155 -3.09687 0
M  V30 13608 C 1317.73 0.809337 -4.18751 0
M  V30 13609 S 1318.57 -0.332224 -5.34468 0
M  V30 13610 C 1319.72 0.779843 -6.21023 0
M  V30 13611 H 1319.96 -0.406263 -2.94511 0
M  V30 13612 H 1317.49 -0.32802 -1.50875 0
M  V30 13613 H 1319.45 2.00726 -3.58077 0
M  V30 13614 H 1318.11 2.01126 -2.41262 0
M  V30 13615 H 1317.3 1.64233 -4.76491 0
M  V30 13616 H 1316.9 0.250095 -3.73163 0
M  V30 13617 H 1319.19 1.67564 -6.56452 0
M  V30 13618 H 1320.14 0.240142 -7.07693 0
M  V30 13619 H 1320.55 1.06567 -5.5435 0
M  V30 13620 N 1319.94 1.55134 -0.277709 0
M  V30 13621 C 1321.35 1.85405 0.219543 0
M  V30 13622 C 1321.71 1.19973 1.55245 0
M  V30 13623 O 1320.83 0.488986 2.10803 0
M  V30 13624 C 1321.43 3.36369 0.405127 0
M  V30 13625 C 1319.98 3.66755 0.846609 0
M  V30 13626 C 1319.13 2.77238 -0.0586063 0
M  V30 13627 H 1322.08 1.50637 -0.499422 0
M  V30 13628 H 1322.1 3.59615 1.24329 0
M  V30 13629 H 1321.62 3.83963 -0.565138 0
M  V30 13630 H 1319.72 3.24662 1.82825 0
M  V30 13631 H 1319.83 4.74219 0.682135 0
M  V30 13632 H 1318.19 2.50546 0.458153 0
M  V30 13633 H 1318.98 3.27647 -1.0248 0
M  V30 13634 N 1321.42 0.00503138 1.57599 0
M  V30 13635 C 1322.65 -0.689609 1.95069 0
M  V30 13636 C 1323.06 -1.67028 0.880183 0
M  V30 13637 O 1322.42 -1.81959 -0.140406 0
M  V30 13638 C 1322.47 -1.41709 3.32567 0
M  V30 13639 O 1322.19 -0.475746 4.35509 0
M  V30 13640 C 1323.69 -2.20578 3.84526 0
M  V30 13641 H 1320.91 -0.19175 0.643019 0
M  V30 13642 H 1323.46 0.057646 2.04419 0
M  V30 13643 H 1321.61 -2.11593 3.2451 0
M  V30 13644 H 1322.03 -0.989573 5.1508 0
M  V30 13645 H 1323.5 -2.66969 4.83148 0
M  V30 13646 H 1323.98 -3.03467 3.17497 0
M  V30 13647 H 1324.58 -1.557 3.95775 0
M  V30 13648 N 1322.9 -1.55308 -0.267798 0
M  V30 13649 C 1323.83 -1.84963 -1.35356 0
M  V30 13650 C 1324.84 -0.73446 -1.45291 0
M  V30 13651 O 1326.03 -1.01237 -1.47015 0
M  V30 13652 C 1323.13 -2.00221 -2.73432 0
M  V30 13653 C 1322.31 -3.30922 -2.86024 0
M  V30 13654 C 1321.37 -3.3618 -4.04808 0
M  V30 13655 O 1320.39 -4.09525 -3.9532 0
M  V30 13656 N 1321.59 -2.63958 -5.17017 0
M  V30 13657 H 1324.36 -2.7868 -1.1026 0
M  V30 13658 H 1321.92 -1.55289 -0.457914 0
M  V30 13659 H 1323.91 -2.01103 -3.51197 0
M  V30 13660 H 1322.48 -1.13346 -2.91327 0
M  V30 13661 H 1321.7 -3.42534 -1.951 0
M  V30 13662 H 1322.99 -4.17109 -2.91371 0
M  V30 13663 H 1322.39 -2.04062 -5.27613 0
M  V30 13664 H 1320.94 -2.70558 -5.92994 0
M  V30 13665 N 1324.38 0.532545 -1.4833 0
M  V30 13666 C 1325.31 1.65392 -1.57229 0
M  V30 13667 C 1326.29 1.57005 -0.422884 0
M  V30 13668 O 1327.47 1.77513 -0.634132 0
M  V30 13669 C 1324.6 3.03778 -1.49789 0
M  V30 13670 C 1323.65 3.30532 -2.69538 0
M  V30 13671 S 1324.48 3.17084 -4.3153 0
M  V30 13672 C 1325.63 4.57921 -4.26684 0
M  V30 13673 H 1325.87 1.57593 -2.52095 0
M  V30 13674 H 1323.4 0.715307 -1.36831 0
M  V30 13675 H 1325.36 3.83589 -1.46183 0
M  V30 13676 H 1324.02 3.0902 -0.562646 0
M  V30 13677 H 1323.21 4.31479 -2.60464 0
M  V30 13678 H 1322.81 2.58386 -2.70393 0
M  V30 13679 H 1325.11 5.49387 -3.96459 0
M  V30 13680 H 1326.05 4.72049 -5.27802 0
M  V30 13681 H 1326.46 4.37123 -3.57188 0
M  V30 13682 N 1325.86 1.36875 0.78122 0
M  V30 13683 C 1326.82 1.31706 1.8758 0
M  V30 13684 C 1327.82 0.223044 1.59246 0
M  V30 13685 O 1329.01 0.478327 1.67504 0
M  V30 13686 C 1326.14 1.0437 3.2453 0
M  V30 13687 H 1327.33 2.29059 1.93576 0
M  V30 13688 H 1324.89 1.21766 0.979931 0
M  V30 13689 H 1325.62 0.0750941 3.24213 0
M  V30 13690 H 1325.41 1.83548 3.46486 0
M  V30 13691 H 1326.9 1.0338 4.04602 0
M  V30 13692 N 1327.33 -1.00632 1.21289 0
M  V30 13693 C 1328.27 -2.09085 0.914258 0
M  V30 13694 C 1329.24 -1.62016 -0.137697 0
M  V30 13695 O 1330.43 -1.88498 -0.00902131 0
M  V30 13696 C 1327.56 -3.36645 0.37254 0
M  V30 13697 C 1326.6 -4.0262 1.40709 0
M  V30 13698 S 1327.43 -4.45203 2.97582 0
M  V30 13699 C 1328.59 -5.75951 2.45013 0
M  V30 13700 H 1328.82 -2.34094 1.83268 0
M  V30 13701 H 1326.36 -1.13893 1.04248 0
M  V30 13702 H 1328.31 -4.10446 0.0665561 0
M  V30 13703 H 1326.98 -3.09689 -0.524546 0
M  V30 13704 H 1326.17 -4.94427 0.977642 0
M  V30 13705 H 1325.77 -3.35088 1.66108 0
M  V30 13706 H 1328.06 -6.51634 1.85416 0
M  V30 13707 H 1329.01 -6.23706 3.35257 0
M  V30 13708 H 1329.41 -5.32707 1.8677 0
M  V30 13709 N 1328.81 -1.02043 -1.20104 0
M  V30 13710 C 1330.04 -0.731142 -1.94085 0
M  V30 13711 C 1330.46 0.702467 -1.74491 0
M  V30 13712 O 1329.82 1.48387 -1.04168 0
M  V30 13713 C 1329.87 -1.07691 -3.44144 0
M  V30 13714 O 1328.97 -0.190751 -4.11959 0
M  V30 13715 H 1328.31 -0.270917 -0.606218 0
M  V30 13716 H 1330.84 -1.36483 -1.52426 0
M  V30 13717 H 1330.85 -1.03023 -3.94779 0
M  V30 13718 H 1329.53 -2.1214 -3.57728 0
M  V30 13719 H 1328.1 -0.29529 -3.71729 0
M  V30 13720 N 1330.29 1.35952 -0.797165 0
M  V30 13721 C 1331.25 2.28266 -0.206748 0
M  V30 13722 C 1332.25 1.49169 0.60043 0
M  V30 13723 O 1333.44 1.69054 0.42029 0
M  V30 13724 C 1330.58 3.33363 0.712884 0
M  V30 13725 H 1331.77 2.81992 -1.02082 0
M  V30 13726 H 1329.32 1.45648 -0.567138 0
M  V30 13727 H 1330.06 2.84806 1.551 0
M  V30 13728 H 1329.84 3.91864 0.135926 0
M  V30 13729 H 1331.33 4.02284 1.1206 0
M  V30 13730 N 1331.77 0.549846 1.47697 0
M  V30 13731 C 1333 0.0276889 2.06881 0
M  V30 13732 C 1333.41 -1.26273 1.40359 0
M  V30 13733 O 1332.77 -1.75584 0.497644 0
M  V30 13734 C 1332.82 -0.179291 3.61055 0
M  V30 13735 O 1332.54 1.06002 4.25083 0
M  V30 13736 C 1334.04 -0.739571 4.37087 0
M  V30 13737 H 1331.26 0.0425016 0.669653 0
M  V30 13738 H 1333.81 0.761158 1.89807 0
M  V30 13739 H 1331.96 -0.862867 3.77668 0
M  V30 13740 H 1332.37 0.853137 5.17515 0
M  V30 13741 H 1333.85 -0.833722 5.45668 0
M  V30 13742 H 1334.33 -1.74915 4.02867 0
M  V30 13743 H 1334.93 -0.0919294 4.25201 0
M  V30 13744 N 1333.25 -1.54984 0.285932 0
M  V30 13745 C 1334.47 -2.04239 -0.330774 0
M  V30 13746 C 1334.89 -1.16387 -1.48659 0
M  V30 13747 O 1334.25 -0.186255 -1.81547 0
M  V30 13748 C 1334.3 -3.52504 -0.801456 0
M  V30 13749 O 1334.02 -4.37014 0.30834 0
M  V30 13750 C 1335.52 -4.17692 -1.48487 0
M  V30 13751 H 1332.74 -0.666903 -0.0740351 0
M  V30 13752 H 1335.28 -2.00116 0.421178 0
M  V30 13753 H 1333.44 -3.57036 -1.50347 0
M  V30 13754 H 1333.85 -5.24471 -0.0553891 0
M  V30 13755 H 1335.33 -5.23004 -1.76552 0
M  V30 13756 H 1335.8 -3.66515 -2.41999 0
M  V30 13757 H 1336.41 -4.17193 -0.826428 0
M  V30 13758 N 1334.72 -0.0133892 -1.57594 0
M  V30 13759 C 1335.97 0.667313 -1.90765 0
M  V30 13760 C 1336.29 1.73564 -0.888847 0
M  V30 13761 O 1335.56 1.95768 0.0718946 0
M  V30 13762 H 1334.14 0.24947 -0.704112 0
M  V30 13763 H 1336.81 -0.0574789 -1.94815 0
M  V30 13764 H 1335.9 1.13007 -2.90922 0
M  V30 13765 N 1336.2 1.55448 0.259558 0
M  V30 13766 C 1337.15 1.89248 1.32113 0
M  V30 13767 C 1338.12 0.745348 1.48438 0
M  V30 13768 O 1339.3 0.997854 1.62627 0
M  V30 13769 C 1336.44 2.18161 2.67394 0
M  V30 13770 C 1335.56 3.45614 2.59182 0
M  V30 13771 C 1334.69 3.6416 3.86731 0
M  V30 13772 C 1333.73 4.85258 3.73084 0
M  V30 13773 N 1332.87 5.00391 4.92497 0
M  V30 13774 H 1337.71 2.79785 1.02589 0
M  V30 13775 H 1335.25 1.38509 0.495338 0
M  V30 13776 H 1337.2 2.32927 3.46122 0
M  V30 13777 H 1335.83 1.30843 2.95093 0
M  V30 13778 H 1334.89 3.39248 1.72091 0
M  V30 13779 H 1336.2 4.34483 2.45002 0
M  V30 13780 H 1335.35 3.78817 4.73902 0
M  V30 13781 H 1334.09 2.73501 4.03793 0
M  V30 13782 H 1333.1 4.70591 2.84296 0
M  V30 13783 H 1334.32 5.77365 3.57528 0
M  V30 13784 H 1332.27 4.12666 5.09944 0
M  V30 13785 H 1332.18 5.83328 4.809 0
M  V30 13786 H 1333.45 5.19446 5.81202 0
M  V30 13787 N 1337.68 -0.524672 1.4861 0
M  V30 13788 C 1338.64 -1.61092 1.63039 0
M  V30 13789 C 1339.64 -1.52718 0.503387 0
M  V30 13790 O 1340.83 -1.56293 0.769304 0
M  V30 13791 C 1337.97 -3.00722 1.60558 0
M  V30 13792 H 1339.16 -1.49636 2.59902 0
M  V30 13793 H 1336.71 -0.747135 1.37287 0
M  V30 13794 H 1337.45 -3.1768 0.651926 0
M  V30 13795 H 1337.23 -3.0821 2.42382 0
M  V30 13796 H 1338.72 -3.79688 1.73859 0
M  V30 13797 N 1339.16 -1.37287 -0.77395 0
M  V30 13798 C 1340.4 -1.33577 -1.53391 0
M  V30 13799 C 1340.76 0.0798979 -1.92234 0
M  V30 13800 O 1340.05 1.03803 -1.61045 0
M  V30 13801 C 1340.25 -2.20667 -2.81142 0
M  V30 13802 C 1340.08 -3.70559 -2.54786 0
M  V30 13803 C 1338.85 -4.39675 -2.49025 0
M  V30 13804 C 1341.04 -4.63472 -2.22932 0
M  V30 13805 N 1339.03 -5.75121 -2.14729 0
M  V30 13806 C 1340.4 -5.87279 -1.98756 0
M  V30 13807 C 1342.45 -4.51879 -2.09068 0
M  V30 13808 C 1341.15 -7.00793 -1.62117 0
M  V30 13809 C 1343.18 -5.65276 -1.7383 0
M  V30 13810 C 1342.54 -6.88132 -1.50513 0
M  V30 13811 H 1338.64 -0.544075 -0.561699 0
M  V30 13812 H 1341.23 -1.72487 -0.903115 0
M  V30 13813 H 1339.4 -1.83976 -3.42063 0
M  V30 13814 H 1341.13 -2.08231 -3.47019 0
M  V30 13815 H 1337.88 -3.92653 -2.64804 0
M  V30 13816 H 1338.31 -6.46696 -2.00284 0
M  V30 13817 H 1342.95 -3.57468 -2.25779 0
M  V30 13818 H 1340.67 -7.9514 -1.44145 0
M  V30 13819 H 1344.25 -5.58276 -1.63765 0
M  V30 13820 H 1343.13 -7.74391 -1.23648 0
M  V30 13821 N 1340.64 0.999871 -1.21821 0
M  V30 13822 C 1341.91 1.71135 -0.947213 0
M  V30 13823 C 1342.29 2.04087 0.539601 0
M  V30 13824 O 1341.64 1.71866 1.5058 0
M  V30 13825 C 1341.85 2.96704 -1.8376 0
M  V30 13826 C 1343.2 3.69627 -2.08952 0
M  V30 13827 O 1344.22 3.06697 -1.81151 0
M  V30 13828 O 1343.08 4.82832 -2.55999 0
M  V30 13829 H 1340.18 0.746631 -0.355628 0
M  V30 13830 H 1342.72 1.05684 -1.32774 0
M  V30 13831 H 1341.49 2.68802 -2.84361 0
M  V30 13832 H 1341.12 3.69894 -1.45821 0
M  V30 13833 N 1342.11 1.02678 1.19562 0
M  V30 13834 C 1343.04 0.626359 2.24942 0
M  V30 13835 C 1344.03 -0.363612 1.66168 0
M  V30 13836 O 1345.21 -0.246793 1.92625 0
M  V30 13837 C 1342.34 -0.0257912 3.4729 0
M  V30 13838 C 1341.29 0.886237 4.18724 0
M  V30 13839 C 1340.62 0.0993081 5.34608 0
M  V30 13840 C 1341.92 2.19901 4.73752 0
M  V30 13841 H 1343.61 1.50729 2.58691 0
M  V30 13842 H 1341.16 0.726195 1.24348 0
M  V30 13843 H 1343.11 -0.317545 4.20202 0
M  V30 13844 H 1341.84 -0.941511 3.12735 0
M  V30 13845 H 1340.5 1.16215 3.47692 0
M  V30 13846 H 1340.14 -0.81838 4.96298 0
M  V30 13847 H 1339.84 0.706776 5.83334 0
M  V30 13848 H 1341.37 -0.185754 6.10317 0
M  V30 13849 H 1342.78 1.96892 5.3843 0
M  V30 13850 H 1341.18 2.75821 5.32956 0
M  V30 13851 H 1342.25 2.85509 3.91934 0
M  V30 13852 N 1343.59 -1.35528 0.804364 0
M  V30 13853 C 1344.56 -2.28153 0.21885 0
M  V30 13854 C 1345.56 -1.49486 -0.592511 0
M  V30 13855 O 1346.75 -1.69274 -0.411319 0
M  V30 13856 C 1343.88 -3.33736 -0.695195 0
M  V30 13857 H 1345.07 -2.81446 1.03576 0
M  V30 13858 H 1342.62 -1.45345 0.574854 0
M  V30 13859 H 1343.36 -2.85625 -1.53587 0
M  V30 13860 H 1343.14 -3.91931 -0.115143 0
M  V30 13861 H 1344.63 -4.02872 -1.09925 0
M  V30 13862 N 1345.07 -0.557671 -1.47404 0
M  V30 13863 C 1346.32 -0.0337216 -2.02072 0
M  V30 13864 C 1346.64 1.32106 -1.43433 0
M  V30 13865 O 1345.91 1.86171 -0.609692 0
M  V30 13866 H 1344.49 -0.00947648 -0.74694 0
M  V30 13867 H 1347.15 -0.727784 -1.80802 0
M  V30 13868 H 1346.25 0.0540331 -3.12053 0
M  V30 13869 N 1346.55 1.54831 -0.294147 0
M  V30 13870 C 1347.8 2.00298 0.317605 0
M  V30 13871 C 1348.13 1.18228 1.54064 0
M  V30 13872 O 1347.4 0.257034 1.92794 0
M  V30 13873 C 1347.69 3.53602 0.680991 0
M  V30 13874 C 1347.54 4.46416 -0.550711 0
M  V30 13875 C 1348.86 4.13379 1.51016 0
M  V30 13876 H 1345.98 0.728135 0.113965 0
M  V30 13877 H 1348.62 1.85636 -0.404883 0
M  V30 13878 H 1346.77 3.66227 1.29654 0
M  V30 13879 H 1348.44 4.45707 -1.18922 0
M  V30 13880 H 1346.68 4.17294 -1.18524 0
M  V30 13881 H 1347.36 5.51423 -0.252412 0
M  V30 13882 H 1349.83 4.04148 0.99012 0
M  V30 13883 H 1348.71 5.20818 1.73321 0
M  V30 13884 H 1348.97 3.64817 2.49722 0
M  V30 13885 N 1348.03 0.0217466 1.57585 0
M  V30 13886 C 1348.94 -0.978407 2.13224 0
M  V30 13887 C 1349.95 -1.36212 1.08269 0
M  V30 13888 O 1351.13 -1.44504 1.40288 0
M  V30 13889 C 1348.19 -2.24462 2.6423 0
M  V30 13890 C 1347.26 -1.92201 3.83871 0
M  V30 13891 C 1346.49 -3.12786 4.32436 0
M  V30 13892 O 1346.71 -4.25201 3.8021 0
M  V30 13893 O 1345.65 -2.95514 5.24362 0
M  V30 13894 H 1349.47 -0.535347 2.98944 0
M  V30 13895 H 1347.06 -0.198414 1.48077 0
M  V30 13896 H 1348.94 -2.98809 2.97138 0
M  V30 13897 H 1347.61 -2.67964 1.81596 0
M  V30 13898 H 1346.52 -1.15262 3.55901 0
M  V30 13899 H 1347.85 -1.53521 4.67645 0
M  V30 13900 N 1349.51 -1.55583 -0.251311 0
M  V30 13901 C 1350.92 -1.67693 -0.820719 0
M  V30 13902 C 1351.27 -0.618393 -1.862 0
M  V30 13903 O 1350.39 0.236158 -2.15108 0
M  V30 13904 C 1350.99 -3.04011 -1.49542 0
M  V30 13905 C 1349.55 -3.18075 -2.01259 0
M  V30 13906 C 1348.69 -2.63557 -0.862138 0
M  V30 13907 H 1351.64 -1.58677 -0.0272072 0
M  V30 13908 H 1351.67 -2.9821 -2.36328 0
M  V30 13909 H 1351.18 -3.81032 -0.737323 0
M  V30 13910 H 1349.28 -2.45869 -2.79963 0
M  V30 13911 H 1349.39 -4.24927 -2.213 0
M  V30 13912 H 1347.76 -2.21268 -1.26145 0
M  V30 13913 H 1348.54 -3.431 -0.117196 0
M  V30 13914 N 1350.98 0.516783 -1.48886 0
M  V30 13915 C 1352.26 1.27808 -1.48069 0
M  V30 13916 C 1352.64 2.10154 -0.19963 0
M  V30 13917 O 1351.99 2.13342 0.818386 0
M  V30 13918 C 1352.2 2.14828 -2.75045 0
M  V30 13919 C 1353.55 2.74536 -3.23906 0
M  V30 13920 O 1354.57 2.25107 -2.76053 0
M  V30 13921 O 1353.43 3.6448 -4.07206 0
M  V30 13922 H 1350.52 0.577535 -0.591931 0
M  V30 13923 H 1353.07 0.532351 -1.61134 0
M  V30 13924 H 1351.84 1.53852 -3.59785 0
M  V30 13925 H 1351.46 2.96624 -2.64764 0
M  V30 13926 N 1352.46 1.37696 0.766659 0
M  V30 13927 C 1353.71 1.32507 1.52069 0
M  V30 13928 C 1354.02 -0.0864967 1.95409 0
M  V30 13929 O 1355.23 -0.260877 2.70244 0
M  V30 13930 C 1353.69 2.32614 2.74625 0
M  V30 13931 C 1353.29 3.79325 2.38363 0
M  V30 13932 C 1355.04 2.36445 3.52554 0
M  V30 13933 C 1352.94 4.7115 3.57451 0
M  V30 13934 H 1351.87 0.492491 0.570937 0
M  V30 13935 H 1354.53 1.63183 0.839268 0
M  V30 13936 H 1352.91 1.94963 3.44682 0
M  V30 13937 H 1354.08 4.25841 1.76056 0
M  V30 13938 H 1352.4 3.78488 1.73597 0
M  V30 13939 H 1354.99 3.02252 4.41076 0
M  V30 13940 H 1355.34 1.37953 3.92778 0
M  V30 13941 H 1355.87 2.72829 2.89498 0
M  V30 13942 H 1352.61 5.70789 3.22304 0
M  V30 13943 H 1352.13 4.29335 4.18846 0
M  V30 13944 H 1353.81 4.88532 4.242 0
M  V30 13945 N 1353.94 -0.993397 1.22349 0
M  V30 13946 C 1355.17 -1.76838 1.07406 0
M  V30 13947 C 1355.58 -1.8503 -0.37542 0
M  V30 13948 O 1354.94 -1.32008 -1.26016 0
M  V30 13949 C 1354.99 -3.20177 1.67837 0
M  V30 13950 O 1354.71 -3.12429 3.07115 0
M  V30 13951 C 1356.21 -4.14125 1.58161 0
M  V30 13952 H 1353.43 -0.555379 0.376557 0
M  V30 13953 H 1355.98 -1.24893 1.61932 0
M  V30 13954 H 1354.13 -3.69191 1.17375 0
M  V30 13955 H 1354.55 -4.02568 3.36213 0
M  V30 13956 H 1356.02 -5.12455 2.05169 0
M  V30 13957 H 1356.5 -4.35892 0.538073 0
M  V30 13958 H 1357.1 -3.71008 2.07926 0
M  V30 13959 N 1355.42 -1.03311 -1.19015 0
M  V30 13960 C 1356.66 -0.733124 -1.89085 0
M  V30 13961 C 1357 0.73675 -1.79682 0
M  V30 13962 O 1356.27 1.53692 -1.19201 0
M  V30 13963 C 1356.55 -1.19028 -3.39859 0
M  V30 13964 C 1356.41 -2.72169 -3.58112 0
M  V30 13965 C 1357.73 -0.774383 -4.33234 0
M  V30 13966 H 1354.85 -0.2678 -0.686624 0
M  V30 13967 H 1357.49 -1.28378 -1.40068 0
M  V30 13968 H 1355.64 -0.721799 -3.81736 0
M  V30 13969 H 1357.31 -3.26996 -3.25379 0
M  V30 13970 H 1355.55 -3.12358 -3.01023 0
M  V30 13971 H 1356.22 -2.99213 -4.6387 0
M  V30 13972 H 1358.7 -1.17739 -3.99095 0
M  V30 13973 H 1357.58 -1.12209 -5.37308 0
M  V30 13974 H 1357.84 0.322989 -4.40919 0
M  V30 13975 N 1356.9 1.35099 -0.81154 0
M  V30 13976 C 1358.31 1.81082 -0.454543 0
M  V30 13977 C 1358.66 1.67361 1.02395 0
M  V30 13978 O 1357.78 1.20707 1.79607 0
M  V30 13979 C 1358.38 3.2877 -0.818274 0
M  V30 13980 C 1356.94 3.72877 -0.513808 0
M  V30 13981 C 1356.08 2.57008 -1.04125 0
M  V30 13982 H 1359.03 1.23007 -1.00274 0
M  V30 13983 H 1359.06 3.80318 -0.117683 0
M  V30 13984 H 1358.57 3.38725 -1.89439 0
M  V30 13985 H 1356.67 3.68468 0.553368 0
M  V30 13986 H 1356.78 4.67455 -1.0499 0
M  V30 13987 H 1355.15 2.5045 -0.463337 0
M  V30 13988 H 1355.93 2.69738 -2.12358 0
M  V30 13989 N 1358.37 0.56548 1.47106 0
M  V30 13990 C 1359.31 -0.225573 2.27082 0
M  V30 13991 C 1360.28 -0.912747 1.34565 0
M  V30 13992 O 1361.47 -0.930085 1.63956 0
M  V30 13993 C 1358.6 -1.32211 3.1183 0
M  V30 13994 C 1357.64 -0.742615 4.19985 0
M  V30 13995 S 1358.47 0.417211 5.33872 0
M  V30 13996 C 1359.63 -0.680945 6.22185 0
M  V30 13997 H 1359.86 0.453066 2.93828 0
M  V30 13998 H 1357.4 0.351982 1.50334 0
M  V30 13999 H 1359.35 -1.95004 3.61225 0
M  V30 14000 H 1358.02 -1.97262 2.44431 0
M  V30 14001 H 1357.21 -1.56632 4.79043 0
M  V30 14002 H 1356.81 -0.190696 3.73514 0
M  V30 14003 H 1359.1 -1.57099 6.59034 0
M  V30 14004 H 1360.05 -0.127524 7.07985 0
M  V30 14005 H 1360.45 -0.977339 5.55975 0
M  V30 14006 N 1359.85 -1.54672 0.302354 0
M  V30 14007 C 1361.08 -2.05041 -0.311891 0
M  V30 14008 C 1361.5 -1.17814 -1.46634 0
M  V30 14009 O 1360.86 -0.182517 -1.80379 0
M  V30 14010 C 1360.91 -3.52831 -0.744489 0
M  V30 14011 O 1360.01 -3.68621 -1.84913 0
M  V30 14012 H 1359.35 -0.661255 -0.0603102 0
M  V30 14013 H 1361.88 -1.99711 0.444593 0
M  V30 14014 H 1361.89 -3.94708 -1.03293 0
M  V30 14015 H 1360.57 -4.1578 0.0999976 0
M  V30 14016 H 1359.15 -3.38649 -1.56113 0
M  V30 14017 N 1361.33 -0.0301034 -1.57571 0
M  V30 14018 C 1362.24 0.967086 -2.1374 0
M  V30 14019 C 1363.26 1.35636 -1.0899 0
M  V30 14020 O 1364.43 1.43758 -1.41052 0
M  V30 14021 C 1361.5 2.23058 -2.65417 0
M  V30 14022 C 1360.56 1.90163 -3.84885 0
M  V30 14023 C 1359.79 3.10488 -4.34088 0
M  V30 14024 O 1360.01 4.23179 -3.8246 0
M  V30 14025 O 1358.95 2.92729 -5.25921 0
M  V30 14026 H 1362.77 0.519486 -2.99224 0
M  V30 14027 H 1360.36 0.190559 -1.4818 0
M  V30 14028 H 1362.24 2.97229 -2.98719 0
M  V30 14029 H 1360.92 2.66997 -1.83015 0
M  V30 14030 H 1359.82 1.13373 -3.56507 0
M  V30 14031 H 1361.16 1.51039 -4.68453 0
M  V30 14032 N 1362.81 1.55714 0.243056 0
M  V30 14033 C 1363.77 1.89832 1.28438 0
M  V30 14034 C 1364.77 0.775083 1.40887 0
M  V30 14035 O 1365.96 1.04304 1.39521 0
M  V30 14036 C 1363.09 2.13016 2.66153 0
M  V30 14037 H 1364.29 2.82947 0.994022 0
M  V30 14038 H 1361.84 1.48665 0.482521 0
M  V30 14039 H 1362.57 1.22381 3.00322 0
M  V30 14040 H 1362.36 2.94824 2.58498 0
M  V30 14041 H 1363.85 2.40581 3.41336 0
M  V30 14042 N 1364.29 -0.50888 1.49158 0
M  V30 14043 C 1365.22 -1.62008 1.68154 0
M  V30 14044 C 1366.2 -1.61624 0.53025 0
M  V30 14045 O 1367.38 -1.78489 0.765205 0
M  V30 14046 C 1364.51 -3.00525 1.74075 0
M  V30 14047 C 1363.47 -3.15773 2.88915 0
M  V30 14048 C 1362.79 -4.55562 2.79942 0
M  V30 14049 C 1364.09 -2.96542 4.29953 0
M  V30 14050 H 1365.79 -1.46365 2.61185 0
M  V30 14051 H 1363.33 -0.702705 1.2569 0
M  V30 14052 H 1365.29 -3.78154 1.8595 0
M  V30 14053 H 1364.01 -3.17238 0.776373 0
M  V30 14054 H 1362.67 -2.40567 2.76628 0
M  V30 14055 H 1362.32 -4.6914 1.81429 0
M  V30 14056 H 1362.02 -4.66706 3.57015 0
M  V30 14057 H 1363.54 -5.35262 2.93814 0
M  V30 14058 H 1364.95 -3.63947 4.42963 0
M  V30 14059 H 1363.35 -3.19164 5.08187 0
M  V30 14060 H 1364.42 -1.92745 4.44946 0
M  V30 14061 N 1365.76 -1.381 -0.759346 0
M  V30 14062 C 1366.99 -1.37389 -1.55367 0
M  V30 14063 C 1367.41 0.0356097 -1.88066 0
M  V30 14064 O 1366.77 1.0161 -1.5015 0
M  V30 14065 C 1366.82 -2.23098 -2.83302 0
M  V30 14066 O 1365.92 -1.64412 -3.7821 0
M  V30 14067 H 1365.27 -0.468894 -0.470143 0
M  V30 14068 H 1367.8 -1.81787 -0.938858 0
M  V30 14069 H 1367.81 -2.36753 -3.32283 0
M  V30 14070 H 1366.48 -3.25544 -2.58831 0
M  V30 14071 H 1365.06 -1.59867 -3.36893 0
M  V30 14072 N 1367.24 0.986894 -1.22875 0
M  V30 14073 C 1368.49 1.72152 -1.05103 0
M  V30 14074 C 1368.8 1.91185 0.413248 0
M  V30 14075 O 1370.01 2.62031 0.710759 0
M  V30 14076 C 1368.47 3.09771 -1.8322 0
M  V30 14077 C 1368.07 2.98648 -3.33936 0
M  V30 14078 C 1369.82 3.87238 -1.73917 0
M  V30 14079 C 1367.73 4.31459 -4.04471 0
M  V30 14080 H 1366.66 0.645498 -0.389677 0
M  V30 14081 H 1369.31 1.10125 -1.46781 0
M  V30 14082 H 1367.69 3.72515 -1.34345 0
M  V30 14083 H 1368.86 2.45033 -3.9025 0
M  V30 14084 H 1367.18 2.34661 -3.43982 0
M  V30 14085 H 1369.77 4.85549 -2.23933 0
M  V30 14086 H 1370.12 4.1036 -0.700711 0
M  V30 14087 H 1370.65 3.31183 -2.20369 0
M  V30 14088 H 1367.39 4.13534 -5.08596 0
M  V30 14089 H 1366.91 4.84964 -3.52944 0
M  V30 14090 H 1368.59 5.00179 -4.10403 0
M  V30 14091 N 1368.72 1.0394 1.18466 0
M  V30 14092 C 1369.68 0.633804 2.20262 0
M  V30 14093 C 1370.68 -0.308136 1.5782 0
M  V30 14094 O 1371.87 -0.0937087 1.73948 0
M  V30 14095 C 1369.01 -0.0709693 3.40826 0
M  V30 14096 H 1370.2 1.53463 2.57661 0
M  V30 14097 H 1367.75 0.831806 1.32328 0
M  V30 14098 H 1368.49 -0.985659 3.08958 0
M  V30 14099 H 1368.27 0.606023 3.87388 0
M  V30 14100 H 1369.76 -0.341298 4.16203 0
M  V30 14101 N 1370.2 -1.34667 0.818693 0
M  V30 14102 C 1371.13 -2.28368 0.195126 0
M  V30 14103 C 1372.14 -1.50836 -0.612562 0
M  V30 14104 O 1373.33 -1.72917 -0.442936 0
M  V30 14105 C 1370.43 -3.30601 -0.745411 0
M  V30 14106 C 1369.61 -4.37396 0.0185308 0
M  V30 14107 C 1368.66 -5.19415 -0.842298 0
M  V30 14108 O 1367.69 -5.68467 -0.288821 0
M  V30 14109 N 1368.89 -5.38709 -2.1627 0
M  V30 14110 H 1371.66 -2.8252 1.00013 0
M  V30 14111 H 1369.22 -1.47146 0.675262 0
M  V30 14112 H 1371.21 -3.82367 -1.3258 0
M  V30 14113 H 1369.78 -2.76875 -1.45118 0
M  V30 14114 H 1369 -3.86402 0.780205 0
M  V30 14115 H 1370.29 -5.05877 0.544575 0
M  V30 14116 H 1369.69 -5.00523 -2.63616 0
M  V30 14117 H 1368.24 -5.9361 -2.69204 0
M  V30 14118 N 1371.68 -0.573274 -1.46804 0
M  V30 14119 C 1372.95 0.011163 -1.95597 0
M  V30 14120 C 1373.33 1.4691 -1.51594 0
M  V30 14121 O 1372.68 2.15413 -0.76221 0
M  V30 14122 C 1372.89 -0.151045 -3.48673 0
M  V30 14123 C 1374.24 -0.0139817 -4.24598 0
M  V30 14124 O 1375.26 -0.0794008 -3.56111 0
M  V30 14125 O 1374.12 0.129547 -5.46346 0
M  V30 14126 H 1371.22 0.0551258 -0.825161 0
M  V30 14127 H 1373.76 -0.640928 -1.57131 0
M  V30 14128 H 1372.53 -1.16494 -3.73557 0
M  V30 14129 H 1372.16 0.537917 -3.93944 0
M  V30 14130 N 1373.15 1.5451 -0.310553 0
M  V30 14131 C 1374.4 1.99505 0.296731 0
M  V30 14132 C 1374.72 1.20257 1.54265 0
M  V30 14133 O 1375.92 1.55566 2.22512 0
M  V30 14134 C 1374.38 3.55208 0.579251 0
M  V30 14135 C 1373.99 4.43276 -0.648874 0
M  V30 14136 C 1375.73 4.08705 1.1472 0
M  V30 14137 C 1373.64 5.90428 -0.338978 0
M  V30 14138 H 1372.57 0.745232 0.114652 0
M  V30 14139 H 1375.22 1.78611 -0.420749 0
M  V30 14140 H 1373.6 3.72039 1.35658 0
M  V30 14141 H 1374.77 4.3822 -1.42478 0
M  V30 14142 H 1373.09 4.00601 -1.13613 0
M  V30 14143 H 1375.69 5.16223 1.39346 0
M  V30 14144 H 1376.03 3.59889 2.09249 0
M  V30 14145 H 1376.56 3.95454 0.431363 0
M  V30 14146 H 1373.3 6.43411 -1.25309 0
M  V30 14147 H 1372.82 5.98468 0.399475 0
M  V30 14148 H 1374.5 6.46976 0.0559696 0
M  V30 14149 N 1374.63 0.0384594 1.57553 0
M  V30 14150 C 1375.88 -0.639085 1.92467 0
M  V30 14151 C 1376.21 -1.71239 0.916014 0
M  V30 14152 O 1375.49 -1.94408 -0.0598928 0
M  V30 14153 C 1375.77 -1.24693 3.37822 0
M  V30 14154 C 1375.62 -0.182544 4.49429 0
M  V30 14155 C 1376.94 -2.16226 3.8332 0
M  V30 14156 H 1374.06 -0.230852 0.699912 0
M  V30 14157 H 1376.7 0.0976276 1.89749 0
M  V30 14158 H 1374.85 -1.87481 3.40269 0
M  V30 14159 H 1376.53 0.448622 4.59113 0
M  V30 14160 H 1374.77 0.4909 4.31013 0
M  V30 14161 H 1375.44 -0.647626 5.48188 0
M  V30 14162 H 1377.92 -1.63413 3.82669 0
M  V30 14163 H 1376.79 -2.55705 4.85702 0
M  V30 14164 H 1377.05 -3.05722 3.19353 0
M  V30 14165 N 1376.11 -1.55841 -0.234795 0
M  V30 14166 C 1377.07 -1.9051 -1.2743 0
M  V30 14167 C 1378.07 -0.782543 -1.40474 0
M  V30 14168 O 1379.26 -1.05043 -1.38966 0
M  V30 14169 C 1376.4 -2.14424 -2.65019 0
M  V30 14170 H 1377.59 -2.83471 -0.979003 0
M  V30 14171 H 1375.14 -1.48919 -0.47463 0
M  V30 14172 H 1375.88 -1.23972 -2.99669 0
M  V30 14173 H 1375.66 -2.96191 -2.56931 0
M  V30 14174 H 1377.15 -2.42388 -3.40056 0
M  V30 14175 N 1377.59 0.500963 -1.49426 0
M  V30 14176 C 1378.52 1.61114 -1.69011 0
M  V30 14177 C 1379.5 1.61341 -0.538813 0
M  V30 14178 O 1380.69 1.78081 -0.77466 0
M  V30 14179 C 1377.82 2.99598 -1.75666 0
M  V30 14180 C 1376.77 3.14236 -2.90585 0
M  V30 14181 C 1376.1 4.54071 -2.82354 0
M  V30 14182 C 1377.4 2.94258 -4.3152 0
M  V30 14183 H 1379.09 1.44978 -2.61957 0
M  V30 14184 H 1376.64 0.69603 -1.26061 0
M  V30 14185 H 1378.59 3.77163 -1.87953 0
M  V30 14186 H 1377.31 3.16822 -0.793186 0
M  V30 14187 H 1375.97 2.39096 -2.779 0
M  V30 14188 H 1375.62 4.68172 -1.83914 0
M  V30 14189 H 1375.32 4.64806 -3.59485 0
M  V30 14190 H 1376.84 5.33696 -2.96649 0
M  V30 14191 H 1378.26 3.61592 -4.44886 0
M  V30 14192 H 1376.65 3.16464 -5.09873 0
M  V30 14193 H 1377.72 1.90383 -4.45962 0
M  V30 14194 N 1379.07 1.38501 0.752011 0
M  V30 14195 C 1380.48 1.19733 1.05529 0
M  V30 14196 C 1380.68 0.047088 2.01445 0
M  V30 14197 O 1379.74 -0.606645 2.45104 0
M  V30 14198 C 1381.05 2.52439 1.63386 0
M  V30 14199 C 1382.6 2.59136 1.7555 0
M  V30 14200 C 1383.08 3.92022 2.36819 0
M  V30 14201 N 1384.57 3.9357 2.44248 0
M  V30 14202 C 1385.3 4.93154 2.92553 0
M  V30 14203 N 1384.8 6.03135 3.40882 0
M  V30 14204 N 1386.59 4.80543 2.91607 0
M  V30 14205 H 1378.74 2.12085 0.115543 0
M  V30 14206 H 1381 0.941134 0.113888 0
M  V30 14207 H 1380.71 3.37072 1.00376 0
M  V30 14208 H 1380.58 2.70947 2.62427 0
M  V30 14209 H 1382.97 1.74897 2.37687 0
M  V30 14210 H 1383.05 2.44494 0.752092 0
M  V30 14211 H 1382.7 4.76684 1.75314 0
M  V30 14212 H 1382.63 4.03976 3.37803 0
M  V30 14213 H 1385.12 3.14133 2.10068 0
M  V30 14214 H 1385.43 6.7505 3.76201 0
M  V30 14215 H 1383.78 6.06752 3.38935 0
M  V30 14216 H 1386.97 3.93733 2.53163 0
M  V30 14217 H 1387.14 5.58303 3.28941 0
M  V30 14218 N 1380.55 -0.980364 1.23396 0
M  V30 14219 C 1381.51 -2.05433 1.01635 0
M  V30 14220 C 1382.51 -1.60785 -0.0218244 0
M  V30 14221 O 1383.7 -1.72832 0.217922 0
M  V30 14222 C 1380.83 -3.36631 0.537822 0
M  V30 14223 H 1382.02 -2.26172 1.96943 0
M  V30 14224 H 1379.58 -1.15378 1.05441 0
M  V30 14225 H 1380.31 -3.21581 -0.41903 0
M  V30 14226 H 1380.1 -3.70377 1.28698 0
M  V30 14227 H 1381.59 -4.1562 0.406213 0
M  V30 14228 N 1382.02 -1.04567 -1.17913 0
M  V30 14229 C 1382.97 -0.641119 -2.21717 0
M  V30 14230 C 1383.94 0.353585 -1.62293 0
M  V30 14231 O 1385.13 0.246427 -1.89202 0
M  V30 14232 C 1382.27 -0.0154726 -3.45097 0
M  V30 14233 C 1381.38 -1.05825 -4.18838 0
M  V30 14234 C 1380.51 -0.400588 -5.29687 0
M  V30 14235 C 1379.55 -1.42811 -5.95207 0
M  V30 14236 N 1378.69 -0.795059 -6.97584 0
M  V30 14237 H 1383.53 -1.5308 -2.55676 0
M  V30 14238 H 1381.07 -0.765715 -1.25599 0
M  V30 14239 H 1383.02 0.364653 -4.15603 0
M  V30 14240 H 1381.65 0.837704 -3.11741 0
M  V30 14241 H 1380.71 -1.55627 -3.47109 0
M  V30 14242 H 1382.02 -1.83849 -4.63682 0
M  V30 14243 H 1381.17 0.0334682 -6.06691 0
M  V30 14244 H 1379.91 0.411696 -4.85959 0
M  V30 14245 H 1378.92 -1.87225 -5.1694 0
M  V30 14246 H 1380.14 -2.24218 -6.41017 0
M  V30 14247 H 1378.09 -0.00317202 -6.56 0
M  V30 14248 H 1378 -1.51293 -7.40707 0
M  V30 14249 H 1379.27 -0.385567 -7.78546 0
M  V30 14250 N 1383.5 1.34231 -0.825823 0
M  V30 14251 C 1384.75 1.9849 -0.415891 0
M  V30 14252 C 1385.08 1.6531 1.01913 0
M  V30 14253 O 1384.36 0.926223 1.7103 0
M  V30 14254 C 1384.64 3.54691 -0.621785 0
M  V30 14255 C 1384.49 3.97603 -2.10313 0
M  V30 14256 C 1385.81 4.4006 -0.0595871 0
M  V30 14257 H 1382.93 0.721032 -0.152582 0
M  V30 14258 H 1385.57 1.5908 -1.03892 0
M  V30 14259 H 1383.72 3.88392 -0.0914439 0
M  V30 14260 H 1385.39 3.74221 -2.69733 0
M  V30 14261 H 1383.64 3.47809 -2.59251 0
M  V30 14262 H 1384.31 5.06352 -2.19799 0
M  V30 14263 H 1386.78 4.12929 -0.512743 0
M  V30 14264 H 1385.66 5.48403 -0.233431 0
M  V30 14265 H 1385.92 4.29798 1.03568 0
M  V30 14266 N 1384.98 0.581051 1.46498 0
M  V30 14267 C 1386.39 0.154032 1.86064 0
M  V30 14268 C 1386.74 -1.28247 1.48483 0
M  V30 14269 O 1385.87 -1.96845 0.898945 0
M  V30 14270 C 1386.46 0.272764 3.377 0
M  V30 14271 C 1385.02 -0.0993724 3.76269 0
M  V30 14272 C 1384.17 0.60947 2.70519 0
M  V30 14273 H 1387.12 0.78937 1.37676 0
M  V30 14274 H 1387.14 -0.502326 3.7717 0
M  V30 14275 H 1386.65 1.31837 3.65021 0
M  V30 14276 H 1384.75 -1.14517 3.54565 0
M  V30 14277 H 1384.87 0.275791 4.78306 0
M  V30 14278 H 1383.23 0.0499083 2.54651 0
M  V30 14279 H 1384.01 1.65669 3.0068 0
M  V30 14280 N 1386.46 -1.54343 0.318742 0
M  V30 14281 C 1387.69 -2.04894 -0.287378 0
M  V30 14282 C 1388.1 -1.19514 -1.46157 0
M  V30 14283 O 1387.46 -0.224722 -1.81111 0
M  V30 14284 C 1387.51 -3.54124 -0.726505 0
M  V30 14285 O 1387.23 -4.36261 0.400968 0
M  V30 14286 C 1388.73 -4.20748 -1.39594 0
M  V30 14287 H 1385.95 -0.668323 -0.0598724 0
M  V30 14288 H 1388.49 -1.99177 0.463531 0
M  V30 14289 H 1386.65 -3.60145 -1.4274 0
M  V30 14290 H 1387.06 -5.2447 0.0558714 0
M  V30 14291 H 1388.54 -5.26632 -1.65418 0
M  V30 14292 H 1389.01 -3.71566 -2.3417 0
M  V30 14293 H 1389.62 -4.18852 -0.737749 0
M  V30 14294 N 1387.94 -0.0468143 -1.5753 0
M  V30 14295 C 1389.18 0.628869 -1.92803 0
M  V30 14296 C 1389.51 1.70751 -0.925083 0
M  V30 14297 O 1388.79 1.94437 0.0495821 0
M  V30 14298 C 1389.07 1.22899 -3.38479 0
M  V30 14299 C 1388.93 0.158707 -4.4952 0
M  V30 14300 C 1390.24 2.1419 -3.84461 0
M  V30 14301 H 1387.36 0.227137 -0.701126 0
M  V30 14302 H 1390.01 -0.107689 -1.89695 0
M  V30 14303 H 1388.16 1.85674 -3.41259 0
M  V30 14304 H 1389.83 -0.472963 -4.58869 0
M  V30 14305 H 1388.07 -0.51375 -4.30747 0
M  V30 14306 H 1388.74 0.618545 -5.48523 0
M  V30 14307 H 1391.22 1.61382 -3.8353 0
M  V30 14308 H 1390.09 2.53125 -4.87051 0
M  V30 14309 H 1390.35 3.04024 -3.2097 0
M  V30 14310 N 1389.41 1.55964 0.226527 0
M  V30 14311 C 1390.34 1.95028 1.284 0
M  V30 14312 C 1391.33 0.817833 1.49149 0
M  V30 14313 O 1392.51 1.07975 1.61416 0
M  V30 14314 C 1389.64 2.26266 2.63478 0
M  V30 14315 C 1388.59 3.41954 2.57393 0
M  V30 14316 C 1387.92 3.58786 3.96456 0
M  V30 14317 C 1389.22 4.77069 2.12608 0
M  V30 14318 H 1390.91 2.83608 0.959513 0
M  V30 14319 H 1388.46 1.36451 0.460125 0
M  V30 14320 H 1390.41 2.52186 3.3761 0
M  V30 14321 H 1389.14 1.34533 2.97604 0
M  V30 14322 H 1387.8 3.16076 1.85719 0
M  V30 14323 H 1387.44 2.64437 4.27881 0
M  V30 14324 H 1387.14 4.36595 3.93267 0
M  V30 14325 H 1388.67 3.87048 4.72256 0
M  V30 14326 H 1390.08 5.02226 2.76481 0
M  V30 14327 H 1388.48 5.58126 2.2049 0
M  V30 14328 H 1389.55 4.7276 1.07823 0
M  V30 14329 N 1390.89 -0.493031 1.4969 0
M  V30 14330 C 1391.82 -1.61058 1.63074 0
M  V30 14331 C 1392.84 -1.54504 0.513069 0
M  V30 14332 O 1394.03 -1.60291 0.785431 0
M  V30 14333 C 1391.13 -2.99877 1.57883 0
M  V30 14334 C 1390.3 -3.31531 2.85317 0
M  V30 14335 C 1389.36 -4.49799 2.7307 0
M  V30 14336 O 1388.38 -4.51189 3.47012 0
M  V30 14337 N 1389.59 -5.50182 1.85148 0
M  V30 14338 H 1392.35 -1.5 2.59461 0
M  V30 14339 H 1389.91 -0.681057 1.46878 0
M  V30 14340 H 1391.9 -3.76928 1.47333 0
M  V30 14341 H 1390.47 -3.04817 0.693218 0
M  V30 14342 H 1389.69 -2.433 3.10159 0
M  V30 14343 H 1390.98 -3.49481 3.69784 0
M  V30 14344 H 1390.38 -5.51865 1.24345 0
M  V30 14345 H 1388.94 -6.26305 1.80516 0
M  V30 14346 N 1392.37 -1.38898 -0.744656 0
M  V30 14347 C 1393.6 -1.38848 -1.53391 0
M  V30 14348 C 1394.01 0.0194949 -1.8879 0
M  V30 14349 O 1393.37 0.988399 -1.53417 0
M  V30 14350 C 1393.42 -2.25243 -2.8275 0
M  V30 14351 O 1393.14 -3.60557 -2.48858 0
M  V30 14352 C 1394.64 -2.33471 -3.76837 0
M  V30 14353 H 1391.86 -0.4746 -0.474338 0
M  V30 14354 H 1394.41 -1.82591 -0.920902 0
M  V30 14355 H 1392.56 -1.84938 -3.40407 0
M  V30 14356 H 1392.98 -4.06142 -3.31887 0
M  V30 14357 H 1394.45 -2.9819 -4.64528 0
M  V30 14358 H 1394.93 -1.351 -4.17905 0
M  V30 14359 H 1395.53 -2.74205 -3.25103 0
M  V30 14360 N 1393.85 0.973806 -1.23914 0
M  V30 14361 C 1394.81 2.04892 -1.02723 0
M  V30 14362 C 1395.81 1.60795 0.0132972 0
M  V30 14363 O 1397 1.72714 -0.227084 0
M  V30 14364 C 1394.13 3.36341 -0.555667 0
M  V30 14365 H 1395.33 2.25124 -1.98139 0
M  V30 14366 H 1392.88 1.14817 -1.06051 0
M  V30 14367 H 1393.61 3.21799 0.40197 0
M  V30 14368 H 1393.4 3.69689 -1.30661 0
M  V30 14369 H 1394.89 4.15398 -0.428248 0
M  V30 14370 N 1395.33 1.05191 1.17357 0
M  V30 14371 C 1396.57 0.760479 1.87246 0
M  V30 14372 C 1396.9 -0.714618 1.81434 0
M  V30 14373 O 1396.17 -1.51636 1.24029 0
M  V30 14374 H 1394.75 0.278317 0.693216 0
M  V30 14375 H 1397.41 1.33106 1.42369 0
M  V30 14376 H 1396.5 1.07542 2.92987 0
M  V30 14377 N 1396.8 -1.33791 0.83293 0
M  V30 14378 C 1397.75 -2.29332 0.25989 0
M  V30 14379 C 1398.72 -1.54056 -0.620965 0
M  V30 14380 O 1399.91 -1.82382 -0.560492 0
M  V30 14381 C 1397.05 -3.40461 -0.563964 0
M  V30 14382 C 1396.16 -4.30658 0.34025 0
M  V30 14383 C 1395.29 -5.28897 -0.494134 0
M  V30 14384 C 1394.33 -6.10733 0.408842 0
M  V30 14385 N 1393.47 -7.01032 -0.38706 0
M  V30 14386 H 1398.31 -2.77743 1.07996 0
M  V30 14387 H 1395.85 -1.3667 0.544043 0
M  V30 14388 H 1397.81 -4.03587 -1.05704 0
M  V30 14389 H 1396.44 -2.93258 -1.34905 0
M  V30 14390 H 1395.49 -3.68305 0.9516 0
M  V30 14391 H 1396.8 -4.87962 1.03415 0
M  V30 14392 H 1395.95 -5.97522 -1.05128 0
M  V30 14393 H 1394.69 -4.72155 -1.2215 0
M  V30 14394 H 1393.7 -5.41031 0.978046 0
M  V30 14395 H 1394.92 -6.69557 1.13448 0
M  V30 14396 H 1392.87 -6.46747 -1.09792 0
M  V30 14397 H 1392.79 -7.55592 0.248249 0
M  V30 14398 H 1394.05 -7.73973 -0.926631 0
M  V30 14399 N 1398.28 -0.588812 -1.46187 0
M  V30 14400 C 1399.21 0.128595 -2.33146 0
M  V30 14401 C 1400.19 0.877608 -1.45712 0
M  V30 14402 O 1401.38 0.851866 -1.74519 0
M  V30 14403 C 1398.51 1.13886 -3.28096 0
M  V30 14404 C 1397.46 0.504296 -4.25019 0
M  V30 14405 C 1396.79 1.62147 -5.09522 0
M  V30 14406 C 1398.09 -0.562466 -5.19263 0
M  V30 14407 H 1399.78 -0.597455 -2.93378 0
M  V30 14408 H 1397.33 -0.288764 -1.41075 0
M  V30 14409 H 1399.28 1.64916 -3.8779 0
M  V30 14410 H 1398.01 1.89527 -2.65983 0
M  V30 14411 H 1396.66 0.0150325 -3.66597 0
M  V30 14412 H 1396.31 2.36769 -4.4379 0
M  V30 14413 H 1396.01 1.20249 -5.75164 0
M  V30 14414 H 1397.54 2.13441 -5.7208 0
M  V30 14415 H 1398.95 -0.137003 -5.73136 0
M  V30 14416 H 1397.35 -0.902115 -5.93281 0
M  V30 14417 H 1398.42 -1.4464 -4.62825 0
M  V30 14418 N 1399.76 1.54172 -0.326923 0
M  V30 14419 C 1401.01 2.00926 0.275047 0
M  V30 14420 C 1401.34 1.21469 1.51522 0
M  V30 14421 O 1400.61 0.297871 1.92206 0
M  V30 14422 C 1400.9 3.54967 0.605833 0
M  V30 14423 C 1400.75 4.45147 -0.645279 0
M  V30 14424 C 1402.07 4.16489 1.42213 0
M  V30 14425 H 1399.19 0.730389 0.098495 0
M  V30 14426 H 1401.83 1.84735 -0.444168 0
M  V30 14427 H 1399.98 3.68895 1.21857 0
M  V30 14428 H 1401.65 4.43085 -1.2835 0
M  V30 14429 H 1399.9 4.14686 -1.27349 0
M  V30 14430 H 1400.57 5.50763 -0.36932 0
M  V30 14431 H 1403.04 4.06158 0.904172 0
M  V30 14432 H 1401.92 5.24377 1.62234 0
M  V30 14433 H 1402.18 3.70032 2.41928 0
M  V30 14434 N 1401.24 0.0551678 1.57503 0
M  V30 14435 C 1402.2 -0.903065 2.10659 0
M  V30 14436 C 1403.2 -1.23728 1.02703 0
M  V30 14437 O 1404.39 -1.17331 1.2876 0
M  V30 14438 C 1401.52 -2.21171 2.59415 0
M  V30 14439 H 1402.72 -0.442197 2.96622 0
M  V30 14440 H 1400.27 -0.193297 1.551 0
M  V30 14441 H 1401 -2.71831 1.76858 0
M  V30 14442 H 1400.79 -1.98216 3.38309 0
M  V30 14443 H 1402.28 -2.89802 3.00674 0
M  V30 14444 N 1402.72 -1.56081 -0.218252 0
M  V30 14445 C 1403.99 -1.70043 -0.966684 0
M  V30 14446 C 1404.37 -0.603372 -2.02293 0
M  V30 14447 O 1403.72 0.389138 -2.25162 0
M  V30 14448 C 1403.93 -3.11484 -1.57413 0
M  V30 14449 C 1405.28 -3.70995 -2.06513 0
M  V30 14450 O 1406.3 -3.14466 -1.67301 0
M  V30 14451 O 1405.16 -4.70156 -2.78596 0
M  V30 14452 H 1402.26 -0.692691 -0.451784 0
M  V30 14453 H 1404.8 -1.68398 -0.209774 0
M  V30 14454 H 1403.57 -3.8279 -0.811614 0
M  V30 14455 H 1403.2 -3.1726 -2.3965 0
M  V30 14456 N 1404.2 0.485086 -1.49949 0
M  V30 14457 C 1405.14 1.60559 -1.68296 0
M  V30 14458 C 1406.14 1.60264 -0.548802 0
M  V30 14459 O 1407.34 1.64581 -0.728905 0
M  V30 14460 H 1403.72 0.532529 -0.530958 0
M  V30 14461 H 1405.69 1.42242 -2.62316 0
M  V30 14462 C 1404.44 2.98596 -1.78145 0
M  V30 14463 H 1403.76 2.99536 -2.64799 0
M  V30 14464 H 1405.2 3.76492 -1.95012 0
M  V30 14465 C 1403.66 3.32708 -0.529828 0
M  V30 14466 O 1404.19 4.00281 0.337347 0
M  V30 14467 N 1402.4 2.87998 -0.388012 0
M  V30 14468 H 1401.94 2.33182 -1.0947 0
M  V30 14469 H 1401.9 3.11187 0.448307 0
M  V30 14470 N 1405.67 1.39291 0.737279 0
M  V30 14471 C 1406.9 1.39457 1.52431 0
M  V30 14472 C 1407.31 -0.0132866 1.89195 0
M  V30 14473 O 1406.65 -0.99443 1.54456 0
M  V30 14474 C 1406.72 2.20125 2.84227 0
M  V30 14475 C 1406.38 3.68778 2.6991 0
M  V30 14476 C 1407.38 4.6191 2.38611 0
M  V30 14477 C 1405.06 4.12336 2.86853 0
M  V30 14478 C 1407.06 5.96581 2.24432 0
M  V30 14479 C 1404.74 5.47083 2.72292 0
M  V30 14480 C 1405.74 6.3902 2.41127 0
M  V30 14481 O 1405.43 7.71287 2.26654 0
M  V30 14482 H 1405.16 0.478281 0.477727 0
M  V30 14483 H 1407.72 1.837 0.918891 0
M  V30 14484 H 1405.95 1.70627 3.47021 0
M  V30 14485 H 1407.63 2.12497 3.45832 0
M  V30 14486 H 1408.4 4.29559 2.25175 0
M  V30 14487 H 1404.28 3.41111 3.10103 0
M  V30 14488 H 1407.82 6.68307 2.00028 0
M  V30 14489 H 1403.72 5.79026 2.85306 0
M  V30 14490 H 1404.49 7.81987 2.41742 0
M  V30 14491 N 1407.15 -0.967221 1.24429 0
M  V30 14492 C 1408.11 -2.04344 1.03808 0
M  V30 14493 C 1409.11 -1.60799 -0.00476972 0
M  V30 14494 O 1410.3 -1.72591 0.236241 0
M  V30 14495 C 1407.44 -3.36041 0.573496 0
M  V30 14496 H 1408.63 -2.2407 1.9933 0
M  V30 14497 H 1406.18 -1.14253 1.06658 0
M  V30 14498 H 1406.92 -3.22008 -0.384898 0
M  V30 14499 H 1406.7 -3.68991 1.32619 0
M  V30 14500 H 1408.19 -4.15165 0.450272 0
M  V30 14501 N 1408.63 -1.05812 -1.16797 0
M  V30 14502 C 1409.85 -0.792518 -1.91661 0
M  V30 14503 C 1410.28 0.646598 -1.76637 0
M  V30 14504 O 1409.64 1.44998 -1.08836 0
M  V30 14505 C 1409.69 -1.18585 -3.40544 0
M  V30 14506 O 1408.79 -0.321716 -4.11143 0
M  V30 14507 H 1408.13 -0.290066 -0.597292 0
M  V30 14508 H 1410.66 -1.41263 -1.48007 0
M  V30 14509 H 1410.67 -1.1553 -3.91301 0
M  V30 14510 H 1409.35 -2.23413 -3.50798 0
M  V30 14511 H 1407.92 -0.413403 -3.70601 0
M  V30 14512 N 1410.11 1.33347 -0.840014 0
M  V30 14513 C 1411.07 2.27492 -0.279264 0
M  V30 14514 C 1412.07 1.51004 0.552669 0
M  V30 14515 O 1413.26 1.70305 0.366295 0
M  V30 14516 C 1410.39 3.35462 0.606466 0
M  V30 14517 H 1411.59 2.78601 -1.11001 0
M  V30 14518 H 1409.14 1.4377 -0.613187 0
M  V30 14519 H 1409.87 2.89596 1.45961 0
M  V30 14520 H 1409.66 3.92098 0.0111889 0
M  V30 14521 H 1411.15 4.05645 0.992052 0
M  V30 14522 N 1411.59 0.596556 1.45873 0
M  V30 14523 C 1412.5 -0.130832 2.34235 0
M  V30 14524 C 1413.51 -0.871805 1.50584 0
M  V30 14525 O 1414.69 -0.831877 1.83417 0
M  V30 14526 C 1411.75 -1.12279 3.28016 0
M  V30 14527 C 1410.81 -0.384982 4.2757 0
M  V30 14528 C 1410.05 -1.32969 5.1687 0
M  V30 14529 O 1410.27 -2.56696 5.09375 0
M  V30 14530 O 1409.2 -0.832741 5.96112 0
M  V30 14531 H 1413.03 0.59503 2.97814 0
M  V30 14532 H 1410.61 0.356873 1.45075 0
M  V30 14533 H 1412.5 -1.6944 3.85834 0
M  V30 14534 H 1411.17 -1.82988 2.67015 0
M  V30 14535 H 1410.08 0.228816 3.734 0
M  V30 14536 H 1411.41 0.281398 4.91395 0
M  V30 14537 N 1413.06 -1.53996 0.335095 0
M  V30 14538 C 1413.99 -2.2768 -0.518087 0
M  V30 14539 C 1414.97 -1.28915 -1.10972 0
M  V30 14540 O 1416.16 -1.57745 -1.1327 0
M  V30 14541 C 1413.29 -3.04327 -1.67339 0
M  V30 14542 C 1412.24 -4.10525 -1.2105 0
M  V30 14543 C 1411.57 -4.75078 -2.45366 0
M  V30 14544 C 1412.87 -5.21337 -0.317055 0
M  V30 14545 H 1414.56 -2.99244 0.0965669 0
M  V30 14546 H 1412.11 -1.4392 0.0478842 0
M  V30 14547 H 1414.06 -3.54608 -2.27664 0
M  V30 14548 H 1412.79 -2.30399 -2.31481 0
M  V30 14549 H 1411.45 -3.61144 -0.630124 0
M  V30 14550 H 1411.09 -3.97754 -3.07897 0
M  V30 14551 H 1410.79 -5.46822 -2.1508 0
M  V30 14552 H 1412.32 -5.2814 -3.06432 0
M  V30 14553 H 1413.73 -5.67305 -0.826905 0
M  V30 14554 H 1412.13 -6.00006 -0.106458 0
M  V30 14555 H 1413.2 -4.80536 0.649068 0
M  V30 14556 N 1414.54 -0.0635198 -1.57472 0
M  V30 14557 C 1415.79 0.606285 -1.92792 0
M  V30 14558 C 1416.11 1.70648 -0.943615 0
M  V30 14559 O 1415.38 1.95898 0.00957612 0
M  V30 14560 H 1413.96 0.226943 -0.711692 0
M  V30 14561 H 1416.62 -0.119429 -1.94534 0
M  V30 14562 H 1415.72 1.03694 -2.9437 0
M  V30 14563 N 1416.02 1.56195 0.209972 0
M  V30 14564 C 1416.98 1.92514 1.24383 0
M  V30 14565 C 1417.98 0.804793 1.39211 0
M  V30 14566 O 1419.17 1.0724 1.37278 0
M  V30 14567 C 1416.3 2.18613 2.61574 0
M  V30 14568 H 1417.5 2.84992 0.933781 0
M  V30 14569 H 1415.05 1.49656 0.450878 0
M  V30 14570 H 1415.79 1.28724 2.97659 0
M  V30 14571 H 1415.57 3.00241 2.52186 0
M  V30 14572 H 1417.06 2.47767 3.36156 0
M  V30 14573 N 1417.5 -0.477127 1.50204 0
M  V30 14574 C 1418.44 -1.57587 1.68626 0
M  V30 14575 C 1419.41 -1.57499 0.527576 0
M  V30 14576 O 1420.6 -1.75121 0.757438 0
M  V30 14577 C 1417.74 -2.956 1.78086 0
M  V30 14578 C 1416.85 -3.05523 3.05417 0
M  V30 14579 C 1415.99 -4.34414 3.05709 0
M  V30 14580 C 1415.03 -4.38057 4.27519 0
M  V30 14581 N 1414.16 -5.5841 4.25585 0
M  V30 14582 H 1419 -1.41185 2.62433 0
M  V30 14583 H 1416.54 -0.686537 1.30096 0
M  V30 14584 H 1418.5 -3.75626 1.81552 0
M  V30 14585 H 1417.13 -3.10651 0.877251 0
M  V30 14586 H 1416.18 -2.18409 3.11451 0
M  V30 14587 H 1417.49 -3.04075 3.95398 0
M  V30 14588 H 1416.65 -5.22782 3.07871 0
M  V30 14589 H 1415.39 -4.38462 2.13548 0
M  V30 14590 H 1414.39 -3.48087 4.25577 0
M  V30 14591 H 1415.62 -4.35705 5.20901 0
M  V30 14592 H 1413.56 -5.63255 3.36274 0
M  V30 14593 H 1413.48 -5.58677 5.09328 0
M  V30 14594 H 1414.75 -6.4892 4.31884 0
M  V30 14595 N 1418.98 -1.3968 -0.729882 0
M  V30 14596 C 1419.91 -1.33201 -1.85291 0
M  V30 14597 C 1420.89 -0.204787 -1.61305 0
M  V30 14598 O 1422.07 -0.386087 -1.84504 0
M  V30 14599 C 1419.2 -1.06955 -3.21369 0
M  V30 14600 C 1418.24 -2.21937 -3.64207 0
M  V30 14601 S 1419.08 -3.84249 -3.72979 0
M  V30 14602 C 1420.23 -3.60239 -5.11839 0
M  V30 14603 H 1420.47 -2.28244 -1.90504 0
M  V30 14604 H 1418 -1.25796 -0.895252 0
M  V30 14605 H 1419.96 -0.924975 -3.99943 0
M  V30 14606 H 1418.62 -0.135902 -3.13806 0
M  V30 14607 H 1417.81 -1.99179 -4.62973 0
M  V30 14608 H 1417.41 -2.32624 -2.92852 0
M  V30 14609 H 1419.71 -3.17821 -5.98328 0
M  V30 14610 H 1420.65 -4.58485 -5.39627 0
M  V30 14611 H 1421.06 -2.94229 -4.81757 0
M  V30 14612 N 1420.45 0.960609 -1.2494 0
M  V30 14613 C 1421.42 2.03791 -1.04891 0
M  V30 14614 C 1422.42 1.608 -0.00375792 0
M  V30 14615 O 1423.61 1.72463 -0.24539 0
M  V30 14616 C 1420.74 3.35733 -0.591309 0
M  V30 14617 H 1421.93 2.2301 -2.00516 0
M  V30 14618 H 1419.49 1.13686 -1.07263 0
M  V30 14619 H 1420.22 3.22207 0.367816 0
M  V30 14620 H 1420.01 3.68283 -1.34574 0
M  V30 14621 H 1421.5 4.14921 -0.472283 0
M  V30 14622 N 1421.93 1.0643 1.16234 0
M  V30 14623 C 1423.16 0.802644 1.90697 0
M  V30 14624 C 1423.58 -0.643145 1.77508 0
M  V30 14625 O 1422.93 -1.4404 1.12065 0
M  V30 14626 C 1422.98 1.18984 3.41358 0
M  V30 14627 O 1422.7 2.5789 3.54153 0
M  V30 14628 C 1424.21 0.956132 4.32866 0
M  V30 14629 H 1421.43 0.290891 0.604668 0
M  V30 14630 H 1423.97 1.41829 1.47325 0
M  V30 14631 H 1422.12 0.618703 3.82428 0
M  V30 14632 H 1422.54 2.73431 4.47589 0
M  V30 14633 H 1424.01 1.27667 5.37034 0
M  V30 14634 H 1424.49 -0.108062 4.39067 0
M  V30 14635 H 1425.1 1.51172 3.97526 0
M  V30 14636 N 1423.41 -1.329 0.847073 0
M  V30 14637 C 1424.36 -2.29044 0.284199 0
M  V30 14638 C 1425.33 -1.54706 -0.604591 0
M  V30 14639 O 1426.51 -1.82966 -0.541116 0
M  V30 14640 C 1423.65 -3.4104 -0.527822 0
M  V30 14641 C 1422.77 -4.30273 0.385907 0
M  V30 14642 C 1421.9 -5.29391 -0.438009 0
M  V30 14643 C 1420.94 -6.10265 0.473596 0
M  V30 14644 N 1420.08 -7.01403 -0.312684 0
M  V30 14645 H 1424.92 -2.76582 1.10935 0
M  V30 14646 H 1422.45 -1.36085 0.558508 0
M  V30 14647 H 1424.41 -4.04686 -1.01417 0
M  V30 14648 H 1423.04 -2.94673 -1.31787 0
M  V30 14649 H 1422.09 -3.67275 0.99061 0
M  V30 14650 H 1423.41 -4.86837 1.08585 0
M  V30 14651 H 1422.56 -5.98604 -0.987842 0
M  V30 14652 H 1421.3 -4.73424 -1.17135 0
M  V30 14653 H 1420.3 -5.39963 1.03537 0
M  V30 14654 H 1421.53 -6.68316 1.20543 0
M  V30 14655 H 1419.47 -6.47875 -1.02926 0
M  V30 14656 H 1419.39 -7.55286 0.328376 0
M  V30 14657 H 1420.66 -7.74912 -0.844489 0
M  V30 14658 N 1424.89 -0.604284 -1.45555 0
M  V30 14659 C 1425.82 0.103859 -2.33269 0
M  V30 14660 C 1426.8 0.862104 -1.46635 0
M  V30 14661 O 1427.98 0.833308 -1.75413 0
M  V30 14662 C 1425.11 1.104 -3.29286 0
M  V30 14663 C 1424.07 0.459189 -4.2553 0
M  V30 14664 C 1423.39 1.56734 -5.11213 0
M  V30 14665 C 1424.69 -0.617509 -5.18637 0
M  V30 14666 H 1426.39 -0.628538 -2.92728 0
M  V30 14667 H 1423.93 -0.303711 -1.40761 0
M  V30 14668 H 1425.89 1.60794 -3.89517 0
M  V30 14669 H 1424.61 1.86695 -2.67979 0
M  V30 14670 H 1423.27 -0.0238508 -3.66592 0
M  V30 14671 H 1422.92 2.32049 -4.46276 0
M  V30 14672 H 1422.62 1.14142 -5.76407 0
M  V30 14673 H 1424.14 2.07361 -5.74312 0
M  V30 14674 H 1425.56 -0.197784 -5.72959 0
M  V30 14675 H 1423.95 -0.96499 -5.9229 0
M  V30 14676 H 1425.02 -1.49541 -4.61265 0
M  V30 14677 N 1426.37 1.53816 -0.343257 0
M  V30 14678 C 1427.59 2.05796 0.257418 0
M  V30 14679 C 1428.02 1.2166 1.43459 0
M  V30 14680 O 1427.37 0.230278 1.79832 0
M  V30 14681 C 1427.42 3.54681 0.65068 0
M  V30 14682 O 1426.53 3.73394 1.75074 0
M  V30 14683 H 1425.87 0.662622 0.042757 0
M  V30 14684 H 1428.4 1.98462 -0.497386 0
M  V30 14685 H 1428.41 3.97308 0.927914 0
M  V30 14686 H 1427.08 4.15368 -0.210199 0
M  V30 14687 H 1425.66 3.42669 1.4708 0
M  V30 14688 N 1427.84 0.0718701 1.57436 0
M  V30 14689 C 1429.09 -0.596052 1.9311 0
M  V30 14690 C 1429.41 -1.70146 0.952652 0
M  V30 14691 O 1428.68 -1.959 0.000812941 0
M  V30 14692 H 1427.26 -0.223165 0.712886 0
M  V30 14693 H 1429.93 0.129744 1.94468 0
M  V30 14694 H 1429.02 -1.02132 2.94916 0
M  V30 14695 N 1429.32 -1.56304 -0.201686 0
M  V30 14696 C 1430.25 -1.97046 -1.25281 0
M  V30 14697 C 1431.23 -0.841458 -1.47829 0
M  V30 14698 O 1432.42 -1.10529 -1.59678 0
M  V30 14699 C 1429.55 -2.30429 -2.59845 0
M  V30 14700 C 1428.5 -3.46006 -2.5192 0
M  V30 14701 C 1427.83 -3.65047 -3.90697 0
M  V30 14702 C 1429.13 -4.80391 -2.04992 0
M  V30 14703 H 1430.82 -2.85099 -0.914272 0
M  V30 14704 H 1428.37 -1.37166 -0.438359 0
M  V30 14705 H 1430.32 -2.57525 -3.33555 0
M  V30 14706 H 1429.05 -1.39251 -2.95426 0
M  V30 14707 H 1427.7 -3.18991 -1.80667 0
M  V30 14708 H 1427.35 -2.71211 -4.2362 0
M  V30 14709 H 1427.05 -4.42796 -3.86271 0
M  V30 14710 H 1428.58 -3.94512 -4.66039 0
M  V30 14711 H 1429.99 -5.06561 -2.68456 0
M  V30 14712 H 1428.39 -5.61563 -2.11582 0
M  V30 14713 H 1429.46 -4.74416 -1.00288 0
M  V30 14714 N 1430.8 0.469154 -1.50455 0
M  V30 14715 C 1431.73 1.58443 -1.65615 0
M  V30 14716 C 1432.75 1.53668 -0.537584 0
M  V30 14717 O 1433.93 1.59021 -0.810832 0
M  V30 14718 C 1431.03 2.97327 -1.62634 0
M  V30 14719 C 1430.21 3.2695 -2.90555 0
M  V30 14720 C 1429.27 4.45398 -2.80191 0
M  V30 14721 O 1428.29 4.45611 -3.54146 0
M  V30 14722 N 1429.49 5.47167 -1.93878 0
M  V30 14723 H 1432.26 1.45854 -2.61814 0
M  V30 14724 H 1429.82 0.657604 -1.47943 0
M  V30 14725 H 1431.81 3.74537 -1.53311 0
M  V30 14726 H 1430.38 3.03675 -0.741624 0
M  V30 14727 H 1429.6 2.38335 -3.13991 0
M  V30 14728 H 1430.89 3.43554 -3.75297 0
M  V30 14729 H 1430.29 5.49817 -1.33109 0
M  V30 14730 H 1428.85 6.23353 -1.90457 0
M  V30 14731 N 1432.28 1.40065 0.722464 0
M  V30 14732 C 1433.5 1.4146 1.5167 0
M  V30 14733 C 1433.93 0.0142653 1.88095 0
M  V30 14734 O 1433.29 -0.975934 1.52791 0
M  V30 14735 C 1433.33 2.30531 2.77287 0
M  V30 14736 O 1432.44 1.74382 3.73717 0
M  V30 14737 H 1431.78 0.481194 0.457546 0
M  V30 14738 H 1434.31 1.84213 0.890331 0
M  V30 14739 H 1434.32 2.45479 3.25889 0
M  V30 14740 H 1432.99 3.32292 2.50109 0
M  V30 14741 H 1431.57 1.68743 3.32536 0
M  V30 14742 N 1433.76 -0.95397 1.25448 0
M  V30 14743 C 1435.17 -1.22516 1.02284 0
M  V30 14744 C 1435.37 -1.99816 -0.259933 0
M  V30 14745 O 1434.43 -2.33022 -0.972479 0
M  V30 14746 C 1435.74 -1.9989 2.24643 0
M  V30 14747 C 1437.29 -2.1293 2.29412 0
M  V30 14748 C 1437.77 -2.93703 3.51429 0
M  V30 14749 N 1439.26 -3.01281 3.51829 0
M  V30 14750 C 1439.99 -3.64174 4.42905 0
M  V30 14751 N 1439.49 -4.28673 5.44253 0
M  V30 14752 N 1441.28 -3.61321 4.30585 0
M  V30 14753 H 1433.43 -0.436859 2.07859 0
M  V30 14754 H 1435.69 -0.255744 0.912852 0
M  V30 14755 H 1435.4 -1.50489 3.17877 0
M  V30 14756 H 1435.27 -3.00593 2.27868 0
M  V30 14757 H 1437.66 -2.61528 1.367 0
M  V30 14758 H 1437.74 -1.1153 2.30206 0
M  V30 14759 H 1437.39 -2.45795 4.44463 0
M  V30 14760 H 1437.32 -3.95331 3.47881 0
M  V30 14761 H 1439.81 -2.55414 2.78517 0
M  V30 14762 H 1440.12 -4.74522 6.09958 0
M  V30 14763 H 1438.47 -4.27299 5.48125 0
M  V30 14764 H 1441.66 -3.10118 3.50634 0
M  V30 14765 H 1441.83 -4.1005 5.0176 0
M  V30 14766 N 1435.24 -1.07045 -1.15668 0
M  V30 14767 C 1436.47 -0.811567 -1.89992 0
M  V30 14768 C 1436.87 0.638628 -1.78096 0
M  V30 14769 O 1436.22 1.44953 -1.12846 0
M  V30 14770 C 1436.28 -1.13665 -3.41058 0
M  V30 14771 C 1435.94 -2.58681 -3.7674 0
M  V30 14772 C 1436.94 -3.56923 -3.78023 0
M  V30 14773 C 1434.62 -2.94178 -4.07142 0
M  V30 14774 C 1436.62 -4.88699 -4.09209 0
M  V30 14775 C 1434.31 -4.26152 -4.37993 0
M  V30 14776 C 1435.3 -5.23222 -4.39007 0
M  V30 14777 O 1434.99 -6.52826 -4.6912 0
M  V30 14778 H 1434.72 -0.293243 -0.609085 0
M  V30 14779 H 1437.28 -1.42941 -1.47502 0
M  V30 14780 H 1435.51 -0.461762 -3.83933 0
M  V30 14781 H 1437.2 -0.860808 -3.96667 0
M  V30 14782 H 1437.96 -3.30842 -3.54639 0
M  V30 14783 H 1433.84 -2.19272 -4.05513 0
M  V30 14784 H 1437.39 -5.6446 -4.09915 0
M  V30 14785 H 1433.28 -4.51988 -4.60844 0
M  V30 14786 H 1434.05 -6.5793 -4.86898 0
M  V30 14787 N 1436.71 1.32449 -0.85411 0
M  V30 14788 C 1437.94 2.01997 -0.470307 0
M  V30 14789 C 1438.36 1.63772 0.925225 0
M  V30 14790 O 1437.72 0.838089 1.60766 0
M  V30 14791 C 1437.77 3.55294 -0.616301 0
M  V30 14792 O 1436.87 4.10902 0.351133 0
M  V30 14793 H 1436.21 0.63651 -0.189079 0
M  V30 14794 H 1438.74 1.69008 -1.15315 0
M  V30 14795 H 1438.75 4.0488 -0.503624 0
M  V30 14796 H 1437.43 3.82459 -1.63396 0
M  V30 14797 H 1436.01 3.72391 0.194741 0
M  V30 14798 N 1438.19 0.611994 1.45232 0
M  V30 14799 C 1439.61 0.276005 1.57195 0
M  V30 14800 C 1439.81 -1.22136 1.60266 0
M  V30 14801 O 1438.86 -2.00459 1.53533 0
M  V30 14802 C 1440.18 0.951064 2.85263 0
M  V30 14803 C 1441.72 0.927398 2.98945 0
M  V30 14804 C 1442.2 1.58255 4.2979 0
M  V30 14805 N 1443.69 1.54825 4.36559 0
M  V30 14806 C 1444.43 2.02428 5.3648 0
M  V30 14807 N 1443.92 2.58137 6.42913 0
M  V30 14808 N 1445.71 1.9317 5.27865 0
M  V30 14809 H 1437.87 1.58418 1.41483 0
M  V30 14810 H 1440.13 0.663879 0.676734 0
M  V30 14811 H 1439.83 2.00557 2.88912 0
M  V30 14812 H 1439.71 0.477044 3.74171 0
M  V30 14813 H 1442.1 -0.118571 2.94862 0
M  V30 14814 H 1442.18 1.43973 2.11437 0
M  V30 14815 H 1441.82 2.62787 4.34632 0
M  V30 14816 H 1441.75 1.04521 5.16123 0
M  V30 14817 H 1444.24 1.14133 3.60253 0
M  V30 14818 H 1444.55 2.92243 7.15412 0
M  V30 14819 H 1442.9 2.62179 6.43652 0
M  V30 14820 H 1446.09 1.49384 4.43624 0
M  V30 14821 H 1446.26 2.30582 6.05587 0
M  V30 14822 N 1439.67 -1.53632 0.351409 0
M  V30 14823 C 1440.92 -2.01338 -0.243047 0
M  V30 14824 C 1441.25 -1.23864 -1.4957 0
M  V30 14825 O 1440.52 -0.328412 -1.91707 0
M  V30 14826 C 1440.81 -3.55886 -0.549284 0
M  V30 14827 C 1440.66 -4.44064 0.716016 0
M  V30 14828 C 1441.98 -4.18699 -1.35569 0
M  V30 14829 H 1439.1 -0.731863 -0.0868627 0
M  V30 14830 H 1441.74 -1.84005 0.473501 0
M  V30 14831 H 1439.89 -3.70787 -1.15972 0
M  V30 14832 H 1441.56 -4.40987 1.35383 0
M  V30 14833 H 1439.8 -4.12608 1.3393 0
M  V30 14834 H 1440.48 -5.50106 0.456895 0
M  V30 14835 H 1442.95 -4.07545 -0.839441 0
M  V30 14836 H 1441.83 -5.26892 -1.53871 0
M  V30 14837 H 1442.09 -3.73834 -2.3601 0
M  V30 14838 N 1441.15 -0.0802183 -1.57396 0
M  V30 14839 C 1442.38 0.595754 -1.98137 0
M  V30 14840 C 1442.79 1.62638 -0.958871 0
M  V30 14841 O 1442.15 1.82422 0.0534316 0
M  V30 14842 C 1442.2 1.2568 -3.38949 0
M  V30 14843 O 1441.92 0.267417 -4.37283 0
M  V30 14844 C 1443.42 2.0198 -3.94612 0
M  V30 14845 H 1440.64 0.160853 -0.651435 0
M  V30 14846 H 1443.18 -0.155111 -2.03911 0
M  V30 14847 H 1441.34 1.9587 -3.34236 0
M  V30 14848 H 1441.75 0.742695 -5.19215 0
M  V30 14849 H 1443.23 2.43613 -4.95335 0
M  V30 14850 H 1443.7 2.87973 -3.31614 0
M  V30 14851 H 1444.31 1.36639 -4.02753 0
M  V30 14852 N 1442.63 1.56409 0.193394 0
M  V30 14853 C 1443.85 1.8519 0.933775 0
M  V30 14854 C 1444.28 0.663991 1.75991 0
M  V30 14855 O 1443.63 -0.387198 1.77117 0
M  V30 14856 C 1443.68 3.12212 1.80432 0
M  V30 14857 O 1442.79 2.92884 2.90332 0
M  V30 14858 H 1442.13 0.609754 0.262862 0
M  V30 14859 H 1444.66 2.03638 0.198195 0
M  V30 14860 H 1444.67 3.4305 2.20864 0
M  V30 14861 H 1443.34 3.98292 1.19733 0
M  V30 14862 H 1441.92 2.73349 2.53643 0
M  V30 14863 N 1444.1 -0.461169 1.50702 0
M  V30 14864 C 1445.01 -1.58355 1.73092 0
M  V30 14865 C 1446.03 -1.62795 0.61431 0
M  V30 14866 O 1447.21 -1.8048 0.893806 0
M  V30 14867 C 1444.27 -2.94509 1.82936 0
M  V30 14868 C 1443.33 -3.00378 3.06711 0
M  V30 14869 C 1442.56 -4.30037 3.16076 0
M  V30 14870 O 1442.79 -5.21097 2.31978 0
M  V30 14871 O 1441.72 -4.41702 4.08881 0
M  V30 14872 H 1445.55 -1.42384 2.68255 0
M  V30 14873 H 1443.13 -0.641709 1.34916 0
M  V30 14874 H 1445.01 -3.75357 1.91534 0
M  V30 14875 H 1443.69 -3.10658 0.909581 0
M  V30 14876 H 1442.6 -2.18571 3.03608 0
M  V30 14877 H 1443.93 -2.89167 3.983 0
M  V30 14878 N 1445.58 -1.40446 -0.715026 0
M  V30 14879 C 1446.83 -1.3896 -1.47709 0
M  V30 14880 C 1447.16 0.00798698 -1.94198 0
M  V30 14881 O 1446.44 0.976732 -1.68197 0
M  V30 14882 C 1446.72 -2.37955 -2.70277 0
M  V30 14883 C 1446.57 -3.8674 -2.29678 0
M  V30 14884 C 1447.89 -2.34478 -3.72435 0
M  V30 14885 H 1445.01 -0.50607 -0.535782 0
M  V30 14886 H 1447.65 -1.71585 -0.815999 0
M  V30 14887 H 1445.8 -2.10264 -3.26682 0
M  V30 14888 H 1447.47 -4.2526 -1.7875 0
M  V30 14889 H 1445.72 -4.02547 -1.61674 0
M  V30 14890 H 1446.39 -4.51524 -3.17538 0
M  V30 14891 H 1448.86 -2.59007 -3.2566 0
M  V30 14892 H 1447.74 -3.05791 -4.55832 0
M  V30 14893 H 1448 -1.35661 -4.20771 0
M  V30 14894 N 1447.06 0.947303 -1.25952 0
M  V30 14895 C 1448.02 2.02667 -1.07046 0
M  V30 14896 C 1449.02 1.60787 -0.0208127 0
M  V30 14897 O 1450.21 1.72193 -0.263668 0
M  V30 14898 C 1447.34 3.35087 -0.626885 0
M  V30 14899 H 1448.54 2.20871 -2.0287 0
M  V30 14900 H 1446.09 1.12541 -1.08462 0
M  V30 14901 H 1446.83 3.22579 0.333621 0
M  V30 14902 H 1446.61 3.66835 -1.38473 0
M  V30 14903 H 1448.1 4.14397 -0.516264 0
M  V30 14904 N 1448.54 1.07657 1.15099 0
M  V30 14905 C 1449.47 0.721201 2.22083 0
M  V30 14906 C 1450.45 -0.292808 1.67561 0
M  V30 14907 O 1451.63 -0.164872 1.93499 0
M  V30 14908 C 1448.76 0.12153 3.47087 0
M  V30 14909 C 1447.72 1.06303 4.14588 0
M  V30 14910 C 1447.04 0.325964 5.33706 0
M  V30 14911 C 1448.34 2.39796 4.63999 0
M  V30 14912 H 1450.04 1.61566 2.52065 0
M  V30 14913 H 1447.58 0.778282 1.21156 0
M  V30 14914 H 1449.54 -0.139037 4.21171 0
M  V30 14915 H 1448.26 -0.808022 3.16447 0
M  V30 14916 H 1446.92 1.30858 3.4245 0
M  V30 14917 H 1446.57 -0.607147 4.99322 0
M  V30 14918 H 1446.27 0.953552 5.79811 0
M  V30 14919 H 1447.79 0.0732695 6.10556 0
M  V30 14920 H 1449.21 2.19552 5.29594 0
M  V30 14921 H 1447.6 2.98178 5.20778 0
M  V30 14922 H 1448.67 3.01876 3.79472 0
M  V30 14923 N 1450.02 -1.31994 0.861122 0
M  V30 14924 C 1450.98 -2.27019 0.315421 0
M  V30 14925 C 1451.98 -1.51864 -0.528575 0
M  V30 14926 O 1453.17 -1.70867 -0.339154 0
M  V30 14927 C 1450.3 -3.36384 -0.553021 0
M  V30 14928 H 1451.49 -2.768 1.1542 0
M  V30 14929 H 1449.05 -1.42776 0.635982 0
M  V30 14930 H 1449.78 -2.91882 -1.41335 0
M  V30 14931 H 1449.57 -3.92067 0.0511919 0
M  V30 14932 H 1451.06 -4.07172 -0.927392 0
M  V30 14933 N 1451.49 -0.619688 -1.44906 0
M  V30 14934 C 1452.4 0.0935512 -2.34413 0
M  V30 14935 C 1453.42 0.847738 -1.51952 0
M  V30 14936 O 1454.6 0.802591 -1.84717 0
M  V30 14937 C 1451.66 1.07047 -3.2976 0
M  V30 14938 C 1450.72 0.31691 -4.28129 0
M  V30 14939 C 1449.96 1.24729 -5.1892 0
M  V30 14940 O 1450.18 2.4856 -5.13395 0
M  V30 14941 O 1449.11 0.737799 -5.97361 0
M  V30 14942 H 1452.94 -0.642335 -2.96829 0
M  V30 14943 H 1450.52 -0.379908 -1.44489 0
M  V30 14944 H 1452.41 1.63281 -3.88481 0
M  V30 14945 H 1451.08 1.78717 -2.69893 0
M  V30 14946 H 1449.99 -0.288192 -3.72988 0
M  V30 14947 H 1451.32 -0.359539 -4.90885 0
M  V30 14948 N 1452.97 1.53444 -0.359552 0
M  V30 14949 C 1454.22 2.00348 0.233109 0
M  V30 14950 C 1454.53 1.25104 1.50361 0
M  V30 14951 O 1455.74 1.62566 2.1745 0
M  V30 14952 C 1454.2 3.56871 0.465951 0
M  V30 14953 C 1453.8 4.40987 -0.789571 0
M  V30 14954 C 1455.55 4.12148 1.0166 0
M  V30 14955 C 1453.46 5.8905 -0.526646 0
M  V30 14956 H 1452.39 0.748502 0.0908851 0
M  V30 14957 H 1455.04 1.77182 -0.47736 0
M  V30 14958 H 1453.42 3.76167 1.23753 0
M  V30 14959 H 1454.59 4.33465 -1.56348 0
M  V30 14960 H 1452.91 3.96784 -1.263 0
M  V30 14961 H 1455.5 5.20395 1.22853 0
M  V30 14962 H 1455.85 3.66364 1.97694 0
M  V30 14963 H 1456.38 3.96626 0.305334 0
M  V30 14964 H 1453.12 6.39099 -1.45715 0
M  V30 14965 H 1452.64 5.99436 0.208875 0
M  V30 14966 H 1454.32 6.46826 -0.149889 0
M  V30 14967 N 1454.45 0.0885642 1.57351 0
M  V30 14968 C 1455.38 -0.869946 2.16689 0
M  V30 14969 C 1456.36 -1.29878 1.09844 0
M  V30 14970 O 1457.55 -1.36684 1.37954 0
M  V30 14971 C 1454.68 -2.13148 2.74199 0
M  V30 14972 C 1453.63 -1.84149 3.86359 0
M  V30 14973 C 1452.96 -3.17075 4.30543 0
M  V30 14974 C 1454.26 -1.13357 5.09851 0
M  V30 14975 H 1455.95 -0.375578 2.97035 0
M  V30 14976 H 1453.5 -0.17921 1.42881 0
M  V30 14977 H 1455.45 -2.80634 3.14361 0
M  V30 14978 H 1454.17 -2.64856 1.91098 0
M  V30 14979 H 1452.83 -1.19063 3.46727 0
M  V30 14980 H 1452.48 -3.66658 3.44342 0
M  V30 14981 H 1452.18 -2.98457 5.06159 0
M  V30 14982 H 1453.7 -3.85731 4.73333 0
M  V30 14983 H 1455.12 -1.70941 5.47222 0
M  V30 14984 H 1453.52 -1.0494 5.90853 0
M  V30 14985 H 1454.59 -0.115273 4.84763 0
M  V30 14986 N 1455.93 -1.56509 -0.185096 0
M  V30 14987 C 1457.18 -1.80848 -0.902139 0
M  V30 14988 C 1457.5 -0.663295 -1.83372 0
M  V30 14989 O 1456.77 0.317754 -1.93306 0
M  V30 14990 H 1455.35 -0.667108 -0.336119 0
M  V30 14991 H 1458.01 -1.93989 -0.188211 0
M  V30 14992 H 1457.11 -2.74383 -1.48729 0
M  V30 14993 N 1457.41 0.45317 -1.50944 0
M  V30 14994 C 1458.37 1.5313 -1.7054 0
M  V30 14995 C 1459.37 1.50142 -0.575678 0
M  V30 14996 O 1460.56 1.52444 -0.842997 0
M  V30 14997 C 1457.69 2.92719 -1.74723 0
M  V30 14998 H 1458.88 1.37066 -2.66745 0
M  V30 14999 H 1456.44 0.680783 -1.40695 0
M  V30 15000 H 1457.17 3.14208 -0.802753 0
M  V30 15001 H 1456.96 2.96295 -2.56811 0
M  V30 15002 H 1458.45 3.7096 -1.91777 0
M  V30 15003 N 1458.88 1.40823 0.707568 0
M  V30 15004 C 1460.16 1.3003 1.46122 0
M  V30 15005 C 1460.54 -0.0776873 2.10957 0
M  V30 15006 O 1459.89 -1.09109 2.00767 0
M  V30 15007 C 1460.1 2.44498 2.49042 0
M  V30 15008 C 1461.45 2.85106 3.14642 0
M  V30 15009 O 1462.47 2.44149 2.59364 0
M  V30 15010 O 1461.33 3.55892 4.14733 0
M  V30 15011 H 1458.42 0.511082 0.650172 0
M  V30 15012 H 1460.97 1.52761 0.739062 0
M  V30 15013 H 1459.74 3.36502 1.99705 0
M  V30 15014 H 1459.37 2.23579 3.28783 0
M  V30 15015 N 1460.36 -0.94061 1.26453 0
M  V30 15016 C 1461.29 -2.05667 1.10559 0
M  V30 15017 C 1462.27 -1.70097 0.0106258 0
M  V30 15018 O 1463.46 -1.93338 0.182756 0
M  V30 15019 C 1460.59 -3.3936 0.7384 0
M  V30 15020 C 1459.54 -3.88993 1.78517 0
M  V30 15021 C 1458.87 -5.19343 1.27228 0
M  V30 15022 C 1460.17 -4.13812 3.1868 0
M  V30 15023 H 1461.86 -2.19221 2.03918 0
M  V30 15024 H 1459.41 -1.05339 0.98182 0
M  V30 15025 H 1461.36 -4.16902 0.61409 0
M  V30 15026 H 1460.09 -3.25783 -0.230887 0
M  V30 15027 H 1458.74 -3.13633 1.89816 0
M  V30 15028 H 1458.39 -5.02147 0.292816 0
M  V30 15029 H 1458.09 -5.53521 1.97201 0
M  V30 15030 H 1459.62 -5.99468 1.16065 0
M  V30 15031 H 1461.03 -4.81966 3.10455 0
M  V30 15032 H 1459.43 -4.59273 3.86249 0
M  V30 15033 H 1460.5 -3.19571 3.64695 0
M  V30 15034 N 1461.84 -1.08266 -1.14527 0
M  V30 15035 C 1462.77 -0.669233 -2.19212 0
M  V30 15036 C 1463.79 0.282962 -1.60322 0
M  V30 15037 O 1464.97 0.0708403 -1.78359 0
M  V30 15038 C 1462.07 0.0362509 -3.38881 0
M  V30 15039 C 1461.25 -0.934477 -4.27301 0
M  V30 15040 C 1460.31 -0.264584 -5.25534 0
M  V30 15041 O 1459.33 -0.908543 -5.61902 0
M  V30 15042 N 1460.53 0.98609 -5.72063 0
M  V30 15043 H 1463.3 -1.56982 -2.55297 0
M  V30 15044 H 1460.86 -0.968551 -1.29733 0
M  V30 15045 H 1462.85 0.495309 -4.01658 0
M  V30 15046 H 1461.42 0.838913 -3.01133 0
M  V30 15047 H 1460.64 -1.57241 -3.61481 0
M  V30 15048 H 1461.93 -1.59232 -4.83242 0
M  V30 15049 H 1461.33 1.52904 -5.44644 0
M  V30 15050 H 1459.89 1.38867 -6.36835 0
M  V30 15051 N 1463.32 1.31536 -0.86811 0
M  V30 15052 C 1464.25 2.2663 -0.2672 0
M  V30 15053 C 1465.23 1.51023 0.602574 0
M  V30 15054 O 1466.41 1.80101 0.556408 0
M  V30 15055 C 1463.54 3.32943 0.62183 0
M  V30 15056 C 1462.59 4.26135 -0.176348 0
M  V30 15057 S 1463.42 5.12467 -1.55363 0
M  V30 15058 C 1464.58 6.22296 -0.670673 0
M  V30 15059 H 1464.81 2.7725 -1.07331 0
M  V30 15060 H 1462.34 1.39273 -0.666521 0
M  V30 15061 H 1464.3 3.94667 1.12908 0
M  V30 15062 H 1462.96 2.81081 1.40187 0
M  V30 15063 H 1462.15 5.015 0.501358 0
M  V30 15064 H 1461.76 3.68898 -0.61563 0
M  V30 15065 H 1464.05 6.77395 0.119508 0
M  V30 15066 H 1464.99 6.94215 -1.39539 0
M  V30 15067 H 1465.4 5.63994 -0.239048 0
M  V30 15068 N 1464.8 0.627364 1.44575 0
M  V30 15069 C 1465.73 -0.066735 2.33405 0
M  V30 15070 C 1466.71 -0.838666 1.47988 0
M  V30 15071 O 1467.89 -0.805296 1.76716 0
M  V30 15072 C 1465.02 -1.05148 3.31 0
M  V30 15073 C 1463.98 -0.391433 4.26206 0
M  V30 15074 C 1463.3 -1.48581 5.13642 0
M  V30 15075 C 1464.6 0.699942 5.17589 0
M  V30 15076 H 1466.3 0.675029 2.91691 0
M  V30 15077 H 1463.84 0.326066 1.4026 0
M  V30 15078 H 1465.8 -1.54576 3.92026 0
M  V30 15079 H 1464.52 -1.82408 2.70915 0
M  V30 15080 H 1463.18 0.0821694 3.66508 0
M  V30 15081 H 1462.83 -2.2492 4.49911 0
M  V30 15082 H 1462.53 -1.04957 5.7815 0
M  V30 15083 H 1464.05 -1.98198 5.77538 0
M  V30 15084 H 1465.47 0.288911 5.72572 0
M  V30 15085 H 1463.86 1.0591 5.9068 0
M  V30 15086 H 1464.93 1.5686 4.58828 0
M  V30 15087 N 1466.28 -1.53251 0.367684 0
M  V30 15088 C 1467.5 -2.0618 -0.224645 0
M  V30 15089 C 1467.93 -1.23927 -1.41505 0
M  V30 15090 O 1467.28 -0.258858 -1.79443 0
M  V30 15091 C 1467.33 -3.55671 -0.594171 0
M  V30 15092 O 1466.44 -3.76132 -1.69112 0
M  V30 15093 H 1465.78 -0.663218 -0.0322099 0
M  V30 15094 H 1468.31 -1.97646 0.528897 0
M  V30 15095 H 1468.32 -3.98734 -0.864589 0
M  V30 15096 H 1466.99 -4.14982 0.276254 0
M  V30 15097 H 1465.57 -3.44965 -1.41609 0
M  V30 15098 N 1467.75 -0.0969077 -1.57302 0
M  V30 15099 C 1469 0.565254 -1.94034 0
M  V30 15100 C 1469.32 1.68609 -0.9796 0
M  V30 15101 O 1468.59 1.95874 -0.0319788 0
M  V30 15102 H 1467.17 0.211796 -0.716346 0
M  V30 15103 H 1469.83 -0.160665 -1.94237 0
M  V30 15104 H 1468.93 0.974268 -2.96504 0
M  V30 15105 N 1469.23 1.56605 0.176793 0
M  V30 15106 C 1470.51 1.72546 0.921261 0
M  V30 15107 C 1470.89 0.656794 2.00623 0
M  V30 15108 O 1470.24 -0.329303 2.26115 0
M  V30 15109 C 1470.45 3.15548 1.491 0
M  V30 15110 C 1471.79 3.7634 1.96604 0
M  V30 15111 O 1472.82 3.18791 1.58905 0
M  V30 15112 O 1471.68 4.77377 2.66033 0
M  V30 15113 H 1468.77 0.704425 0.43326 0
M  V30 15114 H 1471.32 1.68895 0.165052 0
M  V30 15115 H 1470.09 3.84808 0.709839 0
M  V30 15116 H 1469.71 3.23502 2.31154 0
M  V30 15117 N 1470.71 -0.445159 1.51182 0
M  V30 15118 C 1472.12 -1.02528 1.56028 0
M  V30 15119 C 1472.47 -1.92503 0.379087 0
M  V30 15120 O 1471.6 -2.10424 -0.505056 0
M  V30 15121 C 1472.19 -1.86621 2.82768 0
M  V30 15122 C 1470.75 -2.39697 2.90211 0
M  V30 15123 C 1469.9 -1.18705 2.50608 0
M  V30 15124 H 1472.85 -0.226732 1.57072 0
M  V30 15125 H 1472.87 -2.71987 2.66089 0
M  V30 15126 H 1472.38 -1.2111 3.68719 0
M  V30 15127 H 1470.48 -3.08686 2.08672 0
M  V30 15128 H 1470.6 -2.73029 3.9369 0
M  V30 15129 H 1468.96 -1.52995 2.03629 0
M  V30 15130 H 1469.74 -0.548156 3.38895 0
M  V30 15131 N 1472.19 -1.41197 -0.700089 0
M  V30 15132 C 1473.14 -1.39158 -1.80607 0
M  V30 15133 C 1474.12 -0.266653 -1.58675 0
M  V30 15134 O 1475.31 -0.506973 -1.69584 0
M  V30 15135 C 1472.44 -1.27176 -3.18875 0
M  V30 15136 C 1471.53 -2.44513 -3.46517 0
M  V30 15137 N 1471.92 -3.69984 -3.44885 0
M  V30 15138 C 1470.22 -2.38228 -3.77046 0
M  V30 15139 C 1470.92 -4.4778 -3.71306 0
M  V30 15140 N 1469.89 -3.77831 -3.90826 0
M  V30 15141 H 1473.7 -2.34093 -1.77701 0
M  V30 15142 H 1471.21 -1.35188 -0.899887 0
M  V30 15143 H 1473.21 -1.23797 -3.98095 0
M  V30 15144 H 1471.87 -0.332215 -3.22996 0
M  V30 15145 H 1472.88 -4.02932 -3.25371 0
M  V30 15146 H 1469.56 -1.52722 -3.88564 0
M  V30 15147 H 1470.95 -5.56695 -3.76218 0
M  V30 15148 N 1473.67 0.933891 -1.2695 0
M  V30 15149 C 1474.6 2.05078 -1.11649 0
M  V30 15150 C 1475.58 1.70089 -0.0196463 0
M  V30 15151 O 1476.76 1.93239 -0.193007 0
M  V30 15152 C 1473.89 3.38963 -0.756387 0
M  V30 15153 C 1472.85 3.88041 -1.80577 0
M  V30 15154 C 1472.17 5.18661 -1.2998 0
M  V30 15155 C 1473.47 4.12116 -3.2087 0
M  V30 15156 H 1475.17 2.18137 -2.05077 0
M  V30 15157 H 1472.71 1.04817 -0.987392 0
M  V30 15158 H 1474.66 4.1657 -0.63619 0
M  V30 15159 H 1473.39 3.25901 0.213607 0
M  V30 15160 H 1472.05 3.12622 -1.91477 0
M  V30 15161 H 1471.7 5.01985 -0.319442 0
M  V30 15162 H 1471.4 5.52467 -2.00134 0
M  V30 15163 H 1472.92 5.98844 -1.19242 0
M  V30 15164 H 1474.33 4.80312 -3.13006 0
M  V30 15165 H 1472.73 4.57218 -3.88679 0
M  V30 15166 H 1473.8 3.17633 -3.66384 0
M  V30 15167 N 1475.14 1.08871 1.13951 0
M  V30 15168 C 1476.09 0.722966 2.19184 0
M  V30 15169 C 1477.06 -0.293108 1.63493 0
M  V30 15170 O 1478.25 -0.176036 1.89986 0
M  V30 15171 C 1475.39 0.143542 3.44801 0
M  V30 15172 C 1474.5 1.21297 4.14622 0
M  V30 15173 C 1473.63 0.596902 5.27836 0
M  V30 15174 C 1472.67 1.64803 5.89497 0
M  V30 15175 N 1471.81 1.05341 6.94152 0
M  V30 15176 H 1476.65 1.62464 2.49819 0
M  V30 15177 H 1474.19 0.811803 1.22671 0
M  V30 15178 H 1476.14 -0.210153 4.1667 0
M  V30 15179 H 1474.77 -0.721426 3.14635 0
M  V30 15180 H 1473.83 1.68403 3.41093 0
M  V30 15181 H 1475.14 2.00931 4.56539 0
M  V30 15182 H 1474.29 0.191724 6.06397 0
M  V30 15183 H 1473.03 -0.231052 4.87152 0
M  V30 15184 H 1472.04 2.06282 5.09635 0
M  V30 15185 H 1473.26 2.47855 6.32254 0
M  V30 15186 H 1471.21 0.24664 6.55536 0
M  V30 15187 H 1471.12 1.7868 7.34581 0
M  V30 15188 H 1472.39 0.674253 7.76578 0
M  V30 15189 N 1476.62 -1.31073 0.875073 0
M  V30 15190 C 1477.58 -2.26672 0.339481 0
M  V30 15191 C 1478.58 -1.52416 -0.512439 0
M  V30 15192 O 1479.77 -1.71217 -0.321012 0
M  V30 15193 C 1476.91 -3.36952 -0.517311 0
M  V30 15194 H 1478.1 -2.7556 1.18349 0
M  V30 15195 H 1475.65 -1.42093 0.65109 0
M  V30 15196 H 1476.39 -2.93364 -1.38231 0
M  V30 15197 H 1476.17 -3.9199 0.092773 0
M  V30 15198 H 1477.66 -4.08133 -0.884154 0
M  V30 15199 N 1478.1 -0.635022 -1.4424 0
M  V30 15200 C 1479.06 0.0579377 -2.29127 0
M  V30 15201 C 1480.06 0.768489 -1.41248 0
M  V30 15202 O 1481.25 0.612489 -1.63077 0
M  V30 15203 C 1478.39 1.09266 -3.22914 0
M  V30 15204 H 1479.58 -0.688723 -2.91885 0
M  V30 15205 H 1477.13 -0.395347 -1.51217 0
M  V30 15206 H 1477.87 1.86917 -2.65014 0
M  V30 15207 H 1477.65 0.587036 -3.87681 0
M  V30 15208 H 1479.14 1.57716 -3.86672 0
M  V30 15209 N 1479.58 1.53054 -0.375806 0
M  V30 15210 C 1480.53 2.22837 0.482477 0
M  V30 15211 C 1481.51 1.22728 1.04051 0
M  V30 15212 O 1482.7 1.48129 0.968854 0
M  V30 15213 C 1479.83 3.02869 1.61634 0
M  V30 15214 C 1478.92 4.10362 1.07069 0
M  V30 15215 N 1479.31 5.05187 0.248878 0
M  V30 15216 C 1477.61 4.25251 1.34452 0
M  V30 15217 C 1478.31 5.81678 -0.0510458 0
M  V30 15218 N 1477.29 5.40817 0.549318 0
M  V30 15219 H 1481.09 2.93506 -0.1521 0
M  V30 15220 H 1478.6 1.6135 -0.184373 0
M  V30 15221 H 1480.6 3.51387 2.24349 0
M  V30 15222 H 1479.26 2.33732 2.25387 0
M  V30 15223 H 1480.27 5.17777 -0.112766 0
M  V30 15224 H 1476.95 3.67342 1.98408 0
M  V30 15225 H 1478.34 6.68073 -0.716061 0
M  V30 15226 N 1481.06 0.105248 1.57248 0
M  V30 15227 C 1482.31 -0.555797 1.93891 0
M  V30 15228 C 1482.62 -1.68703 0.989883 0
M  V30 15229 O 1483.82 -2.40991 1.25043 0
M  V30 15230 C 1482.28 -1.04006 3.44544 0
M  V30 15231 C 1481.89 0.0619641 4.47957 0
M  V30 15232 C 1483.63 -1.67327 3.90131 0
M  V30 15233 C 1481.54 -0.438229 5.89774 0
M  V30 15234 H 1480.47 -0.211391 0.723761 0
M  V30 15235 H 1483.12 0.182887 1.82586 0
M  V30 15236 H 1481.5 -1.83275 3.51036 0
M  V30 15237 H 1482.68 0.837803 4.5312 0
M  V30 15238 H 1480.99 0.600973 4.1204 0
M  V30 15239 H 1483.59 -2.0584 4.93492 0
M  V30 15240 H 1483.93 -2.54638 3.29341 0
M  V30 15241 H 1484.46 -0.946231 3.86382 0
M  V30 15242 H 1481.2 0.398506 6.54288 0
M  V30 15243 H 1480.72 -1.18085 5.88061 0
M  V30 15244 H 1482.4 -0.903922 6.40655 0
M  V30 15245 N 1482.53 -1.56697 -0.168486 0
M  V30 15246 C 1483.95 -1.71808 -0.730674 0
M  V30 15247 C 1484.3 -0.716224 -1.8266 0
M  V30 15248 O 1483.42 0.121803 -2.16057 0
M  V30 15249 C 1484.02 -3.1151 -1.33217 0
M  V30 15250 C 1482.58 -3.28297 -1.84115 0
M  V30 15251 C 1481.72 -2.67757 -0.72122 0
M  V30 15252 H 1484.67 -1.58598 0.0569421 0
M  V30 15253 H 1484.69 -3.10318 -2.20189 0
M  V30 15254 H 1484.21 -3.84404 -0.53431 0
M  V30 15255 H 1482.31 -2.60364 -2.66536 0
M  V30 15256 H 1482.42 -4.3606 -1.98464 0
M  V30 15257 H 1480.78 -2.27644 -1.14239 0
M  V30 15258 H 1481.57 -3.43239 0.0648388 0
M  V30 15259 N 1484.01 0.437135 -1.51416 0
M  V30 15260 C 1484.92 1.55581 -1.75589 0
M  V30 15261 C 1485.94 1.61797 -0.640132 0
M  V30 15262 O 1487.11 1.79035 -0.922406 0
M  V30 15263 C 1484.18 2.91561 -1.87598 0
M  V30 15264 C 1483.24 2.9546 -3.11451 0
M  V30 15265 C 1482.47 4.24954 -3.22878 0
M  V30 15266 O 1482.7 5.17341 -2.40238 0
M  V30 15267 O 1481.63 4.35141 -4.15856 0
M  V30 15268 H 1485.46 1.38098 -2.70486 0
M  V30 15269 H 1483.04 0.620163 -1.3592 0
M  V30 15270 H 1484.92 3.72262 -1.97481 0
M  V30 15271 H 1483.6 3.09171 -0.958889 0
M  V30 15272 H 1482.51 2.13713 -3.07046 0
M  V30 15273 H 1483.84 2.82794 -4.0285 0
M  V30 15274 N 1485.49 1.41566 0.692592 0
M  V30 15275 C 1486.44 1.43857 1.82779 0
M  V30 15276 C 1487.43 0.316262 1.66422 0
M  V30 15277 O 1488.64 0.488433 1.73246 0
M  V30 15278 H 1485.01 0.450174 0.602368 0
M  V30 15279 H 1486.98 2.39524 1.77964 0
M  V30 15280 C 1485.73 1.34054 3.20819 0
M  V30 15281 H 1485.06 2.19701 3.34023 0
M  V30 15282 H 1486.5 1.39717 4.00319 0
M  V30 15283 C 1484.96 0.053218 3.36858 0
M  V30 15284 O 1485.49 -0.900928 3.91467 0
M  V30 15285 N 1483.69 -0.0238376 2.9059 0
M  V30 15286 H 1483.24 0.753374 2.46337 0
M  V30 15287 H 1483.2 -0.884571 3.017 0
M  V30 15288 N 1486.97 -0.927146 1.27443 0
M  V30 15289 C 1487.93 -2.00938 1.10257 0
M  V30 15290 C 1488.93 -1.60733 0.0463898 0
M  V30 15291 O 1490.12 -1.71752 0.291029 0
M  V30 15292 C 1487.25 -3.34047 0.680115 0
M  V30 15293 H 1488.45 -2.17615 2.06358 0
M  V30 15294 H 1486 -1.10802 1.10239 0
M  V30 15295 H 1486.73 -3.23069 -0.282259 0
M  V30 15296 H 1486.52 -3.64585 1.44291 0
M  V30 15297 H 1488.01 -4.13523 0.582126 0
M  V30 15298 N 1488.45 -1.09474 -1.13372 0
M  V30 15299 C 1489.39 -0.73458 -2.18798 0
M  V30 15300 C 1490.36 0.284433 -1.63647 0
M  V30 15301 O 1491.55 0.165958 -1.90077 0
M  V30 15302 C 1488.69 -0.161826 -3.4472 0
M  V30 15303 C 1487.8 -1.23494 -4.13973 0
M  V30 15304 C 1486.94 -0.624886 -5.27512 0
M  V30 15305 C 1485.98 -1.67927 -5.88614 0
M  V30 15306 N 1485.11 -1.09021 -6.93584 0
M  V30 15307 H 1489.95 -1.63787 -2.48954 0
M  V30 15308 H 1487.49 -0.818297 -1.22239 0
M  V30 15309 H 1489.45 0.188053 -4.16776 0
M  V30 15310 H 1488.08 0.70473 -3.15013 0
M  V30 15311 H 1487.13 -1.70209 -3.40196 0
M  V30 15312 H 1488.44 -2.0335 -4.55467 0
M  V30 15313 H 1487.6 -0.22388 -6.06287 0
M  V30 15314 H 1486.33 0.205214 -4.87268 0
M  V30 15315 H 1485.34 -2.08982 -5.08534 0
M  V30 15316 H 1486.56 -2.51204 -6.3093 0
M  V30 15317 H 1484.51 -0.281401 -6.55396 0
M  V30 15318 H 1484.43 -1.82573 -7.33623 0
M  V30 15319 H 1485.7 -0.715428 -7.7621 0
M  V30 15320 N 1489.92 1.30607 -0.882012 0
M  V30 15321 C 1491.2 1.91056 -0.419153 0
M  V30 15322 C 1491.58 1.80185 1.09985 0
M  V30 15323 O 1490.93 1.21717 1.93384 0
M  V30 15324 C 1491.14 3.3682 -0.913949 0
M  V30 15325 C 1492.49 4.13901 -0.947169 0
M  V30 15326 O 1493.51 3.45652 -0.860412 0
M  V30 15327 O 1492.37 5.35826 -1.07483 0
M  V30 15328 H 1489.46 0.81709 -0.127645 0
M  V30 15329 H 1492.01 1.39195 -0.970717 0
M  V30 15330 H 1490.78 3.38804 -1.95774 0
M  V30 15331 H 1490.41 3.96132 -0.34138 0
M  V30 15332 N 1491.4 0.642663 1.43901 0
M  V30 15333 C 1492.82 0.309286 1.56575 0
M  V30 15334 C 1493.02 -1.18709 1.6282 0
M  V30 15335 O 1492.07 -1.97157 1.57751 0
M  V30 15336 C 1493.39 1.01136 2.83182 0
M  V30 15337 C 1494.94 0.9906 2.96911 0
M  V30 15338 C 1495.41 1.67336 4.26336 0
M  V30 15339 N 1496.9 1.6405 4.33177 0
M  V30 15340 C 1497.64 2.13762 5.32065 0
M  V30 15341 N 1497.13 2.71716 6.37293 0
M  V30 15342 N 1498.93 2.04323 5.23649 0
M  V30 15343 H 1491.08 1.61384 1.38091 0
M  V30 15344 H 1493.34 0.678084 0.6625 0
M  V30 15345 H 1493.05 2.0664 2.84592 0
M  V30 15346 H 1492.92 0.556304 3.73075 0
M  V30 15347 H 1495.31 -0.0559997 2.95047 0
M  V30 15348 H 1495.39 1.48425 2.08335 0
M  V30 15349 H 1495.03 2.71947 4.2896 0
M  V30 15350 H 1494.96 1.15445 5.1379 0
M  V30 15351 H 1497.45 1.21749 3.57751 0
M  V30 15352 H 1497.77 3.07352 7.09052 0
M  V30 15353 H 1496.11 2.75772 6.37946 0
M  V30 15354 H 1499.3 1.5876 4.40355 0
M  V30 15355 H 1499.47 2.43376 6.0056 0
M  V30 15356 N 1492.88 -1.52852 0.383918 0
M  V30 15357 C 1494.13 -2.00694 -0.201206 0
M  V30 15358 C 1494.44 -1.2748 -1.48352 0
M  V30 15359 O 1495.65 -1.66005 -2.14836 0
M  V30 15360 C 1494.11 -3.57567 -0.409117 0
M  V30 15361 C 1493.71 -4.39675 0.859628 0
M  V30 15362 C 1495.46 -4.13713 -0.950899 0
M  V30 15363 C 1493.36 -5.88138 0.620292 0
M  V30 15364 H 1492.29 -0.749854 -0.0789656 0
M  V30 15365 H 1494.95 -1.764 0.505488 0
M  V30 15366 H 1493.33 -3.78088 -1.17753 0
M  V30 15367 H 1494.5 -4.30923 1.63224 0
M  V30 15368 H 1492.82 -3.94724 1.32597 0
M  V30 15369 H 1495.41 -5.22284 -1.14558 0
M  V30 15370 H 1495.76 -3.69463 -1.9184 0
M  V30 15371 H 1496.29 -3.97062 -0.242195 0
M  V30 15372 H 1493.03 -6.367 1.55864 0
M  V30 15373 H 1492.55 -5.99693 -0.113483 0
M  V30 15374 H 1494.23 -6.46506 0.252775 0
M  V30 15375 N 1494.36 -0.113586 -1.5719 0
M  V30 15376 C 1495.77 0.412653 -1.82083 0
M  V30 15377 C 1496.12 1.66964 -1.03041 0
M  V30 15378 O 1495.25 2.14767 -0.265354 0
M  V30 15379 C 1495.84 0.755439 -3.3027 0
M  V30 15380 C 1494.4 1.22634 -3.55862 0
M  V30 15381 C 1493.55 0.232285 -2.76325 0
M  V30 15382 H 1496.5 -0.338792 -1.55042 0
M  V30 15383 H 1496.52 1.61335 -3.44603 0
M  V30 15384 H 1496.03 -0.1596 -3.87772 0
M  V30 15385 H 1494.13 2.15846 -3.03713 0
M  V30 15386 H 1494.25 1.1754 -4.64458 0
M  V30 15387 H 1492.61 0.718222 -2.44364 0
M  V30 15388 H 1493.39 -0.675756 -3.36583 0
M  V30 15389 N 1495.84 1.56784 0.160173 0
M  V30 15390 C 1497.09 1.8226 0.873253 0
M  V30 15391 C 1497.41 0.692384 1.82294 0
M  V30 15392 O 1496.68 -0.286961 1.93787 0
M  V30 15393 H 1495.26 0.672371 0.325463 0
M  V30 15394 H 1497.92 1.94264 0.157325 0
M  V30 15395 H 1497.01 2.76714 1.44345 0
M  V30 15396 N 1497.32 -0.429099 1.51646 0
M  V30 15397 C 1498.56 -1.17482 1.63954 0
M  V30 15398 C 1498.88 -1.92152 0.36565 0
M  V30 15399 O 1500.08 -2.68991 0.368221 0
M  V30 15400 C 1498.54 -2.13703 2.89585 0
M  V30 15401 C 1498.15 -1.44642 4.24008 0
M  V30 15402 C 1499.89 -2.88657 3.11252 0
M  V30 15403 C 1497.8 -2.39395 5.40781 0
M  V30 15404 H 1496.73 -0.442234 0.610692 0
M  V30 15405 H 1499.38 -0.441088 1.7812 0
M  V30 15406 H 1497.76 -2.90545 2.69071 0
M  V30 15407 H 1498.94 -0.733012 4.54932 0
M  V30 15408 H 1497.25 -0.818084 4.08285 0
M  V30 15409 H 1499.85 -3.59653 3.95669 0
M  V30 15410 H 1500.19 -3.50473 2.24664 0
M  V30 15411 H 1500.72 -2.18919 3.32144 0
M  V30 15412 H 1497.46 -1.82255 6.29653 0
M  V30 15413 H 1496.98 -3.08766 5.14222 0
M  V30 15414 H 1498.66 -3.0035 5.73061 0
M  V30 15415 N 1498.79 -1.41931 -0.685074 0
M  V30 15416 C 1500.04 -1.42062 -1.44728 0
M  V30 15417 C 1500.37 -0.0332072 -1.94172 0
M  V30 15418 O 1499.65 0.940835 -1.70231 0
M  V30 15419 C 1499.93 -2.43634 -2.65168 0
M  V30 15420 C 1499.78 -3.91525 -2.21423 0
M  V30 15421 C 1501.1 -2.42325 -3.67378 0
M  V30 15422 H 1498.22 -0.517321 -0.524927 0
M  V30 15423 H 1500.86 -1.73277 -0.779419 0
M  V30 15424 H 1499.01 -2.17146 -3.22149 0
M  V30 15425 H 1500.69 -4.28956 -1.69689 0
M  V30 15426 H 1498.93 -4.05886 -1.53099 0
M  V30 15427 H 1499.6 -4.58158 -3.07889 0
M  V30 15428 H 1502.08 -2.65857 -3.20093 0
M  V30 15429 H 1500.95 -3.15391 -4.49243 0
M  V30 15430 H 1501.21 -1.44555 -4.17799 0
M  V30 15431 N 1500.27 0.920374 -1.27933 0
M  V30 15432 C 1501.68 1.48385 -1.13309 0
M  V30 15433 C 1502.03 1.94202 0.279307 0
M  V30 15434 O 1501.16 1.81855 1.17294 0
M  V30 15435 C 1501.75 2.69681 -2.05079 0
M  V30 15436 C 1500.31 3.22229 -1.94539 0
M  V30 15437 C 1499.46 1.94948 -1.97207 0
M  V30 15438 H 1502.41 0.733744 -1.40719 0
M  V30 15439 H 1502.43 3.44717 -1.6109 0
M  V30 15440 H 1501.94 2.36304 -3.07867 0
M  V30 15441 H 1500.04 3.60348 -0.94764 0
M  V30 15442 H 1500.16 3.87927 -2.81157 0
M  V30 15443 H 1498.52 2.1176 -1.41527 0
M  V30 15444 H 1499.3 1.63875 -3.01662 0
M  V30 15445 N 1501.75 1.10074 1.1279 0
M  V30 15446 C 1502.68 0.690084 2.17516 0
M  V30 15447 C 1503.66 -0.306745 1.5968 0
M  V30 15448 O 1504.84 -0.206533 1.87365 0
M  V30 15449 C 1501.97 0.0176562 3.38695 0
M  V30 15450 C 1501.02 0.97736 4.1515 0
M  V30 15451 S 1501.85 2.49282 4.7394 0
M  V30 15452 C 1503.01 1.83299 5.98458 0
M  V30 15453 H 1503.24 1.57723 2.52013 0
M  V30 15454 H 1500.77 0.917373 1.24192 0
M  V30 15455 H 1502.73 -0.363992 4.08883 0
M  V30 15456 H 1501.39 -0.846237 3.02486 0
M  V30 15457 H 1500.58 0.454057 5.01951 0
M  V30 15458 H 1500.19 1.30073 3.50652 0
M  V30 15459 H 1502.48 1.16098 6.67478 0
M  V30 15460 H 1503.42 2.68041 6.55408 0
M  V30 15461 H 1503.83 1.29909 5.49349 0
M  V30 15462 N 1503.23 -1.30138 0.888926 0
M  V30 15463 C 1504.16 -2.27013 0.315904 0
M  V30 15464 C 1505.17 -1.53871 -0.531746 0
M  V30 15465 O 1506.36 -1.75022 -0.350654 0
M  V30 15466 C 1503.46 -3.34087 -0.569119 0
M  V30 15467 C 1502.63 -4.36683 0.250359 0
M  V30 15468 C 1501.69 -5.23149 -0.565783 0
M  V30 15469 O 1500.72 -5.69199 0.0129167 0
M  V30 15470 N 1501.92 -5.49416 -1.8741 0
M  V30 15471 H 1504.69 -2.76821 1.14848 0
M  V30 15472 H 1502.25 -1.43359 0.752311 0
M  V30 15473 H 1504.24 -3.88857 -1.12125 0
M  V30 15474 H 1502.81 -2.84178 -1.30237 0
M  V30 15475 H 1502.03 -3.81723 0.983931 0
M  V30 15476 H 1503.32 -5.02279 0.811964 0
M  V30 15477 H 1502.72 -5.13793 -2.36713 0
M  V30 15478 H 1501.27 -6.07045 -2.37359 0
M  V30 15479 N 1504.71 -0.650285 -1.43559 0
M  V30 15480 C 1505.95 -0.159832 -2.01066 0
M  V30 15481 C 1506.27 1.23246 -1.51887 0
M  V30 15482 O 1507.47 1.81797 -2.01648 0
M  V30 15483 C 1505.93 -0.23494 -3.59132 0
M  V30 15484 C 1505.54 -1.62975 -4.17305 0
M  V30 15485 C 1507.28 0.198061 -4.24038 0
M  V30 15486 C 1505.19 -1.65894 -5.67656 0
M  V30 15487 H 1504.12 -0.0559899 -0.751918 0
M  V30 15488 H 1506.77 -0.811891 -1.64562 0
M  V30 15489 H 1505.15 0.484573 -3.93024 0
M  V30 15490 H 1506.33 -2.37438 -3.94918 0
M  V30 15491 H 1504.64 -2.00847 -3.64759 0
M  V30 15492 H 1507.24 0.196054 -5.3434 0
M  V30 15493 H 1507.58 1.22896 -3.97747 0
M  V30 15494 H 1508.11 -0.469602 -3.95018 0
M  V30 15495 H 1504.85 -2.66883 -5.9871 0
M  V30 15496 H 1504.37 -0.957519 -5.92108 0
M  V30 15497 H 1506.05 -1.40137 -6.31641 0
M  V30 15498 N 1506.18 1.52647 -0.392018 0
M  V30 15499 C 1507.59 1.86522 0.0814091 0
M  V30 15500 C 1507.95 1.31158 1.45918 0
M  V30 15501 O 1507.07 0.644007 2.06595 0
M  V30 15502 C 1507.67 3.38448 0.1545 0
M  V30 15503 C 1506.22 3.72025 0.572227 0
M  V30 15504 C 1505.37 2.7604 -0.264093 0
M  V30 15505 H 1508.32 1.46517 -0.609785 0
M  V30 15506 H 1508.34 3.67846 0.973109 0
M  V30 15507 H 1507.86 3.78713 -0.848396 0
M  V30 15508 H 1505.96 3.37329 1.58239 0
M  V30 15509 H 1506.07 4.77973 0.328491 0
M  V30 15510 H 1504.43 2.53254 0.271042 0
M  V30 15511 H 1505.22 3.19143 -1.26502 0
M  V30 15512 N 1507.66 0.121921 1.57128 0
M  V30 15513 C 1508.89 -0.546325 2.00075 0
M  V30 15514 C 1509.31 -1.59245 1.00113 0
M  V30 15515 O 1508.67 -1.8128 -0.0267687 0
M  V30 15516 C 1508.72 -1.14651 3.41888 0
M  V30 15517 O 1507.82 -2.26199 3.4483 0
M  V30 15518 H 1507.16 -0.136184 0.649885 0
M  V30 15519 H 1509.69 0.211257 2.03506 0
M  V30 15520 H 1509.7 -1.48133 3.80159 0
M  V30 15521 H 1508.38 -0.380273 4.14158 0
M  V30 15522 H 1506.96 -1.94134 3.18381 0
M  V30 15523 N 1509.14 -1.56867 -0.151857 0
M  V30 15524 C 1510.55 -1.72573 -0.712411 0
M  V30 15525 C 1510.9 -0.735557 -1.8189 0
M  V30 15526 O 1510.03 0.09888 -2.16174 0
M  V30 15527 C 1510.62 -3.12906 -1.29905 0
M  V30 15528 C 1509.18 -3.30231 -1.80623 0
M  V30 15529 C 1508.33 -2.68507 -0.692781 0
M  V30 15530 H 1511.28 -1.58528 0.0737603 0
M  V30 15531 H 1511.3 -3.12636 -2.16885 0
M  V30 15532 H 1510.81 -3.84949 -0.493509 0
M  V30 15533 H 1508.91 -2.63176 -2.6376 0
M  V30 15534 H 1509.03 -4.38141 -1.93828 0
M  V30 15535 H 1507.39 -2.28842 -1.11818 0
M  V30 15536 H 1508.17 -3.43151 0.10124 0
M  V30 15537 N 1510.62 0.421051 -1.51871 0
M  V30 15538 C 1511.53 1.5371 -1.7723 0
M  V30 15539 C 1512.54 1.61109 -0.657256 0
M  V30 15540 O 1513.72 1.78047 -0.941343 0
M  V30 15541 C 1510.79 2.89555 -1.9068 0
M  V30 15542 C 1509.85 2.9214 -3.14567 0
M  V30 15543 C 1509.08 4.21505 -3.27367 0
M  V30 15544 O 1509.3 5.14764 -2.45712 0
M  V30 15545 O 1508.24 4.30706 -4.20448 0
M  V30 15546 H 1512.06 1.35221 -2.71935 0
M  V30 15547 H 1509.65 0.605712 -1.3657 0
M  V30 15548 H 1511.53 3.70147 -2.01418 0
M  V30 15549 H 1510.2 3.08137 -0.991627 0
M  V30 15550 H 1509.11 2.10444 -3.09296 0
M  V30 15551 H 1510.44 2.78505 -4.05827 0
M  V30 15552 N 1512.1 1.42293 0.677538 0
M  V30 15553 C 1513.34 1.42827 1.43973 0
M  V30 15554 C 1513.68 0.0435041 1.94151 0
M  V30 15555 O 1512.95 -0.931794 1.70727 0
M  V30 15556 C 1513.23 2.45037 2.63873 0
M  V30 15557 C 1513.09 3.92694 2.19344 0
M  V30 15558 C 1514.41 2.4427 3.66087 0
M  V30 15559 H 1511.52 0.520097 0.522176 0
M  V30 15560 H 1514.17 1.73688 0.770219 0
M  V30 15561 H 1512.32 2.18851 3.20993 0
M  V30 15562 H 1513.99 4.2985 1.67412 0
M  V30 15563 H 1512.23 4.06692 1.50944 0
M  V30 15564 H 1512.9 4.59784 3.05455 0
M  V30 15565 H 1515.38 2.67551 3.18678 0
M  V30 15566 H 1514.25 3.17769 4.47564 0
M  V30 15567 H 1514.52 1.46769 4.17027 0
M  V30 15568 N 1513.57 -0.913576 1.28419 0
M  V30 15569 C 1514.82 -1.66273 1.15584 0
M  V30 15570 C 1515.15 -1.92242 -0.295541 0
M  V30 15571 O 1514.4 -1.52104 -1.23137 0
M  V30 15572 C 1514.7 -3.02722 1.89985 0
M  V30 15573 C 1514.37 -2.96413 3.3978 0
M  V30 15574 C 1513.03 -2.94399 3.80635 0
M  V30 15575 C 1515.38 -2.86648 4.35296 0
M  V30 15576 C 1512.71 -2.80422 5.15345 0
M  V30 15577 C 1515.06 -2.74211 5.7008 0
M  V30 15578 C 1513.73 -2.70556 6.1021 0
M  V30 15579 H 1513 -0.608435 0.422951 0
M  V30 15580 H 1515.64 -1.06438 1.59196 0
M  V30 15581 H 1513.95 -3.66344 1.38923 0
M  V30 15582 H 1515.65 -3.59591 1.7747 0
M  V30 15583 H 1512.24 -2.98775 3.07297 0
M  V30 15584 H 1516.42 -2.87291 4.04695 0
M  V30 15585 H 1511.68 -2.75987 5.45565 0
M  V30 15586 H 1515.85 -2.65624 6.43752 0
M  V30 15587 H 1513.48 -2.59483 7.14544 0
M  V30 15588 N 1515.05 -1.1067 -1.12204 0
M  V30 15589 C 1515.96 -0.770221 -2.21596 0
M  V30 15590 C 1516.98 0.233297 -1.72429 0
M  V30 15591 O 1518.15 0.0714493 -2.01273 0
M  V30 15592 C 1515.22 -0.209682 -3.46065 0
M  V30 15593 C 1514.28 -1.27079 -4.1006 0
M  V30 15594 C 1513.51 -0.736899 -5.28588 0
M  V30 15595 O 1513.74 0.435838 -5.68732 0
M  V30 15596 O 1512.67 -1.49797 -5.82962 0
M  V30 15597 H 1516.5 -1.6834 -2.52776 0
M  V30 15598 H 1514.08 -0.882012 -1.20586 0
M  V30 15599 H 1515.96 0.0989516 -4.21284 0
M  V30 15600 H 1514.64 0.676316 -3.16556 0
M  V30 15601 H 1513.55 -1.63231 -3.3661 0
M  V30 15602 H 1514.88 -2.12989 -4.4373 0
M  V30 15603 N 1516.53 1.29665 -0.895815 0
M  V30 15604 C 1517.44 2.31582 -0.375086 0
M  V30 15605 C 1518.46 1.65789 0.528196 0
M  V30 15606 O 1519.63 1.96999 0.41871 0
M  V30 15607 C 1516.7 3.44472 0.39241 0
M  V30 15608 C 1515.76 4.25866 -0.541926 0
M  V30 15609 C 1514.99 5.33365 0.189037 0
M  V30 15610 O 1515.21 5.52607 1.41355 0
M  V30 15611 O 1514.15 6.0009 -0.466441 0
M  V30 15612 H 1517.97 2.78095 -1.22052 0
M  V30 15613 H 1515.56 1.34031 -0.660007 0
M  V30 15614 H 1517.44 4.13214 0.826565 0
M  V30 15615 H 1516.12 3.00074 1.21397 0
M  V30 15616 H 1515.02 3.59781 -1.02512 0
M  V30 15617 H 1516.36 4.73896 -1.32979 0
M  V30 15618 N 1518.01 0.657889 1.43212 0
M  V30 15619 C 1518.94 -0.0172114 2.33494 0
M  V30 15620 C 1519.92 -0.807087 1.49733 0
M  V30 15621 O 1521.1 -0.767631 1.78385 0
M  V30 15622 C 1518.23 -0.981029 3.33156 0
M  V30 15623 C 1517.19 -0.30094 4.26941 0
M  V30 15624 C 1516.51 -1.37653 5.16678 0
M  V30 15625 C 1517.81 0.809572 5.15988 0
M  V30 15626 H 1519.51 0.736749 2.90194 0
M  V30 15627 H 1517.05 0.355744 1.39537 0
M  V30 15628 H 1519.01 -1.46226 3.95216 0
M  V30 15629 H 1517.73 -1.76621 2.74723 0
M  V30 15630 H 1516.39 0.159893 3.66251 0
M  V30 15631 H 1516.04 -2.15326 4.54581 0
M  V30 15632 H 1515.74 -0.926704 5.80246 0
M  V30 15633 H 1517.26 -1.85903 5.81612 0
M  V30 15634 H 1518.68 0.410297 5.7183 0
M  V30 15635 H 1517.07 1.18415 5.88301 0
M  V30 15636 H 1518.14 1.66558 4.55397 0
M  V30 15637 N 1519.49 -1.52437 0.400108 0
M  V30 15638 C 1520.74 -2.00896 -0.179909 0
M  V30 15639 C 1521.05 -1.29046 -1.46991 0
M  V30 15640 O 1522.25 -1.68274 -2.13063 0
M  V30 15641 C 1520.71 -3.57981 -0.371169 0
M  V30 15642 C 1520.32 -4.38739 0.906213 0
M  V30 15643 C 1522.06 -4.14698 -0.906965 0
M  V30 15644 C 1519.97 -5.87447 0.682637 0
M  V30 15645 H 1518.9 -0.750649 -0.071008 0
M  V30 15646 H 1521.55 -1.75854 0.524169 0
M  V30 15647 H 1519.93 -3.79315 -1.13736 0
M  V30 15648 H 1521.11 -4.29167 1.67785 0
M  V30 15649 H 1519.42 -3.93296 1.36776 0
M  V30 15650 H 1522.02 -5.2347 -1.09012 0
M  V30 15651 H 1522.36 -3.71477 -1.87911 0
M  V30 15652 H 1522.89 -3.97297 -0.200068 0
M  V30 15653 H 1519.63 -6.35011 1.62608 0
M  V30 15654 H 1519.15 -5.99779 -0.0498716 0
M  V30 15655 H 1520.83 -6.46202 0.321331 0
M  V30 15656 N 1520.96 -0.130252 -1.57061 0
M  V30 15657 C 1521.91 0.815767 -2.15902 0
M  V30 15658 C 1522.88 1.2558 -1.08715 0
M  V30 15659 O 1524.07 1.33132 -1.36677 0
M  V30 15660 C 1521.21 2.0561 -2.77162 0
M  V30 15661 C 1520.32 1.6634 -3.98692 0
M  V30 15662 C 1519.45 2.85425 -4.48002 0
M  V30 15663 C 1518.49 2.42449 -5.62036 0
M  V30 15664 N 1517.63 3.54486 -6.0604 0
M  V30 15665 H 1522.47 0.307164 -2.96413 0
M  V30 15666 H 1520.01 0.139913 -1.46433 0
M  V30 15667 H 1521.97 2.78298 -3.10815 0
M  V30 15668 H 1520.6 2.5391 -1.99323 0
M  V30 15669 H 1519.65 0.834817 -3.71127 0
M  V30 15670 H 1520.96 1.30765 -4.81354 0
M  V30 15671 H 1520.11 3.66325 -4.83623 0
M  V30 15672 H 1518.85 3.24235 -3.64312 0
M  V30 15673 H 1517.86 1.59985 -5.26008 0
M  V30 15674 H 1519.08 2.04744 -6.475 0
M  V30 15675 H 1517.03 3.92948 -5.25289 0
M  V30 15676 H 1516.95 3.22871 -6.83586 0
M  V30 15677 H 1518.21 4.35792 -6.46302 0
M  V30 15678 N 1522.44 1.56945 0.143535 0
M  V30 15679 C 1523.69 1.83538 0.855563 0
M  V30 15680 C 1524.02 0.711666 1.81013 0
M  V30 15681 O 1523.27 -0.299039 1.93402 0
M  V30 15682 C 1523.57 3.16482 1.66054 0
M  V30 15683 C 1523.24 4.42768 0.85246 0
M  V30 15684 C 1521.9 4.77064 0.629535 0
M  V30 15685 C 1524.25 5.20406 0.287567 0
M  V30 15686 C 1521.58 5.86457 -0.168934 0
M  V30 15687 C 1523.93 6.30637 -0.49796 0
M  V30 15688 C 1522.6 6.6348 -0.731429 0
M  V30 15689 H 1521.87 0.671615 0.313073 0
M  V30 15690 H 1524.51 1.9113 0.11904 0
M  V30 15691 H 1522.82 3.04357 2.46727 0
M  V30 15692 H 1524.52 3.34274 2.215 0
M  V30 15693 H 1521.11 4.15884 1.03628 0
M  V30 15694 H 1525.29 4.94282 0.447066 0
M  V30 15695 H 1520.55 6.10343 -0.359283 0
M  V30 15696 H 1524.72 6.89989 -0.942792 0
M  V30 15697 H 1522.35 7.48081 -1.35199 0
M  V30 15698 N 1523.92 -0.412991 1.52093 0
M  V30 15699 C 1525.15 -1.18667 1.70096 0
M  V30 15700 C 1525.57 -1.83622 0.408012 0
M  V30 15701 O 1524.93 -1.69847 -0.634174 0
M  V30 15702 C 1524.98 -2.22837 2.83507 0
M  V30 15703 O 1524.08 -3.2889 2.48807 0
M  V30 15704 H 1523.42 -0.346581 0.566373 0
M  V30 15705 H 1525.95 -0.484642 1.98777 0
M  V30 15706 H 1525.96 -2.67229 3.08306 0
M  V30 15707 H 1524.64 -1.74942 3.77317 0
M  V30 15708 H 1523.21 -2.89804 2.34665 0
M  V30 15709 N 1525.4 -1.4265 -0.669982 0
M  V30 15710 C 1526.65 -1.43376 -1.43002 0
M  V30 15711 C 1526.97 -0.0519386 -1.94431 0
M  V30 15712 O 1526.23 0.940456 -1.71621 0
M  V30 15713 C 1526.53 -2.40913 -2.63999 0
M  V30 15714 C 1526.19 -3.87183 -2.31085 0
M  V30 15715 C 1524.86 -4.27024 -2.21819 0
M  V30 15716 C 1527.21 -4.79428 -2.04447 0
M  V30 15717 C 1524.54 -5.57084 -1.84049 0
M  V30 15718 C 1526.89 -6.09835 -1.68179 0
M  V30 15719 C 1525.55 -6.4867 -1.57428 0
M  V30 15720 H 1524.82 -0.524651 -0.52328 0
M  V30 15721 H 1527.47 -1.75622 -0.763494 0
M  V30 15722 H 1525.77 -2.02012 -3.35706 0
M  V30 15723 H 1527.47 -2.38737 -3.22189 0
M  V30 15724 H 1524.06 -3.55642 -2.392 0
M  V30 15725 H 1528.25 -4.49431 -2.10535 0
M  V30 15726 H 1523.5 -5.86029 -1.74298 0
M  V30 15727 H 1527.68 -6.80796 -1.46594 0
M  V30 15728 H 1525.3 -7.49358 -1.2793 0
M  V30 15729 N 1526.88 0.906753 -1.28902 0
M  V30 15730 C 1527.83 1.99676 -1.10061 0
M  V30 15731 C 1528.81 1.60885 -0.0221442 0
M  V30 15732 O 1530 1.75323 -0.24307 0
M  V30 15733 C 1527.13 3.34511 -0.771823 0
M  V30 15734 C 1526.22 3.79683 -1.88948 0
M  V30 15735 N 1526.61 3.97159 -3.13207 0
M  V30 15736 C 1524.91 4.089 -1.78092 0
M  V30 15737 C 1525.61 4.35108 -3.86078 0
M  V30 15738 N 1524.58 4.43759 -3.13973 0
M  V30 15739 H 1528.39 2.11247 -2.04333 0
M  V30 15740 H 1525.9 1.09508 -1.19924 0
M  V30 15741 H 1527.9 4.12295 -0.617909 0
M  V30 15742 H 1526.56 3.2429 0.16305 0
M  V30 15743 H 1527.57 3.82884 -3.4874 0
M  V30 15744 H 1524.25 4.07276 -0.918291 0
M  V30 15745 H 1525.64 4.56533 -4.92978 0
M  V30 15746 N 1528.36 1.11264 1.11616 0
M  V30 15747 C 1529.58 0.882802 1.87121 0
M  V30 15748 C 1530 -0.567279 1.80076 0
M  V30 15749 O 1529.36 -1.39158 1.18074 0
M  V30 15750 C 1529.41 1.33355 3.36004 0
M  V30 15751 O 1529.13 2.72678 3.42897 0
M  V30 15752 C 1530.63 1.13886 4.28421 0
M  V30 15753 H 1527.85 0.316275 0.591786 0
M  V30 15754 H 1530.39 1.4795 1.41177 0
M  V30 15755 H 1528.55 0.780347 3.79459 0
M  V30 15756 H 1528.96 2.92168 4.35589 0
M  V30 15757 H 1530.44 1.50329 5.31136 0
M  V30 15758 H 1530.91 0.078259 4.3913 0
M  V30 15759 H 1531.52 1.67896 3.90757 0
M  V30 15760 N 1529.83 -1.29188 0.902679 0
M  V30 15761 C 1530.78 -2.29597 0.372585 0
M  V30 15762 C 1531.78 -1.609 -0.529858 0
M  V30 15763 O 1532.98 -1.75214 -0.41233 0
M  V30 15764 H 1529.36 -0.745069 0.101864 0
M  V30 15765 H 1531.33 -2.71746 1.23275 0
M  V30 15766 C 1530.08 -3.45594 -0.382128 0
M  V30 15767 H 1529.4 -3.9865 0.303061 0
M  V30 15768 H 1530.84 -4.17879 -0.717852 0
M  V30 15769 C 1529.3 -2.97238 -1.58591 0
M  V30 15770 O 1529.83 -2.98767 -2.68517 0
M  V30 15771 N 1528.03 -2.53032 -1.42909 0
M  V30 15772 H 1527.58 -2.51988 -0.534786 0
M  V30 15773 H 1527.54 -2.21038 -2.23584 0
M  V30 15774 N 1531.31 -0.665475 -1.42861 0
M  V30 15775 C 1532.56 -0.184156 -2.01962 0
M  V30 15776 C 1532.89 1.20301 -1.52451 0
M  V30 15777 O 1532.17 1.80573 -0.722756 0
M  V30 15778 C 1532.45 -0.208497 -3.59496 0
M  V30 15779 C 1532.3 -1.63045 -4.19209 0
M  V30 15780 C 1533.62 0.448421 -4.3781 0
M  V30 15781 H 1530.74 -0.0683924 -0.73382 0
M  V30 15782 H 1533.38 -0.84849 -1.70002 0
M  V30 15783 H 1531.53 0.357179 -3.86855 0
M  V30 15784 H 1533.2 -2.24766 -4.02837 0
M  V30 15785 H 1531.45 -2.17401 -3.75392 0
M  V30 15786 H 1532.12 -1.59924 -5.28326 0
M  V30 15787 H 1534.59 -0.0330053 -4.16087 0
M  V30 15788 H 1533.47 0.400713 -5.47435 0
M  V30 15789 H 1533.73 1.52454 -4.14982 0
M  V30 15790 N 1532.79 1.52222 -0.408187 0
M  V30 15791 C 1533.72 2.29892 0.408868 0
M  V30 15792 C 1534.7 1.34063 1.04695 0
M  V30 15793 O 1535.89 1.6297 1.05615 0
M  V30 15794 C 1533.02 3.11964 1.52629 0
M  V30 15795 C 1531.97 4.15833 1.01326 0
M  V30 15796 C 1531.3 4.86244 2.2242 0
M  V30 15797 C 1532.6 5.22256 0.0679573 0
M  V30 15798 H 1534.29 2.98443 -0.23923 0
M  V30 15799 H 1531.84 1.43528 -0.116496 0
M  V30 15800 H 1533.79 3.65067 2.10486 0
M  V30 15801 H 1532.51 2.41181 2.20225 0
M  V30 15802 H 1531.17 3.63739 0.4571 0
M  V30 15803 H 1530.82 4.11991 2.88569 0
M  V30 15804 H 1530.52 5.56461 1.88746 0
M  V30 15805 H 1532.04 5.42159 2.80885 0
M  V30 15806 H 1533.46 5.70604 0.555295 0
M  V30 15807 H 1531.85 5.9983 -0.179934 0
M  V30 15808 H 1532.92 4.76892 -0.877599 0
M  V30 15809 N 1534.27 0.138579 1.5699 0
M  V30 15810 C 1535.18 -0.817548 2.19894 0
M  V30 15811 C 1536.19 -1.27806 1.18075 0
M  V30 15812 O 1537.37 -1.33699 1.5062 0
M  V30 15813 C 1534.43 -2.04244 2.80152 0
M  V30 15814 C 1533.5 -1.63197 3.97071 0
M  V30 15815 C 1532.73 -2.79847 4.54446 0
M  V30 15816 O 1532.95 -3.95827 4.10703 0
M  V30 15817 O 1531.89 -2.55804 5.44838 0
M  V30 15818 H 1535.71 -0.312123 3.02092 0
M  V30 15819 H 1533.3 -0.0880281 1.4914 0
M  V30 15820 H 1535.18 -2.75945 3.18485 0
M  V30 15821 H 1533.85 -2.53755 2.00973 0
M  V30 15822 H 1532.76 -0.885448 3.6347 0
M  V30 15823 H 1534.09 -1.1841 4.77745 0
M  V30 15824 N 1535.75 -1.57019 -0.13521 0
M  V30 15825 C 1537.02 -1.74928 -0.875189 0
M  V30 15826 C 1537.4 -0.709755 -1.98811 0
M  V30 15827 O 1536.75 0.269237 -2.26908 0
M  V30 15828 C 1536.96 -3.1939 -1.40681 0
M  V30 15829 C 1538.31 -3.8142 -1.86557 0
M  V30 15830 O 1539.33 -3.22892 -1.50397 0
M  V30 15831 O 1538.19 -4.84263 -2.53282 0
M  V30 15832 H 1535.29 -0.715665 -0.414431 0
M  V30 15833 H 1537.83 -1.69274 -0.120215 0
M  V30 15834 H 1536.6 -3.86554 -0.607564 0
M  V30 15835 H 1536.23 -3.29517 -2.22496 0
M  V30 15836 N 1537.22 0.404919 -1.52309 0
M  V30 15837 C 1538.17 1.51412 -1.7657 0
M  V30 15838 C 1539.17 1.5713 -0.632983 0
M  V30 15839 O 1540.37 1.60486 -0.815121 0
M  V30 15840 H 1536.75 0.503636 -0.55844 0
M  V30 15841 H 1538.72 1.28137 -2.69488 0
M  V30 15842 C 1537.47 2.88733 -1.93722 0
M  V30 15843 H 1536.79 2.85078 -2.80304 0
M  V30 15844 H 1538.23 3.65626 -2.14695 0
M  V30 15845 C 1536.69 3.29431 -0.705444 0
M  V30 15846 O 1537.22 4.01506 0.124693 0
M  V30 15847 N 1535.43 2.85536 -0.540128 0
M  V30 15848 H 1534.97 2.27052 -1.21677 0
M  V30 15849 H 1534.93 3.13126 0.282723 0
M  V30 15850 N 1538.7 1.43003 0.662408 0
M  V30 15851 C 1539.95 1.43422 1.41821 0
M  V30 15852 C 1540.26 0.0586909 1.95512 0
M  V30 15853 O 1541.47 -0.0596978 2.71434 0
M  V30 15854 C 1539.93 2.52344 2.56613 0
M  V30 15855 C 1539.53 3.95961 2.09569 0
M  V30 15856 C 1541.28 2.61945 3.34044 0
M  V30 15857 C 1539.19 4.96367 3.21518 0
M  V30 15858 H 1538.12 0.533485 0.532832 0
M  V30 15859 H 1540.77 1.68958 0.715911 0
M  V30 15860 H 1539.15 2.19993 3.2927 0
M  V30 15861 H 1540.32 4.37728 1.43984 0
M  V30 15862 H 1538.64 3.90322 1.45044 0
M  V30 15863 H 1541.23 3.34137 4.17441 0
M  V30 15864 H 1541.58 1.66708 3.81463 0
M  V30 15865 H 1542.11 2.93552 2.68463 0
M  V30 15866 H 1538.85 5.93124 2.79077 0
M  V30 15867 H 1538.37 4.59221 3.85845 0
M  V30 15868 H 1540.05 5.18652 3.86793 0
M  V30 15869 N 1540.18 -0.899904 1.29381 0
M  V30 15870 C 1541.43 -1.64712 1.17109 0
M  V30 15871 C 1541.75 -1.93011 -0.277772 0
M  V30 15872 O 1541.02 -1.55604 -1.19013 0
M  V30 15873 H 1539.6 -0.610532 0.430418 0
M  V30 15874 H 1542.26 -1.07905 1.62304 0
M  V30 15875 H 1541.36 -2.60362 1.72098 0
M  V30 15876 N 1541.66 -1.11854 -1.11024 0
M  V30 15877 C 1542.89 -0.891419 -1.86379 0
M  V30 15878 C 1543.3 0.562516 -1.80644 0
M  V30 15879 O 1542.64 1.40037 -1.18893 0
M  V30 15880 C 1542.7 -1.28029 -3.3593 0
M  V30 15881 C 1542.37 -2.74427 -3.65429 0
M  V30 15882 C 1543.36 -3.72636 -3.62545 0
M  V30 15883 C 1541.05 -3.11182 -3.94298 0
M  V30 15884 C 1543.04 -5.05615 -3.88113 0
M  V30 15885 C 1540.73 -4.44345 -4.19524 0
M  V30 15886 C 1541.73 -5.41371 -4.16421 0
M  V30 15887 O 1541.41 -6.72135 -4.41009 0
M  V30 15888 H 1541.15 -0.318813 -0.596099 0
M  V30 15889 H 1543.7 -1.49069 -1.41307 0
M  V30 15890 H 1541.93 -0.624186 -3.81629 0
M  V30 15891 H 1543.62 -1.02827 -3.92659 0
M  V30 15892 H 1544.39 -3.45586 -3.40287 0
M  V30 15893 H 1540.26 -2.36274 -3.95848 0
M  V30 15894 H 1543.81 -5.81338 -3.85606 0
M  V30 15895 H 1539.71 -4.71127 -4.41259 0
M  V30 15896 H 1540.47 -6.77989 -4.58555 0
M  V30 15897 N 1543.14 1.28707 -0.909517 0
M  V30 15898 C 1544.07 2.29845 -0.411552 0
M  V30 15899 C 1545.05 1.62001 0.518615 0
M  V30 15900 O 1546.23 1.89442 0.427252 0
M  V30 15901 C 1543.36 3.45501 0.353013 0
M  V30 15902 C 1542.32 4.25213 -0.487625 0
M  V30 15903 C 1541.64 5.33164 0.405026 0
M  V30 15904 C 1542.94 4.9237 -1.74268 0
M  V30 15905 H 1544.64 2.71746 -1.25676 0
M  V30 15906 H 1542.18 1.30639 -0.605759 0
M  V30 15907 H 1544.14 4.15338 0.712191 0
M  V30 15908 H 1542.86 3.02469 1.23209 0
M  V30 15909 H 1541.52 3.57098 -0.829265 0
M  V30 15910 H 1541.17 4.86375 1.28252 0
M  V30 15911 H 1540.87 5.87399 -0.153811 0
M  V30 15912 H 1542.39 6.0585 0.760179 0
M  V30 15913 H 1543.8 5.5459 -1.45266 0
M  V30 15914 H 1542.2 5.56581 -2.2436 0
M  V30 15915 H 1543.27 4.171 -2.47297 0
M  V30 15916 N 1544.61 0.673042 1.42506 0
M  V30 15917 C 1546.03 0.342429 1.55883 0
M  V30 15918 C 1546.23 -1.15229 1.65302 0
M  V30 15919 O 1545.29 -1.93767 1.61897 0
M  V30 15920 C 1546.6 1.0712 2.80973 0
M  V30 15921 C 1548.15 1.05336 2.94743 0
M  V30 15922 C 1548.62 1.76342 4.22691 0
M  V30 15923 N 1550.11 1.73201 4.29599 0
M  V30 15924 C 1550.85 2.25 5.27411 0
M  V30 15925 N 1550.34 2.85173 6.31386 0
M  V30 15926 N 1552.14 2.15385 5.19197 0
M  V30 15927 H 1544.29 1.64277 1.34636 0
M  V30 15928 H 1546.55 0.691984 0.647968 0
M  V30 15929 H 1546.26 2.1263 2.80145 0
M  V30 15930 H 1546.13 0.635313 3.71811 0
M  V30 15931 H 1548.52 0.00659669 2.95099 0
M  V30 15932 H 1548.6 1.52811 2.0514 0
M  V30 15933 H 1548.24 2.80985 4.23096 0
M  V30 15934 H 1548.17 1.26317 5.11225 0
M  V30 15935 H 1550.66 1.2931 3.55088 0
M  V30 15936 H 1550.98 3.22323 7.02373 0
M  V30 15937 H 1549.32 2.89242 6.31953 0
M  V30 15938 H 1552.51 1.68065 4.36889 0
M  V30 15939 H 1552.69 2.5606 5.95262 0
M  V30 15940 N 1546.09 -1.52004 0.416254 0
M  V30 15941 C 1547.34 -2.01889 -0.157201 0
M  V30 15942 C 1547.67 -1.30153 -1.44535 0
M  V30 15943 O 1546.92 -0.39855 -1.91599 0
M  V30 15944 C 1547.22 -3.54624 -0.444553 0
M  V30 15945 C 1546.89 -4.4453 0.755251 0
M  V30 15946 C 1545.55 -4.68824 1.08433 0
M  V30 15947 C 1547.9 -4.97412 1.55663 0
M  V30 15948 C 1545.23 -5.43246 2.21586 0
M  V30 15949 C 1547.58 -5.73074 2.67898 0
M  V30 15950 C 1546.25 -5.95637 3.01285 0
M  V30 15951 H 1545.52 -0.738764 -0.0575239 0
M  V30 15952 H 1548.16 -1.83156 0.559133 0
M  V30 15953 H 1546.47 -3.71575 -1.24254 0
M  V30 15954 H 1548.16 -3.90739 -0.901333 0
M  V30 15955 H 1544.75 -4.25804 0.488789 0
M  V30 15956 H 1548.94 -4.78545 1.31562 0
M  V30 15957 H 1544.19 -5.58936 2.47792 0
M  V30 15958 H 1548.37 -6.13044 3.30378 0
M  V30 15959 H 1546 -6.53086 3.89079 0
M  V30 15960 N 1547.57 -0.146903 -1.56914 0
M  V30 15961 C 1548.85 0.549291 -1.87729 0
M  V30 15962 C 1549.23 1.82971 -1.05284 0
M  V30 15963 O 1548.58 2.28073 -0.139628 0
M  V30 15964 C 1548.79 0.814835 -3.39354 0
M  V30 15965 C 1550.13 1.15565 -4.0857 0
M  V30 15966 O 1551.16 0.904191 -3.44533 0
M  V30 15967 O 1550.02 1.62886 -5.21661 0
M  V30 15968 H 1547.11 0.280196 -0.778087 0
M  V30 15969 H 1549.66 -0.183507 -1.68705 0
M  V30 15970 H 1548.43 -0.0913527 -3.91193 0
M  V30 15971 H 1548.05 1.60182 -3.63906 0
M  V30 15972 N 1549.05 1.57088 0.126881 0
M  V30 15973 C 1549.98 1.94951 1.18614 0
M  V30 15974 C 1550.96 0.818067 1.40522 0
M  V30 15975 O 1552.14 1.07553 1.54805 0
M  V30 15976 C 1549.27 2.23893 2.54144 0
M  V30 15977 C 1548.32 3.46475 2.48712 0
M  V30 15978 S 1549.15 4.9934 1.93443 0
M  V30 15979 C 1550.31 5.31426 3.30662 0
M  V30 15980 H 1550.54 2.84492 0.863219 0
M  V30 15981 H 1548.07 1.50759 0.333323 0
M  V30 15982 H 1550.03 2.41247 3.3213 0
M  V30 15983 H 1548.69 1.3498 2.83618 0
M  V30 15984 H 1547.88 3.64067 3.48528 0
M  V30 15985 H 1547.49 3.28467 1.78844 0
M  V30 15986 H 1549.78 5.26125 4.26847 0
M  V30 15987 H 1550.72 6.32726 3.17905 0
M  V30 15988 H 1551.13 4.5891 3.28727 0
M  V30 15989 N 1550.53 -0.396836 1.52522 0
M  V30 15990 C 1551.77 -1.14263 1.67183 0
M  V30 15991 C 1552.1 -1.90176 0.407845 0
M  V30 15992 O 1551.36 -1.85965 -0.609553 0
M  V30 15993 C 1551.66 -2.15308 2.85267 0
M  V30 15994 C 1551.32 -1.56111 4.23013 0
M  V30 15995 C 1549.98 -1.39692 4.60478 0
M  V30 15996 C 1552.34 -1.12998 5.08803 0
M  V30 15997 C 1549.66 -0.786963 5.81398 0
M  V30 15998 C 1552.02 -0.534159 6.30341 0
M  V30 15999 C 1550.68 -0.357204 6.66544 0
M  V30 16000 H 1549.95 -0.418118 0.611766 0
M  V30 16001 H 1552.6 -0.428255 1.8665 0
M  V30 16002 H 1550.9 -2.92935 2.60185 0
M  V30 16003 H 1552.6 -2.72908 2.93806 0
M  V30 16004 H 1549.19 -1.69876 3.93497 0
M  V30 16005 H 1553.37 -1.24488 4.80434 0
M  V30 16006 H 1548.63 -0.63799 6.08062 0
M  V30 16007 H 1552.8 -0.191759 6.96136 0
M  V30 16008 H 1550.43 0.117528 7.60109 0
M  V30 16009 N 1552.01 -1.43353 -0.654814 0
M  V30 16010 C 1553.25 -1.44599 -1.41193 0
M  V30 16011 C 1553.57 -0.0707955 -1.94871 0
M  V30 16012 O 1552.84 0.893637 -1.7433 0
M  V30 16013 H 1551.42 -0.532373 -0.524011 0
M  V30 16014 H 1554.09 -1.78942 -0.772388 0
M  V30 16015 H 1553.18 -2.15761 -2.25508 0
M  V30 16016 N 1553.48 0.89303 -1.29857 0
M  V30 16017 C 1554.76 1.62492 -1.08884 0
M  V30 16018 C 1555.14 2.07926 0.364695 0
M  V30 16019 O 1554.49 1.84009 1.35473 0
M  V30 16020 C 1554.7 2.80063 -2.08245 0
M  V30 16021 C 1556.05 3.50589 -2.39526 0
M  V30 16022 O 1557.07 2.90241 -2.06492 0
M  V30 16023 O 1555.93 4.59399 -2.95998 0
M  V30 16024 H 1553.02 0.713805 -0.417626 0
M  V30 16025 H 1555.57 0.940513 -1.41253 0
M  V30 16026 H 1554.34 2.43735 -3.06119 0
M  V30 16027 H 1553.96 3.56205 -1.76645 0
M  V30 16028 N 1554.96 1.12442 1.10429 0
M  V30 16029 C 1556.21 0.878021 1.82031 0
M  V30 16030 C 1556.53 -0.597787 1.85611 0
M  V30 16031 O 1555.8 -1.43442 1.33422 0
M  V30 16032 H 1554.38 0.321839 0.674113 0
M  V30 16033 H 1557.04 1.41891 1.33615 0
M  V30 16034 H 1556.14 1.25957 2.85554 0
M  V30 16035 N 1556.44 -1.28223 0.91633 0
M  V30 16036 C 1557.35 -2.30956 0.411882 0
M  V30 16037 C 1558.37 -1.66609 -0.501753 0
M  V30 16038 O 1559.54 -1.97641 -0.387317 0
M  V30 16039 C 1556.61 -3.45053 -0.337558 0
M  V30 16040 C 1555.67 -4.2495 0.609609 0
M  V30 16041 C 1554.9 -5.33598 -0.104159 0
M  V30 16042 O 1555.12 -5.54786 -1.32546 0
M  V30 16043 O 1554.06 -5.99272 0.561851 0
M  V30 16044 H 1557.88 -2.76118 1.26461 0
M  V30 16045 H 1555.47 -1.32964 0.681246 0
M  V30 16046 H 1557.35 -4.14477 -0.760722 0
M  V30 16047 H 1556.03 -3.01968 -1.16607 0
M  V30 16048 H 1554.93 -3.58104 1.08222 0
M  V30 16049 H 1556.27 -4.7172 1.40502 0
M  V30 16050 N 1557.92 -0.68059 -1.42147 0
M  V30 16051 C 1558.85 -0.0199376 -2.33491 0
M  V30 16052 C 1559.83 0.783164 -1.50999 0
M  V30 16053 O 1561.01 0.739154 -1.79583 0
M  V30 16054 C 1558.14 0.927902 -3.34675 0
M  V30 16055 C 1557.1 0.232979 -4.27365 0
M  V30 16056 C 1556.42 1.29415 -5.18802 0
M  V30 16057 C 1557.72 -0.891559 -5.14634 0
M  V30 16058 H 1559.42 -0.782823 -2.88985 0
M  V30 16059 H 1556.96 -0.377898 -1.38953 0
M  V30 16060 H 1558.92 1.3992 -3.97493 0
M  V30 16061 H 1557.64 1.72228 -2.77498 0
M  V30 16062 H 1556.3 -0.21814 -3.6595 0
M  V30 16063 H 1555.95 2.08067 -4.57949 0
M  V30 16064 H 1555.65 0.834274 -5.81647 0
M  V30 16065 H 1557.17 1.76627 -5.84496 0
M  V30 16066 H 1558.59 -0.501219 -5.71105 0
M  V30 16067 H 1556.98 -1.27759 -5.86343 0
M  V30 16068 H 1558.05 -1.73781 -4.5269 0
M  V30 16069 N 1559.4 1.51781 -0.424309 0
M  V30 16070 C 1560.33 2.30313 0.384462 0
M  V30 16071 C 1561.31 1.35166 1.03268 0
M  V30 16072 O 1562.49 1.64081 1.0388 0
M  V30 16073 C 1559.62 3.13566 1.49311 0
M  V30 16074 C 1558.58 4.16884 0.969096 0
M  V30 16075 C 1557.9 4.88576 2.17251 0
M  V30 16076 C 1559.2 5.22298 0.0125613 0
M  V30 16077 H 1560.9 2.98172 -0.270871 0
M  V30 16078 H 1558.44 1.43396 -0.131712 0
M  V30 16079 H 1560.39 3.67279 2.06602 0
M  V30 16080 H 1559.12 2.43504 2.17655 0
M  V30 16081 H 1557.78 3.64203 0.418494 0
M  V30 16082 H 1557.43 4.15029 2.84183 0
M  V30 16083 H 1557.13 5.58432 1.82833 0
M  V30 16084 H 1558.65 5.45107 2.75119 0
M  V30 16085 H 1560.06 5.71161 0.494744 0
M  V30 16086 H 1558.46 5.99606 -0.243544 0
M  V30 16087 H 1559.53 4.75935 -0.92813 0
M  V30 16088 N 1560.87 0.155222 1.56834 0
M  V30 16089 C 1562.1 -0.500542 2.00754 0
M  V30 16090 C 1562.52 -1.57878 1.03538 0
M  V30 16091 O 1561.87 -1.82469 0.0336651 0
M  V30 16092 C 1561.92 -1.09366 3.4456 0
M  V30 16093 O 1561.65 -0.0584788 4.38061 0
M  V30 16094 C 1563.15 -1.82923 4.038 0
M  V30 16095 H 1560.37 -0.129589 0.658368 0
M  V30 16096 H 1562.91 0.252223 2.02939 0
M  V30 16097 H 1561.07 -1.797 3.43201 0
M  V30 16098 H 1561.48 -0.494125 5.22167 0
M  V30 16099 H 1562.95 -2.19703 5.06394 0
M  V30 16100 H 1563.43 -2.71823 3.44976 0
M  V30 16101 H 1564.04 -1.17268 4.08813 0
M  V30 16102 N 1562.35 -1.57153 -0.118549 0
M  V30 16103 C 1563.28 -1.97022 -1.1711 0
M  V30 16104 C 1564.3 -0.869599 -1.37629 0
M  V30 16105 O 1565.49 -1.14788 -1.36696 0
M  V30 16106 C 1562.59 -2.25371 -2.53103 0
M  V30 16107 C 1561.76 -3.56677 -2.5318 0
M  V30 16108 C 1560.82 -3.73233 -3.70922 0
M  V30 16109 O 1559.84 -4.4534 -3.54487 0
M  V30 16110 N 1561.05 -3.12036 -4.89504 0
M  V30 16111 H 1563.81 -2.87921 -0.831959 0
M  V30 16112 H 1561.37 -1.58947 -0.307817 0
M  V30 16113 H 1563.36 -2.33662 -3.3043 0
M  V30 16114 H 1561.93 -1.40597 -2.79197 0
M  V30 16115 H 1561.15 -3.5957 -1.61564 0
M  V30 16116 H 1562.44 -4.42982 -2.50288 0
M  V30 16117 H 1561.84 -2.53422 -5.05761 0
M  V30 16118 H 1560.4 -3.25846 -5.64506 0
M  V30 16119 N 1563.83 0.388742 -1.5273 0
M  V30 16120 C 1565.08 1.13543 -1.68035 0
M  V30 16121 C 1565.41 1.89622 -0.419177 0
M  V30 16122 O 1564.68 1.85556 0.583031 0
M  V30 16123 C 1564.97 2.11346 -2.91556 0
M  V30 16124 C 1564.82 1.39029 -4.27775 0
M  V30 16125 C 1566.14 3.11769 -3.10625 0
M  V30 16126 H 1563.26 0.411406 -0.611485 0
M  V30 16127 H 1565.9 0.418781 -1.85327 0
M  V30 16128 H 1564.05 2.7246 -2.76944 0
M  V30 16129 H 1565.72 0.808775 -4.54155 0
M  V30 16130 H 1563.96 0.692133 -4.28243 0
M  V30 16131 H 1564.64 2.10495 -5.1029 0
M  V30 16132 H 1567.11 2.60745 -3.2427 0
M  V30 16133 H 1565.99 3.77447 -3.98529 0
M  V30 16134 H 1566.25 3.80649 -2.24853 0
M  V30 16135 N 1565.31 1.43698 0.647203 0
M  V30 16136 C 1566.53 1.49301 1.43958 0
M  V30 16137 C 1566.96 0.11395 1.87755 0
M  V30 16138 O 1566.32 -0.893571 1.5775 0
M  V30 16139 C 1566.36 2.44905 2.64677 0
M  V30 16140 O 1565.47 1.93947 3.63948 0
M  V30 16141 H 1564.81 0.504771 0.431396 0
M  V30 16142 H 1567.34 1.88673 0.791432 0
M  V30 16143 H 1567.35 2.62409 3.12419 0
M  V30 16144 H 1566.02 3.45083 2.32143 0
M  V30 16145 H 1564.6 1.86133 3.23124 0
M  V30 16146 N 1566.79 -0.886131 1.30328 0
M  V30 16147 C 1568.2 -1.16922 1.08634 0
M  V30 16148 C 1568.4 -2.00913 -0.15365 0
M  V30 16149 O 1567.46 -2.37849 -0.847592 0
M  V30 16150 C 1568.77 -1.87701 2.34923 0
M  V30 16151 C 1570.32 -2.0047 2.40376 0
M  V30 16152 C 1570.79 -2.74662 3.66504 0
M  V30 16153 N 1572.29 -2.82208 3.67305 0
M  V30 16154 C 1573.02 -3.40185 4.61586 0
M  V30 16155 N 1572.52 -3.99221 5.66211 0
M  V30 16156 N 1574.31 -3.37989 4.49132 0
M  V30 16157 H 1566.46 -0.326064 2.09882 0
M  V30 16158 H 1568.72 -0.206996 0.925125 0
M  V30 16159 H 1568.43 -1.33427 3.25408 0
M  V30 16160 H 1568.3 -2.88092 2.43481 0
M  V30 16161 H 1570.69 -2.53914 1.50371 0
M  V30 16162 H 1570.77 -0.991709 2.35794 0
M  V30 16163 H 1570.42 -2.2189 4.56867 0
M  V30 16164 H 1570.35 -3.76335 3.68347 0
M  V30 16165 H 1572.84 -2.40292 2.91665 0
M  V30 16166 H 1573.15 -4.41522 6.34254 0
M  V30 16167 H 1571.49 -3.97643 5.70004 0
M  V30 16168 H 1574.69 -2.91096 3.6658 0
M  V30 16169 H 1574.86 -3.82877 5.2279 0
M  V30 16170 N 1568.26 -1.13026 -1.09832 0
M  V30 16171 C 1569.19 -0.826338 -2.18389 0
M  V30 16172 C 1570.18 0.212529 -1.68767 0
M  V30 16173 O 1571.36 0.072363 -1.94065 0
M  V30 16174 C 1568.49 -0.286991 -3.46112 0
M  V30 16175 C 1567.44 -1.25963 -4.09044 0
M  V30 16176 C 1566.77 -0.580231 -5.31542 0
M  V30 16177 C 1568.07 -2.61661 -4.5203 0
M  V30 16178 H 1569.76 -1.73408 -2.4407 0
M  V30 16179 H 1567.31 -0.835201 -1.17305 0
M  V30 16180 H 1569.26 -0.062067 -4.21354 0
M  V30 16181 H 1567.99 0.656121 -3.19942 0
M  V30 16182 H 1566.65 -1.47047 -3.35816 0
M  V30 16183 H 1566.29 0.368222 -5.0165 0
M  V30 16184 H 1565.99 -1.2291 -5.74601 0
M  V30 16185 H 1567.52 -0.36449 -6.09511 0
M  V30 16186 H 1568.93 -2.44569 -5.18516 0
M  V30 16187 H 1567.33 -3.22685 -5.05959 0
M  V30 16188 H 1568.4 -3.19637 -3.64637 0
M  V30 16189 N 1569.74 1.27735 -0.923117 0
M  V30 16190 C 1570.67 2.29395 -0.435907 0
M  V30 16191 C 1571.65 1.62542 0.501403 0
M  V30 16192 O 1572.84 1.89884 0.407135 0
M  V30 16193 C 1569.97 3.45856 0.316348 0
M  V30 16194 C 1568.92 4.24672 -0.532697 0
M  V30 16195 C 1568.25 5.33563 0.348454 0
M  V30 16196 C 1569.55 4.90494 -1.79481 0
M  V30 16197 H 1571.24 2.70398 -1.28551 0
M  V30 16198 H 1568.79 1.29989 -0.619581 0
M  V30 16199 H 1570.74 4.1607 0.668098 0
M  V30 16200 H 1569.47 3.03758 1.19994 0
M  V30 16201 H 1568.12 3.56198 -0.867093 0
M  V30 16202 H 1567.77 4.87708 1.23086 0
M  V30 16203 H 1567.47 5.87202 -0.216104 0
M  V30 16204 H 1569 6.06622 0.695878 0
M  V30 16205 H 1570.41 5.53019 -1.5114 0
M  V30 16206 H 1568.81 5.5417 -2.30251 0
M  V30 16207 H 1569.88 4.14454 -2.51707 0
M  V30 16208 N 1571.22 0.688118 1.41784 0
M  V30 16209 C 1572.47 0.216263 2.01644 0
M  V30 16210 C 1572.8 -1.17861 1.54345 0
M  V30 16211 O 1572.07 -1.794 0.751392 0
M  V30 16212 C 1572.36 0.265663 3.59119 0
M  V30 16213 C 1572.21 1.69694 4.16562 0
M  V30 16214 C 1573.53 -0.378713 4.38468 0
M  V30 16215 H 1570.65 0.0800582 0.732639 0
M  V30 16216 H 1573.29 0.875428 1.68631 0
M  V30 16217 H 1571.44 -0.295588 3.87374 0
M  V30 16218 H 1573.11 2.31146 3.9921 0
M  V30 16219 H 1571.36 2.23345 3.71886 0
M  V30 16220 H 1572.03 1.68309 5.25715 0
M  V30 16221 H 1574.5 0.0991969 4.15982 0
M  V30 16222 H 1573.38 -0.31357 5.48004 0
M  V30 16223 H 1573.64 -1.45832 4.17355 0
M  V30 16224 N 1572.7 -1.51554 0.432352 0
M  V30 16225 C 1573.61 -2.31371 -0.387885 0
M  V30 16226 C 1574.62 -1.40072 -1.03227 0
M  V30 16227 O 1575.8 -1.73145 -1.02873 0
M  V30 16228 C 1572.87 -3.13662 -1.47705 0
M  V30 16229 C 1571.93 -4.20734 -0.853315 0
M  V30 16230 C 1571.16 -4.99092 -1.89058 0
M  V30 16231 O 1571.38 -4.78022 -3.11209 0
M  V30 16232 O 1570.32 -5.83322 -1.48389 0
M  V30 16233 H 1574.14 -3.02554 0.263578 0
M  V30 16234 H 1571.73 -1.48122 0.195004 0
M  V30 16235 H 1573.61 -3.64837 -2.10884 0
M  V30 16236 H 1572.28 -2.45249 -2.11269 0
M  V30 16237 H 1571.19 -3.73649 -0.183616 0
M  V30 16238 H 1572.52 -4.91506 -0.261244 0
M  V30 16239 N 1574.18 -0.163538 -1.56749 0
M  V30 16240 C 1575.13 0.781904 -2.14173 0
M  V30 16241 C 1576.11 1.19818 -1.07389 0
M  V30 16242 O 1577.3 1.16184 -1.3353 0
M  V30 16243 C 1574.43 2.01433 -2.77992 0
M  V30 16244 C 1573.52 1.6204 -3.91923 0
M  V30 16245 N 1573.91 0.935598 -4.97072 0
M  V30 16246 C 1572.21 1.91197 -4.02939 0
M  V30 16247 C 1572.91 0.742806 -5.76938 0
M  V30 16248 N 1571.88 1.28183 -5.28271 0
M  V30 16249 H 1575.69 0.249647 -2.92838 0
M  V30 16250 H 1573.2 0.0374224 -1.62357 0
M  V30 16251 H 1575.2 2.7018 -3.17504 0
M  V30 16252 H 1573.86 2.55161 -2.00806 0
M  V30 16253 H 1574.87 0.594507 -5.14476 0
M  V30 16254 H 1571.54 2.46657 -3.36848 0
M  V30 16255 H 1572.93 0.201845 -6.71597 0
M  V30 16256 N 1575.65 1.57214 0.110213 0
M  V30 16257 C 1576.9 1.84498 0.815059 0
M  V30 16258 C 1577.22 0.750531 1.80628 0
M  V30 16259 O 1578.42 0.910042 2.55794 0
M  V30 16260 C 1576.88 3.27138 1.50028 0
M  V30 16261 C 1576.49 4.44616 0.549603 0
M  V30 16262 C 1578.23 3.63662 2.18975 0
M  V30 16263 C 1576.14 5.78285 1.23855 0
M  V30 16264 H 1575.07 0.688165 0.308132 0
M  V30 16265 H 1577.72 1.83374 0.0678595 0
M  V30 16266 H 1576.1 3.22758 2.29441 0
M  V30 16267 H 1577.27 4.60312 -0.211944 0
M  V30 16268 H 1575.59 4.16387 -0.0333571 0
M  V30 16269 H 1578.19 4.60804 2.71226 0
M  V30 16270 H 1578.53 2.91532 2.97178 0
M  V30 16271 H 1579.06 3.69865 1.46439 0
M  V30 16272 H 1575.8 6.53608 0.497629 0
M  V30 16273 H 1575.32 5.66459 1.9719 0
M  V30 16274 H 1577 6.22338 1.76929 0
M  V30 16275 N 1577.13 -0.380637 1.52934 0
M  V30 16276 C 1578.38 -1.12306 1.69585 0
M  V30 16277 C 1578.73 -1.87427 0.434626 0
M  V30 16278 O 1578.03 -1.82864 -0.571955 0
M  V30 16279 C 1578.22 -2.1227 2.87535 0
M  V30 16280 C 1578.05 -1.46969 4.25006 0
M  V30 16281 C 1576.82 -1.23021 4.90096 0
M  V30 16282 C 1579.02 -0.915348 5.06089 0
M  V30 16283 N 1577 -0.539124 6.11528 0
M  V30 16284 C 1578.37 -0.352792 6.18995 0
M  V30 16285 C 1580.43 -0.81257 4.91225 0
M  V30 16286 C 1579.13 0.302501 7.18664 0
M  V30 16287 C 1581.15 -0.171084 5.91152 0
M  V30 16288 C 1580.52 0.380664 7.03371 0
M  V30 16289 H 1576.62 -0.39663 0.67395 0
M  V30 16290 H 1579.2 -0.411454 1.90303 0
M  V30 16291 H 1577.37 -2.80759 2.68382 0
M  V30 16292 H 1579.1 -2.7908 2.93081 0
M  V30 16293 H 1575.86 -1.50746 4.48969 0
M  V30 16294 H 1576.28 -0.209381 6.76676 0
M  V30 16295 H 1580.92 -1.22493 4.04667 0
M  V30 16296 H 1578.64 0.72685 8.04825 0
M  V30 16297 H 1582.23 -0.0926928 5.81726 0
M  V30 16298 H 1581.11 0.8692 7.79368 0
M  V30 16299 N 1578.61 -1.44039 -0.639573 0
M  V30 16300 C 1579.56 -1.50254 -1.75192 0
M  V30 16301 C 1580.53 -0.350994 -1.62349 0
M  V30 16302 O 1581.71 -0.56006 -1.82395 0
M  V30 16303 C 1578.85 -1.44464 -3.13407 0
M  V30 16304 C 1577.97 -2.69929 -3.37287 0
M  V30 16305 C 1577.1 -2.56031 -4.65426 0
M  V30 16306 C 1576.14 -3.76699 -4.82456 0
M  V30 16307 N 1575.28 -3.61529 -6.01865 0
M  V30 16308 H 1580.12 -2.45296 -1.69216 0
M  V30 16309 H 1577.65 -1.21748 -0.825576 0
M  V30 16310 H 1579.61 -1.39099 -3.93328 0
M  V30 16311 H 1578.24 -0.529951 -3.1842 0
M  V30 16312 H 1577.29 -2.85516 -2.51366 0
M  V30 16313 H 1578.61 -3.59523 -3.45753 0
M  V30 16314 H 1577.76 -2.48451 -5.53495 0
M  V30 16315 H 1576.5 -1.63983 -4.59305 0
M  V30 16316 H 1575.5 -3.84672 -3.92819 0
M  V30 16317 H 1576.73 -4.69772 -4.90398 0
M  V30 16318 H 1574.67 -2.72226 -5.96849 0
M  V30 16319 H 1574.59 -4.44733 -6.1135 0
M  V30 16320 H 1575.86 -3.57826 -6.92518 0
M  V30 16321 N 1580.09 0.879207 -1.30796 0
M  V30 16322 C 1581.04 1.98553 -1.17667 0
M  V30 16323 C 1582.01 1.65974 -0.0647231 0
M  V30 16324 O 1583.19 1.89336 -0.235941 0
M  V30 16325 C 1580.33 3.3368 -0.880434 0
M  V30 16326 C 1579.44 3.78913 -2.07482 0
M  V30 16327 C 1578.58 5.02714 -1.71617 0
M  V30 16328 C 1577.62 5.40371 -2.87517 0
M  V30 16329 N 1576.75 6.55352 -2.5191 0
M  V30 16330 H 1581.59 2.09115 -2.12309 0
M  V30 16331 H 1579.13 1.02382 -1.05623 0
M  V30 16332 H 1581.09 4.11467 -0.689278 0
M  V30 16333 H 1579.72 3.22787 0.0291283 0
M  V30 16334 H 1578.77 2.96987 -2.37704 0
M  V30 16335 H 1580.08 4.02757 -2.94259 0
M  V30 16336 H 1579.24 5.88142 -1.4891 0
M  V30 16337 H 1577.98 4.80754 -0.820181 0
M  V30 16338 H 1576.98 4.53466 -3.10883 0
M  V30 16339 H 1578.21 5.64301 -3.77811 0
M  V30 16340 H 1576.15 6.34956 -1.64823 0
M  V30 16341 H 1576.07 6.79093 -3.32217 0
M  V30 16342 H 1577.34 7.43996 -2.32573 0
M  V30 16343 N 1581.57 1.13606 1.09231 0
M  V30 16344 C 1582.82 0.893694 1.8082 0
M  V30 16345 C 1583.13 -0.581713 1.8675 0
M  V30 16346 O 1584.34 -0.941079 2.54668 0
M  V30 16347 C 1582.79 1.54932 3.24845 0
M  V30 16348 C 1582.4 3.0604 3.27175 0
M  V30 16349 C 1584.14 1.38773 4.01176 0
M  V30 16350 C 1582.05 3.64478 4.65735 0
M  V30 16351 H 1580.98 0.330699 0.677609 0
M  V30 16352 H 1583.63 1.36401 1.22748 0
M  V30 16353 H 1582.01 1.00668 3.82991 0
M  V30 16354 H 1583.19 3.66901 2.78783 0
M  V30 16355 H 1581.5 3.21739 2.64335 0
M  V30 16356 H 1584.1 1.79843 5.03548 0
M  V30 16357 H 1584.44 0.33282 4.14967 0
M  V30 16358 H 1584.98 1.90028 3.49477 0
M  V30 16359 H 1581.71 4.69785 4.57146 0
M  V30 16360 H 1581.23 3.08396 5.14444 0
M  V30 16361 H 1582.91 3.64272 5.3471 0
M  V30 16362 N 1583.05 -1.27244 0.929878 0
M  V30 16363 C 1583.98 -2.25097 0.375024 0
M  V30 16364 C 1584.96 -1.53726 -0.529833 0
M  V30 16365 O 1586.14 -1.82551 -0.469846 0
M  V30 16366 C 1583.27 -3.35531 -0.462271 0
M  V30 16367 C 1582.31 -4.24809 0.379462 0
M  V30 16368 S 1583.15 -5.04471 1.79637 0
M  V30 16369 C 1584.3 -6.18388 0.966815 0
M  V30 16370 H 1584.54 -2.71813 1.20436 0
M  V30 16371 H 1582.07 -1.35934 0.732211 0
M  V30 16372 H 1584.03 -3.99605 -0.939489 0
M  V30 16373 H 1582.69 -2.87449 -1.26616 0
M  V30 16374 H 1581.88 -5.03321 -0.261515 0
M  V30 16375 H 1581.48 -3.65541 0.790935 0
M  V30 16376 H 1583.77 -6.77193 0.203821 0
M  V30 16377 H 1584.72 -6.86767 1.72502 0
M  V30 16378 H 1585.13 -5.62211 0.507864 0
M  V30 16379 N 1584.52 -0.695628 -1.41417 0
M  V30 16380 C 1585.47 -0.00717107 -2.27999 0
M  V30 16381 C 1586.46 0.752768 -1.42205 0
M  V30 16382 O 1587.65 0.628252 -1.65475 0
M  V30 16383 C 1584.78 0.928436 -3.30507 0
M  V30 16384 C 1583.86 0.164742 -4.2378 0
M  V30 16385 N 1584.26 -0.841489 -4.98751 0
M  V30 16386 C 1582.55 0.400213 -4.44201 0
M  V30 16387 C 1583.25 -1.29863 -5.67019 0
M  V30 16388 N 1582.23 -0.624547 -5.4 0
M  V30 16389 H 1586.03 -0.778669 -2.83397 0
M  V30 16390 H 1583.55 -0.526469 -1.5363 0
M  V30 16391 H 1585.54 1.4368 -3.91359 0
M  V30 16392 H 1584.2 1.69953 -2.7667 0
M  V30 16393 H 1585.21 -1.22173 -5.03283 0
M  V30 16394 H 1581.89 1.14919 -4.01373 0
M  V30 16395 H 1583.28 -2.13362 -6.37123 0
M  V30 16396 N 1586 1.51322 -0.440383 0
M  V30 16397 C 1587.23 2.0653 0.123649 0
M  V30 16398 C 1587.64 1.30751 1.36197 0
M  V30 16399 O 1587 0.367932 1.78753 0
M  V30 16400 C 1587.05 3.58778 0.442802 0
M  V30 16401 O 1586.77 4.31695 -0.746375 0
M  V30 16402 C 1588.27 4.3051 1.05717 0
M  V30 16403 H 1585.49 0.670968 0.00657466 0
M  V30 16404 H 1588.04 1.94864 -0.620341 0
M  V30 16405 H 1586.19 3.70349 1.13669 0
M  V30 16406 H 1586.61 5.22368 -0.472466 0
M  V30 16407 H 1588.08 5.38111 1.23046 0
M  V30 16408 H 1588.56 3.88999 2.03903 0
M  V30 16409 H 1589.16 4.2339 0.402574 0
M  V30 16410 N 1587.48 0.171848 1.5666 0
M  V30 16411 C 1588.76 -0.519355 1.88579 0
M  V30 16412 C 1589.14 -1.81273 1.08182 0
M  V30 16413 O 1588.48 -2.27822 0.175895 0
M  V30 16414 C 1588.69 -0.760743 3.40608 0
M  V30 16415 C 1590.04 -1.09051 4.10357 0
M  V30 16416 O 1591.07 -0.849264 3.45928 0
M  V30 16417 O 1589.93 -1.54566 5.24187 0
M  V30 16418 H 1587.02 -0.267782 0.782446 0
M  V30 16419 H 1589.57 0.210323 1.68392 0
M  V30 16420 H 1588.34 0.153577 3.90999 0
M  V30 16421 H 1587.96 -1.54372 3.66408 0
M  V30 16422 N 1588.96 -1.5727 -0.101874 0
M  V30 16423 C 1589.92 -2.00625 -1.10826 0
M  V30 16424 C 1590.92 -0.89878 -1.33336 0
M  V30 16425 O 1592.11 -1.16442 -1.29564 0
M  V30 16426 C 1589.24 -2.36113 -2.45893 0
M  V30 16427 H 1590.44 -2.90748 -0.735238 0
M  V30 16428 H 1587.99 -1.52406 -0.346713 0
M  V30 16429 H 1588.72 -1.48923 -2.88084 0
M  V30 16430 H 1588.51 -3.169 -2.30904 0
M  V30 16431 H 1590 -2.70336 -3.1829 0
M  V30 16432 N 1590.44 0.372521 -1.53134 0
M  V30 16433 C 1591.37 1.47817 -1.73855 0
M  V30 16434 C 1592.35 1.51645 -0.586723 0
M  V30 16435 O 1593.53 1.69803 -0.818496 0
M  V30 16436 C 1590.66 2.86213 -1.81107 0
M  V30 16437 C 1589.7 3.00139 -3.03016 0
M  V30 16438 S 1590.54 2.69617 -4.62674 0
M  V30 16439 C 1591.69 4.10176 -4.72765 0
M  V30 16440 H 1591.93 1.30019 -2.67362 0
M  V30 16441 H 1589.46 0.566429 -1.43635 0
M  V30 16442 H 1591.42 3.65958 -1.85971 0
M  V30 16443 H 1590.08 3.01326 -0.886632 0
M  V30 16444 H 1589.27 4.0148 -3.0468 0
M  V30 16445 H 1588.87 2.28309 -2.96228 0
M  V30 16446 H 1591.16 5.04328 -4.52393 0
M  V30 16447 H 1592.11 4.1352 -5.7481 0
M  V30 16448 H 1592.52 3.96853 -4.01458 0
M  V30 16449 N 1591.91 1.44376 0.631925 0
M  V30 16450 C 1593.16 1.46398 1.38747 0
M  V30 16451 C 1593.48 0.100149 1.95343 0
M  V30 16452 O 1594.68 -0.00210908 2.715 0
M  V30 16453 C 1593.14 2.57731 2.51203 0
M  V30 16454 C 1592.75 4.00317 2.01123 0
M  V30 16455 C 1594.49 2.68972 3.28412 0
M  V30 16456 C 1592.4 5.03075 3.10917 0
M  V30 16457 H 1591.33 0.544667 0.521396 0
M  V30 16458 H 1593.98 1.70439 0.679912 0
M  V30 16459 H 1592.36 2.26928 3.2453 0
M  V30 16460 H 1593.53 4.40683 1.34666 0
M  V30 16461 H 1591.85 3.93311 1.36732 0
M  V30 16462 H 1594.45 3.42916 4.10259 0
M  V30 16463 H 1594.79 1.74762 3.77841 0
M  V30 16464 H 1595.32 2.9918 2.62176 0
M  V30 16465 H 1592.06 5.98911 2.66433 0
M  V30 16466 H 1591.58 4.67302 3.76017 0
M  V30 16467 H 1593.26 5.2674 3.75705 0
M  V30 16468 N 1593.39 -0.872258 1.31261 0
M  V30 16469 C 1594.64 -1.6199 1.20176 0
M  V30 16470 C 1594.95 -1.94129 -0.239439 0
M  V30 16471 O 1596.16 -2.67366 -0.471956 0
M  V30 16472 C 1594.62 -2.92017 2.10366 0
M  V30 16473 C 1594.22 -2.6737 3.59468 0
M  V30 16474 C 1595.97 -3.70007 2.08075 0
M  V30 16475 C 1593.87 -3.93291 4.41674 0
M  V30 16476 H 1592.8 -0.607793 0.446211 0
M  V30 16477 H 1595.46 -0.964627 1.561 0
M  V30 16478 H 1593.84 -3.58907 1.67338 0
M  V30 16479 H 1595.01 -2.08902 4.10727 0
M  V30 16480 H 1593.33 -2.02738 3.63712 0
M  V30 16481 H 1595.92 -4.63416 2.66739 0
M  V30 16482 H 1596.27 -4.02385 1.06733 0
M  V30 16483 H 1596.8 -3.09998 2.49291 0
M  V30 16484 H 1593.54 -3.66064 5.43762 0
M  V30 16485 H 1593.06 -4.51218 3.95174 0
M  V30 16486 H 1594.74 -4.61197 4.53769 0
M  V30 16487 N 1594.87 -1.14184 -1.08627 0
M  V30 16488 C 1596.15 -0.81955 -1.77603 0
M  V30 16489 C 1596.53 0.687377 -1.99595 0
M  V30 16490 O 1595.87 1.62744 -1.60396 0
M  V30 16491 C 1596.08 -1.61574 -3.09346 0
M  V30 16492 C 1597.43 -1.81367 -3.83916 0
M  V30 16493 O 1598.46 -1.58241 -3.19121 0
M  V30 16494 O 1597.32 -2.20011 -5.00257 0
M  V30 16495 H 1594.41 -0.300086 -0.770635 0
M  V30 16496 H 1596.96 -1.24691 -1.15109 0
M  V30 16497 H 1595.73 -2.63946 -2.88874 0
M  V30 16498 H 1595.35 -1.18386 -3.79566 0
M  V30 16499 N 1596.35 1.26749 -0.936613 0
M  V30 16500 C 1597.28 2.24895 -0.386956 0
M  V30 16501 C 1598.26 1.54004 0.521673 0
M  V30 16502 O 1599.44 1.82797 0.460158 0
M  V30 16503 C 1596.57 3.35771 0.44447 0
M  V30 16504 C 1595.62 4.24601 -0.401985 0
M  V30 16505 S 1596.45 5.03511 -1.82309 0
M  V30 16506 C 1597.61 6.17866 -0.999596 0
M  V30 16507 H 1597.84 2.71171 -1.21876 0
M  V30 16508 H 1595.37 1.35544 -0.739409 0
M  V30 16509 H 1597.33 4.00097 0.918284 0
M  V30 16510 H 1595.99 2.88117 1.2509 0
M  V30 16511 H 1595.18 5.03453 0.234819 0
M  V30 16512 H 1594.79 3.65116 -0.810309 0
M  V30 16513 H 1597.08 6.77076 -0.239732 0
M  V30 16514 H 1598.02 6.85842 -1.76142 0
M  V30 16515 H 1598.43 5.61934 -0.537672 0
M  V30 16516 N 1597.83 0.703118 1.41046 0
M  V30 16517 C 1599.24 0.375417 1.55122 0
M  V30 16518 C 1599.44 -1.11696 1.67709 0
M  V30 16519 O 1598.5 -1.90289 1.65971 0
M  V30 16520 C 1599.81 1.13056 2.78638 0
M  V30 16521 C 1601.36 1.11564 2.92442 0
M  V30 16522 C 1601.83 1.85268 4.18855 0
M  V30 16523 N 1603.33 1.82275 4.25829 0
M  V30 16524 C 1604.06 2.36137 5.2252 0
M  V30 16525 N 1603.56 2.98502 6.25195 0
M  V30 16526 N 1605.35 2.26349 5.14512 0
M  V30 16527 H 1597.5 1.67096 1.31121 0
M  V30 16528 H 1599.76 0.705573 0.633144 0
M  V30 16529 H 1599.47 2.18524 2.75572 0
M  V30 16530 H 1599.34 0.714037 3.7038 0
M  V30 16531 H 1601.73 0.0691901 2.95019 0
M  V30 16532 H 1601.81 1.57128 2.01853 0
M  V30 16533 H 1601.46 2.89896 4.1704 0
M  V30 16534 H 1601.39 1.37133 5.08431 0
M  V30 16535 H 1603.88 1.36812 3.52265 0
M  V30 16536 H 1604.19 3.37149 6.95378 0
M  V30 16537 H 1602.53 3.02582 6.25675 0
M  V30 16538 H 1605.73 1.77294 4.33226 0
M  V30 16539 H 1605.9 2.68629 5.89697 0
M  V30 16540 N 1599.3 -1.51086 0.448402 0
M  V30 16541 C 1600.55 -2.02177 -0.114342 0
M  V30 16542 C 1600.88 -1.3319 -1.41742 0
M  V30 16543 O 1600.13 -0.439101 -1.9071 0
M  V30 16544 C 1600.43 -3.55488 -0.369232 0
M  V30 16545 C 1600.1 -4.42828 0.849372 0
M  V30 16546 C 1598.76 -4.66418 1.18354 0
M  V30 16547 C 1601.11 -4.93998 1.66179 0
M  V30 16548 C 1598.44 -5.38424 2.33059 0
M  V30 16549 C 1600.79 -5.67262 2.79994 0
M  V30 16550 C 1599.46 -5.89113 3.13851 0
M  V30 16551 H 1598.73 -0.739818 -0.0418407 0
M  V30 16552 H 1601.37 -1.81928 0.597857 0
M  V30 16553 H 1599.68 -3.74127 -1.16344 0
M  V30 16554 H 1601.38 -3.92563 -0.818248 0
M  V30 16555 H 1597.97 -4.24671 0.578998 0
M  V30 16556 H 1602.15 -4.75647 1.41683 0
M  V30 16557 H 1597.41 -5.53554 2.59592 0
M  V30 16558 H 1601.58 -6.05899 3.43307 0
M  V30 16559 H 1599.21 -6.44686 4.02844 0
M  V30 16560 N 1600.78 -0.180154 -1.56567 0
M  V30 16561 C 1601.73 0.763484 -2.19713 0
M  V30 16562 C 1602.72 1.23095 -1.16378 0
M  V30 16563 O 1603.93 1.19558 -1.34558 0
M  V30 16564 H 1600.31 0.264515 -0.703943 0
M  V30 16565 H 1602.28 0.207039 -2.97681 0
M  V30 16566 C 1601.03 1.97884 -2.85897 0
M  V30 16567 H 1600.35 1.62818 -3.65144 0
M  V30 16568 H 1601.79 2.61779 -3.33538 0
M  V30 16569 C 1600.25 2.80811 -1.86136 0
M  V30 16570 O 1600.78 3.78253 -1.35232 0
M  V30 16571 N 1598.98 2.46003 -1.54697 0
M  V30 16572 H 1598.53 1.66823 -1.96285 0
M  V30 16573 H 1598.49 3.01774 -0.88202 0
M  V30 16574 N 1602.26 1.57322 0.0935319 0
M  V30 16575 C 1603.51 1.85353 0.795445 0
M  V30 16576 C 1603.82 0.769647 1.79822 0
M  V30 16577 O 1605.03 0.937121 2.54814 0
M  V30 16578 C 1603.48 3.28711 1.4655 0
M  V30 16579 C 1603.09 4.45174 0.502415 0
M  V30 16580 C 1604.84 3.65965 2.15105 0
M  V30 16581 C 1602.74 5.79566 1.17715 0
M  V30 16582 H 1601.67 0.691394 0.300816 0
M  V30 16583 H 1604.32 1.83436 0.0484063 0
M  V30 16584 H 1602.71 3.25173 2.26005 0
M  V30 16585 H 1603.88 4.60062 -0.260754 0
M  V30 16586 H 1602.2 4.16328 -0.0775186 0
M  V30 16587 H 1604.79 4.63655 2.66323 0
M  V30 16588 H 1605.14 2.94667 2.94069 0
M  V30 16589 H 1605.67 3.71398 1.42508 0
M  V30 16590 H 1602.41 6.54099 0.428277 0
M  V30 16591 H 1601.93 5.68519 1.9117 0
M  V30 16592 H 1603.61 6.2418 1.70318 0
M  V30 16593 N 1603.74 -0.364395 1.53329 0
M  V30 16594 C 1604.99 -1.10473 1.69234 0
M  V30 16595 C 1605.31 -1.89799 0.447347 0
M  V30 16596 O 1604.58 -1.8835 -0.538612 0
M  V30 16597 H 1603.16 -0.410826 0.623884 0
M  V30 16598 H 1605.82 -0.410721 1.90523 0
M  V30 16599 H 1604.92 -1.79387 2.55396 0
M  V30 16600 N 1605.22 -1.44709 -0.62426 0
M  V30 16601 C 1606.46 -1.47561 -1.38094 0
M  V30 16602 C 1606.79 -0.112115 -1.94677 0
M  V30 16603 O 1606.06 0.856458 -1.76186 0
M  V30 16604 H 1604.64 -0.543368 -0.512601 0
M  V30 16605 H 1607.3 -1.8054 -0.734258 0
M  V30 16606 H 1606.39 -2.20496 -2.2088 0
M  V30 16607 N 1606.69 0.865285 -1.31722 0
M  V30 16608 C 1608.11 1.43445 -1.195 0
M  V30 16609 C 1608.46 1.95212 0.196688 0
M  V30 16610 O 1607.58 1.86666 1.09475 0
M  V30 16611 C 1608.18 2.6074 -2.16333 0
M  V30 16612 C 1606.74 3.13688 -2.08031 0
M  V30 16613 C 1605.88 1.86409 -2.05298 0
M  V30 16614 H 1608.83 0.6734 -1.43705 0
M  V30 16615 H 1608.85 3.37575 -1.75566 0
M  V30 16616 H 1608.37 2.23033 -3.17612 0
M  V30 16617 H 1606.47 3.56004 -1.09962 0
M  V30 16618 H 1606.58 3.75653 -2.97358 0
M  V30 16619 H 1604.94 2.05567 -1.50381 0
M  V30 16620 H 1605.73 1.50933 -3.08341 0
M  V30 16621 N 1608.17 1.14759 1.0802 0
M  V30 16622 C 1609.4 0.941887 1.84218 0
M  V30 16623 C 1609.82 -0.509702 1.8179 0
M  V30 16624 O 1609.17 -1.35331 1.22441 0
M  V30 16625 C 1609.22 1.43978 3.31591 0
M  V30 16626 O 1608.94 2.83449 3.34048 0
M  V30 16627 C 1610.45 1.27459 4.24581 0
M  V30 16628 H 1607.67 0.334942 0.581425 0
M  V30 16629 H 1610.21 1.52367 1.36399 0
M  V30 16630 H 1608.36 0.900674 3.76785 0
M  V30 16631 H 1608.78 3.05878 4.26073 0
M  V30 16632 H 1610.25 1.67151 5.26084 0
M  V30 16633 H 1610.73 0.217925 4.38659 0
M  V30 16634 H 1611.34 1.80243 3.85217 0
M  V30 16635 N 1609.65 -1.26251 0.943322 0
M  V30 16636 C 1610.88 -1.98278 0.608341 0
M  V30 16637 C 1611.3 -1.69756 -0.810208 0
M  V30 16638 O 1610.66 -0.946846 -1.54611 0
M  V30 16639 C 1610.71 -3.50205 0.859591 0
M  V30 16640 O 1609.81 -4.12345 -0.0672371 0
M  V30 16641 H 1609.15 -0.621973 0.232477 0
M  V30 16642 H 1611.68 -1.60662 1.26684 0
M  V30 16643 H 1611.69 -4.00449 0.781341 0
M  V30 16644 H 1610.37 -3.70294 1.89354 0
M  V30 16645 H 1608.94 -3.72848 0.0622543 0
M  V30 16646 N 1611.13 -0.710588 -1.40671 0
M  V30 16647 C 1612.35 -0.256007 -2.05814 0
M  V30 16648 C 1612.78 1.09178 -1.53173 0
M  V30 16649 O 1612.14 1.68665 -0.664977 0
M  V30 16650 C 1612.19 -0.240528 -3.59797 0
M  V30 16651 O 1611.29 0.779859 -4.04959 0
M  V30 16652 H 1610.63 -0.121326 -0.652822 0
M  V30 16653 H 1613.16 -0.969667 -1.80163 0
M  V30 16654 H 1613.17 -0.0765027 -4.07928 0
M  V30 16655 H 1611.85 -1.22411 -3.97478 0
M  V30 16656 H 1610.42 0.583965 -3.68299 0
M  V30 16657 N 1612.61 1.50847 -0.456408 0
M  V30 16658 C 1613.86 2.01425 0.105223 0
M  V30 16659 C 1614.17 1.34413 1.421 0
M  V30 16660 O 1615.38 1.76066 2.06671 0
M  V30 16661 C 1613.83 3.59112 0.238051 0
M  V30 16662 C 1613.44 4.35073 -1.06842 0
M  V30 16663 C 1615.18 4.17778 0.752428 0
M  V30 16664 C 1613.09 5.84509 -0.900194 0
M  V30 16665 H 1612.02 0.752767 0.0430992 0
M  V30 16666 H 1614.67 1.73788 -0.589075 0
M  V30 16667 H 1613.05 3.83275 0.995795 0
M  V30 16668 H 1614.23 4.22645 -1.83598 0
M  V30 16669 H 1612.54 3.87948 -1.51278 0
M  V30 16670 H 1615.14 5.27155 0.895088 0
M  V30 16671 H 1615.48 3.78195 1.73994 0
M  V30 16672 H 1616.02 3.97765 0.052476 0
M  V30 16673 H 1612.75 6.28538 -1.86064 0
M  V30 16674 H 1612.27 5.99551 -0.172767 0
M  V30 16675 H 1613.95 6.44564 -0.560943 0
M  V30 16676 N 1614.09 0.188454 1.56469 0
M  V30 16677 C 1615.5 -0.325309 1.83844 0
M  V30 16678 C 1615.85 -1.61858 1.1089 0
M  V30 16679 O 1614.97 -2.13256 0.36752 0
M  V30 16680 C 1615.57 -0.597002 3.33499 0
M  V30 16681 C 1614.13 -1.05515 3.61308 0
M  V30 16682 C 1613.27 -0.100182 2.77119 0
M  V30 16683 H 1616.22 0.412378 1.53249 0
M  V30 16684 H 1616.25 -1.44709 3.51908 0
M  V30 16685 H 1615.76 0.344429 3.86569 0
M  V30 16686 H 1613.86 -2.01109 3.13665 0
M  V30 16687 H 1613.97 -0.952461 4.69537 0
M  V30 16688 H 1612.34 -0.600815 2.47512 0
M  V30 16689 H 1613.12 0.835574 3.32976 0
M  V30 16690 N 1615.56 -1.5737 -0.0851874 0
M  V30 16691 C 1616.81 -1.85772 -0.785604 0
M  V30 16692 C 1617.13 -0.779172 -1.79411 0
M  V30 16693 O 1618.33 -0.950621 -2.54314 0
M  V30 16694 C 1616.79 -3.29484 -1.44805 0
M  V30 16695 C 1616.4 -4.45434 -0.478799 0
M  V30 16696 C 1618.14 -3.671 -2.13161 0
M  V30 16697 C 1616.05 -5.80183 -1.1464 0
M  V30 16698 H 1614.98 -0.69298 -0.297145 0
M  V30 16699 H 1617.63 -1.83459 -0.0386776 0
M  V30 16700 H 1616.01 -3.26367 -2.24278 0
M  V30 16701 H 1617.18 -4.59917 0.285148 0
M  V30 16702 H 1615.5 -4.16281 0.0995964 0
M  V30 16703 H 1618.1 -4.65061 -2.6386 0
M  V30 16704 H 1618.44 -2.96223 -2.92503 0
M  V30 16705 H 1618.97 -3.72148 -1.40536 0
M  V30 16706 H 1615.71 -6.54317 -0.393583 0
M  V30 16707 H 1615.23 -5.69525 -1.88153 0
M  V30 16708 H 1616.91 -6.25074 -1.67006 0
M  V30 16709 N 1617.04 0.356258 -1.53521 0
M  V30 16710 C 1617.97 1.44271 -1.83598 0
M  V30 16711 C 1618.95 1.5547 -0.690141 0
M  V30 16712 O 1620.14 1.69886 -0.940868 0
M  V30 16713 C 1617.27 2.8149 -2.03422 0
M  V30 16714 C 1616.22 2.85108 -3.19213 0
M  V30 16715 C 1615.55 4.25091 -3.24348 0
M  V30 16716 C 1616.85 2.51788 -4.57602 0
M  V30 16717 H 1618.54 1.1935 -2.74583 0
M  V30 16718 H 1616.09 0.572707 -1.32121 0
M  V30 16719 H 1618.04 3.57531 -2.23046 0
M  V30 16720 H 1616.76 3.07819 -1.09155 0
M  V30 16721 H 1615.42 2.1152 -2.99424 0
M  V30 16722 H 1615.07 4.4851 -2.277 0
M  V30 16723 H 1614.77 4.28426 -4.0215 0
M  V30 16724 H 1616.3 5.02992 -3.46167 0
M  V30 16725 H 1617.71 3.17542 -4.77326 0
M  V30 16726 H 1616.11 2.66426 -5.37715 0
M  V30 16727 H 1617.18 1.4701 -4.62078 0
M  V30 16728 N 1618.52 1.45038 0.616577 0
M  V30 16729 C 1619.76 1.50118 1.38723 0
M  V30 16730 C 1620.12 0.135879 1.91519 0
M  V30 16731 O 1621.32 0.0613609 2.6873 0
M  V30 16732 C 1619.6 2.5434 2.51089 0
M  V30 16733 S 1621.15 2.78577 3.39028 0
M  V30 16734 H 1617.97 0.530782 0.473066 0
M  V30 16735 H 1620.57 1.82059 0.712362 0
M  V30 16736 H 1619.28 3.52222 2.10638 0
M  V30 16737 H 1618.81 2.24019 3.23387 0
M  V30 16738 H 1620.82 2.11275 4.48974 0
M  V30 16739 N 1620 -0.858287 1.32179 0
M  V30 16740 C 1621.22 -1.64997 1.25662 0
M  V30 16741 C 1621.65 -1.87303 -0.173021 0
M  V30 16742 O 1621.01 -1.42319 -1.12317 0
M  V30 16743 C 1621.05 -2.98855 2.01787 0
M  V30 16744 O 1620.16 -3.89218 1.36319 0
M  V30 16745 H 1619.5 -0.503169 0.433264 0
M  V30 16746 H 1622.03 -1.06926 1.74436 0
M  V30 16747 H 1622.04 -3.48704 2.11824 0
M  V30 16748 H 1620.71 -2.81941 3.05748 0
M  V30 16749 H 1619.29 -3.4768 1.34807 0
M  V30 16750 N 1621.48 -1.1533 -1.07409 0
M  V30 16751 C 1622.71 -0.950263 -1.83449 0
M  V30 16752 C 1623.11 0.504761 -1.82343 0
M  V30 16753 O 1622.46 1.36183 -1.23287 0
M  V30 16754 C 1622.52 -1.38651 -3.31687 0
M  V30 16755 C 1622.18 -2.85914 -3.56514 0
M  V30 16756 C 1623.18 -3.83981 -3.50506 0
M  V30 16757 C 1620.86 -3.23568 -3.84199 0
M  V30 16758 C 1622.86 -5.17707 -3.71831 0
M  V30 16759 C 1620.55 -4.57467 -4.05175 0
M  V30 16760 C 1621.54 -5.54345 -3.98986 0
M  V30 16761 O 1621.23 -6.85826 -4.19403 0
M  V30 16762 H 1620.96 -0.337616 -0.585655 0
M  V30 16763 H 1623.52 -1.53489 -1.36493 0
M  V30 16764 H 1621.75 -0.745282 -3.7945 0
M  V30 16765 H 1623.44 -1.15267 -3.89189 0
M  V30 16766 H 1624.2 -3.56237 -3.29121 0
M  V30 16767 H 1620.08 -2.48748 -3.88131 0
M  V30 16768 H 1623.63 -5.93311 -3.66916 0
M  V30 16769 H 1619.52 -4.84927 -4.26047 0
M  V30 16770 H 1620.29 -6.92235 -4.36753 0
M  V30 16771 N 1622.95 1.25748 -0.950004 0
M  V30 16772 C 1624.2 1.93336 -0.602294 0
M  V30 16773 C 1624.53 1.74454 0.859994 0
M  V30 16774 O 1623.78 1.08032 1.6318 0
M  V30 16775 C 1624.08 3.45843 -0.901521 0
M  V30 16776 C 1623.75 3.84874 -2.3491 0
M  V30 16777 C 1622.41 3.9524 -2.74479 0
M  V30 16778 C 1624.76 4.04286 -3.28941 0
M  V30 16779 C 1622.09 4.22422 -4.07157 0
M  V30 16780 C 1624.44 4.32959 -4.61225 0
M  V30 16781 C 1623.11 4.41541 -5.00597 0
M  V30 16782 H 1622.38 0.707465 -0.220395 0
M  V30 16783 H 1625.02 1.49386 -1.19817 0
M  V30 16784 H 1623.33 3.91164 -0.2232 0
M  V30 16785 H 1625.03 3.96316 -0.611134 0
M  V30 16786 H 1621.62 3.77358 -2.03221 0
M  V30 16787 H 1625.8 3.95697 -2.99563 0
M  V30 16788 H 1621.06 4.27281 -4.37311 0
M  V30 16789 H 1625.23 4.46925 -5.3407 0
M  V30 16790 H 1622.86 4.62358 -6.03431 0
M  V30 16791 N 1624.43 0.718038 1.40292 0
M  V30 16792 C 1625.68 0.258603 2.00842 0
M  V30 16793 C 1626.01 -1.14894 1.56938 0
M  V30 16794 O 1625.26 -1.79414 0.781606 0
M  V30 16795 C 1625.56 0.289374 3.56227 0
M  V30 16796 C 1625.23 1.64756 4.19722 0
M  V30 16797 C 1623.89 2.01934 4.36779 0
M  V30 16798 C 1626.24 2.54008 4.55115 0
M  V30 16799 C 1623.57 3.27905 4.86513 0
M  V30 16800 C 1625.92 3.79334 5.06249 0
M  V30 16801 C 1624.58 4.16626 5.21516 0
M  V30 16802 H 1623.85 0.0946296 0.734933 0
M  V30 16803 H 1626.5 0.921552 1.67868 0
M  V30 16804 H 1624.81 -0.457147 3.89124 0
M  V30 16805 H 1626.5 -0.0839832 4.00912 0
M  V30 16806 H 1623.09 1.34846 4.06835 0
M  V30 16807 H 1627.28 2.2656 4.4157 0
M  V30 16808 H 1622.53 3.56763 4.96518 0
M  V30 16809 H 1626.71 4.48663 5.32611 0
M  V30 16810 H 1624.33 5.14306 5.59815 0
M  V30 16811 N 1625.91 -1.50602 0.464402 0
M  V30 16812 C 1627.19 -1.94992 -0.154146 0
M  V30 16813 C 1627.57 -1.40447 -1.57601 0
M  V30 16814 O 1626.92 -0.602668 -2.20409 0
M  V30 16815 C 1627.13 -3.48844 -0.104296 0
M  V30 16816 C 1628.47 -4.23563 -0.296506 0
M  V30 16817 O 1629.5 -3.55739 -0.181187 0
M  V30 16818 O 1628.36 -5.43937 -0.528668 0
M  V30 16819 H 1625.45 -0.818921 -0.115311 0
M  V30 16820 H 1628 -1.61397 0.524324 0
M  V30 16821 H 1626.77 -3.81075 0.88869 0
M  V30 16822 H 1626.39 -3.88957 -0.824514 0
M  V30 16823 N 1627.39 -0.19675 -1.56367 0
M  V30 16824 C 1628.3 0.735372 -2.22777 0
M  V30 16825 C 1629.31 1.23336 -1.22737 0
M  V30 16826 O 1630.49 1.28017 -1.55479 0
M  V30 16827 C 1627.56 1.93706 -2.8754 0
M  V30 16828 C 1626.62 1.48348 -4.02854 0
M  V30 16829 C 1625.85 2.62788 -4.64519 0
M  V30 16830 O 1626.07 3.80311 -4.25111 0
M  V30 16831 O 1625.01 2.35406 -5.53956 0
M  V30 16832 H 1628.83 0.199788 -3.03042 0
M  V30 16833 H 1626.42 0.0326149 -1.49364 0
M  V30 16834 H 1628.3 2.63934 -3.28507 0
M  V30 16835 H 1626.97 2.46121 -2.10252 0
M  V30 16836 H 1625.88 0.749939 -3.66506 0
M  V30 16837 H 1627.21 1.00597 -4.8181 0
M  V30 16838 N 1628.87 1.57413 0.0768405 0
M  V30 16839 C 1630.11 1.86633 0.775414 0
M  V30 16840 C 1630.44 0.788041 1.78367 0
M  V30 16841 O 1629.71 -0.183835 1.95036 0
M  V30 16842 H 1628.29 0.688678 0.289365 0
M  V30 16843 H 1630.95 1.94825 0.0541285 0
M  V30 16844 H 1630.04 2.83977 1.29474 0
M  V30 16845 N 1630.34 -0.348112 1.53707 0
M  V30 16846 C 1631.76 -0.923978 1.62233 0
M  V30 16847 C 1632.11 -1.89702 0.500744 0
M  V30 16848 O 1631.23 -2.1321 -0.370212 0
M  V30 16849 C 1631.83 -1.68261 2.94064 0
M  V30 16850 C 1630.39 -2.20755 3.04867 0
M  V30 16851 C 1629.53 -1.02526 2.5765 0
M  V30 16852 H 1632.48 -0.126381 1.58196 0
M  V30 16853 H 1632.5 -2.54514 2.82848 0
M  V30 16854 H 1632.02 -0.974155 3.75675 0
M  V30 16855 H 1630.12 -2.9479 2.27881 0
M  V30 16856 H 1630.23 -2.47439 4.10257 0
M  V30 16857 H 1628.59 -1.39735 2.12947 0
M  V30 16858 H 1629.38 -0.331521 3.41696 0
M  V30 16859 N 1631.82 -1.45363 -0.608876 0
M  V30 16860 C 1633.23 -1.43794 -1.19081 0
M  V30 16861 C 1633.58 -0.164874 -1.95506 0
M  V30 16862 O 1632.71 0.733623 -2.03585 0
M  V30 16863 C 1633.3 -2.60506 -2.16615 0
M  V30 16864 C 1631.86 -2.62061 -2.70187 0
M  V30 16865 C 1631.01 -2.36018 -1.4557 0
M  V30 16866 H 1633.96 -1.53622 -0.39826 0
M  V30 16867 H 1633.98 -2.34531 -2.99625 0
M  V30 16868 H 1633.49 -3.53147 -1.60963 0
M  V30 16869 H 1631.6 -1.73423 -3.2978 0
M  V30 16870 H 1631.71 -3.61242 -3.14708 0
M  V30 16871 H 1630.07 -1.8555 -1.74481 0
M  V30 16872 H 1630.86 -3.30802 -0.917884 0
M  V30 16873 N 1633.3 0.851265 -1.32632 0
M  V30 16874 C 1634.55 1.60807 -1.23568 0
M  V30 16875 C 1634.88 1.93155 0.201238 0
M  V30 16876 O 1634.15 1.5764 1.13929 0
M  V30 16877 C 1634.44 2.92619 -2.09872 0
M  V30 16878 C 1634.29 2.67031 -3.61959 0
M  V30 16879 C 1635.61 3.93924 -1.96244 0
M  V30 16880 H 1632.73 0.583492 -0.450229 0
M  V30 16881 H 1635.37 0.98273 -1.62611 0
M  V30 16882 H 1633.52 3.45988 -1.76704 0
M  V30 16883 H 1635.19 2.2019 -4.05357 0
M  V30 16884 H 1633.44 2.00938 -3.84456 0
M  V30 16885 H 1634.11 3.60902 -4.17676 0
M  V30 16886 H 1636.58 3.49823 -2.25307 0
M  V30 16887 H 1635.46 4.84005 -2.58902 0
M  V30 16888 H 1635.72 4.32185 -0.931065 0
M  V30 16889 N 1634.78 1.15898 1.06796 0
M  V30 16890 C 1635.71 0.88395 2.16122 0
M  V30 16891 C 1636.69 -0.167708 1.69271 0
M  V30 16892 O 1637.87 -0.0208846 1.94189 0
M  V30 16893 C 1635 0.378656 3.4523 0
M  V30 16894 C 1633.96 1.36764 4.05561 0
M  V30 16895 C 1633.28 0.720956 5.29817 0
M  V30 16896 C 1634.58 2.73554 4.44933 0
M  V30 16897 H 1636.28 1.79818 2.39386 0
M  V30 16898 H 1633.82 0.866008 1.15049 0
M  V30 16899 H 1635.78 0.17376 4.21042 0
M  V30 16900 H 1634.5 -0.571063 3.21569 0
M  V30 16901 H 1633.16 1.55899 3.318 0
M  V30 16902 H 1632.81 -0.235089 5.0245 0
M  V30 16903 H 1632.51 1.38101 5.71141 0
M  V30 16904 H 1634.03 0.525963 6.0833 0
M  V30 16905 H 1635.45 2.58231 5.11849 0
M  V30 16906 H 1633.84 3.35986 4.97226 0
M  V30 16907 H 1634.91 3.29192 3.56034 0
M  V30 16908 N 1636.26 -1.25243 0.956659 0
M  V30 16909 C 1637.19 -2.28159 0.496574 0
M  V30 16910 C 1638.17 -1.63814 -0.458132 0
M  V30 16911 O 1639.35 -1.90897 -0.356648 0
M  V30 16912 C 1636.48 -3.46573 -0.22454 0
M  V30 16913 C 1635.44 -4.2311 0.645104 0
M  V30 16914 C 1634.76 -5.343 -0.206867 0
M  V30 16915 C 1636.06 -4.85562 1.92422 0
M  V30 16916 H 1637.76 -2.66895 1.35675 0
M  V30 16917 H 1635.3 -1.28301 0.653827 0
M  V30 16918 H 1637.26 -4.17695 -0.55755 0
M  V30 16919 H 1635.98 -3.06833 -1.11898 0
M  V30 16920 H 1634.64 -3.53774 0.961228 0
M  V30 16921 H 1634.29 -4.908 -1.10112 0
M  V30 16922 H 1633.99 -5.86423 0.371714 0
M  V30 16923 H 1635.51 -6.08253 -0.534798 0
M  V30 16924 H 1636.92 -5.48817 1.65749 0
M  V30 16925 H 1635.32 -5.47871 2.44862 0
M  V30 16926 H 1636.39 -4.07634 2.62607 0
M  V30 16927 N 1637.73 -0.725468 -1.3991 0
M  V30 16928 C 1639.01 -0.195971 -1.94616 0
M  V30 16929 C 1639.39 1.30035 -1.66295 0
M  V30 16930 O 1638.74 2.06133 -0.985977 0
M  V30 16931 C 1638.95 -0.519325 -3.45115 0
M  V30 16932 C 1640.3 -0.46341 -4.22064 0
M  V30 16933 O 1641.32 -0.455958 -3.5327 0
M  V30 16934 O 1640.18 -0.449579 -5.44648 0
M  V30 16935 H 1637.27 -0.0325409 -0.82636 0
M  V30 16936 H 1639.82 -0.803676 -1.49463 0
M  V30 16937 H 1638.59 -1.55386 -3.59125 0
M  V30 16938 H 1638.22 0.117838 -3.97425 0
M  V30 16939 N 1639.21 1.50354 -0.472382 0
M  V30 16940 C 1640.16 2.28555 0.321118 0
M  V30 16941 C 1641.13 1.33665 0.98605 0
M  V30 16942 O 1642.31 1.62603 0.998239 0
M  V30 16943 C 1639.45 3.15586 1.39641 0
M  V30 16944 C 1638.57 4.25508 0.746129 0
M  V30 16945 C 1637.7 4.99794 1.79943 0
M  V30 16946 C 1636.74 6.01589 1.12946 0
M  V30 16947 N 1635.88 6.69149 2.12567 0
M  V30 16948 H 1640.72 2.95913 -0.352051 0
M  V30 16949 H 1638.26 1.45926 -0.185461 0
M  V30 16950 H 1640.21 3.64397 2.03152 0
M  V30 16951 H 1638.84 2.50271 2.03873 0
M  V30 16952 H 1637.9 3.804 -0.00157718 0
M  V30 16953 H 1639.21 4.98326 0.217335 0
M  V30 16954 H 1638.36 5.5233 2.51031 0
M  V30 16955 H 1637.1 4.26684 2.36203 0
M  V30 16956 H 1636.11 5.48312 0.404207 0
M  V30 16957 H 1637.33 6.76672 0.573735 0
M  V30 16958 H 1635.28 5.9883 2.67841 0
M  V30 16959 H 1635.19 7.37847 1.64676 0
M  V30 16960 H 1636.46 7.26301 2.83031 0
M  V30 16961 N 1640.69 0.205039 1.56261 0
M  V30 16962 C 1641.94 -0.431364 1.97033 0
M  V30 16963 C 1642.25 -1.62066 1.09517 0
M  V30 16964 O 1643.46 -2.32551 1.40116 0
M  V30 16965 C 1641.92 -0.818841 3.50461 0
M  V30 16966 C 1641.52 0.346723 4.46656 0
M  V30 16967 C 1643.27 -1.42177 3.99982 0
M  V30 16968 C 1641.17 -0.0622677 5.91367 0
M  V30 16969 H 1640.1 -0.164934 0.73574 0
M  V30 16970 H 1642.76 0.298635 1.81054 0
M  V30 16971 H 1641.14 -1.60579 3.61981 0
M  V30 16972 H 1642.31 1.12427 4.46874 0
M  V30 16973 H 1640.63 0.861799 4.07384 0
M  V30 16974 H 1643.22 -1.74039 5.05583 0
M  V30 16975 H 1643.57 -2.33177 3.44868 0
M  V30 16976 H 1644.1 -0.698591 3.91618 0
M  V30 16977 H 1640.84 0.813802 6.50429 0
M  V30 16978 H 1640.36 -0.804474 5.94381 0
M  V30 16979 H 1642.04 -0.49466 6.45106 0
M  V30 16980 N 1642.17 -1.57451 -0.0684915 0
M  V30 16981 C 1643.4 -1.91362 -0.778724 0
M  V30 16982 C 1643.81 -0.799579 -1.71474 0
M  V30 16983 O 1643.15 0.235727 -1.82181 0
M  V30 16984 C 1643.21 -3.20767 -1.62323 0
M  V30 16985 C 1642.88 -4.48907 -0.85623 0
M  V30 16986 C 1643.87 -5.19609 -0.173992 0
M  V30 16987 C 1641.56 -4.95521 -0.822427 0
M  V30 16988 C 1643.55 -6.35178 0.531784 0
M  V30 16989 C 1641.24 -6.10996 -0.11288 0
M  V30 16990 C 1642.24 -6.80675 0.563022 0
M  V30 16991 O 1641.93 -7.93946 1.26113 0
M  V30 16992 H 1641.66 -0.636969 -0.226376 0
M  V30 16993 H 1644.21 -2.05357 -0.0420481 0
M  V30 16994 H 1642.44 -3.0299 -2.40279 0
M  V30 16995 H 1644.13 -3.40303 -2.21244 0
M  V30 16996 H 1644.9 -4.84622 -0.191393 0
M  V30 16997 H 1640.78 -4.41156 -1.33798 0
M  V30 16998 H 1644.32 -6.89501 1.05991 0
M  V30 16999 H 1640.22 -6.45432 -0.0934182 0
M  V30 17000 H 1640.98 -8.10084 1.17074 0
M  V30 17001 N 1643.65 0.339955 -1.5389 0
M  V30 17002 C 1644.87 1.10417 -1.75564 0
M  V30 17003 C 1645.3 1.81466 -0.495156 0
M  V30 17004 O 1644.66 1.72679 0.552415 0
M  V30 17005 C 1644.7 2.09056 -2.93816 0
M  V30 17006 O 1643.81 3.16645 -2.64215 0
M  V30 17007 H 1643.15 0.319164 -0.582263 0
M  V30 17008 H 1645.68 0.389251 -2.00863 0
M  V30 17009 H 1645.69 2.52215 -3.20705 0
M  V30 17010 H 1644.36 1.56741 -3.85234 0
M  V30 17011 H 1642.94 2.78278 -2.48225 0
M  V30 17012 N 1645.13 1.45684 0.601159 0
M  V30 17013 C 1646.54 1.30232 0.922598 0
M  V30 17014 C 1646.74 0.260086 1.99814 0
M  V30 17015 O 1645.8 -0.343753 2.50149 0
M  V30 17016 C 1647.11 2.68318 1.35743 0
M  V30 17017 C 1648.66 2.76264 1.47129 0
M  V30 17018 C 1649.13 4.1489 1.93986 0
M  V30 17019 N 1650.62 4.17216 2.01209 0
M  V30 17020 C 1651.36 5.21354 2.387 0
M  V30 17021 N 1650.86 6.35833 2.75114 0
M  V30 17022 N 1652.65 5.08714 2.39095 0
M  V30 17023 H 1644.8 2.12117 -0.109634 0
M  V30 17024 H 1647.06 0.947902 0.0136129 0
M  V30 17025 H 1646.77 3.45804 0.64127 0
M  V30 17026 H 1646.64 2.97206 2.32268 0
M  V30 17027 H 1649.03 1.99077 2.17835 0
M  V30 17028 H 1649.11 2.51082 0.489028 0
M  V30 17029 H 1648.75 4.92565 1.23864 0
M  V30 17030 H 1648.68 4.37468 2.93137 0
M  V30 17031 H 1651.18 3.34607 1.75632 0
M  V30 17032 H 1651.49 7.11084 3.02622 0
M  V30 17033 H 1649.83 6.39224 2.72795 0
M  V30 17034 H 1653.02 4.18322 2.10057 0
M  V30 17035 H 1653.2 5.89989 2.67987 0
M  V30 17036 N 1646.6 -0.84422 1.33082 0
M  V30 17037 C 1648.01 -1.41526 1.21767 0
M  V30 17038 C 1648.37 -1.955 -0.165606 0
M  V30 17039 O 1647.49 -1.88384 -1.06492 0
M  V30 17040 C 1648.09 -2.57266 2.20454 0
M  V30 17041 C 1646.64 -3.10339 2.12995 0
M  V30 17042 C 1645.79 -1.83119 2.08237 0
M  V30 17043 H 1648.74 -0.650452 1.44758 0
M  V30 17044 H 1648.76 -3.34739 1.80914 0
M  V30 17045 H 1648.28 -2.17952 3.21121 0
M  V30 17046 H 1646.38 -3.5421 1.15612 0
M  V30 17047 H 1646.49 -3.70875 3.03296 0
M  V30 17048 H 1644.85 -2.03148 1.53632 0
M  V30 17049 H 1645.64 -1.46009 3.10703 0
M  V30 17050 N 1648.08 -1.16463 -1.0618 0
M  V30 17051 C 1649.36 -0.857038 -1.75824 0
M  V30 17052 C 1649.74 0.644886 -2.01009 0
M  V30 17053 O 1649.09 1.59305 -1.63812 0
M  V30 17054 C 1649.3 -1.681 -3.05849 0
M  V30 17055 C 1650.64 -1.8947 -3.79982 0
M  V30 17056 O 1651.67 -1.64975 -3.15692 0
M  V30 17057 O 1650.53 -2.30573 -4.95478 0
M  V30 17058 H 1647.62 -0.316364 -0.764096 0
M  V30 17059 H 1650.17 -1.27105 -1.12438 0
M  V30 17060 H 1648.94 -2.70014 -2.8321 0
M  V30 17061 H 1648.56 -1.2641 -3.7697 0
M  V30 17062 N 1649.56 1.24734 -0.963288 0
M  V30 17063 C 1650.84 1.88004 -0.539809 0
M  V30 17064 C 1651.22 1.86814 0.983035 0
M  V30 17065 O 1650.56 1.33769 1.85251 0
M  V30 17066 C 1650.77 3.30326 -1.1263 0
M  V30 17067 C 1652.12 4.07039 -1.20848 0
M  V30 17068 O 1653.15 3.3948 -1.07849 0
M  V30 17069 O 1652.01 5.27906 -1.41342 0
M  V30 17070 H 1649.1 0.807318 -0.17935 0
M  V30 17071 H 1651.65 1.3274 -1.05727 0
M  V30 17072 H 1650.42 3.25668 -2.16925 0
M  V30 17073 H 1650.04 3.93159 -0.592614 0
M  V30 17074 N 1651.04 0.732878 1.39523 0
M  V30 17075 C 1652.26 0.288717 2.05381 0
M  V30 17076 C 1652.69 -1.06727 1.5489 0
M  V30 17077 O 1652.05 -1.67585 0.691726 0
M  V30 17078 C 1652.09 0.297738 3.59369 0
M  V30 17079 O 1651.2 -0.715335 4.06149 0
M  V30 17080 H 1650.54 0.131696 0.650809 0
M  V30 17081 H 1653.07 0.998206 1.78597 0
M  V30 17082 H 1653.08 0.141391 4.07755 0
M  V30 17083 H 1651.75 1.28719 3.9548 0
M  V30 17084 H 1650.33 -0.525298 3.69182 0
M  V30 17085 N 1652.52 -1.50101 0.480349 0
M  V30 17086 C 1653.76 -2.02674 -0.0715373 0
M  V30 17087 C 1654.09 -1.36095 -1.38535 0
M  V30 17088 O 1653.37 -0.489703 -1.88234 0
M  V30 17089 C 1653.65 -3.59261 -0.245693 0
M  V30 17090 C 1653.51 -4.36399 1.08979 0
M  V30 17091 C 1654.82 -4.28682 -0.995966 0
M  V30 17092 H 1651.94 -0.736592 -0.0245244 0
M  V30 17093 H 1654.59 -1.7933 0.627743 0
M  V30 17094 H 1652.74 -3.79281 -0.841308 0
M  V30 17095 H 1654.41 -4.27926 1.72269 0
M  V30 17096 H 1652.65 -3.99773 1.68417 0
M  V30 17097 H 1653.32 -5.44254 0.921468 0
M  V30 17098 H 1655.8 -4.13193 -0.491025 0
M  V30 17099 H 1654.67 -5.38037 -1.08663 0
M  V30 17100 H 1654.93 -3.92491 -2.03479 0
M  V30 17101 N 1653.99 -0.213323 -1.5615 0
M  V30 17102 C 1655.22 0.428746 -2.0292 0
M  V30 17103 C 1655.64 1.53137 -1.09227 0
M  V30 17104 O 1655 1.81128 -0.0789684 0
M  V30 17105 C 1655.05 0.945231 -3.47991 0
M  V30 17106 O 1654.15 2.05709 -3.57432 0
M  V30 17107 H 1653.49 0.0980619 -0.656719 0
M  V30 17108 H 1656.02 -0.329548 -2.01929 0
M  V30 17109 H 1656.03 1.25717 -3.88149 0
M  V30 17110 H 1654.71 0.138161 -4.1567 0
M  V30 17111 H 1653.29 1.75242 -3.29158 0
M  V30 17112 N 1655.47 1.57485 0.0601405 0
M  V30 17113 C 1656.38 2.07853 1.08785 0
M  V30 17114 C 1657.4 1.01047 1.41653 0
M  V30 17115 O 1658.57 1.32592 1.51596 0
M  V30 17116 C 1655.64 2.52214 2.37885 0
M  V30 17117 C 1654.7 3.73369 2.11882 0
M  V30 17118 C 1653.93 4.15604 3.34827 0
M  V30 17119 O 1654.16 3.5761 4.44377 0
M  V30 17120 O 1653.09 5.08303 3.22353 0
M  V30 17121 H 1656.92 2.9576 0.689912 0
M  V30 17122 H 1654.5 1.46846 0.275065 0
M  V30 17123 H 1656.38 2.81216 3.1384 0
M  V30 17124 H 1655.06 1.67432 2.77035 0
M  V30 17125 H 1653.97 3.49433 1.33594 0
M  V30 17126 H 1655.3 4.59039 1.77606 0
M  V30 17127 N 1656.95 -0.331789 1.54068 0
M  V30 17128 C 1657.88 -1.41332 1.8587 0
M  V30 17129 C 1658.86 -1.54353 0.714787 0
M  V30 17130 O 1660.05 -1.68368 0.967777 0
M  V30 17131 C 1657.18 -2.78218 2.07875 0
M  V30 17132 C 1656.13 -2.79994 3.23709 0
M  V30 17133 C 1655.46 -4.19878 3.31069 0
M  V30 17134 C 1656.76 -2.44476 4.6155 0
M  V30 17135 H 1658.45 -1.14966 2.76447 0
M  V30 17136 H 1656 -0.551615 1.33016 0
M  V30 17137 H 1657.95 -3.53937 2.28706 0
M  V30 17138 H 1656.67 -3.06044 1.14038 0
M  V30 17139 H 1655.33 -2.0673 3.02751 0
M  V30 17140 H 1654.98 -4.44831 2.34807 0
M  V30 17141 H 1654.68 -4.21974 4.08915 0
M  V30 17142 H 1656.2 -4.97421 3.54125 0
M  V30 17143 H 1657.62 -3.09908 4.82317 0
M  V30 17144 H 1656.02 -2.57837 5.41886 0
M  V30 17145 H 1657.09 -1.3964 4.64358 0
M  V30 17146 N 1658.43 -1.46001 -0.593424 0
M  V30 17147 C 1659.67 -1.51967 -1.35195 0
M  V30 17148 C 1660.03 -0.164761 -1.91693 0
M  V30 17149 O 1659.32 0.825208 -1.72919 0
M  V30 17150 C 1659.52 -2.54568 -2.50858 0
M  V30 17151 C 1659.35 -3.99903 -2.05688 0
M  V30 17152 C 1658.12 -4.67729 -1.91201 0
M  V30 17153 C 1660.31 -4.88021 -1.62297 0
M  V30 17154 N 1658.3 -5.97726 -1.39989 0
M  V30 17155 C 1659.67 -6.07757 -1.22602 0
M  V30 17156 C 1661.72 -4.74762 -1.50018 0
M  V30 17157 C 1660.42 -7.15702 -0.718508 0
M  V30 17158 C 1662.45 -5.82769 -1.0067 0
M  V30 17159 C 1661.81 -7.01671 -0.619471 0
M  V30 17160 H 1657.91 -0.610973 -0.488094 0
M  V30 17161 H 1660.5 -1.82556 -0.676862 0
M  V30 17162 H 1658.67 -2.25908 -3.15943 0
M  V30 17163 H 1660.4 -2.50595 -3.1778 0
M  V30 17164 H 1657.15 -4.23089 -2.1282 0
M  V30 17165 H 1657.58 -6.66888 -1.16576 0
M  V30 17166 H 1662.22 -3.83236 -1.78577 0
M  V30 17167 H 1659.94 -8.07005 -0.420481 0
M  V30 17168 H 1663.52 -5.74548 -0.915751 0
M  V30 17169 H 1662.4 -7.83822 -0.243508 0
M  V30 17170 N 1659.91 0.83715 -1.33527 0
M  V30 17171 C 1661.13 1.62456 -1.28124 0
M  V30 17172 C 1661.55 1.88223 0.147499 0
M  V30 17173 O 1660.91 1.4636 1.09018 0
M  V30 17174 C 1660.96 2.97376 -2.05547 0
M  V30 17175 O 1660.68 2.7274 -3.42847 0
M  V30 17176 C 1662.18 3.91805 -2.07374 0
M  V30 17177 H 1659.4 0.505436 -0.441334 0
M  V30 17178 H 1661.94 1.04263 -1.75925 0
M  V30 17179 H 1660.1 3.52166 -1.61424 0
M  V30 17180 H 1660.51 3.58669 -3.82696 0
M  V30 17181 H 1661.99 4.83684 -2.65996 0
M  V30 17182 H 1662.46 4.26106 -1.06444 0
M  V30 17183 H 1663.07 3.42952 -2.51523 0
M  V30 17184 N 1661.38 1.17024 1.05561 0
M  V30 17185 C 1662.33 0.851734 2.11493 0
M  V30 17186 C 1663.32 -0.172071 1.59977 0
M  V30 17187 O 1664.51 0.0298269 1.76975 0
M  V30 17188 C 1661.64 0.362712 3.41379 0
M  V30 17189 C 1660.73 1.41773 3.99702 0
M  V30 17190 N 1661.12 2.63017 4.32037 0
M  V30 17191 C 1659.41 1.27472 4.27396 0
M  V30 17192 C 1660.12 3.30778 4.78498 0
M  V30 17193 N 1659.09 2.58156 4.78389 0
M  V30 17194 H 1662.89 1.77361 2.34351 0
M  V30 17195 H 1660.41 1.0584 1.23174 0
M  V30 17196 H 1662.4 0.116101 4.16738 0
M  V30 17197 H 1661.06 -0.553008 3.19956 0
M  V30 17198 H 1662.08 3.00012 4.22153 0
M  V30 17199 H 1658.75 0.420344 4.15379 0
M  V30 17200 H 1660.14 4.34314 5.12661 0
M  V30 17201 N 1662.86 -1.24221 0.969889 0
M  V30 17202 C 1663.83 -2.23529 0.506686 0
M  V30 17203 C 1664.83 -1.55797 -0.397968 0
M  V30 17204 O 1666.02 -1.73126 -0.193124 0
M  V30 17205 C 1663.15 -3.39861 -0.265943 0
M  V30 17206 H 1664.34 -2.66022 1.38463 0
M  V30 17207 H 1661.89 -1.36872 0.754698 0
M  V30 17208 H 1662.63 -3.0281 -1.16089 0
M  V30 17209 H 1662.41 -3.90222 0.383286 0
M  V30 17210 H 1663.9 -4.13567 -0.578975 0
M  V30 17211 N 1664.34 -0.740267 -1.39132 0
M  V30 17212 C 1665.27 -0.064087 -2.2911 0
M  V30 17213 C 1666.29 0.697897 -1.47082 0
M  V30 17214 O 1667.47 0.541189 -1.70098 0
M  V30 17215 C 1664.57 0.933426 -3.25792 0
M  V30 17216 C 1663.75 0.231867 -4.36785 0
M  V30 17217 C 1662.81 1.13823 -5.13742 0
M  V30 17218 O 1661.83 0.613741 -5.65881 0
M  V30 17219 N 1663.03 2.46751 -5.25447 0
M  V30 17220 H 1665.8 -0.836774 -2.87781 0
M  V30 17221 H 1663.36 -0.589928 -1.5077 0
M  V30 17222 H 1665.35 1.5425 -3.74151 0
M  V30 17223 H 1663.92 1.60728 -2.68114 0
M  V30 17224 H 1663.14 -0.557747 -3.90234 0
M  V30 17225 H 1664.43 -0.254115 -5.08165 0
M  V30 17226 H 1663.83 2.91834 -4.84613 0
M  V30 17227 H 1662.39 3.02741 -5.77227 0
M  V30 17228 N 1665.82 1.49844 -0.488302 0
M  V30 17229 C 1667.06 2.02709 0.060788 0
M  V30 17230 C 1667.4 1.36828 1.37811 0
M  V30 17231 O 1666.67 0.499679 1.87972 0
M  V30 17232 C 1666.96 3.59386 0.226637 0
M  V30 17233 C 1666.81 4.35814 -1.11292 0
M  V30 17234 C 1668.13 4.29204 0.973218 0
M  V30 17235 H 1665.25 0.736712 0.0206177 0
M  V30 17236 H 1667.89 1.78995 -0.637245 0
M  V30 17237 H 1666.04 3.79722 0.821182 0
M  V30 17238 H 1667.71 4.27007 -1.74536 0
M  V30 17239 H 1665.95 3.98874 -1.70535 0
M  V30 17240 H 1666.62 5.43758 -0.950319 0
M  V30 17241 H 1669.1 4.13447 0.469106 0
M  V30 17242 H 1667.98 5.38605 1.05809 0
M  V30 17243 H 1668.24 3.93564 2.01394 0
M  V30 17244 N 1667.3 0.221601 1.56034 0
M  V30 17245 C 1668.54 -0.410695 1.98598 0
M  V30 17246 C 1668.88 -1.59412 1.10912 0
M  V30 17247 O 1668.15 -1.93783 0.166819 0
M  V30 17248 C 1668.43 -0.845199 3.50041 0
M  V30 17249 C 1668.29 0.341866 4.48499 0
M  V30 17250 C 1669.61 -1.70135 4.05884 0
M  V30 17251 H 1666.72 -0.147808 0.722026 0
M  V30 17252 H 1669.37 0.317846 1.87323 0
M  V30 17253 H 1667.52 -1.46597 3.5978 0
M  V30 17254 H 1669.19 0.980014 4.5077 0
M  V30 17255 H 1667.43 0.989294 4.22369 0
M  V30 17256 H 1668.1 -0.00509234 5.52 0
M  V30 17257 H 1670.58 -1.17757 3.9909 0
M  V30 17258 H 1669.45 -1.97427 5.12166 0
M  V30 17259 H 1669.72 -2.66469 3.5277 0
M  V30 17260 N 1668.77 -1.57515 -0.0517878 0
M  V30 17261 C 1670.02 -1.87843 -0.745624 0
M  V30 17262 C 1670.34 -0.816318 -1.77091 0
M  V30 17263 O 1669.61 0.152784 -1.95303 0
M  V30 17264 H 1668.19 -0.693194 -0.278372 0
M  V30 17265 H 1670.86 -1.94886 -0.0231267 0
M  V30 17266 H 1669.95 -2.86001 -1.2494 0
M  V30 17267 N 1670.25 0.323614 -1.54242 0
M  V30 17268 C 1671.16 1.42128 -1.86646 0
M  V30 17269 C 1672.18 1.56603 -0.758385 0
M  V30 17270 O 1673.36 1.717 -1.05267 0
M  V30 17271 C 1670.42 2.76842 -2.08709 0
M  V30 17272 C 1669.48 2.71543 -3.3251 0
M  V30 17273 C 1668.71 3.99833 -3.5351 0
M  V30 17274 O 1668.94 4.98095 -2.77952 0
M  V30 17275 O 1667.87 4.03095 -4.46988 0
M  V30 17276 H 1671.7 1.17653 -2.79985 0
M  V30 17277 H 1669.28 0.517632 -1.40146 0
M  V30 17278 H 1671.16 3.56588 -2.24551 0
M  V30 17279 H 1669.84 3.01207 -1.18558 0
M  V30 17280 H 1668.75 1.90348 -3.22053 0
M  V30 17281 H 1670.08 2.52133 -4.22717 0
M  V30 17282 N 1671.73 1.46313 0.585673 0
M  V30 17283 C 1673.15 1.31203 0.908733 0
M  V30 17284 C 1673.35 0.281265 1.99527 0
M  V30 17285 O 1672.4 -0.317202 2.505 0
M  V30 17286 C 1673.72 2.69742 1.3289 0
M  V30 17287 C 1675.26 2.77809 1.44191 0
M  V30 17288 C 1675.74 4.16924 1.89574 0
M  V30 17289 N 1677.23 4.19327 1.96773 0
M  V30 17290 C 1677.97 5.23856 2.33157 0
M  V30 17291 N 1677.46 6.38716 2.68355 0
M  V30 17292 N 1679.25 5.11221 2.33686 0
M  V30 17293 H 1671.41 2.11989 -0.132126 0
M  V30 17294 H 1673.67 0.947993 0.00355835 0
M  V30 17295 H 1673.37 3.46465 0.604557 0
M  V30 17296 H 1673.25 2.99653 2.29102 0
M  V30 17297 H 1675.64 2.01377 2.15712 0
M  V30 17298 H 1675.72 2.51587 0.46237 0
M  V30 17299 H 1675.36 4.93851 1.18633 0
M  V30 17300 H 1675.29 4.40552 2.88481 0
M  V30 17301 H 1677.78 3.36451 1.72073 0
M  V30 17302 H 1678.09 7.14253 2.95063 0
M  V30 17303 H 1676.44 6.42082 2.66 0
M  V30 17304 H 1679.63 4.20527 2.05609 0
M  V30 17305 H 1679.8 5.92798 2.61714 0
M  V30 17306 N 1673.21 -0.830057 1.33969 0
M  V30 17307 C 1674.44 -1.61539 1.28797 0
M  V30 17308 C 1674.85 -1.8867 -0.14158 0
M  V30 17309 O 1674.19 -1.47356 -1.0969 0
M  V30 17310 C 1674.25 -2.98503 2.0034 0
M  V30 17311 C 1673.92 -2.94302 3.49622 0
M  V30 17312 C 1674.91 -2.69391 4.44662 0
M  V30 17313 C 1672.6 -3.14159 3.9193 0
M  V30 17314 C 1674.59 -2.64379 5.79985 0
M  V30 17315 C 1672.28 -3.08772 5.27355 0
M  V30 17316 C 1673.28 -2.83914 6.21194 0
M  V30 17317 O 1672.97 -2.78446 7.54137 0
M  V30 17318 H 1672.7 -0.509067 0.444777 0
M  V30 17319 H 1675.25 -1.04137 1.77044 0
M  V30 17320 H 1673.48 -3.57795 1.46697 0
M  V30 17321 H 1675.17 -3.59449 1.88551 0
M  V30 17322 H 1675.94 -2.53792 4.13298 0
M  V30 17323 H 1671.82 -3.32526 3.19293 0
M  V30 17324 H 1675.36 -2.44896 6.53201 0
M  V30 17325 H 1671.26 -3.23922 5.58341 0
M  V30 17326 H 1672.02 -2.94224 7.63789 0
M  V30 17327 N 1674.69 -1.17582 -1.04939 0
M  V30 17328 C 1675.94 -0.96387 -1.77634 0
M  V30 17329 C 1676.26 0.508548 -1.88252 0
M  V30 17330 O 1675.53 1.36913 -1.40113 0
M  V30 17331 H 1674.11 -0.353636 -0.65799 0
M  V30 17332 H 1676.77 -1.48104 -1.26693 0
M  V30 17333 H 1675.86 -1.39438 -2.79219 0
M  V30 17334 N 1676.17 1.23705 -0.976463 0
M  V30 17335 C 1677.39 1.96595 -0.660697 0
M  V30 17336 C 1677.82 1.71845 0.764916 0
M  V30 17337 O 1677.17 0.987506 1.52046 0
M  V30 17338 C 1677.22 3.47803 -0.95214 0
M  V30 17339 O 1676.33 4.12378 -0.0421126 0
M  V30 17340 H 1675.67 0.615591 -0.248886 0
M  V30 17341 H 1678.2 1.57247 -1.30899 0
M  V30 17342 H 1678.21 3.98236 -0.887238 0
M  V30 17343 H 1676.88 3.65144 -1.99105 0
M  V30 17344 H 1675.46 3.72552 -0.161087 0
M  V30 17345 N 1677.64 0.747635 1.38738 0
M  V30 17346 C 1678.59 0.11597 2.30508 0
M  V30 17347 C 1679.56 -0.716088 1.49871 0
M  V30 17348 O 1680.75 -0.673446 1.7852 0
M  V30 17349 C 1677.89 -0.775765 3.36268 0
M  V30 17350 C 1677 0.070275 4.31943 0
M  V30 17351 C 1676.13 -0.823908 5.24772 0
M  V30 17352 C 1675.17 0.0261249 6.12094 0
M  V30 17353 N 1674.31 -0.824688 6.9724 0
M  V30 17354 H 1679.15 0.904158 2.83952 0
M  V30 17355 H 1676.69 0.457513 1.39804 0
M  V30 17356 H 1678.64 -1.30735 3.96187 0
M  V30 17357 H 1677.27 -1.5298 2.84248 0
M  V30 17358 H 1676.33 0.719421 3.73535 0
M  V30 17359 H 1677.64 0.726987 4.93474 0
M  V30 17360 H 1676.79 -1.42287 5.89779 0
M  V30 17361 H 1675.53 -1.51437 4.63593 0
M  V30 17362 H 1674.54 0.637803 5.46088 0
M  V30 17363 H 1675.76 0.713556 6.75341 0
M  V30 17364 H 1673.71 -1.50021 6.38616 0
M  V30 17365 H 1673.62 -0.22474 7.55666 0
M  V30 17366 H 1674.89 -1.40882 7.66663 0
M  V30 17367 N 1679.12 -1.49583 0.496242 0
M  V30 17368 C 1680.07 -2.29037 -0.284716 0
M  V30 17369 C 1681.04 -1.35217 -0.964661 0
M  V30 17370 O 1682.22 -1.64171 -0.972244 0
M  V30 17371 C 1679.36 -3.17767 -1.34603 0
M  V30 17372 C 1678.48 -4.26641 -0.67834 0
M  V30 17373 C 1677.61 -5.02594 -1.71969 0
M  V30 17374 C 1676.65 -6.0331 -1.03361 0
M  V30 17375 N 1675.79 -6.72446 -2.01894 0
M  V30 17376 H 1680.63 -2.95316 0.399084 0
M  V30 17377 H 1678.16 -1.45613 0.208653 0
M  V30 17378 H 1680.12 -3.67583 -1.97329 0
M  V30 17379 H 1678.75 -2.53483 -1.99866 0
M  V30 17380 H 1677.8 -3.80349 0.0620953 0
M  V30 17381 H 1679.12 -4.98609 -0.138028 0
M  V30 17382 H 1678.27 -5.56254 -2.42212 0
M  V30 17383 H 1677.01 -4.30388 -2.29385 0
M  V30 17384 H 1676.01 -5.48886 -0.316925 0
M  V30 17385 H 1677.24 -6.77499 -0.466009 0
M  V30 17386 H 1675.19 -6.03015 -2.58281 0
M  V30 17387 H 1675.1 -7.40373 -1.52916 0
M  V30 17388 H 1676.37 -7.30712 -2.7144 0
M  V30 17389 N 1680.6 -0.229873 -1.55915 0
M  V30 17390 C 1681.82 0.4072 -2.03363 0
M  V30 17391 C 1682.25 1.5197 -1.10845 0
M  V30 17392 O 1681.61 1.81034 -0.098175 0
M  V30 17393 C 1681.66 0.908268 -3.48974 0
M  V30 17394 O 1680.76 2.01907 -3.59593 0
M  V30 17395 H 1680.1 0.091091 -0.657722 0
M  V30 17396 H 1682.63 -0.350947 -2.01568 0
M  V30 17397 H 1682.64 1.21593 -3.8946 0
M  V30 17398 H 1681.32 0.0940655 -4.15794 0
M  V30 17399 H 1679.89 1.71741 -3.30998 0
M  V30 17400 N 1682.08 1.5754 0.0434337 0
M  V30 17401 C 1683.01 2.00964 1.08114 0
M  V30 17402 C 1683.99 0.891404 1.35988 0
M  V30 17403 O 1685.17 1.15607 1.48887 0
M  V30 17404 C 1682.3 2.3705 2.41919 0
M  V30 17405 C 1681.35 3.59171 2.29996 0
M  V30 17406 S 1682.18 5.08892 1.66702 0
M  V30 17407 C 1683.33 5.48206 3.02028 0
M  V30 17408 H 1683.57 2.88668 0.711202 0
M  V30 17409 H 1681.1 1.52314 0.25294 0
M  V30 17410 H 1683.06 2.58513 3.18875 0
M  V30 17411 H 1681.72 1.49824 2.76064 0
M  V30 17412 H 1680.91 3.82029 3.28739 0
M  V30 17413 H 1680.51 3.37486 1.61181 0
M  V30 17414 H 1682.81 5.48012 3.98358 0
M  V30 17415 H 1683.75 6.48688 2.83919 0
M  V30 17416 H 1684.16 4.7569 3.03939 0
M  V30 17417 N 1683.56 -0.31543 1.54411 0
M  V30 17418 C 1684.8 -1.05396 1.73261 0
M  V30 17419 C 1685.13 -1.87406 0.509171 0
M  V30 17420 O 1684.41 -1.88126 -0.493836 0
M  V30 17421 C 1684.69 -1.97195 3.01308 0
M  V30 17422 C 1684.55 -1.18461 4.33921 0
M  V30 17423 C 1685.86 -2.96594 3.25146 0
M  V30 17424 H 1682.98 -0.381763 0.630417 0
M  V30 17425 H 1685.63 -0.329882 1.87114 0
M  V30 17426 H 1683.78 -2.58936 2.89628 0
M  V30 17427 H 1685.45 -0.591171 4.57496 0
M  V30 17428 H 1683.69 -0.487025 4.31057 0
M  V30 17429 H 1684.36 -1.85909 5.19752 0
M  V30 17430 H 1686.84 -2.44977 3.36341 0
M  V30 17431 H 1685.71 -3.58002 4.16084 0
M  V30 17432 H 1685.97 -3.69487 2.42758 0
M  V30 17433 N 1685.03 -1.46622 -0.577906 0
M  V30 17434 C 1686.28 -1.51446 -1.33218 0
M  V30 17435 C 1686.6 -0.17258 -1.94837 0
M  V30 17436 O 1687.8 -0.0986578 -2.71321 0
M  V30 17437 C 1686.26 -2.66876 -2.41465 0
M  V30 17438 C 1685.87 -4.07506 -1.86127 0
M  V30 17439 C 1687.61 -2.80975 -3.18203 0
M  V30 17440 C 1685.52 -5.14268 -2.92031 0
M  V30 17441 H 1684.45 -0.563643 -0.500822 0
M  V30 17442 H 1687.1 -1.72845 -0.616186 0
M  V30 17443 H 1685.48 -2.38816 -3.15884 0
M  V30 17444 H 1686.65 -4.45378 -1.18218 0
M  V30 17445 H 1684.97 -3.98115 -1.2204 0
M  V30 17446 H 1687.57 -3.57906 -3.97249 0
M  V30 17447 H 1687.91 -1.88665 -3.71095 0
M  V30 17448 H 1688.44 -3.08705 -2.50891 0
M  V30 17449 H 1685.18 -6.08386 -2.44021 0
M  V30 17450 H 1684.7 -4.80936 -3.58414 0
M  V30 17451 H 1686.38 -5.40321 -3.55896 0
M  V30 17452 N 1686.51 0.822941 -1.34408 0
M  V30 17453 C 1687.44 1.94878 -1.28627 0
M  V30 17454 C 1688.42 1.6931 -0.163727 0
M  V30 17455 O 1689.61 1.90908 -0.356083 0
M  V30 17456 C 1686.74 3.31333 -1.04094 0
M  V30 17457 C 1685.69 3.71341 -2.12814 0
M  V30 17458 C 1685.02 5.05779 -1.73469 0
M  V30 17459 C 1686.32 3.83439 -3.54643 0
M  V30 17460 H 1688.01 1.99972 -2.22827 0
M  V30 17461 H 1685.56 0.960715 -1.07267 0
M  V30 17462 H 1687.51 4.0968 -0.986947 0
M  V30 17463 H 1686.24 3.26539 -0.0633642 0
M  V30 17464 H 1684.89 2.95269 -2.17282 0
M  V30 17465 H 1684.54 4.97471 -0.743727 0
M  V30 17466 H 1684.24 5.33518 -2.46236 0
M  V30 17467 H 1685.77 5.86583 -1.69566 0
M  V30 17468 H 1687.18 4.52057 -3.52587 0
M  V30 17469 H 1685.58 4.22632 -4.2603 0
M  V30 17470 H 1686.65 2.85439 -3.91986 0
M  V30 17471 N 1687.99 1.18137 1.04314 0
M  V30 17472 C 1689.22 1.00002 1.81128 0
M  V30 17473 C 1689.63 -0.451609 1.83319 0
M  V30 17474 O 1688.99 -1.31367 1.26685 0
M  V30 17475 C 1689.04 1.54454 3.26843 0
M  V30 17476 O 1688.76 2.93933 3.24861 0
M  V30 17477 C 1690.26 1.40902 4.20311 0
M  V30 17478 H 1687.48 0.35327 0.570475 0
M  V30 17479 H 1690.03 1.56629 1.31482 0
M  V30 17480 H 1688.18 1.02009 3.73728 0
M  V30 17481 H 1688.6 3.19279 4.16127 0
M  V30 17482 H 1690.07 1.83803 5.205 0
M  V30 17483 H 1690.55 0.357371 4.37744 0
M  V30 17484 H 1691.15 1.92407 3.79288 0
M  V30 17485 N 1689.47 -1.23186 0.98301 0
M  V30 17486 C 1690.69 -1.96242 0.671114 0
M  V30 17487 C 1691.12 -1.72248 -0.755792 0
M  V30 17488 O 1690.48 -0.995555 -1.5152 0
M  V30 17489 C 1690.52 -3.47293 0.970571 0
M  V30 17490 O 1689.63 -4.1235 0.0639814 0
M  V30 17491 H 1688.97 -0.614262 0.252147 0
M  V30 17492 H 1691.5 -1.56551 1.31731 0
M  V30 17493 H 1691.51 -3.9776 0.908345 0
M  V30 17494 H 1690.18 -3.64083 2.01039 0
M  V30 17495 H 1688.76 -3.72461 0.180842 0
M  V30 17496 N 1690.95 -0.754982 -1.38339 0
M  V30 17497 C 1692.17 -0.321355 -2.04895 0
M  V30 17498 C 1692.6 1.04249 -1.56569 0
M  V30 17499 O 1691.95 1.66464 -0.718299 0
M  V30 17500 C 1692 -0.354873 -3.5885 0
M  V30 17501 O 1691.11 0.65063 -4.07235 0
M  V30 17502 H 1690.45 -0.142033 -0.648631 0
M  V30 17503 H 1692.98 -1.02649 -1.76987 0
M  V30 17504 H 1692.99 -0.206243 -4.07478 0
M  V30 17505 H 1691.66 -1.34994 -3.93382 0
M  V30 17506 H 1690.24 0.466498 -3.69971 0
M  V30 17507 N 1692.42 1.49318 -0.504168 0
M  V30 17508 C 1693.67 2.02762 0.0392846 0
M  V30 17509 C 1694 1.38282 1.36352 0
M  V30 17510 O 1693.28 0.519587 1.87431 0
M  V30 17511 C 1693.56 3.59606 0.188507 0
M  V30 17512 C 1693.41 4.3461 -1.15908 0
M  V30 17513 C 1694.73 4.30213 0.927641 0
M  V30 17514 H 1691.85 0.736889 0.0128028 0
M  V30 17515 H 1694.49 1.78309 -0.656193 0
M  V30 17516 H 1692.64 3.80572 0.780861 0
M  V30 17517 H 1694.32 4.25132 -1.79055 0
M  V30 17518 H 1692.56 3.97043 -1.74756 0
M  V30 17519 H 1693.23 5.4272 -1.00794 0
M  V30 17520 H 1695.71 4.13922 0.425228 0
M  V30 17521 H 1694.58 5.39697 1.0009 0
M  V30 17522 H 1694.84 3.95678 1.97209 0
M  V30 17523 N 1693.9 0.238138 1.5579 0
M  V30 17524 C 1695.13 -0.393422 2.03125 0
M  V30 17525 C 1695.55 -1.52168 1.11761 0
M  V30 17526 O 1694.9 -1.82034 0.130341 0
M  V30 17527 C 1694.95 -0.909474 3.49873 0
M  V30 17528 O 1694.67 0.17381 4.37755 0
M  V30 17529 C 1696.18 -1.61261 4.12928 0
M  V30 17530 H 1693.4 -0.0945077 0.664311 0
M  V30 17531 H 1695.94 0.359442 2.01316 0
M  V30 17532 H 1694.09 -1.61255 3.52244 0
M  V30 17533 H 1694.51 -0.216641 5.24052 0
M  V30 17534 H 1695.98 -1.92551 5.17328 0
M  V30 17535 H 1696.46 -2.53155 3.589 0
M  V30 17536 H 1697.07 -0.954326 4.14455 0
M  V30 17537 N 1695.38 -1.57561 -0.0350783 0
M  V30 17538 C 1696.34 -2.05145 -1.02217 0
M  V30 17539 C 1697.34 -0.954524 -1.29404 0
M  V30 17540 O 1698.53 -1.21833 -1.24509 0
M  V30 17541 C 1695.67 -2.4633 -2.35658 0
M  V30 17542 H 1696.86 -2.93605 -0.61126 0
M  V30 17543 H 1694.41 -1.53739 -0.28176 0
M  V30 17544 H 1695.15 -1.61008 -2.81508 0
M  V30 17545 H 1694.93 -3.26408 -2.17256 0
M  V30 17546 H 1696.42 -2.83592 -3.06537 0
M  V30 17547 N 1696.86 0.307236 -1.54576 0
M  V30 17548 C 1698.11 1.04115 -1.73218 0
M  V30 17549 C 1698.43 1.88008 -0.517482 0
M  V30 17550 O 1697.7 1.90219 0.468336 0
M  V30 17551 H 1696.28 0.387388 -0.638701 0
M  V30 17552 H 1698.94 0.339727 -1.91916 0
M  V30 17553 H 1698.04 1.69784 -2.61877 0
M  V30 17554 N 1698.34 1.46926 0.570122 0
M  V30 17555 C 1699.56 1.5648 1.35358 0
M  V30 17556 C 1699.98 0.210356 1.87624 0
M  V30 17557 O 1699.34 -0.794388 1.64304 0
M  V30 17558 C 1699.39 2.57973 2.53243 0
M  V30 17559 O 1699.11 3.88157 2.03139 0
M  V30 17560 C 1700.61 2.77587 3.4563 0
M  V30 17561 H 1697.83 0.528787 0.413068 0
M  V30 17562 H 1700.37 1.9244 0.691895 0
M  V30 17563 H 1698.53 2.24982 3.15375 0
M  V30 17564 H 1698.94 4.43506 2.80004 0
M  V30 17565 H 1700.42 3.52495 4.24795 0
M  V30 17566 H 1700.89 1.84944 3.98362 0
M  V30 17567 H 1701.5 3.11724 2.89324 0
M  V30 17568 N 1699.82 -0.815801 1.34842 0
M  V30 17569 C 1700.78 -1.90871 1.2689 0
M  V30 17570 C 1701.78 -1.59762 0.182445 0
M  V30 17571 O 1702.97 -1.68667 0.435543 0
M  V30 17572 C 1700.1 -3.27081 0.960774 0
M  V30 17573 H 1701.29 -1.99343 2.24059 0
M  V30 17574 H 1698.85 -1.0106 1.19233 0
M  V30 17575 H 1699.58 -3.24299 -0.00744059 0
M  V30 17576 H 1699.37 -3.51045 1.74671 0
M  V30 17577 H 1700.86 -4.07101 0.930494 0
M  V30 17578 N 1701.29 -1.18689 -1.03686 0
M  V30 17579 C 1702.2 -0.932473 -2.15272 0
M  V30 17580 C 1703.22 0.104751 -1.73684 0
M  V30 17581 O 1704.4 -0.0780471 -2.01249 0
M  V30 17582 C 1701.46 -0.465807 -3.43557 0
M  V30 17583 C 1700.52 -1.57146 -3.99504 0
M  V30 17584 C 1699.75 -1.12696 -5.21666 0
M  V30 17585 O 1699.98 0.0127657 -5.70399 0
M  V30 17586 O 1698.91 -1.92627 -5.70244 0
M  V30 17587 H 1702.74 -1.86626 -2.39592 0
M  V30 17588 H 1700.32 -0.969029 -1.13711 0
M  V30 17589 H 1702.2 -0.213819 -4.20857 0
M  V30 17590 H 1700.88 0.43964 -3.20701 0
M  V30 17591 H 1699.79 -1.8775 -3.23575 0
M  V30 17592 H 1701.12 -2.45317 -4.26709 0
M  V30 17593 N 1702.77 1.22662 -0.989529 0
M  V30 17594 C 1703.68 2.28162 -0.545835 0
M  V30 17595 C 1704.7 1.69251 0.403762 0
M  V30 17596 O 1705.87 1.99563 0.271428 0
M  V30 17597 C 1702.94 3.46434 0.135808 0
M  V30 17598 C 1702 4.20673 -0.85633 0
M  V30 17599 C 1701.23 5.33298 -0.207121 0
M  V30 17600 O 1701.46 5.6157 0.99975 0
M  V30 17601 O 1700.39 5.94977 -0.910288 0
M  V30 17602 H 1704.22 2.68276 -1.42344 0
M  V30 17603 H 1701.8 1.28766 -0.757609 0
M  V30 17604 H 1703.68 4.18207 0.517776 0
M  V30 17605 H 1702.36 3.08252 0.988035 0
M  V30 17606 H 1701.26 3.51186 -1.28917 0
M  V30 17607 H 1702.6 4.62726 -1.67765 0
M  V30 17608 N 1704.25 0.762308 1.37937 0
M  V30 17609 C 1705.5 0.322369 1.99918 0
M  V30 17610 C 1705.82 -1.09843 1.60514 0
M  V30 17611 O 1705.08 -1.76837 0.83829 0
M  V30 17612 C 1705.38 0.402558 3.55126 0
M  V30 17613 C 1705.04 1.78025 4.14268 0
M  V30 17614 C 1703.71 2.15727 4.30134 0
M  V30 17615 C 1706.06 2.68359 4.46803 0
M  V30 17616 C 1703.39 3.43217 4.75835 0
M  V30 17617 C 1705.74 3.95248 4.93925 0
M  V30 17618 C 1704.4 4.33007 5.07997 0
M  V30 17619 H 1703.67 0.117963 0.73155 0
M  V30 17620 H 1706.32 0.974491 1.64851 0
M  V30 17621 H 1704.62 -0.333119 3.90381 0
M  V30 17622 H 1706.32 0.0436064 4.00976 0
M  V30 17623 H 1702.91 1.4772 4.02339 0
M  V30 17624 H 1707.1 2.40493 4.34139 0
M  V30 17625 H 1702.35 3.72379 4.84916 0
M  V30 17626 H 1706.53 4.6538 5.18068 0
M  V30 17627 H 1704.15 5.31856 5.4317 0
M  V30 17628 N 1705.73 -1.49049 0.51208 0
M  V30 17629 C 1706.96 -2.06885 -0.0249703 0
M  V30 17630 C 1707.37 -1.371 -1.29804 0
M  V30 17631 O 1706.73 -0.452798 -1.76794 0
M  V30 17632 C 1706.78 -3.60482 -0.27112 0
M  V30 17633 O 1706.5 -4.27643 0.951493 0
M  V30 17634 C 1708 -4.35063 -0.850568 0
M  V30 17635 H 1705.22 -0.670517 0.0254456 0
M  V30 17636 H 1707.76 -1.91682 0.712607 0
M  V30 17637 H 1705.92 -3.7535 -0.958702 0
M  V30 17638 H 1706.33 -5.19519 0.721156 0
M  V30 17639 H 1707.81 -5.43369 -0.972322 0
M  V30 17640 H 1708.28 -3.98285 -1.85111 0
M  V30 17641 H 1708.89 -4.24829 -0.200111 0
M  V30 17642 N 1707.21 -0.246397 -1.55662 0
M  V30 17643 C 1708.44 0.38209 -2.03036 0
M  V30 17644 C 1708.84 1.52119 -1.12501 0
M  V30 17645 O 1708.19 1.83227 -0.131753 0
M  V30 17646 C 1708.25 0.952012 -3.46666 0
M  V30 17647 C 1707.91 -0.0547805 -4.56967 0
M  V30 17648 C 1708.91 -0.864138 -5.12668 0
M  V30 17649 C 1706.59 -0.180725 -5.01975 0
M  V30 17650 C 1708.59 -1.7859 -6.1187 0
M  V30 17651 C 1706.28 -1.106 -6.01008 0
M  V30 17652 C 1707.27 -1.90711 -6.55834 0
M  V30 17653 O 1706.96 -2.81678 -7.52936 0
M  V30 17654 H 1706.69 0.095009 -0.66929 0
M  V30 17655 H 1709.25 -0.367701 -2.02082 0
M  V30 17656 H 1707.48 1.75136 -3.44767 0
M  V30 17657 H 1709.17 1.49052 -3.77542 0
M  V30 17658 H 1709.93 -0.77742 -4.78729 0
M  V30 17659 H 1705.81 0.432761 -4.58964 0
M  V30 17660 H 1709.36 -2.41162 -6.54589 0
M  V30 17661 H 1705.25 -1.19364 -6.34368 0
M  V30 17662 H 1706.02 -2.76034 -7.7055 0
M  V30 17663 N 1708.68 1.57577 0.026722 0
M  V30 17664 C 1709.93 1.8856 0.716115 0
M  V30 17665 C 1710.25 0.845223 1.76395 0
M  V30 17666 O 1711.45 1.04435 2.5061 0
M  V30 17667 C 1709.91 3.34631 1.32476 0
M  V30 17668 C 1709.52 4.46904 0.313149 0
M  V30 17669 C 1711.26 3.74759 1.9939 0
M  V30 17670 C 1709.17 5.84038 0.930274 0
M  V30 17671 H 1708.1 0.703531 0.271221 0
M  V30 17672 H 1710.75 1.83476 -0.0294388 0
M  V30 17673 H 1709.13 3.34466 2.1201 0
M  V30 17674 H 1710.3 4.58542 -0.455647 0
M  V30 17675 H 1708.62 4.15624 -0.254028 0
M  V30 17676 H 1711.22 4.74534 2.46418 0
M  V30 17677 H 1711.56 3.06875 2.81307 0
M  V30 17678 H 1712.09 3.77108 1.26628 0
M  V30 17679 H 1708.83 6.55327 0.150466 0
M  V30 17680 H 1708.35 5.76116 1.66886 0
M  V30 17681 H 1710.03 6.30842 1.43692 0
M  V30 17682 N 1710.16 -0.299034 1.54737 0
M  V30 17683 C 1711.09 -1.39354 1.80709 0
M  V30 17684 C 1712.07 -1.48673 0.658407 0
M  V30 17685 O 1713.26 -1.65704 0.898578 0
M  V30 17686 C 1710.38 -2.77246 1.94556 0
M  V30 17687 C 1709.43 -2.8534 3.16991 0
M  V30 17688 S 1710.26 -2.47235 4.7501 0
M  V30 17689 C 1711.42 -3.87152 4.91796 0
M  V30 17690 H 1711.65 -1.17114 2.73261 0
M  V30 17691 H 1709.18 -0.497254 1.46174 0
M  V30 17692 H 1711.14 -3.56668 2.03219 0
M  V30 17693 H 1709.8 -2.96753 1.02939 0
M  V30 17694 H 1709 -3.86486 3.23488 0
M  V30 17695 H 1708.6 -2.13915 3.06784 0
M  V30 17696 H 1710.89 -4.8217 4.7594 0
M  V30 17697 H 1711.83 -3.85624 5.93885 0
M  V30 17698 H 1712.24 -3.77246 4.19935 0
M  V30 17699 N 1711.64 -1.47227 -0.562322 0
M  V30 17700 C 1712.59 -1.59329 -1.66981 0
M  V30 17701 C 1713.56 -0.436558 -1.6026 0
M  V30 17702 O 1714.74 -0.655956 -1.7917 0
M  V30 17703 C 1711.88 -1.60874 -3.05309 0
M  V30 17704 C 1710.99 -2.87428 -3.22505 0
M  V30 17705 C 1710.13 -2.80342 -4.512 0
M  V30 17706 C 1709.17 -4.01744 -4.6181 0
M  V30 17707 N 1708.31 -3.92924 -5.81855 0
M  V30 17708 H 1713.15 -2.53921 -1.55975 0
M  V30 17709 H 1710.68 -1.25953 -0.759879 0
M  V30 17710 H 1712.64 -1.59753 -3.85402 0
M  V30 17711 H 1711.27 -0.697994 -3.15163 0
M  V30 17712 H 1710.32 -2.98439 -2.35878 0
M  V30 17713 H 1711.63 -3.77345 -3.26209 0
M  V30 17714 H 1710.79 -2.77442 -5.39547 0
M  V30 17715 H 1709.53 -1.881 -4.49966 0
M  V30 17716 H 1708.53 -4.04954 -3.71877 0
M  V30 17717 H 1709.76 -4.95107 -4.64807 0
M  V30 17718 H 1707.7 -3.03481 -5.8158 0
M  V30 17719 H 1707.62 -4.76514 -5.86916 0
M  V30 17720 H 1708.89 -3.94031 -6.72577 0
M  V30 17721 N 1713.12 0.808639 -1.35273 0
M  V30 17722 C 1714.53 1.10389 -1.15267 0
M  V30 17723 C 1714.73 2.01467 0.0362501 0
M  V30 17724 O 1713.79 2.42386 0.707477 0
M  V30 17725 C 1715.1 1.73685 -2.45467 0
M  V30 17726 C 1716.65 1.86115 -2.51655 0
M  V30 17727 C 1717.13 2.52826 -3.81894 0
M  V30 17728 N 1718.62 2.60313 -3.83134 0
M  V30 17729 C 1719.35 3.12694 -4.80635 0
M  V30 17730 N 1718.85 3.6553 -5.88523 0
M  V30 17731 N 1720.64 3.11228 -4.68074 0
M  V30 17732 H 1712.79 0.203141 -2.11426 0
M  V30 17733 H 1715.05 0.152706 -0.93562 0
M  V30 17734 H 1714.76 1.14228 -3.32633 0
M  V30 17735 H 1714.63 2.73406 -2.59864 0
M  V30 17736 H 1717.02 2.44715 -1.64919 0
M  V30 17737 H 1717.1 0.852547 -2.41175 0
M  V30 17738 H 1716.75 1.94875 -4.69027 0
M  V30 17739 H 1716.68 3.54219 -3.89662 0
M  V30 17740 H 1719.17 2.22878 -3.05178 0
M  V30 17741 H 1719.48 4.03793 -6.58917 0
M  V30 17742 H 1717.83 3.63734 -5.92218 0
M  V30 17743 H 1721.02 2.69228 -3.82928 0
M  V30 17744 H 1721.19 3.51745 -5.44224 0
M  V30 17745 N 1714.6 1.19237 1.03055 0
M  V30 17746 C 1715.53 0.95226 2.132 0
M  V30 17747 C 1716.51 -0.113771 1.69719 0
M  V30 17748 O 1717.69 0.0409057 1.94157 0
M  V30 17749 C 1714.82 0.488296 3.4385 0
M  V30 17750 C 1713.78 1.49597 4.01005 0
M  V30 17751 C 1713.1 0.889148 5.27255 0
M  V30 17752 C 1714.4 2.87571 4.36005 0
M  V30 17753 H 1716.1 1.87343 2.33544 0
M  V30 17754 H 1713.64 0.902172 1.12236 0
M  V30 17755 H 1715.6 0.307623 4.20276 0
M  V30 17756 H 1714.32 -0.468469 3.23223 0
M  V30 17757 H 1712.98 1.66376 3.26672 0
M  V30 17758 H 1712.63 -0.0751191 5.02944 0
M  V30 17759 H 1712.33 1.56202 5.66458 0
M  V30 17760 H 1713.85 0.719233 6.06349 0
M  V30 17761 H 1715.26 2.74384 5.03375 0
M  V30 17762 H 1713.66 3.51635 4.86285 0
M  V30 17763 H 1714.73 3.40353 3.45381 0
M  V30 17764 N 1716.07 -1.22136 0.99602 0
M  V30 17765 C 1717.32 -1.9059 0.672303 0
M  V30 17766 C 1717.64 -1.77903 -0.798476 0
M  V30 17767 O 1716.91 -1.1682 -1.57257 0
M  V30 17768 H 1715.49 -0.705445 0.245676 0
M  V30 17769 H 1718.16 -1.48423 1.2632 0
M  V30 17770 H 1717.25 -2.97684 0.937577 0
M  V30 17771 N 1717.55 -0.769612 -1.37531 0
M  V30 17772 C 1718.97 -0.449 -1.53154 0
M  V30 17773 C 1719.17 1.03568 -1.72847 0
M  V30 17774 O 1718.22 1.82154 -1.74861 0
M  V30 17775 C 1719.54 -1.26221 -2.72926 0
M  V30 17776 C 1721.09 -1.2539 -2.86786 0
M  V30 17777 C 1721.56 -2.05041 -4.09539 0
M  V30 17778 N 1723.05 -2.02384 -4.16647 0
M  V30 17779 C 1723.79 -2.60798 -5.10658 0
M  V30 17780 N 1723.28 -3.27991 -6.10241 0
M  V30 17781 N 1725.08 -2.5064 -5.03126 0
M  V30 17782 H 1717.23 -1.73161 -1.23 0
M  V30 17783 H 1719.49 -0.734977 -0.598759 0
M  V30 17784 H 1719.2 -2.31423 -2.64832 0
M  V30 17785 H 1719.07 -0.889937 -3.66551 0
M  V30 17786 H 1721.46 -0.209869 -2.94353 0
M  V30 17787 H 1721.54 -1.6658 -1.94126 0
M  V30 17788 H 1721.18 -3.09464 -4.02734 0
M  V30 17789 H 1721.11 -1.61234 -5.01309 0
M  V30 17790 H 1723.6 -1.53464 -3.45337 0
M  V30 17791 H 1723.92 -3.69942 -6.785 0
M  V30 17792 H 1722.26 -3.32089 -6.10526 0
M  V30 17793 H 1725.45 -1.97762 -4.24273 0
M  V30 17794 H 1725.62 -2.96458 -5.76209 0
M  V30 17795 N 1719.03 1.48775 -0.519977 0
M  V30 17796 C 1719.99 2.27967 0.237405 0
M  V30 17797 C 1720.99 1.34787 0.876868 0
M  V30 17798 O 1722.18 1.57773 0.738463 0
M  V30 17799 C 1719.32 3.13353 1.34248 0
M  V30 17800 H 1720.51 2.96386 -0.457753 0
M  V30 17801 H 1718.06 1.53852 -0.275569 0
M  V30 17802 H 1718.8 2.49543 2.0712 0
M  V30 17803 H 1718.58 3.81885 0.889187 0
M  V30 17804 H 1720.07 3.73116 1.87547 0
M  V30 17805 N 1720.51 0.254649 1.55529 0
M  V30 17806 C 1721.44 -0.635656 2.24681 0
M  V30 17807 C 1722.42 -1.17519 1.22977 0
M  V30 17808 O 1723.6 -1.21311 1.51649 0
M  V30 17809 C 1720.73 -1.82922 2.95224 0
M  V30 17810 C 1719.69 -1.42212 4.03683 0
M  V30 17811 C 1719.01 -2.69713 4.61691 0
M  V30 17812 C 1720.31 -0.587436 5.18986 0
M  V30 17813 H 1722.01 -0.0590063 2.99342 0
M  V30 17814 H 1719.55 -0.02694 1.43975 0
M  V30 17815 H 1721.51 -2.45777 3.42304 0
M  V30 17816 H 1720.23 -2.43137 2.18064 0
M  V30 17817 H 1718.89 -0.81687 3.57383 0
M  V30 17818 H 1718.54 -3.28143 3.81223 0
M  V30 17819 H 1718.24 -2.43194 5.34911 0
M  V30 17820 H 1719.76 -3.33453 5.11509 0
M  V30 17821 H 1721.18 -1.12048 5.62244 0
M  V30 17822 H 1719.57 -0.417988 5.98643 0
M  V30 17823 H 1720.64 0.398577 4.83259 0
M  V30 17824 N 1721.99 -1.57589 -0.0183649 0
M  V30 17825 C 1723.23 -1.90038 -0.708056 0
M  V30 17826 C 1723.57 -0.853686 -1.7443 0
M  V30 17827 O 1722.84 0.12994 -1.94065 0
M  V30 17828 C 1723.12 -3.33107 -1.3679 0
M  V30 17829 C 1722.98 -4.48479 -0.344448 0
M  V30 17830 C 1724.3 -3.75276 -2.29904 0
M  V30 17831 H 1721.41 -0.691134 -0.255934 0
M  V30 17832 H 1724.06 -1.89978 0.0291579 0
M  V30 17833 H 1722.21 -3.33289 -1.99626 0
M  V30 17834 H 1723.88 -4.60432 0.282816 0
M  V30 17835 H 1722.12 -4.32503 0.335196 0
M  V30 17836 H 1722.79 -5.45497 -0.844832 0
M  V30 17837 H 1725.27 -3.76529 -1.77103 0
M  V30 17838 H 1724.14 -4.76168 -2.73049 0
M  V30 17839 H 1724.41 -3.08124 -3.17036 0
M  V30 17840 N 1723.46 0.290824 -1.54893 0
M  V30 17841 C 1724.71 1.02244 -1.73865 0
M  V30 17842 C 1725.03 1.88079 -0.537166 0
M  V30 17843 O 1726.23 2.64584 -0.608908 0
M  V30 17844 C 1724.69 1.86762 -3.07649 0
M  V30 17845 C 1724.3 1.0588 -4.35308 0
M  V30 17846 C 1726.04 2.59461 -3.35976 0
M  V30 17847 C 1723.95 1.89734 -5.60138 0
M  V30 17848 H 1722.88 0.385455 -0.648028 0
M  V30 17849 H 1725.53 0.27893 -1.81368 0
M  V30 17850 H 1723.91 2.6514 -2.94137 0
M  V30 17851 H 1725.08 0.320443 -4.59684 0
M  V30 17852 H 1723.4 0.447169 -4.13992 0
M  V30 17853 H 1726 3.22569 -4.26442 0
M  V30 17854 H 1726.34 3.28823 -2.55306 0
M  V30 17855 H 1726.87 1.88126 -3.50505 0
M  V30 17856 H 1723.61 1.24825 -6.43505 0
M  V30 17857 H 1723.13 2.61215 -5.39932 0
M  V30 17858 H 1724.81 2.47535 -5.97775 0
M  V30 17859 N 1724.94 1.47523 0.554506 0
M  V30 17860 C 1726.19 1.53982 1.30897 0
M  V30 17861 C 1726.51 0.20487 1.93921 0
M  V30 17862 O 1725.78 -0.771422 1.80072 0
M  V30 17863 H 1724.36 0.567206 0.486092 0
M  V30 17864 H 1727.02 1.83838 0.647284 0
M  V30 17865 H 1726.12 2.30783 2.10109 0
M  V30 17866 N 1726.42 -0.801453 1.357 0
M  V30 17867 C 1727.33 -1.94505 1.31167 0
M  V30 17868 C 1728.35 -1.72657 0.215747 0
M  V30 17869 O 1729.52 -1.96399 0.446022 0
M  V30 17870 C 1726.59 -3.29175 1.08834 0
M  V30 17871 C 1725.65 -3.63883 2.27788 0
M  V30 17872 C 1724.88 -4.92127 2.06511 0
M  V30 17873 O 1725.1 -5.60947 1.03416 0
M  V30 17874 O 1724.04 -5.25213 2.93998 0
M  V30 17875 H 1727.86 -2.01277 2.27423 0
M  V30 17876 H 1725.45 -0.939979 1.16124 0
M  V30 17877 H 1727.33 -4.09787 0.98248 0
M  V30 17878 H 1726.01 -3.23322 0.156326 0
M  V30 17879 H 1724.91 -2.83627 2.4394 0
M  V30 17880 H 1726.25 -3.74446 3.19454 0
M  V30 17881 N 1727.9 -1.19782 -1.02421 0
M  V30 17882 C 1729.14 -1.0048 -1.76158 0
M  V30 17883 C 1729.48 0.46281 -1.88605 0
M  V30 17884 O 1728.75 1.34366 -1.40628 0
M  V30 17885 C 1729.04 -1.67999 -3.1851 0
M  V30 17886 C 1728.89 -3.22155 -3.13905 0
M  V30 17887 C 1730.21 -1.40681 -4.17009 0
M  V30 17888 H 1727.33 -0.366436 -0.639448 0
M  V30 17889 H 1729.97 -1.47688 -1.19534 0
M  V30 17890 H 1728.12 -1.27862 -3.66856 0
M  V30 17891 H 1729.79 -3.71536 -2.7342 0
M  V30 17892 H 1728.03 -3.53456 -2.51498 0
M  V30 17893 H 1728.7 -3.64548 -4.14498 0
M  V30 17894 H 1731.18 -1.75488 -3.77284 0
M  V30 17895 H 1730.06 -1.90467 -5.14795 0
M  V30 17896 H 1730.32 -0.332889 -4.40845 0
M  V30 17897 N 1729.38 1.21606 -1.00248 0
M  V30 17898 C 1730.61 1.94609 -0.702502 0
M  V30 17899 C 1731.02 1.73928 0.734483 0
M  V30 17900 O 1730.38 1.04432 1.49667 0
M  V30 17901 C 1730.43 3.47077 -1.01092 0
M  V30 17902 O 1730.15 3.67071 -2.39145 0
M  V30 17903 C 1731.65 4.37248 -0.729988 0
M  V30 17904 H 1728.87 0.618962 -0.259088 0
M  V30 17905 H 1731.41 1.54494 -1.33985 0
M  V30 17906 H 1729.57 3.85125 -0.419215 0
M  V30 17907 H 1729.98 4.61188 -2.49811 0
M  V30 17908 H 1731.46 5.4294 -0.99598 0
M  V30 17909 H 1731.93 4.37913 0.33599 0
M  V30 17910 H 1732.54 4.04842 -1.30318 0
M  V30 17911 N 1730.86 0.776895 1.37121 0
M  V30 17912 C 1732.08 0.353911 2.04358 0
M  V30 17913 C 1732.51 -1.01745 1.58207 0
M  V30 17914 O 1731.86 -1.653 0.744691 0
M  V30 17915 C 1731.91 0.411918 3.5824 0
M  V30 17916 O 1731.02 -0.58576 4.08219 0
M  V30 17917 H 1730.36 0.152335 0.64629 0
M  V30 17918 H 1732.89 1.05452 1.75331 0
M  V30 17919 H 1732.9 0.271043 4.07099 0
M  V30 17920 H 1731.57 1.41236 3.91185 0
M  V30 17921 H 1730.15 -0.40758 3.70666 0
M  V30 17922 N 1732.33 -1.48497 0.527859 0
M  V30 17923 C 1733.58 -2.02099 -0.00699772 0
M  V30 17924 C 1733.9 -1.40742 -1.34969 0
M  V30 17925 O 1733.17 -0.572059 -1.87361 0
M  V30 17926 H 1731.75 -0.746979 -0.00557445 0
M  V30 17927 H 1734.41 -1.82231 0.691209 0
M  V30 17928 H 1733.51 -3.11881 -0.116893 0
M  V30 17929 N 1733.81 -0.262893 -1.55392 0
M  V30 17930 C 1735.06 0.35666 -1.98928 0
M  V30 17931 C 1735.38 1.5729 -1.1526 0
M  V30 17932 O 1734.65 1.94435 -0.239164 0
M  V30 17933 H 1733.23 0.134768 -0.734742 0
M  V30 17934 H 1735.89 -0.365394 -1.91444 0
M  V30 17935 H 1734.99 0.654895 -3.05152 0
M  V30 17936 N 1735.29 1.57597 0.0100073 0
M  V30 17937 C 1736.53 1.91983 0.701555 0
M  V30 17938 C 1736.89 0.863453 1.71489 0
M  V30 17939 O 1738.09 1.09225 2.45608 0
M  V30 17940 C 1736.37 3.31459 1.33678 0
M  V30 17941 S 1737.92 3.87714 2.05484 0
M  V30 17942 H 1734.74 0.672093 0.231975 0
M  V30 17943 H 1737.34 1.9545 -0.0442772 0
M  V30 17944 H 1736.05 4.06191 0.586295 0
M  V30 17945 H 1735.58 3.31342 2.12076 0
M  V30 17946 H 1737.59 3.6798 3.32874 0
M  V30 17947 N 1736.77 -0.282606 1.55045 0
M  V30 17948 C 1737.7 -1.37115 1.83663 0
M  V30 17949 C 1738.71 -1.45985 0.720563 0
M  V30 17950 O 1739.9 -1.47974 0.998294 0
M  V30 17951 C 1737 -2.7533 1.97603 0
M  V30 17952 C 1736.17 -2.89168 3.28177 0
M  V30 17953 C 1735.23 -4.07997 3.32302 0
M  V30 17954 O 1734.26 -3.9921 4.05734 0
M  V30 17955 N 1735.46 -5.19512 2.59013 0
M  V30 17956 H 1738.23 -1.12914 2.77616 0
M  V30 17957 H 1735.79 -0.472711 1.54845 0
M  V30 17958 H 1737.78 -3.531 1.97743 0
M  V30 17959 H 1736.35 -2.92396 1.1056 0
M  V30 17960 H 1735.57 -1.9836 3.40657 0
M  V30 17961 H 1736.86 -2.95338 4.1431 0
M  V30 17962 H 1736.26 -5.29536 1.99018 0
M  V30 17963 H 1734.81 -5.95549 2.64887 0
M  V30 17964 N 1738.25 -1.47815 -0.546675 0
M  V30 17965 C 1739.66 -1.48715 -1.12875 0
M  V30 17966 C 1740.01 -0.247647 -1.94631 0
M  V30 17967 O 1739.13 0.646615 -2.06514 0
M  V30 17968 C 1739.73 -2.69459 -2.05371 0
M  V30 17969 C 1738.29 -2.73285 -2.58829 0
M  V30 17970 C 1737.43 -2.4198 -1.35429 0
M  V30 17971 H 1740.38 -1.55172 -0.332746 0
M  V30 17972 H 1740.41 -2.47028 -2.89408 0
M  V30 17973 H 1739.92 -3.59656 -1.4584 0
M  V30 17974 H 1738.02 -1.87254 -3.22128 0
M  V30 17975 H 1738.13 -3.74265 -2.99103 0
M  V30 17976 H 1736.5 -1.92783 -1.66454 0
M  V30 17977 H 1737.28 -3.34397 -0.776753 0
M  V30 17978 N 1739.72 0.794246 -1.36123 0
M  V30 17979 C 1741.13 1.36909 -1.26936 0
M  V30 17980 C 1741.49 1.9598 0.0929337 0
M  V30 17981 O 1740.61 1.92206 0.994266 0
M  V30 17982 C 1741.21 2.48906 -2.2985 0
M  V30 17983 C 1739.76 3.0222 -2.24366 0
M  V30 17984 C 1738.91 1.75264 -2.1489 0
M  V30 17985 H 1741.86 0.596278 -1.47072 0
M  V30 17986 H 1741.88 3.27794 -1.93213 0
M  V30 17987 H 1741.4 2.05884 -3.28988 0
M  V30 17988 H 1739.5 3.49675 -1.28679 0
M  V30 17989 H 1739.61 3.59363 -3.16852 0
M  V30 17990 H 1737.97 1.97306 -1.61066 0
M  V30 17991 H 1738.76 1.34377 -3.15908 0
M  V30 17992 N 1741.2 1.20323 1.01785 0
M  V30 17993 C 1742.13 0.908716 2.10416 0
M  V30 17994 C 1743.15 -0.103029 1.62474 0
M  V30 17995 O 1744.34 0.127825 1.78042 0
M  V30 17996 C 1741.44 0.340601 3.37184 0
M  V30 17997 C 1740.61 1.40358 4.14268 0
M  V30 17998 C 1739.67 0.847016 5.19338 0
M  V30 17999 O 1738.69 1.5274 5.48324 0
M  V30 18000 N 1739.9 -0.344198 5.79479 0
M  V30 18001 H 1742.66 1.84383 2.36269 0
M  V30 18002 H 1740.22 1.10673 1.18165 0
M  V30 18003 H 1742.21 -0.0458443 4.04674 0
M  V30 18004 H 1740.78 -0.499042 3.08591 0
M  V30 18005 H 1740 1.96442 3.41766 0
M  V30 18006 H 1741.29 2.11952 4.62551 0
M  V30 18007 H 1740.69 -0.914263 5.58263 0
M  V30 18008 H 1739.25 -0.672296 6.48324 0
M  V30 18009 N 1742.68 -1.21073 1.00892 0
M  V30 18010 C 1743.91 -1.94233 0.712813 0
M  V30 18011 C 1744.32 -1.74315 -0.725249 0
M  V30 18012 O 1743.68 -1.05224 -1.49111 0
M  V30 18013 C 1743.73 -3.46536 1.02931 0
M  V30 18014 O 1743.45 -3.65798 2.41088 0
M  V30 18015 C 1744.95 -4.36855 0.753166 0
M  V30 18016 H 1742.17 -0.617579 0.262367 0
M  V30 18017 H 1744.72 -1.53781 1.34802 0
M  V30 18018 H 1742.87 -3.84897 0.439634 0
M  V30 18019 H 1743.29 -4.59857 2.52254 0
M  V30 18020 H 1744.76 -5.42405 1.02476 0
M  V30 18021 H 1745.24 -4.38085 -0.312761 0
M  V30 18022 H 1745.84 -4.04145 1.32464 0
M  V30 18023 N 1744.16 -0.784156 -1.36707 0
M  V30 18024 C 1745.39 -0.365371 -2.03344 0
M  V30 18025 C 1745.8 1.02133 -1.59266 0
M  V30 18026 O 1745.14 1.66547 -0.775098 0
M  V30 18027 C 1745.2 -0.343819 -3.57852 0
M  V30 18028 C 1744.87 -1.6772 -4.25111 0
M  V30 18029 C 1745.86 -2.63179 -4.48367 0
M  V30 18030 C 1743.55 -1.95505 -4.62691 0
M  V30 18031 C 1745.54 -3.84621 -5.08277 0
M  V30 18032 C 1743.23 -3.17215 -5.2232 0
M  V30 18033 C 1744.23 -4.11592 -5.45052 0
M  V30 18034 O 1743.91 -5.31157 -6.0343 0
M  V30 18035 H 1743.65 -0.14936 -0.659293 0
M  V30 18036 H 1746.2 -1.06269 -1.75772 0
M  V30 18037 H 1744.43 0.409964 -3.84521 0
M  V30 18038 H 1746.12 0.0495818 -4.0587 0
M  V30 18039 H 1746.89 -2.42998 -4.19735 0
M  V30 18040 H 1742.76 -1.22867 -4.44325 0
M  V30 18041 H 1746.31 -4.58298 -5.25936 0
M  V30 18042 H 1742.21 -3.37276 -5.50377 0
M  V30 18043 H 1742.97 -5.32149 -6.219 0
M  V30 18044 N 1745.64 1.48215 -0.535727 0
M  V30 18045 C 1746.59 2.26692 0.243856 0
M  V30 18046 C 1747.57 1.33054 0.904734 0
M  V30 18047 O 1748.76 1.57554 0.80659 0
M  V30 18048 C 1745.89 3.18278 1.28662 0
M  V30 18049 C 1744.98 4.19391 0.630241 0
M  V30 18050 N 1745.37 5.04983 -0.287346 0
M  V30 18051 C 1743.67 4.37096 0.886761 0
M  V30 18052 C 1744.37 5.77868 -0.666561 0
M  V30 18053 N 1743.34 5.43594 -0.0263142 0
M  V30 18054 H 1747.15 2.90247 -0.46197 0
M  V30 18055 H 1744.66 1.58491 -0.354153 0
M  V30 18056 H 1746.66 3.73164 1.85888 0
M  V30 18057 H 1745.32 2.5628 1.99376 0
M  V30 18058 H 1746.33 5.13674 -0.660285 0
M  V30 18059 H 1743 3.86283 1.58404 0
M  V30 18060 H 1744.39 6.56738 -1.4193 0
M  V30 18061 N 1747.11 0.27113 1.5525 0
M  V30 18062 C 1748.36 -0.347304 1.99804 0
M  V30 18063 C 1748.69 -1.55803 1.15928 0
M  V30 18064 O 1747.97 -1.93154 0.228386 0
M  V30 18065 C 1748.25 -0.733408 3.52552 0
M  V30 18066 C 1748.1 0.48438 4.47184 0
M  V30 18067 C 1749.42 -1.57136 4.11092 0
M  V30 18068 H 1746.54 -0.124762 0.726363 0
M  V30 18069 H 1749.18 0.37728 1.86217 0
M  V30 18070 H 1747.33 -1.35076 3.64262 0
M  V30 18071 H 1749.01 1.12293 4.47424 0
M  V30 18072 H 1747.25 1.12317 4.19008 0
M  V30 18073 H 1747.92 0.170525 5.51737 0
M  V30 18074 H 1750.4 -1.05001 4.02634 0
M  V30 18075 H 1749.27 -1.81033 5.18187 0
M  V30 18076 H 1749.53 -2.55111 3.61069 0
M  V30 18077 N 1748.59 -1.576 -0.00164943 0
M  V30 18078 C 1749.87 -1.81716 -0.723788 0
M  V30 18079 C 1750.25 -0.875694 -1.9208 0
M  V30 18080 O 1749.6 0.0759629 -2.28374 0
M  V30 18081 C 1749.81 -3.30164 -1.13106 0
M  V30 18082 C 1751.16 -3.95859 -1.5356 0
M  V30 18083 O 1752.18 -3.34477 -1.2249 0
M  V30 18084 O 1751.04 -5.03986 -2.1133 0
M  V30 18085 H 1748.13 -0.748213 -0.352287 0
M  V30 18086 H 1750.68 -1.69683 0.0236782 0
M  V30 18087 H 1749.45 -3.90313 -0.277771 0
M  V30 18088 H 1749.07 -3.47188 -1.93768 0
M  V30 18089 N 1750.07 0.274379 -1.55193 0
M  V30 18090 C 1751.35 1.02736 -1.66447 0
M  V30 18091 C 1751.73 2.04337 -0.530051 0
M  V30 18092 O 1751.08 2.23613 0.470058 0
M  V30 18093 C 1751.29 1.6854 -3.05606 0
M  V30 18094 C 1752.63 2.19754 -3.63309 0
M  V30 18095 O 1753.66 1.78529 -3.0823 0
M  V30 18096 O 1752.52 2.95364 -4.59807 0
M  V30 18097 H 1749.61 0.476462 -0.675953 0
M  V30 18098 H 1752.16 0.270347 -1.67533 0
M  V30 18099 H 1750.93 0.949086 -3.79616 0
M  V30 18100 H 1750.55 2.50931 -3.08414 0
M  V30 18101 N 1751.55 1.48103 0.538828 0
M  V30 18102 C 1752.78 1.59316 1.32008 0
M  V30 18103 C 1753.19 0.250107 1.87136 0
M  V30 18104 O 1752.55 -0.759358 1.65952 0
M  V30 18105 C 1752.6 2.63287 2.47714 0
M  V30 18106 O 1752.32 3.92379 1.9486 0
M  V30 18107 C 1753.82 2.84856 3.39664 0
M  V30 18108 H 1751.04 0.53743 0.401758 0
M  V30 18109 H 1753.59 1.93864 0.65092 0
M  V30 18110 H 1751.74 2.31621 3.10532 0
M  V30 18111 H 1752.15 4.49346 2.70534 0
M  V30 18112 H 1753.63 3.61426 4.17223 0
M  V30 18113 H 1754.11 1.93352 3.9435 0
M  V30 18114 H 1754.71 3.17791 2.82647 0
M  V30 18115 N 1753.03 -0.787016 1.36542 0
M  V30 18116 C 1753.97 -1.92115 1.31128 0
M  V30 18117 C 1754.97 -1.68183 0.202656 0
M  V30 18118 O 1756.17 -1.7616 0.369802 0
M  V30 18119 H 1752.55 -0.631514 0.408281 0
M  V30 18120 H 1754.52 -1.938 2.26901 0
M  V30 18121 C 1753.27 -3.29173 1.11985 0
M  V30 18122 H 1752.59 -3.48156 1.96539 0
M  V30 18123 H 1754.03 -4.08873 1.12243 0
M  V30 18124 C 1752.49 -3.36443 -0.175383 0
M  V30 18125 O 1753.02 -3.84455 -1.16437 0
M  V30 18126 N 1751.23 -2.89759 -0.220879 0
M  V30 18127 H 1750.77 -2.5088 0.584558 0
M  V30 18128 H 1750.73 -2.95005 -1.08717 0
M  V30 18129 N 1754.5 -1.20861 -1.01145 0
M  V30 18130 C 1755.43 -0.986058 -2.11658 0
M  V30 18131 C 1756.42 0.0867558 -1.69879 0
M  V30 18132 O 1757.6 -0.0717892 -1.94067 0
M  V30 18133 C 1754.73 -0.542938 -3.4303 0
M  V30 18134 C 1753.68 -1.55958 -3.98574 0
M  V30 18135 C 1753.01 -0.972917 -5.25774 0
M  V30 18136 C 1754.31 -2.94471 -4.31375 0
M  V30 18137 H 1756 -1.91035 -2.30534 0
M  V30 18138 H 1753.55 -0.919914 -1.10786 0
M  V30 18139 H 1755.5 -0.374446 -4.19733 0
M  V30 18140 H 1754.23 0.416988 -3.23927 0
M  V30 18141 H 1752.89 -1.71552 -3.23984 0
M  V30 18142 H 1752.53 -0.00490446 -5.03 0
M  V30 18143 H 1752.23 -1.65194 -5.63901 0
M  V30 18144 H 1753.76 -0.815607 -6.05128 0
M  V30 18145 H 1755.17 -2.82358 -4.98946 0
M  V30 18146 H 1753.57 -3.59327 -4.80629 0
M  V30 18147 H 1754.64 -3.45804 -3.39923 0
M  V30 18148 N 1755.98 1.20536 -1.01532 0
M  V30 18149 C 1757.21 1.93571 -0.722055 0
M  V30 18150 C 1757.62 1.74923 0.721011 0
M  V30 18151 O 1756.96 1.05961 1.5006 0
M  V30 18152 C 1757.03 3.45989 -0.97632 0
M  V30 18153 C 1756.69 3.88397 -2.40825 0
M  V30 18154 C 1757.69 3.94262 -3.38901 0
M  V30 18155 C 1755.37 4.20422 -2.74865 0
M  V30 18156 C 1757.37 4.3156 -4.69078 0
M  V30 18157 C 1755.05 4.57395 -4.05256 0
M  V30 18158 C 1756.05 4.62937 -5.02174 0
M  V30 18159 O 1755.74 4.99063 -6.30232 0
M  V30 18160 H 1755.47 0.622101 -0.264511 0
M  V30 18161 H 1758.02 1.5401 -1.35905 0
M  V30 18162 H 1756.25 3.85669 -0.282161 0
M  V30 18163 H 1757.94 4.00251 -0.674832 0
M  V30 18164 H 1758.71 3.69686 -3.13938 0
M  V30 18165 H 1754.59 4.153 -2.00117 0
M  V30 18166 H 1758.13 4.358 -5.44724 0
M  V30 18167 H 1754.03 4.81427 -4.29998 0
M  V30 18168 H 1754.8 5.1706 -6.34501 0
M  V30 18169 N 1757.46 0.791395 1.36289 0
M  V30 18170 C 1758.39 0.205419 2.32595 0
M  V30 18171 C 1759.37 -0.660696 1.56744 0
M  V30 18172 O 1760.56 -0.594111 1.84889 0
M  V30 18173 C 1757.69 -0.659018 3.4099 0
M  V30 18174 C 1756.64 0.107364 4.27865 0
M  V30 18175 C 1755.97 -0.877795 5.27446 0
M  V30 18176 C 1757.27 1.29769 5.05922 0
M  V30 18177 H 1758.96 1.00999 2.8185 0
M  V30 18178 H 1756.51 0.487122 1.35511 0
M  V30 18179 H 1758.46 -1.07891 4.07354 0
M  V30 18180 H 1757.18 -1.49632 2.90307 0
M  V30 18181 H 1755.84 0.508253 3.6306 0
M  V30 18182 H 1755.49 -1.71018 4.73035 0
M  V30 18183 H 1755.19 -0.369429 5.86438 0
M  V30 18184 H 1756.71 -1.29621 5.96683 0
M  V30 18185 H 1758.13 0.953463 5.65316 0
M  V30 18186 H 1756.53 1.73949 5.74336 0
M  V30 18187 H 1757.6 2.09205 4.37449 0
M  V30 18188 N 1758.94 -1.47929 0.54358 0
M  V30 18189 C 1760.17 -2.06891 0.0189187 0
M  V30 18190 C 1760.58 -1.39822 -1.26867 0
M  V30 18191 O 1759.94 -0.490197 -1.75793 0
M  V30 18192 C 1759.99 -3.60976 -0.194595 0
M  V30 18193 O 1759.71 -4.25528 1.04199 0
M  V30 18194 C 1761.21 -4.3677 -0.758093 0
M  V30 18195 H 1758.43 -0.669827 0.0396625 0
M  V30 18196 H 1760.98 -1.90128 0.753105 0
M  V30 18197 H 1759.13 -3.77299 -0.878869 0
M  V30 18198 H 1759.55 -5.17872 0.831191 0
M  V30 18199 H 1761.02 -5.45309 -0.856846 0
M  V30 18200 H 1761.5 -4.02121 -1.76621 0
M  V30 18201 H 1762.1 -4.25158 -0.109953 0
M  V30 18202 N 1760.42 -0.27936 -1.55104 0
M  V30 18203 C 1761.67 0.336866 -1.98867 0
M  V30 18204 C 1761.98 1.56656 -1.17124 0
M  V30 18205 O 1763.19 2.25601 -1.51051 0
M  V30 18206 C 1761.64 0.650699 -3.53969 0
M  V30 18207 C 1761.25 -0.559433 -4.44493 0
M  V30 18208 C 1762.99 1.22931 -4.0631 0
M  V30 18209 C 1760.9 -0.219952 -5.90991 0
M  V30 18210 H 1759.83 0.129643 -0.742771 0
M  V30 18211 H 1762.48 -0.384678 -1.79423 0
M  V30 18212 H 1760.86 1.43126 -3.6923 0
M  V30 18213 H 1762.04 -1.3362 -4.41001 0
M  V30 18214 H 1760.35 -1.05519 -4.02809 0
M  V30 18215 H 1762.95 1.49719 -5.13311 0
M  V30 18216 H 1763.29 2.16458 -3.55601 0
M  V30 18217 H 1763.83 0.51095 -3.94505 0
M  V30 18218 H 1760.56 -1.1232 -6.45805 0
M  V30 18219 H 1760.08 0.519971 -5.97542 0
M  V30 18220 H 1761.76 0.186308 -6.46732 0
M  V30 18221 N 1761.9 1.57599 -0.0067085 0
M  V30 18222 C 1763.31 1.78864 0.535202 0
M  V30 18223 C 1763.66 0.914793 1.73568 0
M  V30 18224 O 1762.78 0.119075 2.16072 0
M  V30 18225 C 1763.38 3.24386 0.977709 0
M  V30 18226 C 1761.94 3.46725 1.46488 0
M  V30 18227 C 1761.08 2.74114 0.419171 0
M  V30 18228 H 1764.03 1.56982 -0.232853 0
M  V30 18229 H 1764.06 3.32867 1.84336 0
M  V30 18230 H 1763.57 3.87961 0.103778 0
M  V30 18231 H 1761.67 2.88373 2.35948 0
M  V30 18232 H 1761.78 4.55416 1.48772 0
M  V30 18233 H 1760.15 2.3893 0.882311 0
M  V30 18234 H 1760.93 3.40392 -0.445908 0
M  V30 18235 N 1763.37 -0.266145 1.55336 0
M  V30 18236 C 1764.6 -1.01489 1.80299 0
M  V30 18237 C 1765.02 -1.79679 0.579742 0
M  V30 18238 O 1764.37 -1.76831 -0.451319 0
M  V30 18239 C 1764.42 -1.96805 3.03233 0
M  V30 18240 O 1764.15 -1.21782 4.20834 0
M  V30 18241 C 1765.65 -2.83436 3.40851 0
M  V30 18242 H 1762.87 -0.299504 0.600449 0
M  V30 18243 H 1765.41 -0.294854 2.02363 0
M  V30 18244 H 1763.57 -2.64262 2.83275 0
M  V30 18245 H 1763.98 -1.86086 4.9038 0
M  V30 18246 H 1765.45 -3.461 4.30022 0
M  V30 18247 H 1765.93 -3.53559 2.60562 0
M  V30 18248 H 1766.54 -2.2146 3.63092 0
M  V30 18249 N 1764.85 -1.48386 -0.530967 0
M  V30 18250 C 1765.81 -1.62355 -1.61782 0
M  V30 18251 C 1766.81 -0.496909 -1.5293 0
M  V30 18252 O 1768 -0.762672 -1.56617 0
M  V30 18253 C 1765.14 -1.59282 -3.014 0
M  V30 18254 H 1766.33 -2.59265 -1.50737 0
M  V30 18255 H 1763.88 -1.36969 -0.752948 0
M  V30 18256 H 1764.62 -0.638453 -3.17953 0
M  V30 18257 H 1764.4 -2.41073 -3.09235 0
M  V30 18258 H 1765.89 -1.72248 -3.80421 0
M  V30 18259 N 1766.33 0.779763 -1.36958 0
M  V30 18260 C 1767.75 1.07919 -1.17582 0
M  V30 18261 C 1767.95 2.01499 -0.00649229 0
M  V30 18262 O 1767 2.43832 0.655905 0
M  V30 18263 C 1768.31 1.68439 -2.49096 0
M  V30 18264 C 1769.86 1.80735 -2.55546 0
M  V30 18265 C 1770.34 2.44669 -3.87171 0
M  V30 18266 N 1771.83 2.52127 -3.88569 0
M  V30 18267 C 1772.56 3.02429 -4.87159 0
M  V30 18268 N 1772.06 3.52964 -5.96144 0
M  V30 18269 N 1773.85 3.0123 -4.7457 0
M  V30 18270 H 1766 0.158249 -2.1181 0
M  V30 18271 H 1768.27 0.132826 -0.938649 0
M  V30 18272 H 1767.97 1.07147 -3.34981 0
M  V30 18273 H 1767.85 2.67832 -2.65604 0
M  V30 18274 H 1770.23 2.41162 -1.70073 0
M  V30 18275 H 1770.31 0.801199 -2.42929 0
M  V30 18276 H 1769.96 1.84883 -4.73055 0
M  V30 18277 H 1769.89 3.45874 -3.97088 0
M  V30 18278 H 1772.38 2.16355 -3.09837 0
M  V30 18279 H 1772.69 3.89725 -6.67334 0
M  V30 18280 H 1771.04 3.5109 -5.998 0
M  V30 18281 H 1774.23 2.61045 -3.88553 0
M  V30 18282 H 1774.4 3.40122 -5.51562 0
M  V30 18283 N 1767.81 1.21396 1.00503 0
M  V30 18284 C 1769.03 1.05791 1.7839 0
M  V30 18285 C 1769.46 -0.387921 1.84056 0
M  V30 18286 O 1768.82 -1.27983 1.28413 0
M  V30 18287 C 1768.86 1.65967 3.20137 0
M  V30 18288 O 1767.97 0.905123 4.02345 0
M  V30 18289 H 1767.31 0.372331 0.549787 0
M  V30 18290 H 1769.84 1.60938 1.26334 0
M  V30 18291 H 1769.85 1.70186 3.70811 0
M  V30 18292 H 1768.52 2.71185 3.15327 0
M  V30 18293 H 1767.1 0.938019 3.60909 0
M  V30 18294 N 1769.29 -1.19996 1.0217 0
M  V30 18295 C 1770.53 -1.89776 0.715047 0
M  V30 18296 C 1770.86 -1.78971 -0.753862 0
M  V30 18297 O 1770.14 -1.17729 -1.54823 0
M  V30 18298 C 1770.42 -3.4098 1.15779 0
M  V30 18299 C 1770.28 -3.60693 2.68739 0
M  V30 18300 C 1771.59 -4.33953 0.733008 0
M  V30 18301 H 1768.71 -0.689148 0.261236 0
M  V30 18302 H 1771.36 -1.41287 1.27035 0
M  V30 18303 H 1769.51 -3.82407 0.68534 0
M  V30 18304 H 1771.18 -3.28484 3.23876 0
M  V30 18305 H 1769.42 -3.0399 3.09472 0
M  V30 18306 H 1770.09 -4.66704 2.94773 0
M  V30 18307 H 1772.57 -4.002 1.13925 0
M  V30 18308 H 1771.44 -5.38355 1.07077 0
M  V30 18309 H 1771.7 -4.4059 -0.365047 0
M  V30 18310 N 1770.76 -0.798611 -1.35867 0
M  V30 18311 C 1772.01 -0.374519 -1.986 0
M  V30 18312 C 1772.33 1.05984 -1.63684 0
M  V30 18313 O 1771.6 1.73199 -0.915359 0
M  V30 18314 H 1770.18 -0.135492 -0.734609 0
M  V30 18315 H 1772.84 -1.02269 -1.65913 0
M  V30 18316 H 1771.94 -0.473773 -3.08483 0
M  V30 18317 N 1772.24 1.47639 -0.551417 0
M  V30 18318 C 1773.2 2.28419 0.188996 0
M  V30 18319 C 1774.2 1.36617 0.84808 0
M  V30 18320 O 1775.39 1.59304 0.704831 0
M  V30 18321 C 1772.53 3.16131 1.27571 0
M  V30 18322 H 1773.72 2.95348 -0.520518 0
M  V30 18323 H 1771.27 1.53232 -0.308141 0
M  V30 18324 H 1772.01 2.5388 2.0178 0
M  V30 18325 H 1771.79 3.83685 0.807984 0
M  V30 18326 H 1773.28 3.77011 1.79591 0
M  V30 18327 N 1773.72 0.287581 1.54954 0
M  V30 18328 C 1774.95 -0.331442 2.04735 0
M  V30 18329 C 1775.37 -1.47752 1.16409 0
M  V30 18330 O 1774.73 -1.80545 0.165297 0
M  V30 18331 C 1774.78 -0.778123 3.52105 0
M  V30 18332 O 1773.88 -1.88422 3.66839 0
M  V30 18333 H 1773.22 -0.0666173 0.66065 0
M  V30 18334 H 1775.75 0.425516 2.00126 0
M  V30 18335 H 1775.76 -1.07054 3.93705 0
M  V30 18336 H 1774.44 0.0603184 4.15856 0
M  V30 18337 H 1773.01 -1.59338 3.37144 0
M  V30 18338 N 1775.2 -1.57593 0.0150662 0
M  V30 18339 C 1776.48 -1.82473 -0.704474 0
M  V30 18340 C 1776.86 -0.896018 -1.91141 0
M  V30 18341 O 1776.2 0.0517365 -2.28441 0
M  V30 18342 C 1776.41 -3.31345 -1.09598 0
M  V30 18343 C 1777.76 -3.97465 -1.49353 0
M  V30 18344 O 1778.79 -3.35757 -1.18936 0
M  V30 18345 O 1777.64 -5.06199 -2.05972 0
M  V30 18346 H 1774.74 -0.751908 -0.344331 0
M  V30 18347 H 1777.28 -1.69649 0.041674 0
M  V30 18348 H 1776.06 -3.90586 -0.236358 0
M  V30 18349 H 1775.68 -3.49224 -1.90075 0
M  V30 18350 N 1776.68 0.257904 -1.55475 0
M  V30 18351 C 1777.92 0.985519 -1.76442 0
M  V30 18352 C 1778.25 1.86267 -0.577033 0
M  V30 18353 O 1777.52 1.91613 0.407582 0
M  V30 18354 H 1776.1 0.366872 -0.650702 0
M  V30 18355 H 1778.76 0.278498 -1.929 0
M  V30 18356 H 1777.85 1.61367 -2.67146 0
M  V30 18357 N 1778.15 1.48666 0.52309 0
M  V30 18358 C 1779.38 1.60965 1.30787 0
M  V30 18359 C 1779.8 0.272663 1.86113 0
M  V30 18360 O 1779.16 -0.756662 1.64755 0
M  V30 18361 C 1779.21 2.66455 2.42969 0
M  V30 18362 O 1778.31 2.24094 3.46202 0
M  V30 18363 H 1777.66 0.539516 0.387064 0
M  V30 18364 H 1780.19 1.94702 0.628683 0
M  V30 18365 H 1780.2 2.87942 2.89056 0
M  V30 18366 H 1778.87 3.63516 2.02062 0
M  V30 18367 H 1777.45 2.12848 3.06186 0
M  V30 18368 N 1779.63 -0.772489 1.37369 0
M  V30 18369 C 1780.86 -1.56671 1.35901 0
M  V30 18370 C 1781.28 -1.88024 -0.0535538 0
M  V30 18371 O 1780.64 -1.49174 -1.03038 0
M  V30 18372 C 1780.69 -2.85417 2.20384 0
M  V30 18373 O 1779.79 -3.79761 1.60796 0
M  V30 18374 H 1779.13 -0.474596 0.464386 0
M  V30 18375 H 1781.66 -0.956162 1.80883 0
M  V30 18376 H 1781.67 -3.34527 2.33571 0
M  V30 18377 H 1780.35 -2.61926 3.2306 0
M  V30 18378 H 1778.93 -3.38403 1.56645 0
M  V30 18379 N 1781.11 -1.21927 -0.998575 0
M  V30 18380 C 1782.36 -1.05199 -1.74082 0
M  V30 18381 C 1782.71 0.409387 -1.87994 0
M  V30 18382 O 1782 1.29958 -1.40788 0
M  V30 18383 C 1782.2 -1.69015 -3.1491 0
M  V30 18384 C 1782.03 -3.21208 -3.14731 0
M  V30 18385 C 1780.8 -3.90284 -3.20946 0
M  V30 18386 C 1783 -4.18214 -2.99335 0
M  V30 18387 N 1780.98 -5.29611 -3.10461 0
M  V30 18388 C 1782.35 -5.44334 -2.96816 0
M  V30 18389 C 1784.4 -4.09179 -2.83684 0
M  V30 18390 C 1783.11 -6.62459 -2.80251 0
M  V30 18391 C 1785.13 -5.26948 -2.68477 0
M  V30 18392 C 1784.49 -6.51983 -2.66641 0
M  V30 18393 H 1780.59 -0.439342 -0.646918 0
M  V30 18394 H 1783.18 -1.54381 -1.18636 0
M  V30 18395 H 1781.35 -1.22392 -3.68612 0
M  V30 18396 H 1783.08 -1.45433 -3.77666 0
M  V30 18397 H 1779.84 -3.41248 -3.284 0
M  V30 18398 H 1780.26 -6.02603 -3.08543 0
M  V30 18399 H 1784.9 -3.13301 -2.83905 0
M  V30 18400 H 1782.62 -7.58492 -2.78776 0
M  V30 18401 H 1786.21 -5.21784 -2.57358 0
M  V30 18402 H 1785.09 -7.41577 -2.55016 0
M  V30 18403 N 1782.59 1.19452 -1.02805 0
M  V30 18404 C 1783.5 2.2631 -0.618147 0
M  V30 18405 C 1784.51 1.70449 0.349712 0
M  V30 18406 O 1785.69 2.00325 0.207801 0
M  V30 18407 C 1782.76 3.46691 0.0255242 0
M  V30 18408 C 1781.82 4.17735 -0.98973 0
M  V30 18409 C 1781.05 5.32369 -0.376681 0
M  V30 18410 O 1781.27 5.64467 0.820584 0
M  V30 18411 O 1780.21 5.9178 -1.09911 0
M  V30 18412 H 1784.03 2.63611 -1.50807 0
M  V30 18413 H 1781.62 1.2629 -0.798192 0
M  V30 18414 H 1783.5 4.19643 0.384464 0
M  V30 18415 H 1782.17 3.1124 0.889467 0
M  V30 18416 H 1781.08 3.46906 -1.40024 0
M  V30 18417 H 1782.41 4.57155 -1.82402 0
M  V30 18418 N 1784.07 0.805805 1.35442 0
M  V30 18419 C 1785.31 0.385046 1.98398 0
M  V30 18420 C 1785.64 -1.05114 1.64244 0
M  V30 18421 O 1784.91 -1.72711 0.924532 0
M  V30 18422 H 1783.49 0.139386 0.733881 0
M  V30 18423 H 1786.15 1.03147 1.65368 0
M  V30 18424 H 1785.24 0.490126 3.08227 0
M  V30 18425 N 1785.54 -1.47344 0.559239 0
M  V30 18426 C 1786.79 -2.02768 0.0359962 0
M  V30 18427 C 1787.12 -1.43247 -1.31126 0
M  V30 18428 O 1786.4 -0.588793 -1.85374 0
M  V30 18429 C 1786.68 -3.60058 -0.0549111 0
M  V30 18430 C 1786.53 -4.30008 1.31958 0
M  V30 18431 C 1787.85 -4.33359 -0.767331 0
M  V30 18432 H 1784.97 -0.736856 0.0145552 0
M  V30 18433 H 1787.61 -1.75751 0.72192 0
M  V30 18434 H 1785.76 -3.83208 -0.639076 0
M  V30 18435 H 1787.44 -4.18193 1.94711 0
M  V30 18436 H 1785.68 -3.90283 1.89372 0
M  V30 18437 H 1786.35 -5.38605 1.20867 0
M  V30 18438 H 1788.83 -4.15215 -0.27131 0
M  V30 18439 H 1787.7 -5.4304 -0.799905 0
M  V30 18440 H 1787.96 -4.02725 -1.82387 0
M  V30 18441 N 1787.02 -0.295795 -1.54799 0
M  V30 18442 C 1788.27 0.314384 -1.9964 0
M  V30 18443 C 1788.59 1.5481 -1.1857 0
M  V30 18444 O 1787.86 1.93884 -0.280353 0
M  V30 18445 H 1786.44 0.119153 -0.737436 0
M  V30 18446 H 1789.1 -0.40592 -1.90626 0
M  V30 18447 H 1788.2 0.59002 -3.06472 0
M  V30 18448 N 1788.5 1.57583 -0.0234236 0
M  V30 18449 C 1789.75 1.91848 0.657422 0
M  V30 18450 C 1790.08 0.899633 1.72105 0
M  V30 18451 O 1789.36 -0.0784409 1.94342 0
M  V30 18452 C 1789.64 3.36617 1.2791 0
M  V30 18453 C 1789.49 4.49235 0.225421 0
M  V30 18454 C 1790.81 3.81239 2.19874 0
M  V30 18455 H 1787.93 0.697677 0.23752 0
M  V30 18456 H 1790.57 1.89834 -0.0795169 0
M  V30 18457 H 1788.72 3.38465 1.90719 0
M  V30 18458 H 1790.39 4.59521 -0.404792 0
M  V30 18459 H 1788.64 4.31462 -0.449749 0
M  V30 18460 H 1789.31 5.47545 0.699906 0
M  V30 18461 H 1791.78 3.81092 1.67058 0
M  V30 18462 H 1790.66 4.8324 2.60328 0
M  V30 18463 H 1790.92 3.16421 3.08755 0
M  V30 18464 N 1789.98 -0.249655 1.5561 0
M  V30 18465 C 1791.21 -0.995707 1.81365 0
M  V30 18466 C 1791.62 -1.79054 0.598767 0
M  V30 18467 O 1790.98 -1.773 -0.432538 0
M  V30 18468 C 1791.03 -1.93577 3.05303 0
M  V30 18469 O 1790.75 -1.17311 4.22102 0
M  V30 18470 C 1792.25 -2.79804 3.43838 0
M  V30 18471 H 1789.47 -0.293118 0.603591 0
M  V30 18472 H 1792.02 -0.273374 2.02665 0
M  V30 18473 H 1790.17 -2.61242 2.86062 0
M  V30 18474 H 1790.59 -1.80875 4.92326 0
M  V30 18475 H 1792.06 -3.4152 4.33668 0
M  V30 18476 H 1792.54 -3.50776 2.64298 0
M  V30 18477 H 1793.14 -2.17596 3.6542 0
M  V30 18478 N 1791.46 -1.48941 -0.515198 0
M  V30 18479 C 1792.87 -1.51076 -1.09695 0
M  V30 18480 C 1793.22 -0.288875 -1.94062 0
M  V30 18481 O 1792.34 0.602665 -2.07839 0
M  V30 18482 C 1792.94 -2.73755 -1.99609 0
M  V30 18483 C 1791.5 -2.78714 -2.52974 0
M  V30 18484 C 1790.65 -2.44798 -1.30266 0
M  V30 18485 H 1793.6 -1.55843 -0.299757 0
M  V30 18486 H 1793.62 -2.53112 -2.84103 0
M  V30 18487 H 1793.13 -3.62668 -1.38178 0
M  V30 18488 H 1791.23 -1.94045 -3.18084 0
M  V30 18489 H 1791.34 -3.80525 -2.91097 0
M  V30 18490 H 1789.71 -1.9627 -1.62327 0
M  V30 18491 H 1790.49 -3.35969 -0.705648 0
M  V30 18492 N 1792.94 0.765193 -1.37777 0
M  V30 18493 C 1793.89 1.86902 -1.30582 0
M  V30 18494 C 1794.87 1.59746 -0.192343 0
M  V30 18495 O 1796.06 1.71764 -0.427313 0
M  V30 18496 C 1793.19 3.2446 -1.12162 0
M  V30 18497 C 1792.28 3.57546 -2.28082 0
M  V30 18498 N 1792.67 3.61769 -3.53493 0
M  V30 18499 C 1790.97 3.87748 -2.2038 0
M  V30 18500 C 1791.67 3.9179 -4.29972 0
M  V30 18501 N 1790.64 4.08025 -3.59188 0
M  V30 18502 H 1794.44 1.88428 -2.25549 0
M  V30 18503 H 1791.96 0.96197 -1.30843 0
M  V30 18504 H 1793.96 4.03437 -1.05092 0
M  V30 18505 H 1792.62 3.24194 -0.181181 0
M  V30 18506 H 1793.63 3.43813 -3.87315 0
M  V30 18507 H 1790.3 3.95266 -1.3443 0
M  V30 18508 H 1791.69 4.01777 -5.3854 0
M  V30 18509 N 1794.41 1.22455 0.992094 0
M  V30 18510 C 1795.66 1.05115 1.73432 0
M  V30 18511 C 1795.99 -0.412642 1.89765 0
M  V30 18512 O 1795.27 -1.3059 1.44141 0
M  V30 18513 C 1795.55 1.76385 3.13943 0
M  V30 18514 C 1795.4 3.30364 3.05253 0
M  V30 18515 C 1796.72 1.51688 4.13133 0
M  V30 18516 H 1793.84 0.383261 0.629508 0
M  V30 18517 H 1796.48 1.50805 1.15576 0
M  V30 18518 H 1794.63 1.37544 3.63337 0
M  V30 18519 H 1796.31 3.78655 2.63474 0
M  V30 18520 H 1794.55 3.6 2.42038 0
M  V30 18521 H 1795.22 3.75409 4.04687 0
M  V30 18522 H 1797.7 1.85429 3.72499 0
M  V30 18523 H 1796.57 2.04049 5.09564 0
M  V30 18524 H 1796.83 0.449654 4.39807 0
M  V30 18525 N 1795.89 -1.18905 1.03437 0
M  V30 18526 C 1797.14 -1.89007 0.735135 0
M  V30 18527 C 1797.47 -1.7976 -0.734838 0
M  V30 18528 O 1796.75 -1.19365 -1.53565 0
M  V30 18529 C 1797.03 -3.39732 1.1939 0
M  V30 18530 C 1796.88 -3.57822 2.7255 0
M  V30 18531 C 1798.2 -4.33151 0.778993 0
M  V30 18532 H 1795.32 -0.686338 0.26853 0
M  V30 18533 H 1797.96 -1.39932 1.28527 0
M  V30 18534 H 1796.11 -3.81659 0.725861 0
M  V30 18535 H 1797.78 -3.25031 3.27342 0
M  V30 18536 H 1796.03 -3.0069 3.12679 0
M  V30 18537 H 1796.7 -4.63552 2.99706 0
M  V30 18538 H 1799.17 -3.98969 1.18164 0
M  V30 18539 H 1798.05 -5.37189 1.12781 0
M  V30 18540 H 1798.31 -4.40953 -0.318296 0
M  V30 18541 N 1797.37 -0.812977 -1.35013 0
M  V30 18542 C 1798.62 -0.396932 -1.98878 0
M  V30 18543 C 1798.95 1.03486 -1.6433 0
M  V30 18544 O 1798.22 1.71906 -0.90986 0
M  V30 18545 C 1798.51 -0.587911 -3.55268 0
M  V30 18546 C 1798.36 -2.06509 -3.99592 0
M  V30 18547 C 1799.68 -0.017593 -4.40096 0
M  V30 18548 H 1796.8 -0.145695 -0.722455 0
M  V30 18549 H 1799.44 -1.0237 -1.60064 0
M  V30 18550 H 1797.59 -0.0543785 -3.88462 0
M  V30 18551 H 1799.26 -2.6615 -3.76778 0
M  V30 18552 H 1797.5 -2.55921 -3.50267 0
M  V30 18553 H 1798.18 -2.14958 -5.08426 0
M  V30 18554 H 1800.65 -0.473317 -4.13399 0
M  V30 18555 H 1799.53 -0.18109 -5.48601 0
M  V30 18556 H 1799.79 1.07664 -4.2879 0
M  V30 18557 N 1798.85 1.47045 -0.567045 0
M  V30 18558 C 1800.26 1.86202 -0.13627 0
M  V30 18559 C 1800.61 1.47252 1.29658 0
M  V30 18560 O 1799.73 0.880121 1.97694 0
M  V30 18561 C 1800.33 3.37945 -0.240528 0
M  V30 18562 C 1798.89 3.76157 0.135272 0
M  V30 18563 C 1798.04 2.71089 -0.583628 0
M  V30 18564 H 1800.99 1.38423 -0.776196 0
M  V30 18565 H 1801.01 3.76673 0.538293 0
M  V30 18566 H 1800.52 3.66263 -1.28348 0
M  V30 18567 H 1798.62 3.53456 1.17896 0
M  V30 18568 H 1798.73 4.78547 -0.230137 0
M  V30 18569 H 1797.1 2.54687 -0.0256067 0
M  V30 18570 H 1797.88 3.02247 -1.62792 0
M  V30 18571 N 1800.33 0.304 1.5464 0
M  V30 18572 C 1801.29 -0.557917 2.22306 0
M  V30 18573 C 1802.29 -1.05895 1.21008 0
M  V30 18574 O 1803.48 -0.954497 1.45722 0
M  V30 18575 C 1800.61 -1.77279 2.91178 0
M  V30 18576 H 1801.8 0.0333187 2.99881 0
M  V30 18577 H 1799.36 0.0548659 1.56204 0
M  V30 18578 H 1800.09 -2.40378 2.17689 0
M  V30 18579 H 1799.88 -1.42115 3.65439 0
M  V30 18580 H 1801.37 -2.38507 3.42789 0
M  V30 18581 N 1801.8 -1.57568 0.0317802 0
M  V30 18582 C 1802.71 -2.13842 -0.964811 0
M  V30 18583 C 1803.73 -1.09134 -1.3552 0
M  V30 18584 O 1804.91 -1.41205 -1.43608 0
M  V30 18585 C 1801.97 -2.65654 -2.22775 0
M  V30 18586 C 1801.03 -3.85087 -1.89753 0
M  V30 18587 C 1800.26 -4.34419 -3.10026 0
M  V30 18588 O 1800.49 -3.8291 -4.22772 0
M  V30 18589 O 1799.42 -5.26233 -2.92169 0
M  V30 18590 H 1803.25 -2.99279 -0.516302 0
M  V30 18591 H 1800.83 -1.482 -0.188982 0
M  V30 18592 H 1802.71 -2.99035 -2.96911 0
M  V30 18593 H 1801.39 -1.83299 -2.66802 0
M  V30 18594 H 1800.3 -3.56628 -1.12994 0
M  V30 18595 H 1801.63 -4.68613 -1.50541 0
M  V30 18596 N 1803.28 0.241399 -1.5574 0
M  V30 18597 C 1804.19 1.32034 -1.93918 0
M  V30 18598 C 1805.21 1.52363 -0.840331 0
M  V30 18599 O 1806.38 1.65879 -1.1422 0
M  V30 18600 C 1803.45 2.6539 -2.2309 0
M  V30 18601 C 1802.51 2.53536 -3.46436 0
M  V30 18602 C 1801.74 3.80532 -3.74208 0
M  V30 18603 O 1801.97 4.82662 -3.03964 0
M  V30 18604 O 1800.9 3.78834 -4.67727 0
M  V30 18605 H 1804.73 1.02647 -2.85827 0
M  V30 18606 H 1802.31 0.442616 -1.42693 0
M  V30 18607 H 1804.19 3.44184 -2.43137 0
M  V30 18608 H 1802.87 2.94499 -1.34358 0
M  V30 18609 H 1801.78 1.73009 -3.3169 0
M  V30 18610 H 1803.11 2.29371 -4.35488 0
M  V30 18611 N 1804.76 1.49212 0.507292 0
M  V30 18612 C 1805.72 1.64908 1.59179 0
M  V30 18613 C 1806.72 0.521176 1.5212 0
M  V30 18614 O 1807.91 0.787492 1.55384 0
M  V30 18615 C 1805.05 1.64057 2.98828 0
M  V30 18616 H 1806.24 2.6163 1.46593 0
M  V30 18617 H 1803.79 1.38149 0.731062 0
M  V30 18618 H 1804.53 0.688956 3.16897 0
M  V30 18619 H 1804.31 2.45963 3.0536 0
M  V30 18620 H 1805.8 1.78279 3.77633 0
M  V30 18621 N 1806.24 -0.757876 1.38181 0
M  V30 18622 C 1807.17 -1.88519 1.37779 0
M  V30 18623 C 1808.15 -1.68336 0.24432 0
M  V30 18624 O 1809.33 -1.88991 0.446762 0
M  V30 18625 C 1806.46 -3.2599 1.19784 0
M  V30 18626 C 1805.42 -3.60764 2.30289 0
M  V30 18627 C 1804.74 -4.96927 1.97403 0
M  V30 18628 C 1806.04 -3.66082 3.72533 0
M  V30 18629 H 1807.74 -1.89112 2.32114 0
M  V30 18630 H 1805.28 -0.908442 1.11729 0
M  V30 18631 H 1807.24 -4.04504 1.18129 0
M  V30 18632 H 1805.96 -3.25864 0.219088 0
M  V30 18633 H 1804.62 -2.84566 2.31123 0
M  V30 18634 H 1804.27 -4.93356 0.98023 0
M  V30 18635 H 1803.97 -5.21162 2.7141 0
M  V30 18636 H 1805.49 -5.77825 1.97359 0
M  V30 18637 H 1806.91 -4.3472 3.73754 0
M  V30 18638 H 1805.3 -4.01824 4.4571 0
M  V30 18639 H 1806.37 -2.66412 4.05158 0
M  V30 18640 N 1807.72 -1.22979 -0.985586 0
M  V30 18641 C 1808.68 -1.00763 -2.05862 0
M  V30 18642 C 1809.68 0.02864 -1.60774 0
M  V30 18643 O 1810.87 -0.210593 -1.72922 0
M  V30 18644 C 1808 -0.523547 -3.36856 0
M  V30 18645 H 1809.19 -1.95982 -2.27004 0
M  V30 18646 H 1806.75 -1.0495 -1.15824 0
M  V30 18647 H 1807.48 0.432658 -3.21401 0
M  V30 18648 H 1807.27 -1.27127 -3.70919 0
M  V30 18649 H 1808.76 -0.388591 -4.15788 0
M  V30 18650 N 1809.19 1.18355 -1.04066 0
M  V30 18651 C 1810.61 1.40349 -0.759898 0
M  V30 18652 C 1810.81 1.90709 0.650574 0
M  V30 18653 O 1809.87 2.09142 1.41477 0
M  V30 18654 C 1811.18 2.40426 -1.80599 0
M  V30 18655 C 1812.73 2.54153 -1.8269 0
M  V30 18656 C 1813.2 3.57494 -2.8629 0
M  V30 18657 N 1814.69 3.65001 -2.85181 0
M  V30 18658 C 1815.43 4.44688 -3.61995 0
M  V30 18659 N 1814.92 5.27984 -4.48559 0
M  V30 18660 N 1816.72 4.39451 -3.50484 0
M  V30 18661 H 1808.87 0.839924 -1.95087 0
M  V30 18662 H 1811.13 0.431492 -0.844108 0
M  V30 18663 H 1810.84 2.10471 -2.81771 0
M  V30 18664 H 1810.71 3.39773 -1.63812 0
M  V30 18665 H 1813.1 2.83424 -0.821889 0
M  V30 18666 H 1813.18 1.54919 -2.03553 0
M  V30 18667 H 1812.82 3.28963 -3.8697 0
M  V30 18668 H 1812.75 4.56405 -2.62682 0
M  V30 18669 H 1815.24 3.05522 -2.22407 0
M  V30 18670 H 1815.56 5.85939 -5.0388 0
M  V30 18671 H 1813.9 5.27404 -4.52626 0
M  V30 18672 H 1817.09 3.73426 -2.8226 0
M  V30 18673 H 1817.27 5.01313 -4.10596 0
M  V30 18674 N 1810.67 0.820125 1.3458 0
M  V30 18675 C 1811.64 0.245462 2.27882 0
M  V30 18676 C 1812.64 -0.575025 1.50167 0
M  V30 18677 O 1813.83 -0.391536 1.69743 0
M  V30 18678 C 1810.96 -0.656199 3.34525 0
M  V30 18679 H 1812.15 1.06853 2.80218 0
M  V30 18680 H 1809.7 0.591777 1.44664 0
M  V30 18681 H 1810.44 -1.50244 2.87398 0
M  V30 18682 H 1810.22 -0.0693951 3.92039 0
M  V30 18683 H 1811.71 -1.05216 4.04128 0
M  V30 18684 N 1812.15 -1.46743 0.574835 0
M  V30 18685 C 1813.1 -2.30224 -0.162908 0
M  V30 18686 C 1814.07 -1.4014 -0.891629 0
M  V30 18687 O 1815.25 -1.69094 -0.883854 0
M  V30 18688 C 1812.39 -3.24456 -1.1757 0
M  V30 18689 C 1811.51 -4.29637 -0.451233 0
M  V30 18690 C 1810.64 -5.11003 -1.45085 0
M  V30 18691 C 1809.68 -6.07941 -0.712353 0
M  V30 18692 N 1808.82 -6.82202 -1.65965 0
M  V30 18693 H 1813.66 -2.92785 0.555063 0
M  V30 18694 H 1811.19 -1.44302 0.285546 0
M  V30 18695 H 1813.15 -3.77526 -1.77567 0
M  V30 18696 H 1811.78 -2.63721 -1.86148 0
M  V30 18697 H 1810.83 -3.79485 0.263623 0
M  V30 18698 H 1812.15 -4.9864 0.126468 0
M  V30 18699 H 1811.3 -5.68311 -2.12386 0
M  V30 18700 H 1810.04 -4.41942 -2.06248 0
M  V30 18701 H 1809.04 -5.49794 -0.0255266 0
M  V30 18702 H 1810.27 -6.79017 -0.106227 0
M  V30 18703 H 1808.21 -6.15858 -2.25953 0
M  V30 18704 H 1808.13 -7.47438 -1.13456 0
M  V30 18705 H 1809.4 -7.44073 -2.32325 0
M  V30 18706 N 1813.63 -0.312197 -1.54477 0
M  V30 18707 C 1814.54 0.568096 -2.27618 0
M  V30 18708 C 1815.55 1.13892 -1.31547 0
M  V30 18709 O 1816.73 1.16131 -1.64546 0
M  V30 18710 C 1813.8 1.71843 -3.01116 0
M  V30 18711 C 1812.86 1.18056 -4.12748 0
M  V30 18712 C 1812.09 2.27607 -4.82733 0
M  V30 18713 O 1812.31 3.4773 -4.52151 0
M  V30 18714 O 1811.25 1.93667 -5.69892 0
M  V30 18715 H 1815.07 -0.0255513 -3.03689 0
M  V30 18716 H 1812.66 -0.0782698 -1.49195 0
M  V30 18717 H 1814.54 2.38839 -3.4718 0
M  V30 18718 H 1813.21 2.29847 -2.2793 0
M  V30 18719 H 1812.12 0.476007 -3.71059 0
M  V30 18720 H 1813.45 0.645802 -4.87945 0
M  V30 18721 N 1815.11 1.57549 -0.040136 0
M  V30 18722 C 1816.04 2.06413 0.973089 0
M  V30 18723 C 1817.02 0.962235 1.31072 0
M  V30 18724 O 1818.2 1.23337 1.42549 0
M  V30 18725 C 1815.33 2.49541 2.29013 0
M  V30 18726 C 1814.37 3.70858 2.10634 0
M  V30 18727 S 1815.21 5.17013 1.39493 0
M  V30 18728 C 1816.36 5.63445 2.72544 0
M  V30 18729 H 1816.6 2.92032 0.557186 0
M  V30 18730 H 1814.13 1.53441 0.171846 0
M  V30 18731 H 1816.09 2.75052 3.04723 0
M  V30 18732 H 1814.75 1.64247 2.67734 0
M  V30 18733 H 1813.94 3.98918 3.08027 0
M  V30 18734 H 1813.54 3.45555 1.43065 0
M  V30 18735 H 1815.84 5.68357 3.68749 0
M  V30 18736 H 1816.78 6.62826 2.49134 0
M  V30 18737 H 1817.19 4.91133 2.78296 0
M  V30 18738 N 1816.58 -0.233136 1.55866 0
M  V30 18739 C 1817.51 -1.29225 1.94482 0
M  V30 18740 C 1818.5 -1.49495 0.811503 0
M  V30 18741 O 1819.68 -1.61872 1.07289 0
M  V30 18742 C 1816.81 -2.64435 2.25147 0
M  V30 18743 C 1815.76 -2.5884 3.4086 0
M  V30 18744 C 1815.09 -3.97973 3.57102 0
M  V30 18745 C 1816.39 -2.14629 4.76164 0
M  V30 18746 H 1818.08 -0.971527 2.83199 0
M  V30 18747 H 1815.63 -0.465905 1.36255 0
M  V30 18748 H 1817.58 -3.38676 2.50752 0
M  V30 18749 H 1816.31 -2.98172 1.33271 0
M  V30 18750 H 1814.97 -1.87057 3.15286 0
M  V30 18751 H 1814.61 -4.28998 2.62621 0
M  V30 18752 H 1814.31 -3.95114 4.34924 0
M  V30 18753 H 1815.84 -4.73893 3.85043 0
M  V30 18754 H 1817.25 -2.78607 5.0105 0
M  V30 18755 H 1815.65 -2.22853 5.57186 0
M  V30 18756 H 1816.72 -1.09826 4.72299 0
M  V30 18757 N 1818.06 -1.49479 -0.499372 0
M  V30 18758 C 1819 -1.6239 -1.61748 0
M  V30 18759 C 1820.01 -0.506515 -1.5472 0
M  V30 18760 O 1821.2 -0.778629 -1.60623 0
M  V30 18761 C 1818.3 -1.56611 -3.00543 0
M  V30 18762 C 1817.47 -2.83909 -3.32738 0
M  V30 18763 C 1816.53 -2.7116 -4.50953 0
M  V30 18764 O 1815.56 -3.45097 -4.52656 0
M  V30 18765 N 1816.76 -1.82815 -5.50962 0
M  V30 18766 H 1819.52 -2.58823 -1.51099 0
M  V30 18767 H 1817.08 -1.46588 -0.687277 0
M  V30 18768 H 1819.08 -1.45734 -3.7755 0
M  V30 18769 H 1817.65 -0.68029 -3.05108 0
M  V30 18770 H 1816.87 -3.09125 -2.44613 0
M  V30 18771 H 1818.15 -3.68299 -3.51046 0
M  V30 18772 H 1817.55 -1.22005 -5.52387 0
M  V30 18773 H 1816.11 -1.77859 -6.27064 0
M  V30 18774 N 1819.54 0.750537 -1.38581 0
M  V30 18775 C 1820.49 1.85507 -1.32557 0
M  V30 18776 C 1821.48 1.59533 -0.209275 0
M  V30 18777 O 1822.67 1.71302 -0.445507 0
M  V30 18778 C 1819.8 3.23253 -1.15597 0
M  V30 18779 C 1818.88 3.55107 -2.31862 0
M  V30 18780 N 1819.27 3.57999 -3.5731 0
M  V30 18781 C 1817.57 3.85389 -2.2448 0
M  V30 18782 C 1818.27 3.87207 -4.34103 0
M  V30 18783 N 1817.25 4.04193 -3.63496 0
M  V30 18784 H 1821.05 1.86025 -2.27535 0
M  V30 18785 H 1818.56 0.948038 -1.31856 0
M  V30 18786 H 1820.56 4.023 -1.09365 0
M  V30 18787 H 1819.22 3.23984 -0.215556 0
M  V30 18788 H 1820.23 3.39686 -3.9094 0
M  V30 18789 H 1816.91 3.93817 -1.38615 0
M  V30 18790 H 1818.3 3.96042 -5.42771 0
M  V30 18791 N 1821.02 1.235 0.979051 0
M  V30 18792 C 1821.97 1.01485 2.09293 0
M  V30 18793 C 1822.96 -0.0465937 1.69336 0
M  V30 18794 O 1824.17 0.107021 1.79682 0
M  V30 18795 H 1820.54 0.311087 0.684638 0
M  V30 18796 H 1822.51 1.95972 2.25028 0
M  V30 18797 C 1821.26 0.624167 3.42052 0
M  V30 18798 H 1820.59 1.43265 3.73249 0
M  V30 18799 H 1822.03 0.509648 4.20926 0
M  V30 18800 C 1820.48 -0.667694 3.30217 0
M  V30 18801 O 1821.01 -1.71648 3.6318 0
M  V30 18802 N 1819.22 -0.644122 2.83372 0
M  V30 18803 H 1818.77 0.20969 2.56745 0
M  V30 18804 H 1818.73 -1.50872 2.75835 0
M  V30 18805 N 1822.5 -1.17802 1.04693 0
M  V30 18806 C 1823.43 -2.21166 0.601507 0
M  V30 18807 C 1824.44 -1.59376 -0.332128 0
M  V30 18808 O 1825.63 -1.78057 -0.125653 0
M  V30 18809 C 1822.73 -3.38609 -0.140442 0
M  V30 18810 C 1821.9 -4.29973 0.802637 0
M  V30 18811 C 1820.96 -5.26099 0.102853 0
M  V30 18812 O 1819.99 -5.6443 0.735325 0
M  V30 18813 N 1821.19 -5.68761 -1.16154 0
M  V30 18814 H 1823.96 -2.60004 1.49057 0
M  V30 18815 H 1821.52 -1.3265 0.928199 0
M  V30 18816 H 1823.51 -3.99944 -0.618587 0
M  V30 18817 H 1822.08 -2.98411 -0.931117 0
M  V30 18818 H 1821.3 -3.66146 1.46051 0
M  V30 18819 H 1822.59 -4.8791 1.44296 0
M  V30 18820 H 1821.99 -5.39684 -1.6958 0
M  V30 18821 H 1820.54 -6.32264 -1.58384 0
M  V30 18822 N 1823.98 -0.827251 -1.34143 0
M  V30 18823 C 1824.91 -0.267015 -2.31968 0
M  V30 18824 C 1825.89 0.618906 -1.58441 0
M  V30 18825 O 1827.07 0.544882 -1.86399 0
M  V30 18826 C 1824.2 0.568379 -3.42617 0
M  V30 18827 C 1823.16 -0.220767 -4.2743 0
M  V30 18828 C 1822.48 0.737643 -5.29587 0
M  V30 18829 C 1823.78 -1.43137 -5.02304 0
M  V30 18830 H 1825.48 -1.08436 -2.79073 0
M  V30 18831 H 1823.02 -0.522879 -1.34171 0
M  V30 18832 H 1824.97 0.970525 -4.10072 0
M  V30 18833 H 1823.7 1.41882 -2.94172 0
M  V30 18834 H 1822.36 -0.604333 -3.61585 0
M  V30 18835 H 1822.01 1.58416 -4.77403 0
M  V30 18836 H 1821.71 0.213815 -5.87211 0
M  V30 18837 H 1823.23 1.13755 -5.9991 0
M  V30 18838 H 1824.64 -1.10301 -5.62589 0
M  V30 18839 H 1823.04 -1.89115 -5.69522 0
M  V30 18840 H 1824.11 -2.2073 -4.31748 0
M  V30 18841 N 1825.45 1.46436 -0.582609 0
M  V30 18842 C 1826.87 1.5772 -0.244278 0
M  V30 18843 C 1827.07 1.57772 1.2534 0
M  V30 18844 O 1826.13 1.49463 2.03512 0
M  V30 18845 C 1827.44 2.87122 -0.893398 0
M  V30 18846 C 1828.99 3.00753 -0.866979 0
M  V30 18847 C 1829.46 4.32891 -1.49564 0
M  V30 18848 N 1830.95 4.3959 -1.45998 0
M  V30 18849 C 1831.69 5.40449 -1.91578 0
M  V30 18850 N 1831.18 6.47983 -2.45132 0
M  V30 18851 N 1832.98 5.3165 -1.82496 0
M  V30 18852 H 1825.13 1.44646 -1.55536 0
M  V30 18853 H 1827.39 0.689972 -0.650109 0
M  V30 18854 H 1827.1 2.92894 -1.94695 0
M  V30 18855 H 1826.97 3.75056 -0.40156 0
M  V30 18856 H 1829.36 2.94563 0.177954 0
M  V30 18857 H 1829.44 2.14295 -1.39684 0
M  V30 18858 H 1829.08 4.39839 -2.53977 0
M  V30 18859 H 1829.01 5.18124 -0.94101 0
M  V30 18860 H 1831.5 3.62479 -1.06851 0
M  V30 18861 H 1831.82 7.21154 -2.7777 0
M  V30 18862 H 1830.16 6.48803 -2.49157 0
M  V30 18863 H 1833.35 4.46543 -1.40416 0
M  V30 18864 H 1833.53 6.1011 -2.18334 0
M  V30 18865 N 1826.93 0.320385 1.54309 0
M  V30 18866 C 1828.18 -0.283562 2.00808 0
M  V30 18867 C 1828.51 -1.52036 1.20826 0
M  V30 18868 O 1827.79 -1.9233 0.289721 0
M  V30 18869 C 1828.07 -0.620875 3.54707 0
M  V30 18870 C 1827.92 0.626403 4.45417 0
M  V30 18871 C 1829.24 -1.43978 4.15883 0
M  V30 18872 H 1826.36 -0.10159 0.729965 0
M  V30 18873 H 1829 0.436332 1.84922 0
M  V30 18874 H 1827.15 -1.23419 3.68375 0
M  V30 18875 H 1828.82 1.2647 4.43625 0
M  V30 18876 H 1827.07 1.2559 4.15222 0
M  V30 18877 H 1827.74 0.345969 5.50915 0
M  V30 18878 H 1830.21 -0.921381 4.05771 0
M  V30 18879 H 1829.09 -1.64456 5.23685 0
M  V30 18880 H 1829.35 -2.43494 3.69003 0
M  V30 18881 N 1828.41 -1.57525 0.0484906 0
M  V30 18882 C 1829.36 -2.11374 -0.926816 0
M  V30 18883 C 1830.33 -1.02045 -1.31058 0
M  V30 18884 O 1831.51 -1.29577 -1.40052 0
M  V30 18885 C 1828.65 -2.66107 -2.19729 0
M  V30 18886 C 1827.76 -3.89513 -1.86826 0
M  V30 18887 C 1826.9 -4.32571 -3.08312 0
M  V30 18888 C 1825.94 -5.48684 -2.71317 0
M  V30 18889 N 1825.08 -5.86808 -3.85488 0
M  V30 18890 H 1829.92 -2.94417 -0.460721 0
M  V30 18891 H 1827.45 -1.45509 -0.215789 0
M  V30 18892 H 1829.41 -2.95939 -2.94068 0
M  V30 18893 H 1828.04 -1.85865 -2.63921 0
M  V30 18894 H 1827.09 -3.66289 -1.02647 0
M  V30 18895 H 1828.4 -4.73912 -1.55592 0
M  V30 18896 H 1827.56 -4.63941 -3.90952 0
M  V30 18897 H 1826.3 -3.46978 -3.42721 0
M  V30 18898 H 1825.3 -5.16988 -1.87092 0
M  V30 18899 H 1826.53 -6.35991 -2.38102 0
M  V30 18900 H 1824.47 -5.04168 -4.19703 0
M  V30 18901 H 1824.39 -6.65892 -3.57944 0
M  V30 18902 H 1825.66 -6.22792 -4.68776 0
M  V30 18903 N 1829.89 0.224867 -1.55988 0
M  V30 18904 C 1831.3 0.574415 -1.48905 0
M  V30 18905 C 1831.5 1.87303 -0.74296 0
M  V30 18906 O 1830.56 2.50929 -0.28127 0
M  V30 18907 C 1831.87 0.656717 -2.93441 0
M  V30 18908 C 1833.42 0.747568 -3.03941 0
M  V30 18909 C 1833.9 0.861243 -4.4983 0
M  V30 18910 N 1835.39 0.92555 -4.53859 0
M  V30 18911 C 1836.12 1.03316 -5.64015 0
M  V30 18912 N 1835.62 1.10492 -6.83932 0
M  V30 18913 N 1837.41 1.06804 -5.5186 0
M  V30 18914 H 1829.56 -0.627339 -2.02924 0
M  V30 18915 H 1831.82 -0.219656 -0.922201 0
M  V30 18916 H 1831.53 -0.227845 -3.50961 0
M  V30 18917 H 1831.4 1.52142 -3.45156 0
M  V30 18918 H 1833.79 1.62257 -2.46489 0
M  V30 18919 H 1833.87 -0.142737 -2.55401 0
M  V30 18920 H 1833.52 -0.00929123 -5.07899 0
M  V30 18921 H 1833.45 1.76692 -4.96072 0
M  V30 18922 H 1835.94 0.880541 -3.67498 0
M  V30 18923 H 1836.25 1.18672 -7.63634 0
M  V30 18924 H 1834.6 1.07411 -6.8665 0
M  V30 18925 H 1837.79 1.0086 -4.57105 0
M  V30 18926 H 1837.96 1.14845 -6.37742 0
M  V30 18927 N 1831.37 1.49742 0.491438 0
M  V30 18928 C 1832.59 1.63703 1.27343 0
M  V30 18929 C 1833.02 0.312079 1.85493 0
M  V30 18930 O 1832.37 -0.721545 1.66323 0
M  V30 18931 C 1832.42 2.71549 2.37262 0
M  V30 18932 O 1831.53 2.31387 3.41371 0
M  V30 18933 H 1830.87 0.547605 0.375533 0
M  V30 18934 H 1833.4 1.95991 0.587243 0
M  V30 18935 H 1833.41 2.94009 2.82883 0
M  V30 18936 H 1832.08 3.6772 1.94306 0
M  V30 18937 H 1830.66 2.19295 3.01603 0
M  V30 18938 N 1832.84 -0.743177 1.38977 0
M  V30 18939 C 1834.26 -1.32104 1.3193 0
M  V30 18940 C 1834.61 -1.9619 -0.0201331 0
M  V30 18941 O 1833.73 -1.95764 -0.922245 0
M  V30 18942 C 1834.33 -2.40204 2.3893 0
M  V30 18943 C 1832.89 -2.93684 2.35428 0
M  V30 18944 C 1832.03 -1.67168 2.21247 0
M  V30 18945 H 1834.98 -0.541283 1.49184 0
M  V30 18946 H 1835 -3.20397 2.05246 0
M  V30 18947 H 1834.52 -1.93532 3.36403 0
M  V30 18948 H 1832.62 -3.44658 1.41568 0
M  V30 18949 H 1832.73 -3.47355 3.29971 0
M  V30 18950 H 1831.09 -1.91193 1.68278 0
M  V30 18951 H 1831.88 -1.22559 3.20678 0
M  V30 18952 N 1834.32 -1.24018 -0.972487 0
M  V30 18953 C 1835.57 -1.07489 -1.71145 0
M  V30 18954 C 1835.89 0.387798 -1.91105 0
M  V30 18955 O 1835.16 1.27725 -1.48537 0
M  V30 18956 H 1833.74 -0.394765 -0.634168 0
M  V30 18957 H 1836.4 -1.55861 -1.17018 0
M  V30 18958 H 1835.5 -1.56913 -2.69786 0
M  V30 18959 N 1835.8 1.17245 -1.05316 0
M  V30 18960 C 1836.73 2.23491 -0.67631 0
M  V30 18961 C 1837.71 1.66937 0.326507 0
M  V30 18962 O 1838.9 1.93127 0.203823 0
M  V30 18963 C 1836.03 3.47262 -0.0515755 0
M  V30 18964 C 1834.98 4.16646 -0.97929 0
M  V30 18965 C 1834.31 5.34254 -0.218369 0
M  V30 18966 C 1835.61 4.68736 -2.30399 0
M  V30 18967 H 1837.3 2.55269 -1.56455 0
M  V30 18968 H 1834.85 1.22699 -0.753714 0
M  V30 18969 H 1836.8 4.20805 0.223865 0
M  V30 18970 H 1835.52 3.14755 0.871614 0
M  V30 18971 H 1834.18 3.45017 -1.23931 0
M  V30 18972 H 1833.83 4.97998 0.707624 0
M  V30 18973 H 1833.53 5.81615 -0.83654 0
M  V30 18974 H 1835.05 6.1058 0.0497574 0
M  V30 18975 H 1836.47 5.3391 -2.08837 0
M  V30 18976 H 1834.87 5.2668 -2.87625 0
M  V30 18977 H 1835.94 3.85477 -2.94169 0
M  V30 18978 N 1837.28 0.834353 1.33702 0
M  V30 18979 C 1838.21 0.221764 2.28125 0
M  V30 18980 C 1839.22 -0.594917 1.51541 0
M  V30 18981 O 1840.41 -0.422726 1.73422 0
M  V30 18982 C 1837.51 -0.706778 3.31448 0
M  V30 18983 C 1836.69 0.0695756 4.37345 0
M  V30 18984 C 1835.74 -0.781623 5.20362 0
M  V30 18985 O 1834.77 -0.222459 5.68765 0
M  V30 18986 N 1835.97 -2.09968 5.41197 0
M  V30 18987 H 1838.74 1.03303 2.81333 0
M  V30 18988 H 1836.3 0.692389 1.46348 0
M  V30 18989 H 1838.29 -1.28109 3.83888 0
M  V30 18990 H 1836.86 -1.41877 2.78549 0
M  V30 18991 H 1836.08 0.825247 3.85465 0
M  V30 18992 H 1837.37 0.603576 5.05207 0
M  V30 18993 H 1836.77 -2.57756 5.03565 0
M  V30 18994 H 1835.32 -2.62258 5.96711 0
M  V30 18995 N 1838.76 -1.46125 0.590367 0
M  V30 18996 C 1840.03 -1.95597 0.0116648 0
M  V30 18997 C 1840.41 -1.53298 -1.45131 0
M  V30 18998 O 1839.76 -0.787298 -2.14508 0
M  V30 18999 C 1839.97 -3.48473 0.191727 0
M  V30 19000 C 1841.32 -4.24552 0.0635332 0
M  V30 19001 O 1842.34 -3.55995 0.120955 0
M  V30 19002 O 1841.2 -5.4646 -0.0657772 0
M  V30 19003 H 1838.3 -0.825748 -0.0454921 0
M  V30 19004 H 1840.84 -1.56372 0.659223 0
M  V30 19005 H 1839.61 -3.72172 1.20846 0
M  V30 19006 H 1839.24 -3.94545 -0.491905 0
M  V30 19007 N 1840.23 -0.328564 -1.54137 0
M  V30 19008 C 1841.18 0.550772 -2.21248 0
M  V30 19009 C 1842.17 1.07776 -1.19471 0
M  V30 19010 O 1843.36 1.01395 -1.4508 0
M  V30 19011 C 1840.49 1.70871 -2.97755 0
M  V30 19012 C 1839.58 1.19638 -4.06875 0
M  V30 19013 N 1839.97 0.404108 -5.04183 0
M  V30 19014 C 1838.26 1.47465 -4.20916 0
M  V30 19015 C 1838.97 0.127848 -5.81559 0
M  V30 19016 N 1837.94 0.715362 -5.38872 0
M  V30 19017 H 1841.74 -0.0617731 -2.93835 0
M  V30 19018 H 1839.26 -0.13467 -1.61841 0
M  V30 19019 H 1841.25 2.35048 -3.44322 0
M  V30 19020 H 1839.91 2.32468 -2.26691 0
M  V30 19021 H 1840.93 0.046507 -5.17879 0
M  V30 19022 H 1837.6 2.0961 -3.61067 0
M  V30 19023 H 1838.99 -0.510286 -6.69959 0
M  V30 19024 N 1841.71 1.57497 -0.0568439 0
M  V30 19025 C 1842.64 2.14892 0.913427 0
M  V30 19026 C 1843.62 1.07205 1.32065 0
M  V30 19027 O 1844.81 1.35172 1.39435 0
M  V30 19028 C 1841.94 2.69849 2.18629 0
M  V30 19029 C 1840.89 3.8257 1.91896 0
M  V30 19030 C 1840.22 4.24068 3.25685 0
M  V30 19031 C 1841.52 5.07463 1.23606 0
M  V30 19032 H 1843.21 2.96218 0.435347 0
M  V30 19033 H 1840.76 1.4249 0.20796 0
M  V30 19034 H 1842.71 3.08643 2.86911 0
M  V30 19035 H 1841.44 1.85723 2.68653 0
M  V30 19036 H 1840.09 3.44258 1.26024 0
M  V30 19037 H 1839.74 3.36884 3.73521 0
M  V30 19038 H 1839.44 5.00043 3.08594 0
M  V30 19039 H 1840.97 4.65466 3.95189 0
M  V30 19040 H 1842.38 5.43667 1.81931 0
M  V30 19041 H 1840.78 5.88619 1.16823 0
M  V30 19042 H 1841.85 4.84432 0.212918 0
M  V30 19043 O 1843.23 -0.0841476 1.61281 0
M  V30 19044 H 1843.92 -0.711501 1.80159 0
M  V30 END ATOM
M  V30 BEGIN BOND
M  V30 END BOND
M  V30 END CTAB
M  END
$$$$
