drugbank_target|P10809 60 kDa heat shock protein, mitochondrial (DB09130)
 OpenBabel12092121053D

  0  0  0     0  0            999 V3000
M  V30 BEGIN CTAB
M  V30 COUNTS 8736 8776 0 0 0
M  V30 BEGIN ATOM
M  V30 1 H -0.908 1.98254 -0.117106 0
M  V30 2 N 0 1.576 0 0
M  V30 3 C 0.933 2.03868 1.02534 0
M  V30 4 C 1.911 0.928543 1.3348 0
M  V30 5 O 3.095 1.19667 1.45644 0
M  V30 6 C 0.222 2.43627 2.35294 0
M  V30 7 C -0.732 3.65373 2.2001 0
M  V30 8 S 0.101 5.13292 1.52614 0
M  V30 9 C 1.257 5.56322 2.86805 0
M  V30 10 H 1.49 2.90518 0.631377 0
M  V30 11 H -0.977 1.52953 0.210867 0
M  V30 12 H 0.981 2.67203 3.11629 0
M  V30 13 H -0.358 1.57376 2.7183 0
M  V30 14 H -1.165 3.90944 3.18086 0
M  V30 15 H -1.563 3.418 1.51819 0
M  V30 16 H 0.729 5.58782 3.83104 0
M  V30 17 H 1.672 6.56266 2.65933 0
M  V30 18 H 2.08 4.83886 2.90714 0
M  V30 19 N 1.4781 -0.272755 1.55222 0
M  V30 20 C 2.4081 -1.34136 1.91127 0
M  V30 21 C 3.3891 -1.51513 0.773168 0
M  V30 22 O 4.5741 -1.64552 1.03132 0
M  V30 23 C 1.7041 -2.70083 2.1834 0
M  V30 24 C 0.6581 -2.67437 3.34158 0
M  V30 25 C -0.0159 -4.06938 3.46851 0
M  V30 26 C 1.2841 -2.26686 4.70543 0
M  V30 27 H 2.9781 -1.04333 2.80633 0
M  V30 28 H 0.5241 -0.500454 1.35024 0
M  V30 29 H 2.4771 -3.44952 2.42046 0
M  V30 30 H 1.2011 -3.01469 1.25634 0
M  V30 31 H -0.1399 -1.95026 3.1042 0
M  V30 32 H -0.4919 -4.35547 2.51611 0
M  V30 33 H -0.7919 -4.06062 4.2472 0
M  V30 34 H 0.7321 -4.83545 3.72849 0
M  V30 35 H 2.1461 -2.91277 4.93792 0
M  V30 36 H 0.5431 -2.36971 5.5133 0
M  V30 37 H 1.6131 -1.21818 4.69349 0
M  V30 38 N 2.9562 -1.48159 -0.537278 0
M  V30 39 C 4.3722 -1.34118 -0.865129 0
M  V30 40 C 4.5722 -0.346678 -1.98495 0
M  V30 41 O 3.6282 0.234715 -2.51407 0
M  V30 42 C 4.9412 -2.73963 -1.23954 0
M  V30 43 C 6.4892 -2.82397 -1.34984 0
M  V30 44 C 6.9642 -4.22928 -1.75772 0
M  V30 45 N 8.4552 -4.25566 -1.82887 0
M  V30 46 C 9.1902 -5.31235 -2.15817 0
M  V30 47 N 8.6862 -6.47189 -2.47222 0
M  V30 48 N 10.4792 -5.18624 -2.16761 0
M  V30 49 H 2.6302 -2.1144 0.201715 0
M  V30 50 H 4.8932 -0.947598 0.0275949 0
M  V30 51 H 4.5992 -3.48264 -0.490381 0
M  V30 52 H 4.4732 -3.0702 -2.19132 0
M  V30 53 H 6.8602 -2.08356 -2.08978 0
M  V30 54 H 6.9412 -2.5297 -0.379448 0
M  V30 55 H 6.5852 -4.97482 -1.02341 0
M  V30 56 H 6.5152 -4.49794 -2.73848 0
M  V30 57 H 9.0062 -3.41924 -1.60924 0
M  V30 58 H 9.3192 -7.23564 -2.71433 0
M  V30 59 H 7.6642 -6.50476 -2.44757 0
M  V30 60 H 10.8552 -4.27056 -1.91679 0
M  V30 61 H 11.0282 -6.01078 -2.42093 0
M  V30 62 N 4.4343 0.785586 -1.36625 0
M  V30 63 C 5.3643 1.91259 -1.33949 0
M  V30 64 C 6.3453 1.68795 -0.210325 0
M  V30 65 O 7.5303 1.89854 -0.408561 0
M  V30 66 C 4.6603 3.28339 -1.13186 0
M  V30 67 C 3.6143 3.65335 -2.22967 0
M  V30 68 C 2.9403 5.00806 -1.87342 0
M  V30 69 C 4.2403 3.7352 -3.65075 0
M  V30 70 H 5.9343 1.93755 -2.28253 0
M  V30 71 H 3.4803 0.930788 -1.09874 0
M  V30 72 H 5.4333 4.06804 -1.09948 0
M  V30 73 H 4.1573 3.2624 -0.153332 0
M  V30 74 H 2.8163 2.89169 -2.25337 0
M  V30 75 H 2.4643 4.95233 -0.880545 0
M  V30 76 H 2.1643 5.26529 -2.60846 0
M  V30 77 H 3.6883 5.81687 -1.85667 0
M  V30 78 H 5.1023 4.42168 -3.64911 0
M  V30 79 H 3.4993 4.10731 -4.37516 0
M  V30 80 H 4.5693 2.74527 -3.99703 0
M  V30 81 N 5.9124 1.20967 1.01018 0
M  V30 82 C 7.3234 1.02319 1.56165 0
M  V30 83 C 7.6744 -0.418546 1.91684 0
M  V30 84 O 6.7994 -1.30096 1.72928 0
M  V30 85 C 7.3944 1.85109 2.8376 0
M  V30 86 C 5.9534 1.70809 3.35412 0
M  V30 87 C 5.1004 1.82643 2.08655 0
M  V30 88 H 8.0514 1.35065 0.833255 0
M  V30 89 H 8.0724 1.35827 3.55431 0
M  V30 90 H 7.5844 2.90035 2.57878 0
M  V30 91 H 5.6854 0.685464 3.66241 0
M  V30 92 H 5.7984 2.52467 4.07182 0
M  V30 93 H 4.1624 1.25896 2.21409 0
M  V30 94 H 4.9454 2.89066 1.85191 0
M  V30 95 N 7.3905 -1.2043 1.01659 0
M  V30 96 C 8.6185 -1.93777 0.725132 0
M  V30 97 C 9.0335 -1.74772 -0.714166 0
M  V30 98 O 8.3905 -1.06169 -1.4844 0
M  V30 99 C 8.4415 -3.45876 1.05129 0
M  V30 100 O 8.1625 -3.6426 2.43406 0
M  V30 101 C 9.6635 -4.36368 0.780891 0
M  V30 102 H 6.8835 -0.615901 0.266284 0
M  V30 103 H 9.4275 -1.52922 1.35776 0
M  V30 104 H 7.5825 -3.8461 0.464065 0
M  V30 105 H 7.9965 -4.58246 2.55169 0
M  V30 106 H 9.4705 -5.41743 1.05918 0
M  V30 107 H 9.9475 -4.38275 -0.284937 0
M  V30 108 H 10.5535 -4.03296 1.35027 0
M  V30 109 N 8.8686 -0.792821 -1.36206 0
M  V30 110 C 10.1146 -0.36733 -1.99446 0
M  V30 111 C 10.4476 1.05917 -1.62774 0
M  V30 112 O 9.7226 1.7324 -0.88421 0
M  V30 113 C 10.0056 -0.535044 -3.56103 0
M  V30 114 C 9.8586 -2.00548 -4.02617 0
M  V30 115 C 11.1776 0.0478191 -4.40074 0
M  V30 116 H 8.2966 -0.134941 -0.724541 0
M  V30 117 H 10.9386 -0.999794 -1.61568 0
M  V30 118 H 9.0886 0.00336329 -3.885 0
M  V30 119 H 10.7606 -2.60521 -3.80692 0
M  V30 120 H 9.0036 -2.50686 -3.54032 0
M  V30 121 H 9.6746 -2.07377 -5.11565 0
M  V30 122 H 12.1506 -0.411822 -4.14057 0
M  V30 123 H 11.0266 -0.0995336 -5.4881 0
M  V30 124 H 11.2876 1.14025 -4.27142 0
M  V30 125 N 10.3467 1.47872 -0.545128 0
M  V30 126 C 11.5937 2.02493 -0.0165858 0
M  V30 127 C 11.9217 1.42073 1.32836 0
M  V30 128 O 11.1767 0.561459 1.87473 0
M  V30 129 C 11.4757 3.57131 0.13867 0
M  V30 130 C 11.1417 4.36411 -1.13384 0
M  V30 131 C 9.8037 4.57792 -1.48256 0
M  V30 132 C 12.1557 4.82223 -1.97764 0
M  V30 133 C 9.4837 5.22233 -2.67376 0
M  V30 134 C 11.8357 5.47977 -3.16076 0
M  V30 135 C 10.4997 5.67593 -3.51275 0
M  V30 136 H 9.7697 0.740975 -0.00606918 0
M  V30 137 H 12.4167 1.77683 -0.714207 0
M  V30 138 H 10.7217 3.80865 0.919172 0
M  V30 139 H 12.4187 3.97031 0.562782 0
M  V30 140 H 9.0087 4.2004 -0.852297 0
M  V30 141 H 13.1927 4.65493 -1.72132 0
M  V30 142 H 8.4487 5.35616 -2.94831 0
M  V30 143 H 12.6227 5.8244 -3.81755 0
M  V30 144 H 10.2497 6.17298 -4.43675 0
M  V30 145 N 11.8248 0.280983 1.55075 0
M  V30 146 C 13.2408 -0.0729964 1.59433 0
M  V30 147 C 13.4408 -1.5411 1.29817 0
M  V30 148 O 12.4968 -2.29086 1.06187 0
M  V30 149 C 13.8098 0.306921 2.9913 0
M  V30 150 C 15.3578 0.254023 3.11968 0
M  V30 151 C 15.8328 0.608467 4.5394 0
M  V30 152 N 17.3238 0.560241 4.59799 0
M  V30 153 C 18.0588 0.80722 5.6769 0
M  V30 154 N 17.5548 1.11912 6.83701 0
M  V30 155 N 19.3478 0.735623 5.57266 0
M  V30 156 H 11.4988 1.238 1.7259 0
M  V30 157 H 13.7618 0.500547 0.805082 0
M  V30 158 H 13.4678 1.32816 3.25657 0
M  V30 159 H 13.3418 -0.349363 3.75579 0
M  V30 160 H 15.7288 -0.75794 2.852 0
M  V30 161 H 15.8098 0.944649 2.37718 0
M  V30 162 H 15.4538 1.61814 4.81434 0
M  V30 163 H 15.3838 -0.104013 5.26497 0
M  V30 164 H 17.8748 0.329288 3.76463 0
M  V30 165 H 18.1878 1.29409 7.61888 0
M  V30 166 H 16.5328 1.15695 6.85303 0
M  V30 167 H 19.7238 0.491752 4.6551 0
M  V30 168 H 19.8968 0.931482 6.4127 0
M  V30 169 N 13.3029 -1.57598 0.00835791 0
M  V30 170 C 14.2349 -2.05811 -1.00868 0
M  V30 171 C 15.2479 -0.977579 -1.30182 0
M  V30 172 O 16.4369 -1.25421 -1.27011 0
M  V30 173 C 13.5369 -2.45016 -2.34137 0
M  V30 174 C 12.7099 -3.75903 -2.23643 0
M  V30 175 C 11.7689 -4.01884 -3.3967 0
M  V30 176 O 10.7949 -4.72433 -3.17483 0
M  V30 177 N 11.9969 -3.50432 -4.62793 0
M  V30 178 H 14.7619 -2.93684 -0.597458 0
M  V30 179 H 12.3229 -1.60909 -0.178852 0
M  V30 180 H 14.3149 -2.59506 -3.10546 0
M  V30 181 H 12.8849 -1.62618 -2.66972 0
M  V30 182 H 12.1049 -3.7141 -1.32091 0
M  V30 183 H 13.3929 -4.61695 -2.13812 0
M  V30 184 H 12.7909 -2.93317 -4.83716 0
M  V30 185 H 11.3479 -3.70236 -5.3644 0
M  V30 186 N 14.781 0.264519 -1.55364 0
M  V30 187 C 15.714 1.35297 -1.83766 0
M  V30 188 C 16.692 1.47171 -0.691336 0
M  V30 189 O 17.876 1.63663 -0.935238 0
M  V30 190 C 15.003 2.72847 -2.00679 0
M  V30 191 C 14.049 2.78214 -3.23263 0
M  V30 192 S 14.882 2.36601 -4.80396 0
M  V30 193 C 16.038 3.7611 -5.00292 0
M  V30 194 H 16.271 1.11003 -2.758 0
M  V30 195 H 13.804 0.464596 -1.47244 0
M  V30 196 H 15.762 3.52057 -2.11108 0
M  V30 197 H 14.423 2.94388 -1.09518 0
M  V30 198 H 13.616 3.7919 -3.3201 0
M  V30 199 H 13.218 2.07034 -3.11469 0
M  V30 200 H 15.51 4.71457 -4.86554 0
M  V30 201 H 16.453 3.7231 -6.02321 0
M  V30 202 H 16.861 3.67806 -4.28228 0
M  V30 203 N 16.2591 1.48442 0.529413 0
M  V30 204 C 17.6751 1.34575 0.858004 0
M  V30 205 C 17.8751 0.3572 1.98309 0
M  V30 206 O 16.9311 -0.221379 2.51528 0
M  V30 207 C 18.2441 2.74617 1.22499 0
M  V30 208 C 19.7921 2.83109 1.33484 0
M  V30 209 C 20.2671 4.23854 1.73526 0
M  V30 210 N 21.7581 4.2653 1.80628 0
M  V30 211 C 22.4931 5.32372 2.12997 0
M  V30 212 N 21.9891 6.48491 2.43786 0
M  V30 213 N 23.7821 5.19766 2.14008 0
M  V30 214 H 15.9331 2.1133 -0.212925 0
M  V30 215 H 18.1961 0.947439 -0.0326199 0
M  V30 216 H 17.9021 3.4852 0.471905 0
M  V30 217 H 17.7761 3.08177 2.17501 0
M  V30 218 H 20.1631 2.09462 2.0787 0
M  V30 219 H 20.2441 2.53168 0.366027 0
M  V30 220 H 19.8881 4.98018 0.997013 0
M  V30 221 H 19.8181 4.5124 2.71459 0
M  V30 222 H 22.3091 3.42772 1.59108 0
M  V30 223 H 22.6221 7.24993 2.67592 0
M  V30 224 H 20.9671 6.51765 2.41304 0
M  V30 225 H 24.1581 4.28066 1.89412 0
M  V30 226 H 24.3311 6.02354 2.38902 0
M  V30 227 N 17.7372 -0.778329 1.37039 0
M  V30 228 C 19.1482 -1.35421 1.28523 0
M  V30 229 C 19.4992 -1.96075 -0.0700901 0
M  V30 230 O 18.6242 -1.93352 -0.971801 0
M  V30 231 C 19.2192 -2.46211 2.32735 0
M  V30 232 C 17.7782 -2.99585 2.27873 0
M  V30 233 C 16.9252 -1.72748 2.16918 0
M  V30 234 H 19.8762 -0.5791 1.47757 0
M  V30 235 H 19.8972 -3.2552 1.9702 0
M  V30 236 H 19.4092 -2.02036 3.31365 0
M  V30 237 H 17.5102 -3.48152 1.32745 0
M  V30 238 H 17.6232 -3.55646 3.21018 0
M  V30 239 H 15.9872 -1.95416 1.63354 0
M  V30 240 H 16.7702 -1.30686 3.17452 0
M  V30 241 N 19.2153 -1.21501 -1.00376 0
M  V30 242 C 20.4613 -1.03452 -1.74429 0
M  V30 243 C 20.7943 0.430764 -1.89362 0
M  V30 244 O 20.0693 1.31962 -1.42886 0
M  V30 245 C 20.3523 -1.73375 -3.15615 0
M  V30 246 C 20.2053 -3.27431 -3.08397 0
M  V30 247 C 21.5243 -1.47732 -4.14564 0
M  V30 248 H 18.6433 -0.377226 -0.633143 0
M  V30 249 H 21.2853 -1.49693 -1.17013 0
M  V30 250 H 19.4353 -1.34064 -3.64636 0
M  V30 251 H 21.1073 -3.76119 -2.67081 0
M  V30 252 H 19.3503 -3.5767 -2.45468 0
M  V30 253 H 20.0213 -3.71524 -4.08258 0
M  V30 254 H 22.4973 -1.8186 -3.74254 0
M  V30 255 H 21.3733 -1.99169 -5.11491 0
M  V30 256 H 21.6343 -0.407589 -4.40217 0
M  V30 257 N 20.6934 1.19889 -1.02296 0
M  V30 258 C 21.9184 1.9393 -0.735237 0
M  V30 259 C 22.3434 1.74639 0.698782 0
M  V30 260 O 21.7014 1.04481 1.48167 0
M  V30 261 C 21.7494 3.43916 -1.08417 0
M  V30 262 O 20.8534 4.11917 -0.199446 0
M  V30 263 H 20.1944 0.605645 -0.272196 0
M  V30 264 H 22.7244 1.52137 -1.36804 0
M  V30 265 H 22.7344 3.9456 -1.03856 0
M  V30 266 H 21.4094 3.5728 -2.12894 0
M  V30 267 H 19.9864 3.71666 -0.303136 0
M  V30 268 N 22.1715 0.800033 1.35784 0
M  V30 269 C 23.5875 0.482977 1.52117 0
M  V30 270 C 23.7875 -0.996948 1.75109 0
M  V30 271 O 22.8435 -1.78216 1.78872 0
M  V30 272 C 24.1565 1.32264 2.70049 0
M  V30 273 C 25.7045 1.31742 2.83924 0
M  V30 274 C 26.1795 2.14106 4.04874 0
M  V30 275 N 27.6705 2.11607 4.12039 0
M  V30 276 C 28.4055 2.72099 5.04727 0
M  V30 277 N 27.9015 3.41492 6.02789 0
M  V30 278 N 29.6945 2.61776 4.97423 0
M  V30 279 H 21.8455 1.75856 1.19115 0
M  V30 280 H 24.1085 0.748122 0.582252 0
M  V30 281 H 23.8145 2.37261 2.59616 0
M  V30 282 H 23.6885 0.971303 3.6448 0
M  V30 283 H 26.0755 0.275333 2.93813 0
M  V30 284 H 26.1565 1.70859 1.9037 0
M  V30 285 H 25.8005 3.18351 3.95746 0
M  V30 286 H 25.7305 1.72353 4.97596 0
M  V30 287 H 28.2215 1.61112 3.41835 0
M  V30 288 H 28.5345 3.84953 6.70098 0
M  V30 289 H 26.8795 3.45596 6.02983 0
M  V30 290 H 30.0705 2.07157 4.19766 0
M  V30 291 H 30.2435 3.0921 5.69468 0
M  V30 292 N 23.6496 -1.47581 0.552962 0
M  V30 293 C 24.8956 -2.02782 0.0273648 0
M  V30 294 C 25.2286 -1.42687 -1.31734 0
M  V30 295 O 24.5036 -0.580897 -1.85623 0
M  V30 296 C 24.7866 -3.60031 -0.0702371 0
M  V30 297 C 24.6396 -4.30566 1.30126 0
M  V30 298 C 25.9586 -4.33028 -0.785771 0
M  V30 299 H 23.0776 -0.736912 0.0114185 0
M  V30 300 H 25.7196 -1.76056 0.714432 0
M  V30 301 H 23.8696 -3.82932 -0.655382 0
M  V30 302 H 25.5416 -4.19018 1.92929 0
M  V30 303 H 23.7846 -3.91086 1.87709 0
M  V30 304 H 24.4556 -5.39114 1.18573 0
M  V30 305 H 26.9316 -4.15095 -0.288982 0
M  V30 306 H 25.8076 -5.42695 -0.823013 0
M  V30 307 H 26.0686 -4.01945 -1.841 0
M  V30 308 N 25.1277 -0.289203 -1.54924 0
M  V30 309 C 26.0577 0.58549 -2.2604 0
M  V30 310 C 27.0387 1.14753 -1.25562 0
M  V30 311 O 28.2237 1.17906 -1.54311 0
M  V30 312 C 25.3537 1.76305 -2.99222 0
M  V30 313 C 24.3077 1.33191 -4.06748 0
M  V30 314 C 23.6337 2.5937 -4.6758 0
M  V30 315 C 24.9337 0.471775 -5.20165 0
M  V30 316 H 26.6277 -0.00763532 -2.99399 0
M  V30 317 H 24.1737 -0.00511229 -1.43999 0
M  V30 318 H 26.1267 2.38097 -3.47689 0
M  V30 319 H 24.8507 2.38223 -2.23422 0
M  V30 320 H 23.5097 0.737121 -3.59113 0
M  V30 321 H 23.1577 3.19576 -3.88433 0
M  V30 322 H 22.8577 2.31228 -5.40192 0
M  V30 323 H 24.3817 3.21985 -5.18804 0
M  V30 324 H 25.7957 0.995056 -5.64599 0
M  V30 325 H 24.1927 0.284639 -5.99425 0
M  V30 326 H 25.2627 -0.506041 -4.82252 0
M  V30 327 N 26.6058 1.57591 -0.0167156 0
M  V30 328 C 27.5688 2.08393 0.954204 0
M  V30 329 C 28.5688 0.996531 1.26198 0
M  V30 330 O 29.7588 1.25858 1.20438 0
M  V30 331 C 26.8908 2.5394 2.27436 0
M  V30 332 H 28.0838 2.95455 0.514451 0
M  V30 333 H 25.6368 1.54582 0.231089 0
M  V30 334 H 26.3718 1.70171 2.76066 0
M  V30 335 H 26.1568 3.33371 2.06412 0
M  V30 336 H 27.6468 2.93512 2.97053 0
M  V30 337 N 28.0839 -0.256276 1.55502 0
M  V30 338 C 29.4949 -0.826068 1.67431 0
M  V30 339 C 29.8459 -1.86396 0.612446 0
M  V30 340 O 28.9709 -2.15031 -0.243025 0
M  V30 341 C 29.5659 -1.50512 3.03532 0
M  V30 342 C 28.1249 -2.02273 3.17431 0
M  V30 343 C 27.2719 -0.870548 2.63281 0
M  V30 344 H 30.2229 -0.0322728 1.58667 0
M  V30 345 H 30.2439 -2.37279 2.97454 0
M  V30 346 H 29.7559 -0.749484 3.80794 0
M  V30 347 H 27.8569 -2.80746 2.44974 0
M  V30 348 H 27.9699 -2.22655 4.24219 0
M  V30 349 H 26.3339 -1.26851 2.20864 0
M  V30 350 H 27.1169 -0.128149 3.43061 0
M  V30 351 N 29.562 -1.4872 -0.521534 0
M  V30 352 C 30.512 -1.60269 -1.62166 0
M  V30 353 C 31.496 -0.45935 -1.54204 0
M  V30 354 O 32.688 -0.711241 -1.62081 0
M  V30 355 C 29.817 -1.65344 -3.00859 0
M  V30 356 C 28.903 -2.85187 -3.13894 0
M  V30 357 N 29.294 -4.09509 -2.96877 0
M  V30 358 C 27.592 -2.82695 -3.44963 0
M  V30 359 C 28.293 -4.89959 -3.13552 0
M  V30 360 N 27.269 -4.22934 -3.41508 0
M  V30 361 H 31.071 -2.5413 -1.47632 0
M  V30 362 H 28.585 -1.45209 -0.727194 0
M  V30 363 H 30.582 -1.71713 -3.79895 0
M  V30 364 H 29.242 -0.726058 -3.16478 0
M  V30 365 H 30.253 -4.39814 -2.73467 0
M  V30 366 H 26.93 -1.99249 -3.66887 0
M  V30 367 H 28.32 -5.98654 -3.05061 0
M  V30 368 N 31.0401 0.771051 -1.3745 0
M  V30 369 C 31.9701 1.89827 -1.3597 0
M  V30 370 C 32.9511 1.68562 -0.228216 0
M  V30 371 O 34.1361 1.8941 -0.428675 0
M  V30 372 C 31.2661 3.2712 -1.16662 0
M  V30 373 C 30.2201 3.6295 -2.2683 0
M  V30 374 C 29.5461 4.98791 -1.92644 0
M  V30 375 C 30.8461 3.69627 -3.69017 0
M  V30 376 H 32.5401 1.91323 -2.30295 0
M  V30 377 H 30.0861 0.919082 -1.10855 0
M  V30 378 H 32.0391 4.05615 -1.14256 0
M  V30 379 H 30.7631 3.26059 -0.187926 0
M  V30 380 H 29.4221 2.86763 -2.28392 0
M  V30 381 H 29.0701 4.94271 -0.933021 0
M  V30 382 H 28.7701 5.23733 -2.66416 0
M  V30 383 H 30.2941 5.79685 -1.91826 0
M  V30 384 H 31.7081 4.38273 -3.69581 0
M  V30 385 H 30.1051 4.06067 -4.41848 0
M  V30 386 H 31.1751 2.70273 -4.02592 0
M  V30 387 N 32.5182 1.22032 0.997298 0
M  V30 388 C 33.7462 1.06841 1.7718 0
M  V30 389 C 34.1612 -0.381325 1.84909 0
M  V30 390 O 33.5182 -1.26437 1.31605 0
M  V30 391 C 33.5692 1.66814 3.20711 0
M  V30 392 O 33.2902 3.06116 3.13408 0
M  V30 393 C 34.7912 1.56838 4.14628 0
M  V30 394 H 32.0112 0.374782 0.556578 0
M  V30 395 H 34.5552 1.61532 1.2541 0
M  V30 396 H 32.7102 1.16196 3.69564 0
M  V30 397 H 33.1242 3.34926 4.0364 0
M  V30 398 H 34.5982 2.03532 5.13107 0
M  V30 399 H 35.0752 0.524155 4.36061 0
M  V30 400 H 35.6812 2.06741 3.7167 0
M  V30 401 N 33.9963 -1.19345 1.0293 0
M  V30 402 C 35.4123 -1.41069 0.746446 0
M  V30 403 C 35.6123 -1.90078 -0.668776 0
M  V30 404 O 34.6683 -2.0778 -1.4347 0
M  V30 405 C 35.9813 -2.42141 1.78292 0
M  V30 406 C 37.5293 -2.55887 1.80252 0
M  V30 407 C 38.0043 -3.60214 2.8286 0
M  V30 408 N 39.4953 -3.67711 2.81679 0
M  V30 409 C 40.2303 -4.48128 3.57727 0
M  V30 410 N 39.7263 -5.32248 4.43491 0
M  V30 411 N 41.5193 -4.42782 3.46267 0
M  V30 412 H 33.6703 -0.858536 1.94275 0
M  V30 413 H 35.9333 -0.439541 0.839945 0
M  V30 414 H 35.6393 -2.13155 2.79746 0
M  V30 415 H 35.5133 -3.41323 1.60557 0
M  V30 416 H 37.9003 -2.84196 0.794757 0
M  V30 417 H 37.9813 -1.56858 2.02062 0
M  V30 418 H 37.6253 -3.32647 3.83807 0
M  V30 419 H 37.5553 -4.58895 2.58307 0
M  V30 420 H 40.0463 -3.07634 2.19476 0
M  V30 421 H 40.3593 -5.90729 4.98256 0
M  V30 422 H 38.7043 -5.31707 4.47564 0
M  V30 423 H 41.8953 -3.76107 2.78677 0
M  V30 424 H 42.0683 -5.05215 4.05785 0
M  V30 425 N 35.4744 -0.807222 -1.35358 0
M  V30 426 C 36.4374 -0.223665 -2.28106 0
M  V30 427 C 37.4374 0.589354 -1.4961 0
M  V30 428 O 38.6274 0.407745 -1.69361 0
M  V30 429 C 35.7594 0.688149 -3.33882 0
M  V30 430 H 36.9524 -1.04169 -2.81227 0
M  V30 431 H 34.5054 -0.577921 -1.45223 0
M  V30 432 H 35.2404 1.52984 -2.85948 0
M  V30 433 H 35.0254 0.10687 -3.91954 0
M  V30 434 H 36.5154 1.09075 -4.03104 0
M  V30 435 N 36.9525 1.47285 -0.560781 0
M  V30 436 C 38.1825 2.06555 -0.0429638 0
M  V30 437 C 38.5905 1.41339 1.25777 0
M  V30 438 O 37.9335 0.505182 1.76617 0
M  V30 439 C 37.9955 3.58827 0.219887 0
M  V30 440 C 37.6595 4.46105 -0.991944 0
M  V30 441 C 38.6565 4.84 -1.89843 0
M  V30 442 C 36.3415 4.87567 -1.20762 0
M  V30 443 C 38.3355 5.6216 -3.00425 0
M  V30 444 C 36.0225 5.65491 -2.31653 0
M  V30 445 C 37.0205 6.02699 -3.21315 0
M  V30 446 O 36.7085 6.79052 -4.30283 0
M  V30 447 H 36.4405 0.674537 -0.0444468 0
M  V30 448 H 38.9945 1.90225 -0.774818 0
M  V30 449 H 37.2245 3.73383 1.00609 0
M  V30 450 H 38.9135 4.00103 0.683522 0
M  V30 451 H 39.6795 4.52564 -1.74387 0
M  V30 452 H 35.5585 4.5807 -0.518893 0
M  V30 453 H 39.1025 5.9112 -3.70436 0
M  V30 454 H 34.9995 5.9634 -2.47081 0
M  V30 455 H 35.7675 6.9745 -4.28376 0
M  V30 456 N 38.4306 0.297415 1.54768 0
M  V30 457 C 39.3936 -0.567375 2.22066 0
M  V30 458 C 40.3936 -1.06409 1.20556 0
M  V30 459 O 41.5836 -0.960691 1.45315 0
M  V30 460 C 38.7156 -1.78517 2.90421 0
M  V30 461 H 39.9086 0.0205534 2.99893 0
M  V30 462 H 37.4616 0.0482163 1.56226 0
M  V30 463 H 38.1966 -2.41303 2.16664 0
M  V30 464 H 37.9816 -1.43669 3.64831 0
M  V30 465 H 39.4716 -2.39964 3.41771 0
M  V30 466 N 39.9087 -1.5758 0.0250728 0
M  V30 467 C 40.8557 -2.09973 -0.958129 0
M  V30 468 C 41.8257 -1.00085 -1.3256 0
M  V30 469 O 43.0107 -1.27481 -1.41962 0
M  V30 470 C 40.1507 -2.62812 -2.2366 0
M  V30 471 C 39.2637 -3.86693 -1.92594 0
M  V30 472 C 38.3987 -4.27941 -3.14707 0
M  V30 473 C 37.4377 -5.44591 -2.79442 0
M  V30 474 N 36.5747 -5.81014 -3.94167 0
M  V30 475 H 41.4147 -2.937 -0.504428 0
M  V30 476 H 38.9517 -1.45172 -0.237392 0
M  V30 477 H 40.9097 -2.91536 -2.98434 0
M  V30 478 H 39.5397 -1.81922 -2.66654 0
M  V30 479 H 38.5917 -3.64723 -1.0808 0
M  V30 480 H 39.9037 -4.71547 -1.62619 0
M  V30 481 H 39.0577 -4.58079 -3.97804 0
M  V30 482 H 37.7967 -3.41845 -3.4784 0
M  V30 483 H 36.8017 -5.1415 -1.94755 0
M  V30 484 H 38.0267 -6.32382 -2.47528 0
M  V30 485 H 35.9727 -4.97874 -4.2715 0
M  V30 486 H 35.8897 -6.60498 -3.67801 0
M  V30 487 H 37.1577 -6.15756 -4.7798 0
M  V30 488 N 41.3868 0.248026 -1.55636 0
M  V30 489 C 42.6638 0.998988 -1.68165 0
M  V30 490 C 43.0438 2.03409 -0.564621 0
M  V30 491 O 42.3918 2.24378 0.432076 0
M  V30 492 C 42.6018 1.63334 -3.0842 0
M  V30 493 C 43.9498 2.13562 -3.66983 0
M  V30 494 O 44.9738 1.73277 -3.11213 0
M  V30 495 O 43.8328 2.87526 -4.64749 0
M  V30 496 H 40.9268 0.464933 -0.683935 0
M  V30 497 H 43.4728 0.241902 -1.67967 0
M  V30 498 H 42.2448 0.884583 -3.8117 0
M  V30 499 H 41.8678 2.45666 -3.12624 0
M  V30 500 N 42.8649 1.48995 0.513639 0
M  V30 501 C 44.1109 1.58076 1.27042 0
M  V30 502 C 44.4439 0.261026 1.92438 0
M  V30 503 O 43.7189 -0.734393 1.80103 0
M  V30 504 C 44.0019 2.73091 2.34719 0
M  V30 505 C 43.8549 4.14821 1.73907 0
M  V30 506 C 45.1739 2.83796 3.36375 0
M  V30 507 H 42.2929 0.575391 0.460536 0
M  V30 508 H 44.9349 1.81232 0.570516 0
M  V30 509 H 43.0849 2.53479 2.94416 0
M  V30 510 H 44.7569 4.45917 1.18135 0
M  V30 511 H 42.9999 4.21058 1.0437 0
M  V30 512 H 43.6709 4.91147 2.51949 0
M  V30 513 H 46.1469 3.01611 2.86653 0
M  V30 514 H 45.0229 3.65971 4.09093 0
M  V30 515 H 45.2839 1.92624 3.9793 0
M  V30 516 N 44.343 -0.763751 1.37857 0
M  V30 517 C 45.29 -1.87726 1.34267 0
M  V30 518 C 46.26 -1.64807 0.206879 0
M  V30 519 O 47.445 -1.86613 0.397508 0
M  V30 520 C 44.585 -3.24896 1.16346 0
M  V30 521 C 43.698 -3.59716 2.39225 0
M  V30 522 C 42.833 -4.86137 2.14114 0
M  V30 523 C 41.872 -5.13711 3.32817 0
M  V30 524 N 41.009 -6.31323 3.07206 0
M  V30 525 H 45.849 -1.90129 2.29466 0
M  V30 526 H 43.386 -0.929433 1.14017 0
M  V30 527 H 45.344 -4.04036 1.03975 0
M  V30 528 H 43.974 -3.21847 0.247909 0
M  V30 529 H 43.026 -2.75498 2.62307 0
M  V30 530 H 44.338 -3.76027 3.27728 0
M  V30 531 H 43.492 -5.73198 1.9882 0
M  V30 532 H 42.231 -4.71945 1.22961 0
M  V30 533 H 41.236 -4.25123 3.48641 0
M  V30 534 H 42.461 -5.29807 4.24832 0
M  V30 535 H 40.407 -6.18474 2.1869 0
M  V30 536 H 40.324 -6.48087 3.89254 0
M  V30 537 H 41.592 -7.213 2.95546 0
M  V30 538 N 45.8211 -1.22559 -0.990812 0
M  V30 539 C 47.0681 -1.05141 -1.73065 0
M  V30 540 C 47.3961 0.413191 -1.9006 0
M  V30 541 O 46.6511 1.32257 -1.44245 0
M  V30 542 C 46.9501 -1.71011 -3.13831 0
M  V30 543 C 46.6161 -3.20911 -3.16745 0
M  V30 544 C 45.2781 -3.61812 -3.17247 0
M  V30 545 C 47.6301 -4.16846 -3.12872 0
M  V30 546 C 44.9581 -4.97127 -3.1158 0
M  V30 547 C 47.3101 -5.5214 -3.08746 0
M  V30 548 C 45.9741 -5.92419 -3.07565 0
M  V30 549 H 45.2441 -0.384738 -0.633291 0
M  V30 550 H 47.8911 -1.5235 -1.16025 0
M  V30 551 H 46.1961 -1.16133 -3.74193 0
M  V30 552 H 47.8931 -1.55023 -3.69823 0
M  V30 553 H 44.4831 -2.88344 -3.17105 0
M  V30 554 H 48.6671 -3.86263 -3.11632 0
M  V30 555 H 43.9231 -5.27562 -3.09012 0
M  V30 556 H 48.0971 -6.26201 -3.04705 0
M  V30 557 H 45.7241 -6.97236 -3.02929 0
M  V30 558 N 47.2992 1.18797 -1.03562 0
M  V30 559 C 48.5472 1.88278 -0.734569 0
M  V30 560 C 48.8682 1.8043 0.739586 0
M  V30 561 O 48.1382 1.21925 1.53333 0
M  V30 562 H 46.7182 0.696991 -0.268725 0
M  V30 563 H 49.3802 1.44192 -1.31129 0
M  V30 564 H 48.4762 2.94443 -1.03489 0
M  V30 565 N 48.7773 0.814389 1.34928 0
M  V30 566 C 49.7403 0.235759 2.27984 0
M  V30 567 C 50.7403 -0.581412 1.49921 0
M  V30 568 O 51.9303 -0.398758 1.69575 0
M  V30 569 C 49.0623 -0.670433 3.34242 0
M  V30 570 H 50.2553 1.05659 2.80671 0
M  V30 571 H 47.8083 0.585614 1.44915 0
M  V30 572 H 48.5433 -1.51466 2.86755 0
M  V30 573 H 48.3283 -0.0860822 3.92005 0
M  V30 574 H 49.8183 -1.06935 4.03676 0
M  V30 575 N 50.2554 -1.46986 0.568584 0
M  V30 576 C 51.5324 -1.95592 -0.0174074 0
M  V30 577 C 51.9124 -1.51124 -1.47393 0
M  V30 578 O 51.2604 -0.755329 -2.15655 0
M  V30 579 C 51.4704 -3.48719 0.139913 0
M  V30 580 C 52.8184 -4.246 0.000426376 0
M  V30 581 O 53.8424 -3.56135 0.0680316 0
M  V30 582 O 52.7014 -5.46302 -0.146988 0
M  V30 583 H 49.7954 -0.82498 -0.0577599 0
M  V30 584 H 52.3414 -1.57335 0.635909 0
M  V30 585 H 51.1134 -3.73927 1.15301 0
M  V30 586 H 50.7364 -3.93771 -0.550491 0
M  V30 587 N 51.7335 -0.305618 -1.54608 0
M  V30 588 C 52.6965 0.555591 -2.22364 0
M  V30 589 C 53.6965 1.05768 -1.21119 0
M  V30 590 O 54.8865 0.952972 -1.45822 0
M  V30 591 C 52.0185 1.76974 -2.91364 0
M  V30 592 H 53.2115 -0.0364572 -2.99878 0
M  V30 593 H 50.7645 -0.0565007 -1.56198 0
M  V30 594 H 51.4995 2.40151 -2.17941 0
M  V30 595 H 51.2845 1.41732 -3.65588 0
M  V30 596 H 52.7745 2.38148 -3.43038 0
M  V30 597 N 53.2116 1.57565 -0.0334293 0
M  V30 598 C 54.6276 1.56297 0.322997 0
M  V30 599 C 54.8276 1.03945 1.7262 0
M  V30 600 O 53.8836 0.688109 2.42943 0
M  V30 601 C 55.1966 3.00232 0.167664 0
M  V30 602 C 56.7446 3.12078 0.240107 0
M  V30 603 C 57.2196 4.57859 0.113513 0
M  V30 604 N 58.7106 4.62887 0.170359 0
M  V30 605 C 59.4456 5.73319 0.0962517 0
M  V30 606 N 58.9416 6.92794 -0.0291881 0
M  V30 607 N 60.7346 5.61898 0.150551 0
M  V30 608 H 52.8856 1.89923 -0.950956 0
M  V30 609 H 55.1486 0.873824 -0.367608 0
M  V30 610 H 54.8546 3.42501 -0.799102 0
M  V30 611 H 54.7286 3.654 0.936083 0
M  V30 612 H 57.1156 2.69718 1.19733 0
M  V30 613 H 57.1966 2.49623 -0.558763 0
M  V30 614 H 56.8406 5.009 -0.840314 0
M  V30 615 H 56.7706 5.18299 0.931302 0
M  V30 616 H 59.2616 3.76954 0.26728 0
M  V30 617 H 59.5746 7.7276 -0.0789252 0
M  V30 618 H 57.9196 6.94971 -0.0640299 0
M  V30 619 H 61.1106 4.67448 0.246981 0
M  V30 620 H 61.2836 6.47938 0.0893365 0
M  V30 621 N 54.6897 -0.239769 1.55765 0
M  V30 622 C 55.6527 -1.28038 1.90103 0
M  V30 623 C 56.6527 -1.40723 0.778055 0
M  V30 624 O 57.8427 -1.39301 1.04599 0
M  V30 625 C 54.9747 -2.65702 2.13577 0
M  V30 626 H 56.1677 -0.988048 2.83157 0
M  V30 627 H 53.7207 -0.479382 1.48767 0
M  V30 628 H 54.4557 -3.00063 1.23015 0
M  V30 629 H 54.2407 -2.57875 2.95369 0
M  V30 630 H 55.7307 -3.40828 2.41301 0
M  V30 631 N 56.1678 -1.49265 -0.50573 0
M  V30 632 C 57.0978 -1.68495 -1.61653 0
M  V30 633 C 58.0788 -0.53366 -1.61512 0
M  V30 634 O 59.2638 -0.76897 -1.78327 0
M  V30 635 C 56.3938 -1.74709 -3.00157 0
M  V30 636 C 55.3478 -2.89581 -3.15162 0
M  V30 637 C 54.6738 -2.80903 -4.5497 0
M  V30 638 C 55.9738 -4.30578 -2.95634 0
M  V30 639 H 57.6678 -2.61493 -1.45814 0
M  V30 640 H 55.2138 -1.25838 -0.70005 0
M  V30 641 H 57.1668 -1.86748 -3.77761 0
M  V30 642 H 55.8908 -0.783067 -3.17074 0
M  V30 643 H 54.5498 -2.77136 -2.39982 0
M  V30 644 H 54.1978 -1.82419 -4.68756 0
M  V30 645 H 53.8978 -3.57999 -4.65951 0
M  V30 646 H 55.4218 -2.94944 -5.34641 0
M  V30 647 H 56.8358 -4.4373 -3.63011 0
M  V30 648 H 55.2328 -5.0886 -3.18091 0
M  V30 649 H 56.3028 -4.45352 -1.91806 0
M  V30 650 N 57.6459 0.756429 -1.3826 0
M  V30 651 C 58.5789 1.87802 -1.29637 0
M  V30 652 C 59.5569 1.61667 -0.173939 0
M  V30 653 O 60.7409 1.85208 -0.350775 0
M  V30 654 C 57.8679 3.23354 -1.00797 0
M  V30 655 C 56.9139 3.68379 -2.14939 0
M  V30 656 S 57.7469 3.8025 -3.77054 0
M  V30 657 C 58.9029 5.18626 -3.50396 0
M  V30 658 H 59.1359 1.94829 -2.24564 0
M  V30 659 H 56.6689 0.919117 -1.24063 0
M  V30 660 H 58.6269 4.01637 -0.848413 0
M  V30 661 H 57.2879 3.14008 -0.0759369 0
M  V30 662 H 56.4809 4.66693 -1.90299 0
M  V30 663 H 56.0829 2.97242 -2.26988 0
M  V30 664 H 58.3749 6.04289 -3.06334 0
M  V30 665 H 59.3179 5.48286 -4.48094 0
M  V30 666 H 59.7259 4.87289 -2.84973 0
M  V30 667 N 59.124 1.23083 0.984299 0
M  V30 668 C 60.054 1.03292 2.09411 0
M  V30 669 C 61.035 -0.048923 1.7003 0
M  V30 670 O 62.22 0.114967 1.93859 0
M  V30 671 C 59.35 0.619155 3.41736 0
M  V30 672 C 58.304 1.64791 3.95004 0
M  V30 673 C 57.63 1.0897 5.23478 0
M  V30 674 C 58.93 3.03999 4.24714 0
M  V30 675 H 60.624 1.96119 2.26225 0
M  V30 676 H 58.17 0.944344 1.08711 0
M  V30 677 H 60.123 0.467777 4.18796 0
M  V30 678 H 58.847 -0.344786 3.24775 0
M  V30 679 H 57.506 1.78721 3.20085 0
M  V30 680 H 57.154 0.11686 5.02864 0
M  V30 681 H 56.854 1.77704 5.60085 0
M  V30 682 H 58.378 0.950093 6.03163 0
M  V30 683 H 59.792 2.93393 4.92538 0
M  V30 684 H 58.189 3.69936 4.72512 0
M  V30 685 H 59.259 3.53285 3.32142 0
M  V30 686 N 60.6021 -1.18246 1.0419 0
M  V30 687 C 61.5341 -2.2142 0.592088 0
M  V30 688 C 62.5471 -1.59233 -0.338909 0
M  V30 689 O 63.7361 -1.78002 -0.133231 0
M  V30 690 C 60.8361 -3.38546 -0.154854 0
M  V30 691 C 60.0091 -4.3031 0.784328 0
M  V30 692 C 59.0681 -5.26138 0.0804583 0
M  V30 693 O 58.0941 -5.64738 0.711292 0
M  V30 694 N 59.2961 -5.68261 -1.18574 0
M  V30 695 H 62.0611 -2.60636 1.47949 0
M  V30 696 H 59.6221 -1.33044 0.922544 0
M  V30 697 H 61.6141 -3.99678 -0.635606 0
M  V30 698 H 60.1841 -2.98012 -0.943811 0
M  V30 699 H 59.4041 -3.66764 1.44491 0
M  V30 700 H 60.6921 -4.8852 1.42218 0
M  V30 701 H 60.0901 -5.38957 -1.71876 0
M  V30 702 H 58.6471 -6.31584 -1.61074 0
M  V30 703 N 62.0802 -0.821533 -1.34494 0
M  V30 704 C 63.3282 -0.408139 -1.97936 0
M  V30 705 C 63.6492 1.03193 -1.65457 0
M  V30 706 O 62.9192 1.71622 -0.944595 0
M  V30 707 H 61.4992 -0.147928 -0.732206 0
M  V30 708 H 64.1612 -1.05067 -1.64155 0
M  V30 709 H 63.2572 -0.52601 -3.07635 0
M  V30 710 N 63.5583 1.46682 -0.576371 0
M  V30 711 C 64.8043 2.02712 -0.0596221 0
M  V30 712 C 65.1373 1.44765 1.29448 0
M  V30 713 O 64.4123 0.610355 1.84675 0
M  V30 714 C 64.6953 3.60098 0.0129503 0
M  V30 715 C 64.5483 4.28441 -1.3696 0
M  V30 716 C 65.8673 4.34224 0.71678 0
M  V30 717 H 62.9863 0.736637 -0.0231407 0
M  V30 718 H 65.6283 1.74898 -0.742351 0
M  V30 719 H 63.7783 3.83926 0.594378 0
M  V30 720 H 65.4503 4.15896 -1.9957 0
M  V30 721 H 63.6933 3.8805 -1.93907 0
M  V30 722 H 64.3643 5.3716 -1.27135 0
M  V30 723 H 66.8403 4.15503 0.222908 0
M  V30 724 H 65.7163 5.43936 0.73657 0
M  V30 725 H 65.9773 4.04823 1.77682 0
M  V30 726 N 65.0364 0.313813 1.54444 0
M  V30 727 C 66.3134 -0.345447 1.92525 0
M  V30 728 C 66.6934 -1.70667 1.24242 0
M  V30 729 O 66.0414 -2.25273 0.382654 0
M  V30 730 C 66.2514 -0.44737 3.46121 0
M  V30 731 C 67.5994 -0.712238 4.18584 0
M  V30 732 O 68.6234 -0.530678 3.52225 0
M  V30 733 O 67.4824 -1.06183 5.36085 0
M  V30 734 H 64.5764 -0.195407 0.803583 0
M  V30 735 H 67.1224 0.362813 1.65776 0
M  V30 736 H 65.8944 0.509043 3.87975 0
M  V30 737 H 65.5174 -1.20359 3.78945 0
M  V30 738 N 66.5145 -1.57545 0.0417849 0
M  V30 739 C 67.4445 -2.14009 -0.933929 0
M  V30 740 C 68.4255 -1.05938 -1.33083 0
M  V30 741 O 69.6105 -1.33833 -1.40721 0
M  V30 742 C 66.7405 -2.67747 -2.21199 0
M  V30 743 C 65.6945 -3.80718 -1.95544 0
M  V30 744 C 65.0205 -4.20935 -3.29724 0
M  V30 745 C 66.3205 -5.06258 -1.28452 0
M  V30 746 H 68.0145 -2.95788 -0.463645 0
M  V30 747 H 65.5605 -1.42285 -0.221573 0
M  V30 748 H 67.5135 -3.05886 -2.89848 0
M  V30 749 H 66.2375 -1.83147 -2.70416 0
M  V30 750 H 64.8965 -3.43037 -1.2931 0
M  V30 751 H 64.5445 -3.33298 -3.76724 0
M  V30 752 H 64.2445 -4.9707 -3.13361 0
M  V30 753 H 65.7685 -4.61666 -3.9962 0
M  V30 754 H 67.1825 -5.41903 -1.8712 0
M  V30 755 H 65.5795 -5.87475 -1.22445 0
M  V30 756 H 66.6495 -4.84207 -0.259219 0
M  V30 757 N 67.9926 0.231505 -1.5589 0
M  V30 758 C 68.9226 1.29022 -1.94617 0
M  V30 759 C 69.9036 1.4941 -0.813067 0
M  V30 760 O 71.0886 1.6176 -1.07459 0
M  V30 761 C 68.2186 2.64199 -2.25424 0
M  V30 762 C 67.1726 2.58484 -3.41131 0
M  V30 763 C 66.4986 3.97599 -3.57518 0
M  V30 764 C 67.7986 2.1413 -4.76388 0
M  V30 765 H 69.4926 0.968563 -2.83301 0
M  V30 766 H 67.0386 0.464479 -1.36303 0
M  V30 767 H 68.9916 3.38413 -2.51107 0
M  V30 768 H 67.7156 2.98032 -1.33583 0
M  V30 769 H 66.3746 1.86727 -3.15481 0
M  V30 770 H 66.0226 4.28723 -2.6307 0
M  V30 771 H 65.7226 3.94659 -4.35337 0
M  V30 772 H 67.2466 4.7349 -3.85538 0
M  V30 773 H 68.6606 2.78083 -5.01341 0
M  V30 774 H 67.0576 2.2227 -5.57419 0
M  V30 775 H 68.1276 1.09331 -4.72414 0
M  V30 776 N 69.4707 1.49531 0.497807 0
M  V30 777 C 70.4337 1.65916 1.58128 0
M  V30 778 C 71.4337 0.530825 1.51786 0
M  V30 779 O 72.6237 0.797342 1.54881 0
M  V30 780 C 69.7557 1.65951 2.9778 0
M  V30 781 H 70.9487 2.62556 1.44929 0
M  V30 782 H 68.5017 1.38611 0.722275 0
M  V30 783 H 69.2367 0.709065 3.16453 0
M  V30 784 H 69.0217 2.47897 3.03792 0
M  V30 785 H 70.5117 1.80673 3.76493 0
M  V30 786 N 70.9488 -0.749086 1.3866 0
M  V30 787 C 72.2258 -1.4992 1.25632 0
M  V30 788 C 72.6058 -2.10633 -0.140317 0
M  V30 789 O 71.9538 -1.97437 -1.15025 0
M  V30 790 C 72.1638 -2.56195 2.36992 0
M  V30 791 C 73.5118 -3.22972 2.75634 0
M  V30 792 O 74.5358 -2.66502 2.36337 0
M  V30 793 O 73.3948 -4.25122 3.43415 0
M  V30 794 H 70.4888 -0.665067 0.491544 0
M  V30 795 H 73.0348 -0.784113 1.50498 0
M  V30 796 H 71.8068 -2.09612 3.30422 0
M  V30 797 H 71.4298 -3.35279 2.13714 0
M  V30 798 N 72.4269 -1.23603 -0.977757 0
M  V30 799 C 73.3899 -1.02069 -2.05218 0
M  V30 800 C 74.3899 0.0184305 -1.60789 0
M  V30 801 O 75.5799 -0.221569 -1.72785 0
M  V30 802 C 72.7119 -0.544926 -3.36517 0
M  V30 803 H 73.9049 -1.9742 -2.25755 0
M  V30 804 H 71.4579 -1.05684 -1.15155 0
M  V30 805 H 72.1929 0.412241 -3.21669 0
M  V30 806 H 71.9779 -1.2948 -3.70105 0
M  V30 807 H 73.4679 -0.414985 -4.15533 0
M  V30 808 N 73.905 1.17692 -1.04816 0
M  V30 809 C 75.151 1.88137 -0.75711 0
M  V30 810 C 75.484 1.80604 0.713841 0
M  V30 811 O 74.759 1.21146 1.52164 0
M  V30 812 C 75.042 3.38318 -1.2334 0
M  V30 813 C 74.895 3.54622 -2.76701 0
M  V30 814 C 76.214 4.32214 -0.829415 0
M  V30 815 H 73.333 0.683163 -0.27651 0
M  V30 816 H 75.975 1.38424 -1.30149 0
M  V30 817 H 74.125 3.80787 -0.770286 0
M  V30 818 H 75.797 3.21194 -3.31107 0
M  V30 819 H 74.04 2.97026 -3.16161 0
M  V30 820 H 74.711 4.60028 -3.05088 0
M  V30 821 H 77.187 3.97565 -1.22805 0
M  V30 822 H 76.063 5.35838 -1.19033 0
M  V30 823 H 76.324 4.41294 0.266891 0
M  V30 824 N 75.3831 0.828654 1.34056 0
M  V30 825 C 76.3461 0.259927 2.27721 0
M  V30 826 C 77.3461 -0.565478 1.50529 0
M  V30 827 O 78.5361 -0.38075 1.69988 0
M  V30 828 C 75.6681 -0.634944 3.34935 0
M  V30 829 H 76.8611 1.0863 2.79534 0
M  V30 830 H 74.4141 0.600951 1.44285 0
M  V30 831 H 75.1491 -1.48416 2.88346 0
M  V30 832 H 74.9341 -0.0444999 3.92075 0
M  V30 833 H 76.4241 -1.02648 4.04788 0
M  V30 834 N 76.8612 -1.46375 0.584142 0
M  V30 835 C 78.1072 -2.02678 0.0703716 0
M  V30 836 C 78.4402 -1.4545 -1.28678 0
M  V30 837 O 77.7152 -0.62014 -1.84349 0
M  V30 838 C 77.9982 -3.60099 0.00614674 0
M  V30 839 C 77.8512 -4.27709 1.3923 0
M  V30 840 C 79.1702 -4.34598 -0.693742 0
M  V30 841 H 76.2892 -0.736504 0.027047 0
M  V30 842 H 78.9312 -1.74501 0.751615 0
M  V30 843 H 77.0812 -3.84236 -0.574009 0
M  V30 844 H 78.7532 -4.14832 2.01773 0
M  V30 845 H 76.9962 -3.87016 1.95962 0
M  V30 846 H 77.6672 -5.36478 1.29982 0
M  V30 847 H 80.1432 -4.15615 -0.200869 0
M  V30 848 H 79.0192 -5.44318 -0.707714 0
M  V30 849 H 79.2802 -4.05759 -1.75533 0
M  V30 850 N 78.3393 -0.321999 -1.54275 0
M  V30 851 C 79.5673 0.283052 -2.04955 0
M  V30 852 C 79.9823 1.45904 -1.19823 0
M  V30 853 O 79.3393 1.81063 -0.228545 0
M  V30 854 C 79.3903 0.719028 -3.54277 0
M  V30 855 O 79.1113 -0.410175 -4.36176 0
M  V30 856 C 80.6123 1.38705 -4.21041 0
M  V30 857 H 77.8323 0.0584616 -0.668448 0
M  V30 858 H 80.3763 -0.467734 -1.99079 0
M  V30 859 H 78.5313 1.41979 -3.60445 0
M  V30 860 H 78.9453 -0.0669416 -5.24457 0
M  V30 861 H 80.4193 1.64306 -5.2698 0
M  V30 862 H 80.8963 2.33385 -3.72059 0
M  V30 863 H 81.5023 0.728906 -4.19007 0
M  V30 864 N 79.8174 1.5752 -0.0501392 0
M  V30 865 C 80.7504 2.07026 0.959962 0
M  V30 866 C 81.7284 0.970539 1.30458 0
M  V30 867 O 82.9124 1.2424 1.41763 0
M  V30 868 C 80.0394 2.5099 2.27424 0
M  V30 869 C 79.0854 3.72188 2.08275 0
M  V30 870 S 79.9184 5.17888 1.36207 0
M  V30 871 C 81.0744 5.65165 2.6896 0
M  V30 872 H 81.3074 2.9238 0.538631 0
M  V30 873 H 78.8404 1.53547 0.162099 0
M  V30 874 H 80.7984 2.76982 3.02971 0
M  V30 875 H 79.4594 1.65944 2.66686 0
M  V30 876 H 78.6524 4.00866 3.05487 0
M  V30 877 H 78.2544 3.46457 1.40868 0
M  V30 878 H 80.5464 5.70687 3.65133 0
M  V30 879 H 81.4894 6.64394 2.4492 0
M  V30 880 H 81.8974 4.9289 2.75172 0
M  V30 881 N 81.2955 -0.223234 1.56011 0
M  V30 882 C 82.5435 -0.946003 1.78592 0
M  V30 883 C 82.8645 -1.84936 0.618349 0
M  V30 884 O 82.1345 -1.92473 -0.364833 0
M  V30 885 H 80.7145 -0.352298 0.658707 0
M  V30 886 H 83.3765 -0.235494 1.93472 0
M  V30 887 H 82.4725 -1.55381 2.70672 0
M  V30 888 N 82.7736 -1.49793 -0.48987 0
M  V30 889 C 84.1846 -1.52914 -1.07118 0
M  V30 890 C 84.5356 -0.321738 -1.93544 0
M  V30 891 O 83.6606 0.567338 -2.08831 0
M  V30 892 C 84.2556 -2.771 -1.94938 0
M  V30 893 C 82.8146 -2.82963 -2.48212 0
M  V30 894 C 81.9616 -2.46972 -1.26096 0
M  V30 895 H 84.9126 -1.56329 -0.273289 0
M  V30 896 H 84.9336 -2.57892 -2.79771 0
M  V30 897 H 84.4456 -3.64959 -1.32009 0
M  V30 898 H 82.5466 -1.99411 -3.14748 0
M  V30 899 H 82.6596 -3.85406 -2.84603 0
M  V30 900 H 81.0236 -1.98994 -1.58976 0
M  V30 901 H 81.8066 -3.37118 -0.648581 0
M  V30 902 N 84.2517 0.741722 -1.39055 0
M  V30 903 C 85.1987 1.85566 -1.37237 0
M  V30 904 C 86.1687 1.64457 -0.233072 0
M  V30 905 O 87.3537 1.85957 -0.427147 0
M  V30 906 C 84.4937 3.23004 -1.215 0
M  V30 907 C 83.6067 3.55864 -2.44918 0
M  V30 908 C 82.7417 4.82669 -2.21821 0
M  V30 909 C 81.7807 5.08351 -3.40948 0
M  V30 910 N 80.9177 6.26356 -3.17211 0
M  V30 911 H 85.7577 1.86455 -2.32462 0
M  V30 912 H 83.2947 0.911176 -1.15482 0
M  V30 913 H 85.2527 4.02331 -1.10389 0
M  V30 914 H 83.8827 3.21411 -0.29908 0
M  V30 915 H 82.9347 2.7129 -2.66657 0
M  V30 916 H 84.2467 3.70765 -3.33668 0
M  V30 917 H 83.4007 5.69962 -2.07914 0
M  V30 918 H 82.1397 4.69929 -1.30454 0
M  V30 919 H 81.1447 4.19522 -3.55361 0
M  V30 920 H 82.3697 5.22981 -4.33207 0
M  V30 921 H 80.3157 6.14917 -2.28502 0
M  V30 922 H 80.2327 6.41813 -3.99515 0
M  V30 923 H 81.5007 7.16506 -3.06984 0
M  V30 924 N 85.7298 1.2412 0.971189 0
M  V30 925 C 86.9778 1.07668 1.71032 0
M  V30 926 C 87.2988 -0.385797 1.91146 0
M  V30 927 O 86.5688 -1.27569 1.4867 0
M  V30 928 H 85.1488 0.395429 0.633755 0
M  V30 929 H 87.8108 1.55984 1.16855 0
M  V30 930 H 86.9068 1.57195 2.69622 0
M  V30 931 N 87.2079 -1.17134 1.05439 0
M  V30 932 C 88.6239 -1.39454 0.776201 0
M  V30 933 C 88.8239 -1.91454 -0.628307 0
M  V30 934 O 87.8799 -2.10777 -1.39031 0
M  V30 935 C 89.1929 -2.38305 1.83388 0
M  V30 936 C 90.7409 -2.52006 1.85639 0
M  V30 937 C 91.2159 -3.54133 2.90437 0
M  V30 938 N 92.7069 -3.61653 2.89415 0
M  V30 939 C 93.4419 -4.4044 3.67152 0
M  V30 940 N 92.9379 -5.22721 4.54681 0
M  V30 941 N 94.7309 -4.35337 3.55581 0
M  V30 942 H 86.8819 -0.817134 1.96053 0
M  V30 943 H 89.1449 -0.421626 0.849079 0
M  V30 944 H 88.8509 -2.07173 2.84204 0
M  V30 945 H 88.7249 -3.37841 1.67761 0
M  V30 946 H 91.1119 -2.82447 0.85486 0
M  V30 947 H 91.1929 -1.52537 2.05344 0
M  V30 948 H 90.8369 -3.24431 3.90777 0
M  V30 949 H 90.7669 -4.53313 2.67983 0
M  V30 950 H 93.2579 -3.02909 2.25952 0
M  V30 951 H 93.5709 -5.80027 5.10674 0
M  V30 952 H 91.9159 -5.22093 4.58741 0
M  V30 953 H 95.1069 -3.70112 2.86592 0
M  V30 954 H 95.2799 -4.96494 4.1641 0
M  V30 955 N 88.686 -0.835752 -1.33615 0
M  V30 956 C 89.914 -0.443344 -2.02094 0
M  V30 957 C 90.329 0.954522 -1.62894 0
M  V30 958 O 89.686 1.61982 -0.840723 0
M  V30 959 C 89.737 -0.550775 -3.5728 0
M  V30 960 O 89.458 -1.89356 -3.95065 0
M  V30 961 C 90.959 -0.154919 -4.43029 0
M  V30 962 H 88.179 -0.176359 -0.647409 0
M  V30 963 H 90.723 -1.12746 -1.70612 0
M  V30 964 H 88.878 0.0853997 -3.87306 0
M  V30 965 H 89.292 -1.87687 -4.89769 0
M  V30 966 H 90.766 -0.281144 -5.51284 0
M  V30 967 H 91.243 0.902863 -4.2982 0
M  V30 968 H 91.849 -0.765404 -4.18356 0
M  V30 969 N 90.1641 1.46063 -0.591896 0
M  V30 970 C 91.4101 2.02638 -0.0811191 0
M  V30 971 C 91.7431 1.4613 1.27905 0
M  V30 972 O 91.0181 0.629908 1.84017 0
M  V30 973 C 91.3011 3.60091 -0.0252436 0
M  V30 974 C 91.1541 4.26965 -1.41496 0
M  V30 975 C 92.4731 4.3496 0.670685 0
M  V30 976 H 89.5921 0.73635 -0.0309524 0
M  V30 977 H 92.2341 1.741 -0.760859 0
M  V30 978 H 90.3841 3.84535 0.553624 0
M  V30 979 H 92.0561 4.13756 -2.0397 0
M  V30 980 H 90.2991 3.85971 -1.98011 0
M  V30 981 H 90.9701 5.35781 -1.32825 0
M  V30 982 H 93.4461 4.15716 0.178825 0
M  V30 983 H 92.3221 5.44686 0.678837 0
M  V30 984 H 92.5831 4.06685 1.73379 0
M  V30 985 N 91.6422 0.330177 1.54103 0
M  V30 986 C 92.8912 -0.271336 1.99867 0
M  V30 987 C 93.2042 -1.52723 1.22209 0
M  V30 988 O 94.4102 -2.20515 1.58383 0
M  V30 989 C 92.8662 -0.534032 3.55916 0
M  V30 990 C 92.4742 0.705193 4.42415 0
M  V30 991 C 94.2182 -1.09514 4.1013 0
M  V30 992 C 92.1252 0.414035 5.89949 0
M  V30 993 H 91.0552 -0.105166 0.74663 0
M  V30 994 H 93.7062 0.443429 1.78062 0
M  V30 995 H 92.0882 -1.30915 3.73734 0
M  V30 996 H 93.2622 1.4804 4.36372 0
M  V30 997 H 91.5772 1.18698 3.99124 0
M  V30 998 H 94.1742 -1.3277 5.17954 0
M  V30 999 H 94.5172 -2.04656 3.62521 0
M  V30 1000 H 95.0502 -0.381038 3.95971 0
M  V30 1001 H 91.7892 1.33481 6.41766 0
M  V30 1002 H 91.3092 -0.323336 5.98928 0
M  V30 1003 H 92.9882 0.0263105 6.46995 0
M  V30 1004 N 93.1203 -1.57491 0.0584922 0
M  V30 1005 C 94.3693 -1.92155 -0.613146 0
M  V30 1006 C 94.6823 -0.939334 -1.71569 0
M  V30 1007 O 95.8883 -1.17829 -2.44599 0
M  V30 1008 C 94.3443 -3.41303 -1.14195 0
M  V30 1009 C 93.9523 -4.47944 -0.0711265 0
M  V30 1010 C 95.6963 -3.84988 -1.78841 0
M  V30 1011 C 93.6033 -5.88212 -0.613225 0
M  V30 1012 H 92.5333 -0.717162 -0.232796 0
M  V30 1013 H 95.1843 -1.83049 0.12857 0
M  V30 1014 H 93.5663 -3.45437 -1.93621 0
M  V30 1015 H 94.7403 -4.55408 0.702836 0
M  V30 1016 H 93.0553 -4.13644 0.478313 0
M  V30 1017 H 95.6523 -4.87159 -2.20408 0
M  V30 1018 H 95.9953 -3.21632 -2.64308 0
M  V30 1019 H 96.5283 -3.83401 -1.06059 0
M  V30 1020 H 93.2673 -6.55183 0.203978 0
M  V30 1021 H 92.7873 -5.84294 -1.35501 0
M  V30 1022 H 94.4663 -6.37687 -1.09383 0
M  V30 1023 N 94.5984 0.214957 -1.56127 0
M  V30 1024 C 95.5084 1.28727 -1.96129 0
M  V30 1025 C 96.5244 1.50916 -0.866044 0
M  V30 1026 O 97.7004 1.63918 -1.17016 0
M  V30 1027 C 94.7654 2.61569 -2.27558 0
M  V30 1028 C 93.8264 2.47625 -3.50685 0
M  V30 1029 C 93.0594 3.74132 -3.80606 0
M  V30 1030 O 93.2824 4.77438 -3.12104 0
M  V30 1031 O 92.2164 3.70849 -4.74083 0
M  V30 1032 H 96.0424 0.977855 -2.87527 0
M  V30 1033 H 93.6274 0.418358 -1.43423 0
M  V30 1034 H 95.5094 3.40012 -2.48938 0
M  V30 1035 H 94.1844 2.92178 -1.39332 0
M  V30 1036 H 93.0914 1.67361 -3.34576 0
M  V30 1037 H 94.4244 2.21954 -4.39315 0
M  V30 1038 N 96.0765 1.50051 0.48192 0
M  V30 1039 C 97.0085 1.64263 1.59844 0
M  V30 1040 C 98.0215 0.52451 1.54119 0
M  V30 1041 O 99.2105 0.797293 1.59704 0
M  V30 1042 C 96.3105 1.60102 2.98698 0
M  V30 1043 C 95.4835 2.87767 3.29407 0
M  V30 1044 C 94.5425 2.76397 4.47762 0
M  V30 1045 O 93.5685 3.50348 4.48603 0
M  V30 1046 N 94.7705 1.89222 5.48794 0
M  V30 1047 H 97.5355 2.60566 1.48073 0
M  V30 1048 H 95.0965 1.47379 0.670149 0
M  V30 1049 H 97.0885 1.50123 3.75826 0
M  V30 1050 H 95.6585 0.715798 3.04294 0
M  V30 1051 H 94.8785 3.11954 2.40994 0
M  V30 1052 H 96.1665 3.72365 3.4673 0
M  V30 1053 H 95.5645 1.28434 5.50928 0
M  V30 1054 H 94.1215 1.85154 6.24949 0
M  V30 1055 N 97.5546 -0.734337 1.39446 0
M  V30 1056 C 98.7796 -1.52866 1.40167 0
M  V30 1057 C 99.2046 -1.881 -0.00171513 0
M  V30 1058 O 98.5626 -1.51957 -0.988879 0
M  V30 1059 C 98.6106 -2.79235 2.28167 0
M  V30 1060 O 97.7146 -3.75185 1.71201 0
M  V30 1061 H 97.0556 -0.461618 0.477289 0
M  V30 1062 H 99.5856 -0.905949 1.8345 0
M  V30 1063 H 99.5956 -3.27963 2.42702 0
M  V30 1064 H 98.2706 -2.52923 3.30156 0
M  V30 1065 H 96.8476 -3.33958 1.65912 0
M  V30 1066 N 99.0327 -1.24633 -0.964593 0
M  V30 1067 C 100.279 -1.09957 -1.71117 0
M  V30 1068 C 100.634 0.357422 -1.89051 0
M  V30 1069 O 99.9267 1.26029 -1.44317 0
M  V30 1070 C 100.121 -1.7763 -3.10133 0
M  V30 1071 C 99.9497 -3.29759 -3.05759 0
M  V30 1072 C 98.7197 -3.98981 -3.10068 0
M  V30 1073 C 100.918 -4.26305 -2.87695 0
M  V30 1074 N 98.8997 -5.37966 -2.95747 0
M  V30 1075 C 100.271 -5.52308 -2.81702 0
M  V30 1076 C 102.326 -4.16842 -2.72299 0
M  V30 1077 C 101.029 -6.69931 -2.61887 0
M  V30 1078 C 103.055 -5.34147 -2.53853 0
M  V30 1079 C 102.417 -6.59084 -2.48572 0
M  V30 1080 H 98.5157 -0.457003 -0.634564 0
M  V30 1081 H 101.1 -1.57592 -1.14337 0
M  V30 1082 H 99.2707 -1.32504 -3.65099 0
M  V30 1083 H 101.003 -1.55786 -3.73514 0
M  V30 1084 H 97.7577 -3.50169 -3.18871 0
M  V30 1085 H 98.1817 -6.10877 -2.91818 0
M  V30 1086 H 102.824 -3.21007 -2.75163 0
M  V30 1087 H 100.542 -7.65886 -2.57767 0
M  V30 1088 H 104.128 -5.28678 -2.4288 0
M  V30 1089 H 103.008 -7.48324 -2.34481 0
M  V30 1090 N 100.511 1.16574 -1.06058 0
M  V30 1091 C 101.759 1.86677 -0.77434 0
M  V30 1092 C 102.08 1.81959 0.701147 0
M  V30 1093 O 101.35 1.2515 1.50713 0
M  V30 1094 H 99.9298 0.691134 -0.283449 0
M  V30 1095 H 102.592 1.41378 -1.34158 0
M  V30 1096 H 101.688 2.92181 -1.09711 0
M  V30 1097 N 101.989 0.842826 1.3317 0
M  V30 1098 C 103.214 0.453129 2.02389 0
M  V30 1099 C 103.639 -0.939105 1.6298 0
M  V30 1100 O 102.997 -1.61472 0.8244 0
M  V30 1101 C 103.045 0.586094 3.55805 0
M  V30 1102 O 102.149 -0.386029 4.10589 0
M  V30 1103 H 101.49 0.183664 0.638094 0
M  V30 1104 H 104.02 1.13875 1.69981 0
M  V30 1105 H 104.03 0.469209 4.05293 0
M  V30 1106 H 102.705 1.6014 3.83833 0
M  V30 1107 H 101.282 -0.226371 3.72212 0
M  V30 1108 N 103.467 -1.45747 0.599634 0
M  V30 1109 C 104.878 -1.85853 0.177681 0
M  V30 1110 C 105.229 -1.50102 -1.26348 0
M  V30 1111 O 104.354 -0.923905 -1.95686 0
M  V30 1112 C 104.949 -3.37326 0.315688 0
M  V30 1113 C 103.508 -3.76365 -0.0515144 0
M  V30 1114 C 102.655 -2.69722 0.643822 0
M  V30 1115 H 105.606 -1.36661 0.806814 0
M  V30 1116 H 105.627 -3.77778 -0.454321 0
M  V30 1117 H 105.139 -3.63315 1.36468 0
M  V30 1118 H 103.24 -3.55993 -1.09999 0
M  V30 1119 H 103.353 -4.77916 0.336594 0
M  V30 1120 H 101.717 -2.54567 0.0822881 0
M  V30 1121 H 102.5 -2.98549 1.6948 0
M  V30 1122 N 104.945 -0.338344 -1.53925 0
M  V30 1123 C 105.892 0.520845 -2.24846 0
M  V30 1124 C 106.862 1.09976 -1.24477 0
M  V30 1125 O 108.047 1.13735 -1.53196 0
M  V30 1126 C 105.187 1.6685 -3.02084 0
M  V30 1127 C 104.3 1.11739 -4.17299 0
M  V30 1128 C 103.435 2.23193 -4.82036 0
M  V30 1129 C 102.474 1.65407 -5.89328 0
M  V30 1130 N 101.611 2.70582 -6.47866 0
M  V30 1131 H 106.451 -0.0904881 -2.97863 0
M  V30 1132 H 103.988 -0.0564282 -1.46992 0
M  V30 1133 H 105.946 2.34407 -3.45122 0
M  V30 1134 H 104.576 2.2509 -2.31375 0
M  V30 1135 H 103.628 0.332919 -3.7894 0
M  V30 1136 H 104.94 0.654677 -4.94485 0
M  V30 1137 H 104.094 2.98626 -5.28117 0
M  V30 1138 H 102.833 2.72807 -4.04262 0
M  V30 1139 H 101.838 0.884779 -5.42634 0
M  V30 1140 H 103.063 1.16652 -6.69006 0
M  V30 1141 H 101.009 3.1946 -5.72959 0
M  V30 1142 H 100.926 2.28917 -7.20509 0
M  V30 1143 H 102.194 3.45799 -6.98601 0
M  V30 1144 N 106.423 1.57458 -0.0668435 0
M  V30 1145 C 107.669 1.93587 0.6043 0
M  V30 1146 C 108.002 0.946722 1.69561 0
M  V30 1147 O 107.277 -0.0248516 1.94484 0
M  V30 1148 C 107.56 3.40014 1.18585 0
M  V30 1149 C 107.413 4.49685 0.101529 0
M  V30 1150 C 108.732 3.87154 2.09284 0
M  V30 1151 H 105.851 0.703958 0.218202 0
M  V30 1152 H 108.493 1.89542 -0.131804 0
M  V30 1153 H 106.643 3.43592 1.81319 0
M  V30 1154 H 108.315 4.5823 -0.531279 0
M  V30 1155 H 106.558 4.30059 -0.568487 0
M  V30 1156 H 107.229 5.49266 0.54874 0
M  V30 1157 H 109.705 3.85551 1.56491 0
M  V30 1158 H 108.581 4.90231 2.46911 0
M  V30 1159 H 108.842 3.2481 2.99918 0
M  V30 1160 N 107.901 -0.206675 1.56239 0
M  V30 1161 C 109.129 -0.945345 1.8404 0
M  V30 1162 C 109.544 -1.77336 0.647885 0
M  V30 1163 O 108.901 -1.78425 -0.383511 0
M  V30 1164 C 108.952 -1.8509 3.10522 0
M  V30 1165 O 108.673 -1.05634 4.25174 0
M  V30 1166 C 110.174 -2.70222 3.51418 0
M  V30 1167 H 107.394 -0.276372 0.61144 0
M  V30 1168 H 109.938 -0.217417 2.03341 0
M  V30 1169 H 108.093 -2.53259 2.93153 0
M  V30 1170 H 108.507 -1.67238 4.97124 0
M  V30 1171 H 109.981 -3.29438 4.42916 0
M  V30 1172 H 110.458 -3.43358 2.73864 0
M  V30 1173 H 111.064 -2.07443 3.71278 0
M  V30 1174 N 109.379 -1.50304 -0.473955 0
M  V30 1175 C 110.326 -1.68959 -1.57231 0
M  V30 1176 C 111.296 -0.530899 -1.57387 0
M  V30 1177 O 112.481 -0.761133 -1.74961 0
M  V30 1178 C 109.621 -1.7871 -2.95223 0
M  V30 1179 C 108.734 -3.06061 -3.04878 0
M  V30 1180 C 107.869 -3.06626 -4.33767 0
M  V30 1181 C 106.908 -4.28443 -4.37154 0
M  V30 1182 N 106.045 -4.26763 -5.5751 0
M  V30 1183 H 110.885 -2.6273 -1.40631 0
M  V30 1184 H 108.422 -1.30241 -0.683789 0
M  V30 1185 H 110.38 -1.82344 -3.75242 0
M  V30 1186 H 109.01 -0.883806 -3.10465 0
M  V30 1187 H 108.062 -3.11911 -2.17751 0
M  V30 1188 H 109.374 -3.96039 -3.0324 0
M  V30 1189 H 108.528 -3.08973 -5.22131 0
M  V30 1190 H 107.267 -2.14473 -4.3801 0
M  V30 1191 H 106.272 -4.2631 -3.47188 0
M  V30 1192 H 107.497 -5.2182 -4.34605 0
M  V30 1193 H 105.443 -3.37462 -5.62544 0
M  V30 1194 H 105.36 -5.10507 -5.57601 0
M  V30 1195 H 106.628 -4.33253 -6.48006 0
M  V30 1196 N 110.857 0.726932 -1.39834 0
M  V30 1197 C 112.134 1.47902 -1.28001 0
M  V30 1198 C 112.514 2.1083 0.106789 0
M  V30 1199 O 111.862 1.99242 1.11869 0
M  V30 1200 C 112.072 2.52392 -2.41038 0
M  V30 1201 C 113.42 3.18546 -2.80737 0
M  V30 1202 O 114.444 2.62708 -2.40547 0
M  V30 1203 O 113.303 4.19604 -3.50135 0
M  V30 1204 H 110.397 0.657163 -0.502062 0
M  V30 1205 H 112.943 0.760071 -1.51727 0
M  V30 1206 H 111.715 2.04329 -3.33715 0
M  V30 1207 H 111.338 3.31837 -2.19021 0
M  V30 1208 N 112.336 1.25143 0.95797 0
M  V30 1209 C 113.584 1.09476 1.69881 0
M  V30 1210 C 113.905 -0.365502 1.91544 0
M  V30 1211 O 113.175 -1.25985 1.50015 0
M  V30 1212 H 111.755 0.402128 0.629525 0
M  V30 1213 H 114.417 1.57214 1.15194 0
M  V30 1214 H 113.513 1.60046 2.6794 0
M  V30 1215 N 113.814 -1.1601 1.06675 0
M  V30 1216 C 115.06 -1.86909 0.786945 0
M  V30 1217 C 115.393 -1.81717 -0.685018 0
M  V30 1218 O 114.668 -1.23551 -1.50218 0
M  V30 1219 C 114.951 -3.36313 1.28707 0
M  V30 1220 C 114.804 -3.50175 2.82308 0
M  V30 1221 C 116.123 -4.3084 0.898071 0
M  V30 1222 H 113.242 -0.678677 0.287343 0
M  V30 1223 H 115.884 -1.36336 1.32334 0
M  V30 1224 H 114.034 -3.79513 0.830768 0
M  V30 1225 H 115.706 -3.15886 3.36175 0
M  V30 1226 H 113.949 -2.91959 3.20847 0
M  V30 1227 H 114.62 -4.55116 3.12368 0
M  V30 1228 H 117.096 -3.95561 1.29114 0
M  V30 1229 H 115.972 -5.33876 1.27543 0
M  V30 1230 H 116.233 -4.41662 -0.196651 0
M  V30 1231 N 115.292 -0.849877 -1.32721 0
M  V30 1232 C 116.52 -0.464754 -2.01613 0
M  V30 1233 C 116.935 0.937191 -1.63897 0
M  V30 1234 O 116.292 1.61081 -0.857856 0
M  V30 1235 C 116.343 -0.588638 -3.56675 0
M  V30 1236 O 116.064 -1.93535 -3.93034 0
M  V30 1237 C 117.565 -0.2019 -4.4284 0
M  V30 1238 H 114.785 -0.183215 -0.645502 0
M  V30 1239 H 117.329 -1.1455 -1.69407 0
M  V30 1240 H 115.484 0.0443159 -3.87375 0
M  V30 1241 H 115.898 -1.92871 -4.87751 0
M  V30 1242 H 117.372 -0.339599 -5.50954 0
M  V30 1243 H 117.849 0.857224 -4.30753 0
M  V30 1244 H 118.455 -0.809733 -4.17521 0
M  V30 1245 N 116.77 1.45427 -0.607355 0
M  V30 1246 C 118.016 2.0254 -0.102607 0
M  V30 1247 C 118.349 1.47478 1.26348 0
M  V30 1248 O 117.624 0.64939 1.83339 0
M  V30 1249 C 117.907 3.60044 -0.0634347 0
M  V30 1250 C 117.76 4.2544 -1.46017 0
M  V30 1251 C 119.079 4.35646 0.624514 0
M  V30 1252 H 116.198 0.73598 -0.0387607 0
M  V30 1253 H 118.84 1.73284 -0.779282 0
M  V30 1254 H 116.99 3.85101 0.512808 0
M  V30 1255 H 118.662 4.11569 -2.08347 0
M  V30 1256 H 116.905 3.83849 -2.02094 0
M  V30 1257 H 117.576 5.34342 -1.385 0
M  V30 1258 H 120.052 4.15882 0.134723 0
M  V30 1259 H 118.928 5.45376 0.621028 0
M  V30 1260 H 119.189 4.08501 1.69055 0
M  V30 1261 N 118.248 0.346503 1.53744 0
M  V30 1262 C 119.211 -0.496439 2.23759 0
M  V30 1263 C 120.211 -1.0252 1.2388 0
M  V30 1264 O 121.401 -0.913974 1.48297 0
M  V30 1265 C 118.533 -1.69187 2.95954 0
M  V30 1266 H 119.726 0.115952 2.99676 0
M  V30 1267 H 117.279 0.0978939 1.55993 0
M  V30 1268 H 118.014 -2.34288 2.24231 0
M  V30 1269 H 117.799 -1.31989 3.69217 0
M  V30 1270 H 119.289 -2.28969 3.49232 0
M  V30 1271 N 119.726 -1.57421 0.075193 0
M  V30 1272 C 120.673 -2.12915 -0.890843 0
M  V30 1273 C 121.643 -1.04252 -1.29309 0
M  V30 1274 O 122.828 -1.31933 -1.37834 0
M  V30 1275 C 119.968 -2.69795 -2.15186 0
M  V30 1276 C 119.081 -3.92624 -1.80194 0
M  V30 1277 C 118.216 -4.37736 -3.00933 0
M  V30 1278 C 117.255 -5.53205 -2.61974 0
M  V30 1279 N 116.392 -5.9326 -3.75483 0
M  V30 1280 H 121.232 -2.95156 -0.410735 0
M  V30 1281 H 118.769 -1.45854 -0.191086 0
M  V30 1282 H 120.727 -3.00883 -2.89008 0
M  V30 1283 H 119.357 -1.90313 -2.60731 0
M  V30 1284 H 118.409 -3.67977 -0.964218 0
M  V30 1285 H 119.721 -4.76482 -1.47534 0
M  V30 1286 H 118.875 -4.70503 -3.8303 0
M  V30 1287 H 117.614 -3.52739 -3.36789 0
M  V30 1288 H 116.619 -5.20086 -1.783 0
M  V30 1289 H 117.844 -6.39936 -2.27284 0
M  V30 1290 H 115.79 -5.11212 -4.11094 0
M  V30 1291 H 115.707 -6.71865 -3.46602 0
M  V30 1292 H 116.975 -6.30651 -4.58148 0
M  V30 1293 N 121.204 0.198386 -1.56346 0
M  V30 1294 C 122.429 0.939682 -1.84891 0
M  V30 1295 C 122.854 1.76202 -0.658369 0
M  V30 1296 O 122.212 1.76993 0.392851 0
M  V30 1297 C 122.26 1.81428 -3.11635 0
M  V30 1298 O 121.364 2.91265 -2.91956 0
M  V30 1299 H 120.705 0.264807 -0.608912 0
M  V30 1300 H 123.235 0.204695 -2.03573 0
M  V30 1301 H 123.245 2.21958 -3.42343 0
M  V30 1302 H 121.92 1.21004 -3.97908 0
M  V30 1303 H 120.497 2.54514 -2.72538 0
M  V30 1304 N 122.682 1.50554 0.465978 0
M  V30 1305 C 123.931 1.61038 1.21448 0
M  V30 1306 C 124.244 0.31865 1.92987 0
M  V30 1307 O 125.45 0.302469 2.6981 0
M  V30 1308 C 123.906 2.84283 2.20706 0
M  V30 1309 C 123.514 4.20352 1.54946 0
M  V30 1310 C 125.258 3.04115 2.96166 0
M  V30 1311 C 123.165 5.34778 2.5252 0
M  V30 1312 H 122.095 0.599718 0.457005 0
M  V30 1313 H 124.746 1.7699 0.484424 0
M  V30 1314 H 123.128 2.61901 2.97025 0
M  V30 1315 H 124.302 4.53008 0.843811 0
M  V30 1316 H 122.617 4.06167 0.917475 0
M  V30 1317 H 125.214 3.86774 3.69202 0
M  V30 1318 H 125.557 2.16045 3.55852 0
M  V30 1319 H 126.09 3.26702 2.26959 0
M  V30 1320 H 122.829 6.25018 1.97566 0
M  V30 1321 H 122.349 5.06534 3.21222 0
M  V30 1322 H 124.028 5.65561 3.14245 0
M  V30 1323 N 124.16 -0.719506 1.40217 0
M  V30 1324 C 125.437 -1.47221 1.28784 0
M  V30 1325 C 125.817 -2.10883 -0.0956067 0
M  V30 1326 O 125.165 -1.99833 -1.10811 0
M  V30 1327 C 125.375 -2.5111 2.42373 0
M  V30 1328 C 126.723 -3.17053 2.82423 0
M  V30 1329 O 127.747 -2.61429 2.41937 0
M  V30 1330 O 126.606 -4.17742 3.52355 0
M  V30 1331 H 123.7 -0.654491 0.50554 0
M  V30 1332 H 126.246 -0.752014 1.52128 0
M  V30 1333 H 125.018 -2.02556 3.34793 0
M  V30 1334 H 124.641 -3.3067 2.20778 0
M  V30 1335 N 125.638 -1.25649 -0.95132 0
M  V30 1336 C 126.568 -1.08808 -2.06599 0
M  V30 1337 C 127.549 0.00382547 -1.701 0
M  V30 1338 O 128.734 -0.166325 -1.93486 0
M  V30 1339 C 125.864 -0.709542 -3.39975 0
M  V30 1340 C 124.818 -1.75206 -3.90496 0
M  V30 1341 C 124.144 -1.22811 -5.20405 0
M  V30 1342 C 125.444 -3.15153 -4.16504 0
M  V30 1343 H 127.138 -2.02048 -2.20946 0
M  V30 1344 H 124.684 -0.972835 -1.06169 0
M  V30 1345 H 126.637 -0.578649 -4.17408 0
M  V30 1346 H 125.361 0.258556 -3.25575 0
M  V30 1347 H 124.02 -1.87145 -3.15234 0
M  V30 1348 H 123.668 -0.250145 -5.02378 0
M  V30 1349 H 123.368 -1.92492 -5.55176 0
M  V30 1350 H 124.892 -1.10968 -6.00432 0
M  V30 1351 H 126.306 -3.06349 -4.84586 0
M  V30 1352 H 124.703 -3.82333 -4.62538 0
M  V30 1353 H 125.773 -3.61966 -3.22658 0
M  V30 1354 N 127.117 1.15442 -1.07289 0
M  V30 1355 C 128.064 2.20161 -0.692653 0
M  V30 1356 C 129.034 1.63073 0.31564 0
M  V30 1357 O 130.219 1.89725 0.202235 0
M  V30 1358 C 127.359 3.44967 -0.0959509 0
M  V30 1359 C 126.472 4.16256 -1.15564 0
M  V30 1360 C 125.607 5.28609 -0.524011 0
M  V30 1361 C 124.646 5.91715 -1.56653 0
M  V30 1362 N 123.783 6.9554 -0.957531 0
M  V30 1363 H 128.623 2.52037 -1.59002 0
M  V30 1364 H 126.16 1.2378 -0.794798 0
M  V30 1365 H 128.118 4.16341 0.267628 0
M  V30 1366 H 126.748 3.1361 0.764772 0
M  V30 1367 H 125.8 3.43385 -1.6368 0
M  V30 1368 H 127.112 4.59268 -1.94613 0
M  V30 1369 H 126.266 6.06604 -0.108032 0
M  V30 1370 H 125.005 4.86787 0.29825 0
M  V30 1371 H 124.01 5.12433 -1.9923 0
M  V30 1372 H 125.235 6.35614 -2.39107 0
M  V30 1373 H 123.181 6.55814 -0.156162 0
M  V30 1374 H 123.098 7.36977 -1.68526 0
M  V30 1375 H 124.366 7.77435 -0.567032 0
M  V30 1376 N 128.595 0.856903 1.32268 0
M  V30 1377 C 129.872 0.382583 1.91822 0
M  V30 1378 C 130.252 -1.13407 1.78051 0
M  V30 1379 O 129.6 -1.95673 1.18001 0
M  V30 1380 C 129.81 0.849446 3.38505 0
M  V30 1381 C 131.158 0.867936 4.15634 0
M  V30 1382 O 132.182 0.794232 3.47232 0
M  V30 1383 O 131.041 0.972286 5.37781 0
M  V30 1384 H 128.135 0.112014 0.819379 0
M  V30 1385 H 130.681 0.943952 1.41024 0
M  V30 1386 H 129.453 1.89267 3.42482 0
M  V30 1387 H 129.076 0.265652 3.96712 0
M  V30 1388 N 130.073 -1.45103 0.615059 0
M  V30 1389 C 131.02 -2.30586 -0.0993978 0
M  V30 1390 C 131.99 -1.42544 -0.852669 0
M  V30 1391 O 133.175 -1.71465 -0.836917 0
M  V30 1392 C 130.315 -3.27572 -1.08583 0
M  V30 1393 C 129.428 -4.30717 -0.332656 0
M  V30 1394 C 128.563 -5.14807 -1.30947 0
M  V30 1395 C 127.602 -6.09673 -0.544538 0
M  V30 1396 N 126.739 -6.86517 -1.47101 0
M  V30 1397 H 131.579 -2.91144 0.635542 0
M  V30 1398 H 129.116 -1.4346 0.325206 0
M  V30 1399 H 131.074 -3.82276 -1.67095 0
M  V30 1400 H 129.704 -2.68751 -1.78809 0
M  V30 1401 H 128.756 -3.78615 0.368107 0
M  V30 1402 H 130.068 -4.98102 0.263842 0
M  V30 1403 H 129.222 -5.73948 -1.96643 0
M  V30 1404 H 127.961 -4.47458 -1.9399 0
M  V30 1405 H 126.966 -5.49656 0.126003 0
M  V30 1406 H 128.191 -6.79052 0.080947 0
M  V30 1407 H 126.137 -6.21851 -2.08895 0
M  V30 1408 H 126.054 -7.50281 -0.928137 0
M  V30 1409 H 127.322 -7.50194 -2.11731 0
M  V30 1410 N 131.551 -0.354651 -1.53558 0
M  V30 1411 C 132.781 0.239167 -2.05211 0
M  V30 1412 C 133.189 1.43879 -1.22863 0
M  V30 1413 O 132.532 1.81857 -0.259565 0
M  V30 1414 C 132.594 0.707251 -3.52474 0
M  V30 1415 C 132.258 -0.374212 -4.55465 0
M  V30 1416 C 133.255 -1.22054 -5.0537 0
M  V30 1417 C 130.94 -0.531323 -4.99482 0
M  V30 1418 C 132.934 -2.20942 -5.97882 0
M  V30 1419 C 130.621 -1.52358 -5.91802 0
M  V30 1420 C 131.619 -2.36108 -6.40892 0
M  V30 1421 O 131.307 -3.33643 -7.31394 0
M  V30 1422 H 131.039 0.0479716 -0.674296 0
M  V30 1423 H 133.593 -0.508121 -1.99016 0
M  V30 1424 H 131.823 1.50596 -3.56171 0
M  V30 1425 H 133.512 1.22285 -3.87042 0
M  V30 1426 H 134.278 -1.1103 -4.7212 0
M  V30 1427 H 130.157 0.110738 -4.60867 0
M  V30 1428 H 133.701 -2.86348 -6.36121 0
M  V30 1429 H 129.598 -1.63434 -6.24467 0
M  V30 1430 H 130.366 -3.29244 -7.4936 0
M  V30 1431 N 133.029 1.57378 -0.0835403 0
M  V30 1432 C 133.976 2.13384 0.879539 0
M  V30 1433 C 134.946 1.04936 1.28754 0
M  V30 1434 O 136.131 1.32662 1.37133 0
M  V30 1435 C 133.271 2.70932 2.13752 0
M  V30 1436 C 132.384 3.93575 1.7811 0
M  V30 1437 C 131.519 4.39326 2.98607 0
M  V30 1438 C 130.558 5.54587 2.59037 0
M  V30 1439 N 129.695 5.95243 3.72331 0
M  V30 1440 H 134.535 2.9537 0.395076 0
M  V30 1441 H 132.072 1.45953 0.183349 0
M  V30 1442 H 134.03 3.02411 2.87408 0
M  V30 1443 H 132.66 1.91693 2.59718 0
M  V30 1444 H 131.712 3.68483 0.94469 0
M  V30 1445 H 133.024 4.77258 1.45005 0
M  V30 1446 H 132.178 4.72528 3.80529 0
M  V30 1447 H 130.917 3.5452 3.34913 0
M  V30 1448 H 129.922 5.21024 1.75539 0
M  V30 1449 H 131.147 6.41133 2.23887 0
M  V30 1450 H 129.093 5.13385 4.08378 0
M  V30 1451 H 129.01 6.73694 3.43034 0
M  V30 1452 H 130.278 6.33072 4.54797 0
M  V30 1453 N 134.507 -0.190092 1.56449 0
M  V30 1454 C 135.455 -1.25501 1.95837 0
M  V30 1455 C 136.449 -1.4685 0.844485 0
M  V30 1456 O 137.655 -1.47651 1.02952 0
M  V30 1457 H 134.03 -0.421447 0.622805 0
M  V30 1458 H 136.001 -0.895821 2.84636 0
M  V30 1459 C 134.75 -2.59124 2.31841 0
M  V30 1460 H 134.073 -2.43514 3.17082 0
M  V30 1461 H 135.513 -3.32371 2.6326 0
M  V30 1462 C 133.972 -3.16488 1.15486 0
M  V30 1463 O 134.502 -3.99365 0.432535 0
M  V30 1464 N 132.708 -2.75305 0.930349 0
M  V30 1465 H 132.255 -2.08013 1.51948 0
M  V30 1466 H 132.213 -3.14024 0.153634 0
M  V30 1467 N 135.985 -1.50799 -0.457987 0
M  V30 1468 C 137.234 -1.6168 -1.20593 0
M  V30 1469 C 137.547 -0.32888 -1.92815 0
M  V30 1470 O 138.753 -0.316773 -2.69646 0
M  V30 1471 C 137.209 -2.8545 -2.19195 0
M  V30 1472 C 136.817 -4.21168 -1.52715 0
M  V30 1473 C 138.561 -3.05681 -2.94549 0
M  V30 1474 C 136.468 -5.3611 -2.4968 0
M  V30 1475 H 135.398 -0.602134 -0.453818 0
M  V30 1476 H 138.049 -1.77245 -0.475031 0
M  V30 1477 H 136.431 -2.63472 -2.95632 0
M  V30 1478 H 137.605 -4.53449 -0.819775 0
M  V30 1479 H 135.92 -4.06648 -0.895922 0
M  V30 1480 H 138.517 -3.88727 -3.67145 0
M  V30 1481 H 138.86 -2.17929 -3.54701 0
M  V30 1482 H 139.393 -3.27901 -2.25223 0
M  V30 1483 H 136.132 -6.26057 -1.94249 0
M  V30 1484 H 135.652 -5.0823 -3.18532 0
M  V30 1485 H 137.331 -5.6722 -3.11241 0
M  V30 1486 N 137.463 0.71206 -1.40597 0
M  V30 1487 C 138.711 1.46907 -1.38791 0
M  V30 1488 C 139.032 1.94998 0.00780391 0
M  V30 1489 O 138.302 1.70587 0.963174 0
M  V30 1490 H 136.882 0.545043 -0.51082 0
M  V30 1491 H 139.544 0.843882 -1.75683 0
M  V30 1492 H 138.64 2.34021 -2.06496 0
M  V30 1493 N 138.941 1.26152 0.944643 0
M  V30 1494 C 139.904 1.07474 2.0244 0
M  V30 1495 C 140.904 0.0242064 1.60782 0
M  V30 1496 O 142.094 0.267302 1.72137 0
M  V30 1497 C 139.226 0.633956 3.34953 0
M  V30 1498 H 140.419 2.03336 2.20442 0
M  V30 1499 H 137.972 1.087 1.12312 0
M  V30 1500 H 138.707 -0.326811 3.22649 0
M  V30 1501 H 138.492 1.39247 3.66542 0
M  V30 1502 H 139.982 0.52501 4.14287 0
M  V30 1503 N 140.419 -1.14872 1.07899 0
M  V30 1504 C 141.366 -2.19791 0.704319 0
M  V30 1505 C 142.336 -1.63238 -0.306987 0
M  V30 1506 O 143.521 -1.8983 -0.192171 0
M  V30 1507 C 140.661 -3.44911 0.114244 0
M  V30 1508 C 139.774 -4.15637 1.1777 0
M  V30 1509 C 138.909 -5.28324 0.552037 0
M  V30 1510 C 137.948 -5.90875 1.59789 0
M  V30 1511 N 137.085 -6.95022 0.994404 0
M  V30 1512 H 141.925 -2.5119 1.60336 0
M  V30 1513 H 139.462 -1.23356 0.801352 0
M  V30 1514 H 141.42 -4.16477 -0.245544 0
M  V30 1515 H 140.05 -3.14011 -0.74813 0
M  V30 1516 H 139.102 -3.42512 1.65499 0
M  V30 1517 H 140.414 -4.5823 1.97046 0
M  V30 1518 H 139.568 -6.06538 0.1402 0
M  V30 1519 H 138.307 -4.86939 -0.272431 0
M  V30 1520 H 137.312 -5.11369 2.01945 0
M  V30 1521 H 138.537 -6.34337 2.42474 0
M  V30 1522 H 136.483 -6.55722 0.190939 0
M  V30 1523 H 136.4 -7.36073 1.72432 0
M  V30 1524 H 137.668 -7.77123 0.608253 0
M  V30 1525 N 141.898 -0.863906 -1.31812 0
M  V30 1526 C 142.828 -0.330843 -2.31144 0
M  V30 1527 C 143.809 0.575005 -1.60087 0
M  V30 1528 O 144.994 0.493304 -1.8783 0
M  V30 1529 C 142.124 0.47374 -3.44054 0
M  V30 1530 C 141.078 -0.338481 -4.26659 0
M  V30 1531 C 140.404 0.591412 -5.31419 0
M  V30 1532 C 141.704 -1.56926 -4.98168 0
M  V30 1533 H 143.398 -1.16086 -2.75979 0
M  V30 1534 H 140.944 -0.559657 -1.32679 0
M  V30 1535 H 142.897 0.857143 -4.12591 0
M  V30 1536 H 141.621 1.33721 -2.9797 0
M  V30 1537 H 140.28 -0.703754 -3.59782 0
M  V30 1538 H 139.928 1.45199 -4.81587 0
M  V30 1539 H 139.628 0.0519022 -5.87577 0
M  V30 1540 H 141.152 0.97179 -6.02817 0
M  V30 1541 H 142.566 -1.25764 -5.59336 0
M  V30 1542 H 140.963 -2.04739 -5.64094 0
M  V30 1543 H 142.033 -2.32544 -4.25501 0
M  V30 1544 N 143.376 1.44774 -0.622745 0
M  V30 1545 C 144.622 2.0242 -0.124083 0
M  V30 1546 C 144.955 1.4881 1.24777 0
M  V30 1547 O 144.23 0.668799 1.8264 0
M  V30 1548 C 144.513 3.59957 -0.101619 0
M  V30 1549 C 144.366 4.23867 -1.50521 0
M  V30 1550 C 145.685 4.36284 0.578272 0
M  V30 1551 H 142.804 0.735528 -0.0465645 0
M  V30 1552 H 145.446 1.72447 -0.797617 0
M  V30 1553 H 143.596 3.85623 0.471934 0
M  V30 1554 H 145.268 4.09336 -2.12701 0
M  V30 1555 H 143.511 3.81684 -2.06154 0
M  V30 1556 H 144.182 5.32843 -1.4416 0
M  V30 1557 H 146.658 4.16001 0.0906057 0
M  V30 1558 H 145.534 5.46004 0.563149 0
M  V30 1559 H 145.795 4.10271 1.64713 0
M  V30 1560 N 144.854 0.36279 1.53368 0
M  V30 1561 C 145.786 -0.519668 2.23231 0
M  V30 1562 C 146.799 -1.04844 1.24546 0
M  V30 1563 O 147.988 -0.955296 1.50786 0
M  V30 1564 C 145.088 -1.72995 2.9142 0
M  V30 1565 C 144.261 -1.33316 4.16588 0
M  V30 1566 C 143.32 -2.40521 4.68013 0
M  V30 1567 O 142.346 -2.03027 5.3176 0
M  V30 1568 N 143.548 -3.72065 4.45587 0
M  V30 1569 H 146.313 0.078751 2.99597 0
M  V30 1570 H 143.874 0.187833 1.60807 0
M  V30 1571 H 145.866 -2.44184 3.22733 0
M  V30 1572 H 144.436 -2.2353 2.18525 0
M  V30 1573 H 143.656 -0.451236 3.91609 0
M  V30 1574 H 144.944 -1.04432 4.97967 0
M  V30 1575 H 144.342 -4.05304 3.94646 0
M  V30 1576 H 142.899 -4.39366 4.81457 0
M  V30 1577 N 146.332 -1.57332 0.0918853 0
M  V30 1578 C 147.609 -1.85691 -0.614668 0
M  V30 1579 C 147.989 -0.988146 -1.86545 0
M  V30 1580 O 147.337 -0.0597055 -2.28422 0
M  V30 1581 C 147.547 -3.36294 -0.933126 0
M  V30 1582 C 148.895 -4.04275 -1.29796 0
M  V30 1583 O 149.919 -3.41157 -1.02424 0
M  V30 1584 O 148.778 -5.1564 -1.81047 0
M  V30 1585 H 145.872 -0.767802 -0.307261 0
M  V30 1586 H 148.418 -1.69244 0.12434 0
M  V30 1587 H 147.19 -3.91273 -0.0456404 0
M  V30 1588 H 146.813 -3.58076 -1.72822 0
M  V30 1589 N 147.81 0.181792 -1.56548 0
M  V30 1590 C 149.056 0.901431 -1.81665 0
M  V30 1591 C 149.389 1.82347 -0.668075 0
M  V30 1592 O 148.664 1.91669 0.330615 0
M  V30 1593 C 148.947 1.70618 -3.17115 0
M  V30 1594 C 148.8 0.807964 -4.42484 0
M  V30 1595 C 150.119 2.67605 -3.49393 0
M  V30 1596 H 147.238 0.32627 -0.660846 0
M  V30 1597 H 149.88 0.168134 -1.89255 0
M  V30 1598 H 148.03 2.33133 -3.10775 0
M  V30 1599 H 149.702 0.19649 -4.60881 0
M  V30 1600 H 147.945 0.115411 -4.33646 0
M  V30 1601 H 148.616 1.40632 -5.33785 0
M  V30 1602 H 151.092 2.15218 -3.56118 0
M  V30 1603 H 149.968 3.20985 -4.45264 0
M  V30 1604 H 150.229 3.47298 -2.73563 0
M  V30 1605 N 149.288 1.51039 0.449983 0
M  V30 1606 C 150.251 1.70863 1.5277 0
M  V30 1607 C 151.251 0.578846 1.5002 0
M  V30 1608 O 152.441 0.846213 1.52266 0
M  V30 1609 C 149.573 1.75341 2.9235 0
M  V30 1610 H 150.766 2.67034 1.36502 0
M  V30 1611 H 148.319 1.40838 0.677812 0
M  V30 1612 H 149.054 0.809383 3.14037 0
M  V30 1613 H 148.839 2.57436 2.95752 0
M  V30 1614 H 150.329 1.92559 3.70555 0
M  V30 1615 N 150.766 -0.704594 1.40972 0
M  V30 1616 C 151.714 -1.83994 1.42299 0
M  V30 1617 C 152.708 -1.66684 0.302111 0
M  V30 1618 O 153.914 -1.73655 0.473697 0
M  V30 1619 H 150.289 -0.606171 0.44504 0
M  V30 1620 H 152.26 -1.79992 2.38003 0
M  V30 1621 C 151.009 -3.21946 1.31323 0
M  V30 1622 H 150.332 -3.35878 2.16855 0
M  V30 1623 H 151.772 -4.01491 1.36311 0
M  V30 1624 C 150.231 -3.36891 0.0245977 0
M  V30 1625 O 150.761 -3.90687 -0.934153 0
M  V30 1626 N 148.967 -2.90559 -0.0485243 0
M  V30 1627 H 148.514 -2.46968 0.732419 0
M  V30 1628 H 148.472 -3.00937 -0.910171 0
M  V30 1629 N 152.244 -1.26651 -0.937939 0
M  V30 1630 C 153.192 -1.08308 -2.05845 0
M  V30 1631 C 154.186 -0.0090757 -1.69398 0
M  V30 1632 O 155.392 -0.166007 -1.79233 0
M  V30 1633 H 151.767 -0.333416 -0.674046 0
M  V30 1634 H 153.738 -2.03261 -2.18467 0
M  V30 1635 C 152.487 -0.736229 -3.39816 0
M  V30 1636 H 151.81 -1.55453 -3.6834 0
M  V30 1637 H 153.25 -0.64769 -4.19024 0
M  V30 1638 C 151.709 0.558824 -3.32233 0
M  V30 1639 O 152.239 1.59621 -3.68624 0
M  V30 1640 N 150.445 0.550657 -2.85335 0
M  V30 1641 H 149.992 -0.293943 -2.55917 0
M  V30 1642 H 149.95 1.41726 -2.80644 0
M  V30 1643 N 153.722 1.14298 -1.08507 0
M  V30 1644 C 154.95 1.89219 -0.836876 0
M  V30 1645 C 155.365 1.78638 0.611054 0
M  V30 1646 O 154.722 1.14643 1.41998 0
M  V30 1647 C 154.773 3.39158 -1.25116 0
M  V30 1648 O 154.494 3.49449 -2.64229 0
M  V30 1649 C 155.995 4.31073 -1.03398 0
M  V30 1650 H 153.215 0.599328 -0.301739 0
M  V30 1651 H 155.759 1.44746 -1.44461 0
M  V30 1652 H 153.914 3.81251 -0.687514 0
M  V30 1653 H 154.328 4.42589 -2.81452 0
M  V30 1654 H 155.802 5.34646 -1.37323 0
M  V30 1655 H 156.279 4.3919 0.0289259 0
M  V30 1656 H 156.885 3.94738 -1.58311 0
M  V30 1657 N 155.201 0.870884 1.31352 0
M  V30 1658 C 156.149 0.316445 2.30437 0
M  V30 1659 C 157.143 -0.568965 1.59559 0
M  V30 1660 O 158.349 -0.454964 1.74155 0
M  V30 1661 H 154.724 0.0836521 0.747333 0
M  V30 1662 H 156.695 1.16606 2.74673 0
M  V30 1663 C 155.444 -0.46635 3.44558 0
M  V30 1664 H 154.767 0.205687 3.99271 0
M  V30 1665 H 156.207 -0.819614 4.16003 0
M  V30 1666 C 154.666 -1.65797 2.9328 0
M  V30 1667 O 155.196 -2.75728 2.92125 0
M  V30 1668 N 153.402 -1.49041 2.4947 0
M  V30 1669 H 152.949 -0.59612 2.50608 0
M  V30 1670 H 152.907 -2.28911 2.15516 0
M  V30 1671 N 156.679 -1.44442 0.630414 0
M  V30 1672 C 157.589 -2.34476 -0.0761693 0
M  V30 1673 C 158.605 -1.52576 -0.836449 0
M  V30 1674 O 159.781 -1.85307 -0.788874 0
M  V30 1675 C 156.846 -3.30545 -1.04599 0
M  V30 1676 C 155.907 -4.28352 -0.28516 0
M  V30 1677 C 155.14 -5.19831 -1.20878 0
M  V30 1678 O 155.363 -5.15223 -2.44747 0
M  V30 1679 O 154.297 -5.97892 -0.693491 0
M  V30 1680 H 158.123 -2.96345 0.664324 0
M  V30 1681 H 155.708 -1.44203 0.39061 0
M  V30 1682 H 157.59 -3.89681 -1.60396 0
M  V30 1683 H 156.265 -2.7121 -1.76711 0
M  V30 1684 H 155.172 -3.72764 0.315837 0
M  V30 1685 H 156.505 -4.90605 0.395924 0
M  V30 1686 N 158.157 -0.370918 -1.53173 0
M  V30 1687 C 159.067 0.480823 -2.2962 0
M  V30 1688 C 160.083 1.08789 -1.35798 0
M  V30 1689 O 161.259 1.09768 -1.68858 0
M  V30 1690 C 158.324 1.60227 -3.07454 0
M  V30 1691 C 157.385 1.0222 -4.16953 0
M  V30 1692 C 156.618 2.0902 -4.91066 0
M  V30 1693 O 156.841 3.30222 -4.65091 0
M  V30 1694 O 155.775 1.71778 -5.76867 0
M  V30 1695 H 159.601 -0.141421 -3.03371 0
M  V30 1696 H 157.186 -0.135146 -1.48787 0
M  V30 1697 H 159.068 2.25417 -3.56041 0
M  V30 1698 H 157.743 2.20982 -2.36535 0
M  V30 1699 H 156.65 0.334064 -3.72605 0
M  V30 1700 H 157.983 0.459131 -4.90054 0
M  V30 1701 N 159.635 1.57281 -0.100228 0
M  V30 1702 C 160.598 2.13158 0.842398 0
M  V30 1703 C 161.598 1.06202 1.20738 0
M  V30 1704 O 162.788 1.32066 1.13597 0
M  V30 1705 C 159.92 2.65639 2.13655 0
M  V30 1706 H 161.113 2.97766 0.357114 0
M  V30 1707 H 158.666 1.5559 0.148823 0
M  V30 1708 H 159.401 1.84566 2.66657 0
M  V30 1709 H 159.186 3.43844 1.88451 0
M  V30 1710 H 160.676 3.08846 2.81077 0
M  V30 1711 N 161.113 -0.173488 1.56642 0
M  V30 1712 C 162.361 -0.888706 1.81512 0
M  V30 1713 C 162.682 -1.82875 0.676872 0
M  V30 1714 O 161.952 -1.93536 -0.303414 0
M  V30 1715 H 160.532 -0.331164 0.669582 0
M  V30 1716 H 163.194 -0.173823 1.94123 0
M  V30 1717 H 162.29 -1.46691 2.75478 0
M  V30 1718 N 162.591 -1.51276 -0.441967 0
M  V30 1719 C 163.868 -1.54252 -1.20273 0
M  V30 1720 C 164.248 -0.30408 -2.08898 0
M  V30 1721 O 163.596 0.711084 -2.17154 0
M  V30 1722 C 163.806 -2.85406 -2.00859 0
M  V30 1723 C 165.154 -3.37181 -2.58059 0
M  V30 1724 O 166.178 -2.86925 -2.11074 0
M  V30 1725 O 165.037 -4.24858 -3.43741 0
M  V30 1726 H 162.131 -0.619969 -0.547328 0
M  V30 1727 H 164.677 -1.63586 -0.451413 0
M  V30 1728 H 163.449 -3.67003 -1.35736 0
M  V30 1729 H 163.072 -2.79213 -2.83065 0
M  V30 1730 N 164.069 0.697108 -1.41344 0
M  V30 1731 C 165.317 1.45426 -1.40341 0
M  V30 1732 C 165.638 1.94996 -0.0128787 0
M  V30 1733 O 164.908 1.71599 0.945027 0
M  V30 1734 H 163.488 0.539594 -0.516573 0
M  V30 1735 H 166.15 0.825201 -1.76569 0
M  V30 1736 H 165.246 2.31817 -2.08967 0
M  V30 1737 N 165.547 1.27147 0.931209 0
M  V30 1738 C 166.775 1.16082 1.71267 0
M  V30 1739 C 167.19 -0.282772 1.8667 0
M  V30 1740 O 166.547 -1.19283 1.38122 0
M  V30 1741 C 166.598 1.8358 3.11417 0
M  V30 1742 O 166.319 3.22299 2.96741 0
M  V30 1743 C 167.82 1.78597 4.05732 0
M  V30 1744 H 165.04 0.403758 0.535929 0
M  V30 1745 H 167.584 1.67953 1.16671 0
M  V30 1746 H 165.739 1.35623 3.62885 0
M  V30 1747 H 166.153 3.55851 3.85319 0
M  V30 1748 H 167.627 2.30444 5.01597 0
M  V30 1749 H 168.104 0.754564 4.3267 0
M  V30 1750 H 168.71 2.26152 3.60188 0
M  V30 1751 N 167.025 -1.13721 1.09112 0
M  V30 1752 C 168.253 -1.88773 0.846899 0
M  V30 1753 C 168.668 -1.7896 -0.601572 0
M  V30 1754 O 168.025 -1.15394 -1.41388 0
M  V30 1755 C 168.076 -3.3849 1.26913 0
M  V30 1756 O 167.797 -3.48043 2.66079 0
M  V30 1757 C 169.298 -4.30518 1.05682 0
M  V30 1758 H 166.518 -0.59772 0.304914 0
M  V30 1759 H 169.062 -1.43977 1.45227 0
M  V30 1760 H 167.217 -3.80881 0.707723 0
M  V30 1761 H 167.631 -4.4109 2.83795 0
M  V30 1762 H 169.105 -5.3391 1.40156 0
M  V30 1763 H 169.582 -4.392 -0.00563416 0
M  V30 1764 H 170.188 -3.93893 1.60402 0
M  V30 1765 N 168.503 -0.877838 -1.30888 0
M  V30 1766 C 169.731 -0.507414 -2.00581 0
M  V30 1767 C 170.146 0.902216 -1.65848 0
M  V30 1768 O 169.503 1.59225 -0.891831 0
M  V30 1769 C 169.554 -0.664162 -3.55347 0
M  V30 1770 O 169.275 -2.01829 -3.8884 0
M  V30 1771 C 170.776 -0.295787 -4.42312 0
M  V30 1772 H 167.996 -0.196866 -0.641471 0
M  V30 1773 H 170.54 -1.18117 -1.66939 0
M  V30 1774 H 168.695 -0.0378619 -3.87381 0
M  V30 1775 H 169.109 -2.03174 -4.8355 0
M  V30 1776 H 170.583 -0.456388 -5.5011 0
M  V30 1777 H 171.06 0.765663 -4.32475 0
M  V30 1778 H 171.666 -0.898113 -4.15709 0
M  V30 1779 N 169.982 1.44106 -0.638065 0
M  V30 1780 C 170.945 2.29138 0.0531013 0
M  V30 1781 C 171.945 1.41409 0.765506 0
M  V30 1782 O 173.135 1.63206 0.609046 0
M  V30 1783 C 170.267 3.23144 1.08584 0
M  V30 1784 H 171.46 2.91739 -0.694883 0
M  V30 1785 H 169.013 1.51134 -0.398538 0
M  V30 1786 H 169.748 2.65408 1.86357 0
M  V30 1787 H 169.533 3.87804 0.578852 0
M  V30 1788 H 171.023 3.87004 1.56899 0
M  V30 1789 N 171.46 0.379036 1.52974 0
M  V30 1790 C 172.688 -0.20679 2.05864 0
M  V30 1791 C 173.103 -1.41356 1.25155 0
M  V30 1792 O 172.46 -1.8009 0.295588 0
M  V30 1793 C 172.511 -0.587045 3.56702 0
M  V30 1794 O 172.232 0.571776 4.34353 0
M  V30 1795 C 173.733 -1.22983 4.25899 0
M  V30 1796 H 170.953 -0.0336123 0.670158 0
M  V30 1797 H 173.497 0.541298 1.97206 0
M  V30 1798 H 171.652 -1.28504 3.65466 0
M  V30 1799 H 172.066 0.261544 5.23847 0
M  V30 1800 H 173.54 -1.44635 5.32715 0
M  V30 1801 H 174.017 -2.19416 3.80465 0
M  V30 1802 H 174.623 -0.572892 4.21424 0
M  V30 1803 N 172.938 -1.57226 0.108567 0
M  V30 1804 C 174.184 -1.95121 -0.552761 0
M  V30 1805 C 174.517 -0.991345 -1.66991 0
M  V30 1806 O 173.792 -0.0267211 -1.94482 0
M  V30 1807 C 174.075 -3.43039 -1.09528 0
M  V30 1808 C 173.928 -4.49797 0.0177332 0
M  V30 1809 C 175.247 -3.92567 -1.98945 0
M  V30 1810 H 172.366 -0.709496 -0.199461 0
M  V30 1811 H 175.008 -1.89126 0.182011 0
M  V30 1812 H 173.158 -3.48279 -1.72146 0
M  V30 1813 H 174.83 -4.56661 0.652584 0
M  V30 1814 H 173.073 -4.284 0.682309 0
M  V30 1815 H 173.744 -5.50528 -0.402919 0
M  V30 1816 H 176.22 -3.89565 -1.46214 0
M  V30 1817 H 175.096 -4.96605 -2.33827 0
M  V30 1818 H 175.357 -3.32648 -2.91201 0
M  V30 1819 N 174.416 0.165178 -1.56732 0
M  V30 1820 C 175.346 1.20651 -1.99914 0
M  V30 1821 C 176.327 1.45827 -0.875705 0
M  V30 1822 O 177.512 1.57057 -1.14223 0
M  V30 1823 C 174.642 2.54401 -2.36427 0
M  V30 1824 C 173.596 2.43782 -3.51787 0
M  V30 1825 C 172.922 3.82078 -3.7406 0
M  V30 1826 C 174.222 1.93732 -4.85041 0
M  V30 1827 H 175.916 0.847534 -2.87154 0
M  V30 1828 H 173.462 0.40625 -1.38151 0
M  V30 1829 H 175.415 3.27458 -2.65234 0
M  V30 1830 H 174.139 2.92098 -1.46103 0
M  V30 1831 H 172.798 1.73178 -3.23117 0
M  V30 1832 H 172.446 4.17179 -2.81017 0
M  V30 1833 H 172.146 3.7584 -4.51684 0
M  V30 1834 H 173.67 4.56712 -4.05274 0
M  V30 1835 H 175.084 2.56569 -5.12684 0
M  V30 1836 H 173.481 1.98428 -5.66345 0
M  V30 1837 H 174.551 0.891962 -4.76626 0
M  V30 1838 N 175.894 1.51508 0.433938 0
M  V30 1839 C 176.857 1.72473 1.50949 0
M  V30 1840 C 177.857 0.594725 1.49398 0
M  V30 1841 O 179.047 0.862315 1.5136 0
M  V30 1842 C 176.179 1.78431 2.90474 0
M  V30 1843 H 177.372 2.68467 1.33662 0
M  V30 1844 H 174.925 1.41549 0.662836 0
M  V30 1845 H 175.66 0.842645 3.13161 0
M  V30 1846 H 175.445 2.60558 2.93005 0
M  V30 1847 H 176.935 1.96479 3.68491 0
M  V30 1848 N 177.372 -0.689602 1.41712 0
M  V30 1849 C 178.788 -1.00093 1.24312 0
M  V30 1850 C 178.988 -2.01036 0.136729 0
M  V30 1851 O 178.044 -2.47562 -0.496918 0
M  V30 1852 C 179.357 -1.51985 2.59463 0
M  V30 1853 C 180.905 -1.63838 2.66695 0
M  V30 1854 C 181.38 -2.1913 4.02177 0
M  V30 1855 N 182.871 -2.26483 4.04054 0
M  V30 1856 C 183.606 -2.70306 5.0569 0
M  V30 1857 N 183.102 -3.13691 6.17713 0
M  V30 1858 N 184.895 -2.69923 4.9305 0
M  V30 1859 H 177.046 -0.0210029 2.1239 0
M  V30 1860 H 179.309 -0.0718733 0.945272 0
M  V30 1861 H 179.015 -0.85269 3.41207 0
M  V30 1862 H 178.889 -2.50103 2.82362 0
M  V30 1863 H 181.276 -2.29664 1.85306 0
M  V30 1864 H 181.357 -0.642492 2.476 0
M  V30 1865 H 181.001 -1.53918 4.84016 0
M  V30 1866 H 180.931 -3.19482 4.18615 0
M  V30 1867 H 183.422 -1.95874 3.23174 0
M  V30 1868 H 183.735 -3.45773 6.9113 0
M  V30 1869 H 182.08 -3.11585 6.21241 0
M  V30 1870 H 185.271 -2.35382 4.04614 0
M  V30 1871 H 185.444 -3.03758 5.72394 0
M  V30 1872 N 178.85 -1.27639 -0.924453 0
M  V30 1873 C 180.075 -1.17101 -1.71179 0
M  V30 1874 C 180.5 0.268134 -1.86179 0
M  V30 1875 O 179.858 1.19415 -1.36418 0
M  V30 1876 C 179.906 -1.86313 -3.08739 0
M  V30 1877 O 179.01 -1.16331 -3.95652 0
M  V30 1878 H 178.351 -0.407091 -0.524569 0
M  V30 1879 H 180.881 -1.68767 -1.15666 0
M  V30 1880 H 180.891 -1.938 -3.59034 0
M  V30 1881 H 179.566 -2.91001 -2.97138 0
M  V30 1882 H 178.143 -1.16935 -3.54091 0
M  V30 1883 N 180.328 1.1314 -1.09713 0
M  V30 1884 C 181.577 1.83838 -0.829851 0
M  V30 1885 C 181.89 1.84599 0.646728 0
M  V30 1886 O 183.096 2.51218 1.02965 0
M  V30 1887 C 181.552 3.30069 -1.43466 0
M  V30 1888 C 181.16 3.37688 -2.94399 0
M  V30 1889 C 182.904 4.05788 -1.24645 0
M  V30 1890 C 180.811 4.78209 -3.47952 0
M  V30 1891 H 179.741 0.68877 -0.306777 0
M  V30 1892 H 182.392 1.27448 -1.3202 0
M  V30 1893 H 180.774 3.8628 -0.871996 0
M  V30 1894 H 181.948 2.91456 -3.56918 0
M  V30 1895 H 180.263 2.75436 -3.12289 0
M  V30 1896 H 182.86 5.09535 -1.62107 0
M  V30 1897 H 183.203 4.15878 -0.187357 0
M  V30 1898 H 183.736 3.55915 -1.77678 0
M  V30 1899 H 180.475 4.73311 -4.53495 0
M  V30 1900 H 179.995 5.24924 -2.90198 0
M  V30 1901 H 181.674 5.47133 -3.45332 0
M  V30 1902 N 181.806 0.884767 1.30421 0
M  V30 1903 C 182.769 0.356277 2.26414 0
M  V30 1904 C 183.769 -0.501124 1.52792 0
M  V30 1905 O 184.959 -0.30831 1.7145 0
M  V30 1906 C 182.091 -0.492316 3.37326 0
M  V30 1907 H 183.284 1.20389 2.74675 0
M  V30 1908 H 180.837 0.661607 1.41607 0
M  V30 1909 H 181.572 -1.36052 2.94381 0
M  V30 1910 H 181.357 0.121832 3.91911 0
M  V30 1911 H 182.847 -0.853871 4.08777 0
M  V30 1912 N 183.284 -1.43765 0.645699 0
M  V30 1913 C 184.231 -2.30745 -0.0504648 0
M  V30 1914 C 185.201 -1.4432 -0.822241 0
M  V30 1915 O 186.386 -1.73202 -0.800358 0
M  V30 1916 C 183.526 -3.29802 -1.0161 0
M  V30 1917 C 182.639 -4.31326 -0.241219 0
M  V30 1918 C 181.774 -5.17469 -1.19998 0
M  V30 1919 C 180.813 -6.10691 -0.415094 0
M  V30 1920 N 179.95 -6.89483 -1.32506 0
M  V30 1921 H 184.79 -2.8973 0.697155 0
M  V30 1922 H 182.327 -1.42738 0.355563 0
M  V30 1923 H 184.285 -3.85734 -1.58949 0
M  V30 1924 H 182.915 -2.72483 -1.73069 0
M  V30 1925 H 181.967 -3.77749 0.448334 0
M  V30 1926 H 183.279 -4.9743 0.369437 0
M  V30 1927 H 182.433 -5.7799 -1.84424 0
M  V30 1928 H 181.172 -4.51473 -1.84455 0
M  V30 1929 H 180.177 -5.49265 0.242565 0
M  V30 1930 H 181.402 -6.78727 0.224966 0
M  V30 1931 H 179.348 -6.26142 -1.95657 0
M  V30 1932 H 179.265 -7.52081 -0.768783 0
M  V30 1933 H 180.533 -7.54516 -1.9577 0
M  V30 1934 N 184.763 -0.387143 -1.52771 0
M  V30 1935 C 185.673 0.456442 -2.30117 0
M  V30 1936 C 186.689 1.07342 -1.36944 0
M  V30 1937 O 187.865 1.07971 -1.70013 0
M  V30 1938 C 184.93 1.56957 -3.09136 0
M  V30 1939 C 183.991 0.977916 -4.18014 0
M  V30 1940 C 183.224 2.038 -4.93256 0
M  V30 1941 O 183.447 3.25271 -4.68567 0
M  V30 1942 O 182.381 1.6565 -5.78657 0
M  V30 1943 H 186.207 -0.17359 -3.03203 0
M  V30 1944 H 183.792 -0.150919 -1.48636 0
M  V30 1945 H 185.674 2.21628 -3.58412 0
M  V30 1946 H 184.349 2.18461 -2.38865 0
M  V30 1947 H 183.256 0.294525 -3.72939 0
M  V30 1948 H 184.589 0.407128 -4.90513 0
M  V30 1949 N 186.241 1.57166 -0.116904 0
M  V30 1950 C 187.489 1.94737 0.540533 0
M  V30 1951 C 187.81 1.00096 1.67349 0
M  V30 1952 O 187.08 0.0568854 1.95817 0
M  V30 1953 H 185.66 0.718981 0.202669 0
M  V30 1954 H 188.322 1.94017 -0.185353 0
M  V30 1955 H 187.418 2.97719 0.936483 0
M  V30 1956 N 187.719 -0.156864 1.56817 0
M  V30 1957 C 188.966 -0.871125 1.82805 0
M  V30 1958 C 189.294 -1.81611 0.696262 0
M  V30 1959 O 188.549 -1.93141 -0.315459 0
M  V30 1960 C 188.848 -1.68737 3.1506 0
M  V30 1961 C 188.514 -0.890045 4.42028 0
M  V30 1962 C 187.176 -0.670042 4.76512 0
M  V30 1963 C 189.528 -0.331769 5.20143 0
M  V30 1964 C 186.856 0.119104 5.86579 0
M  V30 1965 C 189.208 0.444365 6.31037 0
M  V30 1966 C 187.872 0.675035 6.64078 0
M  V30 1967 H 187.142 -0.318767 0.668931 0
M  V30 1968 H 189.789 -0.135274 1.91022 0
M  V30 1969 H 188.094 -2.49304 3.0225 0
M  V30 1970 H 189.791 -2.24331 3.3238 0
M  V30 1971 H 186.381 -1.07157 4.14988 0
M  V30 1972 H 190.565 -0.489043 4.93885 0
M  V30 1973 H 185.821 0.307417 6.10627 0
M  V30 1974 H 189.995 0.884139 6.90765 0
M  V30 1975 H 187.622 1.28839 7.49203 0
M  V30 1976 N 189.197 -1.51736 -0.425897 0
M  V30 1977 C 190.107 -1.76738 -1.54275 0
M  V30 1978 C 191.123 -0.65211 -1.61318 0
M  V30 1979 O 192.299 -0.935654 -1.78346 0
M  V30 1980 C 189.364 -1.89755 -2.90162 0
M  V30 1981 C 188.425 -3.13633 -2.93143 0
M  V30 1982 C 187.658 -3.2602 -4.22548 0
M  V30 1983 O 187.881 -2.44067 -5.15546 0
M  V30 1984 O 186.815 -4.19071 -4.32046 0
M  V30 1985 H 190.641 -2.71502 -1.36089 0
M  V30 1986 H 188.226 -1.36376 -0.610069 0
M  V30 1987 H 190.108 -2.00236 -3.70788 0
M  V30 1988 H 188.783 -0.981785 -3.08452 0
M  V30 1989 H 187.69 -3.08622 -2.11431 0
M  V30 1990 H 189.023 -4.04936 -2.798 0
M  V30 1991 N 190.675 0.682077 -1.42076 0
M  V30 1992 C 191.622 1.79578 -1.44984 0
M  V30 1993 C 192.592 1.6332 -0.302614 0
M  V30 1994 O 193.777 1.83978 -0.505633 0
M  V30 1995 C 190.917 3.1756 -1.35091 0
M  V30 1996 C 190.03 3.45156 -2.59791 0
M  V30 1997 C 189.165 4.72826 -2.42093 0
M  V30 1998 C 188.204 4.93433 -3.62202 0
M  V30 1999 N 187.341 6.12338 -3.43491 0
M  V30 2000 H 192.181 1.76427 -2.40161 0
M  V30 2001 H 189.718 0.861376 -1.19242 0
M  V30 2002 H 191.676 3.97287 -1.27354 0
M  V30 2003 H 190.306 3.19854 -0.435133 0
M  V30 2004 H 189.358 2.59736 -2.77923 0
M  V30 2005 H 190.67 3.5628 -3.49094 0
M  V30 2006 H 189.824 5.60631 -2.319 0
M  V30 2007 H 188.563 4.63973 -1.50268 0
M  V30 2008 H 187.568 4.04073 -3.72834 0
M  V30 2009 H 188.793 5.04136 -4.54998 0
M  V30 2010 H 186.739 6.04672 -2.54377 0
M  V30 2011 H 186.656 6.2429 -4.26377 0
M  V30 2012 H 187.924 7.02841 -3.37097 0
M  V30 2013 N 192.153 1.28127 0.917671 0
M  V30 2014 C 193.402 1.14432 1.66097 0
M  V30 2015 C 193.715 -0.307247 1.93172 0
M  V30 2016 O 194.921 -0.565259 2.65551 0
M  V30 2017 C 193.377 2.00015 2.99202 0
M  V30 2018 C 192.985 3.49889 2.79789 0
M  V30 2019 C 194.729 1.94996 3.77064 0
M  V30 2020 C 192.636 4.27636 4.08511 0
M  V30 2021 H 191.566 0.424662 0.62304 0
M  V30 2022 H 194.217 1.52628 1.01868 0
M  V30 2023 H 192.599 1.54672 3.64544 0
M  V30 2024 H 193.773 4.03162 2.23152 0
M  V30 2025 H 192.088 3.56392 2.15345 0
M  V30 2026 H 194.685 2.50354 4.72469 0
M  V30 2027 H 195.028 0.925819 4.05875 0
M  V30 2028 H 195.561 2.38287 3.18534 0
M  V30 2029 H 192.3 5.30615 3.84874 0
M  V30 2030 H 191.82 3.79137 4.64774 0
M  V30 2031 H 193.499 4.37346 4.76799 0
M  V30 2032 N 193.631 -1.12557 1.10312 0
M  V30 2033 C 194.856 -1.88405 0.867085 0
M  V30 2034 C 195.281 -1.79038 -0.576817 0
M  V30 2035 O 194.639 -1.14439 -1.40618 0
M  V30 2036 C 194.687 -3.3563 1.31851 0
M  V30 2037 O 193.791 -4.09565 0.482734 0
M  V30 2038 H 193.132 -0.585455 0.313271 0
M  V30 2039 H 195.662 -1.42352 1.4696 0
M  V30 2040 H 195.672 -3.86469 1.3079 0
M  V30 2041 H 194.347 -3.41765 2.37001 0
M  V30 2042 H 192.924 -3.68695 0.558448 0
M  V30 2043 N 195.109 -0.891671 -1.2995 0
M  V30 2044 C 196.056 -0.361736 -2.27948 0
M  V30 2045 C 197.026 0.551761 -1.56668 0
M  V30 2046 O 198.211 0.478736 -1.84696 0
M  V30 2047 C 195.351 0.411825 -3.42634 0
M  V30 2048 C 194.464 -0.531651 -4.28716 0
M  V30 2049 C 193.599 0.258167 -5.30572 0
M  V30 2050 C 192.638 -0.680349 -6.08307 0
M  V30 2051 N 191.775 0.0745613 -7.0206 0
M  V30 2052 H 196.615 -1.20254 -2.72659 0
M  V30 2053 H 194.152 -0.604352 -1.34112 0
M  V30 2054 H 196.11 0.876304 -4.07893 0
M  V30 2055 H 194.74 1.21715 -2.98974 0
M  V30 2056 H 193.792 -1.11463 -3.63703 0
M  V30 2057 H 195.104 -1.25038 -4.82874 0
M  V30 2058 H 194.258 0.784204 -6.0161 0
M  V30 2059 H 192.997 1.01008 -4.77126 0
M  V30 2060 H 192.002 -1.21796 -5.3614 0
M  V30 2061 H 193.227 -1.43145 -6.63842 0
M  V30 2062 H 191.173 0.808883 -6.50994 0
M  V30 2063 H 191.09 -0.584409 -7.53738 0
M  V30 2064 H 192.358 0.581123 -7.77331 0
M  V30 2065 N 196.587 1.43421 -0.653314 0
M  V30 2066 C 197.835 2.01414 -0.166415 0
M  V30 2067 C 198.156 1.51803 1.22397 0
M  V30 2068 O 197.426 0.730693 1.81763 0
M  V30 2069 H 196.006 0.744703 -0.0585319 0
M  V30 2070 H 198.668 1.75629 -0.845003 0
M  V30 2071 H 197.764 3.11734 -0.151111 0
M  V30 2072 N 198.065 0.39524 1.52563 0
M  V30 2073 C 199.028 -0.425001 2.25225 0
M  V30 2074 C 200.028 -0.985266 1.27079 0
M  V30 2075 O 201.218 -0.866332 1.5113 0
M  V30 2076 C 198.35 -1.59686 3.01186 0
M  V30 2077 H 199.543 0.211233 2.99155 0
M  V30 2078 H 197.096 0.147472 1.55603 0
M  V30 2079 H 197.831 -2.27035 2.31572 0
M  V30 2080 H 197.616 -1.20176 3.73229 0
M  V30 2081 H 199.106 -2.17743 3.5634 0
M  V30 2082 N 199.544 -1.57102 0.125237 0
M  V30 2083 C 200.492 -2.16905 -0.839927 0
M  V30 2084 C 201.486 -1.11998 -1.27094 0
M  V30 2085 O 202.692 -1.3029 -1.24195 0
M  V30 2086 H 199.067 -0.694252 -0.288995 0
M  V30 2087 H 201.038 -2.96774 -0.311115 0
M  V30 2088 C 199.787 -2.78795 -2.07771 0
M  V30 2089 H 199.11 -3.59221 -1.755 0
M  V30 2090 H 200.55 -3.2417 -2.73295 0
M  V30 2091 C 199.009 -1.76193 -2.87155 0
M  V30 2092 O 199.539 -1.21909 -3.82755 0
M  V30 2093 N 197.745 -1.45991 -2.51267 0
M  V30 2094 H 197.292 -1.90325 -1.73592 0
M  V30 2095 H 197.25 -0.775844 -3.04677 0
M  V30 2096 N 201.022 0.148545 -1.56898 0
M  V30 2097 C 202.433 0.708766 -1.72723 0
M  V30 2098 C 202.784 1.81734 -0.739395 0
M  V30 2099 O 201.909 2.16194 0.0943169 0
M  V30 2100 C 202.504 1.29245 -3.13179 0
M  V30 2101 C 201.063 1.79925 -3.30611 0
M  V30 2102 C 200.21 0.687111 -2.68652 0
M  V30 2103 H 203.161 -0.0771063 -1.58513 0
M  V30 2104 H 203.182 2.16224 -3.13093 0
M  V30 2105 H 202.694 0.485382 -3.85053 0
M  V30 2106 H 200.795 2.63203 -2.63732 0
M  V30 2107 H 200.908 1.92903 -4.38549 0
M  V30 2108 H 199.272 1.11335 -2.29078 0
M  V30 2109 H 200.055 -0.108483 -3.43129 0
M  V30 2110 N 202.5 1.5196 0.417844 0
M  V30 2111 C 203.746 1.65836 1.16732 0
M  V30 2112 C 204.079 0.382881 1.90388 0
M  V30 2113 O 203.354 -0.618368 1.84408 0
M  V30 2114 C 203.637 2.87466 2.16876 0
M  V30 2115 C 203.49 4.25041 1.47174 0
M  V30 2116 C 204.809 3.04613 3.17646 0
M  V30 2117 H 201.928 0.603515 0.423011 0
M  V30 2118 H 204.57 1.84494 0.454105 0
M  V30 2119 H 202.72 2.71689 2.777 0
M  V30 2120 H 204.392 4.52527 0.895376 0
M  V30 2121 H 202.635 4.26843 0.773806 0
M  V30 2122 H 203.306 5.06176 2.20204 0
M  V30 2123 H 205.782 3.1923 2.66892 0
M  V30 2124 H 204.658 3.91247 3.8499 0
M  V30 2125 H 204.919 2.17541 3.84874 0
M  V30 2126 N 203.978 -0.674533 1.42435 0
M  V30 2127 C 204.888 -1.81751 1.48337 0
M  V30 2128 C 205.904 -1.69975 0.372099 0
M  V30 2129 O 207.08 -1.91521 0.62304 0
M  V30 2130 C 204.145 -3.17895 1.38361 0
M  V30 2131 C 203.206 -3.41625 2.59982 0
M  V30 2132 C 202.439 -4.71274 2.50473 0
M  V30 2133 O 202.662 -5.49197 1.54075 0
M  V30 2134 O 201.596 -4.96254 3.4061 0
M  V30 2135 H 205.422 -1.79728 2.44809 0
M  V30 2136 H 203.007 -0.830312 1.24202 0
M  V30 2137 H 204.889 -3.99136 1.35161 0
M  V30 2138 H 203.564 -3.20555 0.450144 0
M  V30 2139 H 202.471 -2.60231 2.68757 0
M  V30 2140 H 203.804 -3.43796 3.52229 0
M  V30 2141 N 205.456 -1.28612 -0.910864 0
M  V30 2142 C 206.705 -1.15311 -1.65488 0
M  V30 2143 C 207.018 0.296999 -1.93332 0
M  V30 2144 O 208.224 0.551168 -2.65847 0
M  V30 2145 C 206.68 -2.01599 -2.98137 0
M  V30 2146 C 206.288 -3.51367 -2.7793 0
M  V30 2147 C 208.032 -1.96993 -3.76024 0
M  V30 2148 C 205.939 -4.29797 -4.06237 0
M  V30 2149 H 204.869 -0.42796 -0.620779 0
M  V30 2150 H 207.52 -1.53166 -1.01057 0
M  V30 2151 H 205.902 -1.56603 -3.63719 0
M  V30 2152 H 207.076 -4.0434 -2.21011 0
M  V30 2153 H 205.391 -3.57529 -2.13452 0
M  V30 2154 H 207.988 -2.52856 -4.71135 0
M  V30 2155 H 208.331 -0.94733 -4.05378 0
M  V30 2156 H 208.864 -2.39973 -3.17266 0
M  V30 2157 H 205.603 -5.32648 -3.82055 0
M  V30 2158 H 205.123 -3.81596 -4.62757 0
M  V30 2159 H 206.802 -4.39869 -4.74473 0
M  V30 2160 N 206.934 1.1197 -1.10907 0
M  V30 2161 C 208.35 1.35591 -0.841852 0
M  V30 2162 C 208.55 1.94233 0.536246 0
M  V30 2163 O 207.606 2.1717 1.28816 0
M  V30 2164 C 208.919 2.29284 -1.94549 0
M  V30 2165 C 210.467 2.42862 -1.97451 0
M  V30 2166 C 210.942 3.39873 -3.07002 0
M  V30 2167 N 212.433 3.47433 -3.06341 0
M  V30 2168 C 213.168 4.22421 -3.87748 0
M  V30 2169 N 212.664 5.00432 -4.79103 0
M  V30 2170 N 214.457 4.17876 -3.75946 0
M  V30 2171 H 206.608 0.722664 -1.99728 0
M  V30 2172 H 208.871 0.380635 -0.868229 0
M  V30 2173 H 208.577 1.93378 -2.93765 0
M  V30 2174 H 208.451 3.29452 -1.83688 0
M  V30 2175 H 210.838 2.78046 -0.988645 0
M  V30 2176 H 210.919 1.42566 -2.12388 0
M  V30 2177 H 210.563 3.05417 -4.05811 0
M  V30 2178 H 210.493 4.40011 -2.89306 0
M  V30 2179 H 212.984 2.91784 -2.40147 0
M  V30 2180 H 213.297 5.55002 -5.37766 0
M  V30 2181 H 211.642 4.99612 -4.83128 0
M  V30 2182 H 214.833 3.56016 -3.03924 0
M  V30 2183 H 215.006 4.76061 -4.39624 0
M  V30 2184 N 208.412 0.89855 1.29475 0
M  V30 2185 C 209.828 0.594483 1.48115 0
M  V30 2186 C 210.028 -0.86431 1.82022 0
M  V30 2187 O 209.084 -1.64457 1.91599 0
M  V30 2188 C 210.397 1.51932 2.59494 0
M  V30 2189 C 211.945 1.5244 2.7337 0
M  V30 2190 C 212.42 2.43548 3.87877 0
M  V30 2191 N 213.911 2.41589 3.95208 0
M  V30 2192 C 214.646 3.08789 4.83153 0
M  V30 2193 N 214.142 3.85265 5.75798 0
M  V30 2194 N 215.935 2.97952 4.76635 0
M  V30 2195 H 208.086 1.84207 1.05742 0
M  V30 2196 H 210.349 0.789251 0.525154 0
M  V30 2197 H 210.055 2.55865 2.41301 0
M  V30 2198 H 209.929 1.23899 3.56271 0
M  V30 2199 H 212.316 0.492518 2.90961 0
M  V30 2200 H 212.397 1.8451 1.77172 0
M  V30 2201 H 212.041 3.46829 3.71041 0
M  V30 2202 H 211.971 2.08788 4.83441 0
M  V30 2203 H 214.462 1.86025 3.28943 0
M  V30 2204 H 214.775 4.33598 6.39697 0
M  V30 2205 H 213.12 3.89371 5.75687 0
M  V30 2206 H 216.311 2.37723 4.03244 0
M  V30 2207 H 216.484 3.50599 5.44962 0
M  V30 2208 N 209.89 -1.43072 0.660911 0
M  V30 2209 C 211.138 -2.01323 0.177094 0
M  V30 2210 C 211.459 -1.5245 -1.2159 0
M  V30 2211 O 210.729 -0.740322 -1.81373 0
M  V30 2212 H 209.309 -0.744382 0.0624804 0
M  V30 2213 H 211.971 -1.75179 0.854305 0
M  V30 2214 H 211.067 -3.11649 0.167641 0
M  V30 2215 N 211.368 -0.403325 -1.52352 0
M  V30 2216 C 212.614 0.174605 -2.02047 0
M  V30 2217 C 212.947 1.45282 -1.28867 0
M  V30 2218 O 212.222 1.90483 -0.393257 0
M  V30 2219 C 212.505 0.428238 -3.57545 0
M  V30 2220 C 212.358 -0.866248 -4.4138 0
M  V30 2221 C 213.677 1.21287 -4.23057 0
M  V30 2222 H 210.796 0.0619851 -0.734389 0
M  V30 2223 H 213.438 -0.53565 -1.82293 0
M  V30 2224 H 211.588 1.03327 -3.74507 0
M  V30 2225 H 213.26 -1.50265 -4.3614 0
M  V30 2226 H 211.503 -1.47851 -4.07827 0
M  V30 2227 H 212.174 -0.643249 -5.48239 0
M  V30 2228 H 214.65 0.700703 -4.10158 0
M  V30 2229 H 213.526 1.35909 -5.31808 0
M  V30 2230 H 213.787 2.23193 -3.81625 0
M  V30 2231 N 212.846 1.57033 -0.133567 0
M  V30 2232 C 213.779 2.11824 0.848872 0
M  V30 2233 C 214.757 1.03833 1.2513 0
M  V30 2234 O 215.941 1.31579 1.34978 0
M  V30 2235 C 213.068 2.62692 2.138 0
M  V30 2236 C 212.114 3.82705 1.88253 0
M  V30 2237 S 212.947 5.2438 1.08563 0
M  V30 2238 C 214.103 5.78627 2.38624 0
M  V30 2239 H 214.336 2.94824 0.38289 0
M  V30 2240 H 211.869 1.5419 0.0804796 0
M  V30 2241 H 213.827 2.92652 2.87863 0
M  V30 2242 H 212.488 1.79847 2.57515 0
M  V30 2243 H 211.681 4.16496 2.83809 0
M  V30 2244 H 211.283 3.53437 1.22305 0
M  V30 2245 H 213.575 5.8924 3.34369 0
M  V30 2246 H 214.518 6.76443 2.09358 0
M  V30 2247 H 214.926 5.06783 2.48658 0
M  V30 2248 N 214.325 -0.140222 1.56975 0
M  V30 2249 C 215.255 -1.17456 2.01808 0
M  V30 2250 C 216.236 -1.44415 0.898794 0
M  V30 2251 O 217.421 -1.5522 1.16707 0
M  V30 2252 C 214.551 -2.50607 2.40444 0
M  V30 2253 C 213.505 -2.38155 3.55621 0
M  V30 2254 C 212.831 -3.76078 3.80091 0
M  V30 2255 C 214.131 -1.85991 4.88062 0
M  V30 2256 H 215.825 -0.801743 2.88466 0
M  V30 2257 H 213.371 -0.38422 1.38779 0
M  V30 2258 H 215.324 -3.23197 2.7041 0
M  V30 2259 H 214.048 -2.89737 1.50732 0
M  V30 2260 H 212.707 -1.68016 3.25832 0
M  V30 2261 H 212.355 -4.12656 2.87618 0
M  V30 2262 H 212.055 -3.68606 4.57606 0
M  V30 2263 H 213.579 -4.50206 4.12488 0
M  V30 2264 H 214.993 -2.4838 5.16701 0
M  V30 2265 H 213.39 -1.89393 5.6943 0
M  V30 2266 H 214.46 -0.816023 4.77984 0
M  V30 2267 N 215.803 -1.52179 -0.40978 0
M  V30 2268 C 216.766 -1.74853 -1.48186 0
M  V30 2269 C 217.766 -0.618417 -1.48433 0
M  V30 2270 O 218.956 -0.886286 -1.49969 0
M  V30 2271 C 216.088 -1.8303 -2.87598 0
M  V30 2272 H 217.281 -2.70559 -1.29374 0
M  V30 2273 H 214.834 -1.42586 -0.640233 0
M  V30 2274 H 215.569 -0.89236 -3.11781 0
M  V30 2275 H 215.354 -2.65187 -2.88822 0
M  V30 2276 H 216.844 -2.02316 -3.65319 0
M  V30 2277 N 217.281 0.66697 -1.42791 0
M  V30 2278 C 218.527 1.4291 -1.43891 0
M  V30 2279 C 218.86 1.94114 -0.0578972 0
M  V30 2280 O 218.135 1.71414 0.91911 0
M  V30 2281 C 218.418 2.62049 -2.46987 0
M  V30 2282 C 218.271 2.16426 -3.94309 0
M  V30 2283 C 219.59 3.64266 -2.46978 0
M  V30 2284 H 216.709 0.518306 -0.523954 0
M  V30 2285 H 219.351 0.757321 -1.74255 0
M  V30 2286 H 217.501 3.19361 -2.21225 0
M  V30 2287 H 219.173 1.64221 -4.31079 0
M  V30 2288 H 217.416 1.47925 -4.078 0
M  V30 2289 H 218.087 3.02038 -4.62036 0
M  V30 2290 H 220.563 3.16686 -2.69906 0
M  V30 2291 H 219.439 4.45196 -3.21079 0
M  V30 2292 H 219.7 4.15927 -1.49857 0
M  V30 2293 N 218.759 1.29093 0.90403 0
M  V30 2294 C 220.036 1.075 1.63411 0
M  V30 2295 C 220.416 -0.382346 2.07609 0
M  V30 2296 O 219.764 -1.37031 1.82851 0
M  V30 2297 C 219.974 2.05858 2.81822 0
M  V30 2298 C 221.322 2.36539 3.52611 0
M  V30 2299 O 222.346 2.04019 2.91984 0
M  V30 2300 O 221.205 2.92085 4.61897 0
M  V30 2301 H 218.299 0.411547 0.717327 0
M  V30 2302 H 220.845 1.40449 0.952479 0
M  V30 2303 H 219.617 3.04037 2.46327 0
M  V30 2304 H 219.24 1.73613 3.57693 0
M  V30 2305 N 220.237 -1.11381 1.11499 0
M  V30 2306 C 221.2 -2.15622 0.777153 0
M  V30 2307 C 222.2 -1.59504 -0.203779 0
M  V30 2308 O 223.39 -1.74188 0.020782 0
M  V30 2309 C 220.522 -3.40556 0.153116 0
M  V30 2310 H 221.715 -2.47021 1.70061 0
M  V30 2311 H 219.268 -1.26577 0.916952 0
M  V30 2312 H 220.003 -3.14767 -0.780536 0
M  V30 2313 H 219.788 -3.8257 0.859238 0
M  V30 2314 H 221.278 -4.17546 -0.0671044 0
M  V30 2315 N 221.715 -0.905404 -1.28997 0
M  V30 2316 C 222.961 -0.535039 -1.95615 0
M  V30 2317 C 223.294 0.917404 -1.71165 0
M  V30 2318 O 222.569 1.65123 -1.02785 0
M  V30 2319 C 222.852 -0.834918 -3.50287 0
M  V30 2320 C 222.705 -2.33948 -3.84172 0
M  V30 2321 C 224.024 -0.325318 -4.38896 0
M  V30 2322 H 221.143 -0.195861 -0.710498 0
M  V30 2323 H 223.785 -1.13313 -1.52513 0
M  V30 2324 H 221.935 -0.325904 -3.87131 0
M  V30 2325 H 223.607 -2.91847 -3.57243 0
M  V30 2326 H 221.85 -2.79789 -3.31513 0
M  V30 2327 H 222.521 -2.49987 -4.92149 0
M  V30 2328 H 224.997 -0.761256 -4.09077 0
M  V30 2329 H 223.873 -0.564295 -5.45992 0
M  V30 2330 H 224.134 0.774144 -4.35269 0
M  V30 2331 N 223.193 1.4272 -0.668489 0
M  V30 2332 C 224.442 2.00846 -0.185389 0
M  V30 2333 C 224.755 1.53442 1.21305 0
M  V30 2334 O 225.961 2.03944 1.79218 0
M  V30 2335 C 224.417 3.58805 -0.280591 0
M  V30 2336 C 224.025 4.15198 -1.68268 0
M  V30 2337 C 225.769 4.24255 0.14412 0
M  V30 2338 C 223.676 5.655 -1.73099 0
M  V30 2339 H 222.606 0.751145 -0.0655475 0
M  V30 2340 H 225.257 1.63516 -0.832752 0
M  V30 2341 H 223.639 3.93608 0.434553 0
M  V30 2342 H 224.813 3.91866 -2.42441 0
M  V30 2343 H 223.128 3.62176 -2.05469 0
M  V30 2344 H 225.725 5.34547 0.128086 0
M  V30 2345 H 226.068 3.99277 1.17827 0
M  V30 2346 H 226.601 3.94389 -0.519798 0
M  V30 2347 H 223.34 5.95268 -2.74475 0
M  V30 2348 H 222.86 5.90842 -1.03274 0
M  V30 2349 H 224.539 6.29808 -1.48158 0
M  V30 2350 N 224.671 0.411399 1.52136 0
M  V30 2351 C 225.634 -0.401089 2.25663 0
M  V30 2352 C 226.634 -0.971732 1.28117 0
M  V30 2353 O 227.824 -0.850254 1.52041 0
M  V30 2354 C 224.956 -1.56483 3.02863 0
M  V30 2355 H 226.149 0.24295 2.98914 0
M  V30 2356 H 223.702 0.163968 1.55438 0
M  V30 2357 H 224.437 -2.24567 2.33967 0
M  V30 2358 H 224.222 -1.16211 3.74483 0
M  V30 2359 H 225.712 -2.13951 3.58629 0
M  V30 2360 N 226.149 -1.5696 0.141893 0
M  V30 2361 C 227.059 -2.20066 -0.812905 0
M  V30 2362 C 228.075 -1.18344 -1.27557 0
M  V30 2363 O 229.251 -1.50902 -1.33381 0
M  V30 2364 C 226.316 -2.80583 -2.03652 0
M  V30 2365 C 225.377 -3.97414 -1.62359 0
M  V30 2366 C 224.61 -4.55036 -2.78887 0
M  V30 2367 O 224.833 -4.11538 -3.94959 0
M  V30 2368 O 223.767 -5.45376 -2.54653 0
M  V30 2369 H 227.593 -3.02157 -0.305746 0
M  V30 2370 H 225.178 -1.49159 -0.0848799 0
M  V30 2371 H 227.06 -3.19067 -2.75272 0
M  V30 2372 H 225.735 -2.01508 -2.5333 0
M  V30 2373 H 224.642 -3.63656 -0.877775 0
M  V30 2374 H 225.975 -4.77994 -1.17401 0
M  V30 2375 N 227.627 0.131896 -1.57047 0
M  V30 2376 C 228.557 1.16384 -2.02428 0
M  V30 2377 C 229.538 1.43936 -0.90644 0
M  V30 2378 O 230.723 1.54599 -1.17528 0
M  V30 2379 C 227.853 2.49328 -2.4177 0
M  V30 2380 C 226.807 2.36266 -3.56879 0
M  V30 2381 C 226.133 3.74057 -3.8208 0
M  V30 2382 C 227.433 1.834 -4.89042 0
M  V30 2383 H 229.127 0.786433 -2.88887 0
M  V30 2384 H 226.673 0.376855 -1.38981 0
M  V30 2385 H 228.626 3.21759 -2.7212 0
M  V30 2386 H 227.35 2.88934 -1.52266 0
M  V30 2387 H 226.009 1.66286 -3.26718 0
M  V30 2388 H 225.657 4.11125 -2.89803 0
M  V30 2389 H 225.357 3.66174 -4.59554 0
M  V30 2390 H 226.881 4.48012 -4.1487 0
M  V30 2391 H 228.295 2.45636 -5.18011 0
M  V30 2392 H 226.692 1.8637 -5.70426 0
M  V30 2393 H 227.762 0.790662 -4.7841 0
M  V30 2394 N 229.106 1.52395 0.401703 0
M  V30 2395 C 230.053 1.76268 1.48991 0
M  V30 2396 C 231.023 0.605386 1.54675 0
M  V30 2397 O 232.208 0.843742 1.7113 0
M  V30 2398 C 229.348 1.92592 2.86361 0
M  V30 2399 C 228.461 3.20259 2.89928 0
M  V30 2400 C 227.596 3.26972 4.18644 0
M  V30 2401 C 226.635 4.48812 4.16214 0
M  V30 2402 N 225.772 4.52877 5.36514 0
M  V30 2403 H 230.612 2.6914 1.27935 0
M  V30 2404 H 228.149 1.33355 0.620871 0
M  V30 2405 H 230.107 2.0004 3.66115 0
M  V30 2406 H 228.737 1.03093 3.05895 0
M  V30 2407 H 227.789 3.21945 2.02621 0
M  V30 2408 H 229.101 4.10056 2.83999 0
M  V30 2409 H 228.255 3.33533 5.06794 0
M  V30 2410 H 226.994 2.35126 4.27278 0
M  V30 2411 H 225.999 4.4239 3.26453 0
M  V30 2412 H 227.224 5.41961 4.09213 0
M  V30 2413 H 225.17 3.63917 5.45802 0
M  V30 2414 H 225.087 5.36529 5.32609 0
M  V30 2415 H 226.355 4.63676 6.26597 0
M  V30 2416 N 230.584 -0.659388 1.43143 0
M  V30 2417 C 231.531 -1.77249 1.47822 0
M  V30 2418 C 232.501 -1.62818 0.328558 0
M  V30 2419 O 233.686 -1.83151 0.534838 0
M  V30 2420 C 230.826 -3.15371 1.40126 0
M  V30 2421 C 229.939 -3.4098 2.65249 0
M  V30 2422 C 229.074 -4.68915 2.49584 0
M  V30 2423 C 228.113 -4.87608 3.70006 0
M  V30 2424 N 227.25 -6.06796 3.53189 0
M  V30 2425 H 232.09 -1.72584 2.42938 0
M  V30 2426 H 229.627 -0.842297 1.20598 0
M  V30 2427 H 231.585 -3.9521 1.33659 0
M  V30 2428 H 230.215 -3.19121 0.485964 0
M  V30 2429 H 229.267 -2.55282 2.8202 0
M  V30 2430 H 230.579 -3.50681 3.54717 0
M  V30 2431 H 229.733 -5.56871 2.4079 0
M  V30 2432 H 228.472 -4.61524 1.5763 0
M  V30 2433 H 227.477 -3.9809 3.79215 0
M  V30 2434 H 228.702 -4.96834 4.62961 0
M  V30 2435 H 226.648 -6.00549 2.63965 0
M  V30 2436 H 226.565 -6.17428 4.36255 0
M  V30 2437 H 227.833 -6.9739 3.48236 0
M  V30 2438 N 232.062 -1.29571 -0.897171 0
M  V30 2439 C 232.994 -1.10724 -2.00681 0
M  V30 2440 C 234.007 -0.0540026 -1.6271 0
M  V30 2441 O 235.196 -0.298783 -1.75982 0
M  V30 2442 C 232.296 -0.663912 -3.32333 0
M  V30 2443 C 231.469 -1.79622 -3.98816 0
M  V30 2444 C 230.528 -1.34349 -5.0876 0
M  V30 2445 O 229.554 -2.04864 -5.31055 0
M  V30 2446 N 230.756 -0.215764 -5.80099 0
M  V30 2447 H 233.521 -2.06291 -2.17403 0
M  V30 2448 H 231.082 -1.21544 -1.06951 0
M  V30 2449 H 233.074 -0.344295 -4.03233 0
M  V30 2450 H 231.644 0.199375 -3.11964 0
M  V30 2451 H 230.864 -2.28459 -3.21248 0
M  V30 2452 H 232.152 -2.55535 -4.39976 0
M  V30 2453 H 231.55 0.372091 -5.64475 0
M  V30 2454 H 230.107 0.0444707 -6.51785 0
M  V30 2455 N 233.54 1.10788 -1.12088 0
M  V30 2456 C 234.765 1.87002 -0.896949 0
M  V30 2457 C 235.19 1.79933 0.548261 0
M  V30 2458 O 234.548 1.16662 1.38779 0
M  V30 2459 C 234.596 3.3349 -1.37174 0
M  V30 2460 O 233.7 4.08745 -0.547831 0
M  V30 2461 H 233.041 0.580397 -0.322545 0
M  V30 2462 H 235.571 1.39996 -1.49206 0
M  V30 2463 H 235.581 3.84339 -1.36922 0
M  V30 2464 H 234.256 3.37951 -2.42408 0
M  V30 2465 H 232.833 3.6776 -0.617034 0
M  V30 2466 N 235.018 0.912232 1.28515 0
M  V30 2467 C 235.965 0.397954 2.27343 0
M  V30 2468 C 236.935 -0.526766 1.57526 0
M  V30 2469 O 238.12 -0.449292 1.85435 0
M  V30 2470 C 235.26 -0.357263 3.43246 0
M  V30 2471 C 234.373 0.599788 4.27816 0
M  V30 2472 C 233.508 -0.173725 5.30916 0
M  V30 2473 C 232.547 0.777039 6.07148 0
M  V30 2474 N 231.684 0.0371398 7.0209 0
M  V30 2475 H 236.524 1.24577 2.70711 0
M  V30 2476 H 234.061 0.625612 1.33133 0
M  V30 2477 H 236.019 -0.8113 4.09236 0
M  V30 2478 H 234.649 -1.16943 3.00872 0
M  V30 2479 H 233.701 1.17235 3.61884 0
M  V30 2480 H 235.013 1.32704 4.80823 0
M  V30 2481 H 234.167 -0.688394 6.02782 0
M  V30 2482 H 232.906 -0.934041 4.78672 0
M  V30 2483 H 231.911 1.3031 5.34134 0
M  V30 2484 H 233.136 1.53689 6.61481 0
M  V30 2485 H 231.082 -0.705213 6.52198 0
M  V30 2486 H 230.999 0.704249 7.52713 0
M  V30 2487 H 232.267 -0.457383 7.78157 0
M  V30 2488 N 236.496 -1.42363 0.676048 0
M  V30 2489 C 237.907 -1.84649 0.275948 0
M  V30 2490 C 238.258 -1.56588 -1.18214 0
M  V30 2491 O 237.383 -1.02634 -1.90513 0
M  V30 2492 C 237.978 -3.35178 0.494053 0
M  V30 2493 C 236.537 -3.76109 0.148061 0
M  V30 2494 C 235.684 -2.65931 0.785891 0
M  V30 2495 H 238.635 -1.32192 0.878121 0
M  V30 2496 H 238.656 -3.79655 -0.25343 0
M  V30 2497 H 238.168 -3.55571 1.55535 0
M  V30 2498 H 236.269 -3.61323 -0.909742 0
M  V30 2499 H 236.382 -4.7546 0.589454 0
M  V30 2500 H 234.746 -2.53773 0.217113 0
M  V30 2501 H 235.529 -2.89146 1.85067 0
M  V30 2502 N 237.974 -0.419461 -1.51915 0
M  V30 2503 C 239.22 0.153166 -2.02221 0
M  V30 2504 C 239.553 1.43907 -1.30401 0
M  V30 2505 O 238.828 1.90055 -0.413438 0
M  V30 2506 C 239.111 0.390291 -3.57979 0
M  V30 2507 C 238.964 -0.913014 -4.40436 0
M  V30 2508 C 240.283 1.16794 -4.2432 0
M  V30 2509 H 237.402 0.0541924 -0.735005 0
M  V30 2510 H 240.044 -0.554955 -1.81715 0
M  V30 2511 H 238.194 0.993491 -3.75582 0
M  V30 2512 H 239.866 -1.54882 -4.34522 0
M  V30 2513 H 238.109 -1.52168 -4.06236 0
M  V30 2514 H 238.78 -0.701361 -5.47526 0
M  V30 2515 H 241.256 0.657161 -4.10878 0
M  V30 2516 H 240.132 1.3026 -5.3322 0
M  V30 2517 H 240.393 2.19132 -3.83971 0
M  V30 2518 N 239.452 1.56882 -0.150215 0
M  V30 2519 C 240.68 2.00593 0.506948 0
M  V30 2520 C 241.095 1.03033 1.58208 0
M  V30 2521 O 240.452 0.0278396 1.82479 0
M  V30 2522 C 240.503 3.44209 1.10465 0
M  V30 2523 O 240.224 4.3804 0.0724636 0
M  V30 2524 C 241.725 4.03214 1.84211 0
M  V30 2525 H 238.945 0.65795 0.13169 0
M  V30 2526 H 241.489 2.03018 -0.245743 0
M  V30 2527 H 239.644 3.42625 1.80795 0
M  V30 2528 H 240.058 5.22007 0.510793 0
M  V30 2529 H 241.532 5.0569 2.21318 0
M  V30 2530 H 242.009 3.44107 2.72923 0
M  V30 2531 H 242.615 4.08437 1.18572 0
M  V30 2532 N 240.93 -0.123565 1.57115 0
M  V30 2533 C 242.158 -0.846461 1.88793 0
M  V30 2534 C 242.573 -1.73652 0.740976 0
M  V30 2535 O 241.93 -1.80207 -0.288393 0
M  V30 2536 C 241.981 -1.6837 3.19897 0
M  V30 2537 O 241.702 -0.829477 4.30176 0
M  V30 2538 C 243.203 -2.51214 3.65248 0
M  V30 2539 H 240.423 -0.243573 0.625231 0
M  V30 2540 H 242.967 -0.109324 2.04208 0
M  V30 2541 H 241.122 -2.37364 3.06165 0
M  V30 2542 H 241.536 -1.40651 5.0529 0
M  V30 2543 H 243.01 -3.05497 4.59756 0
M  V30 2544 H 243.487 -3.28359 2.9168 0
M  V30 2545 H 244.093 -1.8747 3.81752 0
M  V30 2546 N 242.408 -1.52605 -0.393616 0
M  V30 2547 C 243.819 -1.59417 -0.971761 0
M  V30 2548 C 244.17 -0.444173 -1.91106 0
M  V30 2549 O 243.295 0.433382 -2.12016 0
M  V30 2550 C 243.89 -2.88936 -1.76921 0
M  V30 2551 C 242.449 -2.98175 -2.29714 0
M  V30 2552 C 241.596 -2.54491 -1.10135 0
M  V30 2553 H 244.547 -1.57751 -0.173317 0
M  V30 2554 H 244.568 -2.75163 -2.62804 0
M  V30 2555 H 244.08 -3.72616 -1.08532 0
M  V30 2556 H 242.181 -2.19024 -3.01429 0
M  V30 2557 H 242.294 -4.02726 -2.59517 0
M  V30 2558 H 240.658 -2.08702 -1.45999 0
M  V30 2559 H 241.441 -3.4056 -0.432874 0
M  V30 2560 N 243.887 0.651787 -1.4349 0
M  V30 2561 C 244.797 1.79368 -1.5121 0
M  V30 2562 C 245.813 1.69361 -0.399093 0
M  V30 2563 O 246.989 1.90505 -0.653431 0
M  V30 2564 C 244.054 3.15653 -1.43401 0
M  V30 2565 C 243.115 3.37446 -2.65384 0
M  V30 2566 C 242.348 4.67229 -2.57939 0
M  V30 2567 O 242.571 5.46676 -1.62792 0
M  V30 2568 O 241.505 4.90773 -3.48462 0
M  V30 2569 H 245.331 1.7581 -2.47638 0
M  V30 2570 H 242.916 0.810447 -1.25507 0
M  V30 2571 H 244.798 3.96935 -1.41494 0
M  V30 2572 H 243.473 3.19798 -0.501085 0
M  V30 2573 H 242.38 2.55923 -2.72863 0
M  V30 2574 H 243.713 3.38148 -3.57654 0
M  V30 2575 N 245.365 1.30045 0.890287 0
M  V30 2576 C 246.275 1.17885 2.02831 0
M  V30 2577 C 247.291 0.0999609 1.73713 0
M  V30 2578 O 248.467 0.313867 1.98939 0
M  V30 2579 C 245.532 0.866079 3.35708 0
M  V30 2580 C 244.593 2.02979 3.78283 0
M  V30 2581 C 243.826 1.73184 5.0482 0
M  V30 2582 O 244.049 0.657237 5.66601 0
M  V30 2583 O 242.983 2.58267 5.43674 0
M  V30 2584 H 246.809 2.13474 2.16015 0
M  V30 2585 H 244.394 1.09587 1.01543 0
M  V30 2586 H 246.276 0.706623 4.15433 0
M  V30 2587 H 244.951 -0.0599443 3.23644 0
M  V30 2588 H 243.858 2.24454 2.99285 0
M  V30 2589 H 245.191 2.93734 3.94944 0
M  V30 2590 N 246.843 -1.10192 1.12674 0
M  V30 2591 C 248.092 -1.81573 0.8783 0
M  V30 2592 C 248.405 -1.86249 -0.597557 0
M  V30 2593 O 249.611 -2.5386 -0.962681 0
M  V30 2594 C 248.067 -3.26149 1.52167 0
M  V30 2595 C 247.675 -3.29763 3.03249 0
M  V30 2596 C 249.419 -4.0234 1.3536 0
M  V30 2597 C 247.326 -4.68815 3.60508 0
M  V30 2598 H 246.256 -0.680394 0.324931 0
M  V30 2599 H 248.907 -1.23902 1.35353 0
M  V30 2600 H 247.289 -3.83832 0.974104 0
M  V30 2601 H 248.463 -2.8189 3.6452 0
M  V30 2602 H 246.778 -2.67059 3.19481 0
M  V30 2603 H 249.375 -5.05058 1.75559 0
M  V30 2604 H 249.718 -4.15235 0.297554 0
M  V30 2605 H 250.251 -3.51079 1.87052 0
M  V30 2606 H 246.99 -4.61121 4.65884 0
M  V30 2607 H 246.51 -5.17045 3.04014 0
M  V30 2608 H 248.189 -5.37785 3.59717 0
M  V30 2609 N 248.321 -0.919034 -1.28029 0
M  V30 2610 C 249.284 -0.416182 -2.2539 0
M  V30 2611 C 250.284 0.460438 -1.54067 0
M  V30 2612 O 251.474 0.262744 -1.72207 0
M  V30 2613 C 248.606 0.402707 -3.38513 0
M  V30 2614 H 249.799 -1.27629 -2.71387 0
M  V30 2615 H 247.352 -0.698919 -1.39803 0
M  V30 2616 H 248.087 1.282 -2.97885 0
M  V30 2617 H 247.872 -0.225698 -3.9145 0
M  V30 2618 H 249.362 0.745191 -4.10897 0
M  V30 2619 N 249.799 1.42003 -0.683588 0
M  V30 2620 C 250.731 2.29183 0.0283068 0
M  V30 2621 C 251.744 1.4415 0.756611 0
M  V30 2622 O 252.933 1.67779 0.609306 0
M  V30 2623 C 250.033 3.21765 1.06398 0
M  V30 2624 C 249.206 4.35496 0.407723 0
M  V30 2625 C 248.265 5.08737 1.34437 0
M  V30 2626 O 247.291 5.62948 0.841318 0
M  V30 2627 N 248.493 5.15075 2.67728 0
M  V30 2628 H 251.258 2.9092 -0.720105 0
M  V30 2629 H 248.819 1.53025 -0.528682 0
M  V30 2630 H 250.811 3.6763 1.69204 0
M  V30 2631 H 249.381 2.61418 1.71404 0
M  V30 2632 H 248.601 3.92165 -0.400012 0
M  V30 2633 H 249.889 5.08776 -0.0490956 0
M  V30 2634 H 249.287 4.72457 3.11129 0
M  V30 2635 H 247.844 5.64556 3.2576 0
M  V30 2636 N 251.277 0.427512 1.51691 0
M  V30 2637 C 252.523 -0.142439 2.02299 0
M  V30 2638 C 252.856 -1.43214 1.31162 0
M  V30 2639 O 252.131 -1.89833 0.423511 0
M  V30 2640 C 252.414 -0.371301 3.58181 0
M  V30 2641 C 252.267 0.936358 4.39946 0
M  V30 2642 C 253.586 -1.14542 4.24933 0
M  V30 2643 H 250.705 -0.0502937 0.735282 0
M  V30 2644 H 253.347 0.564584 1.81418 0
M  V30 2645 H 251.497 -0.973559 3.76104 0
M  V30 2646 H 253.169 1.57184 4.33694 0
M  V30 2647 H 251.412 1.5432 4.05423 0
M  V30 2648 H 252.083 0.730388 5.47147 0
M  V30 2649 H 254.559 -0.635362 4.11221 0
M  V30 2650 H 253.435 -1.27431 5.33903 0
M  V30 2651 H 253.696 -2.17093 3.85127 0
M  V30 2652 N 252.755 -1.56801 0.158532 0
M  V30 2653 C 253.718 -2.16138 -0.762705 0
M  V30 2654 C 254.718 -1.1061 -1.16713 0
M  V30 2655 O 255.908 -1.36191 -1.08617 0
M  V30 2656 C 253.04 -2.73386 -2.03649 0
M  V30 2657 H 254.233 -2.98886 -0.246354 0
M  V30 2658 H 251.786 -1.56035 -0.0909744 0
M  V30 2659 H 252.521 -1.94335 -2.59623 0
M  V30 2660 H 252.306 -3.50601 -1.75559 0
M  V30 2661 H 253.796 -3.19065 -2.6942 0
M  V30 2662 N 254.233 0.115231 -1.57178 0
M  V30 2663 C 255.461 0.836437 -1.89239 0
M  V30 2664 C 255.876 1.73256 -0.750175 0
M  V30 2665 O 255.233 1.80357 0.278832 0
M  V30 2666 C 255.284 1.66671 -3.20785 0
M  V30 2667 O 255.005 0.806652 -4.3061 0
M  V30 2668 C 256.506 2.49274 -3.66575 0
M  V30 2669 H 253.726 0.240253 -0.626514 0
M  V30 2670 H 256.27 0.0984932 -2.04263 0
M  V30 2671 H 254.425 2.35737 -3.0742 0
M  V30 2672 H 254.839 1.37969 -5.06028 0
M  V30 2673 H 256.313 3.03055 -4.6137 0
M  V30 2674 H 256.79 3.26807 -2.93417 0
M  V30 2675 H 257.396 1.85443 -3.82741 0
M  V30 2676 N 255.711 1.52812 0.385517 0
M  V30 2677 C 256.96 1.67249 1.12741 0
M  V30 2678 C 257.273 0.4205 1.91027 0
M  V30 2679 O 258.479 0.445064 2.67827 0
M  V30 2680 C 256.935 2.95583 2.05326 0
M  V30 2681 C 256.543 4.27974 1.32447 0
M  V30 2682 C 258.287 3.19386 2.7963 0
M  V30 2683 C 256.194 5.47412 2.23818 0
M  V30 2684 H 255.124 0.6231 0.424573 0
M  V30 2685 H 257.775 1.79309 0.389924 0
M  V30 2686 H 256.157 2.77277 2.82725 0
M  V30 2687 H 257.331 4.56844 0.602495 0
M  V30 2688 H 255.646 4.10459 0.700885 0
M  V30 2689 H 258.243 4.05801 3.48181 0
M  V30 2690 H 258.586 2.34604 3.43899 0
M  V30 2691 H 259.119 3.38274 2.09322 0
M  V30 2692 H 255.858 6.34612 1.64157 0
M  V30 2693 H 255.378 5.22849 2.93921 0
M  V30 2694 H 257.057 5.81423 2.83824 0
M  V30 2695 N 257.189 -0.644168 1.43834 0
M  V30 2696 C 258.414 -1.43642 1.49605 0
M  V30 2697 C 258.839 -1.8773 0.117913 0
M  V30 2698 O 258.197 -1.57938 -0.890239 0
M  V30 2699 C 258.245 -2.6416 2.45463 0
M  V30 2700 O 257.349 -3.63538 1.94714 0
M  V30 2701 H 256.69 -0.430329 0.50568 0
M  V30 2702 H 259.22 -0.787448 1.8884 0
M  V30 2703 H 259.23 -3.11864 2.63068 0
M  V30 2704 H 257.905 -2.31414 3.45572 0
M  V30 2705 H 256.482 -3.2273 1.86814 0
M  V30 2706 N 258.668 -1.30515 -0.883378 0
M  V30 2707 C 259.631 -1.1701 -1.97082 0
M  V30 2708 C 260.631 -0.10089 -1.60483 0
M  V30 2709 O 261.821 -0.349127 -1.70666 0
M  V30 2710 C 258.953 -0.793045 -3.31547 0
M  V30 2711 H 260.146 -2.13622 -2.10489 0
M  V30 2712 H 257.699 -1.13935 -1.06998 0
M  V30 2713 H 258.434 0.172499 -3.23841 0
M  V30 2714 H 258.219 -1.56576 -3.5948 0
M  V30 2715 H 259.709 -0.722073 -4.1131 0
M  V30 2716 N 260.146 1.09593 -1.13257 0
M  V30 2717 C 261.094 2.18271 -0.803783 0
M  V30 2718 C 262.088 1.68054 0.213148 0
M  V30 2719 O 263.294 1.79862 0.0704699 0
M  V30 2720 H 259.669 0.711949 -0.242143 0
M  V30 2721 H 261.64 2.43235 -1.72856 0
M  V30 2722 C 260.389 3.46536 -0.28424 0
M  V30 2723 H 259.712 3.85545 -1.05807 0
M  V30 2724 H 261.152 4.23899 -0.0925945 0
M  V30 2725 C 259.611 3.22036 0.989684 0
M  V30 2726 O 260.141 3.44509 2.06584 0
M  V30 2727 N 258.347 2.7565 0.920086 0
M  V30 2728 H 257.894 2.57562 0.0442019 0
M  V30 2729 H 257.852 2.59635 1.77306 0
M  V30 2730 N 261.624 0.925811 1.2754 0
M  V30 2731 C 262.872 0.564138 1.94067 0
M  V30 2732 C 263.193 -0.897188 1.73134 0
M  V30 2733 O 262.463 -1.63573 1.07799 0
M  V30 2734 H 261.043 0.205645 0.718136 0
M  V30 2735 H 263.705 1.1778 1.55287 0
M  V30 2736 H 262.801 0.76881 3.02483 0
M  V30 2737 N 263.102 -1.41638 0.69111 0
M  V30 2738 C 264.379 -1.95036 0.148421 0
M  V30 2739 C 264.759 -1.63072 -1.34055 0
M  V30 2740 O 264.107 -0.93538 -2.08478 0
M  V30 2741 C 264.317 -3.46279 0.434951 0
M  V30 2742 C 265.665 -4.23069 0.360275 0
M  V30 2743 O 266.689 -3.54277 0.369613 0
M  V30 2744 O 265.548 -5.45583 0.316534 0
M  V30 2745 H 262.642 -0.826908 0.0123654 0
M  V30 2746 H 265.188 -1.5138 0.766963 0
M  V30 2747 H 263.96 -3.6281 1.46576 0
M  V30 2748 H 263.583 -3.97019 -0.214787 0
M  V30 2749 N 264.58 -0.43555 -1.51462 0
M  V30 2750 C 265.527 0.376797 -2.27703 0
M  V30 2751 C 266.497 1.01838 -1.31219 0
M  V30 2752 O 267.682 1.03762 -1.60119 0
M  V30 2753 C 264.822 1.47301 -3.12084 0
M  V30 2754 C 263.935 0.849744 -4.2356 0
M  V30 2755 C 263.07 1.92086 -4.95254 0
M  V30 2756 C 262.109 1.27593 -5.98654 0
M  V30 2757 N 261.246 2.28833 -6.63762 0
M  V30 2758 H 266.086 -0.279734 -2.96684 0
M  V30 2759 H 263.623 -0.149795 -1.46335 0
M  V30 2760 H 265.581 2.11984 -3.59331 0
M  V30 2761 H 264.211 2.0992 -2.45221 0
M  V30 2762 H 263.263 0.0912529 -3.80291 0
M  V30 2763 H 264.575 0.338878 -4.97648 0
M  V30 2764 H 263.729 2.64435 -5.46039 0
M  V30 2765 H 262.468 2.46545 -4.20793 0
M  V30 2766 H 261.473 0.537893 -5.47162 0
M  V30 2767 H 262.698 0.738693 -6.7507 0
M  V30 2768 H 260.644 2.82375 -5.92115 0
M  V30 2769 H 260.561 1.82632 -7.33608 0
M  V30 2770 H 261.829 3.00671 -7.19178 0
M  V30 2771 N 266.058 1.56714 -0.166846 0
M  V30 2772 C 266.968 2.21331 0.777791 0
M  V30 2773 C 267.984 1.20358 1.25658 0
M  V30 2774 O 269.16 1.53005 1.30964 0
M  V30 2775 C 266.225 2.83787 1.99163 0
M  V30 2776 C 265.286 3.99947 1.56016 0
M  V30 2777 C 264.519 4.59415 2.71613 0
M  V30 2778 O 264.742 4.17769 3.88362 0
M  V30 2779 O 263.676 5.49359 2.45945 0
M  V30 2780 H 267.502 3.02605 0.257636 0
M  V30 2781 H 265.087 1.49275 0.0611393 0
M  V30 2782 H 266.969 3.23405 2.70161 0
M  V30 2783 H 265.644 2.05513 2.50092 0
M  V30 2784 H 264.551 3.65007 0.819809 0
M  V30 2785 H 265.884 4.79801 1.09782 0
M  V30 2786 N 267.536 -0.106894 1.57237 0
M  V30 2787 C 268.785 -0.811163 1.8467 0
M  V30 2788 C 269.098 -1.80469 0.754342 0
M  V30 2789 O 270.304 -2.55601 0.915439 0
M  V30 2790 C 268.76 -1.49337 3.27454 0
M  V30 2791 C 268.368 -0.540217 4.44731 0
M  V30 2792 C 270.112 -2.18206 3.64124 0
M  V30 2793 C 268.019 -1.22634 5.78545 0
M  V30 2794 H 266.949 -0.306679 0.688813 0
M  V30 2795 H 269.6 -0.0639887 1.83388 0
M  V30 2796 H 267.982 -2.2876 3.23241 0
M  V30 2797 H 269.156 0.221659 4.60267 0
M  V30 2798 H 267.471 0.042146 4.16379 0
M  V30 2799 H 270.068 -2.70253 4.61376 0
M  V30 2800 H 270.411 -2.96562 2.92158 0
M  V30 2801 H 270.944 -1.45658 3.70174 0
M  V30 2802 H 267.683 -0.483832 6.53712 0
M  V30 2803 H 267.203 -1.95993 5.66874 0
M  V30 2804 H 268.882 -1.75615 6.2271 0
M  V30 2805 N 269.014 -1.53014 -0.377408 0
M  V30 2806 C 270.262 -1.6829 -1.11906 0
M  V30 2807 C 270.583 -0.431206 -1.90173 0
M  V30 2808 O 269.853 0.554595 -1.87886 0
M  V30 2809 H 268.433 -0.620371 -0.416112 0
M  V30 2810 H 271.095 -1.90167 -0.426893 0
M  V30 2811 H 270.191 -2.53862 -1.8155 0
M  V30 2812 N 270.492 0.636531 -1.44174 0
M  V30 2813 C 271.44 1.76995 -1.50915 0
M  V30 2814 C 272.434 1.65053 -0.381295 0
M  V30 2815 O 273.64 1.71197 -0.55601 0
M  V30 2816 H 270.015 0.584247 -0.473455 0
M  V30 2817 H 271.986 1.68432 -2.4632 0
M  V30 2818 C 270.735 3.15314 -1.46534 0
M  V30 2819 H 270.058 3.25149 -2.32633 0
M  V30 2820 H 271.498 3.9453 -1.55312 0
M  V30 2821 C 269.957 3.3639 -0.185305 0
M  V30 2822 O 270.487 3.94699 0.746688 0
M  V30 2823 N 268.693 2.9046 -0.0901606 0
M  V30 2824 H 268.24 2.43193 -0.849416 0
M  V30 2825 H 268.198 3.04937 0.765553 0
M  V30 2826 N 271.97 1.30982 0.876444 0
M  V30 2827 C 273.219 1.19658 1.62373 0
M  V30 2828 C 273.532 -0.245636 1.94052 0
M  V30 2829 O 274.738 -0.48049 2.67214 0
M  V30 2830 C 273.194 2.09433 2.92687 0
M  V30 2831 C 272.802 3.58613 2.68516 0
M  V30 2832 C 274.546 2.06893 3.70669 0
M  V30 2833 C 272.453 4.40416 3.94699 0
M  V30 2834 H 271.383 0.444268 0.609214 0
M  V30 2835 H 274.034 1.55791 0.969605 0
M  V30 2836 H 272.416 1.66191 3.59439 0
M  V30 2837 H 273.59 4.10058 2.10212 0
M  V30 2838 H 271.905 3.63063 2.03898 0
M  V30 2839 H 274.502 2.65258 4.64265 0
M  V30 2840 H 274.845 1.05448 4.02724 0
M  V30 2841 H 275.378 2.48301 3.10792 0
M  V30 2842 H 272.117 5.42591 3.67798 0
M  V30 2843 H 271.637 3.93731 4.52477 0
M  V30 2844 H 273.316 4.52294 4.62644 0
M  V30 2845 N 273.449 -1.08991 1.13837 0
M  V30 2846 C 274.698 -1.80631 0.897509 0
M  V30 2847 C 275.011 -1.86872 -0.57777 0
M  V30 2848 O 276.217 -2.54866 -0.935701 0
M  V30 2849 C 274.673 -3.24517 1.55618 0
M  V30 2850 C 274.281 -3.26529 3.0673 0
M  V30 2851 C 276.025 -4.00882 1.3962 0
M  V30 2852 C 273.932 -4.64965 3.65461 0
M  V30 2853 H 272.862 -0.67691 0.332129 0
M  V30 2854 H 275.513 -1.2246 1.3666 0
M  V30 2855 H 273.895 -3.82778 1.01476 0
M  V30 2856 H 275.069 -2.78008 3.67489 0
M  V30 2857 H 273.384 -2.63656 3.22296 0
M  V30 2858 H 275.981 -5.03167 1.80906 0
M  V30 2859 H 276.324 -4.14896 0.341578 0
M  V30 2860 H 276.857 -3.49075 1.90766 0
M  V30 2861 H 273.596 -4.56153 4.70749 0
M  V30 2862 H 273.116 -5.13792 3.09481 0
M  V30 2863 H 274.795 -5.3394 3.654 0
M  V30 2864 N 274.927 -0.932562 -1.27047 0
M  V30 2865 C 276.152 -0.591474 -1.98787 0
M  V30 2866 C 276.577 0.824601 -1.69062 0
M  V30 2867 O 275.935 1.5541 -0.933677 0
M  V30 2868 C 275.983 -0.829808 -3.50922 0
M  V30 2869 O 275.087 0.102266 -4.12273 0
M  V30 2870 H 274.428 -0.227185 -0.623926 0
M  V30 2871 H 276.958 -1.25314 -1.61733 0
M  V30 2872 H 276.968 -0.747292 -4.01098 0
M  V30 2873 H 275.643 -1.86201 -3.7189 0
M  V30 2874 H 274.22 -0.0305761 -3.72887 0
M  V30 2875 N 276.405 1.4127 -0.698611 0
M  V30 2876 C 277.682 1.94955 -0.158762 0
M  V30 2877 C 278.062 1.63781 1.33188 0
M  V30 2878 O 277.41 0.946423 2.07979 0
M  V30 2879 C 277.62 3.46044 -0.453309 0
M  V30 2880 C 278.968 4.22872 -0.382707 0
M  V30 2881 O 279.992 3.54076 -0.388396 0
M  V30 2882 O 278.851 5.45407 -0.345463 0
M  V30 2883 H 275.945 0.82683 -0.0167505 0
M  V30 2884 H 278.491 1.50971 -0.77498 0
M  V30 2885 H 277.263 3.62028 -1.48498 0
M  V30 2886 H 276.886 3.97128 0.19373 0
M  V30 2887 N 277.883 0.443576 1.51229 0
M  V30 2888 C 278.846 -0.353132 2.26463 0
M  V30 2889 C 279.846 -0.944338 1.3015 0
M  V30 2890 O 281.036 -0.817813 1.5381 0
M  V30 2891 C 278.168 -1.50023 3.06114 0
M  V30 2892 H 279.361 0.3063 2.98332 0
M  V30 2893 H 276.914 0.196902 1.55055 0
M  V30 2894 H 277.649 -2.19553 2.38677 0
M  V30 2895 H 277.434 -1.08241 3.76864 0
M  V30 2896 H 278.924 -2.06296 3.63087 0
M  V30 2897 N 279.361 -1.56624 0.175154 0
M  V30 2898 C 280.294 -2.14 -0.792412 0
M  V30 2899 C 281.272 -1.07114 -1.22333 0
M  V30 2900 O 282.456 -1.35112 -1.31442 0
M  V30 2901 C 279.583 -2.68268 -2.0676 0
M  V30 2902 C 278.629 -3.87562 -1.7804 0
M  V30 2903 S 279.462 -5.27074 -0.946222 0
M  V30 2904 C 280.618 -5.8475 -2.23199 0
M  V30 2905 H 280.851 -2.95736 -0.304588 0
M  V30 2906 H 278.384 -1.54349 -0.0395705 0
M  V30 2907 H 280.342 -3.00182 -2.80002 0
M  V30 2908 H 279.003 -1.86612 -2.52656 0
M  V30 2909 H 278.196 -4.23874 -2.72666 0
M  V30 2910 H 277.798 -3.56555 -1.12891 0
M  V30 2911 H 280.09 -5.97898 -3.18629 0
M  V30 2912 H 281.033 -6.81756 -1.91349 0
M  V30 2913 H 281.441 -5.13198 -2.35134 0
M  V30 2914 N 280.839 0.0985539 -1.57292 0
M  V30 2915 C 281.786 1.11981 -2.01814 0
M  V30 2916 C 282.756 1.39999 -0.89384 0
M  V30 2917 O 283.941 1.5152 -1.15958 0
M  V30 2918 C 281.081 2.43577 -2.44467 0
M  V30 2919 C 280.194 2.2232 -3.70402 0
M  V30 2920 C 279.329 3.4729 -4.01949 0
M  V30 2921 C 278.368 3.2128 -5.21005 0
M  V30 2922 N 277.505 4.38507 -5.48321 0
M  V30 2923 H 282.345 0.733149 -2.88841 0
M  V30 2924 H 279.882 0.350482 -1.42864 0
M  V30 2925 H 281.84 3.20373 -2.6724 0
M  V30 2926 H 280.47 2.80097 -1.60455 0
M  V30 2927 H 279.522 1.36343 -3.55126 0
M  V30 2928 H 280.834 1.99089 -4.57345 0
M  V30 2929 H 279.988 4.32495 -4.25479 0
M  V30 2930 H 278.727 3.73572 -3.13521 0
M  V30 2931 H 277.732 2.34468 -4.97298 0
M  V30 2932 H 278.957 2.96348 -6.11028 0
M  V30 2933 H 276.903 4.64871 -4.62851 0
M  V30 2934 H 276.82 4.18455 -6.29628 0
M  V30 2935 H 278.088 5.24787 -5.76385 0
M  V30 2936 N 282.317 1.53212 0.369288 0
M  V30 2937 C 283.264 1.79388 1.45219 0
M  V30 2938 C 284.234 0.638059 1.53356 0
M  V30 2939 O 285.419 0.879852 1.69302 0
M  V30 2940 C 282.559 1.98623 2.82211 0
M  V30 2941 C 281.672 3.26337 2.8307 0
M  V30 2942 C 280.807 3.35779 4.11614 0
M  V30 2943 C 279.846 4.5754 4.06601 0
M  V30 2944 N 278.983 4.64155 5.26787 0
M  V30 2945 H 283.823 2.71794 1.22198 0
M  V30 2946 H 281.36 1.34642 0.592444 0
M  V30 2947 H 283.318 2.07761 3.61789 0
M  V30 2948 H 281.948 1.09558 3.03639 0
M  V30 2949 H 281 3.26171 1.95747 0
M  V30 2950 H 282.312 4.15988 2.75237 0
M  V30 2951 H 281.466 3.44208 4.99606 0
M  V30 2952 H 280.205 2.44137 4.22195 0
M  V30 2953 H 279.21 4.49215 3.16996 0
M  V30 2954 H 280.435 5.50519 3.97625 0
M  V30 2955 H 278.381 3.75413 5.3796 0
M  V30 2956 H 278.298 5.47706 5.21109 0
M  V30 2957 H 279.566 4.76863 6.16621 0
M  V30 2958 N 283.795 -0.628877 1.44509 0
M  V30 2959 C 285.041 -1.39045 1.47629 0
M  V30 2960 C 285.374 -1.93892 0.109343 0
M  V30 2961 O 284.649 -1.7379 -0.87334 0
M  V30 2962 C 284.932 -2.55408 2.53848 0
M  V30 2963 C 284.785 -2.05896 3.99909 0
M  V30 2964 C 286.104 -3.5759 2.56549 0
M  V30 2965 H 283.223 -0.504232 0.537512 0
M  V30 2966 H 285.865 -0.710854 1.76201 0
M  V30 2967 H 284.015 -3.13384 2.29615 0
M  V30 2968 H 285.687 -1.52734 4.35282 0
M  V30 2969 H 283.93 -1.37061 4.11578 0
M  V30 2970 H 284.601 -2.89681 4.69882 0
M  V30 2971 H 287.077 -3.09419 2.78207 0
M  V30 2972 H 285.953 -4.36527 3.32769 0
M  V30 2973 H 286.214 -4.11808 1.60832 0
M  V30 2974 N 285.273 -1.31445 -0.869486 0
M  V30 2975 C 286.521 -1.20918 -1.61936 0
M  V30 2976 C 286.842 0.232683 -1.93607 0
M  V30 2977 O 286.112 1.15352 -1.58338 0
M  V30 2978 H 284.692 -0.44454 -0.600328 0
M  V30 2979 H 287.354 -1.64776 -1.0409 0
M  V30 2980 H 286.45 -1.78124 -2.56278 0
M  V30 2981 N 286.751 1.08385 -1.14413 0
M  V30 2982 C 288.167 1.32844 -0.884563 0
M  V30 2983 C 288.367 1.95841 0.474181 0
M  V30 2984 O 287.423 2.21158 1.21842 0
M  V30 2985 C 288.736 2.22978 -2.01745 0
M  V30 2986 C 290.284 2.36458 -2.05077 0
M  V30 2987 C 290.759 3.29934 -3.1766 0
M  V30 2988 N 292.25 3.37511 -3.17239 0
M  V30 2989 C 292.985 4.09871 -4.0099 0
M  V30 2990 N 292.481 4.84936 -4.94781 0
M  V30 2991 N 294.274 4.05704 -3.89051 0
M  V30 2992 H 286.425 0.658756 -2.01926 0
M  V30 2993 H 288.688 0.352821 -0.879899 0
M  V30 2994 H 288.394 1.83934 -2.99769 0
M  V30 2995 H 288.268 3.23441 -1.94077 0
M  V30 2996 H 290.655 2.7476 -1.0766 0
M  V30 2997 H 290.736 1.35736 -2.16816 0
M  V30 2998 H 290.38 2.92352 -4.15322 0
M  V30 2999 H 290.31 4.30584 -3.03158 0
M  V30 3000 H 292.801 2.83996 -2.49308 0
M  V30 3001 H 293.114 5.37612 -5.55151 0
M  V30 3002 H 291.459 4.83988 -4.98779 0
M  V30 3003 H 294.65 3.46167 -3.15097 0
M  V30 3004 H 294.823 4.61834 -4.54547 0
M  V30 3005 N 288.23 0.939286 1.26551 0
M  V30 3006 C 289.177 0.446088 2.26448 0
M  V30 3007 C 290.147 -0.493234 1.58608 0
M  V30 3008 O 291.332 -0.409857 1.86346 0
M  V30 3009 C 288.472 -0.284375 3.43926 0
M  V30 3010 C 287.585 0.690399 4.26448 0
M  V30 3011 C 286.72 -0.0610712 5.31165 0
M  V30 3012 C 285.759 0.905649 6.05363 0
M  V30 3013 N 284.896 0.186055 7.01853 0
M  V30 3014 H 289.736 1.30291 2.68008 0
M  V30 3015 H 287.273 0.65371 1.31776 0
M  V30 3016 H 289.231 -0.724313 4.10864 0
M  V30 3017 H 287.861 -1.10535 3.03285 0
M  V30 3018 H 286.913 1.24885 3.59316 0
M  V30 3019 H 288.225 1.42873 4.779 0
M  V30 3020 H 287.379 -0.56038 6.04106 0
M  V30 3021 H 286.118 -0.832297 4.80546 0
M  V30 3022 H 285.123 1.4161 5.3125 0
M  V30 3023 H 286.348 1.67685 6.58072 0
M  V30 3024 H 284.294 -0.566714 6.53548 0
M  V30 3025 H 284.211 0.863752 7.51049 0
M  V30 3026 H 285.479 -0.292221 7.78952 0
M  V30 3027 N 289.708 -1.40897 0.706093 0
M  V30 3028 C 290.956 -2.00657 0.241054 0
M  V30 3029 C 291.277 -1.56241 -1.16678 0
M  V30 3030 O 290.547 -0.79765 -1.78926 0
M  V30 3031 H 289.127 -0.742018 0.0861308 0
M  V30 3032 H 291.789 -1.72372 0.909604 0
M  V30 3033 H 290.885 -3.10958 0.266705 0
M  V30 3034 N 291.186 -0.45159 -1.50991 0
M  V30 3035 C 292.432 0.110237 -2.025 0
M  V30 3036 C 292.765 1.41109 -1.33424 0
M  V30 3037 O 292.04 1.89135 -0.453659 0
M  V30 3038 C 292.323 0.314271 -3.58726 0
M  V30 3039 C 292.176 -1.00623 -4.38401 0
M  V30 3040 C 293.495 1.07767 -4.26702 0
M  V30 3041 H 290.614 0.0385897 -0.735989 0
M  V30 3042 H 293.256 -0.593374 -1.80497 0
M  V30 3043 H 291.406 0.913601 -3.77605 0
M  V30 3044 H 293.078 -1.64064 -4.31139 0
M  V30 3045 H 291.321 -1.6075 -4.02917 0
M  V30 3046 H 291.992 -0.817341 -5.45915 0
M  V30 3047 H 294.468 0.56986 -4.12179 0
M  V30 3048 H 293.344 1.18921 -5.35863 0
M  V30 3049 H 293.605 2.10939 -3.88532 0
M  V30 3050 N 292.664 1.56529 -0.183458 0
M  V30 3051 C 293.913 1.96419 0.458511 0
M  V30 3052 C 294.226 1.0727 1.63562 0
M  V30 3053 O 295.432 1.36893 2.34462 0
M  V30 3054 C 293.888 3.49298 0.867122 0
M  V30 3055 C 293.496 4.47092 -0.285057 0
M  V30 3056 C 295.24 3.97983 1.47683 0
M  V30 3057 C 293.147 5.91225 0.143862 0
M  V30 3058 H 292.077 0.733394 0.175071 0
M  V30 3059 H 294.728 1.81448 -0.273624 0
M  V30 3060 H 293.11 3.59731 1.65559 0
M  V30 3061 H 294.284 4.48383 -1.0625 0
M  V30 3062 H 292.599 4.08535 -0.805503 0
M  V30 3063 H 295.196 5.03134 1.80999 0
M  V30 3064 H 295.539 3.41618 2.37914 0
M  V30 3065 H 296.072 3.90617 0.752562 0
M  V30 3066 H 292.811 6.5149 -0.723974 0
M  V30 3067 H 292.331 5.93214 0.886413 0
M  V30 3068 H 294.01 6.44362 0.583628 0
M  V30 3069 N 294.142 -0.090211 1.57342 0
M  V30 3070 C 295.37 -0.806224 1.90546 0
M  V30 3071 C 295.785 -1.72041 0.777644 0
M  V30 3072 O 295.142 -1.80778 -0.250103 0
M  V30 3073 C 295.193 -1.61546 3.23396 0
M  V30 3074 O 294.914 -0.738043 4.31839 0
M  V30 3075 C 296.415 -2.4341 3.70495 0
M  V30 3076 H 293.635 -0.230256 0.630257 0
M  V30 3077 H 296.179 -0.0659843 2.04394 0
M  V30 3078 H 294.334 -2.30816 3.11131 0
M  V30 3079 H 294.748 -1.29901 5.08159 0
M  V30 3080 H 296.222 -2.95676 4.66133 0
M  V30 3081 H 296.699 -3.22098 2.98579 0
M  V30 3082 H 297.305 -1.79331 3.85643 0
M  V30 3083 N 295.62 -1.53406 -0.361157 0
M  V30 3084 C 296.866 -1.70054 -1.10496 0
M  V30 3085 C 297.199 -0.453278 -1.88836 0
M  V30 3086 O 296.474 0.5495 -1.86576 0
M  V30 3087 C 296.757 -2.95317 -2.06058 0
M  V30 3088 C 296.61 -4.3021 -1.31298 0
M  V30 3089 C 297.929 -3.16193 -3.06121 0
M  V30 3090 H 295.048 -0.618799 -0.400321 0
M  V30 3091 H 297.69 -1.86052 -0.385318 0
M  V30 3092 H 295.84 -2.81809 -2.67425 0
M  V30 3093 H 297.512 -4.55538 -0.726807 0
M  V30 3094 H 295.755 -4.29421 -0.614853 0
M  V30 3095 H 296.426 -5.14 -2.01265 0
M  V30 3096 H 298.902 -3.28916 -2.5486 0
M  V30 3097 H 297.778 -4.05266 -3.70204 0
M  V30 3098 H 298.039 -2.31676 -3.76535 0
M  V30 3099 N 297.098 0.621204 -1.44841 0
M  V30 3100 C 298.045 1.73267 -1.5247 0
M  V30 3101 C 299.015 1.6189 -0.371611 0
M  V30 3102 O 300.2 1.81668 -0.58321 0
M  V30 3103 C 297.34 3.11545 -1.48438 0
M  V30 3104 C 296.453 3.33827 -2.74196 0
M  V30 3105 C 295.588 4.62133 -2.61929 0
M  V30 3106 C 294.627 4.77627 -3.82804 0
M  V30 3107 N 293.764 5.97219 -3.69153 0
M  V30 3108 H 298.604 1.66082 -2.47428 0
M  V30 3109 H 296.141 0.810026 -1.22788 0
M  V30 3110 H 298.099 3.91528 -1.4409 0
M  V30 3111 H 296.729 3.1772 -0.570402 0
M  V30 3112 H 295.781 2.47715 -2.88689 0
M  V30 3113 H 297.093 3.41153 -3.6389 0
M  V30 3114 H 296.247 5.50291 -2.5547 0
M  V30 3115 H 294.986 4.57182 -1.69811 0
M  V30 3116 H 293.991 3.87896 -3.89637 0
M  V30 3117 H 295.216 4.84385 -4.75971 0
M  V30 3118 H 293.162 5.93339 -2.79794 0
M  V30 3119 H 293.079 6.05644 -4.52472 0
M  V30 3120 H 294.347 6.87912 -3.66603 0
M  V30 3121 N 298.576 1.31904 0.862503 0
M  V30 3122 C 299.853 1.12644 1.59908 0
M  V30 3123 C 300.233 -0.316104 2.0872 0
M  V30 3124 O 299.581 -1.31145 1.87118 0
M  V30 3125 C 299.791 2.1472 2.7513 0
M  V30 3126 C 301.139 2.47637 3.44907 0
M  V30 3127 O 302.163 2.13205 2.85346 0
M  V30 3128 O 301.022 3.06632 4.52371 0
M  V30 3129 H 298.116 0.43416 0.703871 0
M  V30 3130 H 300.662 1.43408 0.907314 0
M  V30 3131 H 299.434 3.1172 2.3653 0
M  V30 3132 H 299.057 1.84905 3.51989 0
M  V30 3133 N 300.054 -1.07777 1.14986 0
M  V30 3134 C 301.302 -1.79934 0.920235 0
M  V30 3135 C 301.623 -1.86955 -0.554336 0
M  V30 3136 O 300.893 -1.36731 -1.40291 0
M  V30 3137 H 299.473 -0.666424 0.337473 0
M  V30 3138 H 302.135 -1.3027 1.44968 0
M  V30 3139 H 301.231 -2.82539 1.32583 0
M  V30 3140 N 301.532 -0.945985 -1.26051 0
M  V30 3141 C 302.479 -0.45809 -2.26208 0
M  V30 3142 C 303.449 0.484816 -1.58867 0
M  V30 3143 O 304.634 0.399969 -1.86561 0
M  V30 3144 C 301.774 0.266131 -3.44072 0
M  V30 3145 C 300.887 -0.713005 -4.26075 0
M  V30 3146 C 300.022 0.0329013 -5.3119 0
M  V30 3147 C 299.061 -0.93774 -6.04874 0
M  V30 3148 N 298.198 -0.223274 -7.01745 0
M  V30 3149 H 303.038 -1.3171 -2.67313 0
M  V30 3150 H 300.575 -0.66069 -1.31428 0
M  V30 3151 H 302.533 0.702514 -4.11243 0
M  V30 3152 H 301.163 1.08925 -3.03867 0
M  V30 3153 H 300.215 -1.26789 -3.58648 0
M  V30 3154 H 301.527 -1.45406 -4.77136 0
M  V30 3155 H 300.681 0.528335 -6.04395 0
M  V30 3156 H 299.42 0.806801 -4.8098 0
M  V30 3157 H 298.425 -1.44425 -5.30492 0
M  V30 3158 H 299.65 -1.71172 -6.57173 0
M  V30 3159 H 297.596 0.532046 -6.53839 0
M  V30 3160 H 297.513 -0.90357 -7.50581 0
M  V30 3161 H 298.781 0.250907 -7.79096 0
M  V30 3162 N 303.011 1.40521 -0.713556 0
M  V30 3163 C 304.239 2.05237 -0.261775 0
M  V30 3164 C 304.654 1.53755 1.09567 0
M  V30 3165 O 304.011 0.693268 1.6882 0
M  V30 3166 C 304.062 3.60763 -0.230706 0
M  V30 3167 O 303.783 4.10345 -1.53455 0
M  V30 3168 C 305.284 4.42651 0.239874 0
M  V30 3169 H 302.504 0.660533 -0.118057 0
M  V30 3170 H 305.048 1.79967 -0.971192 0
M  V30 3171 H 303.203 3.8501 0.429661 0
M  V30 3172 H 303.617 5.04526 -1.43366 0
M  V30 3173 H 305.091 5.51599 0.210468 0
M  V30 3174 H 305.568 4.20082 1.28171 0
M  V30 3175 H 306.174 4.23507 -0.390142 0
M  V30 3176 N 304.489 0.459591 1.5075 0
M  V30 3177 C 305.419 -0.330644 2.31147 0
M  V30 3178 C 306.4 -1.00087 1.37538 0
M  V30 3179 O 307.585 -1.00025 1.66459 0
M  V30 3180 C 304.715 -1.41958 3.16962 0
M  V30 3181 C 303.669 -0.871608 4.19031 0
M  V30 3182 C 302.995 -2.05797 4.9351 0
M  V30 3183 C 304.295 0.109251 5.22186 0
M  V30 3184 H 305.989 0.340336 2.97459 0
M  V30 3185 H 303.535 0.165119 1.4305 0
M  V30 3186 H 305.488 -1.9798 3.71997 0
M  V30 3187 H 304.212 -2.11917 2.48513 0
M  V30 3188 H 302.871 -0.333442 3.6508 0
M  V30 3189 H 302.519 -2.74427 4.21544 0
M  V30 3190 H 302.219 -1.6976 5.62544 0
M  V30 3191 H 303.743 -2.62331 5.51375 0
M  V30 3192 H 305.157 -0.361405 5.7216 0
M  V30 3193 H 303.554 0.383316 5.98875 0
M  V30 3194 H 304.624 1.03887 4.73641 0
M  V30 3195 N 305.967 -1.56429 0.191757 0
M  V30 3196 C 306.915 -2.20273 -0.747174 0
M  V30 3197 C 307.909 -1.17288 -1.22229 0
M  V30 3198 O 309.115 -1.35441 -1.18557 0
M  V30 3199 H 305.49 -0.705885 -0.259289 0
M  V30 3200 H 307.461 -2.97826 -0.184963 0
M  V30 3201 C 306.21 -2.87356 -1.95759 0
M  V30 3202 H 305.533 -3.66341 -1.60106 0
M  V30 3203 H 306.973 -3.3547 -2.59299 0
M  V30 3204 C 305.432 -1.88213 -2.79423 0
M  V30 3205 O 305.962 -1.38033 -3.7724 0
M  V30 3206 N 304.168 -1.56516 -2.44849 0
M  V30 3207 H 303.715 -1.97516 -1.65364 0
M  V30 3208 H 303.673 -0.904369 -3.01112 0
M  V30 3209 N 307.445 0.0818655 -1.57387 0
M  V30 3210 C 308.722 0.815343 -1.77796 0
M  V30 3211 C 309.102 1.96289 -0.77679 0
M  V30 3212 O 308.45 2.27691 0.192106 0
M  V30 3213 C 308.66 1.29765 -3.23978 0
M  V30 3214 C 310.008 1.7351 -3.8753 0
M  V30 3215 O 311.032 1.39356 -3.27808 0
M  V30 3216 O 309.891 2.36708 -4.92576 0
M  V30 3217 H 306.985 0.389914 -0.729312 0
M  V30 3218 H 309.531 0.0627213 -1.69584 0
M  V30 3219 H 308.303 0.47608 -3.88393 0
M  V30 3220 H 307.926 2.11189 -3.36875 0
M  V30 3221 N 308.923 1.53595 0.353017 0
M  V30 3222 C 309.833 1.83897 1.45667 0
M  V30 3223 C 310.849 0.728334 1.58023 0
M  V30 3224 O 312.025 1.01968 1.73679 0
M  V30 3225 C 309.09 2.03383 2.80778 0
M  V30 3226 C 308.151 3.27262 2.77845 0
M  V30 3227 C 307.384 3.45809 4.06512 0
M  V30 3228 O 307.607 2.68387 5.03314 0
M  V30 3229 O 306.541 4.39207 4.11559 0
M  V30 3230 H 310.367 2.77686 1.2298 0
M  V30 3231 H 307.952 1.39132 0.544308 0
M  V30 3232 H 309.834 2.17698 3.60812 0
M  V30 3233 H 308.509 1.12783 3.03417 0
M  V30 3234 H 307.416 3.18359 1.96465 0
M  V30 3235 H 308.749 4.17824 2.60161 0
M  V30 3236 N 310.401 -0.613514 1.45168 0
M  V30 3237 C 311.331 -1.7354 1.56225 0
M  V30 3238 C 312.312 -1.64981 0.41414 0
M  V30 3239 O 313.497 -1.83472 0.636526 0
M  V30 3240 C 310.627 -3.12128 1.52295 0
M  V30 3241 C 309.581 -3.35491 2.65762 0
M  V30 3242 C 308.907 -4.74291 2.46885 0
M  V30 3243 C 310.207 -3.26325 4.0781 0
M  V30 3244 H 311.901 -1.64543 2.50132 0
M  V30 3245 H 309.447 -0.790185 1.20383 0
M  V30 3246 H 311.4 -3.90404 1.58628 0
M  V30 3247 H 310.124 -3.2195 0.549139 0
M  V30 3248 H 308.783 -2.59603 2.58847 0
M  V30 3249 H 308.431 -4.80839 1.47657 0
M  V30 3250 H 308.131 -4.9088 3.22972 0
M  V30 3251 H 309.655 -5.54775 2.55063 0
M  V30 3252 H 311.069 -3.94483 4.16 0
M  V30 3253 H 309.466 -3.54445 4.8424 0
M  V30 3254 H 310.536 -2.23855 4.30136 0
M  V30 3255 N 311.879 -1.3236 -0.855495 0
M  V30 3256 C 312.789 -1.23221 -1.99634 0
M  V30 3257 C 313.805 -0.145983 -1.73387 0
M  V30 3258 O 314.981 -0.366502 -1.98037 0
M  V30 3259 C 312.046 -0.954782 -3.33294 0
M  V30 3260 C 311.107 -2.12937 -3.72769 0
M  V30 3261 C 310.34 -1.86508 -5.00051 0
M  V30 3262 O 310.563 -0.807231 -5.64659 0
M  V30 3263 O 309.497 -2.72591 -5.36636 0
M  V30 3264 H 313.323 -2.19126 -2.1028 0
M  V30 3265 H 310.908 -1.12241 -0.986018 0
M  V30 3266 H 312.79 -0.816519 -4.13414 0
M  V30 3267 H 311.465 -0.0258854 -3.2369 0
M  V30 3268 H 310.372 -2.3231 -2.93228 0
M  V30 3269 H 311.705 -3.04102 -3.87018 0
M  V30 3270 N 313.357 1.07166 -1.15556 0
M  V30 3271 C 314.606 1.79181 -0.926132 0
M  V30 3272 C 314.919 1.87768 0.547967 0
M  V30 3273 O 316.125 2.56323 0.895036 0
M  V30 3274 C 314.581 3.22 -1.60761 0
M  V30 3275 C 314.189 3.21607 -3.11886 0
M  V30 3276 C 315.933 3.9861 -1.4598 0
M  V30 3277 C 313.84 4.59092 -3.72812 0
M  V30 3278 H 312.77 0.67154 -0.342856 0
M  V30 3279 H 315.421 1.2027 -1.3859 0
M  V30 3280 H 313.803 3.81115 -1.07553 0
M  V30 3281 H 314.977 2.72127 -3.71865 0
M  V30 3282 H 313.292 2.58495 -3.2645 0
M  V30 3283 H 315.889 5.00225 -1.88888 0
M  V30 3284 H 316.232 4.143 -0.407541 0
M  V30 3285 H 316.765 3.45996 -1.96295 0
M  V30 3286 H 313.504 4.48606 -4.77946 0
M  V30 3287 H 313.024 5.08803 -3.17616 0
M  V30 3288 H 314.703 5.28059 -3.73848 0
M  V30 3289 N 314.835 0.952656 1.25548 0
M  V30 3290 C 316.084 0.602053 1.92505 0
M  V30 3291 C 316.397 -0.864663 1.75451 0
M  V30 3292 O 317.603 -1.32514 2.36965 0
M  V30 3293 C 316.059 1.02607 3.44963 0
M  V30 3294 C 315.667 2.51519 3.70732 0
M  V30 3295 C 317.411 0.747905 4.1786 0
M  V30 3296 C 315.318 2.87732 5.16686 0
M  V30 3297 H 314.248 0.22146 0.720744 0
M  V30 3298 H 316.899 1.15684 1.42441 0
M  V30 3299 H 315.281 0.399712 3.93978 0
M  V30 3300 H 316.455 3.19157 3.32378 0
M  V30 3301 H 314.77 2.76786 3.11092 0
M  V30 3302 H 317.367 0.994647 5.25367 0
M  V30 3303 H 317.71 -0.315629 4.15102 0
M  V30 3304 H 318.243 1.33452 3.74747 0
M  V30 3305 H 314.982 3.93095 5.24554 0
M  V30 3306 H 314.502 2.24765 5.56094 0
M  V30 3307 H 316.181 2.76817 5.84792 0
M  V30 3308 N 316.313 -1.40141 0.720998 0
M  V30 3309 C 317.223 -2.34486 0.0731031 0
M  V30 3310 C 318.239 -1.57587 -0.737723 0
M  V30 3311 O 319.415 -1.89949 -0.669429 0
M  V30 3312 C 316.48 -3.36528 -0.833656 0
M  V30 3313 C 315.541 -4.29298 -0.0121673 0
M  V30 3314 C 314.774 -5.26466 -0.875742 0
M  V30 3315 O 314.997 -5.29745 -2.11485 0
M  V30 3316 O 313.931 -6.01092 -0.31185 0
M  V30 3317 H 317.757 -2.9152 0.851444 0
M  V30 3318 H 315.342 -1.41427 0.481527 0
M  V30 3319 H 317.224 -3.99093 -1.35289 0
M  V30 3320 H 315.899 -2.81899 -1.59105 0
M  V30 3321 H 314.806 -3.70001 0.552262 0
M  V30 3322 H 316.139 -4.87094 0.707129 0
M  V30 3323 N 317.792 -0.46758 -1.50504 0
M  V30 3324 C 319.04 0.0884469 -2.01906 0
M  V30 3325 C 319.361 1.40532 -1.35188 0
M  V30 3326 O 318.631 1.89515 -0.496079 0
M  V30 3327 H 317.211 0.0356765 -0.746148 0
M  V30 3328 H 319.873 -0.6172 -1.84869 0
M  V30 3329 H 318.969 0.2425 -3.11156 0
M  V30 3330 N 319.27 1.56325 -0.20005 0
M  V30 3331 C 320.203 2.15234 0.758267 0
M  V30 3332 C 321.181 1.09046 1.20614 0
M  V30 3333 O 322.365 1.37186 1.29276 0
M  V30 3334 C 319.492 2.71524 2.02466 0
M  V30 3335 C 318.538 3.90345 1.71852 0
M  V30 3336 S 319.371 5.28513 0.862249 0
M  V30 3337 C 320.527 5.88227 2.13868 0
M  V30 3338 H 320.76 2.96183 0.2575 0
M  V30 3339 H 318.293 1.54393 0.0150099 0
M  V30 3340 H 320.251 3.04598 2.75191 0
M  V30 3341 H 318.912 1.90607 2.49655 0
M  V30 3342 H 318.105 4.28158 2.65888 0
M  V30 3343 H 317.707 3.58306 1.07205 0
M  V30 3344 H 319.999 6.02891 3.09076 0
M  V30 3345 H 320.942 6.84714 1.80479 0
M  V30 3346 H 321.35 5.16874 2.2694 0
M  V30 3347 N 320.748 -0.0735177 1.57428 0
M  V30 3348 C 321.695 -1.08756 2.0357 0
M  V30 3349 C 322.665 -1.38559 0.916 0
M  V30 3350 O 323.85 -1.49656 1.18354 0
M  V30 3351 C 320.99 -2.39657 2.48311 0
M  V30 3352 C 320.103 -2.16399 3.73892 0
M  V30 3353 C 319.238 -3.40852 4.07423 0
M  V30 3354 C 318.277 -3.1295 5.2605 0
M  V30 3355 N 317.414 -4.29729 5.55228 0
M  V30 3356 H 322.254 -0.687104 2.8997 0
M  V30 3357 H 319.791 -0.327709 1.43403 0
M  V30 3358 H 321.749 -3.16081 2.72303 0
M  V30 3359 H 320.379 -2.77508 1.64891 0
M  V30 3360 H 319.431 -1.30676 3.57251 0
M  V30 3361 H 320.743 -1.91788 4.60455 0
M  V30 3362 H 319.897 -4.25671 4.32306 0
M  V30 3363 H 318.636 -3.68537 3.19425 0
M  V30 3364 H 317.641 -2.26526 5.00965 0
M  V30 3365 H 318.866 -2.86589 6.15665 0
M  V30 3366 H 316.812 -4.57448 4.70188 0
M  V30 3367 H 316.729 -4.08385 6.36206 0
M  V30 3368 H 317.997 -5.1555 5.84661 0
M  V30 3369 N 322.226 -1.5378 -0.344866 0
M  V30 3370 C 323.473 -1.70963 -1.08526 0
M  V30 3371 C 323.801 -0.472126 -1.88683 0
M  V30 3372 O 323.056 0.546116 -1.87926 0
M  V30 3373 C 323.355 -2.92407 -2.05506 0
M  V30 3374 C 323.021 -4.28066 -1.41671 0
M  V30 3375 C 321.683 -4.64951 -1.2399 0
M  V30 3376 C 324.035 -5.12344 -0.956726 0
M  V30 3377 C 321.363 -5.83733 -0.589277 0
M  V30 3378 C 323.715 -6.3179 -0.320015 0
M  V30 3379 C 322.379 -6.67372 -0.130881 0
M  V30 3380 H 321.649 -0.625598 -0.397124 0
M  V30 3381 H 324.296 -1.87995 -0.36469 0
M  V30 3382 H 322.601 -2.69973 -2.8394 0
M  V30 3383 H 324.298 -3.02895 -2.62784 0
M  V30 3384 H 320.888 -3.99034 -1.56429 0
M  V30 3385 H 325.072 -4.8438 -1.08118 0
M  V30 3386 H 320.328 -6.09877 -0.431344 0
M  V30 3387 H 324.502 -6.96386 0.0445072 0
M  V30 3388 H 322.129 -7.59273 0.375318 0
M  V30 3389 N 323.704 0.605807 -1.45491 0
M  V30 3390 C 324.981 1.36522 -1.40075 0
M  V30 3391 C 325.361 2.10976 -0.0722744 0
M  V30 3392 O 324.709 2.08007 0.945808 0
M  V30 3393 C 324.919 2.31056 -2.61561 0
M  V30 3394 C 326.267 2.93608 -3.06724 0
M  V30 3395 O 327.291 2.41376 -2.61946 0
M  V30 3396 O 326.15 3.88421 -3.84437 0
M  V30 3397 H 323.244 0.612248 -0.555951 0
M  V30 3398 H 325.79 0.628747 -1.57623 0
M  V30 3399 H 324.562 1.75311 -3.49831 0
M  V30 3400 H 324.185 3.12081 -2.46356 0
M  V30 3401 N 325.182 1.32811 0.848464 0
M  V30 3402 C 326.598 1.11937 1.13764 0
M  V30 3403 C 326.798 -0.0960789 2.01271 0
M  V30 3404 O 325.854 -0.779165 2.40178 0
M  V30 3405 C 327.167 2.402 1.809 0
M  V30 3406 C 328.715 2.46016 1.93508 0
M  V30 3407 C 329.19 3.74215 2.64059 0
M  V30 3408 N 330.681 3.75232 2.71579 0
M  V30 3409 C 331.416 4.71134 3.26833 0
M  V30 3410 N 330.912 5.77406 3.8285 0
M  V30 3411 N 332.705 4.58623 3.24995 0
M  V30 3412 H 324.856 2.1073 0.265855 0
M  V30 3413 H 327.119 0.930671 0.180431 0
M  V30 3414 H 326.825 3.29093 1.24058 0
M  V30 3415 H 326.699 2.51628 2.81004 0
M  V30 3416 H 329.086 1.57577 2.49506 0
M  V30 3417 H 329.167 2.38536 0.923811 0
M  V30 3418 H 328.811 4.63031 2.08722 0
M  V30 3419 H 328.741 3.78968 3.65637 0
M  V30 3420 H 331.232 2.98423 2.31845 0
M  V30 3421 H 331.545 6.46632 4.23187 0
M  V30 3422 H 329.89 5.81152 3.81165 0
M  V30 3423 H 333.081 3.74762 2.80484 0
M  V30 3424 H 333.254 5.33535 3.67756 0
M  V30 3425 N 326.66 -1.06551 1.16123 0
M  V30 3426 C 327.908 -1.78947 0.939267 0
M  V30 3427 C 328.229 -1.87532 -0.534476 0
M  V30 3428 O 327.499 -1.38211 -1.38833 0
M  V30 3429 H 326.079 -0.662807 0.344523 0
M  V30 3430 H 328.741 -1.28725 1.46342 0
M  V30 3431 H 327.837 -2.81117 1.35572 0
M  V30 3432 N 328.138 -0.959301 -1.25041 0
M  V30 3433 C 329.368 -0.63303 -1.96663 0
M  V30 3434 C 329.776 0.800031 -1.71453 0
M  V30 3435 O 329.119 1.54736 -0.99008 0
M  V30 3436 C 329.181 -0.817523 -3.50081 0
M  V30 3437 C 328.845 -2.22863 -3.98975 0
M  V30 3438 C 329.842 -3.20569 -4.09306 0
M  V30 3439 C 327.527 -2.55407 -4.32519 0
M  V30 3440 C 329.521 -4.4891 -4.52503 0
M  V30 3441 C 327.208 -3.83976 -4.754 0
M  V30 3442 C 328.206 -4.8054 -4.85356 0
M  V30 3443 O 327.894 -6.06817 -5.27284 0
M  V30 3444 H 327.626 -0.235866 -0.633516 0
M  V30 3445 H 330.18 -1.2874 -1.60047 0
M  V30 3446 H 328.41 -0.105992 -3.86555 0
M  V30 3447 H 330.099 -0.491604 -4.02912 0
M  V30 3448 H 330.865 -2.96753 -3.83618 0
M  V30 3449 H 326.744 -1.8097 -4.23994 0
M  V30 3450 H 330.288 -5.24283 -4.60188 0
M  V30 3451 H 326.185 -4.07596 -5.00535 0
M  V30 3452 H 326.953 -6.10262 -5.45457 0
M  V30 3453 N 329.616 1.39756 -0.72842 0
M  V30 3454 C 330.865 1.99879 -0.270407 0
M  V30 3455 C 331.178 1.58449 1.14688 0
M  V30 3456 O 332.384 2.11362 1.70407 0
M  V30 3457 C 330.84 3.57292 -0.43252 0
M  V30 3458 C 330.448 4.07688 -1.85727 0
M  V30 3459 C 332.192 4.24485 -0.0359507 0
M  V30 3460 C 330.099 5.5765 -1.96928 0
M  V30 3461 H 329.029 0.747689 -0.0973472 0
M  V30 3462 H 331.68 1.59837 -0.901355 0
M  V30 3463 H 330.062 3.95097 0.267219 0
M  V30 3464 H 331.236 3.81231 -2.58843 0
M  V30 3465 H 329.551 3.53135 -2.20646 0
M  V30 3466 H 332.148 5.34609 -0.0987484 0
M  V30 3467 H 332.491 4.03915 1.00787 0
M  V30 3468 H 333.024 3.9183 -0.686604 0
M  V30 3469 H 329.763 5.8309 -2.99476 0
M  V30 3470 H 329.283 5.8593 -1.28241 0
M  V30 3471 H 330.962 6.22957 -1.74737 0
M  V30 3472 N 331.094 0.475555 1.50254 0
M  V30 3473 C 332.319 -0.0777042 2.07254 0
M  V30 3474 C 332.744 -1.3235 1.3366 0
M  V30 3475 O 332.102 -1.77152 0.385597 0
M  V30 3476 C 332.15 -0.340169 3.58992 0
M  V30 3477 O 331.254 -1.41982 3.87188 0
M  V30 3478 H 330.595 0.0149556 0.663832 0
M  V30 3479 H 333.125 0.667878 1.93392 0
M  V30 3480 H 333.135 -0.579332 4.03866 0
M  V30 3481 H 331.81 0.570167 4.11973 0
M  V30 3482 H 330.387 -1.16762 3.54148 0
M  V30 3483 N 332.573 -1.56217 0.208337 0
M  V30 3484 C 333.984 -1.84243 -0.301904 0
M  V30 3485 C 334.335 -1.12939 -1.60434 0
M  V30 3486 O 333.46 -0.39461 -2.12772 0
M  V30 3487 C 334.055 -3.34231 -0.554543 0
M  V30 3488 C 332.614 -3.62621 -1.00912 0
M  V30 3489 C 331.761 -2.77224 -0.064933 0
M  V30 3490 H 334.712 -1.52712 0.431833 0
M  V30 3491 H 334.733 -3.5372 -1.40223 0
M  V30 3492 H 334.245 -3.86099 0.393561 0
M  V30 3493 H 332.346 -3.16197 -1.97104 0
M  V30 3494 H 332.459 -4.7071 -0.892674 0
M  V30 3495 H 330.823 -2.48256 -0.56929 0
M  V30 3496 H 331.606 -3.31887 0.877851 0
M  V30 3497 N 334.051 0.0651679 -1.57465 0
M  V30 3498 C 335.281 0.774683 -1.91526 0
M  V30 3499 C 335.689 1.71305 -0.803196 0
M  V30 3500 O 335.032 1.82231 0.231881 0
M  V30 3501 C 335.094 1.61645 -3.21109 0
M  V30 3502 C 334.758 0.846753 -4.49087 0
M  V30 3503 C 335.755 0.163024 -5.19644 0
M  V30 3504 C 333.44 0.811966 -4.95694 0
M  V30 3505 C 335.434 -0.54519 -6.35064 0
M  V30 3506 C 333.121 0.0999836 -6.11018 0
M  V30 3507 C 334.119 -0.577388 -6.80555 0
M  V30 3508 O 333.807 -1.27789 -7.93678 0
M  V30 3509 H 333.539 0.225031 -0.637446 0
M  V30 3510 H 336.093 0.0377134 -2.05365 0
M  V30 3511 H 334.323 2.39638 -3.03497 0
M  V30 3512 H 336.012 2.20525 -3.40769 0
M  V30 3513 H 336.778 0.181163 -4.84662 0
M  V30 3514 H 332.657 1.32867 -4.41438 0
M  V30 3515 H 336.201 -1.07446 -6.89276 0
M  V30 3516 H 332.098 0.0797945 -6.45451 0
M  V30 3517 H 332.866 -1.18784 -8.09835 0
M  V30 3518 N 335.529 1.53961 0.336706 0
M  V30 3519 C 336.776 1.71536 1.07618 0
M  V30 3520 C 337.104 0.482125 1.8843 0
M  V30 3521 O 336.359 -0.536142 1.88213 0
M  V30 3522 C 336.658 2.93493 2.03953 0
M  V30 3523 C 336.324 4.28811 1.39399 0
M  V30 3524 C 334.986 4.65602 1.21523 0
M  V30 3525 C 337.338 5.12844 0.929541 0
M  V30 3526 C 334.666 5.84037 0.558312 0
M  V30 3527 C 337.018 6.31951 0.286505 0
M  V30 3528 C 335.682 6.67432 0.0954869 0
M  V30 3529 H 334.952 0.627696 0.393801 0
M  V30 3530 H 337.599 1.88186 0.354715 0
M  V30 3531 H 335.904 2.71475 2.82504 0
M  V30 3532 H 337.601 3.04285 2.61174 0
M  V30 3533 H 334.191 3.99858 1.54311 0
M  V30 3534 H 338.375 4.84947 1.05548 0
M  V30 3535 H 333.631 6.10097 0.398995 0
M  V30 3536 H 337.805 6.96352 -0.0814376 0
M  V30 3537 H 335.432 7.59063 -0.415579 0
M  V30 3538 N 337.007 -0.598083 1.45811 0
M  V30 3539 C 338.256 -1.35295 1.49594 0
M  V30 3540 C 338.569 -1.95057 0.145679 0
M  V30 3541 O 339.775 -2.71431 0.0612099 0
M  V30 3542 C 338.231 -2.45124 2.63519 0
M  V30 3543 C 337.839 -1.91732 4.04899 0
M  V30 3544 C 339.583 -3.2205 2.76558 0
M  V30 3545 C 337.49 -2.991 5.1019 0
M  V30 3546 H 336.42 -0.508552 0.556679 0
M  V30 3547 H 339.071 -0.639977 1.71978 0
M  V30 3548 H 337.453 -3.19149 2.34435 0
M  V30 3549 H 338.627 -1.24352 4.43704 0
M  V30 3550 H 336.942 -1.27522 3.96393 0
M  V30 3551 H 339.539 -4.0215 3.52391 0
M  V30 3552 H 339.882 -3.73663 1.83526 0
M  V30 3553 H 340.415 -2.55127 3.05213 0
M  V30 3554 H 337.154 -2.52393 6.04961 0
M  V30 3555 H 336.674 -3.65017 4.75944 0
M  V30 3556 H 338.353 -3.63318 5.35359 0
M  V30 3557 N 338.485 -1.33259 -0.841409 0
M  V30 3558 C 339.433 -1.23279 -1.97244 0
M  V30 3559 C 340.427 -0.134706 -1.68864 0
M  V30 3560 O 341.633 -0.298501 -1.77508 0
M  V30 3561 H 338.008 -0.382497 -0.647457 0
M  V30 3562 H 339.979 -2.18906 -2.02787 0
M  V30 3563 C 338.728 -0.986268 -3.33419 0
M  V30 3564 H 338.051 -1.82347 -3.55794 0
M  V30 3565 H 339.491 -0.956728 -4.13065 0
M  V30 3566 C 337.95 0.310842 -3.35463 0
M  V30 3567 O 338.48 1.31838 -3.79449 0
M  V30 3568 N 336.686 0.337485 -2.88634 0
M  V30 3569 H 336.233 -0.482967 -2.53032 0
M  V30 3570 H 336.191 1.20518 -2.90384 0
M  V30 3571 N 339.963 1.05934 -1.16686 0
M  V30 3572 C 341.191 1.8249 -0.974929 0
M  V30 3573 C 341.606 1.82679 0.476861 0
M  V30 3574 O 340.963 1.2486 1.33103 0
M  V30 3575 C 341.014 3.28943 -1.49929 0
M  V30 3576 O 340.735 3.28886 -2.89423 0
M  V30 3577 C 342.236 4.22215 -1.35089 0
M  V30 3578 H 339.456 0.575295 -0.345365 0
M  V30 3579 H 342 1.33631 -1.548 0
M  V30 3580 H 340.155 3.751 -0.968423 0
M  V30 3581 H 340.569 4.20493 -3.13506 0
M  V30 3582 H 342.043 5.22987 -1.76603 0
M  V30 3583 H 342.52 4.38195 -0.296935 0
M  V30 3584 H 343.126 3.81907 -1.87155 0
M  V30 3585 N 341.441 0.965919 1.2453 0
M  V30 3586 C 342.666 0.643971 1.97149 0
M  V30 3587 C 343.091 -0.779487 1.71189 0
M  V30 3588 O 342.449 -1.5288 0.974553 0
M  V30 3589 C 342.497 0.922557 3.48599 0
M  V30 3590 O 341.601 0.00707672 4.12399 0
M  V30 3591 H 340.942 0.243647 0.617683 0
M  V30 3592 H 343.472 1.29558 1.58353 0
M  V30 3593 H 343.482 0.853373 3.98976 0
M  V30 3594 H 342.157 1.95996 3.66822 0
M  V30 3595 H 340.734 0.12943 3.72675 0
M  V30 3596 N 342.919 -1.39368 0.735821 0
M  V30 3597 C 343.866 -2.30599 0.0963825 0
M  V30 3598 C 344.836 -1.49257 -0.728794 0
M  V30 3599 O 346.021 -1.77941 -0.688588 0
M  V30 3600 C 343.161 -3.35596 -0.804305 0
M  V30 3601 C 342.274 -4.31987 0.0335761 0
M  V30 3602 C 341.409 -5.24053 -0.868461 0
M  V30 3603 C 340.448 -6.12095 -0.0258776 0
M  V30 3604 N 339.585 -6.96514 -0.883893 0
M  V30 3605 H 344.425 -2.8471 0.880002 0
M  V30 3606 H 341.962 -1.40188 0.445619 0
M  V30 3607 H 343.92 -3.95062 -1.34096 0
M  V30 3608 H 342.55 -2.82938 -1.55389 0
M  V30 3609 H 341.602 -3.74133 0.68766 0
M  V30 3610 H 342.914 -4.94074 0.685036 0
M  V30 3611 H 342.068 -5.88549 -1.47293 0
M  V30 3612 H 340.807 -4.62289 -1.5537 0
M  V30 3613 H 339.812 -5.4661 0.591386 0
M  V30 3614 H 341.037 -6.75923 0.656156 0
M  V30 3615 H 338.983 -6.37318 -1.55441 0
M  V30 3616 H 338.9 -7.55448 -0.288931 0
M  V30 3617 H 340.168 -7.65439 -1.4739 0
M  V30 3618 N 344.397 -0.483516 -1.5 0
M  V30 3619 C 345.645 0.067027 -2.01989 0
M  V30 3620 C 345.966 1.3909 -1.36671 0
M  V30 3621 O 345.236 1.88978 -0.516152 0
M  V30 3622 H 343.816 0.0277606 -0.746484 0
M  V30 3623 H 346.478 -0.636773 -1.84204 0
M  V30 3624 H 345.574 0.209484 -3.11396 0
M  V30 3625 N 345.875 1.56104 -0.216619 0
M  V30 3626 C 346.807 2.17339 0.72776 0
M  V30 3627 C 347.82 1.14109 1.16116 0
M  V30 3628 O 349.009 1.4111 1.09317 0
M  V30 3629 C 346.109 2.73818 1.99693 0
M  V30 3630 C 345.282 4.02168 1.71988 0
M  V30 3631 C 344.341 4.43259 2.83562 0
M  V30 3632 O 343.367 5.10257 2.52244 0
M  V30 3633 N 344.569 4.08535 4.12407 0
M  V30 3634 H 347.334 2.99005 0.203983 0
M  V30 3635 H 344.895 1.61861 -0.0354289 0
M  V30 3636 H 346.887 2.9828 2.73516 0
M  V30 3637 H 345.457 1.96483 2.43132 0
M  V30 3638 H 344.677 3.85612 0.818337 0
M  V30 3639 H 345.965 4.85907 1.50903 0
M  V30 3640 H 345.363 3.54687 4.40696 0
M  V30 3641 H 343.92 4.37901 4.8279 0
M  V30 3642 N 347.353 -0.0568162 1.57498 0
M  V30 3643 C 348.3 -1.06591 2.04712 0
M  V30 3644 C 349.27 -1.3758 0.930644 0
M  V30 3645 O 350.455 -1.48392 1.19935 0
M  V30 3646 C 347.595 -2.3701 2.50839 0
M  V30 3647 C 346.708 -2.12421 3.76167 0
M  V30 3648 C 345.843 -3.36511 4.11015 0
M  V30 3649 C 344.882 -3.07353 5.2934 0
M  V30 3650 N 344.019 -4.23816 5.59754 0
M  V30 3651 H 348.859 -0.65631 2.90683 0
M  V30 3652 H 346.396 -0.312481 1.43743 0
M  V30 3653 H 348.354 -3.13175 2.7564 0
M  V30 3654 H 346.984 -2.75744 1.67825 0
M  V30 3655 H 346.036 -1.2688 3.58616 0
M  V30 3656 H 347.348 -1.86894 4.62463 0
M  V30 3657 H 346.502 -4.21062 4.36797 0
M  V30 3658 H 345.241 -3.65128 3.23315 0
M  V30 3659 H 344.246 -2.212 5.03339 0
M  V30 3660 H 345.471 -2.80043 6.1867 0
M  V30 3661 H 343.417 -4.52436 4.75014 0
M  V30 3662 H 343.334 -4.01614 6.40501 0
M  V30 3663 H 344.602 -5.0932 5.90096 0
M  V30 3664 N 348.832 -1.54138 -0.328536 0
M  V30 3665 C 350.072 -1.73827 -1.07534 0
M  V30 3666 C 350.436 -0.498777 -1.85408 0
M  V30 3667 O 351.637 -0.572937 -2.62623 0
M  V30 3668 C 349.908 -2.97573 -1.97952 0
M  V30 3669 S 351.467 -3.38143 -2.79652 0
M  V30 3670 H 348.285 -0.611287 -0.36311 0
M  V30 3671 H 350.887 -1.92306 -0.351931 0
M  V30 3672 H 349.591 -3.85939 -1.39569 0
M  V30 3673 H 349.122 -2.81603 -2.74706 0
M  V30 3674 H 351.137 -2.93052 -4.00418 0
M  V30 3675 N 350.31 0.590341 -1.46126 0
M  V30 3676 C 351.22 1.72793 -1.58681 0
M  V30 3677 C 352.236 1.67516 -0.470566 0
M  V30 3678 O 353.412 1.87562 -0.733642 0
M  V30 3679 C 350.477 3.09287 -1.5666 0
M  V30 3680 C 349.538 3.25886 -2.79458 0
M  V30 3681 C 348.771 4.55869 -2.77524 0
M  V30 3682 O 348.994 5.3928 -1.85832 0
M  V30 3683 O 347.928 4.75552 -3.68964 0
M  V30 3684 H 351.754 1.65149 -2.54872 0
M  V30 3685 H 349.339 0.756486 -1.28832 0
M  V30 3686 H 351.221 3.90577 -1.58202 0
M  V30 3687 H 349.896 3.17385 -0.636271 0
M  V30 3688 H 348.803 2.44119 -2.83472 0
M  V30 3689 H 350.136 3.22675 -3.71674 0
M  V30 3690 N 351.788 1.33704 0.83433 0
M  V30 3691 C 353.035 1.25417 1.58987 0
M  V30 3692 C 353.363 -0.178869 1.93676 0
M  V30 3693 O 352.618 -1.13723 1.59265 0
M  V30 3694 C 352.917 2.07926 2.90692 0
M  V30 3695 C 352.583 3.57066 2.75345 0
M  V30 3696 C 351.245 3.97724 2.70867 0
M  V30 3697 C 353.597 4.51817 2.59828 0
M  V30 3698 C 350.925 5.31344 2.48778 0
M  V30 3699 C 353.277 5.85604 2.39272 0
M  V30 3700 C 351.941 6.25439 2.33199 0
M  V30 3701 H 351.211 0.458934 0.581774 0
M  V30 3702 H 353.858 1.65335 0.966261 0
M  V30 3703 H 352.163 1.608 3.57282 0
M  V30 3704 H 353.86 1.98868 3.48213 0
M  V30 3705 H 350.45 3.24785 2.79665 0
M  V30 3706 H 354.634 4.21311 2.62319 0
M  V30 3707 H 349.89 5.61241 2.42526 0
M  V30 3708 H 354.064 6.58623 2.2625 0
M  V30 3709 H 351.691 7.28914 2.15843 0
M  V30 3710 N 353.266 -1.05314 1.17247 0
M  V30 3711 C 354.198 -2.13023 0.845812 0
M  V30 3712 C 355.211 -1.62096 -0.151246 0
M  V30 3713 O 356.4 -1.78343 0.0748818 0
M  V30 3714 C 353.5 -3.38047 0.240292 0
M  V30 3715 C 352.673 -4.18255 1.27991 0
M  V30 3716 C 351.732 -5.21625 0.692375 0
M  V30 3717 O 350.758 -5.52619 1.36385 0
M  V30 3718 N 351.96 -5.78201 -0.516178 0
M  V30 3719 H 354.725 -2.41642 1.77283 0
M  V30 3720 H 352.286 -1.21401 1.07115 0
M  V30 3721 H 354.278 -4.04359 -0.16603 0
M  V30 3722 H 352.848 -3.06972 -0.590487 0
M  V30 3723 H 352.068 -3.47451 1.86203 0
M  V30 3724 H 353.356 -4.68643 1.98119 0
M  V30 3725 H 352.754 -5.55301 -1.07969 0
M  V30 3726 H 351.311 -6.4604 -0.86458 0
M  V30 3727 N 354.744 -0.972509 -1.24016 0
M  V30 3728 C 356.021 -0.553733 -1.87598 0
M  V30 3729 C 356.401 0.969158 -1.87538 0
M  V30 3730 O 355.749 1.84255 -1.35139 0
M  V30 3731 C 355.959 -1.15076 -3.29482 0
M  V30 3732 C 357.307 -1.23862 -4.06132 0
M  V30 3733 O 358.331 -1.10363 -3.38672 0
M  V30 3734 O 357.19 -1.45252 -5.26844 0
M  V30 3735 H 354.284 -0.185331 -0.805966 0
M  V30 3736 H 356.83 -1.06709 -1.31952 0
M  V30 3737 H 355.602 -2.19333 -3.2405 0
M  V30 3738 H 355.225 -0.621746 -3.92709 0
M  V30 3739 N 356.222 1.38976 -0.743202 0
M  V30 3740 C 357.185 2.28901 -0.117014 0
M  V30 3741 C 358.185 1.46698 0.658503 0
M  V30 3742 O 359.375 1.67274 0.486305 0
M  V30 3743 C 356.507 3.30309 0.84315 0
M  V30 3744 H 357.7 2.8578 -0.909373 0
M  V30 3745 H 355.253 1.47761 -0.509547 0
M  V30 3746 H 355.988 2.785 1.66157 0
M  V30 3747 H 355.773 3.91029 0.289594 0
M  V30 3748 H 357.263 3.97577 1.2776 0
M  V30 3749 N 357.7 0.491464 1.49741 0
M  V30 3750 C 358.93 -0.0534375 2.06531 0
M  V30 3751 C 359.338 -1.32233 1.35318 0
M  V30 3752 O 358.681 -1.78781 0.422243 0
M  V30 3753 C 358.743 -0.387034 3.57411 0
M  V30 3754 C 358.407 0.782764 4.50246 0
M  V30 3755 C 359.404 1.67059 4.92329 0
M  V30 3756 C 357.089 0.978866 4.9267 0
M  V30 3757 C 359.083 2.73874 5.75562 0
M  V30 3758 C 356.77 2.05022 5.75682 0
M  V30 3759 C 357.768 2.92851 6.17031 0
M  V30 3760 O 357.456 3.98138 6.98385 0
M  V30 3761 H 357.188 0.0129324 0.675876 0
M  V30 3762 H 359.742 0.685238 1.93633 0
M  V30 3763 H 357.972 -1.17918 3.68283 0
M  V30 3764 H 359.661 -0.869419 3.96479 0
M  V30 3765 H 360.427 1.53086 4.60206 0
M  V30 3766 H 356.306 0.304646 4.59992 0
M  V30 3767 H 359.85 3.42458 6.07757 0
M  V30 3768 H 355.747 2.18993 6.07217 0
M  V30 3769 H 356.515 3.95374 7.16674 0
M  V30 3770 N 359.178 -1.55987 0.224894 0
M  V30 3771 C 360.424 -1.98684 -0.406502 0
M  V30 3772 C 360.757 -1.11248 -1.59177 0
M  V30 3773 O 360.032 -0.170909 -1.93748 0
M  V30 3774 C 360.315 -3.50218 -0.837808 0
M  V30 3775 C 360.168 -4.48426 0.351332 0
M  V30 3776 C 361.487 -4.06243 -1.69278 0
M  V30 3777 H 358.606 -0.722337 -0.146283 0
M  V30 3778 H 361.248 -1.87255 0.321799 0
M  V30 3779 H 359.398 -3.60089 -1.45837 0
M  V30 3780 H 361.07 -4.50562 0.989526 0
M  V30 3781 H 359.313 -4.22159 0.998207 0
M  V30 3782 H 359.984 -5.52 0.00655905 0
M  V30 3783 H 362.46 -3.99337 -1.16914 0
M  V30 3784 H 361.336 -5.12581 -1.96346 0
M  V30 3785 H 361.597 -3.53332 -2.65723 0
M  V30 3786 N 360.656 0.0484629 -1.57525 0
M  V30 3787 C 361.586 1.0549 -2.08313 0
M  V30 3788 C 362.567 1.38929 -0.981463 0
M  V30 3789 O 363.752 1.48151 -1.25558 0
M  V30 3790 C 360.882 2.36162 -2.54646 0
M  V30 3791 C 359.836 2.17016 -3.68901 0
M  V30 3792 C 359.162 3.53278 -4.01371 0
M  V30 3793 C 360.462 1.57219 -4.98076 0
M  V30 3794 H 362.156 0.632195 -2.92649 0
M  V30 3795 H 359.702 0.302654 -1.40784 0
M  V30 3796 H 361.655 3.06882 -2.88793 0
M  V30 3797 H 360.379 2.80456 -1.67368 0
M  V30 3798 H 359.038 1.48733 -3.35073 0
M  V30 3799 H 358.686 3.95185 -3.11188 0
M  V30 3800 H 358.386 3.41299 -4.78318 0
M  V30 3801 H 359.91 4.25391 -4.38035 0
M  V30 3802 H 361.324 2.17832 -5.30304 0
M  V30 3803 H 359.721 1.55871 -5.79503 0
M  V30 3804 H 360.791 0.535956 -4.81929 0
M  V30 3805 N 362.134 1.5431 0.320358 0
M  V30 3806 C 363.064 1.86912 1.3995 0
M  V30 3807 C 364.045 0.726211 1.53819 0
M  V30 3808 O 365.23 0.980233 1.67646 0
M  V30 3809 C 362.36 2.09932 2.7667 0
M  V30 3810 C 361.314 3.25776 2.77586 0
M  V30 3811 C 360.64 3.34173 4.17412 0
M  V30 3812 C 361.94 4.6335 2.41048 0
M  V30 3813 H 363.634 2.77292 1.12914 0
M  V30 3814 H 361.18 1.33421 0.541738 0
M  V30 3815 H 363.133 2.31324 3.52232 0
M  V30 3816 H 361.857 1.16304 3.0519 0
M  V30 3817 H 360.516 3.04276 2.04479 0
M  V30 3818 H 360.164 2.38098 4.43078 0
M  V30 3819 H 359.864 4.12033 4.18931 0
M  V30 3820 H 361.388 3.57803 4.94782 0
M  V30 3821 H 362.802 4.84602 3.06324 0
M  V30 3822 H 361.199 5.43782 2.53813 0
M  V30 3823 H 362.269 4.65381 1.36193 0
M  V30 3824 N 363.613 -0.582584 1.46437 0
M  V30 3825 C 364.838 -1.37168 1.55563 0
M  V30 3826 C 365.263 -1.87061 0.19743 0
M  V30 3827 O 364.621 -1.61572 -0.822451 0
M  V30 3828 C 364.669 -2.53511 2.56446 0
M  V30 3829 O 363.773 -3.54953 2.09958 0
M  V30 3830 H 363.114 -0.408494 0.523477 0
M  V30 3831 H 365.644 -0.706646 1.9201 0
M  V30 3832 H 365.654 -3.00426 2.76058 0
M  V30 3833 H 364.329 -2.16549 3.55076 0
M  V30 3834 H 362.906 -3.14516 2.00334 0
M  V30 3835 N 365.091 -1.34144 -0.827227 0
M  V30 3836 C 366.001 -1.27428 -1.96975 0
M  V30 3837 C 367.017 -0.182728 -1.73038 0
M  V30 3838 O 368.193 -0.408426 -1.97215 0
M  V30 3839 C 365.258 -1.02526 -3.31194 0
M  V30 3840 C 364.319 -2.20796 -3.68168 0
M  V30 3841 C 363.552 -1.97073 -4.95982 0
M  V30 3842 O 363.775 -0.926822 -5.6282 0
M  V30 3843 O 362.709 -2.83912 -5.30733 0
M  V30 3844 H 366.535 -2.23537 -2.05584 0
M  V30 3845 H 364.12 -1.14307 -0.961989 0
M  V30 3846 H 366.002 -0.904026 -4.11589 0
M  V30 3847 H 364.677 -0.0945389 -3.23562 0
M  V30 3848 H 363.584 -2.38477 -2.88235 0
M  V30 3849 H 364.917 -3.12243 -3.8048 0
M  V30 3850 N 366.569 1.04691 -1.17803 0
M  V30 3851 C 367.516 2.12557 -0.899343 0
M  V30 3852 C 368.486 1.65339 0.158771 0
M  V30 3853 O 369.671 1.90789 0.0204797 0
M  V30 3854 C 366.811 3.42481 -0.424315 0
M  V30 3855 C 365.924 4.03346 -1.54713 0
M  V30 3856 C 365.059 5.21208 -1.02546 0
M  V30 3857 C 364.098 5.74089 -2.12339 0
M  V30 3858 N 363.235 6.83247 -1.61612 0
M  V30 3859 H 368.075 2.35734 -1.823 0
M  V30 3860 H 365.612 1.1564 -0.909159 0
M  V30 3861 H 367.57 4.16996 -0.130421 0
M  V30 3862 H 366.2 3.19471 0.462377 0
M  V30 3863 H 365.252 3.2622 -1.95664 0
M  V30 3864 H 366.564 4.38628 -2.37501 0
M  V30 3865 H 365.718 6.02812 -0.685718 0
M  V30 3866 H 364.457 4.87414 -0.167084 0
M  V30 3867 H 363.462 4.91111 -2.47165 0
M  V30 3868 H 364.687 6.0993 -2.98601 0
M  V30 3869 H 362.633 6.5134 -0.780533 0
M  V30 3870 H 362.55 7.17559 -2.38003 0
M  V30 3871 H 363.818 7.68491 -1.30545 0
M  V30 3872 N 368.047 0.979072 1.23499 0
M  V30 3873 C 368.994 0.517904 2.24914 0
M  V30 3874 C 369.964 -0.442525 1.60097 0
M  V30 3875 O 371.149 -0.350365 1.87556 0
M  V30 3876 C 368.289 -0.174813 3.44657 0
M  V30 3877 C 367.402 0.825721 4.24035 0
M  V30 3878 C 366.537 0.107946 5.3109 0
M  V30 3879 C 365.576 1.09778 6.02175 0
M  V30 3880 N 364.713 0.40925 7.00906 0
M  V30 3881 H 369.553 1.38751 2.63727 0
M  V30 3882 H 367.09 0.695303 1.2963 0
M  V30 3883 H 369.048 -0.593233 4.12961 0
M  V30 3884 H 367.678 -1.0083 3.06648 0
M  V30 3885 H 366.73 1.36253 3.55161 0
M  V30 3886 H 368.042 1.58005 4.73113 0
M  V30 3887 H 367.196 -0.367904 6.05583 0
M  V30 3888 H 365.935 -0.678994 4.8295 0
M  V30 3889 H 364.94 1.5844 5.26476 0
M  V30 3890 H 366.165 1.88536 6.52404 0
M  V30 3891 H 364.111 -0.358506 6.5502 0
M  V30 3892 H 364.028 1.10226 7.47921 0
M  V30 3893 H 365.296 -0.0442557 7.79487 0
M  V30 3894 N 369.525 -1.3858 0.750561 0
M  V30 3895 C 370.774 -1.99424 0.302172 0
M  V30 3896 C 371.087 -1.60254 -1.12152 0
M  V30 3897 O 372.293 -2.14046 -1.67023 0
M  V30 3898 C 370.749 -3.56558 0.489307 0
M  V30 3899 C 370.357 -4.04682 1.92189 0
M  V30 3900 C 372.101 -4.24374 0.103478 0
M  V30 3901 C 370.008 -5.54446 2.05775 0
M  V30 3902 H 368.938 -0.746046 0.10923 0
M  V30 3903 H 371.589 -1.58383 0.92667 0
M  V30 3904 H 369.971 -3.95472 -0.204329 0
M  V30 3905 H 371.145 -3.77065 2.64875 0
M  V30 3906 H 369.46 -3.4958 2.26236 0
M  V30 3907 H 372.057 -5.34384 0.183787 0
M  V30 3908 H 372.4 -4.05468 -0.943481 0
M  V30 3909 H 372.933 -3.90688 0.748854 0
M  V30 3910 H 369.672 -5.78252 3.08714 0
M  V30 3911 H 369.192 -5.83816 1.37546 0
M  V30 3912 H 370.871 -6.20099 1.84626 0
M  V30 3913 N 371.003 -0.499398 -1.49478 0
M  V30 3914 C 372.228 0.044722 -2.07352 0
M  V30 3915 C 372.653 1.30207 -1.35749 0
M  V30 3916 O 372.011 1.76516 -0.413732 0
M  V30 3917 C 372.059 0.283013 -3.59488 0
M  V30 3918 O 371.163 1.35804 -3.89398 0
M  V30 3919 H 370.504 -0.0255147 -0.66351 0
M  V30 3920 H 373.034 -0.698561 -1.92305 0
M  V30 3921 H 373.044 0.515007 -4.04737 0
M  V30 3922 H 371.719 -0.635636 -4.11014 0
M  V30 3923 H 370.296 1.11113 -3.55961 0
M  V30 3924 N 372.481 1.55866 -0.233164 0
M  V30 3925 C 373.706 2.03449 0.402906 0
M  V30 3926 C 374.131 1.11166 1.51736 0
M  V30 3927 O 373.489 0.101996 1.81013 0
M  V30 3928 C 373.537 3.49165 0.9009 0
M  V30 3929 O 372.641 3.60019 2.01147 0
M  V30 3930 H 371.982 0.657913 0.0897025 0
M  V30 3931 H 374.512 2.01493 -0.355201 0
M  V30 3932 H 374.522 3.89716 1.2077 0
M  V30 3933 H 373.197 4.15813 0.0852889 0
M  V30 3934 H 371.774 3.3136 1.71042 0
M  V30 3935 N 373.959 -0.0401083 1.57549 0
M  V30 3936 C 375.208 -0.732108 1.87944 0
M  V30 3937 C 375.521 -1.77107 0.830206 0
M  V30 3938 O 376.727 -2.51488 1.02302 0
M  V30 3939 C 375.183 -1.35315 3.33494 0
M  V30 3940 C 374.791 -0.351105 4.46622 0
M  V30 3941 C 376.535 -2.02566 3.73051 0
M  V30 3942 C 374.442 -0.979859 5.83226 0
M  V30 3943 H 373.372 -0.277188 0.701201 0
M  V30 3944 H 376.023 0.0138501 1.83495 0
M  V30 3945 H 374.405 -2.14844 3.32653 0
M  V30 3946 H 375.579 0.416674 4.58912 0
M  V30 3947 H 373.894 0.218708 4.15825 0
M  V30 3948 H 376.491 -2.50441 4.72423 0
M  V30 3949 H 376.834 -2.83904 3.04474 0
M  V30 3950 H 377.367 -1.29827 3.76018 0
M  V30 3951 H 374.106 -0.206135 6.55176 0
M  V30 3952 H 373.626 -1.71774 5.74677 0
M  V30 3953 H 375.305 -1.49046 6.29599 0
M  V30 3954 N 375.437 -1.54477 -0.31217 0
M  V30 3955 C 376.369 -1.81011 -1.40598 0
M  V30 3956 C 377.382 -0.692546 -1.47335 0
M  V30 3957 O 378.571 -0.969847 -1.49854 0
M  V30 3958 C 375.671 -1.92307 -2.79054 0
M  V30 3959 C 374.844 -3.22594 -2.95384 0
M  V30 3960 C 373.903 -3.24448 -4.1427 0
M  V30 3961 O 372.929 -3.98035 -4.06887 0
M  V30 3962 N 374.131 -2.49042 -5.24365 0
M  V30 3963 H 376.896 -2.75408 -1.18196 0
M  V30 3964 H 374.457 -1.53914 -0.502202 0
M  V30 3965 H 376.449 -1.90962 -3.56813 0
M  V30 3966 H 375.019 -1.04955 -2.94454 0
M  V30 3967 H 374.239 -3.36806 -2.04831 0
M  V30 3968 H 375.527 -4.08593 -3.03198 0
M  V30 3969 H 374.925 -1.88867 -5.33241 0
M  V30 3970 H 373.482 -2.53463 -6.005 0
M  V30 3971 N 376.915 0.57481 -1.46744 0
M  V30 3972 C 378.14 1.36341 -1.56288 0
M  V30 3973 C 378.565 1.86954 -0.207347 0
M  V30 3974 O 377.923 1.62006 0.813871 0
M  V30 3975 C 377.971 2.52147 -2.57787 0
M  V30 3976 O 377.075 3.53834 -2.11838 0
M  V30 3977 H 376.416 0.405713 -0.525636 0
M  V30 3978 H 378.946 0.696453 -1.92382 0
M  V30 3979 H 378.956 2.98958 -2.77648 0
M  V30 3980 H 377.631 2.14663 -3.5622 0
M  V30 3981 H 376.208 3.1345 -2.01999 0
M  V30 3982 N 378.394 1.34581 0.820102 0
M  V30 3983 C 379.643 1.26437 1.57151 0
M  V30 3984 C 379.956 -0.163111 1.94919 0
M  V30 3985 O 381.162 -0.366722 2.69012 0
M  V30 3986 C 379.618 2.21658 2.83541 0
M  V30 3987 C 379.226 3.69679 2.53065 0
M  V30 3988 C 380.97 2.22428 3.61561 0
M  V30 3989 C 378.877 4.56761 3.75664 0
M  V30 3990 H 377.807 0.469707 0.589823 0
M  V30 3991 H 380.458 1.59763 0.902656 0
M  V30 3992 H 378.84 1.81287 3.52067 0
M  V30 3993 H 380.014 4.18605 1.92631 0
M  V30 3994 H 378.329 3.71384 1.88316 0
M  V30 3995 H 380.926 2.8471 4.52597 0
M  V30 3996 H 381.269 1.22434 3.97889 0
M  V30 3997 H 381.802 2.61259 2.99981 0
M  V30 3998 H 378.541 5.57702 3.44454 0
M  V30 3999 H 378.061 4.12568 4.35371 0
M  V30 4000 H 379.74 4.71509 4.43044 0
M  V30 4001 N 379.872 -1.04064 1.18357 0
M  V30 4002 C 381.118 -1.77528 0.980397 0
M  V30 4003 C 381.451 -1.87948 -0.48879 0
M  V30 4004 O 380.726 -1.3876 -1.36293 0
M  V30 4005 C 381.009 -3.20797 1.63588 0
M  V30 4006 C 380.862 -3.1832 3.17793 0
M  V30 4007 C 382.181 -4.18911 1.34914 0
M  V30 4008 H 379.3 -0.644443 0.357578 0
M  V30 4009 H 381.942 -1.2156 1.46024 0
M  V30 4010 H 380.092 -3.68586 1.22788 0
M  V30 4011 H 381.764 -2.78521 3.67728 0
M  V30 4012 H 380.007 -2.56351 3.49952 0
M  V30 4013 H 380.678 -4.19489 3.58794 0
M  V30 4014 H 383.154 -3.7967 1.70265 0
M  V30 4015 H 382.03 -5.17374 1.83346 0
M  V30 4016 H 382.291 -4.41262 0.272027 0
M  V30 4017 N 381.35 -0.985608 -1.22978 0
M  V30 4018 C 382.761 -0.693593 -1.73338 0
M  V30 4019 C 383.112 0.789935 -1.79595 0
M  V30 4020 O 382.237 1.61771 -1.43733 0
M  V30 4021 C 382.832 -1.25235 -3.14804 0
M  V30 4022 C 381.391 -1.00987 -3.626 0
M  V30 4023 C 380.538 -1.37695 -2.40698 0
M  V30 4024 H 383.489 -1.15884 -1.08428 0
M  V30 4025 H 383.51 -0.627329 -3.75293 0
M  V30 4026 H 383.022 -2.33209 -3.10218 0
M  V30 4027 H 381.123 0.0535565 -3.72562 0
M  V30 4028 H 381.236 -1.66812 -4.49122 0
M  V30 4029 H 379.6 -0.795459 -2.4196 0
M  V30 4030 H 380.383 -2.46657 -2.38779 0
M  V30 4031 N 382.828 1.3818 -0.7579 0
M  V30 4032 C 383.791 2.28764 -0.141286 0
M  V30 4033 C 384.791 1.47388 0.642907 0
M  V30 4034 O 385.981 1.67781 0.468536 0
M  V30 4035 C 383.113 3.31184 0.808069 0
M  V30 4036 H 384.306 2.848 -0.939633 0
M  V30 4037 H 381.859 1.47212 -0.525191 0
M  V30 4038 H 382.594 2.80247 1.63193 0
M  V30 4039 H 382.379 3.91314 0.248104 0
M  V30 4040 H 383.869 3.98909 1.23536 0
M  V30 4041 N 384.306 0.507319 1.49211 0
M  V30 4042 C 385.236 -0.256939 2.32082 0
M  V30 4043 C 386.217 -0.956609 1.40652 0
M  V30 4044 O 387.402 -0.946788 1.69557 0
M  V30 4045 C 384.532 -1.31802 3.21318 0
M  V30 4046 C 383.486 -0.737855 4.21592 0
M  V30 4047 C 382.812 -1.89992 4.99807 0
M  V30 4048 C 384.112 0.275325 5.21574 0
M  V30 4049 H 385.806 0.434798 2.96226 0
M  V30 4050 H 383.352 0.210546 1.42452 0
M  V30 4051 H 385.305 -1.86045 3.78107 0
M  V30 4052 H 384.029 -2.03903 2.5513 0
M  V30 4053 H 382.688 -0.217126 3.65956 0
M  V30 4054 H 382.336 -2.60877 4.30061 0
M  V30 4055 H 382.036 -1.51777 5.6766 0
M  V30 4056 H 383.56 -2.44657 5.59442 0
M  V30 4057 H 384.974 -0.179193 5.7302 0
M  V30 4058 H 383.371 0.573649 5.97352 0
M  V30 4059 H 384.441 1.18903 4.70096 0
M  V30 4060 N 385.784 -1.5574 0.241426 0
M  V30 4061 C 386.694 -2.2479 -0.671305 0
M  V30 4062 C 387.71 -1.26217 -1.19772 0
M  V30 4063 O 388.886 -1.59079 -1.23514 0
M  V30 4064 C 385.951 -2.92966 -1.85396 0
M  V30 4065 C 385.012 -4.06935 -1.36756 0
M  V30 4066 C 384.245 -4.71851 -2.49384 0
M  V30 4067 O 384.468 -4.35823 -3.67987 0
M  V30 4068 O 383.402 -5.60467 -2.19454 0
M  V30 4069 H 387.228 -3.0349 -0.112966 0
M  V30 4070 H 384.813 -1.49397 0.0101513 0
M  V30 4071 H 386.695 -3.35927 -2.54423 0
M  V30 4072 H 385.37 -2.17211 -2.40002 0
M  V30 4073 H 384.277 -3.68503 -0.644726 0
M  V30 4074 H 385.61 -4.84492 -0.867647 0
M  V30 4075 N 387.262 0.0317525 -1.57568 0
M  V30 4076 C 388.511 0.722131 -1.8833 0
M  V30 4077 C 388.824 1.76664 -0.839587 0
M  V30 4078 O 390.03 2.50942 -1.03635 0
M  V30 4079 C 388.486 1.33544 -3.34207 0
M  V30 4080 C 388.094 0.327415 -4.46802 0
M  V30 4081 C 389.838 2.00585 -3.7412 0
M  V30 4082 C 387.745 0.948915 -5.83738 0
M  V30 4083 H 386.675 0.273466 -0.702661 0
M  V30 4084 H 389.326 -0.0235811 -1.83485 0
M  V30 4085 H 387.708 2.13077 -3.33788 0
M  V30 4086 H 388.882 -0.441006 -4.58685 0
M  V30 4087 H 387.197 -0.240758 -4.15703 0
M  V30 4088 H 389.794 2.47932 -4.73744 0
M  V30 4089 H 390.137 2.82285 -3.05975 0
M  V30 4090 H 390.67 1.27831 -3.76702 0
M  V30 4091 H 387.409 0.171387 -6.55276 0
M  V30 4092 H 386.929 1.68724 -5.7558 0
M  V30 4093 H 388.608 1.45705 -6.3038 0
M  V30 4094 N 388.74 1.54641 0.303973 0
M  V30 4095 C 389.703 1.84646 1.35789 0
M  V30 4096 C 390.703 0.7192 1.4382 0
M  V30 4097 O 391.893 0.987491 1.43507 0
M  V30 4098 C 389.025 2.02407 2.74307 0
M  V30 4099 H 390.218 2.78829 1.10429 0
M  V30 4100 H 387.771 1.46658 0.540487 0
M  V30 4101 H 388.506 1.10502 3.04893 0
M  V30 4102 H 388.291 2.84453 2.69868 0
M  V30 4103 H 389.781 2.27002 3.50514 0
M  V30 4104 N 390.218 -0.567019 1.47046 0
M  V30 4105 C 391.166 -1.69593 1.59188 0
M  V30 4106 C 392.16 -1.63046 0.459609 0
M  V30 4107 O 393.366 -1.6835 0.637058 0
M  V30 4108 H 389.741 -0.560993 0.500791 0
M  V30 4109 H 391.712 -1.56488 2.54075 0
M  V30 4110 C 390.461 -3.07964 1.61411 0
M  V30 4111 H 389.784 -3.13679 2.47881 0
M  V30 4112 H 391.224 -3.86671 1.73958 0
M  V30 4113 C 389.683 -3.35123 0.34559 0
M  V30 4114 O 390.213 -3.97812 -0.557521 0
M  V30 4115 N 388.419 -2.89699 0.22864 0
M  V30 4116 H 387.966 -2.38863 0.964479 0
M  V30 4117 H 387.924 -3.08242 -0.619192 0
M  V30 4118 N 391.696 -1.35014 -0.812953 0
M  V30 4119 C 392.659 -1.27292 -1.90602 0
M  V30 4120 C 393.659 -0.185817 -1.59723 0
M  V30 4121 O 394.849 -0.439102 -1.68575 0
M  V30 4122 C 391.981 -0.967676 -3.26877 0
M  V30 4123 H 393.174 -2.24479 -1.9887 0
M  V30 4124 H 390.727 -1.19446 -1.00808 0
M  V30 4125 H 391.462 0.0005954 -3.243 0
M  V30 4126 H 391.247 -1.75412 -3.50675 0
M  V30 4127 H 392.737 -0.939085 -4.06904 0
M  V30 4128 N 393.175 1.03435 -1.18907 0
M  V30 4129 C 394.125 2.09924 -0.889706 0
M  V30 4130 C 395.109 1.60261 0.143216 0
M  V30 4131 O 396.301 1.76892 -0.0617122 0
M  V30 4132 C 393.43 3.40669 -0.424168 0
M  V30 4133 C 392.516 3.97082 -1.48952 0
M  V30 4134 N 392.907 4.27227 -2.70759 0
M  V30 4135 C 391.205 4.25029 -1.35152 0
M  V30 4136 C 391.906 4.7246 -3.39347 0
M  V30 4137 N 390.882 4.7366 -2.66735 0
M  V30 4138 H 394.684 2.31116 -1.81555 0
M  V30 4139 H 392.198 1.21246 -1.08042 0
M  V30 4140 H 394.195 4.16461 -0.191176 0
M  V30 4141 H 392.855 3.20901 0.495263 0
M  V30 4142 H 393.866 4.16678 -3.0757 0
M  V30 4143 H 390.543 4.14554 -0.495126 0
M  V30 4144 H 391.933 5.04751 -4.43481 0
M  V30 4145 N 394.653 0.992116 1.22453 0
M  V30 4146 C 396.069 0.702713 1.43297 0
M  V30 4147 C 396.269 -0.726909 1.87932 0
M  V30 4148 O 395.325 -1.49792 2.0327 0
M  V30 4149 C 396.638 1.70762 2.47509 0
M  V30 4150 C 398.186 1.72298 2.61309 0
M  V30 4151 C 398.661 2.71649 3.68742 0
M  V30 4152 N 400.152 2.70239 3.76199 0
M  V30 4153 C 400.887 3.43778 4.58917 0
M  V30 4154 N 400.383 4.26914 5.45633 0
M  V30 4155 N 402.176 3.32487 4.5322 0
M  V30 4156 H 394.327 1.91543 0.917871 0
M  V30 4157 H 396.59 0.826031 0.465162 0
M  V30 4158 H 396.296 2.73059 2.21657 0
M  V30 4159 H 396.17 1.49985 3.46099 0
M  V30 4160 H 398.557 0.706989 2.86506 0
M  V30 4161 H 398.638 1.97143 1.62997 0
M  V30 4162 H 398.282 3.73397 3.44292 0
M  V30 4163 H 398.212 2.44074 4.66622 0
M  V30 4164 H 400.703 2.09912 3.14237 0
M  V30 4165 H 401.016 4.79855 6.05771 0
M  V30 4166 H 399.361 4.31002 5.45218 0
M  V30 4167 H 402.552 2.6698 3.84499 0
M  V30 4168 H 402.725 3.90058 5.17454 0
M  V30 4169 N 396.131 -1.37776 0.765217 0
M  V30 4170 C 397.078 -2.30342 0.145274 0
M  V30 4171 C 398.048 -1.5077 -0.696971 0
M  V30 4172 O 399.233 -1.79362 -0.650689 0
M  V30 4173 C 396.373 -3.37227 -0.732939 0
M  V30 4174 C 395.486 -4.31819 0.125199 0
M  V30 4175 C 394.621 -5.25777 -0.757107 0
M  V30 4176 C 393.66 -6.12012 0.103963 0
M  V30 4177 N 392.797 -6.98232 -0.735953 0
M  V30 4178 H 397.637 -2.8278 0.940195 0
M  V30 4179 H 395.174 -1.39211 0.475255 0
M  V30 4180 H 397.132 -3.97818 -1.25686 0
M  V30 4181 H 395.762 -2.86171 -1.49353 0
M  V30 4182 H 394.814 -3.7259 0.766865 0
M  V30 4183 H 396.126 -4.92509 0.789683 0
M  V30 4184 H 395.28 -5.91541 -1.34776 0
M  V30 4185 H 394.019 -4.65481 -1.45529 0
M  V30 4186 H 393.024 -5.45233 0.707197 0
M  V30 4187 H 394.249 -6.74379 0.799381 0
M  V30 4188 H 392.195 -6.40472 -1.41887 0
M  V30 4189 H 392.112 -7.55891 -0.128624 0
M  V30 4190 H 393.38 -7.68393 -1.31121 0
M  V30 4191 N 397.609 -0.515225 -1.4894 0
M  V30 4192 C 399.02 -0.0710067 -1.86565 0
M  V30 4193 C 399.371 1.34733 -1.42623 0
M  V30 4194 O 398.496 2.00653 -0.810379 0
M  V30 4195 C 399.091 -0.122083 -3.3858 0
M  V30 4196 C 397.65 0.266863 -3.75453 0
M  V30 4197 C 396.797 -0.488376 -2.72966 0
M  V30 4198 H 399.748 -0.727266 -1.41055 0
M  V30 4199 H 399.769 0.669818 -3.74558 0
M  V30 4200 H 399.281 -1.15448 -3.70531 0
M  V30 4201 H 397.382 1.30196 -3.49113 0
M  V30 4202 H 397.495 -0.0624811 -4.79059 0
M  V30 4203 H 395.859 0.0635622 -2.54621 0
M  V30 4204 H 396.642 -1.52113 -3.07761 0
M  V30 4205 N 399.087 1.5561 -0.249682 0
M  V30 4206 C 400.017 2.24477 0.642826 0
M  V30 4207 C 400.998 1.22601 1.17911 0
M  V30 4208 O 402.183 1.5126 1.21795 0
M  V30 4209 C 399.313 2.94638 1.83863 0
M  V30 4210 C 398.267 4.03227 1.435 0
M  V30 4211 C 397.593 4.60828 2.71186 0
M  V30 4212 C 398.893 5.18796 0.604002 0
M  V30 4213 H 400.587 2.99321 0.0685625 0
M  V30 4214 H 398.133 1.43965 0.0315363 0
M  V30 4215 H 400.086 3.41517 2.46868 0
M  V30 4216 H 398.81 2.17287 2.43832 0
M  V30 4217 H 397.469 3.57121 0.828275 0
M  V30 4218 H 397.117 3.80174 3.29358 0
M  V30 4219 H 396.817 5.34132 2.44901 0
M  V30 4220 H 398.341 5.10442 3.35084 0
M  V30 4221 H 399.755 5.61883 1.13842 0
M  V30 4222 H 398.152 5.98506 0.437097 0
M  V30 4223 H 399.222 4.83384 -0.383147 0
M  V30 4224 N 400.565 -0.0233959 1.57583 0
M  V30 4225 C 401.811 -0.714119 1.89811 0
M  V30 4226 C 402.144 -1.74702 0.848113 0
M  V30 4227 O 401.419 -1.94023 -0.136135 0
M  V30 4228 C 401.702 -1.37853 3.32669 0
M  V30 4229 C 401.555 -0.358764 4.48367 0
M  V30 4230 C 402.874 -2.31101 3.7454 0
M  V30 4231 H 399.993 -0.25814 0.690314 0
M  V30 4232 H 402.635 0.0230927 1.89986 0
M  V30 4233 H 400.785 -2.00689 3.3265 0
M  V30 4234 H 402.457 0.268115 4.6052 0
M  V30 4235 H 400.7 0.321387 4.32608 0
M  V30 4236 H 401.371 -0.862242 5.45224 0
M  V30 4237 H 403.847 -1.78304 3.75961 0
M  V30 4238 H 402.723 -2.74567 4.75294 0
M  V30 4239 H 402.984 -3.18018 3.0711 0
M  V30 4240 N 402.043 -1.548 -0.295768 0
M  V30 4241 C 403.292 -1.73538 -1.02798 0
M  V30 4242 C 403.605 -0.531159 -1.8825 0
M  V30 4243 O 404.811 -0.600458 -2.64777 0
M  V30 4244 C 403.267 -3.07051 -1.87744 0
M  V30 4245 C 402.875 -4.34968 -1.07269 0
M  V30 4246 C 404.619 -3.35146 -2.60533 0
M  V30 4247 C 402.526 -5.5953 -1.91521 0
M  V30 4248 H 401.456 -0.646794 -0.387522 0
M  V30 4249 H 404.107 -1.81278 -0.284718 0
M  V30 4250 H 402.489 -2.93289 -2.66078 0
M  V30 4251 H 403.663 -4.5958 -0.335117 0
M  V30 4252 H 401.978 -4.13847 -0.460384 0
M  V30 4253 H 404.575 -4.2541 -3.23929 0
M  V30 4254 H 404.918 -2.54255 -3.29636 0
M  V30 4255 H 405.451 -3.49902 -1.89244 0
M  V30 4256 H 402.19 -6.43103 -1.26878 0
M  V30 4257 H 401.71 -5.39096 -2.62937 0
M  V30 4258 H 403.389 -5.96982 -2.49442 0
M  V30 4259 N 403.521 0.559213 -1.47345 0
M  V30 4260 C 404.77 1.31281 -1.53128 0
M  V30 4261 C 405.083 1.94602 -0.197344 0
M  V30 4262 O 406.289 2.71173 -0.133154 0
M  V30 4263 C 404.745 2.38051 -2.69925 0
M  V30 4264 C 404.353 1.8093 -4.0984 0
M  V30 4265 C 406.097 3.14604 -2.84999 0
M  V30 4266 C 404.004 2.85468 -5.1794 0
M  V30 4267 H 402.934 0.493614 -0.569966 0
M  V30 4268 H 405.585 0.594155 -1.73615 0
M  V30 4269 H 403.967 3.12822 -2.42814 0
M  V30 4270 H 405.141 1.12544 -4.46845 0
M  V30 4271 H 403.456 1.16967 -3.99634 0
M  V30 4272 H 406.053 3.92666 -3.62929 0
M  V30 4273 H 406.396 3.68665 -1.93369 0
M  V30 4274 H 406.929 2.46945 -3.1187 0
M  V30 4275 H 403.668 2.36264 -6.1144 0
M  V30 4276 H 403.188 3.52269 -4.85455 0
M  V30 4277 H 404.867 3.48996 -5.44803 0
M  V30 4278 N 404.999 1.35443 0.805782 0
M  V30 4279 C 405.962 1.28301 1.89925 0
M  V30 4280 C 406.962 0.194285 1.59622 0
M  V30 4281 O 408.152 0.448036 1.6834 0
M  V30 4282 C 405.284 0.984997 3.2636 0
M  V30 4283 H 406.477 2.2553 1.97677 0
M  V30 4284 H 404.03 1.19979 1.00173 0
M  V30 4285 H 404.765 0.016603 3.24296 0
M  V30 4286 H 404.55 1.77269 3.4974 0
M  V30 4287 H 406.04 0.960651 4.064 0
M  V30 4288 N 406.477 -1.02803 1.19454 0
M  V30 4289 C 407.387 -2.14575 0.948408 0
M  V30 4290 C 408.403 -1.73757 -0.091871 0
M  V30 4291 O 409.579 -2.01185 0.0929654 0
M  V30 4292 C 406.644 -3.43202 0.491265 0
M  V30 4293 C 405.705 -3.98328 1.60103 0
M  V30 4294 C 404.938 -5.20816 1.16561 0
M  V30 4295 O 405.161 -5.70392 0.0295238 0
M  V30 4296 O 404.095 -5.68801 1.96849 0
M  V30 4297 H 407.921 -2.38202 1.88397 0
M  V30 4298 H 405.506 -1.12989 0.977433 0
M  V30 4299 H 407.388 -4.20687 0.245015 0
M  V30 4300 H 406.063 -3.21018 -0.415851 0
M  V30 4301 H 404.97 -3.22174 1.90144 0
M  V30 4302 H 406.303 -4.24879 2.48473 0
M  V30 4303 N 407.956 -0.998596 -1.21925 0
M  V30 4304 C 409.233 -0.593401 -1.86382 0
M  V30 4305 C 409.613 0.92916 -1.89552 0
M  V30 4306 O 408.961 1.81347 -1.39017 0
M  V30 4307 C 409.171 -1.22039 -3.26967 0
M  V30 4308 C 410.519 -1.32449 -4.03413 0
M  V30 4309 O 411.543 -1.17522 -3.36254 0
M  V30 4310 O 410.402 -1.56395 -5.23644 0
M  V30 4311 H 407.496 -0.202385 -0.801854 0
M  V30 4312 H 410.042 -1.09484 -1.29659 0
M  V30 4313 H 408.814 -2.26158 -3.19325 0
M  V30 4314 H 408.437 -0.704906 -3.91301 0
M  V30 4315 N 409.434 1.37368 -0.772513 0
M  V30 4316 C 410.68 1.99969 -0.337681 0
M  V30 4317 C 411.013 1.61184 1.08321 0
M  V30 4318 O 410.288 0.858395 1.74533 0
M  V30 4319 C 410.571 3.56858 -0.482121 0
M  V30 4320 C 410.424 4.0555 -1.94549 0
M  V30 4321 C 411.743 4.39955 0.113143 0
M  V30 4322 H 408.862 0.726464 -0.124171 0
M  V30 4323 H 411.504 1.63034 -0.975699 0
M  V30 4324 H 409.654 3.88452 0.0610361 0
M  V30 4325 H 411.326 3.84518 -2.54841 0
M  V30 4326 H 409.569 3.57715 -2.45403 0
M  V30 4327 H 410.24 5.14587 -1.9976 0
M  V30 4328 H 412.716 4.14623 -0.35031 0
M  V30 4329 H 411.592 5.48897 -0.0180514 0
M  V30 4330 H 411.853 4.25403 1.20354 0
M  V30 4331 N 410.912 0.523116 1.48665 0
M  V30 4332 C 412.189 -0.0775449 1.95446 0
M  V30 4333 C 412.569 -1.5197 1.4652 0
M  V30 4334 O 411.917 -2.17876 0.688657 0
M  V30 4335 C 412.127 0.0326135 3.48985 0
M  V30 4336 C 413.475 -0.130141 4.24401 0
M  V30 4337 O 414.499 -0.0415142 3.56176 0
M  V30 4338 O 413.358 -0.31491 5.45592 0
M  V30 4339 H 410.452 -0.0831012 0.822814 0
M  V30 4340 H 412.998 0.587227 1.59216 0
M  V30 4341 H 411.77 1.03748 3.77296 0
M  V30 4342 H 411.393 -0.671317 3.91892 0
M  V30 4343 N 412.39 -1.55475 0.257931 0
M  V30 4344 C 413.638 -1.98813 -0.363009 0
M  V30 4345 C 413.959 -1.14757 -1.57657 0
M  V30 4346 O 413.229 -0.232956 -1.9451 0
M  V30 4347 H 411.809 -0.734308 -0.137113 0
M  V30 4348 H 414.471 -1.9156 0.359281 0
M  V30 4349 H 413.567 -3.04941 -0.664634 0
M  V30 4350 N 413.868 0.0150385 -1.57593 0
M  V30 4351 C 414.778 1.02791 -2.10882 0
M  V30 4352 C 415.794 1.38702 -1.0506 0
M  V30 4353 O 416.97 1.47739 -1.36877 0
M  V30 4354 C 414.035 2.30568 -2.58919 0
M  V30 4355 C 413.096 2.01108 -3.79281 0
M  V30 4356 C 412.329 3.22794 -4.25018 0
M  V30 4357 O 412.552 4.33959 -3.70183 0
M  V30 4358 O 411.486 3.07672 -5.17322 0
M  V30 4359 H 415.312 0.604973 -2.97613 0
M  V30 4360 H 412.897 0.23292 -1.47573 0
M  V30 4361 H 414.779 3.05662 -2.90084 0
M  V30 4362 H 413.454 2.72129 -1.75293 0
M  V30 4363 H 412.361 1.23537 -3.53114 0
M  V30 4364 H 413.694 1.64394 -4.63935 0
M  V30 4365 N 415.346 1.54954 0.287554 0
M  V30 4366 C 416.309 1.86076 1.33823 0
M  V30 4367 C 417.309 0.734414 1.43049 0
M  V30 4368 O 418.499 1.00266 1.42452 0
M  V30 4369 C 415.631 2.05305 2.72144 0
M  V30 4370 H 416.824 2.79984 1.07465 0
M  V30 4371 H 414.377 1.47223 0.524902 0
M  V30 4372 H 415.112 1.1373 3.03704 0
M  V30 4373 H 414.897 2.873 2.66836 0
M  V30 4374 H 416.387 2.30706 3.48087 0
M  V30 4375 N 416.824 -0.551391 1.4764 0
M  V30 4376 C 417.754 -1.66757 1.63445 0
M  V30 4377 C 418.735 -1.63077 0.483742 0
M  V30 4378 O 419.92 -1.80607 0.71377 0
M  V30 4379 C 417.05 -3.05387 1.65396 0
M  V30 4380 C 416.004 -3.23918 2.79752 0
M  V30 4381 C 415.33 -4.63393 2.66779 0
M  V30 4382 C 416.63 -3.08735 4.21284 0
M  V30 4383 H 418.324 -1.53786 2.56886 0
M  V30 4384 H 415.87 -0.738415 1.23626 0
M  V30 4385 H 417.823 -3.83325 1.75043 0
M  V30 4386 H 416.547 -3.19332 0.685195 0
M  V30 4387 H 415.206 -2.48391 2.69625 0
M  V30 4388 H 414.854 -4.74144 1.67918 0
M  V30 4389 H 414.554 -4.7674 3.43501 0
M  V30 4390 H 416.078 -5.43458 2.78364 0
M  V30 4391 H 417.492 -3.76484 4.32357 0
M  V30 4392 H 415.889 -3.33588 4.98838 0
M  V30 4393 H 416.959 -2.0541 4.39243 0
M  V30 4394 N 418.302 -1.35869 -0.798587 0
M  V30 4395 C 419.527 -1.32883 -1.59238 0
M  V30 4396 C 419.952 0.0894587 -1.87887 0
M  V30 4397 O 419.31 1.05869 -1.47178 0
M  V30 4398 C 419.358 -2.14892 -2.89575 0
M  V30 4399 O 418.462 -1.53512 -3.82763 0
M  V30 4400 H 417.803 -0.455236 -0.48338 0
M  V30 4401 H 420.333 -1.79024 -0.990539 0
M  V30 4402 H 420.343 -2.27139 -3.38928 0
M  V30 4403 H 419.018 -3.17998 -2.68049 0
M  V30 4404 H 417.595 -1.50153 -3.41334 0
M  V30 4405 N 419.78 1.02168 -1.19998 0
M  V30 4406 C 421.008 1.79296 -1.03249 0
M  V30 4407 C 421.423 1.84103 0.418502 0
M  V30 4408 O 420.78 1.29031 1.29063 0
M  V30 4409 C 420.831 3.24007 -1.60319 0
M  V30 4410 O 420.552 3.19512 -2.99739 0
M  V30 4411 C 422.053 4.17704 -1.48453 0
M  V30 4412 H 419.273 0.564016 -0.363493 0
M  V30 4413 H 421.817 1.28639 -1.58973 0
M  V30 4414 H 419.972 3.7183 -1.08727 0
M  V30 4415 H 420.386 4.10306 -3.26725 0
M  V30 4416 H 421.86 5.17104 -1.93153 0
M  V30 4417 H 422.337 4.37029 -0.436193 0
M  V30 4418 H 422.943 3.7576 -1.99211 0
M  V30 4419 N 421.258 1.00505 1.21394 0
M  V30 4420 C 422.188 0.585684 2.26035 0
M  V30 4421 C 423.169 -0.393525 1.65485 0
M  V30 4422 O 424.354 -0.281497 1.92149 0
M  V30 4423 C 421.484 -0.0884283 3.47187 0
M  V30 4424 C 420.438 0.810567 4.20254 0
M  V30 4425 C 419.764 0.00286382 5.347 0
M  V30 4426 C 421.064 2.1132 4.77641 0
M  V30 4427 H 422.758 1.46039 2.61368 0
M  V30 4428 H 420.304 0.703648 1.25638 0
M  V30 4429 H 422.257 -0.393286 4.19561 0
M  V30 4430 H 420.981 -0.997766 3.10986 0
M  V30 4431 H 419.64 1.09925 3.49731 0
M  V30 4432 H 419.288 -0.907765 4.94741 0
M  V30 4433 H 418.988 0.601444 5.84514 0
M  V30 4434 H 420.512 -0.295808 6.09883 0
M  V30 4435 H 421.926 1.87148 5.41893 0
M  V30 4436 H 420.323 2.66164 5.37845 0
M  V30 4437 H 421.393 2.78393 3.9702 0
M  V30 4438 N 422.737 -1.36956 0.779787 0
M  V30 4439 C 423.983 -1.99787 0.348281 0
M  V30 4440 C 424.316 -1.61756 -1.07465 0
M  V30 4441 O 423.591 -0.867639 -1.74075 0
M  V30 4442 C 423.874 -3.56597 0.50104 0
M  V30 4443 C 423.727 -4.04513 1.96697 0
M  V30 4444 C 425.046 -4.40008 -0.0898097 0
M  V30 4445 H 422.165 -0.725796 0.128022 0
M  V30 4446 H 424.807 -1.62514 0.984331 0
M  V30 4447 H 422.957 -3.88479 -0.0404347 0
M  V30 4448 H 424.629 -3.83161 2.56876 0
M  V30 4449 H 422.872 -3.56408 2.47297 0
M  V30 4450 H 423.543 -5.1352 2.02486 0
M  V30 4451 H 426.019 -4.14431 0.372293 0
M  V30 4452 H 424.895 -5.4888 0.0471605 0
M  V30 4453 H 425.156 -4.26035 -1.18096 0
M  V30 4454 N 424.215 -0.530993 -1.48385 0
M  V30 4455 C 425.145 0.219985 -2.32461 0
M  V30 4456 C 426.126 0.934111 -1.42156 0
M  V30 4457 O 427.311 0.919694 -1.71042 0
M  V30 4458 C 424.441 1.26674 -3.23375 0
M  V30 4459 C 423.395 0.67069 -4.22712 0
M  V30 4460 C 422.721 1.82017 -5.02766 0
M  V30 4461 C 424.021 -0.358268 -5.2107 0
M  V30 4462 H 425.715 -0.48187 -2.95497 0
M  V30 4463 H 423.261 -0.233182 -1.42099 0
M  V30 4464 H 425.214 1.80006 -3.81019 0
M  V30 4465 H 423.938 1.99818 -2.58341 0
M  V30 4466 H 422.597 0.158878 -3.66256 0
M  V30 4467 H 422.245 2.54002 -4.34157 0
M  V30 4468 H 421.945 1.42727 -5.70003 0
M  V30 4469 H 423.469 2.35725 -5.63264 0
M  V30 4470 H 424.883 0.0880081 -5.73232 0
M  V30 4471 H 423.28 -0.66861 -5.96364 0
M  V30 4472 H 424.35 -1.26367 -4.68145 0
M  V30 4473 N 425.693 1.55336 -0.266172 0
M  V30 4474 C 426.641 2.23587 0.641228 0
M  V30 4475 C 427.635 1.22986 1.16494 0
M  V30 4476 O 428.841 1.40943 1.1196 0
M  V30 4477 H 425.216 0.717452 0.225315 0
M  V30 4478 H 427.187 2.9837 0.0426561 0
M  V30 4479 C 425.936 2.96369 1.81826 0
M  V30 4480 H 425.259 3.73563 1.42445 0
M  V30 4481 H 426.699 3.47459 2.42998 0
M  V30 4482 C 425.158 2.0133 2.70125 0
M  V30 4483 O 425.688 1.55875 3.70224 0
M  V30 4484 N 423.894 1.6802 2.37102 0
M  V30 4485 H 423.441 2.05181 1.55751 0
M  V30 4486 H 423.399 1.047 2.96454 0
M  V30 4487 N 427.171 -0.0066808 1.57599 0
M  V30 4488 C 428.587 -0.36267 1.55425 0
M  V30 4489 C 428.787 -1.75209 0.995187 0
M  V30 4490 O 427.843 -2.44616 0.626058 0
M  V30 4491 C 429.156 -0.244017 2.99708 0
M  V30 4492 C 430.704 -0.319451 3.11366 0
M  V30 4493 C 431.179 -0.229998 4.57422 0
M  V30 4494 N 432.67 -0.288105 4.62303 0
M  V30 4495 C 433.405 -0.242127 5.72889 0
M  V30 4496 N 432.901 -0.147133 6.92644 0
M  V30 4497 N 434.694 -0.293502 5.61333 0
M  V30 4498 H 426.845 0.902314 1.92281 0
M  V30 4499 H 429.108 0.34525 0.882896 0
M  V30 4500 H 428.814 0.711678 3.44424 0
M  V30 4501 H 428.688 -1.02877 3.629 0
M  V30 4502 H 431.075 -1.26559 2.66584 0
M  V30 4503 H 431.156 0.495055 2.50964 0
M  V30 4504 H 430.8 0.712566 5.02877 0
M  V30 4505 H 430.73 -1.0629 5.15761 0
M  V30 4506 H 433.221 -0.363126 3.76151 0
M  V30 4507 H 433.534 -0.117763 7.7271 0
M  V30 4508 H 431.879 -0.112857 6.94908 0
M  V30 4509 H 435.07 -0.365864 4.66668 0
M  V30 4510 H 435.243 -0.254204 6.47501 0
M  V30 4511 N 428.649 -1.55105 -0.279332 0
M  V30 4512 C 429.579 -1.90557 -1.34945 0
M  V30 4513 C 430.56 -0.766738 -1.51839 0
M  V30 4514 O 431.745 -1.02434 -1.64988 0
M  V30 4515 C 428.875 -2.17193 -2.71006 0
M  V30 4516 C 427.829 -3.33021 -2.68851 0
M  V30 4517 C 427.155 -3.45123 -4.08405 0
M  V30 4518 C 428.455 -4.69578 -2.28678 0
M  V30 4519 H 430.149 -2.80188 -1.05522 0
M  V30 4520 H 427.695 -1.34811 -0.506173 0
M  V30 4521 H 429.648 -2.40581 -3.45975 0
M  V30 4522 H 428.372 -1.24355 -3.01999 0
M  V30 4523 H 427.031 -3.0959 -1.9634 0
M  V30 4524 H 426.679 -2.49762 -4.3661 0
M  V30 4525 H 426.379 -4.22995 -4.07859 0
M  V30 4526 H 427.903 -3.70796 -4.85121 0
M  V30 4527 H 429.317 -4.92553 -2.93368 0
M  V30 4528 H 427.714 -5.5032 -2.39306 0
M  V30 4529 H 428.784 -4.68828 -1.23807 0
M  V30 4530 N 430.127 0.543554 -1.4793 0
M  V30 4531 C 431.074 1.64942 -1.6144 0
M  V30 4532 C 432.044 1.59692 -0.456903 0
M  V30 4533 O 433.229 1.78321 -0.678688 0
M  V30 4534 C 430.369 3.03238 -1.64744 0
M  V30 4535 C 429.482 3.18823 -2.91506 0
M  V30 4536 C 428.617 4.47599 -2.86057 0
M  V30 4537 C 427.656 4.56664 -4.07584 0
M  V30 4538 N 426.793 5.76811 -4.00292 0
M  V30 4539 H 431.633 1.52733 -2.55884 0
M  V30 4540 H 429.17 0.7438 -1.2691 0
M  V30 4541 H 431.128 3.83339 -1.64641 0
M  V30 4542 H 429.758 3.1425 -0.738017 0
M  V30 4543 H 428.81 2.32064 -3.01414 0
M  V30 4544 H 430.122 3.21384 -3.81463 0
M  V30 4545 H 429.276 5.35975 -2.84281 0
M  V30 4546 H 428.015 4.47538 -1.93807 0
M  V30 4547 H 427.02 3.66697 -4.09651 0
M  V30 4548 H 428.245 4.58474 -5.00978 0
M  V30 4549 H 426.191 5.77673 -3.10853 0
M  V30 4550 H 426.108 5.80808 -4.8394 0
M  V30 4551 H 427.376 6.67512 -4.02553 0
M  V30 4552 N 431.605 1.3629 0.791371 0
M  V30 4553 C 432.851 1.30605 1.55146 0
M  V30 4554 C 433.184 -0.115042 1.93859 0
M  V30 4555 O 432.459 -1.06798 1.62556 0
M  V30 4556 C 432.742 2.22692 2.82985 0
M  V30 4557 C 432.595 3.73489 2.50651 0
M  V30 4558 C 433.914 2.13588 3.84796 0
M  V30 4559 H 431.033 0.475761 0.562868 0
M  V30 4560 H 433.675 1.66825 0.909358 0
M  V30 4561 H 431.825 1.91933 3.37778 0
M  V30 4562 H 433.497 4.14758 2.01924 0
M  V30 4563 H 431.74 3.93021 1.83622 0
M  V30 4564 H 432.411 4.3333 3.41949 0
M  V30 4565 H 434.887 2.40659 3.39445 0
M  V30 4566 H 433.763 2.80195 4.71998 0
M  V30 4567 H 434.024 1.12256 4.27611 0
M  V30 4568 N 433.083 -1.0153 1.20538 0
M  V30 4569 C 434.331 -1.74803 1.01432 0
M  V30 4570 C 434.652 -1.8963 -0.454456 0
M  V30 4571 O 433.922 -1.43975 -1.32846 0
M  V30 4572 H 432.502 -0.647598 0.372324 0
M  V30 4573 H 435.164 -1.22402 1.5167 0
M  V30 4574 H 434.26 -2.75114 1.47373 0
M  V30 4575 N 434.561 -1.01147 -1.20859 0
M  V30 4576 C 435.491 -0.597663 -2.25722 0
M  V30 4577 C 436.472 0.384744 -1.65692 0
M  V30 4578 O 437.657 0.271303 -1.92296 0
M  V30 4579 C 434.787 0.0700149 -3.47229 0
M  V30 4580 C 433.741 -0.832843 -4.19819 0
M  V30 4581 C 433.067 -0.0312202 -5.34691 0
M  V30 4582 C 434.367 -2.1385 -4.76514 0
M  V30 4583 H 436.061 -1.47423 -2.60589 0
M  V30 4584 H 433.607 -0.710301 -1.25263 0
M  V30 4585 H 435.56 0.37103 -4.19763 0
M  V30 4586 H 434.284 0.981259 -3.11511 0
M  V30 4587 H 432.943 -1.11778 -3.49144 0
M  V30 4588 H 432.591 0.881515 -4.95215 0
M  V30 4589 H 432.291 -0.632434 -5.84187 0
M  V30 4590 H 433.815 0.26346 -6.10031 0
M  V30 4591 H 435.229 -1.9002 -5.40893 0
M  V30 4592 H 433.626 -2.69012 -5.36426 0
M  V30 4593 H 434.696 -2.80495 -3.95538 0
M  V30 4594 N 436.039 1.36541 -0.78704 0
M  V30 4595 C 436.971 2.28761 -0.141773 0
M  V30 4596 C 437.984 1.49365 0.647599 0
M  V30 4597 O 439.173 1.71836 0.483173 0
M  V30 4598 C 436.273 3.28771 0.822368 0
M  V30 4599 C 435.446 4.3732 0.0835594 0
M  V30 4600 C 434.505 5.17307 0.963296 0
M  V30 4601 O 433.531 5.67638 0.421419 0
M  V30 4602 N 434.733 5.33515 2.28784 0
M  V30 4603 H 437.498 2.84777 -0.933919 0
M  V30 4604 H 435.059 1.48682 -0.640735 0
M  V30 4605 H 437.051 3.79169 1.41468 0
M  V30 4606 H 435.621 2.73412 1.5154 0
M  V30 4607 H 434.841 3.88118 -0.689809 0
M  V30 4608 H 436.129 5.0701 -0.426358 0
M  V30 4609 H 435.527 4.94234 2.75226 0
M  V30 4610 H 434.084 5.87165 2.82985 0
M  V30 4611 N 437.518 0.538854 1.48102 0
M  V30 4612 C 438.764 0.00801365 2.02798 0
M  V30 4613 C 439.097 -1.3309 1.41424 0
M  V30 4614 O 438.372 -1.86169 0.563158 0
M  V30 4615 C 438.655 -0.104589 3.59948 0
M  V30 4616 C 438.508 1.26012 4.31788 0
M  V30 4617 C 439.827 -0.827055 4.32259 0
M  V30 4618 H 436.946 0.00438624 0.736987 0
M  V30 4619 H 439.588 0.6976 1.7673 0
M  V30 4620 H 437.738 -0.691893 3.82289 0
M  V30 4621 H 439.41 1.88922 4.2084 0
M  V30 4622 H 437.653 1.83968 3.92859 0
M  V30 4623 H 438.324 1.13424 5.40221 0
M  V30 4624 H 440.8 -0.328578 4.14801 0
M  V30 4625 H 439.676 -0.87476 5.41885 0
M  V30 4626 H 439.937 -1.87927 4.0017 0
M  V30 4627 N 438.996 -1.55193 0.274407 0
M  V30 4628 C 440.242 -1.99877 -0.343086 0
M  V30 4629 C 440.575 -1.16256 -1.55558 0
M  V30 4630 O 439.85 -0.232462 -1.93106 0
M  V30 4631 C 440.133 -3.52706 -0.725965 0
M  V30 4632 C 439.986 -4.47081 0.493818 0
M  V30 4633 C 441.305 -4.11422 -1.56268 0
M  V30 4634 H 438.424 -0.726625 -0.123229 0
M  V30 4635 H 441.066 -1.86136 0.38121 0
M  V30 4636 H 439.216 -3.64546 -1.34307 0
M  V30 4637 H 440.888 -4.47186 1.13237 0
M  V30 4638 H 439.131 -4.1877 1.13201 0
M  V30 4639 H 439.802 -5.51699 0.18217 0
M  V30 4640 H 442.278 -4.02855 -1.04151 0
M  V30 4641 H 441.154 -5.18568 -1.79939 0
M  V30 4642 H 441.415 -3.61607 -2.54348 0
M  V30 4643 N 440.474 -0.00167713 -1.576 0
M  V30 4644 C 441.437 0.974046 -2.07473 0
M  V30 4645 C 442.437 1.27143 -0.984444 0
M  V30 4646 O 443.627 1.21633 -1.24703 0
M  V30 4647 C 440.759 2.29849 -2.51759 0
M  V30 4648 H 441.952 0.54262 -2.9495 0
M  V30 4649 H 439.505 0.245829 -1.54355 0
M  V30 4650 H 440.24 2.77677 -1.67529 0
M  V30 4651 H 440.025 2.09584 -3.31386 0
M  V30 4652 H 441.515 2.9984 -2.90664 0
M  V30 4653 N 441.952 1.55251 0.271103 0
M  V30 4654 C 443.198 1.76207 1.00394 0
M  V30 4655 C 443.531 0.562604 1.85872 0
M  V30 4656 O 442.806 -0.439785 1.89463 0
M  V30 4657 C 443.089 3.06828 1.8849 0
M  V30 4658 C 442.942 4.37134 1.05992 0
M  V30 4659 C 444.261 3.33503 2.87165 0
M  V30 4660 H 441.38 0.641086 0.363562 0
M  V30 4661 H 444.022 1.87982 0.276189 0
M  V30 4662 H 442.172 2.96921 2.5054 0
M  V30 4663 H 443.844 4.59001 0.459978 0
M  V30 4664 H 442.087 4.32275 0.363443 0
M  V30 4665 H 442.758 5.2486 1.70955 0
M  V30 4666 H 445.234 3.43215 2.3525 0
M  V30 4667 H 444.11 4.2616 3.45946 0
M  V30 4668 H 444.371 2.53235 3.62387 0
M  V30 4669 N 443.43 -0.535701 1.48216 0
M  V30 4670 C 444.377 -1.64083 1.62312 0
M  V30 4671 C 445.347 -1.59448 0.465365 0
M  V30 4672 O 446.532 -1.77959 0.688135 0
M  V30 4673 C 443.672 -3.0236 1.66349 0
M  V30 4674 C 442.785 -3.17273 2.93193 0
M  V30 4675 C 441.92 -4.46075 2.88427 0
M  V30 4676 C 440.959 -4.54496 4.1 0
M  V30 4677 N 440.096 -5.7468 4.03345 0
M  V30 4678 H 444.936 -1.51374 2.5669 0
M  V30 4679 H 442.473 -0.737059 1.27302 0
M  V30 4680 H 444.431 -3.82461 1.66672 0
M  V30 4681 H 443.061 -3.13854 0.754672 0
M  V30 4682 H 442.113 -2.30462 3.02641 0
M  V30 4683 H 443.425 -3.19357 3.83162 0
M  V30 4684 H 442.579 -5.3446 2.87119 0
M  V30 4685 H 441.318 -4.46504 1.96177 0
M  V30 4686 H 440.323 -3.64519 4.11589 0
M  V30 4687 H 441.548 -4.5581 5.03402 0
M  V30 4688 H 439.494 -5.76017 3.13912 0
M  V30 4689 H 439.411 -5.78234 4.87013 0
M  V30 4690 H 440.679 -6.65367 4.06087 0
M  V30 4691 N 444.908 -1.36708 -0.784132 0
M  V30 4692 C 445.871 -1.31307 -1.87859 0
M  V30 4693 C 446.871 -0.219654 -1.59293 0
M  V30 4694 O 448.061 -0.47476 -1.67606 0
M  V30 4695 C 445.193 -1.03679 -3.24751 0
M  V30 4696 H 446.386 -2.28647 -1.94064 0
M  V30 4697 H 443.939 -1.21558 -0.98252 0
M  V30 4698 H 444.674 -0.0681936 -3.24228 0
M  V30 4699 H 444.459 -1.82811 -3.46876 0
M  V30 4700 H 445.949 -1.02518 -4.04821 0
M  V30 4701 N 446.386 1.0089 -1.21074 0
M  V30 4702 C 447.797 1.56056 -1.02486 0
M  V30 4703 C 448.148 1.91728 0.416506 0
M  V30 4704 O 447.273 1.73066 1.29912 0
M  V30 4705 C 447.868 2.83563 -1.85411 0
M  V30 4706 C 446.427 3.3523 -1.71166 0
M  V30 4707 C 445.574 2.0846 -1.82865 0
M  V30 4708 H 448.525 0.831818 -1.35154 0
M  V30 4709 H 448.546 3.55286 -1.36205 0
M  V30 4710 H 448.058 2.57569 -2.9031 0
M  V30 4711 H 446.159 3.66167 -0.689361 0
M  V30 4712 H 446.272 4.06913 -2.52901 0
M  V30 4713 H 444.636 2.21275 -1.26132 0
M  V30 4714 H 445.419 1.84883 -2.89263 0
M  V30 4715 N 447.864 1.01787 1.20321 0
M  V30 4716 C 449.112 0.706538 1.89347 0
M  V30 4717 C 449.433 -0.766289 1.79313 0
M  V30 4718 O 448.703 -1.55126 1.19635 0
M  V30 4719 H 447.283 0.258348 0.700903 0
M  V30 4720 H 449.945 1.28974 1.46122 0
M  V30 4721 H 449.041 0.991066 2.95946 0
M  V30 4722 N 449.342 -1.36122 0.79427 0
M  V30 4723 C 450.589 -1.99111 0.368905 0
M  V30 4724 C 450.917 -1.63032 -1.0607 0
M  V30 4725 O 450.172 -0.879303 -1.74833 0
M  V30 4726 C 450.471 -3.5409 0.48527 0
M  V30 4727 C 450.137 -4.10003 1.87638 0
M  V30 4728 C 448.799 -4.24986 2.257 0
M  V30 4729 C 451.151 -4.40423 2.78706 0
M  V30 4730 C 448.479 -4.67701 3.54221 0
M  V30 4731 C 450.831 -4.84573 4.0666 0
M  V30 4732 C 449.495 -4.97761 4.44737 0
M  V30 4733 H 448.765 -0.7286 0.134992 0
M  V30 4734 H 451.412 -1.62534 1.01267 0
M  V30 4735 H 449.717 -3.91052 -0.241984 0
M  V30 4736 H 451.414 -4.00766 0.137109 0
M  V30 4737 H 448.004 -3.98784 1.57064 0
M  V30 4738 H 452.188 -4.28412 2.50553 0
M  V30 4739 H 447.444 -4.761 3.83587 0
M  V30 4740 H 451.618 -5.07074 4.77336 0
M  V30 4741 H 449.245 -5.30618 5.44379 0
M  V30 4742 N 450.82 -0.546701 -1.47814 0
M  V30 4743 C 452.068 -0.0187037 -2.02091 0
M  V30 4744 C 452.389 1.33168 -1.42447 0
M  V30 4745 O 451.659 1.86619 -0.595839 0
M  V30 4746 H 450.239 -0.00392531 -0.74699 0
M  V30 4747 H 452.901 -0.714327 -1.81338 0
M  V30 4748 H 451.997 0.0772219 -3.12004 0
M  V30 4749 N 452.299 1.55045 -0.282633 0
M  V30 4750 C 453.576 1.9179 0.384166 0
M  V30 4751 C 453.956 1.20778 1.73136 0
M  V30 4752 O 453.304 0.33719 2.25998 0
M  V30 4753 C 453.514 3.45149 0.517014 0
M  V30 4754 C 454.862 4.17064 0.796427 0
M  V30 4755 O 455.886 3.51084 0.601535 0
M  V30 4756 O 454.745 5.33837 1.16962 0
M  V30 4757 H 451.839 0.799483 0.211558 0
M  V30 4758 H 454.385 1.66474 -0.32934 0
M  V30 4759 H 453.157 3.88922 -0.430772 0
M  V30 4760 H 452.78 3.76443 1.2797 0
M  V30 4761 N 453.777 0.010035 1.57597 0
M  V30 4762 C 454.725 -0.996272 2.10184 0
M  V30 4763 C 455.719 -1.34942 1.02406 0
M  V30 4764 O 456.925 -1.33389 1.20861 0
M  V30 4765 H 453.3 -0.338982 0.671264 0
M  V30 4766 H 455.271 -0.527272 2.93705 0
M  V30 4767 C 454.02 -2.27599 2.62857 0
M  V30 4768 H 453.343 -2.01295 3.45428 0
M  V30 4769 H 454.783 -2.96265 3.0332 0
M  V30 4770 C 453.242 -2.99269 1.54725 0
M  V30 4771 O 453.772 -3.90644 0.93597 0
M  V30 4772 N 451.978 -2.61269 1.27228 0
M  V30 4773 H 451.525 -1.87043 1.77123 0
M  V30 4774 H 451.483 -3.09534 0.550999 0
M  V30 4775 N 455.255 -1.55392 -0.262866 0
M  V30 4776 C 456.671 -1.47459 -0.610582 0
M  V30 4777 C 456.871 -0.697031 -1.8906 0
M  V30 4778 O 455.927 -0.219952 -2.5154 0
M  V30 4779 C 457.24 -2.91751 -0.728131 0
M  V30 4780 C 458.788 -3.02027 -0.821517 0
M  V30 4781 C 459.263 -4.47594 -0.97076 0
M  V30 4782 N 460.754 -4.51465 -1.03603 0
M  V30 4783 C 461.489 -5.61326 -1.17049 0
M  V30 4784 N 460.985 -6.81032 -1.2715 0
M  V30 4785 N 462.778 -5.49089 -1.20239 0
M  V30 4786 H 454.929 -2.04395 0.577632 0
M  V30 4787 H 457.192 -0.927287 0.197086 0
M  V30 4788 H 456.898 -3.51413 0.142132 0
M  V30 4789 H 456.772 -3.4134 -1.6052 0
M  V30 4790 H 459.159 -2.42456 -1.68224 0
M  V30 4791 H 459.24 -2.55674 0.0803688 0
M  V30 4792 H 458.884 -5.07771 -0.114655 0
M  V30 4793 H 458.814 -4.91613 -1.88745 0
M  V30 4794 H 461.305 -3.6524 -0.96996 0
M  V30 4795 H 461.618 -7.60511 -1.37271 0
M  V30 4796 H 459.963 -6.83824 -1.24136 0
M  V30 4797 H 463.154 -4.54507 -1.11985 0
M  V30 4798 H 463.327 -6.34749 -1.30373 0
M  V30 4799 N 456.733 0.527833 -1.48498 0
M  V30 4800 C 457.68 1.6322 -1.6318 0
M  V30 4801 C 458.65 1.59199 -0.473815 0
M  V30 4802 O 459.835 1.77591 -0.697563 0
M  V30 4803 C 456.975 3.01474 -1.67951 0
M  V30 4804 C 456.088 3.15713 -2.94871 0
M  V30 4805 C 455.223 4.44539 -2.90789 0
M  V30 4806 C 454.262 4.52315 -4.12404 0
M  V30 4807 N 453.399 5.72533 -4.06387 0
M  V30 4808 H 458.239 1.50011 -2.57489 0
M  V30 4809 H 455.776 0.730298 -1.27691 0
M  V30 4810 H 457.734 3.81572 -1.68698 0
M  V30 4811 H 456.364 3.1345 -0.771306 0
M  V30 4812 H 455.416 2.28854 -3.03859 0
M  V30 4813 H 456.728 3.1732 -3.8485 0
M  V30 4814 H 455.882 5.3293 -2.89949 0
M  V30 4815 H 454.621 4.45457 -1.98542 0
M  V30 4816 H 453.626 3.62331 -4.13517 0
M  V30 4817 H 454.851 4.53134 -5.05812 0
M  V30 4818 H 452.797 5.74344 -3.16962 0
M  V30 4819 H 452.714 5.75643 -4.90073 0
M  V30 4820 H 453.982 6.63204 -4.0961 0
M  V30 4821 N 458.211 1.37122 0.776871 0
M  V30 4822 C 459.159 1.32549 1.91138 0
M  V30 4823 C 460.153 0.215119 1.68029 0
M  V30 4824 O 461.359 0.382852 1.75881 0
M  V30 4825 H 457.734 0.412952 0.62847 0
M  V30 4826 H 459.705 2.28332 1.92112 0
M  V30 4827 C 458.454 1.14422 3.28333 0
M  V30 4828 H 457.777 1.99115 3.46689 0
M  V30 4829 H 459.217 1.15272 4.0803 0
M  V30 4830 C 457.676 -0.150434 3.36564 0
M  V30 4831 O 458.206 -1.13584 3.85307 0
M  V30 4832 N 456.412 -0.19939 2.89915 0
M  V30 4833 H 455.959 0.603142 2.5044 0
M  V30 4834 H 455.917 -1.06526 2.95803 0
M  V30 4835 N 459.689 -1.00246 1.21608 0
M  V30 4836 C 460.621 -2.09244 0.935401 0
M  V30 4837 C 461.634 -1.62592 -0.0823594 0
M  V30 4838 O 462.823 -1.77865 0.150456 0
M  V30 4839 C 459.923 -3.36724 0.383453 0
M  V30 4840 C 459.096 -4.1245 1.45615 0
M  V30 4841 C 458.155 -5.18219 0.912991 0
M  V30 4842 O 457.181 -5.46337 1.59701 0
M  V30 4843 N 458.383 -5.7987 -0.270478 0
M  V30 4844 H 461.148 -2.33905 1.87373 0
M  V30 4845 H 458.709 -1.16748 1.12167 0
M  V30 4846 H 460.701 -4.047 0.00562157 0
M  V30 4847 H 459.271 -3.09201 -0.459758 0
M  V30 4848 H 458.491 -3.39241 2.00772 0
M  V30 4849 H 459.779 -4.59819 2.17817 0
M  V30 4850 H 459.177 -5.59381 -0.843195 0
M  V30 4851 H 457.734 -6.49126 -0.589794 0
M  V30 4852 N 461.167 -1.02423 -1.1978 0
M  V30 4853 C 462.097 -0.62157 -2.25075 0
M  V30 4854 C 463.078 0.367148 -1.6609 0
M  V30 4855 O 464.263 0.250892 -1.92573 0
M  V30 4856 C 461.393 0.0331826 -3.47284 0
M  V30 4857 C 460.347 -0.877323 -4.18912 0
M  V30 4858 C 459.673 -0.0879296 -5.34628 0
M  V30 4859 C 460.973 -2.18892 -4.74219 0
M  V30 4860 H 462.667 -1.50179 -2.59011 0
M  V30 4861 H 460.213 -0.723547 -1.24502 0
M  V30 4862 H 462.166 0.326488 -4.20133 0
M  V30 4863 H 460.89 0.948164 -3.12534 0
M  V30 4864 H 459.549 -1.15475 -3.47938 0
M  V30 4865 H 459.197 0.828941 -4.96123 0
M  V30 4866 H 458.897 -0.694359 -5.83483 0
M  V30 4867 H 460.421 0.198743 -6.10276 0
M  V30 4868 H 461.835 -1.95746 -5.38847 0
M  V30 4869 H 460.232 -2.74686 -5.33542 0
M  V30 4870 H 461.302 -2.84674 -3.92541 0
M  V30 4871 N 462.645 1.35699 -0.801477 0
M  V30 4872 C 463.592 2.29876 -0.206294 0
M  V30 4873 C 464.562 1.52565 0.656752 0
M  V30 4874 O 465.747 1.81024 0.602906 0
M  V30 4875 C 462.887 3.39052 0.643272 0
M  V30 4876 C 462 4.31335 -0.239644 0
M  V30 4877 C 461.135 5.27599 0.61744 0
M  V30 4878 C 460.174 6.11521 -0.26619 0
M  V30 4879 N 459.311 6.99938 0.550571 0
M  V30 4880 H 464.151 2.80187 -1.01484 0
M  V30 4881 H 461.688 1.37902 -0.511997 0
M  V30 4882 H 463.646 4.0101 1.15094 0
M  V30 4883 H 462.276 2.9003 1.41713 0
M  V30 4884 H 461.328 3.70426 -0.865381 0
M  V30 4885 H 462.64 4.90243 -0.919985 0
M  V30 4886 H 461.794 5.94906 1.19045 0
M  V30 4887 H 460.533 4.69176 1.33137 0
M  V30 4888 H 459.538 5.43166 -0.851507 0
M  V30 4889 H 460.763 6.72022 -0.9779 0
M  V30 4890 H 458.709 6.44008 1.24856 0
M  V30 4891 H 458.626 7.55966 -0.071832 0
M  V30 4892 H 459.894 7.71599 1.10702 0
M  V30 4893 N 464.123 0.554532 1.47522 0
M  V30 4894 C 465.4 -0.0360704 1.95567 0
M  V30 4895 C 465.78 -1.48828 1.49711 0
M  V30 4896 O 465.128 -2.16366 0.734717 0
M  V30 4897 C 465.338 0.106631 3.48837 0
M  V30 4898 C 466.686 -0.0400899 4.24581 0
M  V30 4899 O 467.71 0.0340453 3.56184 0
M  V30 4900 O 466.569 -0.199111 5.46137 0
M  V30 4901 H 463.663 -0.0656294 0.824392 0
M  V30 4902 H 466.209 0.620867 1.57935 0
M  V30 4903 H 464.981 1.11727 3.7501 0
M  V30 4904 H 464.604 -0.58804 3.93227 0
M  V30 4905 N 465.601 -1.54893 0.290851 0
M  V30 4906 C 466.534 -2.19289 -0.631489 0
M  V30 4907 C 467.512 -1.15893 -1.14051 0
M  V30 4908 O 468.696 -1.4449 -1.21058 0
M  V30 4909 C 465.823 -2.82866 -1.86291 0
M  V30 4910 C 464.869 -3.997 -1.48801 0
M  V30 4911 S 465.702 -5.32641 -0.552644 0
M  V30 4912 C 466.858 -5.99696 -1.79209 0
M  V30 4913 H 467.091 -2.9718 -0.0843791 0
M  V30 4914 H 464.624 -1.54218 0.075031 0
M  V30 4915 H 466.582 -3.20124 -2.56964 0
M  V30 4916 H 465.243 -2.04839 -2.38117 0
M  V30 4917 H 464.436 -4.42932 -2.40473 0
M  V30 4918 H 464.038 -3.63947 -0.861321 0
M  V30 4919 H 466.33 -6.19886 -2.734 0
M  V30 4920 H 467.273 -6.94071 -1.40251 0
M  V30 4921 H 467.681 -5.29226 -1.96419 0
M  V30 4922 N 467.08 -0.0183926 -1.57589 0
M  V30 4923 C 468.043 0.951986 -2.08494 0
M  V30 4924 C 469.043 1.26092 -0.997874 0
M  V30 4925 O 470.233 1.20304 -1.25987 0
M  V30 4926 C 467.365 2.27165 -2.54182 0
M  V30 4927 H 468.558 0.511307 -2.95509 0
M  V30 4928 H 466.111 0.229444 -1.54607 0
M  V30 4929 H 466.846 2.75884 -1.70465 0
M  V30 4930 H 466.631 2.06057 -3.33591 0
M  V30 4931 H 468.121 2.9674 -2.93828 0
M  V30 4932 N 468.558 1.5553 0.254621 0
M  V30 4933 C 469.807 1.76202 0.981612 0
M  V30 4934 C 470.12 0.580883 1.86776 0
M  V30 4935 O 471.326 0.670448 2.63092 0
M  V30 4936 C 469.782 3.11921 1.79537 0
M  V30 4937 C 469.39 4.37659 0.956991 0
M  V30 4938 C 471.134 3.41936 2.51555 0
M  V30 4939 C 469.041 5.64411 1.76619 0
M  V30 4940 H 467.971 0.656841 0.370237 0
M  V30 4941 H 470.622 1.81969 0.236556 0
M  V30 4942 H 469.004 3.00241 2.58208 0
M  V30 4943 H 470.178 4.60307 0.21315 0
M  V30 4944 H 468.493 4.14922 0.350497 0
M  V30 4945 H 471.09 4.33849 3.12536 0
M  V30 4946 H 471.433 2.62905 3.22779 0
M  V30 4947 H 471.966 3.54797 1.799 0
M  V30 4948 H 468.705 6.46241 1.09783 0
M  V30 4949 H 468.225 5.45877 2.48551 0
M  V30 4950 H 469.904 6.03386 2.33527 0
M  V30 4951 N 470.036 -0.519951 1.48776 0
M  V30 4952 C 470.999 -1.60574 1.6355 0
M  V30 4953 C 471.999 -1.52557 0.508234 0
M  V30 4954 O 473.189 -1.56047 0.774262 0
M  V30 4955 C 470.321 -3.00211 1.61512 0
M  V30 4956 H 471.514 -1.4881 2.60376 0
M  V30 4957 H 469.067 -0.742772 1.37523 0
M  V30 4958 H 469.802 -3.17471 0.662009 0
M  V30 4959 H 469.587 -3.07439 2.43359 0
M  V30 4960 H 471.077 -3.79134 1.75064 0
M  V30 4961 N 471.514 -1.37532 -0.769588 0
M  V30 4962 C 472.742 -1.36059 -1.55871 0
M  V30 4963 C 473.157 0.053544 -1.88724 0
M  V30 4964 O 472.514 1.01591 -1.5161 0
M  V30 4965 C 472.565 -2.20107 -2.86767 0
M  V30 4966 O 472.286 -3.56009 -2.55321 0
M  V30 4967 C 473.787 -2.26636 -3.80987 0
M  V30 4968 H 471.007 -0.465967 -0.482821 0
M  V30 4969 H 473.551 -1.80901 -0.953686 0
M  V30 4970 H 471.706 -1.78768 -3.43687 0
M  V30 4971 H 472.12 -4.0009 -3.39158 0
M  V30 4972 H 473.594 -2.89763 -4.69831 0
M  V30 4973 H 474.071 -1.2754 -4.20274 0
M  V30 4974 H 474.677 -2.68296 -3.29996 0
M  V30 4975 N 472.992 0.995999 -1.22138 0
M  V30 4976 C 474.24 1.73167 -1.042 0
M  V30 4977 C 474.561 1.90329 0.42423 0
M  V30 4978 O 473.831 1.4607 1.30539 0
M  V30 4979 H 472.411 0.641593 -0.38258 0
M  V30 4980 H 475.073 1.19974 -1.53598 0
M  V30 4981 H 474.169 2.72734 -1.51731 0
M  V30 4982 N 474.47 1.03057 1.19235 0
M  V30 4983 C 475.718 0.726581 1.88587 0
M  V30 4984 C 476.039 -0.747227 1.80115 0
M  V30 4985 O 475.309 -1.53849 1.21274 0
M  V30 4986 H 473.889 0.265768 0.698124 0
M  V30 4987 H 476.551 1.30516 1.44746 0
M  V30 4988 H 475.647 1.0224 2.94879 0
M  V30 4989 N 475.948 -1.35272 0.808662 0
M  V30 4990 C 476.911 -2.28082 0.226093 0
M  V30 4991 C 477.911 -1.49673 -0.587762 0
M  V30 4992 O 479.101 -1.69404 -0.405943 0
M  V30 4993 C 476.233 -3.33955 -0.684596 0
M  V30 4994 H 477.426 -2.81116 1.04469 0
M  V30 4995 H 474.979 -1.45162 0.579466 0
M  V30 4996 H 475.714 -2.86111 -1.5268 0
M  V30 4997 H 475.499 -3.91965 -0.102699 0
M  V30 4998 H 476.989 -4.03219 -1.08646 0
M  V30 4999 N 477.426 -0.562348 -1.47226 0
M  V30 5000 C 478.672 -0.0402761 -2.0276 0
M  V30 5001 C 479.005 1.30823 -1.43523 0
M  V30 5002 O 478.28 1.85249 -0.592705 0
M  V30 5003 C 478.563 0.047311 -3.60069 0
M  V30 5004 C 478.416 -1.32865 -4.29729 0
M  V30 5005 C 479.735 0.758182 -4.3352 0
M  V30 5006 H 476.854 -0.0161105 -0.736824 0
M  V30 5007 H 479.496 -0.725628 -1.75598 0
M  V30 5008 H 477.646 0.630986 -3.83342 0
M  V30 5009 H 479.318 -1.95593 -4.17781 0
M  V30 5010 H 477.561 -1.90195 -3.89882 0
M  V30 5011 H 478.232 -1.22004 -5.38349 0
M  V30 5012 H 480.708 0.262546 -4.15271 0
M  V30 5013 H 479.584 0.78844 -5.43208 0
M  V30 5014 H 479.845 1.81537 -4.03109 0
M  V30 5015 N 478.904 1.54736 -0.299062 0
M  V30 5016 C 480.151 2.00101 0.310784 0
M  V30 5017 C 480.479 1.18746 1.54045 0
M  V30 5018 O 479.734 0.251198 1.94081 0
M  V30 5019 C 480.033 3.50199 0.713835 0
M  V30 5020 C 479.699 4.48997 -0.413873 0
M  V30 5021 C 478.361 4.7573 -0.723462 0
M  V30 5022 C 480.713 5.07839 -1.17257 0
M  V30 5023 C 478.041 5.5857 -1.79491 0
M  V30 5024 C 480.393 5.91844 -2.23392 0
M  V30 5025 C 479.057 6.16889 -2.54959 0
M  V30 5026 H 478.327 0.732221 0.113724 0
M  V30 5027 H 480.974 1.86888 -0.417756 0
M  V30 5028 H 479.279 3.61012 1.52243 0
M  V30 5029 H 480.976 3.82723 1.19684 0
M  V30 5030 H 477.566 4.28292 -0.162476 0
M  V30 5031 H 481.75 4.87188 -0.946651 0
M  V30 5032 H 477.006 5.76213 -2.04423 0
M  V30 5033 H 481.18 6.36465 -2.8264 0
M  V30 5034 H 478.807 6.80869 -3.38114 0
M  V30 5035 N 480.382 0.0267497 1.57577 0
M  V30 5036 C 481.63 -0.651116 1.91324 0
M  V30 5037 C 481.951 -1.72804 0.90353 0
M  V30 5038 O 481.221 -1.95822 -0.0552946 0
M  V30 5039 H 479.801 -0.243491 0.706202 0
M  V30 5040 H 482.463 0.0739935 1.94759 0
M  V30 5041 H 481.559 -1.10536 2.9187 0
M  V30 5042 N 481.861 -1.55662 -0.24637 0
M  V30 5043 C 482.771 -1.93495 -1.32653 0
M  V30 5044 C 483.787 -0.835462 -1.5263 0
M  V30 5045 O 484.963 -1.1369 -1.66242 0
M  V30 5046 C 482.028 -2.22242 -2.66101 0
M  V30 5047 C 481.089 -3.45625 -2.54641 0
M  V30 5048 C 480.322 -3.72991 -3.81724 0
M  V30 5049 O 480.545 -3.02421 -4.8363 0
M  V30 5050 O 479.479 -4.66515 -3.80325 0
M  V30 5051 H 483.305 -2.85498 -1.03559 0
M  V30 5052 H 480.89 -1.42551 -0.44717 0
M  V30 5053 H 482.772 -2.42037 -3.44958 0
M  V30 5054 H 481.447 -1.33417 -2.94926 0
M  V30 5055 H 480.354 -3.31136 -1.74067 0
M  V30 5056 H 481.687 -4.34754 -2.3076 0
M  V30 5057 N 483.339 0.512053 -1.4905 0
M  V30 5058 C 484.249 1.64139 -1.67617 0
M  V30 5059 C 485.265 1.64786 -0.558701 0
M  V30 5060 O 486.441 1.8341 -0.832034 0
M  V30 5061 C 483.506 3.00548 -1.72835 0
M  V30 5062 C 482.567 3.10615 -2.96339 0
M  V30 5063 C 481.8 4.40517 -3.01298 0
M  V30 5064 O 482.023 5.28671 -2.14157 0
M  V30 5065 O 480.957 4.55325 -3.93653 0
M  V30 5066 H 484.783 1.51407 -2.63267 0
M  V30 5067 H 482.368 0.687131 -1.32661 0
M  V30 5068 H 484.25 3.81641 -1.78683 0
M  V30 5069 H 482.925 3.13566 -0.803616 0
M  V30 5070 H 481.832 2.2875 -2.96014 0
M  V30 5071 H 483.165 3.0252 -3.88256 0
M  V30 5072 N 484.817 1.37938 0.762283 0
M  V30 5073 C 486.065 1.33404 1.51815 0
M  V30 5074 C 486.386 -0.0780975 1.94844 0
M  V30 5075 O 485.656 -1.02405 1.67003 0
M  V30 5076 H 484.236 0.490839 0.563104 0
M  V30 5077 H 486.898 1.72527 0.906669 0
M  V30 5078 H 485.994 1.97926 2.41313 0
M  V30 5079 N 486.295 -0.989507 1.22664 0
M  V30 5080 C 487.225 -2.09847 1.02404 0
M  V30 5081 C 488.206 -1.70007 -0.0561303 0
M  V30 5082 O 489.391 -1.93906 0.106748 0
M  V30 5083 C 486.521 -3.41996 0.604663 0
M  V30 5084 C 485.475 -3.95699 1.63115 0
M  V30 5085 C 484.801 -5.23936 1.0675 0
M  V30 5086 C 486.101 -4.25999 3.02196 0
M  V30 5087 H 487.795 -2.27054 1.95158 0
M  V30 5088 H 485.341 -1.09111 0.939727 0
M  V30 5089 H 487.294 -4.1899 0.45002 0
M  V30 5090 H 486.018 -3.24626 -0.35855 0
M  V30 5091 H 484.677 -3.2084 1.77362 0
M  V30 5092 H 484.325 -5.02909 0.0955422 0
M  V30 5093 H 484.025 -5.60833 1.75328 0
M  V30 5094 H 485.549 -6.0356 0.924516 0
M  V30 5095 H 486.963 -4.93777 2.91303 0
M  V30 5096 H 485.36 -4.74076 3.67929 0
M  V30 5097 H 486.43 -3.33636 3.51873 0
M  V30 5098 N 487.773 -1.03688 -1.18687 0
M  V30 5099 C 489.001 -0.757918 -1.92518 0
M  V30 5100 C 489.416 0.684398 -1.75959 0
M  V30 5101 O 488.773 1.46617 -1.08673 0
M  V30 5102 C 488.824 -1.10985 -3.44042 0
M  V30 5103 O 488.545 -2.49554 -3.60076 0
M  V30 5104 C 490.046 -0.854844 -4.3498 0
M  V30 5105 H 487.266 -0.276699 -0.611293 0
M  V30 5106 H 489.81 -1.38352 -1.50595 0
M  V30 5107 H 487.965 -0.529279 -3.83767 0
M  V30 5108 H 488.379 -2.6291 -4.53849 0
M  V30 5109 H 489.853 -1.15098 -5.39867 0
M  V30 5110 H 490.33 0.210507 -4.38695 0
M  V30 5111 H 490.936 -1.41853 -4.00946 0
M  V30 5112 N 489.251 1.34841 -0.815825 0
M  V30 5113 C 490.181 2.32187 -0.247298 0
M  V30 5114 C 491.162 1.5791 0.632344 0
M  V30 5115 O 492.347 1.8593 0.560698 0
M  V30 5116 C 489.477 3.42122 0.597466 0
M  V30 5117 C 488.431 4.27602 -0.184446 0
M  V30 5118 C 487.757 5.28942 0.782609 0
M  V30 5119 C 489.057 5.03502 -1.38865 0
M  V30 5120 H 490.751 2.79985 -1.06061 0
M  V30 5121 H 488.297 1.34611 -0.511461 0
M  V30 5122 H 490.25 4.09232 1.00533 0
M  V30 5123 H 488.974 2.92956 1.44376 0
M  V30 5124 H 487.633 3.62085 -0.573592 0
M  V30 5125 H 487.281 4.7604 1.62466 0
M  V30 5126 H 486.981 5.87008 0.263695 0
M  V30 5127 H 488.505 5.98922 1.18848 0
M  V30 5128 H 489.919 5.63506 -1.05518 0
M  V30 5129 H 488.316 5.71108 -1.8427 0
M  V30 5130 H 489.386 4.33608 -2.17054 0
M  V30 5131 N 490.729 0.570148 1.46925 0
M  V30 5132 C 491.677 -0.183181 2.31878 0
M  V30 5133 C 492.671 -0.896721 1.43719 0
M  V30 5134 O 493.877 -0.816536 1.60414 0
M  V30 5135 H 490.252 -0.077944 0.74795 0
M  V30 5136 H 492.223 0.552312 2.93244 0
M  V30 5137 C 490.972 -1.19172 3.2664 0
M  V30 5138 H 490.295 -0.652088 3.94446 0
M  V30 5139 H 491.735 -1.68946 3.88887 0
M  V30 5140 C 490.194 -2.24627 2.51086 0
M  V30 5141 O 490.724 -3.31773 2.26472 0
M  V30 5142 N 488.93 -1.98898 2.11867 0
M  V30 5143 H 488.477 -1.11777 2.32086 0
M  V30 5144 H 488.435 -2.6967 1.61634 0
M  V30 5145 N 492.207 -1.54576 0.307264 0
M  V30 5146 C 493.137 -2.26708 -0.55907 0
M  V30 5147 C 494.118 -1.26893 -1.1328 0
M  V30 5148 O 495.303 -1.55677 -1.16097 0
M  V30 5149 C 492.433 -3.01259 -1.72801 0
M  V30 5150 C 491.387 -4.08275 -1.28435 0
M  V30 5151 C 490.713 -4.70575 -2.53895 0
M  V30 5152 C 492.013 -5.2068 -0.411038 0
M  V30 5153 H 493.707 -2.9937 0.042576 0
M  V30 5154 H 491.253 -1.43983 0.0219173 0
M  V30 5155 H 493.206 -3.50444 -2.34023 0
M  V30 5156 H 491.93 -2.26187 -2.356 0
M  V30 5157 H 490.589 -3.59949 -0.695161 0
M  V30 5158 H 490.237 -3.92136 -3.15021 0
M  V30 5159 H 489.937 -5.42854 -2.24908 0
M  V30 5160 H 491.461 -5.22527 -3.15908 0
M  V30 5161 H 492.875 -5.65721 -0.929097 0
M  V30 5162 H 491.272 -5.99716 -0.214664 0
M  V30 5163 H 492.342 -4.81629 0.562287 0
M  V30 5164 N 493.685 -0.035106 -1.57561 0
M  V30 5165 C 494.595 0.960295 -2.14046 0
M  V30 5166 C 495.611 1.3529 -1.0942 0
M  V30 5167 O 496.787 1.43309 -1.41508 0
M  V30 5168 C 493.852 2.22214 -2.66124 0
M  V30 5169 C 492.913 1.8894 -3.85487 0
M  V30 5170 C 492.146 3.09109 -4.35072 0
M  V30 5171 O 492.369 4.21963 -3.83802 0
M  V30 5172 O 491.303 2.91058 -5.26848 0
M  V30 5173 H 495.129 0.509983 -2.99387 0
M  V30 5174 H 492.714 0.185853 -1.48239 0
M  V30 5175 H 494.596 2.96279 -2.99661 0
M  V30 5176 H 493.271 2.66414 -1.83862 0
M  V30 5177 H 492.178 1.12241 -3.56865 0
M  V30 5178 H 493.511 1.49551 -4.6893 0
M  V30 5179 N 495.163 1.55791 0.238111 0
M  V30 5180 C 496.44 1.68798 0.98826 0
M  V30 5181 C 496.82 0.577562 2.03045 0
M  V30 5182 O 496.168 -0.41778 2.24648 0
M  V30 5183 C 496.378 3.09454 1.61367 0
M  V30 5184 C 497.726 3.68335 2.11221 0
M  V30 5185 O 498.75 3.1231 1.71292 0
M  V30 5186 O 497.609 4.6657 2.84561 0
M  V30 5187 H 494.703 0.686881 0.460568 0
M  V30 5188 H 497.249 1.68118 0.231202 0
M  V30 5189 H 496.021 3.81726 0.860295 0
M  V30 5190 H 495.644 3.14182 2.4367 0
M  V30 5191 N 496.642 -0.504142 1.49319 0
M  V30 5192 C 497.888 -1.26033 1.58882 0
M  V30 5193 C 498.221 -1.92268 0.273274 0
M  V30 5194 O 497.496 -1.80567 -0.72291 0
M  V30 5195 C 497.779 -2.32976 2.7458 0
M  V30 5196 C 497.632 -1.71263 4.1592 0
M  V30 5197 C 498.951 -3.34561 2.85932 0
M  V30 5198 H 496.07 -0.456863 0.578312 0
M  V30 5199 H 498.712 -0.558965 1.81592 0
M  V30 5200 H 496.862 -2.92796 2.55348 0
M  V30 5201 H 498.534 -1.15294 4.4666 0
M  V30 5202 H 496.777 -1.01686 4.21714 0
M  V30 5203 H 497.448 -2.48816 4.92742 0
M  V30 5204 H 499.924 -2.84727 3.0343 0
M  V30 5205 H 498.8 -4.06754 3.68568 0
M  V30 5206 H 499.061 -3.96695 1.95154 0
M  V30 5207 N 498.12 -1.38341 -0.754957 0
M  V30 5208 C 499.052 -1.31347 -1.87831 0
M  V30 5209 C 500.065 -0.225955 -1.61224 0
M  V30 5210 O 501.254 -0.48341 -1.7183 0
M  V30 5211 C 498.354 -1.01201 -3.23437 0
M  V30 5212 C 497.527 -2.20834 -3.77559 0
M  V30 5213 C 496.586 -1.87454 -4.91678 0
M  V30 5214 O 495.612 -2.59934 -5.06382 0
M  V30 5215 N 496.814 -0.828682 -5.74555 0
M  V30 5216 H 499.579 -2.28147 -1.94342 0
M  V30 5217 H 497.14 -1.32184 -0.934828 0
M  V30 5218 H 499.132 -0.769249 -3.97322 0
M  V30 5219 H 497.702 -0.132011 -3.12321 0
M  V30 5220 H 496.922 -2.61184 -2.95256 0
M  V30 5221 H 498.21 -3.00678 -4.10451 0
M  V30 5222 H 497.608 -0.227591 -5.65242 0
M  V30 5223 H 496.165 -0.645802 -6.48593 0
M  V30 5224 N 499.598 0.982988 -1.23187 0
M  V30 5225 C 501.009 1.53847 -1.05773 0
M  V30 5226 C 501.36 1.92568 0.375744 0
M  V30 5227 O 500.485 1.75783 1.26211 0
M  V30 5228 C 501.08 2.79567 -1.91384 0
M  V30 5229 C 499.639 3.31524 -1.78238 0
M  V30 5230 C 498.786 2.04534 -1.87246 0
M  V30 5231 H 501.737 0.802962 -1.36888 0
M  V30 5232 H 501.758 3.52317 -1.43711 0
M  V30 5233 H 501.27 2.51353 -2.95708 0
M  V30 5234 H 499.371 3.64623 -0.766875 0
M  V30 5235 H 499.484 4.01457 -2.61475 0
M  V30 5236 H 497.848 2.1855 -1.30797 0
M  V30 5237 H 498.631 1.78706 -2.9312 0
M  V30 5238 N 501.076 1.04316 1.18135 0
M  V30 5239 C 502.026 0.606731 2.19779 0
M  V30 5240 C 503.01 -0.352144 1.56999 0
M  V30 5241 O 504.202 -0.170795 1.76174 0
M  V30 5242 C 501.331 -0.0262443 3.4329 0
M  V30 5243 C 500.417 0.955928 4.13186 0
M  V30 5244 N 500.808 2.12395 4.59045 0
M  V30 5245 C 499.106 0.782473 4.39082 0
M  V30 5246 C 499.807 2.74458 5.12882 0
M  V30 5247 N 498.783 2.02316 5.04548 0
M  V30 5248 H 502.585 1.49679 2.5293 0
M  V30 5249 H 500.099 0.912088 1.34368 0
M  V30 5250 H 502.096 -0.356617 4.15372 0
M  V30 5251 H 500.756 -0.911811 3.11635 0
M  V30 5252 H 501.767 2.50272 4.53414 0
M  V30 5253 H 498.444 -0.0527906 4.17467 0
M  V30 5254 H 499.834 3.73459 5.5855 0
M  V30 5255 N 502.554 -1.34406 0.822964 0
M  V30 5256 C 503.831 -1.92733 0.333641 0
M  V30 5257 C 504.211 -1.75107 -1.17901 0
M  V30 5258 O 503.559 -1.12983 -1.98613 0
M  V30 5259 C 503.769 -3.40557 0.763023 0
M  V30 5260 C 505.117 -4.17709 0.761879 0
M  V30 5261 O 506.141 -3.49141 0.705606 0
M  V30 5262 O 505 -5.40082 0.835109 0
M  V30 5263 H 502.094 -0.821964 0.0911249 0
M  V30 5264 H 504.64 -1.4338 0.907757 0
M  V30 5265 H 503.412 -3.47187 1.8049 0
M  V30 5266 H 503.035 -3.97259 0.164605 0
M  V30 5267 N 504.032 -0.577932 -1.46621 0
M  V30 5268 C 504.962 0.145917 -2.33044 0
M  V30 5269 C 505.943 0.888412 -1.45056 0
M  V30 5270 O 507.128 0.864812 -1.73881 0
M  V30 5271 C 504.258 1.16322 -3.27241 0
M  V30 5272 C 503.212 0.535868 -4.24632 0
M  V30 5273 C 502.538 1.65929 -5.08303 0
M  V30 5274 C 503.838 -0.523861 -5.19666 0
M  V30 5275 H 505.532 -0.575636 -2.93814 0
M  V30 5276 H 503.078 -0.278272 -1.41286 0
M  V30 5277 H 505.031 1.67793 -3.86553 0
M  V30 5278 H 503.755 1.91498 -2.64567 0
M  V30 5279 H 502.414 0.0422759 -3.66576 0
M  V30 5280 H 502.062 2.40061 -4.42018 0
M  V30 5281 H 501.762 1.2452 -5.74255 0
M  V30 5282 H 503.286 2.17686 -5.70478 0
M  V30 5283 H 504.7 -0.0944059 -5.73222 0
M  V30 5284 H 503.097 -0.858 -5.93935 0
M  V30 5285 H 504.167 -1.41197 -4.63887 0
M  V30 5286 N 505.51 1.54411 -0.315457 0
M  V30 5287 C 506.758 2.00023 0.288971 0
M  V30 5288 C 507.079 1.20529 1.5329 0
M  V30 5289 O 506.349 0.304986 1.93511 0
M  V30 5290 H 504.929 0.738891 0.109766 0
M  V30 5291 H 507.591 1.90094 -0.430129 0
M  V30 5292 H 506.687 3.07198 0.550999 0
M  V30 5293 N 506.988 0.0434614 1.5754 0
M  V30 5294 C 507.935 -0.93356 2.11077 0
M  V30 5295 C 508.905 -1.31383 1.01626 0
M  V30 5296 O 510.09 -1.40465 1.29129 0
M  V30 5297 C 507.23 -2.20578 2.65404 0
M  V30 5298 C 506.343 -1.88068 3.88914 0
M  V30 5299 C 505.478 -3.09691 4.31584 0
M  V30 5300 C 504.517 -2.73067 5.47815 0
M  V30 5301 N 503.654 -3.87359 5.85574 0
M  V30 5302 H 508.494 -0.470118 2.94268 0
M  V30 5303 H 506.031 -0.220434 1.45439 0
M  V30 5304 H 507.989 -2.95011 2.94999 0
M  V30 5305 H 506.619 -2.64513 1.85021 0
M  V30 5306 H 505.671 -1.03816 3.6596 0
M  V30 5307 H 506.983 -1.57104 4.73413 0
M  V30 5308 H 506.137 -3.92431 4.62691 0
M  V30 5309 H 504.876 -3.43827 3.45882 0
M  V30 5310 H 503.881 -1.88742 5.16388 0
M  V30 5311 H 505.106 -2.40131 6.35227 0
M  V30 5312 H 503.052 -4.21311 5.02825 0
M  V30 5313 H 502.969 -3.60068 6.64746 0
M  V30 5314 H 504.237 -4.70761 6.21292 0
M  V30 5315 N 508.466 -1.55915 -0.229846 0
M  V30 5316 C 509.712 -1.78807 -0.956868 0
M  V30 5317 C 510.045 -0.611687 -1.84315 0
M  V30 5318 O 509.32 0.389398 -1.90562 0
M  V30 5319 C 509.603 -3.11718 -1.80288 0
M  V30 5320 C 509.456 -4.3979 -0.943649 0
M  V30 5321 C 510.775 -3.40999 -2.78222 0
M  V30 5322 H 507.894 -0.6505 -0.346437 0
M  V30 5323 H 510.536 -1.88648 -0.226252 0
M  V30 5324 H 508.686 -3.03459 -2.42579 0
M  V30 5325 H 510.358 -4.60059 -0.338121 0
M  V30 5326 H 508.601 -4.33086 -0.248705 0
M  V30 5327 H 509.272 -5.29208 -1.5698 0
M  V30 5328 H 511.748 -3.49332 -2.26067 0
M  V30 5329 H 510.624 -4.35183 -3.34526 0
M  V30 5330 H 510.885 -2.62754 -3.55546 0
M  V30 5331 N 509.944 0.496216 -1.49584 0
M  V30 5332 C 511.192 1.24756 -1.58998 0
M  V30 5333 C 511.513 1.92968 -0.280775 0
M  V30 5334 O 510.783 1.82959 0.700198 0
M  V30 5335 H 509.363 0.463471 -0.585836 0
M  V30 5336 H 512.025 0.574678 -1.86235 0
M  V30 5337 H 511.121 2.00895 -2.38847 0
M  V30 5338 N 511.423 1.38739 0.74761 0
M  V30 5339 C 512.333 1.38696 1.89211 0
M  V30 5340 C 513.349 0.283303 1.71678 0
M  V30 5341 O 514.525 0.522713 1.94498 0
M  V30 5342 C 511.59 1.21662 3.24653 0
M  V30 5343 C 510.651 2.41886 3.54669 0
M  V30 5344 C 509.884 2.25655 4.83648 0
M  V30 5345 O 510.107 1.25339 5.56459 0
M  V30 5346 O 509.041 3.14372 5.13277 0
M  V30 5347 H 512.867 2.35143 1.92202 0
M  V30 5348 H 510.452 1.19721 0.893708 0
M  V30 5349 H 512.334 1.14246 4.05618 0
M  V30 5350 H 511.009 0.283024 3.2246 0
M  V30 5351 H 509.916 2.54877 2.73841 0
M  V30 5352 H 511.249 3.33895 3.61628 0
M  V30 5353 N 512.901 -0.976442 1.23707 0
M  V30 5354 C 514.147 -1.72081 1.07312 0
M  V30 5355 C 514.48 -1.90275 -0.388476 0
M  V30 5356 O 513.755 -1.4579 -1.28746 0
M  V30 5357 C 514.038 -3.11675 1.80363 0
M  V30 5358 C 513.891 -3.01027 3.3422 0
M  V30 5359 C 515.21 -4.1117 1.5693 0
M  V30 5360 H 512.329 -0.624583 0.391236 0
M  V30 5361 H 514.971 -1.13649 1.52263 0
M  V30 5362 H 513.121 -3.61559 1.42153 0
M  V30 5363 H 514.793 -2.58637 3.81975 0
M  V30 5364 H 513.036 -2.3744 3.63049 0
M  V30 5365 H 513.707 -3.9988 3.80525 0
M  V30 5366 H 516.183 -3.7011 1.90151 0
M  V30 5367 H 515.059 -5.06928 2.10513 0
M  V30 5368 H 515.32 -4.392 0.505548 0
M  V30 5369 N 514.379 -1.04941 -1.1758 0
M  V30 5370 C 515.628 -0.753124 -1.87112 0
M  V30 5371 C 515.941 0.722507 -1.81767 0
M  V30 5372 O 517.147 1.13265 -2.46746 0
M  V30 5373 C 515.603 -1.29695 -3.35719 0
M  V30 5374 C 515.211 -2.80184 -3.49572 0
M  V30 5375 C 516.955 -1.07759 -4.10595 0
M  V30 5376 C 514.862 -3.2788 -4.92187 0
M  V30 5377 H 513.792 -0.278034 -0.700866 0
M  V30 5378 H 516.443 -1.26637 -1.32798 0
M  V30 5379 H 514.825 -0.711522 -3.89555 0
M  V30 5380 H 515.999 -3.44561 -3.05965 0
M  V30 5381 H 514.314 -3.00632 -2.88113 0
M  V30 5382 H 516.911 -1.40899 -5.15802 0
M  V30 5383 H 517.254 -0.0152302 -4.16297 0
M  V30 5384 H 517.787 -1.62809 -3.62957 0
M  V30 5385 H 514.526 -4.33535 -4.91658 0
M  V30 5386 H 514.046 -2.68245 -5.36475 0
M  V30 5387 H 515.725 -3.22412 -5.60945 0
M  V30 5388 N 515.857 1.33968 -0.830081 0
M  V30 5389 C 517.103 1.98357 -0.422191 0
M  V30 5390 C 517.436 1.65633 1.01387 0
M  V30 5391 O 516.711 0.931648 1.70735 0
M  V30 5392 C 516.994 3.54492 -0.633043 0
M  V30 5393 C 516.847 3.96934 -2.11574 0
M  V30 5394 C 518.166 4.40039 -0.0735584 0
M  V30 5395 H 515.285 0.720544 -0.154871 0
M  V30 5396 H 517.927 1.58749 -1.04397 0
M  V30 5397 H 516.077 3.88361 -0.103775 0
M  V30 5398 H 517.749 3.73363 -2.7092 0
M  V30 5399 H 515.992 3.46984 -2.60354 0
M  V30 5400 H 516.663 5.05651 -2.21406 0
M  V30 5401 H 519.139 4.12764 -0.52585 0
M  V30 5402 H 518.015 5.48327 -0.250841 0
M  V30 5403 H 518.276 4.30124 1.02202 0
M  V30 5404 N 517.335 0.585699 1.46312 0
M  V30 5405 C 518.563 0.0781299 2.06752 0
M  V30 5406 C 518.978 -1.22812 1.43396 0
M  V30 5407 O 518.335 -1.74318 0.540314 0
M  V30 5408 C 518.386 -0.0911927 3.61385 0
M  V30 5409 O 518.107 1.16336 4.22371 0
M  V30 5410 C 519.608 -0.632765 4.38761 0
M  V30 5411 H 516.828 0.0588188 0.668417 0
M  V30 5412 H 519.372 0.807218 1.87894 0
M  V30 5413 H 517.527 -0.770514 3.7966 0
M  V30 5414 H 517.941 0.979082 5.15281 0
M  V30 5415 H 519.415 -0.70041 5.47538 0
M  V30 5416 H 519.892 -1.65039 4.07012 0
M  V30 5417 H 520.498 0.0117856 4.25298 0
M  V30 5418 N 518.813 -1.54241 0.323641 0
M  V30 5419 C 519.76 -2.24339 -0.542277 0
M  V30 5420 C 520.73 -1.23421 -1.11159 0
M  V30 5421 O 521.915 -1.52104 -1.15192 0
M  V30 5422 C 519.055 -3.00479 -1.69725 0
M  V30 5423 C 518.168 -4.16214 -1.15716 0
M  V30 5424 C 517.303 -4.79884 -2.27783 0
M  V30 5425 C 516.342 -5.87722 -1.71023 0
M  V30 5426 N 515.479 -6.45254 -2.76752 0
M  V30 5427 H 520.319 -2.97935 0.0620613 0
M  V30 5428 H 517.856 -1.47039 0.0423993 0
M  V30 5429 H 519.814 -3.42869 -2.3769 0
M  V30 5430 H 518.444 -2.29217 -2.27288 0
M  V30 5431 H 517.496 -3.78605 -0.369063 0
M  V30 5432 H 518.808 -4.93838 -0.701832 0
M  V30 5433 H 517.962 -5.25243 -3.03651 0
M  V30 5434 H 516.701 -4.01641 -2.76652 0
M  V30 5435 H 515.706 -5.41765 -0.936518 0
M  V30 5436 H 516.931 -6.67863 -1.2303 0
M  V30 5437 H 514.877 -5.69884 -3.24912 0
M  V30 5438 H 514.794 -7.18292 -2.35782 0
M  V30 5439 H 516.062 -6.95269 -3.5245 0
M  V30 5440 N 520.291 -0.0518155 -1.57515 0
M  V30 5441 C 521.568 0.661727 -1.84067 0
M  V30 5442 C 521.948 1.88999 -0.940351 0
M  V30 5443 O 521.296 2.285 -0.00155404 0
M  V30 5444 C 521.506 1.01841 -3.3381 0
M  V30 5445 C 522.854 1.40043 -4.00841 0
M  V30 5446 O 523.878 1.11073 -3.38439 0
M  V30 5447 O 522.737 1.94111 -5.10865 0
M  V30 5448 H 519.831 0.326702 -0.759733 0
M  V30 5449 H 522.377 -0.0812277 -1.69505 0
M  V30 5450 H 521.149 0.145202 -3.91031 0
M  V30 5451 H 520.772 1.81879 -3.53562 0
M  V30 5452 N 521.769 1.56035 0.221574 0
M  V30 5453 C 523.046 1.69837 0.970301 0
M  V30 5454 C 523.426 0.599065 2.02421 0
M  V30 5455 O 522.774 -0.393929 2.25079 0
M  V30 5456 C 522.984 3.11148 1.58076 0
M  V30 5457 C 524.332 3.70555 2.07302 0
M  V30 5458 O 525.356 3.14109 1.6797 0
M  V30 5459 O 524.215 4.69562 2.79596 0
M  V30 5460 H 521.309 0.691727 0.453257 0
M  V30 5461 H 523.855 1.68353 0.213358 0
M  V30 5462 H 522.627 3.82617 0.819759 0
M  V30 5463 H 522.25 3.16749 2.40324 0
M  V30 5464 N 523.247 -0.488276 1.49845 0
M  V30 5465 C 524.21 -1.57069 1.66919 0
M  V30 5466 C 525.21 -1.51445 0.540479 0
M  V30 5467 O 526.4 -1.5437 0.807188 0
M  V30 5468 C 523.532 -2.96718 1.67844 0
M  V30 5469 H 524.725 -1.43254 2.63474 0
M  V30 5470 H 522.278 -0.713435 1.39068 0
M  V30 5471 H 523.013 -3.15996 0.7292 0
M  V30 5472 H 522.798 -3.02208 2.49826 0
M  V30 5473 H 524.288 -3.75335 1.83066 0
M  V30 5474 N 524.725 -1.39134 -0.740242 0
M  V30 5475 C 525.658 -1.3182 -1.86276 0
M  V30 5476 C 526.636 -0.192794 -1.61453 0
M  V30 5477 O 527.82 -0.372365 -1.84786 0
M  V30 5478 C 524.947 -1.04564 -3.22155 0
M  V30 5479 C 523.993 -2.19224 -3.65846 0
M  V30 5480 S 524.826 -3.81466 -3.75824 0
M  V30 5481 C 525.982 -3.56425 -5.14502 0
M  V30 5482 H 526.215 -2.26822 -1.92195 0
M  V30 5483 H 523.748 -1.25127 -0.904576 0
M  V30 5484 H 525.706 -0.895228 -4.00619 0
M  V30 5485 H 524.367 -0.112578 -3.13898 0
M  V30 5486 H 523.56 -1.95732 -4.6444 0
M  V30 5487 H 523.162 -2.30441 -2.94572 0
M  V30 5488 H 525.454 -3.13366 -6.00673 0
M  V30 5489 H 526.397 -4.54462 -5.43019 0
M  V30 5490 H 526.805 -2.90641 -4.8393 0
M  V30 5491 N 526.204 0.969867 -1.24223 0
M  V30 5492 C 527.134 2.08191 -1.05729 0
M  V30 5493 C 528.115 1.70075 0.0290765 0
M  V30 5494 O 529.3 1.93712 -0.137583 0
M  V30 5495 C 526.43 3.40991 -0.658995 0
M  V30 5496 C 525.384 3.93054 -1.69389 0
M  V30 5497 C 524.71 5.22171 -1.15072 0
M  V30 5498 C 526.01 4.21137 -3.08935 0
M  V30 5499 H 527.704 2.23921 -1.98746 0
M  V30 5500 H 525.25 1.07602 -0.956967 0
M  V30 5501 H 527.203 4.18221 -0.51662 0
M  V30 5502 H 525.927 3.25155 0.30686 0
M  V30 5503 H 524.586 3.17977 -1.82444 0
M  V30 5504 H 524.234 5.02694 -0.175539 0
M  V30 5505 H 523.934 5.57973 -1.84229 0
M  V30 5506 H 525.458 6.02013 -1.02042 0
M  V30 5507 H 526.872 4.8908 -2.99121 0
M  V30 5508 H 525.269 4.68163 -3.75425 0
M  V30 5509 H 526.339 3.27996 -3.57137 0
M  V30 5510 N 527.682 1.05563 1.17022 0
M  V30 5511 C 528.612 0.681026 2.23348 0
M  V30 5512 C 529.593 -0.322983 1.67005 0
M  V30 5513 O 530.778 -0.199746 1.9317 0
M  V30 5514 C 527.908 0.0589053 3.4725 0
M  V30 5515 C 526.862 0.988082 4.16438 0
M  V30 5516 C 526.188 0.229646 5.34207 0
M  V30 5517 C 527.488 2.31388 4.68249 0
M  V30 5518 H 529.182 1.56993 2.54938 0
M  V30 5519 H 526.728 0.756302 1.2254 0
M  V30 5520 H 528.681 -0.214982 4.20851 0
M  V30 5521 H 527.405 -0.864968 3.14938 0
M  V30 5522 H 526.064 1.24659 3.44754 0
M  V30 5523 H 525.712 -0.697111 4.98146 0
M  V30 5524 H 525.412 0.848815 5.81437 0
M  V30 5525 H 526.936 -0.0368694 6.10589 0
M  V30 5526 H 528.35 2.09964 5.33468 0
M  V30 5527 H 526.747 2.88736 5.26072 0
M  V30 5528 H 527.817 2.94982 3.84855 0
M  V30 5529 N 529.16 -1.33526 0.837174 0
M  V30 5530 C 530.107 -2.29248 0.267169 0
M  V30 5531 C 531.077 -1.54252 -0.616071 0
M  V30 5532 O 532.262 -1.82559 -0.554699 0
M  V30 5533 C 529.402 -3.40638 -0.553152 0
M  V30 5534 C 528.515 -4.30548 0.353921 0
M  V30 5535 C 527.65 -5.29051 -0.477339 0
M  V30 5536 C 526.689 -6.106 0.42823 0
M  V30 5537 N 525.826 -7.01152 -0.364801 0
M  V30 5538 H 530.666 -2.77398 1.08877 0
M  V30 5539 H 528.203 -1.36496 0.54838 0
M  V30 5540 H 530.161 -4.03921 -1.04422 0
M  V30 5541 H 528.791 -2.93685 -1.33973 0
M  V30 5542 H 527.843 -3.68001 0.963289 0
M  V30 5543 H 529.155 -4.87631 1.04964 0
M  V30 5544 H 528.309 -5.97853 -1.0323 0
M  V30 5545 H 527.048 -4.72541 -1.2065 0
M  V30 5546 H 526.053 -5.40718 0.995219 0
M  V30 5547 H 527.278 -6.69193 1.15573 0
M  V30 5548 H 525.224 -6.47092 -1.07738 0
M  V30 5549 H 525.141 -7.5551 0.272238 0
M  V30 5550 H 526.409 -7.74263 -0.902054 0
M  V30 5551 N 530.638 -0.59345 -1.46 0
M  V30 5552 C 531.886 -0.082988 -2.0193 0
M  V30 5553 C 532.207 1.28569 -1.46612 0
M  V30 5554 O 531.477 1.84629 -0.654909 0
M  V30 5555 H 530.057 -0.0276882 -0.746487 0
M  V30 5556 H 532.719 -0.771657 -1.78973 0
M  V30 5557 H 531.815 -0.022079 -3.12092 0
M  V30 5558 N 532.116 1.54067 -0.331816 0
M  V30 5559 C 533.063 2.24623 0.530372 0
M  V30 5560 C 534.033 1.24009 1.10503 0
M  V30 5561 O 535.218 1.52712 1.14384 0
M  V30 5562 C 532.358 3.01374 1.68129 0
M  V30 5563 C 531.471 4.16821 1.13507 0
M  V30 5564 C 530.606 4.81085 2.25234 0
M  V30 5565 C 529.645 5.88621 1.67903 0
M  V30 5566 N 528.782 6.46713 2.73326 0
M  V30 5567 H 533.622 2.97898 -0.0778607 0
M  V30 5568 H 531.159 1.47014 -0.0501965 0
M  V30 5569 H 533.117 3.44125 2.35868 0
M  V30 5570 H 531.747 2.30419 2.26069 0
M  V30 5571 H 530.799 3.78796 0.348979 0
M  V30 5572 H 532.111 4.94203 0.675633 0
M  V30 5573 H 531.265 5.26846 3.00862 0
M  V30 5574 H 530.004 4.03102 2.74518 0
M  V30 5575 H 529.009 5.42254 0.907773 0
M  V30 5576 H 530.234 6.68506 1.19487 0
M  V30 5577 H 528.18 5.71599 3.21886 0
M  V30 5578 H 528.097 7.19532 2.3197 0
M  V30 5579 H 529.365 6.97129 3.48758 0
M  V30 5580 N 533.594 0.0601682 1.57485 0
M  V30 5581 C 534.842 -0.610386 1.92662 0
M  V30 5582 C 535.163 -1.70849 0.939981 0
M  V30 5583 O 534.433 -1.95895 -0.0137455 0
M  V30 5584 H 533.013 -0.228457 0.711208 0
M  V30 5585 H 535.675 0.115288 1.94559 0
M  V30 5586 H 534.771 -1.0432 2.94149 0
M  V30 5587 N 535.072 -1.5615 -0.213296 0
M  V30 5588 C 536.349 -1.70349 -0.961281 0
M  V30 5589 C 536.729 -0.609791 -2.02101 0
M  V30 5590 O 536.077 0.381987 -2.25285 0
M  V30 5591 C 536.287 -3.11982 -1.56424 0
M  V30 5592 C 537.635 -3.71649 -2.05334 0
M  V30 5593 O 538.659 -3.14995 -1.66302 0
M  V30 5594 O 537.518 -4.71038 -2.77102 0
M  V30 5595 H 534.612 -0.694121 -0.449582 0
M  V30 5596 H 537.158 -1.68464 -0.204426 0
M  V30 5597 H 535.93 -3.83046 -0.799457 0
M  V30 5598 H 535.553 -3.18019 -2.38641 0
M  V30 5599 N 536.55 0.480323 -1.50102 0
M  V30 5600 C 537.497 1.57946 -1.6829 0
M  V30 5601 C 538.467 1.57611 -0.524223 0
M  V30 5602 O 539.652 1.75282 -0.753709 0
M  V30 5603 C 536.792 2.95978 -1.77457 0
M  V30 5604 C 535.905 3.06173 -3.04766 0
M  V30 5605 C 535.04 4.35063 -3.04784 0
M  V30 5606 C 534.079 4.38966 -4.26586 0
M  V30 5607 N 533.216 5.59314 -4.24396 0
M  V30 5608 H 538.056 1.41743 -2.62131 0
M  V30 5609 H 535.593 0.689304 -1.2995 0
M  V30 5610 H 537.551 3.76011 -1.80752 0
M  V30 5611 H 536.181 3.10837 -0.870637 0
M  V30 5612 H 535.233 2.19071 -3.10986 0
M  V30 5613 H 536.545 3.04916 -3.9475 0
M  V30 5614 H 535.699 5.23436 -3.06757 0
M  V30 5615 H 534.438 4.38915 -2.12614 0
M  V30 5616 H 533.443 3.48992 -4.24835 0
M  V30 5617 H 534.668 4.36813 -5.19972 0
M  V30 5618 H 532.614 5.63969 -3.35074 0
M  V30 5619 H 532.531 5.5976 -5.08138 0
M  V30 5620 H 533.799 6.49837 -4.30502 0
M  V30 5621 N 538.028 1.39524 0.732853 0
M  V30 5622 C 538.991 1.38189 1.82857 0
M  V30 5623 C 539.991 0.278624 1.58368 0
M  V30 5624 O 541.181 0.536639 1.65728 0
M  V30 5625 C 538.313 1.15661 3.2068 0
M  V30 5626 H 539.506 2.35692 1.85444 0
M  V30 5627 H 537.059 1.2512 0.936728 0
M  V30 5628 H 537.794 0.188482 3.23752 0
M  V30 5629 H 537.579 1.95559 3.39852 0
M  V30 5630 H 539.069 1.17472 4.00737 0
M  V30 5631 N 539.506 -0.963266 1.24736 0
M  V30 5632 C 540.438 -2.06162 1.0015 0
M  V30 5633 C 541.451 -1.62771 -0.0305905 0
M  V30 5634 O 542.64 -1.77296 0.206966 0
M  V30 5635 C 539.74 -3.35333 0.490385 0
M  V30 5636 C 538.913 -4.07609 1.58663 0
M  V30 5637 C 537.972 -5.15052 1.0774 0
M  V30 5638 O 536.998 -5.4098 1.77002 0
M  V30 5639 N 538.2 -5.80436 -0.0858605 0
M  V30 5640 H 540.965 -2.27825 1.94719 0
M  V30 5641 H 538.526 -1.13121 1.15825 0
M  V30 5642 H 540.518 -4.04477 0.134371 0
M  V30 5643 H 539.088 -3.10507 -0.361155 0
M  V30 5644 H 538.308 -3.32681 2.11463 0
M  V30 5645 H 539.596 -4.52656 2.32336 0
M  V30 5646 H 538.994 -5.6178 -0.664806 0
M  V30 5647 H 537.551 -6.50674 -0.382981 0
M  V30 5648 N 540.985 -1.06182 -1.16461 0
M  V30 5649 C 542.234 -0.772927 -1.86303 0
M  V30 5650 C 542.547 0.703187 -1.82523 0
M  V30 5651 O 543.753 1.10641 -2.47933 0
M  V30 5652 C 542.209 -1.33249 -3.34324 0
M  V30 5653 C 541.817 -2.83876 -3.46581 0
M  V30 5654 C 543.561 -1.12108 -4.09429 0
M  V30 5655 C 541.468 -3.33082 -4.88682 0
M  V30 5656 H 540.398 -0.285452 -0.697878 0
M  V30 5657 H 543.049 -1.28039 -1.31447 0
M  V30 5658 H 541.431 -0.7528 -3.88779 0
M  V30 5659 H 542.605 -3.47786 -3.02293 0
M  V30 5660 H 540.92 -3.03671 -2.84909 0
M  V30 5661 H 543.517 -1.46361 -5.14279 0
M  V30 5662 H 543.86 -0.0593832 -4.16258 0
M  V30 5663 H 544.393 -1.6665 -3.6121 0
M  V30 5664 H 541.132 -4.38726 -4.87032 0
M  V30 5665 H 540.652 -2.73919 -5.33599 0
M  V30 5666 H 542.331 -3.28344 -5.57494 0
M  V30 5667 N 542.463 1.3308 -0.844243 0
M  V30 5668 C 543.373 2.32876 -0.283922 0
M  V30 5669 C 544.389 1.63589 0.592846 0
M  V30 5670 O 545.565 1.95205 0.495693 0
M  V30 5671 C 542.63 3.42667 0.527283 0
M  V30 5672 C 541.691 4.27664 -0.374394 0
M  V30 5673 C 540.924 5.32212 0.39819 0
M  V30 5674 O 541.147 5.46635 1.62932 0
M  V30 5675 O 540.081 6.01458 -0.2306 0
M  V30 5676 H 543.907 2.82671 -1.11045 0
M  V30 5677 H 541.492 1.36518 -0.606903 0
M  V30 5678 H 543.374 4.09652 0.988078 0
M  V30 5679 H 542.049 2.95079 1.33078 0
M  V30 5680 H 540.956 3.63526 -0.883144 0
M  V30 5681 H 542.289 4.78749 -1.1428 0
M  V30 5682 N 543.941 0.601185 1.45683 0
M  V30 5683 C 544.888 -0.121396 2.30481 0
M  V30 5684 C 545.858 -0.866232 1.41724 0
M  V30 5685 O 547.043 -0.85324 1.70659 0
M  V30 5686 C 544.183 -1.11704 3.26521 0
M  V30 5687 C 543.296 -0.373741 4.3038 0
M  V30 5688 C 542.431 -1.35854 5.13534 0
M  V30 5689 C 541.47 -0.602689 6.09126 0
M  V30 5690 N 540.607 -1.53645 6.85082 0
M  V30 5691 H 545.447 0.607732 2.91737 0
M  V30 5692 H 542.984 0.311502 1.43764 0
M  V30 5693 H 544.942 -1.70735 3.80664 0
M  V30 5694 H 543.572 -1.81366 2.67032 0
M  V30 5695 H 542.624 0.331962 3.78949 0
M  V30 5696 H 543.936 0.2163 4.98331 0
M  V30 5697 H 543.09 -2.02111 5.72046 0
M  V30 5698 H 541.829 -1.98251 4.45587 0
M  V30 5699 H 540.834 0.0735482 5.49751 0
M  V30 5700 H 542.059 0.0161467 6.79098 0
M  V30 5701 H 540.005 -2.14819 6.1983 0
M  V30 5702 H 539.922 -0.999688 7.49361 0
M  V30 5703 H 541.19 -2.1888 7.48139 0
M  V30 5704 N 545.419 -1.53889 0.339982 0
M  V30 5705 C 546.835 -1.59595 -0.0120752 0
M  V30 5706 C 547.035 -1.35605 -1.49042 0
M  V30 5707 O 546.091 -1.14856 -2.24865 0
M  V30 5708 C 547.404 -2.9774 0.420898 0
M  V30 5709 C 548.952 -3.1077 0.37294 0
M  V30 5710 C 549.427 -4.51286 0.781327 0
M  V30 5711 N 550.918 -4.57325 0.735374 0
M  V30 5712 C 551.653 -5.64194 1.02336 0
M  V30 5713 N 551.149 -6.7893 1.37933 0
M  V30 5714 N 552.942 -5.54051 0.947838 0
M  V30 5715 H 545.093 -1.67738 1.30299 0
M  V30 5716 H 547.356 -0.785385 0.530918 0
M  V30 5717 H 547.062 -3.20349 1.45152 0
M  V30 5718 H 546.936 -3.76639 -0.205721 0
M  V30 5719 H 549.323 -2.87886 -0.648505 0
M  V30 5720 H 549.404 -2.33939 1.03472 0
M  V30 5721 H 549.048 -4.74905 1.80077 0
M  V30 5722 H 548.978 -5.26511 0.0970679 0
M  V30 5723 H 551.469 -3.74931 0.472773 0
M  V30 5724 H 551.782 -7.56392 1.58402 0
M  V30 5725 H 550.127 -6.80386 1.41774 0
M  V30 5726 H 553.318 -4.63293 0.669115 0
M  V30 5727 H 553.491 -6.37246 1.17563 0
M  V30 5728 N 546.897 -0.0685191 -1.57451 0
M  V30 5729 C 548.146 0.600898 -1.92541 0
M  V30 5730 C 548.459 1.70967 -0.950239 0
M  V30 5731 O 549.665 2.43844 -1.19384 0
M  V30 5732 C 548.121 1.12019 -3.42023 0
M  V30 5733 C 547.729 0.0426028 -4.4798 0
M  V30 5734 C 549.473 1.76386 -3.86119 0
M  V30 5735 C 547.38 0.575759 -5.88591 0
M  V30 5736 H 546.31 0.228225 -0.71863 0
M  V30 5737 H 548.961 -0.140223 -1.82963 0
M  V30 5738 H 547.343 1.91418 -3.46663 0
M  V30 5739 H 548.517 -0.73182 -4.54952 0
M  V30 5740 H 546.832 -0.504642 -4.13331 0
M  V30 5741 H 549.429 2.17302 -4.88553 0
M  V30 5742 H 549.772 2.62255 -3.23308 0
M  V30 5743 H 550.305 1.03615 -3.84069 0
M  V30 5744 H 547.044 -0.245691 -6.55039 0
M  V30 5745 H 546.564 1.31778 -5.85145 0
M  V30 5746 H 548.243 1.0532 -6.3837 0
M  V30 5747 N 548.375 1.56261 0.205012 0
M  V30 5748 C 549.307 1.90266 1.27795 0
M  V30 5749 C 550.32 0.792397 1.42214 0
M  V30 5750 O 551.509 1.07077 1.42817 0
M  V30 5751 C 548.609 2.11074 2.65143 0
M  V30 5752 C 547.782 3.42176 2.7246 0
M  V30 5753 C 546.841 3.52216 3.90936 0
M  V30 5754 O 545.867 4.25119 3.78501 0
M  V30 5755 N 547.069 2.84573 5.05963 0
M  V30 5756 H 549.834 2.82896 0.989434 0
M  V30 5757 H 547.395 1.57008 0.394981 0
M  V30 5758 H 549.387 2.15089 3.4281 0
M  V30 5759 H 547.957 1.2499 2.86524 0
M  V30 5760 H 547.177 3.50116 1.81142 0
M  V30 5761 H 548.465 4.28509 2.74331 0
M  V30 5762 H 547.863 2.25152 5.18963 0
M  V30 5763 H 546.42 2.94228 5.81613 0
M  V30 5764 N 549.853 -0.472356 1.50355 0
M  V30 5765 C 550.763 -1.59637 1.7191 0
M  V30 5766 C 551.779 -1.63247 0.602195 0
M  V30 5767 O 552.955 -1.81139 0.880369 0
M  V30 5768 C 550.02 -2.9586 1.80742 0
M  V30 5769 C 549.081 -3.02649 3.04471 0
M  V30 5770 C 548.314 -4.32374 3.12872 0
M  V30 5771 O 548.537 -5.22807 2.28099 0
M  V30 5772 O 547.471 -4.44728 4.05587 0
M  V30 5773 H 551.297 -1.44373 2.67189 0
M  V30 5774 H 548.882 -0.651717 1.34436 0
M  V30 5775 H 550.764 -3.7677 1.88739 0
M  V30 5776 H 549.439 -3.11325 0.88647 0
M  V30 5777 H 548.346 -2.20821 3.01975 0
M  V30 5778 H 549.679 -2.92119 3.9614 0
M  V30 5779 N 551.331 -1.39911 -0.725443 0
M  V30 5780 C 552.58 -1.36963 -1.48068 0
M  V30 5781 C 552.893 0.0284478 -1.95579 0
M  V30 5782 O 554.099 0.180535 -2.70899 0
M  V30 5783 C 552.555 -2.40664 -2.67598 0
M  V30 5784 C 552.163 -3.86234 -2.26997 0
M  V30 5785 C 553.907 -2.46807 -3.45379 0
M  V30 5786 C 551.814 -4.81554 -3.43307 0
M  V30 5787 H 550.744 -0.509223 -0.556065 0
M  V30 5788 H 553.395 -1.65602 -0.790454 0
M  V30 5789 H 551.777 -2.05109 -3.38742 0
M  V30 5790 H 552.951 -4.3088 -1.63337 0
M  V30 5791 H 551.266 -3.83475 -1.62284 0
M  V30 5792 H 553.863 -3.15213 -4.31909 0
M  V30 5793 H 554.206 -1.49552 -3.8851 0
M  V30 5794 H 554.739 -2.81303 -2.81271 0
M  V30 5795 H 551.478 -5.80106 -3.05217 0
M  V30 5796 H 550.998 -4.4158 -4.05915 0
M  V30 5797 H 552.677 -5.0091 -4.0951 0
M  V30 5798 N 552.809 0.956637 -1.25245 0
M  V30 5799 C 554.058 1.69537 -1.0927 0
M  V30 5800 C 554.371 1.92136 0.366503 0
M  V30 5801 O 555.577 2.63687 0.64665 0
M  V30 5802 C 554.033 3.05211 -1.9072 0
M  V30 5803 C 553.641 2.90416 -3.41119 0
M  V30 5804 C 555.385 3.82882 -1.83308 0
M  V30 5805 C 553.292 4.21468 -4.14872 0
M  V30 5806 H 552.222 0.635804 -0.405302 0
M  V30 5807 H 554.873 1.06513 -1.49423 0
M  V30 5808 H 553.255 3.69128 -1.43389 0
M  V30 5809 H 554.429 2.35444 -3.9611 0
M  V30 5810 H 552.744 2.26203 -3.49602 0
M  V30 5811 H 555.341 4.79944 -2.35706 0
M  V30 5812 H 555.684 4.0853 -0.800572 0
M  V30 5813 H 556.217 3.25711 -2.28379 0
M  V30 5814 H 552.956 4.01009 -5.18529 0
M  V30 5815 H 552.476 4.76213 -3.64665 0
M  V30 5816 H 554.155 4.90022 -4.22478 0
M  V30 5817 N 554.287 1.06798 1.15896 0
M  V30 5818 C 555.197 0.694564 2.24083 0
M  V30 5819 C 556.213 -0.291687 1.71538 0
M  V30 5820 O 557.389 -0.139723 2.00915 0
M  V30 5821 C 554.454 0.0921014 3.46578 0
M  V30 5822 C 553.515 1.13087 4.14137 0
M  V30 5823 C 552.748 0.557064 5.30785 0
M  V30 5824 O 552.971 -0.628623 5.66925 0
M  V30 5825 O 551.905 1.29924 5.8771 0
M  V30 5826 H 555.731 1.59663 2.58344 0
M  V30 5827 H 553.316 0.840575 1.2351 0
M  V30 5828 H 555.198 -0.241884 4.20705 0
M  V30 5829 H 553.873 -0.78337 3.14078 0
M  V30 5830 H 552.78 1.51712 3.41957 0
M  V30 5831 H 554.113 1.97805 4.50704 0
M  V30 5832 N 555.766 -1.3263 0.851289 0
M  V30 5833 C 556.698 -2.27824 0.250757 0
M  V30 5834 C 557.711 -1.52285 -0.575598 0
M  V30 5835 O 558.9 -1.73946 -0.400638 0
M  V30 5836 C 556 -3.3232 -0.664571 0
M  V30 5837 C 555.173 -4.37221 0.125187 0
M  V30 5838 C 554.232 -5.21314 -0.715385 0
M  V30 5839 O 553.258 -5.69002 -0.150111 0
M  V30 5840 N 554.46 -5.43823 -2.03069 0
M  V30 5841 H 557.225 -2.79997 1.06873 0
M  V30 5842 H 554.786 -1.45455 0.710943 0
M  V30 5843 H 556.778 -3.85486 -1.23216 0
M  V30 5844 H 555.348 -2.80331 -1.38323 0
M  V30 5845 H 554.568 -3.84384 0.874199 0
M  V30 5846 H 555.856 -5.04399 0.667774 0
M  V30 5847 H 555.254 -5.06803 -2.51332 0
M  V30 5848 H 553.811 -5.99998 -2.54648 0
M  V30 5849 N 557.244 -0.608902 -1.45362 0
M  V30 5850 C 558.174 0.0964526 -2.33301 0
M  V30 5851 C 559.155 0.857444 -1.46908 0
M  V30 5852 O 560.34 0.827735 -1.75676 0
M  V30 5853 C 557.47 1.09354 -3.29635 0
M  V30 5854 C 556.424 0.445676 -4.25673 0
M  V30 5855 C 555.75 1.5511 -5.11708 0
M  V30 5856 C 557.05 -0.633972 -5.18438 0
M  V30 5857 H 558.744 -0.637829 -2.92527 0
M  V30 5858 H 556.29 -0.308178 -1.40664 0
M  V30 5859 H 558.243 1.59556 -3.90025 0
M  V30 5860 H 556.967 1.85843 -2.6857 0
M  V30 5861 H 555.626 -0.0354897 -3.66583 0
M  V30 5862 H 555.274 2.30631 -4.4701 0
M  V30 5863 H 554.974 1.12311 -5.76767 0
M  V30 5864 H 556.498 2.05537 -5.74967 0
M  V30 5865 H 557.912 -0.215974 -5.72893 0
M  V30 5866 H 556.309 -0.983789 -5.91981 0
M  V30 5867 H 557.379 -1.51005 -4.60788 0
M  V30 5868 N 558.722 1.53707 -0.348139 0
M  V30 5869 C 559.999 1.93247 0.302475 0
M  V30 5870 C 560.379 1.28012 1.67857 0
M  V30 5871 O 559.727 0.43274 2.24365 0
M  V30 5872 C 559.937 3.47031 0.370159 0
M  V30 5873 C 561.285 4.20066 0.61882 0
M  V30 5874 O 562.309 3.53319 0.452087 0
M  V30 5875 O 561.168 5.38318 0.94215 0
M  V30 5876 H 558.262 0.807736 0.177458 0
M  V30 5877 H 560.808 1.64927 -0.399651 0
M  V30 5878 H 559.58 3.86745 -0.59534 0
M  V30 5879 H 559.203 3.81532 1.11888 0
M  V30 5880 N 560.2 0.0768682 1.57412 0
M  V30 5881 C 561.446 -0.591961 1.93968 0
M  V30 5882 C 561.779 -1.68954 0.9575 0
M  V30 5883 O 561.054 -1.94496 -0.0124675 0
M  V30 5884 C 561.337 -1.16418 3.40762 0
M  V30 5885 C 561.19 -0.0728933 4.49741 0
M  V30 5886 C 562.509 -2.06814 3.88479 0
M  V30 5887 H 559.628 -0.213716 0.705333 0
M  V30 5888 H 562.27 0.14387 1.89455 0
M  V30 5889 H 560.42 -1.79128 3.4474 0
M  V30 5890 H 562.092 0.560446 4.57883 0
M  V30 5891 H 560.335 0.595859 4.29688 0
M  V30 5892 H 561.006 -0.513755 5.49604 0
M  V30 5893 H 563.482 -1.54033 3.8654 0
M  V30 5894 H 562.358 -2.43785 4.91793 0
M  V30 5895 H 562.619 -2.97844 3.26713 0
M  V30 5896 N 561.678 -1.56367 -0.196722 0
M  V30 5897 C 562.906 -1.84639 -0.933608 0
M  V30 5898 C 563.321 -0.659164 -1.76919 0
M  V30 5899 O 562.678 0.372142 -1.78665 0
M  V30 5900 C 562.729 -3.11694 -1.83109 0
M  V30 5901 O 562.45 -4.25838 -1.02924 0
M  V30 5902 C 563.951 -3.53132 -2.67979 0
M  V30 5903 H 561.171 -0.613188 -0.272473 0
M  V30 5904 H 563.715 -2.03475 -0.204465 0
M  V30 5905 H 561.87 -2.94759 -2.51387 0
M  V30 5906 H 562.284 -4.98178 -1.64069 0
M  V30 5907 H 563.758 -4.45005 -3.26611 0
M  V30 5908 H 564.235 -2.76045 -3.41608 0
M  V30 5909 H 564.841 -3.72592 -2.05074 0
M  V30 5910 N 563.156 0.464375 -1.50603 0
M  V30 5911 C 564.384 1.23907 -1.65695 0
M  V30 5912 C 564.799 1.85658 -0.343027 0
M  V30 5913 O 564.156 1.69529 0.675739 0
M  V30 5914 C 564.207 2.3429 -2.75301 0
M  V30 5915 O 563.928 1.7507 -4.01599 0
M  V30 5916 C 565.429 3.25051 -3.01424 0
M  V30 5917 H 562.649 0.374485 -0.556778 0
M  V30 5918 H 565.193 0.55353 -1.96866 0
M  V30 5919 H 563.348 2.98607 -2.46804 0
M  V30 5920 H 563.762 2.47812 -4.62266 0
M  V30 5921 H 565.236 3.98699 -3.81763 0
M  V30 5922 H 565.713 3.84227 -2.12758 0
M  V30 5923 H 566.319 2.66463 -3.31477 0
M  V30 5924 N 564.634 1.40294 0.718013 0
M  V30 5925 C 565.859 1.41941 1.5122 0
M  V30 5926 C 566.284 0.0202371 1.88089 0
M  V30 5927 O 565.642 -0.971078 1.53101 0
M  V30 5928 C 565.69 2.3141 2.76554 0
M  V30 5929 O 564.794 1.75567 3.73162 0
M  V30 5930 H 564.135 0.482644 0.456016 0
M  V30 5931 H 566.665 1.84494 0.884478 0
M  V30 5932 H 566.675 2.46513 3.25108 0
M  V30 5933 H 565.35 3.33085 2.49053 0
M  V30 5934 H 563.927 1.69798 3.31999 0
M  V30 5935 N 566.112 -0.949982 1.2575 0
M  V30 5936 C 567.022 -2.08109 1.08295 0
M  V30 5937 C 568.038 -1.7399 0.0188181 0
M  V30 5938 O 569.214 -2.00187 0.220724 0
M  V30 5939 C 566.279 -3.39383 0.708534 0
M  V30 5940 C 565.34 -3.8734 1.85111 0
M  V30 5941 C 564.573 -5.12349 1.49447 0
M  V30 5942 O 564.796 -5.6905 0.392212 0
M  V30 5943 O 563.73 -5.5513 2.32624 0
M  V30 5944 H 567.556 -2.25738 2.03165 0
M  V30 5945 H 565.141 -1.06545 1.04731 0
M  V30 5946 H 567.023 -4.18277 0.512061 0
M  V30 5947 H 565.698 -3.23013 -0.210854 0
M  V30 5948 H 564.605 -3.09429 2.10248 0
M  V30 5949 H 565.938 -4.08216 2.74991 0
M  V30 5950 N 567.59 -1.07411 -1.15328 0
M  V30 5951 C 568.82 -0.817595 -1.89734 0
M  V30 5952 C 569.228 0.63297 -1.78298 0
M  V30 5953 O 568.571 1.44594 -1.13306 0
M  V30 5954 C 568.633 -1.14748 -3.40695 0
M  V30 5955 C 568.297 -2.59876 -3.75917 0
M  V30 5956 C 569.294 -3.58122 -3.76888 0
M  V30 5957 C 566.979 -2.95469 -4.06206 0
M  V30 5958 C 568.973 -4.89996 -4.07655 0
M  V30 5959 C 566.66 -4.2754 -4.36638 0
M  V30 5960 C 567.658 -5.24614 -4.37344 0
M  V30 5961 O 567.346 -6.54312 -4.67045 0
M  V30 5962 H 567.078 -0.295175 -0.608151 0
M  V30 5963 H 569.632 -1.43409 -1.47048 0
M  V30 5964 H 567.862 -0.47395 -3.83785 0
M  V30 5965 H 569.551 -0.873397 -3.96392 0
M  V30 5966 H 570.317 -3.31966 -3.53587 0
M  V30 5967 H 566.196 -2.20558 -4.04815 0
M  V30 5968 H 569.74 -5.65759 -4.08121 0
M  V30 5969 H 565.637 -4.53449 -4.59407 0
M  V30 5970 H 566.405 -6.59473 -4.84807 0
M  V30 5971 N 569.068 1.32177 -0.85831 0
M  V30 5972 C 569.978 2.32561 -0.308606 0
M  V30 5973 C 570.994 1.64209 0.575462 0
M  V30 5974 O 572.17 1.95719 0.474961 0
M  V30 5975 C 569.235 3.43207 0.490909 0
M  V30 5976 C 568.296 4.27243 -0.419733 0
M  V30 5977 C 567.529 5.32605 0.341719 0
M  V30 5978 O 567.752 5.48332 1.57125 0
M  V30 5979 O 566.686 6.0118 -0.294379 0
M  V30 5980 H 570.512 2.81477 -1.14037 0
M  V30 5981 H 568.097 1.35866 -0.621349 0
M  V30 5982 H 569.979 4.10677 0.944574 0
M  V30 5983 H 568.654 2.96474 1.29941 0
M  V30 5984 H 567.561 3.62569 -0.921652 0
M  V30 5985 H 568.894 4.7751 -1.19352 0
M  V30 5986 N 570.547 0.616602 1.45037 0
M  V30 5987 C 571.494 -0.0969439 2.30596 0
M  V30 5988 C 572.464 -0.851151 1.42635 0
M  V30 5989 O 573.649 -0.835092 1.71554 0
M  V30 5990 C 570.789 -1.08234 3.27688 0
M  V30 5991 C 569.902 -0.328072 4.30752 0
M  V30 5992 C 569.037 -1.30399 5.14946 0
M  V30 5993 C 568.076 -0.538049 6.09731 0
M  V30 5994 N 567.213 -1.46371 6.86673 0
M  V30 5995 H 572.053 0.63864 2.91076 0
M  V30 5996 H 569.59 0.326733 1.43425 0
M  V30 5997 H 571.548 -1.66688 3.82454 0
M  V30 5998 H 570.178 -1.78523 2.68941 0
M  V30 5999 H 569.23 0.372136 3.78575 0
M  V30 6000 H 570.542 0.269142 4.98073 0
M  V30 6001 H 569.696 -1.96032 5.74157 0
M  V30 6002 H 568.435 -1.93514 4.47665 0
M  V30 6003 H 567.44 0.131852 5.49642 0
M  V30 6004 H 568.665 0.0881732 6.79043 0
M  V30 6005 H 566.611 -2.08233 6.22073 0
M  V30 6006 H 566.528 -0.920152 7.50379 0
M  V30 6007 H 567.796 -2.10932 7.50418 0
M  V30 6008 N 572.025 -1.5352 0.356285 0
M  V30 6009 C 572.935 -2.29151 -0.502712 0
M  V30 6010 C 573.951 -1.34753 -1.1008 0
M  V30 6011 O 575.127 -1.67803 -1.11374 0
M  V30 6012 C 572.192 -3.05911 -1.63154 0
M  V30 6013 C 571.253 -4.15958 -1.06194 0
M  V30 6014 C 570.486 -4.8905 -2.13696 0
M  V30 6015 O 570.709 -4.61919 -3.34645 0
M  V30 6016 O 569.643 -5.75202 -1.77275 0
M  V30 6017 H 573.469 -3.03492 0.112466 0
M  V30 6018 H 571.054 -1.4891 0.120942 0
M  V30 6019 H 572.936 -3.53874 -2.28804 0
M  V30 6020 H 571.611 -2.34415 -2.23229 0
M  V30 6021 H 570.518 -3.7227 -0.369603 0
M  V30 6022 H 571.851 -4.89593 -0.505872 0
M  V30 6023 N 573.503 -0.0852151 -1.57369 0
M  V30 6024 C 574.45 0.877268 -2.13478 0
M  V30 6025 C 575.42 1.28642 -1.05073 0
M  V30 6026 O 576.605 1.36992 -1.32808 0
M  V30 6027 C 573.745 2.13464 -2.71159 0
M  V30 6028 C 572.858 1.77691 -3.93764 0
M  V30 6029 C 571.993 2.98139 -4.39643 0
M  V30 6030 C 571.032 2.58447 -5.54862 0
M  V30 6031 N 570.169 3.71698 -5.95639 0
M  V30 6032 H 575.009 0.391933 -2.95411 0
M  V30 6033 H 572.546 0.181796 -1.45972 0
M  V30 6034 H 574.504 2.87086 -3.02717 0
M  V30 6035 H 573.134 2.59514 -1.91969 0
M  V30 6036 H 572.186 0.940768 -3.68583 0
M  V30 6037 H 573.498 1.44497 -4.77412 0
M  V30 6038 H 572.652 3.80026 -4.72933 0
M  V30 6039 H 571.391 3.34536 -3.54876 0
M  V30 6040 H 570.396 1.74984 -5.21211 0
M  V30 6041 H 571.621 2.23205 -6.41371 0
M  V30 6042 H 569.567 4.07831 -5.13819 0
M  V30 6043 H 569.484 3.42317 -6.74059 0
M  V30 6044 H 570.752 4.54123 -6.33555 0
M  V30 6045 N 574.981 1.5647 0.188427 0
M  V30 6046 C 575.911 1.98101 1.23606 0
M  V30 6047 C 576.892 0.853961 1.47111 0
M  V30 6048 O 578.077 1.11879 1.58735 0
M  V30 6049 C 575.207 2.32624 2.57882 0
M  V30 6050 C 574.161 3.48129 2.48978 0
M  V30 6051 C 573.487 3.68347 3.87588 0
M  V30 6052 C 574.787 4.82112 2.00911 0
M  V30 6053 H 576.481 2.85864 0.890068 0
M  V30 6054 H 574.027 1.37532 0.426714 0
M  V30 6055 H 575.98 2.60343 3.3136 0
M  V30 6056 H 574.704 1.41751 2.94235 0
M  V30 6057 H 573.363 3.20511 1.77956 0
M  V30 6058 H 573.011 2.74793 4.21305 0
M  V30 6059 H 572.711 4.46055 3.82503 0
M  V30 6060 H 574.235 3.98449 4.62678 0
M  V30 6061 H 575.649 5.08819 2.64151 0
M  V30 6062 H 574.046 5.63337 2.06814 0
M  V30 6063 H 575.116 4.75249 0.96262 0
M  V30 6064 N 576.459 -0.456382 1.50847 0
M  V30 6065 C 577.407 -1.57318 1.71329 0
M  V30 6066 C 578.401 -1.59187 0.579287 0
M  V30 6067 O 579.607 -1.6316 0.76018 0
M  V30 6068 H 575.982 -0.5223 0.541024 0
M  V30 6069 H 577.953 -1.3721 2.64983 0
M  V30 6070 C 576.702 -2.95142 1.83811 0
M  V30 6071 H 576.025 -2.94428 2.70467 0
M  V30 6072 H 577.465 -3.72702 2.02161 0
M  V30 6073 C 575.924 -3.31636 0.593224 0
M  V30 6074 O 576.454 -4.00852 -0.260898 0
M  V30 6075 N 574.66 -2.87205 0.442902 0
M  V30 6076 H 574.207 -2.31051 1.13901 0
M  V30 6077 H 574.165 -3.11986 -0.38884 0
M  V30 6078 N 577.937 -1.40673 -0.710563 0
M  V30 6079 C 578.847 -1.43663 -1.85467 0
M  V30 6080 C 579.863 -0.328721 -1.70867 0
M  V30 6081 O 581.039 -0.574098 -1.93044 0
M  V30 6082 C 578.104 -1.30226 -3.21313 0
M  V30 6083 C 577.165 -2.51204 -3.48131 0
M  V30 6084 C 576.398 -2.38398 -4.77495 0
M  V30 6085 O 576.621 -1.40048 -5.5294 0
M  V30 6086 O 575.555 -3.2787 -5.04762 0
M  V30 6087 H 579.381 -2.40156 -1.859 0
M  V30 6088 H 576.966 -1.22049 -0.861652 0
M  V30 6089 H 578.848 -1.2496 -4.02446 0
M  V30 6090 H 577.523 -0.368419 -3.21597 0
M  V30 6091 H 576.43 -2.62048 -2.66987 0
M  V30 6092 H 577.763 -3.43366 -3.52648 0
M  V30 6093 N 579.415 0.9433 -1.26252 0
M  V30 6094 C 580.831 1.21644 -1.03319 0
M  V30 6095 C 581.031 2.0003 0.242983 0
M  V30 6096 O 580.087 2.33838 0.952688 0
M  V30 6097 C 581.4 1.97978 -2.2633 0
M  V30 6098 C 582.948 2.10978 -2.31209 0
M  V30 6099 C 583.423 2.90713 -3.53907 0
M  V30 6100 N 584.914 2.98287 -3.54371 0
M  V30 6101 C 585.649 3.60406 -4.45976 0
M  V30 6102 N 585.145 4.24043 -5.47868 0
M  V30 6103 N 586.938 3.57658 -4.33633 0
M  V30 6104 H 579.089 0.419221 -2.08222 0
M  V30 6105 H 581.352 0.247995 -0.914988 0
M  V30 6106 H 581.058 1.47788 -3.19142 0
M  V30 6107 H 580.932 2.9865 -2.30408 0
M  V30 6108 H 583.319 2.6036 -1.38913 0
M  V30 6109 H 583.4 1.09575 -2.31143 0
M  V30 6110 H 583.044 2.42018 -4.46531 0
M  V30 6111 H 582.974 3.92367 -3.5122 0
M  V30 6112 H 585.465 2.53044 -2.80673 0
M  V30 6113 H 585.778 4.69334 -6.13959 0
M  V30 6114 H 584.123 4.22637 -5.51728 0
M  V30 6115 H 587.314 3.07134 -3.53251 0
M  V30 6116 H 587.487 4.05782 -5.05218 0
M  V30 6117 N 580.893 1.08022 1.14757 0
M  V30 6118 C 581.823 0.728248 2.21853 0
M  V30 6119 C 582.804 -0.287486 1.67653 0
M  V30 6120 O 583.989 -0.158727 1.9355 0
M  V30 6121 C 581.119 0.132549 3.47047 0
M  V30 6122 C 580.073 1.07619 4.14249 0
M  V30 6123 C 579.399 0.342907 5.33599 0
M  V30 6124 C 580.699 2.41268 4.63235 0
M  V30 6125 H 582.393 1.62365 2.51551 0
M  V30 6126 H 579.939 0.782125 1.20908 0
M  V30 6127 H 581.892 -0.125665 4.21213 0
M  V30 6128 H 580.616 -0.797971 3.16702 0
M  V30 6129 H 579.275 1.31944 3.42033 0
M  V30 6130 H 578.923 -0.59129 4.99513 0
M  V30 6131 H 578.623 0.971955 5.79506 0
M  V30 6132 H 580.147 0.0926538 6.1053 0
M  V30 6133 H 581.561 2.21232 5.28894 0
M  V30 6134 H 579.958 2.9983 5.19829 0
M  V30 6135 H 581.028 3.03079 3.78512 0
M  V30 6136 N 582.371 -1.3172 0.865308 0
M  V30 6137 C 583.334 -2.26918 0.322627 0
M  V30 6138 C 584.334 -1.52031 -0.523751 0
M  V30 6139 O 585.524 -1.70973 -0.333727 0
M  V30 6140 C 582.656 -3.36558 -0.542338 0
M  V30 6141 H 583.849 -2.76432 1.16298 0
M  V30 6142 H 581.402 -1.42573 0.640512 0
M  V30 6143 H 582.137 -2.92329 -1.40407 0
M  V30 6144 H 581.922 -3.92048 0.0636395 0
M  V30 6145 H 583.412 -4.07465 -0.91446 0
M  V30 6146 N 583.85 -0.624285 -1.44708 0
M  V30 6147 C 584.797 0.0847135 -2.30644 0
M  V30 6148 C 585.767 0.843575 -1.43084 0
M  V30 6149 O 586.952 0.825982 -1.71995 0
M  V30 6150 C 584.091 1.06495 -3.28257 0
M  V30 6151 C 583.205 0.305224 -4.3092 0
M  V30 6152 C 582.34 1.27667 -5.1563 0
M  V30 6153 C 581.379 0.505706 -6.10007 0
M  V30 6154 N 580.516 1.42727 -6.8744 0
M  V30 6155 H 585.356 -0.654068 -2.90733 0
M  V30 6156 H 582.893 -0.334334 -1.4325 0
M  V30 6157 H 584.851 1.64658 -3.83332 0
M  V30 6158 H 583.481 1.77094 -2.69884 0
M  V30 6159 H 582.533 -0.392207 -3.78373 0
M  V30 6160 H 583.845 -0.295553 -4.97924 0
M  V30 6161 H 582.999 1.92984 -5.75189 0
M  V30 6162 H 581.738 1.91137 -4.48685 0
M  V30 6163 H 580.743 -0.160999 -5.49564 0
M  V30 6164 H 581.968 -0.124183 -6.78986 0
M  V30 6165 H 579.913 2.04931 -6.23169 0
M  V30 6166 H 579.831 0.880345 -7.50857 0
M  V30 6167 H 581.099 2.0695 -7.51526 0
M  V30 6168 N 585.328 1.53329 -0.364422 0
M  V30 6169 C 586.258 2.28627 0.474543 0
M  V30 6170 C 587.239 1.31009 1.08492 0
M  V30 6171 O 588.424 1.59878 1.10239 0
M  V30 6172 C 585.554 3.07465 1.61501 0
M  V30 6173 C 584.508 4.1276 1.13194 0
M  V30 6174 C 583.834 4.79674 2.36255 0
M  V30 6175 C 585.134 5.21847 0.217507 0
M  V30 6176 H 586.828 2.99005 -0.153656 0
M  V30 6177 H 584.374 1.43803 -0.0753406 0
M  V30 6178 H 586.327 3.58889 2.20855 0
M  V30 6179 H 585.051 2.34775 2.27042 0
M  V30 6180 H 583.71 3.62281 0.56109 0
M  V30 6181 H 583.358 4.03557 3.00251 0
M  V30 6182 H 583.058 5.50827 2.04606 0
M  V30 6183 H 584.582 5.33892 2.96297 0
M  V30 6184 H 585.996 5.6878 0.718493 0
M  V30 6185 H 584.393 6.00099 -0.00806408 0
M  V30 6186 H 585.463 4.7921 -0.740653 0
M  V30 6187 N 586.806 0.0935595 1.57322 0
M  V30 6188 C 588.031 -0.582324 1.99057 0
M  V30 6189 C 588.456 -1.61025 0.972242 0
M  V30 6190 O 587.814 -1.81202 -0.0594622 0
M  V30 6191 C 587.862 -1.20799 3.39765 0
M  V30 6192 O 586.966 -2.32382 3.40694 0
M  V30 6193 H 586.307 -0.147884 0.647323 0
M  V30 6194 H 588.837 0.174516 2.03854 0
M  V30 6195 H 588.847 -1.54966 3.77425 0
M  V30 6196 H 587.522 -0.454914 4.13405 0
M  V30 6197 H 586.099 -1.99845 3.14827 0
M  V30 6198 N 588.284 -1.56567 -0.180126 0
M  V30 6199 C 589.561 -1.7235 -0.924931 0
M  V30 6200 C 589.941 -0.652523 -2.00762 0
M  V30 6201 O 589.289 0.334115 -2.26044 0
M  V30 6202 C 589.499 -3.1523 -1.49771 0
M  V30 6203 C 590.847 -3.75921 -1.97405 0
M  V30 6204 O 591.871 -3.18452 -1.59583 0
M  V30 6205 O 590.73 -4.7681 -2.67048 0
M  V30 6206 H 587.824 -0.703502 -0.434758 0
M  V30 6207 H 590.37 -1.6886 -0.168647 0
M  V30 6208 H 589.142 -3.84656 -0.718027 0
M  V30 6209 H 588.765 -3.23009 -2.31842 0
M  V30 6210 N 589.762 0.448376 -1.51087 0
M  V30 6211 C 591.01 1.19635 -1.62886 0
M  V30 6212 C 591.331 1.91977 -0.342024 0
M  V30 6213 O 590.601 1.85094 0.641636 0
M  V30 6214 H 589.181 0.444598 -0.600285 0
M  V30 6215 H 591.843 0.515138 -1.87969 0
M  V30 6216 H 590.939 1.93194 -2.45117 0
M  V30 6217 N 591.24 1.41047 0.703093 0
M  V30 6218 C 592.486 1.40207 1.46526 0
M  V30 6219 C 592.819 0.00847763 1.94198 0
M  V30 6220 O 592.094 -0.962437 1.69019 0
M  V30 6221 C 592.377 2.40238 2.6825 0
M  V30 6222 C 592.23 3.88674 2.26391 0
M  V30 6223 C 593.549 2.37627 3.70434 0
M  V30 6224 H 590.668 0.510594 0.531472 0
M  V30 6225 H 593.31 1.72271 0.801422 0
M  V30 6226 H 591.46 2.13026 3.24888 0
M  V30 6227 H 593.132 4.2676 1.75138 0
M  V30 6228 H 591.375 4.03903 1.58255 0
M  V30 6229 H 592.046 4.542 3.13698 0
M  V30 6230 H 594.522 2.61759 3.23452 0
M  V30 6231 H 593.398 3.09645 4.53223 0
M  V30 6232 H 593.659 1.39223 4.19606 0
M  V30 6233 N 592.718 -0.936591 1.26751 0
M  V30 6234 C 593.681 -2.01752 1.08761 0
M  V30 6235 C 594.681 -1.60763 0.0344435 0
M  V30 6236 O 595.871 -1.71963 0.278258 0
M  V30 6237 C 593.003 -3.34543 0.655271 0
M  V30 6238 H 594.196 -2.19143 2.04735 0
M  V30 6239 H 591.749 -1.11618 1.09413 0
M  V30 6240 H 592.484 -3.22851 -0.30626 0
M  V30 6241 H 592.269 -3.65647 1.41578 0
M  V30 6242 H 593.759 -4.13944 0.551378 0
M  V30 6243 N 594.196 -1.08629 -1.14182 0
M  V30 6244 C 595.442 -0.818556 -1.85546 0
M  V30 6245 C 595.775 0.654076 -1.82854 0
M  V30 6246 O 595.05 1.48099 -1.26083 0
M  V30 6247 C 595.333 -1.34397 -3.3408 0
M  V30 6248 C 595.186 -2.8821 -3.45333 0
M  V30 6249 C 596.505 -0.971069 -4.29253 0
M  V30 6250 H 593.624 -0.298821 -0.673702 0
M  V30 6251 H 596.266 -1.34629 -1.34071 0
M  V30 6252 H 594.416 -0.895064 -3.78049 0
M  V30 6253 H 596.088 -3.41488 -3.10134 0
M  V30 6254 H 594.331 -3.25756 -2.86471 0
M  V30 6255 H 595.002 -3.20047 -4.49749 0
M  V30 6256 H 597.478 -1.35809 -3.93313 0
M  V30 6257 H 596.354 -1.36586 -5.31635 0
M  V30 6258 H 596.615 0.121659 -4.41933 0
M  V30 6259 N 595.674 1.31259 -0.872281 0
M  V30 6260 C 596.604 2.30929 -0.345554 0
M  V30 6261 C 597.585 1.60449 0.5648 0
M  V30 6262 O 598.77 1.8814 0.481335 0
M  V30 6263 C 595.9 3.44348 0.451823 0
M  V30 6264 C 594.854 4.26435 -0.365641 0
M  V30 6265 C 594.18 5.31785 0.557562 0
M  V30 6266 C 595.48 4.97159 -1.60095 0
M  V30 6267 H 597.174 2.75234 -1.17841 0
M  V30 6268 H 594.72 1.3232 -0.568094 0
M  V30 6269 H 596.673 4.13128 0.830854 0
M  V30 6270 H 595.397 2.98816 1.31821 0
M  V30 6271 H 594.056 3.59326 -0.726649 0
M  V30 6272 H 593.704 4.82502 1.4213 0
M  V30 6273 H 593.404 5.87598 0.0144878 0
M  V30 6274 H 594.928 6.03424 0.933387 0
M  V30 6275 H 596.342 5.58523 -1.29323 0
M  V30 6276 H 594.739 5.62779 -2.08327 0
M  V30 6277 H 595.809 4.24012 -2.35249 0
M  V30 6278 N 597.152 0.631951 1.44375 0
M  V30 6279 C 598.099 -0.0724807 2.30686 0
M  V30 6280 C 599.069 -0.835975 1.43529 0
M  V30 6281 O 600.254 -0.816849 1.7243 0
M  V30 6282 C 597.394 -1.04753 3.28817 0
M  V30 6283 C 596.507 -0.282367 4.31076 0
M  V30 6284 C 595.642 -1.2493 5.163 0
M  V30 6285 C 594.681 -0.473349 6.10267 0
M  V30 6286 N 593.818 -1.39079 6.88187 0
M  V30 6287 H 598.658 0.669477 2.90383 0
M  V30 6288 H 596.195 0.341927 1.43071 0
M  V30 6289 H 598.153 -1.62623 3.842 0
M  V30 6290 H 596.783 -1.75661 2.70819 0
M  V30 6291 H 595.835 0.412268 3.78159 0
M  V30 6292 H 597.147 0.321955 4.9776 0
M  V30 6293 H 596.301 -1.89931 5.76204 0
M  V30 6294 H 595.04 -1.88755 4.49692 0
M  V30 6295 H 594.045 0.190142 5.49471 0
M  V30 6296 H 595.27 0.16019 6.78911 0
M  V30 6297 H 593.216 -2.01623 6.24247 0
M  V30 6298 H 593.133 -0.840513 7.51313 0
M  V30 6299 H 594.401 -2.02961 7.52613 0
M  V30 6300 N 598.631 -1.53133 0.372548 0
M  V30 6301 C 599.877 -2.01654 -0.215277 0
M  V30 6302 C 600.21 -1.25914 -1.47849 0
M  V30 6303 O 599.485 -0.3548 -1.91237 0
M  V30 6304 C 599.768 -3.56609 -0.500187 0
M  V30 6305 C 599.621 -4.43036 0.777145 0
M  V30 6306 C 600.94 -4.20528 -1.29786 0
M  V30 6307 H 598.059 -0.732991 -0.0767686 0
M  V30 6308 H 600.701 -1.83335 0.498814 0
M  V30 6309 H 598.851 -3.7235 -1.10852 0
M  V30 6310 H 600.523 -4.39079 1.41447 0
M  V30 6311 H 598.766 -4.10723 1.39604 0
M  V30 6312 H 599.437 -5.49424 0.532662 0
M  V30 6313 H 601.913 -4.08663 -0.783198 0
M  V30 6314 H 600.789 -5.28962 -1.46596 0
M  V30 6315 H 601.05 -3.77051 -2.30836 0
M  V30 6316 N 600.109 -0.101901 -1.5727 0
M  V30 6317 C 601.357 0.559091 -1.94213 0
M  V30 6318 C 601.678 1.68297 -0.984948 0
M  V30 6319 O 600.948 1.95863 -0.0381975 0
M  V30 6320 H 599.528 0.20952 -0.717015 0
M  V30 6321 H 602.19 -0.166831 -1.94185 0
M  V30 6322 H 601.286 0.96485 -2.96811 0
M  V30 6323 N 601.587 1.56661 0.17182 0
M  V30 6324 C 602.835 1.81606 0.886774 0
M  V30 6325 C 603.156 0.678818 1.82803 0
M  V30 6326 O 602.426 -0.301354 1.93568 0
M  V30 6327 H 601.006 0.669934 0.330451 0
M  V30 6328 H 603.668 1.94142 0.171757 0
M  V30 6329 H 602.764 2.75634 1.46398 0
M  V30 6330 N 603.065 -0.440357 1.51323 0
M  V30 6331 C 604.293 -1.21255 1.67645 0
M  V30 6332 C 604.708 -1.85088 0.37252 0
M  V30 6333 O 604.065 -1.70582 -0.648683 0
M  V30 6334 C 604.116 -2.29881 2.78993 0
M  V30 6335 O 603.837 -1.68659 4.04334 0
M  V30 6336 C 605.338 -3.20214 3.06558 0
M  V30 6337 H 602.558 -0.36558 0.562666 0
M  V30 6338 H 605.102 -0.52214 1.97722 0
M  V30 6339 H 603.257 -2.94643 2.51524 0
M  V30 6340 H 603.671 -2.40426 4.6615 0
M  V30 6341 H 605.145 -3.92575 3.88058 0
M  V30 6342 H 605.622 -3.80794 2.18844 0
M  V30 6343 H 606.228 -2.61156 3.35675 0
M  V30 6344 N 604.543 -1.41418 -0.695603 0
M  V30 6345 C 605.768 -1.44329 -1.48942 0
M  V30 6346 C 606.193 -0.0501579 -1.88033 0
M  V30 6347 O 605.551 0.946598 -1.54626 0
M  V30 6348 C 605.599 -2.3578 -2.72837 0
M  V30 6349 O 604.703 -1.81482 -3.70322 0
M  V30 6350 H 604.044 -0.489838 -0.44828 0
M  V30 6351 H 606.574 -1.85878 -0.855014 0
M  V30 6352 H 606.584 -2.51654 -3.21145 0
M  V30 6353 H 605.259 -3.37005 -2.43722 0
M  V30 6354 H 603.836 -1.75058 -3.29255 0
M  V30 6355 N 606.021 0.929856 -1.27246 0
M  V30 6356 C 607.298 1.65544 -1.04186 0
M  V30 6357 C 607.678 2.06796 0.424097 0
M  V30 6358 O 607.026 1.80053 1.40688 0
M  V30 6359 C 607.236 2.85912 -2.00138 0
M  V30 6360 C 608.584 3.57305 -2.29387 0
M  V30 6361 O 609.608 2.96036 -1.98094 0
M  V30 6362 O 608.467 4.67688 -2.82719 0
M  V30 6363 H 605.561 0.725473 -0.397011 0
M  V30 6364 H 608.107 0.980583 -1.38501 0
M  V30 6365 H 606.879 2.52403 -2.99013 0
M  V30 6366 H 606.502 3.61118 -1.66371 0
M  V30 6367 N 607.499 1.09233 1.13605 0
M  V30 6368 C 608.745 0.828385 1.8511 0
M  V30 6369 C 609.078 -0.64437 1.83198 0
M  V30 6370 O 608.353 -1.47428 1.26867 0
M  V30 6371 C 608.636 1.36167 3.33363 0
M  V30 6372 C 608.489 2.90038 3.438 0
M  V30 6373 C 609.808 0.993819 4.28732 0
M  V30 6374 H 606.927 0.30239 0.672108 0
M  V30 6375 H 609.569 1.35339 1.33355 0
M  V30 6376 H 607.719 0.9151 3.77569 0
M  V30 6377 H 609.391 3.43128 3.08319 0
M  V30 6378 H 607.634 3.27271 2.84739 0
M  V30 6379 H 608.305 3.22428 4.48045 0
M  V30 6380 H 610.781 1.37893 3.92587 0
M  V30 6381 H 609.657 1.39403 5.30903 0
M  V30 6382 H 609.918 -0.0982206 4.41991 0
M  V30 6383 N 608.977 -1.30795 0.87923 0
M  V30 6384 C 609.887 -2.32041 0.345565 0
M  V30 6385 C 610.903 -1.65103 -0.549265 0
M  V30 6386 O 612.079 -1.9645 -0.443763 0
M  V30 6387 C 609.144 -3.43944 -0.436245 0
M  V30 6388 C 608.205 -4.26521 0.48765 0
M  V30 6389 C 607.438 -5.33081 -0.256943 0
M  V30 6390 O 607.661 -5.50762 -1.48381 0
M  V30 6391 O 606.595 -6.00635 0.389985 0
M  V30 6392 H 610.421 -2.79627 1.18501 0
M  V30 6393 H 608.006 -1.3486 0.642885 0
M  V30 6394 H 609.888 -4.12128 -0.879119 0
M  V30 6395 H 608.563 -2.98504 -1.25208 0
M  V30 6396 H 607.47 -3.61057 0.979216 0
M  V30 6397 H 608.803 -4.75551 1.26933 0
M  V30 6398 N 610.455 -0.639598 -1.44038 0
M  V30 6399 C 611.701 -0.147698 -2.02261 0
M  V30 6400 C 612.034 1.23031 -1.50256 0
M  V30 6401 O 611.309 1.81847 -0.690068 0
M  V30 6402 C 611.592 -0.14362 -3.59813 0
M  V30 6403 C 611.445 -1.55458 -4.22082 0
M  V30 6404 C 612.764 0.527317 -4.36929 0
M  V30 6405 H 609.883 -0.0551453 -0.734934 0
M  V30 6406 H 612.525 -0.817688 -1.71505 0
M  V30 6407 H 610.675 0.426898 -3.86147 0
M  V30 6408 H 612.347 -2.17464 -4.06826 0
M  V30 6409 H 610.59 -2.10594 -3.79253 0
M  V30 6410 H 611.261 -1.50369 -5.31124 0
M  V30 6411 H 613.737 0.0420504 -4.16079 0
M  V30 6412 H 612.613 0.499389 -5.46624 0
M  V30 6413 H 612.874 1.59914 -4.12165 0
M  V30 6414 N 611.933 1.52934 -0.380664 0
M  V30 6415 C 612.881 2.27727 0.47361 0
M  V30 6416 C 613.875 1.31288 1.0705 0
M  V30 6417 O 615.081 1.4886 1.01197 0
M  V30 6418 H 611.456 0.732189 0.171475 0
M  V30 6419 H 613.427 2.97864 -0.178785 0
M  V30 6420 C 612.176 3.0904 1.59341 0
M  V30 6421 H 611.499 3.831 1.14343 0
M  V30 6422 H 612.939 3.64527 2.16555 0
M  V30 6423 C 611.398 2.20813 2.54447 0
M  V30 6424 O 611.928 1.82907 3.57642 0
M  V30 6425 N 610.134 1.85145 2.23986 0
M  V30 6426 H 609.681 2.16169 1.40103 0
M  V30 6427 H 609.639 1.26402 2.87871 0
M  V30 6428 N 613.412 0.11024 1.57214 0
M  V30 6429 C 614.322 -0.857077 2.18383 0
M  V30 6430 C 615.338 -1.29915 1.1575 0
M  V30 6431 O 616.514 -1.36394 1.48184 0
M  V30 6432 C 613.579 -2.09264 2.76423 0
M  V30 6433 C 612.64 -1.70333 3.94063 0
M  V30 6434 C 611.873 -2.87999 4.49324 0
M  V30 6435 O 612.096 -4.0317 4.03497 0
M  V30 6436 O 611.03 -2.6559 5.40135 0
M  V30 6437 H 614.856 -0.366561 3.0148 0
M  V30 6438 H 612.441 -0.114914 1.48957 0
M  V30 6439 H 614.323 -2.81644 3.13456 0
M  V30 6440 H 612.998 -2.57339 1.96363 0
M  V30 6441 H 611.905 -0.950864 3.61814 0
M  V30 6442 H 613.238 -1.27007 4.75531 0
M  V30 6443 N 614.89 -1.56749 -0.16351 0
M  V30 6444 C 615.837 -1.97011 -1.2023 0
M  V30 6445 C 616.807 -0.835186 -1.43575 0
M  V30 6446 O 617.992 -1.09594 -1.56185 0
M  V30 6447 C 615.132 -2.34186 -2.53478 0
M  V30 6448 C 614.245 -3.60893 -2.37446 0
M  V30 6449 C 613.38 -3.87245 -3.63614 0
M  V30 6450 C 612.419 -5.07274 -3.42548 0
M  V30 6451 N 611.556 -5.29719 -4.60806 0
M  V30 6452 H 616.396 -2.85562 -0.851958 0
M  V30 6453 H 613.933 -1.41292 -0.409257 0
M  V30 6454 H 615.891 -2.53764 -3.31149 0
M  V30 6455 H 614.521 -1.48736 -2.86492 0
M  V30 6456 H 613.573 -3.49185 -1.50911 0
M  V30 6457 H 614.885 -4.48722 -2.1783 0
M  V30 6458 H 614.039 -4.07232 -4.49719 0
M  V30 6459 H 612.778 -2.97806 -3.86216 0
M  V30 6460 H 611.783 -4.87177 -2.5483 0
M  V30 6461 H 613.008 -5.98251 -3.2136 0
M  V30 6462 H 610.954 -4.43233 -4.83612 0
M  V30 6463 H 610.871 -6.11786 -4.44132 0
M  V30 6464 H 612.139 -5.54192 -5.48171 0
M  V30 6465 N 616.368 0.432326 -1.51554 0
M  V30 6466 C 617.315 1.52512 -1.7323 0
M  V30 6467 C 618.285 1.55863 -0.5741 0
M  V30 6468 O 619.47 1.72796 -0.809093 0
M  V30 6469 C 616.61 2.90183 -1.86783 0
M  V30 6470 C 615.723 2.96322 -3.14352 0
M  V30 6471 C 614.858 4.25147 -3.18471 0
M  V30 6472 C 613.897 4.25172 -4.40335 0
M  V30 6473 N 613.034 5.45529 -4.41975 0
M  V30 6474 H 617.874 1.33332 -2.66508 0
M  V30 6475 H 615.411 0.647613 -1.32077 0
M  V30 6476 H 617.369 3.70071 -1.92623 0
M  V30 6477 H 615.999 3.0791 -0.969087 0
M  V30 6478 H 615.051 2.09066 -3.17798 0
M  V30 6479 H 616.363 2.92203 -4.04251 0
M  V30 6480 H 615.517 5.13411 -3.23255 0
M  V30 6481 H 614.256 4.31929 -2.2647 0
M  V30 6482 H 613.261 3.353 -4.35723 0
M  V30 6483 H 614.486 4.20049 -5.33606 0
M  V30 6484 H 612.432 5.53024 -3.52847 0
M  V30 6485 H 612.349 5.43311 -5.25689 0
M  V30 6486 H 613.617 6.35812 -4.50958 0
M  V30 6487 N 617.846 1.41785 0.688094 0
M  V30 6488 C 619.123 1.32031 1.44316 0
M  V30 6489 C 619.503 -0.0486079 2.11044 0
M  V30 6490 O 618.851 -1.06332 2.02252 0
M  V30 6491 C 619.061 2.47906 2.45649 0
M  V30 6492 C 620.409 2.89415 3.10683 0
M  V30 6493 O 621.433 2.477 2.55975 0
M  V30 6494 O 620.292 3.61573 4.09789 0
M  V30 6495 H 617.386 0.519994 0.643067 0
M  V30 6496 H 619.932 1.53765 0.71794 0
M  V30 6497 H 618.704 3.39222 1.95048 0
M  V30 6498 H 618.327 2.28089 3.25671 0
M  V30 6499 N 619.324 -0.923095 1.27737 0
M  V30 6500 C 620.74 -1.19985 1.05241 0
M  V30 6501 C 620.94 -2.00391 -0.21113 0
M  V30 6502 O 619.996 -2.35324 -0.915366 0
M  V30 6503 C 621.309 -1.94352 2.29451 0
M  V30 6504 C 622.857 -2.07273 2.34536 0
M  V30 6505 C 623.332 -2.85046 3.58487 0
M  V30 6506 N 624.823 -2.92612 3.59072 0
M  V30 6507 C 625.558 -3.53266 4.51654 0
M  V30 6508 N 625.054 -4.15274 5.54545 0
M  V30 6509 N 626.847 -3.50714 4.39268 0
M  V30 6510 H 618.998 -0.386042 2.08862 0
M  V30 6511 H 621.261 -0.233407 0.918817 0
M  V30 6512 H 620.967 -1.42692 3.21453 0
M  V30 6513 H 620.841 -2.94947 2.3513 0
M  V30 6514 H 623.228 -2.58117 1.43037 0
M  V30 6515 H 623.309 -1.05884 2.32857 0
M  V30 6516 H 622.953 -2.34884 4.50324 0
M  V30 6517 H 622.883 -3.8673 3.57418 0
M  V30 6518 H 625.374 -2.48547 2.84663 0
M  V30 6519 H 625.687 -4.59507 6.21348 0
M  V30 6520 H 624.032 -4.13806 5.58382 0
M  V30 6521 H 627.223 -3.01475 3.58093 0
M  V30 6522 H 627.396 -3.97693 5.1161 0
M  V30 6523 N 620.802 -1.09834 -1.13024 0
M  V30 6524 C 622.048 -0.83819 -1.84668 0
M  V30 6525 C 622.381 0.634645 -1.83537 0
M  V30 6526 O 621.656 1.46753 -1.27647 0
M  V30 6527 C 621.939 -1.37933 -3.32636 0
M  V30 6528 C 621.792 -2.91857 -3.42257 0
M  V30 6529 C 623.111 -1.01654 -4.28199 0
M  V30 6530 H 620.23 -0.30595 -0.670495 0
M  V30 6531 H 622.872 -1.36044 -1.32635 0
M  V30 6532 H 621.022 -0.935111 -3.77078 0
M  V30 6533 H 622.694 -3.44759 -3.06495 0
M  V30 6534 H 620.937 -3.28776 -2.83 0
M  V30 6535 H 621.608 -3.24799 -4.46329 0
M  V30 6536 H 624.084 -1.39973 -3.9185 0
M  V30 6537 H 622.96 -1.42217 -5.30156 0
M  V30 6538 H 623.221 0.0747794 -4.42037 0
M  V30 6539 N 622.28 1.30327 -0.886154 0
M  V30 6540 C 623.508 2.00254 -0.520176 0
M  V30 6541 C 623.923 1.66419 0.891637 0
M  V30 6542 O 623.28 0.901951 1.58654 0
M  V30 6543 C 623.331 3.54916 -0.686775 0
M  V30 6544 O 623.052 3.87547 -2.04301 0
M  V30 6545 C 624.553 4.42115 -0.323945 0
M  V30 6546 H 621.773 0.640204 -0.200947 0
M  V30 6547 H 624.317 1.66183 -1.19178 0
M  V30 6548 H 622.472 3.8735 -0.0625273 0
M  V30 6549 H 622.886 4.82247 -2.06249 0
M  V30 6550 H 624.36 5.49808 -0.491407 0
M  V30 6551 H 624.837 4.32953 0.73811 0
M  V30 6552 H 625.443 4.15129 -0.924565 0
M  V30 6553 N 623.758 0.647228 1.43697 0
M  V30 6554 C 625.035 0.0883758 1.954 0
M  V30 6555 C 625.415 -1.39006 1.58873 0
M  V30 6556 O 624.763 -2.11255 0.87083 0
M  V30 6557 C 624.973 0.328263 3.47453 0
M  V30 6558 C 626.321 0.230009 4.23977 0
M  V30 6559 O 627.345 0.260496 3.55246 0
M  V30 6560 O 626.204 0.148615 5.46298 0
M  V30 6561 H 623.298 -0.0130683 0.826897 0
M  V30 6562 H 625.844 0.72005 1.53666 0
M  V30 6563 H 624.616 1.3535 3.67146 0
M  V30 6564 H 624.239 -0.336772 3.96171 0
M  V30 6565 N 625.236 -1.5273 0.388769 0
M  V30 6566 C 626.199 -2.25043 -0.434544 0
M  V30 6567 C 627.199 -1.26661 -0.990644 0
M  V30 6568 O 628.389 -1.50762 -0.872731 0
M  V30 6569 C 625.521 -3.00507 -1.60961 0
M  V30 6570 H 626.714 -2.99242 0.198549 0
M  V30 6571 H 624.267 -1.55664 0.140875 0
M  V30 6572 H 625.002 -2.30607 -2.28015 0
M  V30 6573 H 624.787 -3.72716 -1.21757 0
M  V30 6574 H 626.277 -3.55413 -2.19251 0
M  V30 6575 N 626.714 -0.118576 -1.57153 0
M  V30 6576 C 627.644 0.828436 -2.1831 0
M  V30 6577 C 628.625 1.27758 -1.12303 0
M  V30 6578 O 629.81 1.34026 -1.40537 0
M  V30 6579 C 626.94 2.07876 -2.78217 0
M  V30 6580 C 625.894 1.76742 -3.89803 0
M  V30 6581 C 625.22 3.08801 -4.36516 0
M  V30 6582 C 626.52 1.03606 -5.11921 0
M  V30 6583 H 628.214 0.318824 -2.97698 0
M  V30 6584 H 625.76 0.151911 -1.43196 0
M  V30 6585 H 627.713 2.74584 -3.19659 0
M  V30 6586 H 626.437 2.61161 -1.96118 0
M  V30 6587 H 625.096 1.12424 -3.48936 0
M  V30 6588 H 624.744 3.6002 -3.51276 0
M  V30 6589 H 624.444 2.88743 -5.11763 0
M  V30 6590 H 625.968 3.76627 -4.80608 0
M  V30 6591 H 627.382 1.60467 -5.50385 0
M  V30 6592 H 625.779 0.936454 -5.92748 0
M  V30 6593 H 626.849 0.0227421 -4.84895 0
M  V30 6594 N 628.193 1.56834 0.155195 0
M  V30 6595 C 629.141 1.98584 1.21107 0
M  V30 6596 C 630.135 0.876987 1.44932 0
M  V30 6597 O 631.341 1.06215 1.45322 0
M  V30 6598 H 627.716 0.632039 0.407469 0
M  V30 6599 H 629.687 2.86561 0.832195 0
M  V30 6600 C 628.436 2.37555 2.53895 0
M  V30 6601 H 627.759 3.22428 2.3639 0
M  V30 6602 H 629.199 2.70598 3.26424 0
M  V30 6603 C 627.658 1.22507 3.13837 0
M  V30 6604 O 628.188 0.521388 3.98302 0
M  V30 6605 N 626.394 0.991444 2.73164 0
M  V30 6606 H 625.941 1.56544 2.04577 0
M  V30 6607 H 625.899 0.223546 3.13604 0
M  V30 6608 N 629.671 -0.424282 1.51781 0
M  V30 6609 C 630.634 -1.49848 1.73431 0
M  V30 6610 C 631.634 -1.49016 0.604225 0
M  V30 6611 O 632.824 -1.50808 0.871935 0
M  V30 6612 C 629.956 -2.89332 1.80277 0
M  V30 6613 H 631.149 -1.3195 2.69312 0
M  V30 6614 H 628.702 -0.653809 1.41968 0
M  V30 6615 H 629.437 -3.12618 0.862568 0
M  V30 6616 H 629.222 -2.9134 2.62419 0
M  V30 6617 H 630.712 -3.67233 1.98821 0
M  V30 6618 N 631.149 -1.42148 -0.680565 0
M  V30 6619 C 632.377 -1.45696 -1.46902 0
M  V30 6620 C 632.792 -0.0665858 -1.88683 0
M  V30 6621 O 632.149 0.917436 -1.57764 0
M  V30 6622 C 632.2 -2.37898 -2.72188 0
M  V30 6623 O 631.921 -3.71526 -2.32163 0
M  V30 6624 C 633.422 -2.50407 -3.65802 0
M  V30 6625 H 630.642 -0.495729 -0.45221 0
M  V30 6626 H 633.186 -1.866 -0.836709 0
M  V30 6627 H 631.341 -2.00263 -3.31622 0
M  V30 6628 H 631.755 -4.20849 -3.13027 0
M  V30 6629 H 633.229 -3.19056 -4.50452 0
M  V30 6630 H 633.706 -1.5401 -4.11312 0
M  V30 6631 H 634.312 -2.8874 -3.12265 0
M  V30 6632 N 632.627 0.916307 -1.28225 0
M  V30 6633 C 634.043 1.19425 -1.05876 0
M  V30 6634 C 634.243 2.005 0.2005 0
M  V30 6635 O 633.299 2.35806 0.902873 0
M  V30 6636 C 634.612 1.93133 -2.30478 0
M  V30 6637 C 636.16 2.06026 -2.35632 0
M  V30 6638 C 636.635 2.83141 -3.59994 0
M  V30 6639 N 638.126 2.90704 -3.60618 0
M  V30 6640 C 638.861 3.50865 -4.53521 0
M  V30 6641 N 638.357 4.12327 -5.56739 0
M  V30 6642 N 640.15 3.48379 -4.41122 0
M  V30 6643 H 632.301 0.37496 -2.09064 0
M  V30 6644 H 634.564 0.228531 -0.920042 0
M  V30 6645 H 634.27 1.40985 -3.22205 0
M  V30 6646 H 634.144 2.93696 -2.36691 0
M  V30 6647 H 636.531 2.57355 -1.44404 0
M  V30 6648 H 636.612 1.04647 -2.33415 0
M  V30 6649 H 636.256 2.32492 -4.51564 0
M  V30 6650 H 636.186 3.84829 -3.59464 0
M  V30 6651 H 638.677 2.47034 -2.85977 0
M  V30 6652 H 638.99 4.56205 -6.23776 0
M  V30 6653 H 637.335 4.10839 -5.60568 0
M  V30 6654 H 640.526 2.99572 -3.59686 0
M  V30 6655 H 640.699 3.94974 -5.13712 0
M  V30 6656 N 634.105 1.10431 1.1244 0
M  V30 6657 C 635.068 0.756542 2.16354 0
M  V30 6658 C 636.068 -0.21899 1.59302 0
M  V30 6659 O 637.258 0.00415969 1.742 0
M  V30 6660 C 634.39 0.120612 3.40687 0
M  V30 6661 H 635.583 1.67696 2.48632 0
M  V30 6662 H 633.136 0.904832 1.27446 0
M  V30 6663 H 633.871 -0.810536 3.14008 0
M  V30 6664 H 633.656 0.822693 3.83372 0
M  V30 6665 H 635.146 -0.106945 4.17463 0
M  V30 6666 N 635.583 -1.29855 0.893053 0
M  V30 6667 C 636.546 -2.26183 0.370687 0
M  V30 6668 C 637.546 -1.53108 -0.491385 0
M  V30 6669 O 638.736 -1.71643 -0.297386 0
M  V30 6670 C 635.868 -3.37633 -0.470827 0
M  V30 6671 H 637.061 -2.73903 1.22135 0
M  V30 6672 H 634.614 -1.41183 0.67061 0
M  V30 6673 H 635.349 -2.95241 -1.34175 0
M  V30 6674 H 635.134 -3.91825 0.146784 0
M  V30 6675 H 636.624 -4.09313 -0.827825 0
M  V30 6676 N 637.061 -0.65484 -1.43351 0
M  V30 6677 C 638.307 -0.169142 -2.02093 0
M  V30 6678 C 638.64 1.21431 -1.51553 0
M  V30 6679 O 637.915 1.81105 -0.709317 0
M  V30 6680 C 638.198 -0.181775 -3.59641 0
M  V30 6681 C 638.051 -1.59926 -4.20409 0
M  V30 6682 C 639.37 0.480945 -4.37464 0
M  V30 6683 H 636.489 -0.0629371 -0.734308 0
M  V30 6684 H 639.131 -0.835833 -1.70628 0
M  V30 6685 H 637.281 0.385918 -3.86578 0
M  V30 6686 H 638.953 -2.21766 -4.04497 0
M  V30 6687 H 637.196 -2.14605 -3.76998 0
M  V30 6688 H 637.867 -1.55994 -5.295 0
M  V30 6689 H 640.343 -0.00208273 -4.161 0
M  V30 6690 H 639.219 0.441384 -5.47122 0
M  V30 6691 H 639.48 1.55533 -4.13838 0
M  V30 6692 N 638.539 1.52521 -0.396863 0
M  V30 6693 C 639.449 2.30403 0.44178 0
M  V30 6694 C 640.465 1.37625 1.06468 0
M  V30 6695 O 641.641 1.70697 1.06886 0
M  V30 6696 C 638.706 3.1013 1.54986 0
M  V30 6697 C 637.767 4.18628 0.951279 0
M  V30 6698 C 637 4.94543 2.00655 0
M  V30 6699 O 637.223 4.70629 3.22281 0
M  V30 6700 O 636.157 5.797 1.61962 0
M  V30 6701 H 639.983 3.03087 -0.192892 0
M  V30 6702 H 637.568 1.48537 -0.16038 0
M  V30 6703 H 639.45 3.59816 2.19341 0
M  V30 6704 H 638.125 2.40251 2.16935 0
M  V30 6705 H 637.032 3.73119 0.270773 0
M  V30 6706 H 638.365 4.90763 0.375887 0
M  V30 6707 N 640.017 0.126909 1.57088 0
M  V30 6708 C 640.927 -0.833867 2.1928 0
M  V30 6709 C 641.943 -1.2868 1.17122 0
M  V30 6710 O 643.119 -1.34815 1.49622 0
M  V30 6711 C 640.184 -2.0632 2.78627 0
M  V30 6712 C 639.245 -1.66143 3.95847 0
M  V30 6713 C 638.478 -2.83217 4.52354 0
M  V30 6714 O 638.701 -3.98868 4.0775 0
M  V30 6715 O 637.635 -2.59846 5.42922 0
M  V30 6716 H 641.461 -0.334564 3.01852 0
M  V30 6717 H 639.046 -0.0991091 1.49071 0
M  V30 6718 H 640.928 -2.78304 3.16425 0
M  V30 6719 H 639.603 -2.55242 1.99082 0
M  V30 6720 H 638.51 -0.912435 3.62802 0
M  V30 6721 H 639.843 -1.21957 4.76852 0
M  V30 6722 N 641.495 -1.56914 -0.146875 0
M  V30 6723 C 642.743 -1.82994 -0.85777 0
M  V30 6724 C 643.064 -0.707814 -1.817 0
M  V30 6725 O 642.334 0.270521 -1.94023 0
M  V30 6726 H 640.914 -0.675106 -0.319751 0
M  V30 6727 H 643.576 -1.9439 -0.140849 0
M  V30 6728 H 642.672 -2.77928 -1.41994 0
M  V30 6729 N 642.974 0.416227 -1.52004 0
M  V30 6730 C 644.223 1.16088 -1.64944 0
M  V30 6731 C 644.536 1.91835 -0.381928 0
M  V30 6732 O 645.742 2.6867 -0.391013 0
M  V30 6733 C 644.198 2.1124 -2.91386 0
M  V30 6734 C 643.806 1.41042 -4.25219 0
M  V30 6735 C 645.55 2.86008 -3.13688 0
M  V30 6736 C 643.457 2.34801 -5.42791 0
M  V30 6737 H 642.387 0.437041 -0.61442 0
M  V30 6738 H 645.038 0.425971 -1.78487 0
M  V30 6739 H 643.42 2.88254 -2.71525 0
M  V30 6740 H 644.594 0.694416 -4.55538 0
M  V30 6741 H 642.909 0.78344 -4.08964 0
M  V30 6742 H 645.506 3.56286 -3.98703 0
M  V30 6743 H 645.849 3.48556 -2.27628 0
M  V30 6744 H 646.382 2.16095 -3.33988 0
M  V30 6745 H 643.121 1.7691 -6.31176 0
M  V30 6746 H 642.641 3.04395 -5.16821 0
M  V30 6747 H 644.32 2.9548 -5.75587 0
M  V30 6748 N 644.452 1.42507 0.673017 0
M  V30 6749 C 645.698 1.43284 1.43519 0
M  V30 6750 C 646.031 0.049668 1.94136 0
M  V30 6751 O 645.306 -0.926369 1.71022 0
M  V30 6752 C 645.589 2.45874 2.63093 0
M  V30 6753 C 645.442 3.93388 2.18096 0
M  V30 6754 C 646.761 2.45431 3.6531 0
M  V30 6755 H 643.88 0.521752 0.520522 0
M  V30 6756 H 646.522 1.73932 0.764701 0
M  V30 6757 H 644.672 2.19869 3.20296 0
M  V30 6758 H 646.344 4.30379 1.66046 0
M  V30 6759 H 644.587 4.07169 1.49652 0
M  V30 6760 H 645.258 4.60752 3.03993 0
M  V30 6761 H 647.734 2.68561 3.17827 0
M  V30 6762 H 646.61 3.19189 4.46553 0
M  V30 6763 H 646.871 1.48092 4.16559 0
M  V30 6764 N 645.93 -0.909495 1.28709 0
M  V30 6765 C 646.86 -2.0291 1.15542 0
M  V30 6766 C 647.841 -1.7002 0.0521017 0
M  V30 6767 O 649.026 -1.92835 0.229849 0
M  V30 6768 C 646.156 -3.37458 0.820935 0
M  V30 6769 C 645.11 -3.84524 1.87949 0
M  V30 6770 C 644.436 -5.16086 1.39854 0
M  V30 6771 C 645.736 -4.05918 3.28676 0
M  V30 6772 H 647.43 -2.14183 2.09203 0
M  V30 6773 H 644.976 -1.02913 1.00722 0
M  V30 6774 H 646.929 -4.1528 0.715571 0
M  V30 6775 H 645.653 -3.26249 -0.151374 0
M  V30 6776 H 644.312 -3.08911 1.97408 0
M  V30 6777 H 643.96 -5.01284 0.41518 0
M  V30 6778 H 643.66 -5.48547 2.1064 0
M  V30 6779 H 645.184 -5.96459 1.30649 0
M  V30 6780 H 646.598 -4.74252 3.22115 0
M  V30 6781 H 644.995 -4.49717 3.97334 0
M  V30 6782 H 646.065 -3.10583 3.72379 0
M  V30 6783 N 647.408 -1.11026 -1.11852 0
M  V30 6784 C 648.656 -0.854769 -1.83134 0
M  V30 6785 C 648.977 0.621375 -1.84835 0
M  V30 6786 O 648.247 1.45129 -1.31584 0
M  V30 6787 H 646.827 -0.313229 -0.678157 0
M  V30 6788 H 649.489 -1.40178 -1.35411 0
M  V30 6789 H 648.585 -1.22311 -2.87135 0
M  V30 6790 N 648.886 1.2938 -0.899927 0
M  V30 6791 C 650.134 1.95164 -0.524924 0
M  V30 6792 C 650.455 1.71292 0.931888 0
M  V30 6793 O 649.725 1.04481 1.65712 0
M  V30 6794 H 648.305 0.722133 -0.191135 0
M  V30 6795 H 650.967 1.57628 -1.14627 0
M  V30 6796 H 650.063 3.0397 -0.707711 0
M  V30 6797 N 650.364 0.662433 1.43002 0
M  V30 6798 C 651.612 0.179237 2.01304 0
M  V30 6799 C 651.933 -1.21428 1.52579 0
M  V30 6800 O 651.203 -1.81294 0.742252 0
M  V30 6801 H 649.783 0.0632725 0.744316 0
M  V30 6802 H 652.445 0.856169 1.75088 0
M  V30 6803 H 651.541 0.170957 3.11631 0
M  V30 6804 N 651.842 -1.52309 0.404946 0
M  V30 6805 C 653.082 -2.03677 -0.171779 0
M  V30 6806 C 653.446 -1.28419 -1.42733 0
M  V30 6807 O 654.647 -1.69991 -2.08222 0
M  V30 6808 C 652.918 -3.54951 -0.417701 0
M  V30 6809 S 654.477 -4.28114 -0.962472 0
M  V30 6810 H 651.295 -0.709445 -0.0469912 0
M  V30 6811 H 653.897 -1.874 0.556901 0
M  V30 6812 H 652.601 -4.07306 0.50295 0
M  V30 6813 H 652.132 -3.75462 -1.17437 0
M  V30 6814 H 654.147 -4.42589 -2.24342 0
M  V30 6815 N 653.32 -0.135238 -1.57019 0
M  V30 6816 C 654.283 0.794707 -2.14981 0
M  V30 6817 C 655.283 1.18342 -1.08866 0
M  V30 6818 O 656.473 1.10627 -1.34563 0
M  V30 6819 C 653.605 2.07685 -2.70333 0
M  V30 6820 H 654.798 0.290696 -2.98488 0
M  V30 6821 H 652.351 0.114128 -1.55883 0
M  V30 6822 H 653.086 2.6248 -1.9046 0
M  V30 6823 H 652.871 1.80745 -3.47957 0
M  V30 6824 H 654.361 2.74127 -3.1503 0
M  V30 6825 N 654.798 1.5699 0.138552 0
M  V30 6826 C 655.728 2.01933 1.17241 0
M  V30 6827 C 656.709 0.90033 1.44319 0
M  V30 6828 O 657.894 1.16872 1.55095 0
M  V30 6829 C 655.024 2.40711 2.50351 0
M  V30 6830 C 653.978 3.55874 2.37776 0
M  V30 6831 C 653.304 3.80491 3.75674 0
M  V30 6832 C 654.604 4.8826 1.85472 0
M  V30 6833 H 656.298 2.88551 0.798672 0
M  V30 6834 H 653.844 1.3882 0.382743 0
M  V30 6835 H 655.797 2.70754 3.22909 0
M  V30 6836 H 654.521 1.5104 2.89576 0
M  V30 6837 H 653.18 3.2601 1.67669 0
M  V30 6838 H 652.828 2.88057 4.12349 0
M  V30 6839 H 652.528 4.57998 3.68119 0
M  V30 6840 H 654.052 4.12967 4.49767 0
M  V30 6841 H 655.466 5.16965 2.4783 0
M  V30 6842 H 653.863 5.69631 1.88787 0
M  V30 6843 H 654.933 4.78071 0.810935 0
M  V30 6844 N 656.276 -0.40816 1.52223 0
M  V30 6845 C 657.206 -1.5042 1.78595 0
M  V30 6846 C 658.187 -1.57723 0.636974 0
M  V30 6847 O 659.372 -1.72982 0.882664 0
M  V30 6848 C 656.502 -2.88232 1.93751 0
M  V30 6849 C 655.456 -2.95779 3.09352 0
M  V30 6850 C 654.782 -4.35855 3.09732 0
M  V30 6851 C 656.082 -2.67175 4.48793 0
M  V30 6852 H 657.776 -1.28601 2.70374 0
M  V30 6853 H 655.322 -0.617221 1.30101 0
M  V30 6854 H 657.275 -3.64895 2.10783 0
M  V30 6855 H 655.999 -3.11347 0.986443 0
M  V30 6856 H 654.658 -2.21561 2.92072 0
M  V30 6857 H 654.306 -4.55981 2.12346 0
M  V30 6858 H 654.006 -4.41829 3.87377 0
M  V30 6859 H 655.53 -5.14451 3.28895 0
M  V30 6860 H 656.944 -3.3356 4.66273 0
M  V30 6861 H 655.341 -2.84523 5.28362 0
M  V30 6862 H 656.411 -1.62609 4.56822 0
M  V30 6863 N 657.755 -1.42862 -0.66545 0
M  V30 6864 C 659.171 -1.25993 -0.979687 0
M  V30 6865 C 659.371 -0.170831 -2.00775 0
M  V30 6866 O 658.427 0.454827 -2.4837 0
M  V30 6867 C 659.74 -2.62005 -1.47559 0
M  V30 6868 C 661.288 -2.69437 -1.59288 0
M  V30 6869 C 661.763 -4.05838 -2.12272 0
M  V30 6870 N 663.254 -4.0784 -2.19592 0
M  V30 6871 C 663.989 -5.10205 -2.61684 0
M  V30 6872 N 663.485 -6.22949 -3.03161 0
M  V30 6873 N 665.278 -4.9756 -2.61516 0
M  V30 6874 H 657.429 -2.12395 0.0150493 0
M  V30 6875 H 659.692 -0.946355 -0.0558187 0
M  V30 6876 H 659.398 -3.42605 -0.794654 0
M  V30 6877 H 659.272 -2.86566 -2.45275 0
M  V30 6878 H 661.659 -1.89178 -2.26486 0
M  V30 6879 H 661.74 -2.48655 -0.600374 0
M  V30 6880 H 661.384 -4.86559 -1.4568 0
M  V30 6881 H 661.314 -4.23977 -3.12331 0
M  V30 6882 H 663.805 -3.26452 -1.90361 0
M  V30 6883 H 664.118 -6.96899 -3.33993 0
M  V30 6884 H 662.463 -6.2644 -3.00995 0
M  V30 6885 H 665.654 -4.08551 -2.28481 0
M  V30 6886 H 665.827 -5.77468 -2.93999 0
M  V30 6887 N 659.233 0.902656 -1.29189 0
M  V30 6888 C 660.473 1.6672 -1.18254 0
M  V30 6889 C 660.837 1.90199 0.262336 0
M  V30 6890 O 662.038 2.6421 0.494612 0
M  V30 6891 C 660.309 2.98178 -1.9704 0
M  V30 6892 S 661.868 3.89226 -2.02605 0
M  V30 6893 H 658.686 0.572432 -0.421714 0
M  V30 6894 H 661.288 1.07279 -1.63436 0
M  V30 6895 H 659.992 2.788 -3.01163 0
M  V30 6896 H 659.523 3.62661 -1.5245 0
M  V30 6897 H 661.538 4.82913 -1.14059 0
M  V30 6898 N 660.711 1.11618 1.11262 0
M  V30 6899 C 661.96 0.860934 1.82403 0
M  V30 6900 C 662.273 -0.615303 1.8567 0
M  V30 6901 O 663.479 -0.986861 2.52929 0
M  V30 6902 C 661.935 1.49048 3.27586 0
M  V30 6903 C 661.543 3.00089 3.32642 0
M  V30 6904 C 663.287 1.31515 4.03614 0
M  V30 6905 C 661.194 3.56019 4.72234 0
M  V30 6906 H 660.124 0.318423 0.683464 0
M  V30 6907 H 662.775 1.34165 1.25188 0
M  V30 6908 H 661.157 0.937434 3.84744 0
M  V30 6909 H 662.331 3.61813 2.85356 0
M  V30 6910 H 660.646 3.16919 2.70096 0
M  V30 6911 H 663.243 1.70732 5.0671 0
M  V30 6912 H 663.586 0.257917 4.155 0
M  V30 6913 H 664.119 1.83694 3.52848 0
M  V30 6914 H 660.858 4.61463 4.65545 0
M  V30 6915 H 660.378 2.99066 5.19923 0
M  V30 6916 H 662.057 3.54568 5.41193 0
M  V30 6917 N 662.189 -1.289 0.906776 0
M  V30 6918 C 663.6 -1.77336 0.58384 0
M  V30 6919 C 663.951 -1.74304 -0.900697 0
M  V30 6920 O 663.076 -1.33335 -1.70443 0
M  V30 6921 C 663.671 -3.22019 1.05304 0
M  V30 6922 C 662.23 -3.68205 0.781148 0
M  V30 6923 C 661.377 -2.48837 1.22373 0
M  V30 6924 H 664.328 -1.15462 1.08877 0
M  V30 6925 H 664.349 -3.78481 0.391414 0
M  V30 6926 H 663.861 -3.24194 2.13353 0
M  V30 6927 H 661.962 -3.71497 -0.28643 0
M  V30 6928 H 662.075 -4.58675 1.384 0
M  V30 6929 H 660.439 -2.46461 0.642594 0
M  V30 6930 H 661.222 -2.53736 2.31242 0
M  V30 6931 N 663.667 -0.670007 -1.42649 0
M  V30 6932 C 664.63 0.00204659 -2.292 0
M  V30 6933 C 665.63 0.733817 -1.4308 0
M  V30 6934 O 666.82 0.57254 -1.64522 0
M  V30 6935 C 663.952 1.01359 -3.25483 0
M  V30 6936 H 665.145 -0.759696 -2.90118 0
M  V30 6937 H 662.698 -0.432105 -1.50208 0
M  V30 6938 H 663.433 1.80399 -2.69493 0
M  V30 6939 H 663.218 0.492323 -3.88997 0
M  V30 6940 H 664.708 1.4824 -3.90403 0
M  V30 6941 N 665.145 1.52092 -0.413018 0
M  V30 6942 C 666.075 2.30021 0.401567 0
M  V30 6943 C 667.056 1.34395 1.04269 0
M  V30 6944 O 668.241 1.63304 1.05097 0
M  V30 6945 C 665.371 3.12447 1.51638 0
M  V30 6946 C 664.325 4.16153 1.00005 0
M  V30 6947 C 663.651 4.86948 2.20875 0
M  V30 6948 C 664.951 5.22275 0.0513757 0
M  V30 6949 H 666.645 2.98365 -0.248704 0
M  V30 6950 H 664.191 1.4349 -0.121052 0
M  V30 6951 H 666.144 3.65733 2.09326 0
M  V30 6952 H 664.868 2.41879 2.19458 0
M  V30 6953 H 663.527 3.63882 0.445549 0
M  V30 6954 H 663.175 4.12905 2.8726 0
M  V30 6955 H 662.875 5.57057 1.86978 0
M  V30 6956 H 664.399 5.43048 2.79162 0
M  V30 6957 H 665.813 5.70778 0.537176 0
M  V30 6958 H 664.21 5.9977 -0.198977 0
M  V30 6959 H 665.28 4.76611 -0.892736 0
M  V30 6960 N 666.623 0.143563 1.56945 0
M  V30 6961 C 667.9 -0.553285 1.87612 0
M  V30 6962 C 668.28 -1.83195 1.04894 0
M  V30 6963 O 667.628 -2.28102 0.134773 0
M  V30 6964 C 667.838 -0.822055 3.3918 0
M  V30 6965 C 669.186 -1.16435 4.08324 0
M  V30 6966 O 670.21 -0.911522 3.4434 0
M  V30 6967 O 669.069 -1.63996 5.21313 0
M  V30 6968 H 666.163 -0.281851 0.777489 0
M  V30 6969 H 668.709 0.179916 1.68744 0
M  V30 6970 H 667.481 0.0830265 3.91212 0
M  V30 6971 H 667.104 -1.60956 3.63564 0
M  V30 6972 N 668.101 -1.57061 -0.130224 0
M  V30 6973 C 669.326 -1.88802 -0.858409 0
M  V30 6974 C 669.751 -0.734353 -1.73173 0
M  V30 6975 O 669.109 0.315529 -1.78533 0
M  V30 6976 C 669.157 -3.19228 -1.67708 0
M  V30 6977 O 668.261 -3.04343 -2.78297 0
M  V30 6978 H 667.602 -0.619849 -0.238083 0
M  V30 6979 H 670.132 -2.04271 -0.115995 0
M  V30 6980 H 670.142 -3.51669 -2.06864 0
M  V30 6981 H 668.817 -4.02793 -1.0359 0
M  V30 6982 H 667.394 -2.83346 -2.42425 0
M  V30 6983 N 669.579 0.400081 -1.52437 0
M  V30 6984 C 670.509 1.4947 -1.7939 0
M  V30 6985 C 671.49 1.57383 -0.645329 0
M  V30 6986 O 672.675 1.72511 -0.891826 0
M  V30 6987 C 669.805 2.87201 -1.95276 0
M  V30 6988 C 668.759 2.94134 -3.10917 0
M  V30 6989 C 668.085 4.34207 -3.1204 0
M  V30 6990 C 669.385 2.64791 -4.50203 0
M  V30 6991 H 671.079 1.27165 -2.71052 0
M  V30 6992 H 668.625 0.610312 -1.30427 0
M  V30 6993 H 670.578 3.63772 -2.12715 0
M  V30 6994 H 669.302 3.10819 -1.00294 0
M  V30 6995 H 667.961 2.20009 -2.93243 0
M  V30 6996 H 667.609 4.54848 -2.14761 0
M  V30 6997 H 667.309 4.39768 -3.89715 0
M  V30 6998 H 668.833 5.127 -3.31619 0
M  V30 6999 H 670.247 3.31083 -4.68035 0
M  V30 7000 H 668.644 2.81717 -5.29864 0
M  V30 7001 H 669.714 1.60184 -4.57678 0
M  V30 7002 N 671.057 1.43213 0.657864 0
M  V30 7003 C 672.285 1.48015 1.44566 0
M  V30 7004 C 672.7 0.0965951 1.88553 0
M  V30 7005 O 672.057 -0.892221 1.59203 0
M  V30 7006 C 672.108 2.42199 2.68369 0
M  V30 7007 O 671.829 3.75173 2.26223 0
M  V30 7008 C 673.33 2.56195 3.61772 0
M  V30 7009 H 670.55 0.502861 0.444266 0
M  V30 7010 H 673.094 1.87907 0.806917 0
M  V30 7011 H 671.249 2.05514 3.28394 0
M  V30 7012 H 671.663 4.25776 3.06293 0
M  V30 7013 H 673.137 3.26182 4.4532 0
M  V30 7014 H 673.614 1.60534 4.0881 0
M  V30 7015 H 674.22 2.93671 3.07632 0
M  V30 7016 N 672.536 -0.895792 1.29666 0
M  V30 7017 C 673.947 -1.46195 1.1612 0
M  V30 7018 C 674.298 -1.94699 -0.242195 0
M  V30 7019 O 673.423 -1.8406 -1.13802 0
M  V30 7020 C 674.018 -2.65718 2.10189 0
M  V30 7021 C 672.577 -3.18458 2.00653 0
M  V30 7022 C 671.724 -1.91149 2.00891 0
M  V30 7023 H 674.675 -0.706756 1.42094 0
M  V30 7024 H 674.696 -3.4158 1.6764 0
M  V30 7025 H 674.208 -2.30386 3.12321 0
M  V30 7026 H 672.309 -3.58474 1.01623 0
M  V30 7027 H 672.422 -3.82491 2.88509 0
M  V30 7028 H 670.786 -2.09021 1.45542 0
M  V30 7029 H 671.569 -1.58089 3.04734 0
M  V30 7030 N 674.014 -1.12206 -1.10668 0
M  V30 7031 C 674.977 -0.790867 -2.15123 0
M  V30 7032 C 675.977 0.193618 -1.5963 0
M  V30 7033 O 677.167 -0.0318728 -1.74171 0
M  V30 7034 C 674.299 -0.174797 -3.40452 0
M  V30 7035 H 675.492 -1.7163 -2.45933 0
M  V30 7036 H 673.045 -0.924993 -1.2599 0
M  V30 7037 H 673.78 0.760478 -3.15257 0
M  V30 7038 H 673.565 -0.88358 -3.82015 0
M  V30 7039 H 675.055 0.0405162 -4.1758 0
M  V30 7040 N 675.492 1.28418 -0.913599 0
M  V30 7041 C 676.44 2.29272 -0.392037 0
M  V30 7042 C 677.434 1.61344 0.516198 0
M  V30 7043 O 678.64 1.75557 0.39746 0
M  V30 7044 H 675.015 0.744178 -0.108178 0
M  V30 7045 H 676.986 2.70691 -1.25574 0
M  V30 7046 C 675.735 3.45905 0.352815 0
M  V30 7047 H 675.058 3.98378 -0.336848 0
M  V30 7048 H 676.498 4.18473 0.682398 0
M  V30 7049 C 674.957 2.98572 1.56065 0
M  V30 7050 O 675.487 3.01033 2.65974 0
M  V30 7051 N 673.693 2.54235 1.40759 0
M  V30 7052 H 673.24 2.52432 0.513403 0
M  V30 7053 H 673.198 2.22925 2.21702 0
M  V30 7054 N 676.97 0.677563 1.42291 0
M  V30 7055 C 677.88 0.000962654 2.346 0
M  V30 7056 C 678.896 -0.785833 1.55244 0
M  V30 7057 O 680.072 -0.727523 1.87801 0
M  V30 7058 C 677.137 -0.936746 3.33805 0
M  V30 7059 C 676.198 -0.144173 4.29058 0
M  V30 7060 C 675.431 -1.03722 5.23524 0
M  V30 7061 O 675.654 -2.27675 5.22992 0
M  V30 7062 O 674.588 -0.496542 5.99848 0
M  V30 7063 H 678.414 0.761397 2.94001 0
M  V30 7064 H 675.999 0.43781 1.42841 0
M  V30 7065 H 677.881 -1.47497 3.94744 0
M  V30 7066 H 676.556 -1.67698 2.76874 0
M  V30 7067 H 675.463 0.438224 3.71524 0
M  V30 7068 H 676.796 0.55701 4.89038 0
M  V30 7069 N 678.448 -1.51871 0.421078 0
M  V30 7070 C 679.725 -1.9447 -0.20993 0
M  V30 7071 C 680.105 -1.35875 -1.61558 0
M  V30 7072 O 679.453 -0.539294 -2.22045 0
M  V30 7073 C 679.663 -3.48402 -0.204165 0
M  V30 7074 C 681.011 -4.2254 -0.417696 0
M  V30 7075 O 682.035 -3.55074 -0.282999 0
M  V30 7076 O 680.894 -5.422 -0.684239 0
M  V30 7077 H 677.988 -0.815283 -0.138718 0
M  V30 7078 H 680.534 -1.62832 0.477884 0
M  V30 7079 H 679.306 -3.83464 0.779183 0
M  V30 7080 H 678.929 -3.86436 -0.935576 0
M  V30 7081 N 679.926 -0.151884 -1.56866 0
M  V30 7082 C 680.858 0.817008 -2.14144 0
M  V30 7083 C 681.871 1.20735 -1.0921 0
M  V30 7084 O 683.06 1.15058 -1.36469 0
M  V30 7085 C 680.16 2.10844 -2.65326 0
M  V30 7086 C 679.333 1.88471 -3.94712 0
M  V30 7087 C 678.392 3.01649 -4.31155 0
M  V30 7088 O 677.418 2.73127 -4.9939 0
M  V30 7089 N 678.62 4.28947 -3.91132 0
M  V30 7090 H 681.385 0.327448 -2.97906 0
M  V30 7091 H 678.946 0.0315313 -1.61869 0
M  V30 7092 H 680.938 2.85616 -2.86715 0
M  V30 7093 H 679.508 2.51049 -1.86262 0
M  V30 7094 H 678.728 0.977088 -3.81899 0
M  V30 7095 H 680.016 1.70866 -4.79252 0
M  V30 7096 H 679.414 4.54986 -3.36161 0
M  V30 7097 H 677.971 5.00484 -4.17563 0
M  V30 7098 N 681.404 1.57128 0.121893 0
M  V30 7099 C 682.351 2.0013 1.14964 0
M  V30 7100 C 683.321 0.872959 1.4131 0
M  V30 7101 O 684.506 1.13696 1.53225 0
M  V30 7102 C 681.646 2.40824 2.4718 0
M  V30 7103 C 680.759 3.67061 2.27794 0
M  V30 7104 C 679.894 3.96749 3.53219 0
M  V30 7105 C 678.933 5.16178 3.28978 0
M  V30 7106 N 678.07 5.41751 4.46599 0
M  V30 7107 H 682.91 2.8772 0.775947 0
M  V30 7108 H 680.447 1.42328 0.371652 0
M  V30 7109 H 682.405 2.62454 3.24305 0
M  V30 7110 H 681.035 1.56279 2.82448 0
M  V30 7111 H 680.087 3.53063 1.416 0
M  V30 7112 H 681.399 4.5434 2.05857 0
M  V30 7113 H 680.553 4.19012 4.38764 0
M  V30 7114 H 679.292 3.07941 3.78185 0
M  V30 7115 H 678.297 4.93762 2.41824 0
M  V30 7116 H 679.522 6.06561 3.05386 0
M  V30 7117 H 677.468 4.55899 4.71691 0
M  V30 7118 H 677.385 6.23347 4.27756 0
M  V30 7119 H 678.653 5.68531 5.33285 0
M  V30 7120 N 682.882 -0.391992 1.52647 0
M  V30 7121 C 684.131 -1.13449 1.6677 0
M  V30 7122 C 684.444 -1.91203 0.412399 0
M  V30 7123 O 685.65 -2.68013 0.433707 0
M  V30 7124 C 684.106 -2.06577 2.9471 0
M  V30 7125 C 683.714 -1.3426 4.27409 0
M  V30 7126 C 685.458 -2.80981 3.18198 0
M  V30 7127 C 683.365 -2.26136 5.46458 0
M  V30 7128 H 682.295 -0.427211 0.621295 0
M  V30 7129 H 684.946 -0.397522 1.79142 0
M  V30 7130 H 683.328 -2.83898 2.76076 0
M  V30 7131 H 684.502 -0.621856 4.56585 0
M  V30 7132 H 682.817 -0.718279 4.10158 0
M  V30 7133 H 685.414 -3.49898 4.04321 0
M  V30 7134 H 685.757 -3.44891 2.33144 0
M  V30 7135 H 686.29 -2.10754 3.37383 0
M  V30 7136 H 683.029 -1.66846 6.33911 0
M  V30 7137 H 682.549 -2.96134 5.21598 0
M  V30 7138 H 684.228 -2.86286 5.80215 0
M  V30 7139 N 684.36 -1.4356 -0.65026 0
M  V30 7140 C 685.608 -1.45046 -1.40734 0
M  V30 7141 C 685.929 -0.0769822 -1.94848 0
M  V30 7142 O 685.199 0.888098 -1.74613 0
M  V30 7143 H 683.779 -0.534034 -0.522318 0
M  V30 7144 H 686.441 -1.79186 -0.766703 0
M  V30 7145 H 685.537 -2.16476 -2.24822 0
M  V30 7146 N 685.838 0.888903 -1.30139 0
M  V30 7147 C 687.087 1.63507 -1.18103 0
M  V30 7148 C 687.4 1.93808 0.264141 0
M  V30 7149 O 688.606 2.66744 0.505966 0
M  V30 7150 C 687.062 2.94673 -2.0663 0
M  V30 7151 C 686.67 2.71926 -3.56034 0
M  V30 7152 C 688.414 3.72626 -2.03346 0
M  V30 7153 C 686.321 3.98884 -4.3663 0
M  V30 7154 H 685.251 0.613426 -0.438435 0
M  V30 7155 H 687.902 0.984427 -1.54859 0
M  V30 7156 H 686.284 3.61009 -1.62754 0
M  V30 7157 H 687.458 2.14116 -4.08033 0
M  V30 7158 H 685.773 2.07353 -3.61101 0
M  V30 7159 H 688.37 4.66775 -2.60816 0
M  V30 7160 H 688.713 4.03712 -1.016 0
M  V30 7161 H 689.246 3.13147 -2.45324 0
M  V30 7162 H 685.985 3.72959 -5.39056 0
M  V30 7163 H 685.505 4.56214 -3.89396 0
M  V30 7164 H 687.184 4.66938 -4.47859 0
M  V30 7165 N 687.317 1.12792 1.10072 0
M  V30 7166 C 688.227 0.812369 2.20086 0
M  V30 7167 C 689.243 -0.200349 1.72843 0
M  V30 7168 O 690.419 -0.0330262 2.01373 0
M  V30 7169 C 687.484 0.275685 3.45602 0
M  V30 7170 C 686.545 1.34881 4.07561 0
M  V30 7171 C 685.778 0.837639 5.27086 0
M  V30 7172 O 686.001 -0.327224 5.69461 0
M  V30 7173 O 684.935 1.60894 5.79997 0
M  V30 7174 H 688.761 1.73133 2.49517 0
M  V30 7175 H 686.346 0.904863 1.18881 0
M  V30 7176 H 688.228 -0.0185375 4.21396 0
M  V30 7177 H 686.903 -0.615783 3.17789 0
M  V30 7178 H 685.81 1.69625 3.33434 0
M  V30 7179 H 687.143 2.21418 4.39585 0
M  V30 7180 N 688.795 -1.27931 0.920396 0
M  V30 7181 C 690.044 -1.93975 0.552867 0
M  V30 7182 C 690.357 -1.73193 -0.909035 0
M  V30 7183 O 691.563 -2.33515 -1.38502 0
M  V30 7184 C 690.019 -3.47463 0.937947 0
M  V30 7185 C 689.627 -3.77013 2.42003 0
M  V30 7186 C 691.371 -4.19628 0.64132 0
M  V30 7187 C 689.278 -5.23841 2.74489 0
M  V30 7188 H 688.208 -0.726146 0.203046 0
M  V30 7189 H 690.859 -1.45339 1.12022 0
M  V30 7190 H 689.241 -3.94867 0.299317 0
M  V30 7191 H 690.415 -3.40393 3.10595 0
M  V30 7192 H 688.73 -3.18035 2.6878 0
M  V30 7193 H 691.327 -5.27729 0.860622 0
M  V30 7194 H 691.67 -4.14164 -0.421168 0
M  V30 7195 H 692.203 -3.78022 1.23872 0
M  V30 7196 H 688.942 -5.34388 3.79618 0
M  V30 7197 H 688.462 -5.61634 2.1054 0
M  V30 7198 H 690.141 -5.91647 2.61845 0
M  V30 7199 N 690.273 -0.685099 -1.4193 0
M  V30 7200 C 691.522 -0.208816 -2.00616 0
M  V30 7201 C 691.835 1.19506 -1.54847 0
M  V30 7202 O 693.041 1.76826 -2.06021 0
M  V30 7203 C 691.497 -0.322446 -3.58453 0
M  V30 7204 C 691.105 -1.73102 -4.13206 0
M  V30 7205 C 692.849 0.0945979 -4.24395 0
M  V30 7206 C 690.756 -1.79687 -5.63442 0
M  V30 7207 H 689.686 -0.0743092 -0.750329 0
M  V30 7208 H 692.337 -0.851778 -1.62533 0
M  V30 7209 H 690.719 0.388588 -3.94089 0
M  V30 7210 H 691.893 -2.46997 -3.8901 0
M  V30 7211 H 690.208 -2.09682 -3.59753 0
M  V30 7212 H 692.805 0.0656937 -5.3466 0
M  V30 7213 H 693.148 1.1316 -4.00625 0
M  V30 7214 H 693.681 -0.56579 -3.93756 0
M  V30 7215 H 690.42 -2.81404 -5.92024 0
M  V30 7216 H 689.94 -1.10162 -5.89597 0
M  V30 7217 H 691.619 -1.55498 -6.28036 0
M  V30 7218 N 691.751 1.51645 -0.429126 0
M  V30 7219 C 692.698 2.27542 0.386446 0
M  V30 7220 C 693.668 1.30786 1.02393 0
M  V30 7221 O 694.853 1.59678 1.0444 0
M  V30 7222 C 691.993 3.11457 1.48623 0
M  V30 7223 C 691.106 4.23196 0.867691 0
M  V30 7224 C 690.241 4.94435 1.94183 0
M  V30 7225 C 689.28 5.98108 1.30129 0
M  V30 7226 N 688.417 6.62786 2.31644 0
M  V30 7227 H 693.257 2.968 -0.267155 0
M  V30 7228 H 690.794 1.46397 -0.143591 0
M  V30 7229 H 692.752 3.58429 2.13506 0
M  V30 7230 H 691.382 2.44329 2.10957 0
M  V30 7231 H 690.434 3.80248 0.107373 0
M  V30 7232 H 691.746 4.97499 0.35997 0
M  V30 7233 H 690.9 5.44914 2.66747 0
M  V30 7234 H 689.639 4.19744 2.48326 0
M  V30 7235 H 688.644 5.4693 0.561082 0
M  V30 7236 H 689.869 6.74751 0.767303 0
M  V30 7237 H 687.815 5.90913 2.84883 0
M  V30 7238 H 687.732 7.32828 1.85741 0
M  V30 7239 H 689 7.17897 3.03717 0
M  V30 7240 N 693.229 0.160201 1.56784 0
M  V30 7241 C 694.645 -0.196089 1.58391 0
M  V30 7242 C 694.845 -1.63689 1.17508 0
M  V30 7243 O 693.901 -2.36613 0.881506 0
M  V30 7244 C 695.214 0.0746449 3.00607 0
M  V30 7245 C 696.762 0.0119762 3.12998 0
M  V30 7246 C 697.237 0.255551 4.57286 0
M  V30 7247 N 698.728 0.202938 4.62755 0
M  V30 7248 C 699.463 0.365731 5.72232 0
M  V30 7249 N 698.959 0.586972 6.90309 0
M  V30 7250 N 700.752 0.302411 5.61286 0
M  V30 7251 H 692.903 1.1008 1.81648 0
M  V30 7252 H 695.166 0.436779 0.841384 0
M  V30 7253 H 694.872 1.07231 3.34954 0
M  V30 7254 H 694.746 -0.638802 3.71751 0
M  V30 7255 H 697.133 -0.976254 2.78484 0
M  V30 7256 H 697.214 0.75796 2.44313 0
M  V30 7257 H 696.858 1.24094 4.92507 0
M  V30 7258 H 696.788 -0.510912 5.24116 0
M  V30 7259 H 699.279 0.0371328 3.77882 0
M  V30 7260 H 699.592 0.700941 7.69615 0
M  V30 7261 H 697.937 0.623453 6.92198 0
M  V30 7262 H 701.128 0.130238 4.67919 0
M  V30 7263 H 701.301 0.432712 6.46554 0
M  V30 7264 N 694.707 -1.5719 -0.113559 0
M  V30 7265 C 695.935 -1.89328 -0.834422 0
M  V30 7266 C 696.35 -0.752018 -1.73177 0
M  V30 7267 O 695.707 0.276912 -1.80387 0
M  V30 7268 C 695.758 -3.20962 -1.66329 0
M  V30 7269 O 695.479 -4.30695 -0.802069 0
M  V30 7270 C 696.98 -3.6684 -2.48884 0
M  V30 7271 H 694.2 -0.626769 -0.239587 0
M  V30 7272 H 696.744 -2.04273 -0.0963195 0
M  V30 7273 H 694.899 -3.0767 -2.35409 0
M  V30 7274 H 695.313 -5.06175 -1.37431 0
M  V30 7275 H 696.787 -4.61692 -3.02563 0
M  V30 7276 H 697.264 -2.93765 -3.26495 0
M  V30 7277 H 697.87 -3.82938 -1.85036 0
M  V30 7278 N 696.185 0.383891 -1.52853 0
M  V30 7279 C 697.115 1.47559 -1.80965 0
M  V30 7280 C 698.096 1.5669 -0.661986 0
M  V30 7281 O 699.281 1.71556 -0.910072 0
M  V30 7282 C 696.411 2.85114 -1.98312 0
M  V30 7283 C 695.365 2.9082 -3.14019 0
M  V30 7284 C 694.691 4.30873 -3.16627 0
M  V30 7285 C 695.991 2.60001 -4.52986 0
M  V30 7286 H 697.685 1.24283 -2.72386 0
M  V30 7287 H 695.231 0.596445 -1.31067 0
M  V30 7288 H 697.184 3.61496 -2.16561 0
M  V30 7289 H 695.908 3.09738 -1.03585 0
M  V30 7290 H 694.567 2.16886 -2.9556 0
M  V30 7291 H 694.215 4.52545 -2.19573 0
M  V30 7292 H 693.915 4.3561 -3.94357 0
M  V30 7293 H 695.439 5.09154 -3.37038 0
M  V30 7294 H 696.853 3.261 -4.71521 0
M  V30 7295 H 695.25 2.76081 -5.32822 0
M  V30 7296 H 696.32 1.5532 -4.59351 0
M  V30 7297 N 697.663 1.43903 0.642637 0
M  V30 7298 C 698.61 1.49881 1.75512 0
M  V30 7299 C 699.58 0.347538 1.62423 0
M  V30 7300 O 700.765 0.556177 1.82514 0
M  V30 7301 C 697.905 1.43797 3.13714 0
M  V30 7302 C 697.018 2.6921 3.37861 0
M  V30 7303 C 696.153 2.5504 4.6597 0
M  V30 7304 C 695.192 3.75671 4.83257 0
M  V30 7305 N 694.329 3.60247 6.02633 0
M  V30 7306 H 699.169 2.44935 1.69737 0
M  V30 7307 H 696.706 1.21572 0.828165 0
M  V30 7308 H 698.664 1.38262 3.93624 0
M  V30 7309 H 697.294 0.523173 3.18532 0
M  V30 7310 H 696.346 2.8498 2.51973 0
M  V30 7311 H 697.658 3.58786 3.46517 0
M  V30 7312 H 696.812 2.47273 5.54023 0
M  V30 7313 H 695.551 1.63006 4.59653 0
M  V30 7314 H 694.556 3.83836 3.93637 0
M  V30 7315 H 695.781 4.68728 4.91397 0
M  V30 7316 H 693.727 2.70955 5.97427 0
M  V30 7317 H 693.644 4.43431 6.12295 0
M  V30 7318 H 694.912 3.56351 6.93278 0
M  V30 7319 N 699.141 -0.881989 1.30609 0
M  V30 7320 C 700.39 -1.62878 1.18969 0
M  V30 7321 C 700.703 -1.93946 -0.253859 0
M  V30 7322 O 701.909 -2.67008 -0.491813 0
M  V30 7323 C 700.365 -2.93573 2.0819 0
M  V30 7324 C 699.973 -2.70034 3.57471 0
M  V30 7325 C 701.717 -3.71543 2.0532 0
M  V30 7326 C 699.624 -3.96563 4.38739 0
M  V30 7327 H 698.554 -0.611092 0.441682 0
M  V30 7328 H 701.205 -0.976201 1.55379 0
M  V30 7329 H 699.587 -3.6014 1.64666 0
M  V30 7330 H 700.761 -2.11949 4.09163 0
M  V30 7331 H 699.076 -2.05435 3.62195 0
M  V30 7332 H 701.673 -4.65386 2.63288 0
M  V30 7333 H 702.016 -4.03167 1.03739 0
M  V30 7334 H 702.549 -3.11842 2.46981 0
M  V30 7335 H 699.288 -3.70095 5.41027 0
M  V30 7336 H 698.808 -4.54142 3.9181 0
M  V30 7337 H 700.487 -4.64557 4.50329 0
M  V30 7338 N 700.619 -1.13374 -1.09472 0
M  V30 7339 C 702.03 -0.90801 -1.63132 0
M  V30 7340 C 702.381 0.555576 -1.8817 0
M  V30 7341 O 701.506 1.42218 -1.63104 0
M  V30 7342 C 702.101 -1.64182 -2.96361 0
M  V30 7343 C 700.66 -1.46197 -3.46848 0
M  V30 7344 C 699.807 -1.67134 -2.21273 0
M  V30 7345 H 702.758 -1.2871 -0.928411 0
M  V30 7346 H 702.779 -1.09863 -3.64294 0
M  V30 7347 H 702.291 -2.707 -2.78106 0
M  V30 7348 H 700.392 -0.419788 -3.70228 0
M  V30 7349 H 700.505 -2.22472 -4.24315 0
M  V30 7350 H 698.869 -1.09616 -2.29905 0
M  V30 7351 H 699.652 -2.74971 -2.05538 0
M  V30 7352 N 702.098 1.27442 -0.927168 0
M  V30 7353 C 703.061 2.2512 -0.430525 0
M  V30 7354 C 704.061 1.54357 0.450619 0
M  V30 7355 O 705.251 1.72371 0.251774 0
M  V30 7356 C 702.383 3.38763 0.381144 0
M  V30 7357 H 703.576 2.70569 -1.29354 0
M  V30 7358 H 701.129 1.39355 -0.707806 0
M  V30 7359 H 701.864 2.98695 1.263 0
M  V30 7360 H 701.649 3.91298 -0.250618 0
M  V30 7361 H 703.139 4.11364 0.719012 0
M  V30 7362 N 703.576 0.692616 1.41565 0
M  V30 7363 C 704.509 -0.025063 2.28186 0
M  V30 7364 C 705.487 -0.790912 1.42068 0
M  V30 7365 O 706.671 -0.782344 1.71498 0
M  V30 7366 C 703.798 -1.04285 3.22246 0
M  V30 7367 C 702.844 -0.370515 4.24888 0
M  V30 7368 S 703.677 0.884942 5.28137 0
M  V30 7369 C 704.833 -0.131324 6.25762 0
M  V30 7370 H 705.066 0.709626 2.88707 0
M  V30 7371 H 702.599 0.482783 1.46658 0
M  V30 7372 H 704.557 -1.62493 3.7697 0
M  V30 7373 H 703.218 -1.7501 2.60827 0
M  V30 7374 H 702.411 -1.13911 4.90959 0
M  V30 7375 H 702.013 0.138411 3.73744 0
M  V30 7376 H 704.305 -0.985527 6.70294 0
M  V30 7377 H 705.248 0.495384 7.06365 0
M  V30 7378 H 705.656 -0.484777 5.62415 0
M  V30 7379 N 705.054 -1.51416 0.437162 0
M  V30 7380 C 706.282 -2.06503 -0.128045 0
M  V30 7381 C 706.697 -1.30461 -1.36475 0
M  V30 7382 O 706.054 -0.364127 -1.78831 0
M  V30 7383 C 706.105 -3.58683 -0.450437 0
M  V30 7384 O 705.826 -4.31853 0.737186 0
M  V30 7385 C 707.327 -4.30284 -1.06633 0
M  V30 7386 H 704.547 -0.670952 -0.00800269 0
M  V30 7387 H 707.091 -1.94996 0.616193 0
M  V30 7388 H 705.246 -3.70106 -1.14457 0
M  V30 7389 H 705.66 -5.22467 0.461347 0
M  V30 7390 H 707.134 -5.37848 -1.24191 0
M  V30 7391 H 707.611 -3.88564 -2.0473 0
M  V30 7392 H 708.217 -4.23304 -0.411585 0
M  V30 7393 N 706.532 -0.168513 -1.56696 0
M  V30 7394 C 707.781 0.477233 -1.95973 0
M  V30 7395 C 708.094 1.64578 -1.05704 0
M  V30 7396 O 709.3 2.35758 -1.3465 0
M  V30 7397 C 707.756 0.900413 -3.48455 0
M  V30 7398 C 707.364 -0.242382 -4.47344 0
M  V30 7399 C 709.108 1.51474 -3.96555 0
M  V30 7400 C 707.015 0.200272 -5.91061 0
M  V30 7401 H 705.945 0.182061 -0.73169 0
M  V30 7402 H 708.596 -0.256297 -1.81701 0
M  V30 7403 H 706.978 1.68984 -3.58135 0
M  V30 7404 H 708.152 -1.01967 -4.49377 0
M  V30 7405 H 706.467 -0.766484 -4.09285 0
M  V30 7406 H 709.064 1.85792 -5.01384 0
M  V30 7407 H 709.407 2.41163 -3.39332 0
M  V30 7408 H 709.94 0.789802 -3.89881 0
M  V30 7409 H 706.679 -0.661775 -6.52151 0
M  V30 7410 H 706.199 0.942979 -5.92341 0
M  V30 7411 H 707.878 0.645088 -6.43776 0
M  V30 7412 N 708.01 1.57248 0.105221 0
M  V30 7413 C 708.973 2.00388 1.11252 0
M  V30 7414 C 709.973 0.89594 1.33527 0
M  V30 7415 O 711.163 1.16166 1.29811 0
M  V30 7416 C 708.295 2.35589 2.46395 0
M  V30 7417 H 709.488 2.90591 0.741424 0
M  V30 7418 H 707.041 1.52332 0.349956 0
M  V30 7419 H 707.776 1.4831 2.884 0
M  V30 7420 H 707.561 3.16408 2.31578 0
M  V30 7421 H 709.051 2.69658 3.18864 0
M  V30 7422 N 709.488 -0.375779 1.53054 0
M  V30 7423 C 710.435 -1.45978 1.78771 0
M  V30 7424 C 711.405 -1.53625 0.631552 0
M  V30 7425 O 712.59 -1.69674 0.872667 0
M  V30 7426 C 709.73 -2.8305 1.97425 0
M  V30 7427 C 708.843 -2.84451 3.25134 0
M  V30 7428 C 707.978 -4.13034 3.34031 0
M  V30 7429 C 707.017 -4.08536 4.55812 0
M  V30 7430 N 706.154 -5.2875 4.61918 0
M  V30 7431 H 710.994 -1.23349 2.71273 0
M  V30 7432 H 708.531 -0.598147 1.3439 0
M  V30 7433 H 710.489 -3.62666 2.06225 0
M  V30 7434 H 709.119 -3.04101 1.0827 0
M  V30 7435 H 708.171 -1.97127 3.25338 0
M  V30 7436 H 709.483 -2.76998 4.14818 0
M  V30 7437 H 708.637 -5.0106 3.42087 0
M  V30 7438 H 707.376 -4.23226 2.42345 0
M  V30 7439 H 706.381 -3.18897 4.47867 0
M  V30 7440 H 707.606 -3.99955 5.48828 0
M  V30 7441 H 705.552 -5.39547 3.73129 0
M  V30 7442 H 705.469 -5.23426 5.45492 0
M  V30 7443 H 706.737 -6.18637 4.74245 0
M  V30 7444 N 710.966 -1.44241 -0.634997 0
M  V30 7445 C 711.914 -1.51103 -1.76835 0
M  V30 7446 C 712.908 -0.383051 -1.65012 0
M  V30 7447 O 714.114 -0.557832 -1.71138 0
M  V30 7448 H 710.489 -0.474076 -0.583743 0
M  V30 7449 H 712.46 -2.46499 -1.68169 0
M  V30 7450 C 711.209 -1.4687 -3.15158 0
M  V30 7451 H 710.532 -2.32979 -3.24901 0
M  V30 7452 H 711.972 -1.55731 -3.94365 0
M  V30 7453 C 710.431 -0.188884 -3.3637 0
M  V30 7454 O 710.961 0.742487 -3.94778 0
M  V30 7455 N 709.167 -0.0932516 -2.9045 0
M  V30 7456 H 708.714 -0.852004 -2.43102 0
M  V30 7457 H 708.672 0.762308 -3.05018 0
M  V30 7458 N 712.444 0.87505 -1.31075 0
M  V30 7459 C 713.407 1.96333 -1.18263 0
M  V30 7460 C 714.407 1.60416 -0.111106 0
M  V30 7461 O 715.597 1.7044 -0.359987 0
M  V30 7462 C 712.729 3.31036 -0.81414 0
M  V30 7463 H 713.922 2.09125 -2.14958 0
M  V30 7464 H 711.475 1.06271 -1.14614 0
M  V30 7465 H 712.21 3.23944 0.151875 0
M  V30 7466 H 711.995 3.58476 -1.58862 0
M  V30 7467 H 713.485 4.10842 -0.748249 0
M  V30 7468 N 713.922 1.13953 1.08869 0
M  V30 7469 C 715.17 0.903023 1.80803 0
M  V30 7470 C 715.491 -0.572151 1.86417 0
M  V30 7471 O 714.761 -1.41589 1.35386 0
M  V30 7472 H 713.341 0.331099 0.669614 0
M  V30 7473 H 716.003 1.43719 1.31647 0
M  V30 7474 H 715.099 1.29881 2.83791 0
M  V30 7475 N 715.4 -1.26948 0.933913 0
M  V30 7476 C 716.646 -1.94374 0.57848 0
M  V30 7477 C 716.979 -1.73166 -0.879048 0
M  V30 7478 O 716.254 -1.06438 -1.62792 0
M  V30 7479 C 716.537 -3.4834 0.912739 0
M  V30 7480 C 716.39 -3.78866 2.42448 0
M  V30 7481 C 717.709 -4.38062 0.423003 0
M  V30 7482 H 714.828 -0.705959 0.211639 0
M  V30 7483 H 717.47 -1.49951 1.16682 0
M  V30 7484 H 715.62 -3.86309 0.412058 0
M  V30 7485 H 717.292 -3.50654 2.99733 0
M  V30 7486 H 715.535 -3.25198 2.87104 0
M  V30 7487 H 716.206 -4.86458 2.60887 0
M  V30 7488 H 718.682 -4.0728 0.852191 0
M  V30 7489 H 717.558 -5.44599 0.685776 0
M  V30 7490 H 717.819 -4.36886 -0.676994 0
M  V30 7491 N 716.879 -0.700114 -1.41195 0
M  V30 7492 C 717.789 -0.0382854 -2.34569 0
M  V30 7493 C 718.805 0.761036 -1.56474 0
M  V30 7494 O 719.981 0.697553 -1.88934 0
M  V30 7495 C 717.046 0.883522 -3.35253 0
M  V30 7496 C 716.107 0.0758957 -4.29233 0
M  V30 7497 C 715.34 0.9538 -5.25108 0
M  V30 7498 O 715.563 2.19326 -5.26547 0
M  V30 7499 O 714.497 0.401049 -6.00562 0
M  V30 7500 H 718.323 -0.808073 -2.92752 0
M  V30 7501 H 715.908 -0.460479 -1.42127 0
M  V30 7502 H 717.79 1.41199 -3.9704 0
M  V30 7503 H 716.465 1.63272 -2.79506 0
M  V30 7504 H 715.372 -0.497274 -3.7078 0
M  V30 7505 H 716.705 -0.634741 -4.8809 0
M  V30 7506 N 718.357 1.51182 -0.445186 0
M  V30 7507 C 719.605 2.01753 0.11841 0
M  V30 7508 C 719.926 1.33087 1.42523 0
M  V30 7509 O 719.196 0.467891 1.9023 0
M  V30 7510 H 717.776 0.745536 0.0467492 0
M  V30 7511 H 720.438 1.85765 -0.589688 0
M  V30 7512 H 719.534 3.10762 0.288665 0
M  V30 7513 N 719.835 0.176821 1.56605 0
M  V30 7514 C 721.06 -0.47599 2.01864 0
M  V30 7515 C 721.485 -1.55645 1.05623 0
M  V30 7516 O 720.843 -1.81263 0.0366729 0
M  V30 7517 C 720.891 -1.02619 3.4569 0
M  V30 7518 O 719.995 -2.13996 3.52533 0
M  V30 7519 H 719.336 -0.113363 0.654251 0
M  V30 7520 H 721.866 0.28233 2.02643 0
M  V30 7521 H 721.876 -1.34742 3.85109 0
M  V30 7522 H 720.551 -0.235138 4.15235 0
M  V30 7523 H 719.128 -1.82876 3.24978 0
M  V30 7524 N 721.313 -1.57302 -0.09688 0
M  V30 7525 C 722.243 -2.0497 -1.11846 0
M  V30 7526 C 723.224 -0.938278 -1.41882 0
M  V30 7527 O 724.409 -1.20943 -1.51942 0
M  V30 7528 C 721.539 -2.47264 -2.43881 0
M  V30 7529 C 720.493 -3.62053 -2.28257 0
M  V30 7530 C 719.819 -3.90318 -3.65453 0
M  V30 7531 C 721.119 -4.93005 -1.72461 0
M  V30 7532 H 722.813 -2.90567 -0.721888 0
M  V30 7533 H 720.359 -1.39786 -0.345803 0
M  V30 7534 H 722.312 -2.7922 -3.15617 0
M  V30 7535 H 721.036 -1.58664 -2.8547 0
M  V30 7536 H 719.695 -3.30341 -1.58967 0
M  V30 7537 H 719.343 -2.98889 -4.04567 0
M  V30 7538 H 719.043 -4.67597 -3.55846 0
M  V30 7539 H 720.567 -4.24747 -4.3866 0
M  V30 7540 H 721.981 -5.23354 -2.34036 0
M  V30 7541 H 720.378 -5.74436 -1.73618 0
M  V30 7542 H 721.448 -4.80053 -0.683898 0
M  V30 7543 N 722.791 0.367657 -1.53252 0
M  V30 7544 C 724.04 1.10782 -1.68554 0
M  V30 7545 C 724.353 1.90523 -0.442765 0
M  V30 7546 O 725.559 2.6729 -0.47629 0
M  V30 7547 C 724.015 2.01863 -2.97959 0
M  V30 7548 C 723.623 1.27443 -4.29491 0
M  V30 7549 C 725.367 2.75883 -3.22628 0
M  V30 7550 C 723.274 2.17414 -5.49987 0
M  V30 7551 H 722.204 0.417272 -0.628013 0
M  V30 7552 H 724.855 0.368971 -1.79752 0
M  V30 7553 H 723.237 2.7947 -2.80558 0
M  V30 7554 H 724.411 0.549138 -4.57516 0
M  V30 7555 H 722.726 0.652935 -4.11249 0
M  V30 7556 H 725.323 3.43421 -4.09837 0
M  V30 7557 H 725.666 3.41138 -2.38601 0
M  V30 7558 H 726.199 2.0536 -3.40693 0
M  V30 7559 H 722.938 1.5674 -6.36485 0
M  V30 7560 H 722.458 2.87799 -5.26243 0
M  V30 7561 H 724.137 2.77019 -5.84696 0
M  V30 7562 N 724.269 1.44576 0.627338 0
M  V30 7563 C 725.515 1.47777 1.38888 0
M  V30 7564 C 725.848 0.111406 1.9388 0
M  V30 7565 O 725.123 -0.87149 1.73883 0
M  V30 7566 C 725.406 2.54119 2.55138 0
M  V30 7567 C 725.259 4.00128 2.0547 0
M  V30 7568 C 726.578 2.56929 3.57317 0
M  V30 7569 H 723.697 0.538048 0.50366 0
M  V30 7570 H 726.339 1.76277 0.708978 0
M  V30 7571 H 724.489 2.29948 3.13139 0
M  V30 7572 H 726.161 4.35444 1.5227 0
M  V30 7573 H 724.404 4.11724 1.36623 0
M  V30 7574 H 725.075 4.7019 2.89181 0
M  V30 7575 H 727.551 2.78536 3.09122 0
M  V30 7576 H 726.427 3.33234 4.36173 0
M  V30 7577 H 726.688 1.6127 4.11636 0
M  V30 7578 N 725.747 -0.868086 1.31537 0
M  V30 7579 C 726.657 -2.00801 1.21311 0
M  V30 7580 C 727.673 -1.73518 0.129431 0
M  V30 7581 O 728.849 -1.98378 0.347588 0
M  V30 7582 C 725.914 -3.3419 0.922935 0
M  V30 7583 C 724.975 -3.74783 2.0937 0
M  V30 7584 C 724.208 -5.01807 1.81728 0
M  V30 7585 O 724.431 -5.65404 0.753313 0
M  V30 7586 O 723.365 -5.39213 2.67457 0
M  V30 7587 H 727.191 -2.12361 2.17109 0
M  V30 7588 H 724.776 -0.996684 1.11295 0
M  V30 7589 H 726.658 -4.14174 0.777033 0
M  V30 7590 H 725.333 -3.237 -0.00500301 0
M  V30 7591 H 724.24 -2.95432 2.29501 0
M  V30 7592 H 725.573 -3.89902 3.00396 0
M  V30 7593 N 727.225 -1.14528 -1.08264 0
M  V30 7594 C 728.172 -0.833556 -2.15222 0
M  V30 7595 C 729.142 0.209539 -1.64773 0
M  V30 7596 O 730.327 0.0791388 -1.90636 0
M  V30 7597 C 727.467 -0.318799 -3.43624 0
M  V30 7598 C 726.58 -1.42237 -4.07913 0
M  V30 7599 C 725.715 -0.864704 -5.24115 0
M  V30 7600 C 724.754 -1.94585 -5.80347 0
M  V30 7601 N 723.891 -1.40525 -6.87893 0
M  V30 7602 H 728.731 -1.74965 -2.41228 0
M  V30 7603 H 726.268 -0.873169 -1.18381 0
M  V30 7604 H 728.226 -0.00213088 -4.172 0
M  V30 7605 H 726.856 0.560397 -3.17898 0
M  V30 7606 H 725.908 -1.8554 -3.32083 0
M  V30 7607 H 727.22 -2.23901 -4.45724 0
M  V30 7608 H 726.374 -0.500025 -6.04636 0
M  V30 7609 H 725.113 -0.0171219 -4.87697 0
M  V30 7610 H 724.118 -2.31946 -4.98479 0
M  V30 7611 H 725.343 -2.79704 -6.18823 0
M  V30 7612 H 723.289 -0.579873 -6.53432 0
M  V30 7613 H 723.206 -2.15825 -7.24538 0
M  V30 7614 H 724.474 -1.06852 -7.72142 0
M  V30 7615 N 728.703 1.26451 -0.940633 0
M  V30 7616 C 729.952 1.93071 -0.583656 0
M  V30 7617 C 730.265 1.74618 0.881366 0
M  V30 7618 O 731.471 2.35689 1.34769 0
M  V30 7619 C 729.927 3.45927 -0.993106 0
M  V30 7620 C 729.535 3.73115 -2.4797 0
M  V30 7621 C 731.279 4.18554 -0.707998 0
M  V30 7622 C 729.186 5.19408 -2.82788 0
M  V30 7623 H 728.116 0.722824 -0.214572 0
M  V30 7624 H 730.767 1.43538 -1.1432 0
M  V30 7625 H 729.149 3.94341 -0.362099 0
M  V30 7626 H 730.323 3.35408 -3.15971 0
M  V30 7627 H 728.638 3.13719 -2.73805 0
M  V30 7628 H 731.235 5.26293 -0.94447 0
M  V30 7629 H 731.578 4.14782 0.355225 0
M  V30 7630 H 732.111 3.76003 -1.2987 0
M  V30 7631 H 728.85 5.28281 -3.88071 0
M  V30 7632 H 728.37 5.58214 -2.19449 0
M  V30 7633 H 730.049 5.87407 -2.71224 0
M  V30 7634 N 730.181 0.707592 1.40822 0
M  V30 7635 C 731.114 -0.000859377 2.282 0
M  V30 7636 C 732.092 -0.7758 1.42899 0
M  V30 7637 O 733.276 -0.76411 1.72318 0
M  V30 7638 C 730.403 -1.00861 3.23334 0
M  V30 7639 C 729.449 -0.32543 4.25257 0
M  V30 7640 S 730.282 0.940908 5.27169 0
M  V30 7641 C 731.438 -0.0649459 6.25866 0
M  V30 7642 H 731.671 0.740207 2.87938 0
M  V30 7643 H 729.204 0.498311 1.46138 0
M  V30 7644 H 731.162 -1.58485 3.78672 0
M  V30 7645 H 729.823 -1.72233 2.62668 0
M  V30 7646 H 729.016 -1.08697 4.92139 0
M  V30 7647 H 728.618 0.178044 3.73576 0
M  V30 7648 H 730.91 -0.914377 6.71301 0
M  V30 7649 H 731.853 0.570276 7.058 0
M  V30 7650 H 732.261 -0.425098 5.62897 0
M  V30 7651 N 731.66 -1.50943 0.453197 0
M  V30 7652 C 732.592 -2.25922 -0.38623 0
M  V30 7653 C 733.605 -1.3055 -0.972652 0
M  V30 7654 O 734.794 -1.56191 -0.864097 0
M  V30 7655 C 731.894 -3.01176 -1.5539 0
M  V30 7656 C 731.067 -4.23768 -1.0835 0
M  V30 7657 C 730.126 -4.81466 -2.12313 0
M  V30 7658 O 729.152 -5.42875 -1.71101 0
M  V30 7659 N 730.354 -4.66889 -3.44956 0
M  V30 7660 H 733.119 -2.98601 0.256468 0
M  V30 7661 H 730.68 -1.59408 0.282965 0
M  V30 7662 H 732.672 -3.36659 -2.24594 0
M  V30 7663 H 731.242 -2.31409 -2.10163 0
M  V30 7664 H 730.462 -3.93597 -0.217961 0
M  V30 7665 H 731.75 -5.03289 -0.746857 0
M  V30 7666 H 731.148 -4.18011 -3.81161 0
M  V30 7667 H 729.705 -5.06691 -4.1001 0
M  V30 7668 N 733.138 -0.185124 -1.56509 0
M  V30 7669 C 734.363 0.465278 -2.02114 0
M  V30 7670 C 734.788 1.55083 -1.06447 0
M  V30 7671 O 734.146 1.81241 -0.0462852 0
M  V30 7672 C 734.194 1.00784 -3.46229 0
M  V30 7673 O 733.298 2.12123 -3.53663 0
M  V30 7674 H 732.639 0.109891 -0.654843 0
M  V30 7675 H 735.169 -0.293072 -2.0249 0
M  V30 7676 H 735.179 1.32697 -3.85818 0
M  V30 7677 H 733.854 0.213113 -4.15354 0
M  V30 7678 H 732.431 1.8115 -3.25943 0
M  V30 7679 N 734.616 1.57351 0.0885366 0
M  V30 7680 C 735.841 1.91011 0.80805 0
M  V30 7681 C 736.266 0.780009 1.71165 0
M  V30 7682 O 735.624 -0.268083 1.79307 0
M  V30 7683 C 735.672 3.23562 1.59185 0
M  V30 7684 O 734.776 3.11615 2.7013 0
M  V30 7685 H 734.117 0.625943 0.221565 0
M  V30 7686 H 736.647 2.04507 0.0617954 0
M  V30 7687 H 736.657 3.5703 1.97468 0
M  V30 7688 H 735.332 4.05398 0.928741 0
M  V30 7689 H 733.909 2.89673 2.34827 0
M  V30 7690 N 736.094 -0.359525 1.53444 0
M  V30 7691 C 737.319 -1.12644 1.74144 0
M  V30 7692 C 737.744 -1.82082 0.472007 0
M  V30 7693 O 737.102 -1.71962 -0.57436 0
M  V30 7694 C 737.15 -2.12781 2.9113 0
M  V30 7695 O 736.254 -3.19984 2.60162 0
M  V30 7696 H 735.595 -0.326553 0.578152 0
M  V30 7697 H 738.125 -0.414798 2.00351 0
M  V30 7698 H 738.135 -2.56278 3.17467 0
M  V30 7699 H 736.81 -1.61634 3.83207 0
M  V30 7700 H 735.387 -2.81417 2.44661 0
M  V30 7701 N 737.572 -1.44907 -0.619662 0
M  V30 7702 C 738.482 -1.55168 -1.75955 0
M  V30 7703 C 739.498 -0.43672 -1.6843 0
M  V30 7704 O 740.674 -0.695704 -1.89002 0
M  V30 7705 C 737.739 -1.50397 -3.12381 0
M  V30 7706 C 736.8 -2.72835 -3.31451 0
M  V30 7707 C 736.033 -2.68283 -4.61368 0
M  V30 7708 O 736.256 -1.74929 -5.42914 0
M  V30 7709 O 735.19 -3.59308 -4.82889 0
M  V30 7710 H 739.016 -2.51493 -1.7025 0
M  V30 7711 H 736.601 -1.27282 -0.782289 0
M  V30 7712 H 738.483 -1.50301 -3.93685 0
M  V30 7713 H 737.158 -0.572197 -3.18603 0
M  V30 7714 H 736.065 -2.78496 -2.49781 0
M  V30 7715 H 737.398 -3.65098 -3.30098 0
M  V30 7716 N 739.05 0.861098 -1.31996 0
M  V30 7717 C 740.296 1.61721 -1.22369 0
M  V30 7718 C 740.629 1.93 0.215587 0
M  V30 7719 O 739.904 1.56789 1.15098 0
M  V30 7720 C 740.187 2.9417 -2.07691 0
M  V30 7721 C 740.04 2.69714 -3.59965 0
M  V30 7722 C 741.359 3.95372 -1.93312 0
M  V30 7723 H 738.478 0.586822 -0.44588 0
M  V30 7724 H 741.12 0.994788 -1.61876 0
M  V30 7725 H 739.27 3.47292 -1.74128 0
M  V30 7726 H 740.942 2.23196 -4.03709 0
M  V30 7727 H 739.185 2.03789 -3.82952 0
M  V30 7728 H 739.856 3.63996 -4.14983 0
M  V30 7729 H 742.332 3.51487 -2.22701 0
M  V30 7730 H 741.208 4.85916 -2.55298 0
M  V30 7731 H 741.469 4.32865 -0.898922 0
M  V30 7732 N 740.528 1.15101 1.07655 0
M  V30 7733 C 741.776 0.922149 1.79836 0
M  V30 7734 C 742.097 -0.552346 1.87014 0
M  V30 7735 O 741.367 -1.40145 1.3688 0
M  V30 7736 H 739.947 0.338182 0.666064 0
M  V30 7737 H 742.609 1.45107 1.30115 0
M  V30 7738 H 741.705 1.32883 2.82398 0
M  V30 7739 N 742.006 -1.2595 0.947325 0
M  V30 7740 C 743.236 -1.97258 0.614235 0
M  V30 7741 C 743.644 -1.70682 -0.816355 0
M  V30 7742 O 742.987 -0.97527 -1.55673 0
M  V30 7743 C 743.049 -3.50845 0.784081 0
M  V30 7744 C 742.713 -4.01084 2.19045 0
M  V30 7745 C 743.71 -4.12347 3.16648 0
M  V30 7746 C 741.395 -4.34936 2.51268 0
M  V30 7747 C 743.389 -4.56766 4.44572 0
M  V30 7748 C 741.076 -4.79043 3.79422 0
M  V30 7749 C 742.074 -4.89919 4.75887 0
M  V30 7750 O 741.762 -5.3305 6.01758 0
M  V30 7751 H 741.494 -0.635738 0.22981 0
M  V30 7752 H 744.048 -1.61268 1.27207 0
M  V30 7753 H 742.278 -3.86638 0.069101 0
M  V30 7754 H 743.967 -4.03363 0.453135 0
M  V30 7755 H 744.733 -3.86432 2.93079 0
M  V30 7756 H 740.612 -4.25702 1.76916 0
M  V30 7757 H 744.156 -4.6517 5.19868 0
M  V30 7758 H 740.053 -5.04402 4.02802 0
M  V30 7759 H 740.821 -5.51255 6.05029 0
M  V30 7760 N 743.484 -0.715051 -1.40445 0
M  V30 7761 C 744.761 -0.181503 -1.94756 0
M  V30 7762 C 745.141 1.31268 -1.65324 0
M  V30 7763 O 744.489 2.0686 -0.970631 0
M  V30 7764 C 744.699 -0.493663 -3.45491 0
M  V30 7765 C 746.047 -0.432032 -4.22396 0
M  V30 7766 O 747.071 -0.429692 -3.53599 0
M  V30 7767 O 745.93 -0.409091 -5.44967 0
M  V30 7768 H 743.024 -0.0263989 -0.826579 0
M  V30 7769 H 745.57 -0.792546 -1.50056 0
M  V30 7770 H 744.342 -1.52713 -3.6027 0
M  V30 7771 H 743.965 0.14737 -3.97327 0
M  V30 7772 N 744.962 1.50701 -0.461195 0
M  V30 7773 C 745.925 2.2686 0.326679 0
M  V30 7774 C 746.925 1.31243 0.929085 0
M  V30 7775 O 748.115 1.54754 0.799807 0
M  V30 7776 C 745.247 3.07844 1.46441 0
M  V30 7777 H 746.44 2.97954 -0.341095 0
M  V30 7778 H 743.993 1.54814 -0.214984 0
M  V30 7779 H 744.728 2.41223 2.16753 0
M  V30 7780 H 744.513 3.78101 1.03836 0
M  V30 7781 H 746.003 3.65469 2.02044 0
M  V30 7782 N 746.441 0.193421 1.56409 0
M  V30 7783 C 747.374 -0.767384 2.1491 0
M  V30 7784 C 748.352 -1.21075 1.08534 0
M  V30 7785 O 749.536 -1.29856 1.36637 0
M  V30 7786 C 746.663 -2.03615 2.70663 0
M  V30 7787 C 745.709 -1.73505 3.89613 0
M  V30 7788 S 746.542 -0.884645 5.28142 0
M  V30 7789 C 747.698 -2.1636 5.87315 0
M  V30 7790 H 747.931 -0.270053 2.96071 0
M  V30 7791 H 745.464 -0.0215546 1.54385 0
M  V30 7792 H 747.422 -2.7648 3.03429 0
M  V30 7793 H 746.083 -2.50461 1.89547 0
M  V30 7794 H 745.276 -2.67701 4.27027 0
M  V30 7795 H 744.878 -1.08723 3.57848 0
M  V30 7796 H 747.17 -3.11629 6.01576 0
M  V30 7797 H 748.113 -1.8338 6.83943 0
M  V30 7798 H 748.521 -2.29129 5.15907 0
M  V30 7799 N 747.919 -1.57396 -0.0801906 0
M  V30 7800 C 748.882 -2.02133 -1.0805 0
M  V30 7801 C 749.882 -0.91707 -1.32085 0
M  V30 7802 O 751.072 -1.18217 -1.27947 0
M  V30 7803 C 748.204 -2.39479 -2.42616 0
M  V30 7804 H 749.397 -2.91733 -0.6951 0
M  V30 7805 H 746.95 -1.52869 -0.325677 0
M  V30 7806 H 747.685 -1.52879 -2.86004 0
M  V30 7807 H 747.47 -3.20052 -2.26515 0
M  V30 7808 H 748.96 -2.74697 -3.14534 0
M  V30 7809 N 749.397 0.351382 -1.53633 0
M  V30 7810 C 750.645 1.09034 -1.70165 0
M  V30 7811 C 750.966 1.89413 -0.463422 0
M  V30 7812 O 750.236 1.888 0.522624 0
M  V30 7813 H 748.816 0.405522 -0.627344 0
M  V30 7814 H 751.478 0.394554 -1.90865 0
M  V30 7815 H 750.574 1.77215 -2.56907 0
M  V30 7816 N 750.875 1.45233 0.611969 0
M  V30 7817 C 752.152 1.39495 1.37115 0
M  V30 7818 C 752.532 0.0633303 2.11005 0
M  V30 7819 O 751.88 -0.954617 2.07604 0
M  V30 7820 C 752.09 2.60579 2.32163 0
M  V30 7821 C 753.438 3.05477 2.94905 0
M  V30 7822 O 754.462 2.60921 2.42485 0
M  V30 7823 O 753.321 3.82787 3.90047 0
M  V30 7824 H 750.415 0.55335 0.614599 0
M  V30 7825 H 752.961 1.57355 0.635423 0
M  V30 7826 H 751.733 3.49085 1.76793 0
M  V30 7827 H 751.356 2.45031 3.13122 0
M  V30 7828 N 752.353 -0.854086 1.3245 0
M  V30 7829 C 753.6 -1.60831 1.23043 0
M  V30 7830 C 753.928 -1.93389 -0.2076 0
M  V30 7831 O 753.183 -1.5756 -1.16075 0
M  V30 7832 C 753.482 -2.93746 2.03587 0
M  V30 7833 C 753.148 -2.80615 3.52939 0
M  V30 7834 C 751.81 -2.76742 3.93659 0
M  V30 7835 C 754.162 -2.66507 4.4791 0
M  V30 7836 C 751.49 -2.56638 5.27592 0
M  V30 7837 C 753.842 -2.47939 5.81987 0
M  V30 7838 C 752.506 -2.42458 6.21909 0
M  V30 7839 H 751.776 -0.588523 0.450247 0
M  V30 7840 H 754.423 -0.990699 1.63882 0
M  V30 7841 H 752.728 -3.5963 1.55478 0
M  V30 7842 H 754.425 -3.51127 1.93677 0
M  V30 7843 H 751.015 -2.84456 3.20598 0
M  V30 7844 H 755.199 -2.68544 4.1737 0
M  V30 7845 H 750.455 -2.50831 5.57579 0
M  V30 7846 H 754.629 -2.36002 6.55192 0
M  V30 7847 H 752.256 -2.2664 7.2563 0
M  V30 7848 N 753.831 -1.1567 -1.07043 0
M  V30 7849 C 755.077 -0.9349 -1.79965 0
M  V30 7850 C 755.41 0.536464 -1.86643 0
M  V30 7851 O 754.685 1.39781 -1.35247 0
M  V30 7852 C 754.968 -1.55371 -3.24857 0
M  V30 7853 C 754.821 -3.09589 -3.26305 0
M  V30 7854 C 756.14 -1.24209 -4.22209 0
M  V30 7855 H 753.259 -0.341061 -0.653335 0
M  V30 7856 H 755.901 -1.42883 -1.25237 0
M  V30 7857 H 754.051 -1.13368 -3.71591 0
M  V30 7858 H 755.723 -3.60521 -2.87789 0
M  V30 7859 H 753.966 -3.43315 -2.65174 0
M  V30 7860 H 754.637 -3.48002 -4.28484 0
M  V30 7861 H 757.113 -1.60548 -3.8388 0
M  V30 7862 H 755.989 -1.70119 -5.21872 0
M  V30 7863 H 756.25 -0.15964 -4.41812 0
M  V30 7864 N 755.309 1.25446 -0.953992 0
M  V30 7865 C 756.257 2.27909 -0.46478 0
M  V30 7866 C 757.251 1.62904 0.464607 0
M  V30 7867 O 758.457 1.76733 0.341407 0
M  V30 7868 H 754.832 0.74036 -0.131798 0
M  V30 7869 H 756.803 2.66559 -1.34122 0
M  V30 7870 C 755.552 3.46853 0.242589 0
M  V30 7871 H 754.875 3.97105 -0.463418 0
M  V30 7872 H 756.315 4.20432 0.548919 0
M  V30 7873 C 754.774 3.03386 1.46487 0
M  V30 7874 O 755.304 3.09342 2.56262 0
M  V30 7875 N 753.51 2.58584 1.32599 0
M  V30 7876 H 753.057 2.53938 0.432834 0
M  V30 7877 H 753.015 2.29866 2.14497 0
M  V30 7878 N 756.787 0.722489 1.40064 0
M  V30 7879 C 757.72 0.0233443 2.28188 0
M  V30 7880 C 758.698 -0.7606 1.43714 0
M  V30 7881 O 759.882 -0.745791 1.73119 0
M  V30 7882 C 757.009 -0.974264 3.24385 0
M  V30 7883 C 756.055 -0.280307 4.25578 0
M  V30 7884 S 756.888 0.996769 5.26141 0
M  V30 7885 C 758.044 0.00143923 6.259 0
M  V30 7886 H 758.277 0.770705 2.87137 0
M  V30 7887 H 755.81 0.513783 1.45601 0
M  V30 7888 H 757.768 -1.5446 3.80332 0
M  V30 7889 H 756.429 -1.69438 2.6448 0
M  V30 7890 H 755.622 -1.03471 4.93264 0
M  V30 7891 H 755.224 0.217657 3.73366 0
M  V30 7892 H 757.516 -0.843126 6.72233 0
M  V30 7893 H 758.459 0.645104 7.05155 0
M  V30 7894 H 758.867 -0.365371 5.63316 0
M  V30 7895 N 758.265 -1.50454 0.469181 0
M  V30 7896 C 759.511 -2.02615 -0.0865971 0
M  V30 7897 C 759.844 -1.35062 -1.39542 0
M  V30 7898 O 759.119 -0.475701 -1.88593 0
M  V30 7899 C 759.402 -3.59068 -0.272385 0
M  V30 7900 C 759.255 -4.37196 1.05733 0
M  V30 7901 C 760.574 -4.2793 -1.0278 0
M  V30 7902 H 757.693 -0.736389 -0.0299977 0
M  V30 7903 H 760.335 -1.79792 0.614399 0
M  V30 7904 H 758.485 -3.78646 -0.869471 0
M  V30 7905 H 760.157 -4.29195 1.69084 0
M  V30 7906 H 758.4 -4.01013 1.65442 0
M  V30 7907 H 759.071 -5.44924 0.880997 0
M  V30 7908 H 761.547 -4.12816 -0.521718 0
M  V30 7909 H 760.423 -5.37214 -1.12659 0
M  V30 7910 H 760.684 -3.90968 -2.0639 0
M  V30 7911 N 759.743 -0.201713 -1.56304 0
M  V30 7912 C 760.653 0.728296 -2.23009 0
M  V30 7913 C 761.669 1.22945 -1.23128 0
M  V30 7914 O 762.845 1.27523 -1.55884 0
M  V30 7915 C 759.91 1.92792 -2.88153 0
M  V30 7916 C 758.971 1.47068 -4.03323 0
M  V30 7917 C 758.204 2.61312 -4.65351 0
M  V30 7918 O 758.427 3.7896 -4.26317 0
M  V30 7919 O 757.361 2.33646 -5.54701 0
M  V30 7920 H 761.187 0.190166 -3.03104 0
M  V30 7921 H 758.772 0.0278725 -1.49374 0
M  V30 7922 H 760.654 2.6289 -3.29343 0
M  V30 7923 H 759.329 2.45452 -2.11033 0
M  V30 7924 H 758.236 0.738299 -3.66742 0
M  V30 7925 H 759.569 0.990666 -4.82127 0
M  V30 7926 N 761.222 1.57436 0.0718424 0
M  V30 7927 C 762.169 2.03686 1.08539 0
M  V30 7928 C 763.139 0.917474 1.38462 0
M  V30 7929 O 764.324 1.18513 1.4953 0
M  V30 7930 C 761.464 2.48566 2.39393 0
M  V30 7931 C 760.577 3.74122 2.16001 0
M  V30 7932 C 759.712 4.07786 3.40418 0
M  V30 7933 C 758.751 5.26383 3.1239 0
M  V30 7934 N 757.888 5.55685 4.29138 0
M  V30 7935 H 762.728 2.90043 0.684018 0
M  V30 7936 H 760.265 1.43438 0.326183 0
M  V30 7937 H 762.223 2.72639 3.15791 0
M  V30 7938 H 760.853 1.65186 2.77333 0
M  V30 7939 H 759.905 3.57389 1.30296 0
M  V30 7940 H 761.217 4.60659 1.91298 0
M  V30 7941 H 760.371 4.32759 4.25211 0
M  V30 7942 H 759.11 3.19817 3.68197 0
M  V30 7943 H 758.115 5.01206 2.25993 0
M  V30 7944 H 759.34 6.1597 2.85934 0
M  V30 7945 H 757.286 4.70675 4.56948 0
M  V30 7946 H 757.203 6.3664 4.07708 0
M  V30 7947 H 758.471 5.85209 5.14928 0
M  V30 7948 N 762.7 -0.34323 1.53817 0
M  V30 7949 C 763.948 -1.0813 1.70741 0
M  V30 7950 C 764.269 -1.89165 0.473461 0
M  V30 7951 O 763.539 -1.89075 -0.512605 0
M  V30 7952 H 762.119 -0.40219 0.629486 0
M  V30 7953 H 764.781 -0.384426 1.91071 0
M  V30 7954 H 763.877 -1.7585 2.57843 0
M  V30 7955 N 764.178 -1.45556 -0.604258 0
M  V30 7956 C 765.427 -1.49019 -1.35928 0
M  V30 7957 C 765.74 -0.137409 -1.95117 0
M  V30 7958 O 766.946 -0.0497032 -2.71455 0
M  V30 7959 C 765.402 -2.62477 -2.46239 0
M  V30 7960 C 765.01 -4.04082 -1.93447 0
M  V30 7961 C 766.754 -2.7519 -3.23219 0
M  V30 7962 C 764.661 -5.08917 -3.0126 0
M  V30 7963 H 763.591 -0.554518 -0.510907 0
M  V30 7964 H 766.242 -1.71705 -0.647262 0
M  V30 7965 H 764.624 -2.3308 -3.2014 0
M  V30 7966 H 765.798 -4.43173 -1.26232 0
M  V30 7967 H 764.113 -3.95849 -1.29201 0
M  V30 7968 H 766.71 -3.50683 -4.0364 0
M  V30 7969 H 767.053 -1.81941 -3.74437 0
M  V30 7970 H 767.586 -3.04129 -2.56418 0
M  V30 7971 H 764.325 -6.03886 -2.54955 0
M  V30 7972 H 763.845 -4.74393 -3.67031 0
M  V30 7973 H 765.524 -5.33814 -3.65584 0
M  V30 7974 N 765.656 0.84705 -1.32902 0
M  V30 7975 C 766.905 1.59667 -1.23245 0
M  V30 7976 C 767.218 1.94551 0.202349 0
M  V30 7977 O 768.424 2.68218 0.420847 0
M  V30 7978 C 766.88 2.8795 -2.15901 0
M  V30 7979 C 766.488 2.60461 -3.64505 0
M  V30 7980 C 768.232 3.65968 -2.15098 0
M  V30 7981 C 766.139 3.84791 -4.49099 0
M  V30 7982 H 765.069 0.599167 -0.457728 0
M  V30 7983 H 767.72 0.934662 -1.57912 0
M  V30 7984 H 766.102 3.55648 -1.74157 0
M  V30 7985 H 767.276 2.01026 -4.14639 0
M  V30 7986 H 765.591 1.9576 -3.67515 0
M  V30 7987 H 768.188 4.58241 -2.75534 0
M  V30 7988 H 768.531 4.00275 -1.14392 0
M  V30 7989 H 769.064 3.05184 -2.55162 0
M  V30 7990 H 765.803 3.55621 -5.50649 0
M  V30 7991 H 765.323 4.43594 -4.03713 0
M  V30 7992 H 767.002 4.52454 -4.62487 0
M  V30 7993 N 767.134 1.16236 1.06428 0
M  V30 7994 C 768.411 0.853294 1.76006 0
M  V30 7995 C 768.791 -0.649162 2.00871 0
M  V30 7996 O 768.139 -1.59653 1.63472 0
M  V30 7997 C 768.349 1.67448 3.06206 0
M  V30 7998 C 769.697 1.8866 3.80385 0
M  V30 7999 O 770.721 1.64303 3.16043 0
M  V30 8000 O 769.58 2.29518 4.95968 0
M  V30 8001 H 766.674 0.314737 0.764767 0
M  V30 8002 H 769.22 1.26865 1.12709 0
M  V30 8003 H 767.992 2.69411 2.83784 0
M  V30 8004 H 767.615 1.25608 3.77238 0
M  V30 8005 N 768.612 -1.24939 0.960631 0
M  V30 8006 C 770.023 -1.74701 0.658529 0
M  V30 8007 C 770.374 -1.77967 -0.825959 0
M  V30 8008 O 769.499 -1.40444 -1.64634 0
M  V30 8009 C 770.094 -3.17263 1.18867 0
M  V30 8010 C 768.653 -3.64561 0.936614 0
M  V30 8011 C 767.8 -2.43423 1.32817 0
M  V30 8012 H 770.751 -1.10741 1.13676 0
M  V30 8013 H 770.772 -3.76481 0.551589 0
M  V30 8014 H 770.284 -3.14854 2.26912 0
M  V30 8015 H 768.385 -3.72378 -0.128608 0
M  V30 8016 H 768.498 -4.52392 1.57729 0
M  V30 8017 H 766.862 -2.43513 0.746548 0
M  V30 8018 H 767.645 -2.437 2.41796 0
M  V30 8019 N 770.09 -0.729906 -1.39679 0
M  V30 8020 C 771.318 -0.285709 -2.04918 0
M  V30 8021 C 771.733 1.07765 -1.55023 0
M  V30 8022 O 771.09 1.67999 -0.712923 0
M  V30 8023 C 771.141 -0.272793 -3.60469 0
M  V30 8024 O 770.862 -1.58233 -4.08527 0
M  V30 8025 C 772.363 0.188199 -4.429 0
M  V30 8026 H 769.583 -0.125758 -0.65911 0
M  V30 8027 H 772.127 -0.992129 -1.78821 0
M  V30 8028 H 770.282 0.384699 -3.85485 0
M  V30 8029 H 770.696 -1.49245 -5.02818 0
M  V30 8030 H 772.17 0.14608 -5.51807 0
M  V30 8031 H 772.647 1.2326 -4.21549 0
M  V30 8032 H 773.253 -0.439541 -4.23023 0
M  V30 8033 N 771.568 1.50203 -0.477153 0
M  V30 8034 C 772.515 2.28656 0.31386 0
M  V30 8035 C 773.485 1.33977 0.981802 0
M  V30 8036 O 774.67 1.62919 0.993072 0
M  V30 8037 C 771.81 3.16027 1.38639 0
M  V30 8038 C 770.923 4.25743 0.732615 0
M  V30 8039 C 770.058 5.00363 1.78355 0
M  V30 8040 C 769.097 6.01945 1.11035 0
M  V30 8041 N 768.234 6.6982 2.10441 0
M  V30 8042 H 773.074 2.958 -0.361445 0
M  V30 8043 H 770.611 1.45867 -0.190093 0
M  V30 8044 H 772.569 3.6504 2.01994 0
M  V30 8045 H 771.199 2.50917 2.03077 0
M  V30 8046 H 770.251 3.80398 -0.0136546 0
M  V30 8047 H 771.563 4.98393 0.201513 0
M  V30 8048 H 770.717 5.53124 2.49276 0
M  V30 8049 H 769.456 4.27432 2.34847 0
M  V30 8050 H 768.461 5.48438 0.386797 0
M  V30 8051 H 769.686 6.76851 0.552248 0
M  V30 8052 H 767.632 5.99677 2.65939 0
M  V30 8053 H 767.549 7.38366 1.62332 0
M  V30 8054 H 768.817 7.27196 2.80724 0
M  V30 8055 N 773.046 0.209999 1.56195 0
M  V30 8056 C 774.292 -0.425442 1.98287 0
M  V30 8057 C 774.625 -1.60232 1.09724 0
M  V30 8058 O 773.9 -1.93902 0.152414 0
M  V30 8059 C 774.183 -0.871189 3.49403 0
M  V30 8060 C 774.036 0.308527 4.48741 0
M  V30 8061 C 775.355 -1.73146 4.04609 0
M  V30 8062 H 772.474 -0.153169 0.720908 0
M  V30 8063 H 775.116 0.303916 1.87554 0
M  V30 8064 H 773.266 -1.49266 3.58681 0
M  V30 8065 H 774.938 0.946487 4.51486 0
M  V30 8066 H 773.181 0.957878 4.23092 0
M  V30 8067 H 773.852 -0.0461143 5.51981 0
M  V30 8068 H 776.328 -1.2072 3.98203 0
M  V30 8069 H 775.204 -2.01228 5.10684 0
M  V30 8070 H 775.465 -2.69083 3.5078 0
M  V30 8071 N 774.524 -1.57472 -0.0634922 0
M  V30 8072 C 775.77 -1.87932 -0.762194 0
M  V30 8073 C 776.103 -0.803377 -1.76804 0
M  V30 8074 O 775.378 0.185468 -1.93614 0
M  V30 8075 C 775.661 -3.29053 -1.46275 0
M  V30 8076 C 775.514 -4.47309 -0.472755 0
M  V30 8077 C 776.833 -3.68537 -2.40558 0
M  V30 8078 H 773.952 -0.683521 -0.275624 0
M  V30 8079 H 776.594 -1.89983 -0.0252651 0
M  V30 8080 H 774.744 -3.27435 -2.0909 0
M  V30 8081 H 776.416 -4.61053 0.150828 0
M  V30 8082 H 774.659 -4.33286 0.211187 0
M  V30 8083 H 775.33 -5.42853 -1.00072 0
M  V30 8084 H 777.806 -3.71302 -1.87814 0
M  V30 8085 H 776.682 -4.68152 -2.86574 0
M  V30 8086 H 776.943 -2.98917 -3.25731 0
M  V30 8087 N 776.003 0.335068 -1.53997 0
M  V30 8088 C 777.419 0.678704 -1.4445 0
M  V30 8089 C 777.619 1.92106 -0.608078 0
M  V30 8090 O 776.675 2.52292 -0.102373 0
M  V30 8091 C 777.988 0.863435 -2.88037 0
M  V30 8092 C 779.536 0.961513 -2.97866 0
M  V30 8093 C 780.011 1.1785 -4.42578 0
M  V30 8094 N 781.502 1.2455 -4.46141 0
M  V30 8095 C 782.237 1.43106 -5.55255 0
M  V30 8096 N 781.733 1.5878 -6.74359 0
M  V30 8097 N 783.526 1.45722 -5.42883 0
M  V30 8098 H 775.677 -0.481656 -2.06867 0
M  V30 8099 H 777.94 -0.153615 -0.935471 0
M  V30 8100 H 777.646 0.0219511 -3.51693 0
M  V30 8101 H 777.52 1.76268 -3.33481 0
M  V30 8102 H 779.907 1.79351 -2.34344 0
M  V30 8103 H 779.988 0.0389862 -2.5577 0
M  V30 8104 H 779.632 0.351397 -5.06683 0
M  V30 8105 H 779.562 2.11472 -4.82273 0
M  V30 8106 H 782.053 1.13928 -3.60318 0
M  V30 8107 H 782.366 1.72599 -7.53279 0
M  V30 8108 H 780.711 1.559 -6.77289 0
M  V30 8109 H 783.902 1.33065 -4.48789 0
M  V30 8110 H 784.075 1.59841 -6.27977 0
M  V30 8111 N 777.481 1.45874 0.596531 0
M  V30 8112 C 778.709 1.54013 1.38158 0
M  V30 8113 C 779.124 0.17648 1.87973 0
M  V30 8114 O 778.481 -0.823895 1.62844 0
M  V30 8115 C 778.532 2.53363 2.57855 0
M  V30 8116 O 778.253 3.8443 2.10108 0
M  V30 8117 C 779.754 2.71308 3.50581 0
M  V30 8118 H 776.974 0.521251 0.422538 0
M  V30 8119 H 779.518 1.9116 0.726493 0
M  V30 8120 H 777.673 2.19257 3.19382 0
M  V30 8121 H 778.087 4.38384 2.87958 0
M  V30 8122 H 779.561 3.44776 4.31084 0
M  V30 8123 H 780.038 1.77728 4.01633 0
M  V30 8124 H 780.644 3.06455 2.94899 0
M  V30 8125 N 778.959 -0.83999 1.33349 0
M  V30 8126 C 779.922 -1.93128 1.23426 0
M  V30 8127 C 780.922 -1.60065 0.153599 0
M  V30 8128 O 782.112 -1.69425 0.405049 0
M  V30 8129 C 779.244 -3.28761 0.901622 0
M  V30 8130 H 780.437 -2.03352 2.20427 0
M  V30 8131 H 777.99 -1.03194 1.17391 0
M  V30 8132 H 778.725 -3.24233 -0.0659337 0
M  V30 8133 H 778.51 -3.54138 1.68311 0
M  V30 8134 H 780 -4.08714 0.856913 0
M  V30 8135 N 780.437 -1.16799 -1.0581 0
M  V30 8136 C 781.367 -0.902241 -2.15364 0
M  V30 8137 C 782.348 0.153351 -1.69407 0
M  V30 8138 O 783.533 0.00442032 -1.94199 0
M  V30 8139 C 780.663 -0.407911 -3.44896 0
M  V30 8140 C 779.617 -1.40197 -4.04387 0
M  V30 8141 C 778.943 -0.765848 -5.29187 0
M  V30 8142 C 780.243 -2.77316 -4.42598 0
M  V30 8143 H 781.937 -1.81841 -2.37853 0
M  V30 8144 H 779.483 -0.875731 -1.14311 0
M  V30 8145 H 781.436 -0.20945 -4.20879 0
M  V30 8146 H 780.16 0.54378 -3.22041 0
M  V30 8147 H 778.819 -1.58707 -3.30466 0
M  V30 8148 H 778.467 0.192482 -5.02632 0
M  V30 8149 H 778.167 -1.42939 -5.69949 0
M  V30 8150 H 779.691 -0.577519 -6.07863 0
M  V30 8151 H 781.105 -2.62561 -5.09642 0
M  V30 8152 H 779.502 -3.4019 -4.94359 0
M  V30 8153 H 780.572 -3.32199 -3.53231 0
M  V30 8154 N 781.915 1.24427 -0.967243 0
M  V30 8155 C 782.845 2.2773 -0.515899 0
M  V30 8156 C 783.826 1.64197 0.444227 0
M  V30 8157 O 785.011 1.91193 0.340451 0
M  V30 8158 C 782.141 3.46751 0.195149 0
M  V30 8159 C 781.095 4.22548 -0.680953 0
M  V30 8160 C 780.421 5.34456 0.161561 0
M  V30 8161 C 781.721 4.83914 -1.96532 0
M  V30 8162 H 783.415 2.65735 -1.37933 0
M  V30 8163 H 780.961 1.27742 -0.664681 0
M  V30 8164 H 782.914 4.18153 0.522117 0
M  V30 8165 H 781.638 3.07771 1.09292 0
M  V30 8166 H 780.297 3.52946 -0.991186 0
M  V30 8167 H 779.945 4.91716 1.05947 0
M  V30 8168 H 779.645 5.86087 -0.421418 0
M  V30 8169 H 781.169 6.08685 0.483211 0
M  V30 8170 H 782.583 5.47392 -1.70396 0
M  V30 8171 H 780.98 5.45775 -2.49499 0
M  V30 8172 H 782.05 4.05393 -2.66053 0
M  V30 8173 N 783.393 0.737304 1.3929 0
M  V30 8174 C 784.67 0.212464 1.94443 0
M  V30 8175 C 785.05 -1.28621 1.67391 0
M  V30 8176 O 784.398 -2.0529 1.00342 0
M  V30 8177 C 784.608 0.548565 3.44662 0
M  V30 8178 C 785.956 0.499177 4.21656 0
M  V30 8179 O 786.98 0.485892 3.5287 0
M  V30 8180 O 785.839 0.495739 5.44247 0
M  V30 8181 H 782.933 0.0395457 0.826054 0
M  V30 8182 H 785.479 0.816319 1.48776 0
M  V30 8183 H 784.251 1.58426 3.57795 0
M  V30 8184 H 783.874 -0.0841399 3.97511 0
M  V30 8185 N 784.871 -1.49948 0.485112 0
M  V30 8186 C 785.834 -2.27351 -0.290546 0
M  V30 8187 C 786.834 -1.32704 -0.908087 0
M  V30 8188 O 788.024 -1.56007 -0.775085 0
M  V30 8189 C 785.156 -3.10135 -1.41524 0
M  V30 8190 H 786.349 -2.97374 0.388454 0
M  V30 8191 H 783.902 -1.54453 0.239586 0
M  V30 8192 H 784.637 -2.44641 -2.12888 0
M  V30 8193 H 784.422 -3.79705 -0.978074 0
M  V30 8194 H 785.912 -3.68638 -1.96204 0
M  V30 8195 N 786.349 -0.21828 -1.56081 0
M  V30 8196 C 787.312 0.679633 -2.18892 0
M  V30 8197 C 788.312 1.12405 -1.14986 0
M  V30 8198 O 789.502 1.03339 -1.40238 0
M  V30 8199 C 786.634 1.93063 -2.80962 0
M  V30 8200 H 787.827 0.132066 -2.99609 0
M  V30 8201 H 785.38 0.0313374 -1.56269 0
M  V30 8202 H 786.115 2.52015 -2.04106 0
M  V30 8203 H 785.9 1.62046 -3.57048 0
M  V30 8204 H 787.39 2.57043 -3.29118 0
M  V30 8205 N 787.827 1.57504 0.0551401 0
M  V30 8206 C 789.075 1.87684 0.74962 0
M  V30 8207 C 789.396 0.812547 1.77264 0
M  V30 8208 O 788.666 -0.15694 1.9527 0
M  V30 8209 H 787.246 0.6926 0.279846 0
M  V30 8210 H 789.908 1.94881 0.0272745 0
M  V30 8211 H 789.004 2.85734 1.25548 0
M  V30 8212 N 789.305 -0.326896 1.54172 0
M  V30 8213 C 790.551 -1.06681 1.72473 0
M  V30 8214 C 790.884 -1.87779 0.49523 0
M  V30 8215 O 790.159 -1.87754 -0.507803 0
M  V30 8216 C 790.442 -1.99429 2.99834 0
M  V30 8217 C 790.295 -1.21682 4.33028 0
M  V30 8218 C 791.614 -2.99002 3.22933 0
M  V30 8219 H 788.733 -0.386438 0.627563 0
M  V30 8220 H 791.375 -0.343779 1.86864 0
M  V30 8221 H 789.525 -2.61081 2.87696 0
M  V30 8222 H 791.197 -0.625153 4.57044 0
M  V30 8223 H 789.44 -0.519045 4.30684 0
M  V30 8224 H 790.111 -1.89766 5.18356 0
M  V30 8225 H 792.587 -2.4747 3.34511 0
M  V30 8226 H 791.463 -3.61085 4.13412 0
M  V30 8227 H 791.724 -3.71281 2.40006 0
M  V30 8228 N 790.784 -1.46188 -0.588786 0
M  V30 8229 C 791.747 -1.55882 -1.68029 0
M  V30 8230 C 792.747 -0.436515 -1.54762 0
M  V30 8231 O 793.937 -0.700626 -1.59489 0
M  V30 8232 C 791.069 -1.47332 -3.07418 0
M  V30 8233 H 792.262 -2.5315 -1.60795 0
M  V30 8234 H 789.815 -1.33908 -0.806116 0
M  V30 8235 H 790.55 -0.513193 -3.20214 0
M  V30 8236 H 790.335 -2.28753 -3.18456 0
M  V30 8237 H 791.825 -1.57187 -3.86887 0
M  V30 8238 N 792.262 0.832906 -1.33792 0
M  V30 8239 C 793.487 1.62568 -1.28788 0
M  V30 8240 C 793.912 1.87599 0.137246 0
M  V30 8241 O 793.27 1.44436 1.0958 0
M  V30 8242 C 793.318 2.9495 -2.07453 0
M  V30 8243 O 792.422 3.86546 -1.43722 0
M  V30 8244 H 791.763 0.494809 -0.442787 0
M  V30 8245 H 794.293 1.03578 -1.76445 0
M  V30 8246 H 794.303 3.44599 -2.1844 0
M  V30 8247 H 792.978 2.76055 -3.11073 0
M  V30 8248 H 791.555 3.45044 -1.41417 0
M  V30 8249 N 793.74 1.17359 1.05189 0
M  V30 8250 C 794.67 0.91365 2.14883 0
M  V30 8251 C 795.651 -0.144365 1.69486 0
M  V30 8252 O 796.836 0.00587861 1.94199 0
M  V30 8253 C 793.966 0.426196 3.44675 0
M  V30 8254 C 792.92 1.4234 4.03638 0
M  V30 8255 C 792.246 0.793902 5.28773 0
M  V30 8256 C 793.546 2.7966 4.41121 0
M  V30 8257 H 795.24 1.831 2.36885 0
M  V30 8258 H 792.786 0.881781 1.13845 0
M  V30 8259 H 794.739 0.231767 4.20762 0
M  V30 8260 H 793.463 -0.526693 3.22325 0
M  V30 8261 H 792.122 1.60457 3.2962 0
M  V30 8262 H 791.77 -0.165824 5.02727 0
M  V30 8263 H 791.47 1.45959 5.69183 0
M  V30 8264 H 792.994 0.609747 6.07548 0
M  V30 8265 H 794.408 2.6526 5.08242 0
M  V30 8266 H 792.805 3.42807 4.92548 0
M  V30 8267 H 793.875 3.34068 3.51464 0
M  V30 8268 N 795.218 -1.23913 0.973828 0
M  V30 8269 C 796.148 -2.27453 0.527969 0
M  V30 8270 C 797.129 -1.6443 -0.435513 0
M  V30 8271 O 798.314 -1.9137 -0.330306 0
M  V30 8272 C 795.444 -3.4685 -0.176757 0
M  V30 8273 C 794.398 -4.22181 0.703352 0
M  V30 8274 C 793.724 -5.34534 -0.133215 0
M  V30 8275 C 795.024 -4.82865 1.99096 0
M  V30 8276 H 796.718 -2.65 1.3934 0
M  V30 8277 H 794.264 -1.27388 0.671446 0
M  V30 8278 H 796.217 -4.18424 -0.499934 0
M  V30 8279 H 794.941 -3.08346 -1.07659 0
M  V30 8280 H 793.6 -3.52416 1.00989 0
M  V30 8281 H 793.248 -4.92271 -1.03338 0
M  V30 8282 H 792.948 -5.85855 0.452494 0
M  V30 8283 H 794.472 -6.08933 -0.450924 0
M  V30 8284 H 795.886 -5.46481 1.73297 0
M  V30 8285 H 794.283 -5.44444 2.52389 0
M  V30 8286 H 795.353 -4.03977 2.68199 0
M  V30 8287 N 796.696 -0.74468 -1.38897 0
M  V30 8288 C 797.924 -0.307428 -2.04603 0
M  V30 8289 C 798.339 1.06115 -1.56157 0
M  V30 8290 O 797.696 1.67233 -0.730701 0
M  V30 8291 C 797.747 -0.31101 -3.6016 0
M  V30 8292 O 797.468 -1.62557 -4.06825 0
M  V30 8293 C 798.969 0.141213 -4.43075 0
M  V30 8294 H 796.189 -0.132741 -0.657739 0
M  V30 8295 H 798.733 -1.01104 -1.77759 0
M  V30 8296 H 796.888 0.343792 -3.85872 0
M  V30 8297 H 797.302 -1.54569 -5.01207 0
M  V30 8298 H 798.776 0.0875449 -5.51931 0
M  V30 8299 H 799.253 1.18782 -4.22833 0
M  V30 8300 H 799.859 -0.484383 -4.22533 0
M  V30 8301 N 798.174 1.49689 -0.493057 0
M  V30 8302 C 799.402 2.06836 0.0513141 0
M  V30 8303 C 799.817 1.35436 1.31539 0
M  V30 8304 O 799.174 0.430248 1.77356 0
M  V30 8305 C 799.225 3.60107 0.317003 0
M  V30 8306 O 798.946 4.2882 -0.896957 0
M  V30 8307 C 800.447 4.33945 0.905902 0
M  V30 8308 H 797.667 0.670787 -0.0169048 0
M  V30 8309 H 800.211 1.92574 -0.688139 0
M  V30 8310 H 798.366 3.74099 1.00642 0
M  V30 8311 H 798.78 5.20395 -0.654939 0
M  V30 8312 H 800.254 5.42087 1.04144 0
M  V30 8313 H 800.731 3.95895 1.90168 0
M  V30 8314 H 801.337 4.2454 0.254195 0
M  V30 8315 N 799.652 0.226554 1.55963 0
M  V30 8316 C 800.615 -0.668015 2.19249 0
M  V30 8317 C 801.615 -1.11794 1.1558 0
M  V30 8318 O 802.805 -1.02593 1.40784 0
M  V30 8319 C 799.937 -1.91571 2.81981 0
M  V30 8320 H 801.13 -0.116175 2.99675 0
M  V30 8321 H 798.683 -0.0230497 1.56283 0
M  V30 8322 H 799.418 -2.50929 2.05439 0
M  V30 8323 H 799.203 -1.6015 3.57903 0
M  V30 8324 H 800.693 -2.55294 3.30477 0
M  V30 8325 N 801.13 -1.57531 -0.0467866 0
M  V30 8326 C 802.04 -2.08768 -1.07018 0
M  V30 8327 C 803.056 -1.02245 -1.40791 0
M  V30 8328 O 804.232 -1.33873 -1.50466 0
M  V30 8329 C 801.297 -2.54221 -2.35738 0
M  V30 8330 C 800.358 -3.75152 -2.08709 0
M  V30 8331 C 799.591 -4.18428 -3.31291 0
M  V30 8332 O 799.814 -3.61365 -4.4133 0
M  V30 8333 O 798.748 -5.11018 -3.18032 0
M  V30 8334 H 802.574 -2.96334 -0.664812 0
M  V30 8335 H 800.159 -1.47074 -0.262605 0
M  V30 8336 H 802.041 -2.83866 -3.11445 0
M  V30 8337 H 800.716 -1.69774 -2.75605 0
M  V30 8338 H 799.623 -3.50553 -1.30627 0
M  V30 8339 H 800.956 -4.60528 -1.73708 0
M  V30 8340 N 802.608 0.318715 -1.54344 0
M  V30 8341 C 803.854 1.05765 -1.73037 0
M  V30 8342 C 804.187 1.87514 -0.505181 0
M  V30 8343 O 803.462 1.88021 0.497838 0
M  V30 8344 C 803.745 1.97836 -3.00887 0
M  V30 8345 C 803.598 1.19384 -4.33668 0
M  V30 8346 C 804.917 2.97285 -3.24514 0
M  V30 8347 H 802.036 0.383104 -0.629603 0
M  V30 8348 H 804.678 0.333864 -1.87044 0
M  V30 8349 H 802.828 2.59552 -2.89076 0
M  V30 8350 H 804.5 0.600906 -4.57369 0
M  V30 8351 H 802.743 0.496198 -4.30953 0
M  V30 8352 H 803.414 1.87014 -5.19355 0
M  V30 8353 H 805.89 2.45693 -3.35819 0
M  V30 8354 H 804.766 3.58887 -4.15321 0
M  V30 8355 H 805.027 3.70003 -2.41971 0
M  V30 8356 N 804.086 1.46499 0.581025 0
M  V30 8357 C 805.332 1.52121 1.34116 0
M  V30 8358 C 805.665 0.173031 1.93428 0
M  V30 8359 O 804.94 -0.815729 1.76568 0
M  V30 8360 C 805.223 2.62108 2.46924 0
M  V30 8361 C 805.076 4.06462 1.92636 0
M  V30 8362 C 806.395 2.68167 3.48962 0
M  V30 8363 H 803.514 0.5538 0.486287 0
M  V30 8364 H 806.156 1.78443 0.652538 0
M  V30 8365 H 804.306 2.39794 3.05665 0
M  V30 8366 H 805.978 4.40068 1.3834 0
M  V30 8367 H 804.221 4.15862 1.23455 0
M  V30 8368 H 804.892 4.79152 2.74076 0
M  V30 8369 H 807.368 2.8823 3.00104 0
M  V30 8370 H 806.244 3.46942 4.2535 0
M  V30 8371 H 806.505 1.74284 4.06297 0
M  V30 8372 N 805.565 -0.825799 1.34232 0
M  V30 8373 C 806.811 -1.58419 1.26614 0
M  V30 8374 C 807.144 -1.93503 -0.164341 0
M  V30 8375 O 806.419 -1.59785 -1.109 0
M  V30 8376 C 806.702 -2.8856 2.15418 0
M  V30 8377 C 806.555 -2.60075 3.66989 0
M  V30 8378 C 807.874 -3.90107 2.03726 0
M  V30 8379 H 804.993 -0.574794 0.461282 0
M  V30 8380 H 807.635 -0.951519 1.64457 0
M  V30 8381 H 805.785 -3.42553 1.83275 0
M  V30 8382 H 807.457 -2.12414 4.09485 0
M  V30 8383 H 805.7 -1.93565 3.88221 0
M  V30 8384 H 806.371 -3.52866 4.24488 0
M  V30 8385 H 808.847 -3.45459 2.31942 0
M  V30 8386 H 807.723 -4.78976 2.68092 0
M  V30 8387 H 807.984 -4.30329 1.01337 0
M  V30 8388 N 807.043 -1.17915 -1.04565 0
M  V30 8389 C 808.271 -0.99616 -1.8134 0
M  V30 8390 C 808.686 0.455509 -1.83223 0
M  V30 8391 O 808.043 1.31636 -1.26405 0
M  V30 8392 C 808.094 -1.53758 -3.27171 0
M  V30 8393 O 807.815 -2.93241 -3.25486 0
M  V30 8394 C 809.316 -1.40007 -4.2061 0
M  V30 8395 H 806.536 -0.352055 -0.571225 0
M  V30 8396 H 809.08 -1.56349 -1.31815 0
M  V30 8397 H 807.235 -1.01213 -3.73945 0
M  V30 8398 H 807.649 -3.18392 -4.16805 0
M  V30 8399 H 809.123 -1.82695 -5.2089 0
M  V30 8400 H 809.6 -0.348054 -4.37819 0
M  V30 8401 H 810.206 -1.916 -3.79697 0
M  V30 8402 N 808.521 1.23394 -0.980386 0
M  V30 8403 C 809.431 2.28561 -0.528864 0
M  V30 8404 C 810.447 1.68946 0.416329 0
M  V30 8405 O 811.623 1.99355 0.286251 0
M  V30 8406 C 808.688 3.46323 0.16155 0
M  V30 8407 C 807.749 4.21297 -0.825044 0
M  V30 8408 C 806.982 5.33437 -0.167483 0
M  V30 8409 O 807.205 5.60812 1.04146 0
M  V30 8410 O 806.139 5.95637 -0.866047 0
M  V30 8411 H 809.965 2.69326 -1.40346 0
M  V30 8412 H 807.55 1.29325 -0.748019 0
M  V30 8413 H 809.432 4.17811 0.548841 0
M  V30 8414 H 808.107 3.0751 1.01092 0
M  V30 8415 H 807.014 3.52134 -1.26303 0
M  V30 8416 H 808.347 4.6396 -1.64322 0
M  V30 8417 N 809.999 0.752036 1.385 0
M  V30 8418 C 811.248 0.304294 1.99391 0
M  V30 8419 C 811.561 -1.11982 1.60373 0
M  V30 8420 O 812.767 -1.66795 2.14223 0
M  V30 8421 C 811.223 0.493101 3.56506 0
M  V30 8422 C 810.831 1.9262 4.04477 0
M  V30 8423 C 812.575 0.107994 4.24363 0
M  V30 8424 C 810.482 2.06365 5.54227 0
M  V30 8425 H 809.412 0.110024 0.745929 0
M  V30 8426 H 812.063 0.928355 1.58284 0
M  V30 8427 H 810.445 -0.20012 3.95494 0
M  V30 8428 H 811.619 2.65276 3.76783 0
M  V30 8429 H 809.934 2.26608 3.49339 0
M  V30 8430 H 812.531 0.189474 5.34364 0
M  V30 8431 H 812.874 -0.939165 4.05568 0
M  V30 8432 H 813.407 0.753011 3.90608 0
M  V30 8433 H 810.146 3.0933 5.77923 0
M  V30 8434 H 809.666 1.38167 5.83669 0
M  V30 8435 H 811.345 1.85286 6.19902 0
M  V30 8436 N 811.477 -1.49425 0.500989 0
M  V30 8437 C 812.888 -1.86624 0.0532011 0
M  V30 8438 C 813.239 -1.41331 -1.36088 0
M  V30 8439 O 812.364 -0.791195 -2.01418 0
M  V30 8440 C 812.959 -3.38681 0.0897693 0
M  V30 8441 C 811.518 -3.75181 -0.302677 0
M  V30 8442 C 810.665 -2.73419 0.462307 0
M  V30 8443 H 813.616 -1.41743 0.713773 0
M  V30 8444 H 813.637 -3.73902 -0.705528 0
M  V30 8445 H 813.149 -3.71616 1.11907 0
M  V30 8446 H 811.25 -3.47855 -1.33521 0
M  V30 8447 H 811.363 -4.79097 0.0167653 0
M  V30 8448 H 809.727 -2.54548 -0.0878557 0
M  V30 8449 H 810.51 -3.09198 1.49169 0
M  V30 8450 N 812.955 -0.234822 -1.55841 0
M  V30 8451 C 813.902 0.6698 -2.20867 0
M  V30 8452 C 814.872 1.18042 -1.16856 0
M  V30 8453 O 816.057 1.23709 -1.45261 0
M  V30 8454 C 813.197 1.86646 -2.90271 0
M  V30 8455 C 812.31 1.39351 -4.08908 0
M  V30 8456 C 811.445 2.54878 -4.66059 0
M  V30 8457 C 810.484 2.04384 -5.76969 0
M  V30 8458 N 809.621 3.13233 -6.28355 0
M  V30 8459 H 814.461 0.10858 -2.97802 0
M  V30 8460 H 811.998 0.041836 -1.4704 0
M  V30 8461 H 813.956 2.56926 -3.28702 0
M  V30 8462 H 812.586 2.40035 -2.15831 0
M  V30 8463 H 811.638 0.585173 -3.75872 0
M  V30 8464 H 812.95 0.983356 -4.89011 0
M  V30 8465 H 812.104 3.33219 -5.07001 0
M  V30 8466 H 810.843 2.99188 -3.85146 0
M  V30 8467 H 809.848 1.24509 -5.35516 0
M  V30 8468 H 811.073 1.61057 -6.59725 0
M  V30 8469 H 809.019 3.57 -5.50352 0
M  V30 8470 H 808.936 2.76511 -7.03618 0
M  V30 8471 H 810.204 3.91669 -6.73955 0
M  V30 8472 N 814.433 1.57553 0.0384317 0
M  V30 8473 C 815.343 2.09333 1.0591 0
M  V30 8474 C 816.359 1.0299 1.40247 0
M  V30 8475 O 817.535 1.34669 1.49754 0
M  V30 8476 C 814.6 2.55468 2.34386 0
M  V30 8477 C 813.661 3.76254 2.06716 0
M  V30 8478 C 812.894 4.20179 3.29067 0
M  V30 8479 O 813.117 3.637 4.39407 0
M  V30 8480 O 812.051 5.12697 3.15317 0
M  V30 8481 H 815.877 2.96683 0.649087 0
M  V30 8482 H 813.462 1.47211 0.254802 0
M  V30 8483 H 815.344 2.85514 3.09935 0
M  V30 8484 H 814.019 1.71234 2.74701 0
M  V30 8485 H 812.926 3.51241 1.28766 0
M  V30 8486 H 814.259 4.61443 1.71263 0
M  V30 8487 N 815.911 -0.310526 1.54511 0
M  V30 8488 C 816.821 -1.4054 1.87844 0
M  V30 8489 C 817.837 -1.55954 0.771635 0
M  V30 8490 O 819.013 -1.70801 1.06719 0
M  V30 8491 C 816.078 -2.75063 2.11048 0
M  V30 8492 C 815.139 -2.68715 3.348 0
M  V30 8493 C 814.372 -3.96821 3.56887 0
M  V30 8494 O 814.595 -4.95721 2.82165 0
M  V30 8495 O 813.529 -3.99291 4.50389 0
M  V30 8496 H 817.355 -1.15275 2.80972 0
M  V30 8497 H 814.94 -0.505732 1.4058 0
M  V30 8498 H 816.822 -3.54671 2.27566 0
M  V30 8499 H 815.497 -3.00191 1.21108 0
M  V30 8500 H 814.404 -1.87611 3.23655 0
M  V30 8501 H 815.737 -2.4854 4.2484 0
M  V30 8502 N 817.389 -1.46805 -0.573248 0
M  V30 8503 C 818.336 -1.58084 -1.68161 0
M  V30 8504 C 819.306 -0.424636 -1.6058 0
M  V30 8505 O 820.491 -0.642623 -1.79652 0
M  V30 8506 C 817.631 -1.58601 -3.06496 0
M  V30 8507 C 816.744 -2.85023 -3.24632 0
M  V30 8508 C 815.879 -2.76981 -4.53271 0
M  V30 8509 C 814.918 -3.983 -4.64783 0
M  V30 8510 N 814.055 -3.88589 -5.84759 0
M  V30 8511 H 818.895 -2.52755 -1.57858 0
M  V30 8512 H 816.432 -1.25385 -0.769218 0
M  V30 8513 H 818.39 -1.56885 -3.86579 0
M  V30 8514 H 817.02 -0.674553 -3.15673 0
M  V30 8515 H 816.072 -2.96678 -2.38089 0
M  V30 8516 H 817.384 -3.7491 -3.29004 0
M  V30 8517 H 816.538 -2.73424 -5.41594 0
M  V30 8518 H 815.277 -1.84751 -4.51352 0
M  V30 8519 H 814.282 -4.02179 -3.74876 0
M  V30 8520 H 815.507 -4.91639 -4.68474 0
M  V30 8521 H 813.453 -2.99151 -5.83819 0
M  V30 8522 H 813.37 -4.7214 -5.90441 0
M  V30 8523 H 814.638 -3.89022 -6.75486 0
M  V30 8524 N 818.867 0.818669 -1.34668 0
M  V30 8525 C 820.144 1.56118 -1.17841 0
M  V30 8526 C 820.524 2.09646 0.24731 0
M  V30 8527 O 819.872 1.91329 1.24922 0
M  V30 8528 C 820.082 2.67922 -2.23649 0
M  V30 8529 C 821.43 3.36579 -2.58843 0
M  V30 8530 O 822.454 2.78182 -2.22471 0
M  V30 8531 O 821.313 4.42045 -3.21339 0
M  V30 8532 H 818.407 0.689216 -0.457067 0
M  V30 8533 H 820.953 0.859674 -1.46314 0
M  V30 8534 H 819.725 2.26153 -3.19328 0
M  V30 8535 H 819.348 3.45719 -1.96377 0
M  V30 8536 N 820.346 1.18468 1.03938 0
M  V30 8537 C 821.757 0.984808 1.58614 0
M  V30 8538 C 822.108 -0.465165 1.90606 0
M  V30 8539 O 821.233 -1.34274 1.69704 0
M  V30 8540 C 821.828 1.78135 2.8819 0
M  V30 8541 C 820.387 1.62579 3.39478 0
M  V30 8542 C 819.534 1.77501 2.13046 0
M  V30 8543 H 822.485 1.32993 0.865944 0
M  V30 8544 H 822.506 1.27119 3.58638 0
M  V30 8545 H 822.018 2.83661 2.64874 0
M  V30 8546 H 820.119 0.59595 3.67803 0
M  V30 8547 H 820.232 2.42463 4.13217 0
M  V30 8548 H 818.596 1.2046 2.24414 0
M  V30 8549 H 819.379 2.84464 1.92185 0
M  V30 8550 N 821.824 -1.22873 0.986916 0
M  V30 8551 C 823.072 -1.91084 0.658121 0
M  V30 8552 C 823.393 -1.77304 -0.811675 0
M  V30 8553 O 822.663 -1.15649 -1.58121 0
M  V30 8554 H 821.243 -0.707251 0.240427 0
M  V30 8555 H 823.905 -1.49357 1.25213 0
M  V30 8556 H 823.001 -2.98373 0.915428 0
M  V30 8557 N 823.302 -0.75937 -1.38099 0
M  V30 8558 C 824.235 -0.0838362 -2.28046 0
M  V30 8559 C 825.213 0.722229 -1.4568 0
M  V30 8560 O 826.397 0.699629 -1.75036 0
M  V30 8561 C 823.524 0.887916 -3.26854 0
M  V30 8562 C 822.57 0.167374 -4.26171 0
M  V30 8563 S 823.403 -1.13592 -5.23314 0
M  V30 8564 C 824.559 -0.167385 -6.25676 0
M  V30 8565 H 824.792 -0.846564 -2.84992 0
M  V30 8566 H 822.325 -0.552206 -1.44188 0
M  V30 8567 H 824.283 1.44322 -3.84293 0
M  V30 8568 H 822.944 1.62366 -2.68879 0
M  V30 8569 H 822.137 0.903567 -4.95834 0
M  V30 8570 H 821.739 -0.316572 -3.72658 0
M  V30 8571 H 824.031 0.664598 -6.74232 0
M  V30 8572 H 824.974 -0.831836 -7.03197 0
M  V30 8573 H 825.382 0.21589 -5.64087 0
M  V30 8574 N 824.78 1.49157 -0.508906 0
M  V30 8575 C 826.028 2.02073 0.0327335 0
M  V30 8576 C 826.349 1.39012 1.3675 0
M  V30 8577 O 825.619 0.548153 1.88075 0
M  V30 8578 H 824.199 0.746848 0.0150864 0
M  V30 8579 H 826.861 1.83097 -0.667946 0
M  V30 8580 H 825.957 3.11707 0.1566 0
M  V30 8581 N 826.258 0.243083 1.55714 0
M  V30 8582 C 827.221 -0.644723 2.19945 0
M  V30 8583 C 828.221 -1.10562 1.16759 0
M  V30 8584 O 829.411 -1.01095 1.41865 0
M  V30 8585 C 826.543 -1.88569 2.83997 0
M  V30 8586 H 827.736 -0.0843839 2.99781 0
M  V30 8587 H 825.289 -0.00647246 1.56299 0
M  V30 8588 H 826.024 -2.48736 2.08089 0
M  V30 8589 H 825.809 -1.56345 3.59581 0
M  V30 8590 H 827.299 -2.51774 3.33166 0
M  V30 8591 N 827.736 -1.57571 -0.0300757 0
M  V30 8592 C 828.669 -2.01874 -1.06406 0
M  V30 8593 C 829.647 -0.902901 -1.35227 0
M  V30 8594 O 830.831 -1.16865 -1.47901 0
M  V30 8595 C 827.958 -2.39093 -2.39901 0
M  V30 8596 C 827.004 -3.61108 -2.26943 0
M  V30 8597 S 827.837 -5.10287 -1.62382 0
M  V30 8598 C 828.993 -5.50747 -2.97369 0
M  V30 8599 H 829.226 -2.89261 -0.686703 0
M  V30 8600 H 826.759 -1.52523 -0.240017 0
M  V30 8601 H 828.717 -2.61207 -3.16672 0
M  V30 8602 H 827.378 -1.52159 -2.74784 0
M  V30 8603 H 826.571 -3.84803 -3.25489 0
M  V30 8604 H 826.173 -3.3884 -1.58314 0
M  V30 8605 H 828.465 -5.51369 -3.93698 0
M  V30 8606 H 829.408 -6.51071 -2.78409 0
M  V30 8607 H 829.816 -4.7825 -2.99895 0
M  V30 8608 N 829.214 0.302327 -1.54673 0
M  V30 8609 C 830.462 1.03565 -1.73547 0
M  V30 8610 C 830.783 1.87843 -0.523448 0
M  V30 8611 O 830.053 1.90367 0.462295 0
M  V30 8612 H 828.633 0.385358 -0.639928 0
M  V30 8613 H 831.295 0.333632 -1.92023 0
M  V30 8614 H 830.391 1.68952 -2.62415 0
M  V30 8615 N 830.692 1.47107 0.565454 0
M  V30 8616 C 831.94 1.53005 1.32038 0
M  V30 8617 C 832.261 0.190453 1.94068 0
M  V30 8618 O 831.531 -0.784783 1.79494 0
M  V30 8619 H 830.111 0.563578 0.490294 0
M  V30 8620 H 832.773 1.83351 0.660928 0
M  V30 8621 H 831.869 2.29215 2.11818 0
M  V30 8622 N 832.17 -0.811516 1.35101 0
M  V30 8623 C 833.103 -1.92872 1.21966 0
M  V30 8624 C 834.081 -1.62236 0.108667 0
M  V30 8625 O 835.265 -1.8647 0.275875 0
M  V30 8626 C 832.392 -3.27152 0.876886 0
M  V30 8627 C 831.438 -3.7674 1.99924 0
M  V30 8628 S 832.271 -3.95132 3.61429 0
M  V30 8629 C 833.427 -5.32322 3.29218 0
M  V30 8630 H 833.66 -2.03718 2.16532 0
M  V30 8631 H 831.193 -0.968352 1.20259 0
M  V30 8632 H 833.151 -4.04729 0.685917 0
M  V30 8633 H 831.812 -3.14059 -0.0506289 0
M  V30 8634 H 831.005 -4.73981 1.71343 0
M  V30 8635 H 830.607 -3.06145 2.14829 0
M  V30 8636 H 832.899 -6.1614 2.8174 0
M  V30 8637 H 833.842 -5.65893 4.25641 0
M  V30 8638 H 834.25 -4.98374 2.65111 0
M  V30 8639 N 833.648 -1.19017 -1.03309 0
M  V30 8640 C 834.896 -0.988258 -1.76289 0
M  V30 8641 C 835.217 0.482557 -1.88935 0
M  V30 8642 O 834.487 1.34969 -1.41987 0
M  V30 8643 H 833.067 -0.36267 -0.653054 0
M  V30 8644 H 835.729 -1.49836 -1.2464 0
M  V30 8645 H 834.825 -1.43273 -2.77271 0
M  V30 8646 N 835.127 1.22348 -0.993418 0
M  V30 8647 C 836.375 1.90733 -0.668246 0
M  V30 8648 C 836.696 1.77732 0.802261 0
M  V30 8649 O 835.966 1.16486 1.57505 0
M  V30 8650 H 834.546 0.705966 -0.244174 0
M  V30 8651 H 837.208 1.48691 -1.26004 0
M  V30 8652 H 836.304 2.97883 -0.931239 0
M  V30 8653 N 836.605 0.766683 1.37694 0
M  V30 8654 C 837.853 0.328065 1.9942 0
M  V30 8655 C 838.174 -1.09775 1.61166 0
M  V30 8656 O 837.444 -1.75288 0.874686 0
M  V30 8657 H 836.024 0.11831 0.737572 0
M  V30 8658 H 838.686 0.983686 1.68255 0
M  V30 8659 H 837.782 0.401647 3.09505 0
M  V30 8660 N 838.083 -1.48885 0.516809 0
M  V30 8661 C 839.016 -2.26218 -0.30011 0
M  V30 8662 C 839.994 -1.31491 -0.956496 0
M  V30 8663 O 841.178 -1.6081 -0.983488 0
M  V30 8664 C 838.305 -3.07315 -1.42392 0
M  V30 8665 C 837.351 -4.17316 -0.880295 0
M  V30 8666 S 838.184 -5.34955 0.24146 0
M  V30 8667 C 839.34 -6.1961 -0.885138 0
M  V30 8668 H 839.573 -2.95158 0.356217 0
M  V30 8669 H 837.106 -1.5141 0.302365 0
M  V30 8670 H 839.064 -3.54619 -2.06775 0
M  V30 8671 H 837.725 -2.37813 -2.05192 0
M  V30 8672 H 836.918 -4.73635 -1.72297 0
M  V30 8673 H 836.52 -3.72685 -0.313396 0
M  V30 8674 H 838.812 -6.53513 -1.78682 0
M  V30 8675 H 839.755 -7.07183 -0.360226 0
M  V30 8676 H 840.163 -5.52461 -1.1596 0
M  V30 8677 N 839.561 -0.251338 -1.55583 0
M  V30 8678 C 840.809 0.371434 -1.98657 0
M  V30 8679 C 841.13 1.58143 -1.14087 0
M  V30 8680 O 840.4 1.94607 -0.224708 0
M  V30 8681 H 838.98 0.140225 -0.733721 0
M  V30 8682 H 841.642 -0.351157 -1.9171 0
M  V30 8683 H 840.738 0.677554 -3.04657 0
M  V30 8684 N 841.039 1.57585 0.0217189 0
M  V30 8685 C 842.287 1.89231 0.709641 0
M  V30 8686 C 842.608 0.849964 1.75501 0
M  V30 8687 O 841.878 -0.115485 1.95559 0
M  V30 8688 H 840.458 0.69838 0.265092 0
M  V30 8689 H 843.12 1.94895 -0.0140688 0
M  V30 8690 H 842.216 2.88333 1.19459 0
M  V30 8691 N 842.517 -0.29412 1.54831 0
M  V30 8692 C 843.765 -1.02643 1.74094 0
M  V30 8693 C 844.086 -1.87563 0.533402 0
M  V30 8694 O 843.356 -1.9061 -0.452192 0
M  V30 8695 H 841.936 -0.381959 0.641963 0
M  V30 8696 H 844.598 -0.323444 1.92197 0
M  V30 8697 H 843.694 -1.67558 2.63307 0
M  V30 8698 N 843.995 -1.47404 -0.557645 0
M  V30 8699 C 844.928 -1.54399 -1.68036 0
M  V30 8700 C 845.906 -0.396175 -1.577 0
M  V30 8701 O 847.09 -0.603911 -1.78564 0
M  V30 8702 C 844.217 -1.44611 -3.06277 0
M  V30 8703 C 843.263 -2.63889 -3.35059 0
M  V30 8704 S 844.096 -4.26086 -3.24362 0
M  V30 8705 C 845.252 -4.1885 -4.65097 0
M  V30 8706 H 845.485 -2.49384 -1.61849 0
M  V30 8707 H 843.018 -1.35597 -0.738429 0
M  V30 8708 H 844.976 -1.39651 -3.86015 0
M  V30 8709 H 843.637 -0.510114 -3.0993 0
M  V30 8710 H 842.83 -2.53103 -4.35838 0
M  V30 8711 H 842.432 -2.65969 -2.62938 0
M  V30 8712 H 844.724 -3.87077 -5.56037 0
M  V30 8713 H 845.667 -5.19714 -4.8094 0
M  V30 8714 H 846.075 -3.49717 -4.43123 0
M  V30 8715 N 845.473 0.80434 -1.35529 0
M  V30 8716 C 846.72 1.56154 -1.28927 0
M  V30 8717 C 847.048 1.94026 0.135682 0
M  V30 8718 O 846.303 1.61759 1.10148 0
M  V30 8719 C 846.602 2.85988 -2.14349 0
M  V30 8720 C 846.268 2.67323 -3.6311 0
M  V30 8721 C 844.93 2.61941 -4.03659 0
M  V30 8722 C 847.282 2.49699 -4.57493 0
M  V30 8723 C 844.61 2.3688 -5.36754 0
M  V30 8724 C 846.962 2.26168 -5.90788 0
M  V30 8725 C 845.626 2.19209 -6.30479 0
M  V30 8726 H 844.896 0.571407 -0.471779 0
M  V30 8727 H 847.543 0.929193 -1.67446 0
M  V30 8728 H 845.848 3.53612 -1.68718 0
M  V30 8729 H 847.545 3.43697 -2.06576 0
M  V30 8730 H 844.135 2.72361 -3.30934 0
M  V30 8731 H 848.319 2.52869 -4.27049 0
M  V30 8732 H 843.575 2.29964 -5.66504 0
M  V30 8733 H 847.749 2.11522 -6.63499 0
M  V30 8734 H 845.376 1.99553 -7.33541 0
M  V30 8735 O 846.99 1.31082 0.943381 0
M  V30 8736 H 847.681 1.13016 1.57312 0
M  V30 END ATOM
M  V30 BEGIN BOND
M  V30 END BOND
M  V30 END CTAB
M  END
$$$$
