drugbank_target|P10802 Dihydrolipoyllysine-residue acetyltransferase component of pyruvate dehydrogenase complex (DB01846; DB01992; DB08120)
 OpenBabel12092119523D

  0  0  0     0  0            999 V3000
M  V30 BEGIN CTAB
M  V30 COUNTS 9298 9373 0 0 0
M  V30 BEGIN ATOM
M  V30 1 H -0.908 1.98254 -0.117106 0
M  V30 2 N 0 1.576 0 0
M  V30 3 C 0.933 2.03868 1.02534 0
M  V30 4 C 1.911 0.928543 1.3348 0
M  V30 5 O 3.095 1.19667 1.45644 0
M  V30 6 C 0.222 2.43627 2.35294 0
M  V30 7 C -0.732 3.65373 2.2001 0
M  V30 8 S 0.101 5.13292 1.52614 0
M  V30 9 C 1.257 5.56322 2.86805 0
M  V30 10 H 1.49 2.90518 0.631377 0
M  V30 11 H -0.977 1.52953 0.210867 0
M  V30 12 H 0.981 2.67203 3.11629 0
M  V30 13 H -0.358 1.57376 2.7183 0
M  V30 14 H -1.165 3.90944 3.18086 0
M  V30 15 H -1.563 3.418 1.51819 0
M  V30 16 H 0.729 5.58782 3.83104 0
M  V30 17 H 1.672 6.56266 2.65933 0
M  V30 18 H 2.08 4.83886 2.90714 0
M  V30 19 N 1.4781 -0.272755 1.55222 0
M  V30 20 C 2.7031 -1.02683 1.80197 0
M  V30 21 C 3.1281 -1.79142 0.573551 0
M  V30 22 O 2.4861 -1.74917 -0.476849 0
M  V30 23 C 2.5341 -1.9609 3.02624 0
M  V30 24 O 1.6381 -3.04863 2.77727 0
M  V30 25 H 0.9791 -0.293557 0.595584 0
M  V30 26 H 3.5091 -0.30159 2.02365 0
M  V30 27 H 3.5191 -2.38039 3.31363 0
M  V30 28 H 2.1941 -1.39851 3.91682 0
M  V30 29 H 0.7711 -2.67228 2.60084 0
M  V30 30 N 2.9562 -1.48159 -0.537278 0
M  V30 31 C 3.8662 -1.64807 -1.6696 0
M  V30 32 C 4.8822 -0.530651 -1.65711 0
M  V30 33 O 6.0582 -0.800784 -1.84796 0
M  V30 34 C 3.1232 -1.67708 -3.03438 0
M  V30 35 C 2.1842 -2.91025 -3.156 0
M  V30 36 C 1.4172 -2.93778 -4.45567 0
M  V30 37 O 1.6402 -2.05153 -5.3223 0
M  V30 38 O 0.5742 -3.85868 -4.61941 0
M  V30 39 H 4.4002 -2.6066 -1.55853 0
M  V30 40 H 1.9852 -1.31475 -0.709549 0
M  V30 41 H 3.8672 -1.7218 -3.84619 0
M  V30 42 H 2.5422 -0.750278 -3.14885 0
M  V30 43 H 1.4492 -2.92089 -2.33741 0
M  V30 44 H 2.7822 -3.83065 -3.09066 0
M  V30 45 N 4.4343 0.785586 -1.36625 0
M  V30 46 C 5.6833 1.53883 -1.30396 0
M  V30 47 C 5.9963 1.95271 0.113452 0
M  V30 48 O 7.2023 2.69858 0.298142 0
M  V30 49 C 5.6583 2.77808 -2.28802 0
M  V30 50 C 5.2663 2.43574 -3.75999 0
M  V30 51 C 7.0103 3.55783 -2.31558 0
M  V30 52 C 4.9173 3.63919 -4.66173 0
M  V30 53 H 3.8473 0.577678 -0.484566 0
M  V30 54 H 6.4983 0.861705 -1.62009 0
M  V30 55 H 4.8803 3.47339 -1.90188 0
M  V30 56 H 6.0543 1.81916 -4.23371 0
M  V30 57 H 4.3693 1.78803 -3.76056 0
M  V30 58 H 6.9663 4.45205 -2.96137 0
M  V30 59 H 7.3093 3.94644 -1.3252 0
M  V30 60 H 7.8423 2.93235 -2.68809 0
M  V30 61 H 4.5813 3.3015 -5.66287 0
M  V30 62 H 4.1013 4.2473 -4.23515 0
M  V30 63 H 5.7803 4.30901 -4.82632 0
M  V30 64 N 5.9124 1.20967 1.01018 0
M  V30 65 C 7.1614 1.01796 1.74128 0
M  V30 66 C 7.4744 -0.449691 1.90361 0
M  V30 67 O 8.6804 -0.76068 2.60626 0
M  V30 68 C 7.1364 1.7727 3.13215 0
M  V30 69 C 6.7444 3.28171 3.04972 0
M  V30 70 C 8.4884 1.66489 3.90489 0
M  V30 71 C 6.3954 3.96156 4.39107 0
M  V30 72 H 5.3254 0.377276 0.652824 0
M  V30 73 H 7.9764 1.44651 1.12909 0
M  V30 74 H 6.3584 1.27205 3.75013 0
M  V30 75 H 7.5324 3.85499 2.52443 0
M  V30 76 H 5.8474 3.39437 2.41188 0
M  V30 77 H 8.4444 2.14617 4.89738 0
M  V30 78 H 8.7874 0.6222 4.11624 0
M  V30 79 H 9.3204 2.14003 3.35332 0
M  V30 80 H 6.0594 5.00604 4.23174 0
M  V30 81 H 5.5794 3.43617 4.91617 0
M  V30 82 H 7.2584 4.00774 5.07926 0
M  V30 83 N 7.3905 -1.2043 1.01659 0
M  V30 84 C 8.8065 -1.41852 0.731442 0
M  V30 85 C 9.0065 -1.89358 -0.688898 0
M  V30 86 O 8.0625 -2.06247 -1.45666 0
M  V30 87 C 9.3755 -2.44019 1.75714 0
M  V30 88 C 10.9235 -2.57785 1.77527 0
M  V30 89 C 11.3985 -3.63194 2.79023 0
M  V30 90 N 12.8895 -3.70678 2.77763 0
M  V30 91 C 13.6245 -4.51897 3.52954 0
M  V30 92 N 13.1205 -5.36921 4.37821 0
M  V30 93 N 14.9135 -4.4643 3.41551 0
M  V30 94 H 7.0645 -0.879093 1.93354 0
M  V30 95 H 9.3275 -0.448425 0.835236 0
M  V30 96 H 9.0335 -2.1611 2.77469 0
M  V30 97 H 8.9075 -3.43007 1.56927 0
M  V30 98 H 11.2945 -2.85023 0.764569 0
M  V30 99 H 11.3755 -1.58992 2.00387 0
M  V30 100 H 11.0195 -3.36699 3.80258 0
M  V30 101 H 10.9495 -4.61609 2.53425 0
M  V30 102 H 13.4405 -3.09944 2.16201 0
M  V30 103 H 13.7535 -5.95981 4.91962 0
M  V30 104 H 12.0985 -5.36424 4.41899 0
M  V30 105 H 15.2895 -3.79042 2.74672 0
M  V30 106 H 15.4625 -5.09491 4.00404 0
M  V30 107 N 8.8686 -0.792821 -1.36206 0
M  V30 108 C 10.1146 -0.36733 -1.99446 0
M  V30 109 C 10.4476 1.05917 -1.62774 0
M  V30 110 O 9.7226 1.7324 -0.88421 0
M  V30 111 C 10.0056 -0.535044 -3.56103 0
M  V30 112 C 9.8586 -2.00548 -4.02617 0
M  V30 113 C 11.1776 0.0478191 -4.40074 0
M  V30 114 H 8.2966 -0.134941 -0.724541 0
M  V30 115 H 10.9386 -0.999794 -1.61568 0
M  V30 116 H 9.0886 0.00336329 -3.885 0
M  V30 117 H 10.7606 -2.60521 -3.80692 0
M  V30 118 H 9.0036 -2.50686 -3.54032 0
M  V30 119 H 9.6746 -2.07377 -5.11565 0
M  V30 120 H 12.1506 -0.411822 -4.14057 0
M  V30 121 H 11.0266 -0.0995336 -5.4881 0
M  V30 122 H 11.2876 1.14025 -4.27142 0
M  V30 123 N 10.3467 1.47872 -0.545128 0
M  V30 124 C 11.7577 1.86384 -0.108581 0
M  V30 125 C 12.1087 1.45309 1.31832 0
M  V30 126 O 11.2337 0.850641 1.9898 0
M  V30 127 C 11.8287 3.38265 -0.190274 0
M  V30 128 C 10.3877 3.75914 0.191164 0
M  V30 129 C 9.5347 2.71926 -0.543273 0
M  V30 130 H 12.4857 1.39561 -0.755537 0
M  V30 131 H 12.5067 3.75831 0.594217 0
M  V30 132 H 12.0187 3.6813 -1.2289 0
M  V30 133 H 10.1197 3.51665 1.23136 0
M  V30 134 H 10.2327 4.78836 -0.158987 0
M  V30 135 H 8.5967 2.54697 0.0122495 0
M  V30 136 H 9.3797 3.04634 -1.58282 0
M  V30 137 N 11.8248 0.280983 1.55075 0
M  V30 138 C 13.1018 -0.386207 1.91749 0
M  V30 139 C 13.4818 -1.73264 1.20594 0
M  V30 140 O 12.8298 -2.26034 0.334784 0
M  V30 141 C 13.0398 -0.520687 3.45094 0
M  V30 142 C 14.3878 -0.800865 4.16979 0
M  V30 143 O 15.4118 -0.605271 3.5102 0
M  V30 144 O 14.2708 -1.1753 5.33712 0
M  V30 145 H 11.3648 -0.212408 0.799257 0
M  V30 146 H 13.9108 0.327568 1.66509 0
M  V30 147 H 12.6828 0.426633 3.88967 0
M  V30 148 H 12.3058 -1.2837 3.76307 0
M  V30 149 N 13.3029 -1.57598 0.00835791 0
M  V30 150 C 14.5519 -1.90107 -0.673968 0
M  V30 151 C 14.8649 -0.884275 -1.7447 0
M  V30 152 O 16.0709 -1.09987 -2.48224 0
M  V30 153 C 14.5269 -3.37497 -1.24995 0
M  V30 154 C 14.1349 -4.47491 -0.2136 0
M  V30 155 C 15.8789 -3.79104 -1.90999 0
M  V30 156 C 13.7859 -5.85963 -0.80005 0
M  V30 157 H 12.7159 -0.709393 -0.255495 0
M  V30 158 H 15.3669 -1.83365 0.0702693 0
M  V30 159 H 13.7489 -3.39102 -2.04513 0
M  V30 160 H 14.9229 -4.57414 0.557596 0
M  V30 161 H 13.2379 -4.14956 0.346474 0
M  V30 162 H 15.8349 -4.79901 -2.35795 0
M  V30 163 H 16.1779 -3.1306 -2.74407 0
M  V30 164 H 16.7109 -3.79833 -1.18203 0
M  V30 165 H 13.4499 -6.555 -0.00456708 0
M  V30 166 H 12.9699 -5.79687 -1.54021 0
M  V30 167 H 14.6489 -6.33884 -1.29615 0
M  V30 168 N 14.781 0.264519 -1.55364 0
M  V30 169 C 16.029 0.993021 -1.76021 0
M  V30 170 C 16.35 1.86511 -0.569099 0
M  V30 171 O 15.62 1.91438 0.415735 0
M  V30 172 H 14.2 0.369639 -0.649135 0
M  V30 173 H 16.862 0.286707 -1.9278 0
M  V30 174 H 15.958 1.62502 -2.66457 0
M  V30 175 N 16.2591 1.48442 0.529413 0
M  V30 176 C 17.5071 1.56179 1.28267 0
M  V30 177 C 17.8281 0.237721 1.93546 0
M  V30 178 O 17.0981 -0.740779 1.81354 0
M  V30 179 H 15.6781 0.575367 0.476405 0
M  V30 180 H 18.3401 1.84909 0.61602 0
M  V30 181 H 17.4361 2.34312 2.06165 0
M  V30 182 N 17.7372 -0.778329 1.37039 0
M  V30 183 C 19.0142 -1.52551 1.22424 0
M  V30 184 C 19.3942 -2.10288 -0.184964 0
M  V30 185 O 18.7422 -1.94953 -1.19187 0
M  V30 186 C 18.9522 -2.61164 2.31504 0
M  V30 187 C 20.3002 -3.28746 2.68721 0
M  V30 188 O 21.3242 -2.71455 2.30631 0
M  V30 189 O 20.1832 -4.3231 3.3432 0
M  V30 190 H 17.2772 -0.675343 0.477326 0
M  V30 191 H 19.8232 -0.815859 1.48801 0
M  V30 192 H 18.5952 -2.16574 3.25901 0
M  V30 193 H 18.2182 -3.39737 2.06554 0
M  V30 194 N 19.2153 -1.21501 -1.00376 0
M  V30 195 C 20.4633 -1.03095 -1.73827 0
M  V30 196 C 20.7843 0.436341 -1.90055 0
M  V30 197 O 20.0543 1.31466 -1.45236 0
M  V30 198 H 18.6343 -0.378487 -0.644016 0
M  V30 199 H 21.2963 -1.52831 -1.20949 0
M  V30 200 H 20.3923 -1.49991 -2.73695 0
M  V30 201 N 20.6934 1.19889 -1.02296 0
M  V30 202 C 21.6034 2.26571 -0.608508 0
M  V30 203 C 22.6194 1.70299 0.356964 0
M  V30 204 O 23.7954 2.00235 0.216326 0
M  V30 205 C 20.8604 3.46677 0.0402814 0
M  V30 206 C 19.9214 4.18153 -0.97194 0
M  V30 207 C 19.1544 5.32525 -0.354016 0
M  V30 208 O 19.3774 5.64112 0.844604 0
M  V30 209 O 18.3114 5.92242 -1.07391 0
M  V30 210 H 22.1374 2.64251 -1.49684 0
M  V30 211 H 19.7224 1.26629 -0.792809 0
M  V30 212 H 21.6044 4.19475 0.402324 0
M  V30 213 H 20.2794 3.10858 0.902707 0
M  V30 214 H 19.1864 3.47499 -1.38546 0
M  V30 215 H 20.5194 4.57927 -1.80454 0
M  V30 216 N 22.1715 0.800033 1.35784 0
M  V30 217 C 23.4175 0.377901 1.99248 0
M  V30 218 C 23.7505 -1.05052 1.63333 0
M  V30 219 O 23.0255 -1.72768 0.893385 0
M  V30 220 C 23.3085 0.553922 3.55814 0
M  V30 221 C 23.1615 2.0268 4.01548 0
M  V30 222 C 24.4805 -0.0244802 4.40093 0
M  V30 223 H 21.5995 0.138782 0.723815 0
M  V30 224 H 24.2415 1.00835 1.61035 0
M  V30 225 H 22.3915 0.0172398 3.88496 0
M  V30 226 H 24.0635 2.62536 3.79305 0
M  V30 227 H 22.3065 2.5256 3.52698 0
M  V30 228 H 22.9775 2.10087 5.10458 0
M  V30 229 H 25.4535 0.433775 4.13833 0
M  V30 230 H 24.3295 0.128637 5.48749 0
M  V30 231 H 24.5905 -1.11758 4.27741 0
M  V30 232 N 23.6496 -1.47581 0.552962 0
M  V30 233 C 24.8986 -2.01684 0.0251995 0
M  V30 234 C 25.2116 -1.43317 -1.33115 0
M  V30 235 O 26.4176 -1.89057 -1.94858 0
M  V30 236 C 24.8736 -3.599 -0.00542052 0
M  V30 237 C 24.4816 -4.27257 1.34742 0
M  V30 238 C 26.2256 -4.21768 -0.4808 0
M  V30 239 C 24.1326 -5.77467 1.27614 0
M  V30 240 H 23.0626 -0.753979 0.00565033 0
M  V30 241 H 25.7136 -1.69616 0.70018 0
M  V30 242 H 24.0956 -3.88911 -0.745961 0
M  V30 243 H 25.2696 -4.09893 2.10534 0
M  V30 244 H 23.5846 -3.77358 1.76039 0
M  V30 245 H 26.1816 -5.31838 -0.55246 0
M  V30 246 H 26.5246 -3.88651 -1.49184 0
M  V30 247 H 27.0576 -3.97273 0.204752 0
M  V30 248 H 23.7966 -6.15196 2.26304 0
M  V30 249 H 23.3166 -5.9718 0.55996 0
M  V30 250 H 24.9956 -6.3959 0.976421 0
M  V30 251 N 25.1277 -0.289203 -1.54924 0
M  V30 252 C 26.0377 0.601863 -2.26748 0
M  V30 253 C 27.0537 1.15834 -1.2984 0
M  V30 254 O 28.2297 1.18564 -1.62802 0
M  V30 255 C 25.2947 1.76299 -2.98529 0
M  V30 256 C 24.3557 1.24178 -4.10948 0
M  V30 257 C 23.5887 2.34757 -4.79296 0
M  V30 258 O 23.8117 3.54411 -4.46933 0
M  V30 259 O 22.7457 2.02115 -5.66951 0
M  V30 260 H 26.5717 0.0195879 -3.03694 0
M  V30 261 H 24.1567 -0.0560868 -1.49295 0
M  V30 262 H 26.0387 2.43973 -3.43592 0
M  V30 263 H 24.7137 2.33209 -2.24488 0
M  V30 264 H 23.6207 0.531104 -3.70311 0
M  V30 265 H 24.9537 0.718252 -4.86931 0
M  V30 266 N 26.6058 1.57591 -0.0167156 0
M  V30 267 C 27.5358 2.12496 0.967858 0
M  V30 268 C 28.5168 1.03807 1.34752 0
M  V30 269 O 29.7018 1.31577 1.42833 0
M  V30 270 C 26.8318 2.64194 2.25431 0
M  V30 271 C 25.7858 3.77559 2.01576 0
M  V30 272 C 25.1118 4.15636 3.36379 0
M  V30 273 C 26.4118 5.04151 1.36489 0
M  V30 274 H 28.1058 2.95013 0.510643 0
M  V30 275 H 25.6518 1.41915 0.244181 0
M  V30 276 H 27.6048 3.01236 2.94678 0
M  V30 277 H 26.3288 1.78821 2.73296 0
M  V30 278 H 24.9878 3.40937 1.34751 0
M  V30 279 H 24.6358 3.27263 3.81979 0
M  V30 280 H 24.3358 4.92022 3.21229 0
M  V30 281 H 25.8598 4.5525 4.06915 0
M  V30 282 H 27.2738 5.38857 1.95718 0
M  V30 283 H 25.6708 5.85453 1.31776 0
M  V30 284 H 26.7408 4.83733 0.336219 0
M  V30 285 N 28.0839 -0.256276 1.55502 0
M  V30 286 C 29.0139 -1.32102 1.92539 0
M  V30 287 C 29.9949 -1.50684 0.789194 0
M  V30 288 O 31.1799 -1.63449 1.04872 0
M  V30 289 C 28.3099 -2.67752 2.21192 0
M  V30 290 C 27.2639 -2.63878 3.36975 0
M  V30 291 C 26.5899 -4.03236 3.51147 0
M  V30 292 C 27.8899 -2.21682 4.72921 0
M  V30 293 H 29.5839 -1.01351 2.81724 0
M  V30 294 H 27.1299 -0.486105 1.35547 0
M  V30 295 H 29.0829 -3.42365 2.45691 0
M  V30 296 H 27.8069 -3.0012 1.28824 0
M  V30 297 H 26.4659 -1.91722 3.12471 0
M  V30 298 H 26.1139 -4.32854 2.56216 0
M  V30 299 H 25.8139 -4.01535 4.29003 0
M  V30 300 H 27.3379 -4.79563 3.77957 0
M  V30 301 H 28.7519 -2.86023 4.96854 0
M  V30 302 H 27.1489 -2.3111 5.53812 0
M  V30 303 H 28.2189 -1.16833 4.70615 0
M  V30 304 N 29.562 -1.4872 -0.521534 0
M  V30 305 C 30.808 -1.574 -1.27879 0
M  V30 306 C 31.141 -0.250817 -1.92573 0
M  V30 307 O 30.416 0.743934 -1.79711 0
M  V30 308 C 30.699 -2.71843 -2.36164 0
M  V30 309 C 30.552 -4.13893 -1.76105 0
M  V30 310 C 31.871 -2.82008 -3.37875 0
M  V30 311 H 28.99 -0.572941 -0.463581 0
M  V30 312 H 31.632 -1.80927 -0.580119 0
M  V30 313 H 29.782 -2.51914 -2.95756 0
M  V30 314 H 31.454 -4.45284 -1.20499 0
M  V30 315 H 29.697 -4.20498 -1.06601 0
M  V30 316 H 30.368 -4.89804 -2.5455 0
M  V30 317 H 32.844 -3.00086 -2.88249 0
M  V30 318 H 31.72 -3.63796 -4.11028 0
M  V30 319 H 31.981 -1.90511 -3.98946 0
M  V30 320 N 31.0401 0.771051 -1.3745 0
M  V30 321 C 31.9871 1.88435 -1.3327 0
M  V30 322 C 32.9571 1.64914 -0.198136 0
M  V30 323 O 34.1421 1.86821 -0.387606 0
M  V30 324 C 31.2821 3.25509 -1.14622 0
M  V30 325 C 30.3951 3.60979 -2.37314 0
M  V30 326 C 29.5301 4.87265 -2.11533 0
M  V30 327 C 28.5691 5.15469 -3.30088 0
M  V30 328 N 27.7061 6.32944 -3.03853 0
M  V30 329 H 32.5461 1.91344 -2.28455 0
M  V30 330 H 30.0831 0.935466 -1.13523 0
M  V30 331 H 32.0411 4.04582 -1.01831 0
M  V30 332 H 30.6711 3.21974 -0.230837 0
M  V30 333 H 29.7231 2.76885 -2.60842 0
M  V30 334 H 31.0351 3.77759 -3.25729 0
M  V30 335 H 30.1891 5.74244 -1.95777 0
M  V30 336 H 28.9281 4.7259 -1.20457 0
M  V30 337 H 27.9331 4.26966 -3.46382 0
M  V30 338 H 29.1581 5.32052 -4.22016 0
M  V30 339 H 27.1041 6.19625 -2.15407 0
M  V30 340 H 27.0211 6.50143 -3.85812 0
M  V30 341 H 28.2891 7.22857 -2.91716 0
M  V30 342 N 32.5182 1.22032 0.997298 0
M  V30 343 C 33.7462 1.06841 1.7718 0
M  V30 344 C 34.1612 -0.381325 1.84909 0
M  V30 345 O 33.5182 -1.26437 1.31605 0
M  V30 346 C 33.5692 1.66814 3.20711 0
M  V30 347 O 33.2902 3.06116 3.13408 0
M  V30 348 C 34.7912 1.56838 4.14628 0
M  V30 349 H 32.0112 0.374782 0.556578 0
M  V30 350 H 34.5552 1.61532 1.2541 0
M  V30 351 H 32.7102 1.16196 3.69564 0
M  V30 352 H 33.1242 3.34926 4.0364 0
M  V30 353 H 34.5982 2.03532 5.13107 0
M  V30 354 H 35.0752 0.524155 4.36061 0
M  V30 355 H 35.6812 2.06741 3.7167 0
M  V30 356 N 33.9963 -1.19345 1.0293 0
M  V30 357 C 35.2443 -1.88665 0.724574 0
M  V30 358 C 35.5653 -1.80036 -0.749144 0
M  V30 359 O 34.8353 -1.2111 -1.53978 0
M  V30 360 H 33.4153 -0.698406 0.265025 0
M  V30 361 H 36.0773 -1.44885 1.30362 0
M  V30 362 H 35.1733 -2.94987 1.01926 0
M  V30 363 N 35.4744 -0.807222 -1.35358 0
M  V30 364 C 36.7514 -0.311126 -1.9311 0
M  V30 365 C 37.1314 1.19937 -1.73719 0
M  V30 366 O 36.4794 1.99918 -1.10657 0
M  V30 367 C 36.6894 -0.723226 -3.41424 0
M  V30 368 C 38.0374 -0.713078 -4.18569 0
M  V30 369 O 39.0614 -0.664811 -3.49941 0
M  V30 370 O 37.9204 -0.772022 -5.41019 0
M  V30 371 H 35.0144 -0.081526 -0.822972 0
M  V30 372 H 37.5604 -0.890962 -1.4443 0
M  V30 373 H 36.3324 -1.76426 -3.4927 0
M  V30 374 H 35.9554 -0.118232 -3.97424 0
M  V30 375 N 36.9525 1.47285 -0.560781 0
M  V30 376 C 37.8825 2.32857 0.173105 0
M  V30 377 C 38.8635 1.44009 0.905281 0
M  V30 378 O 40.0485 1.7286 0.885046 0
M  V30 379 C 37.1785 3.25861 1.20133 0
M  V30 380 C 36.1325 4.23978 0.585388 0
M  V30 381 C 35.4585 5.06332 1.7185 0
M  V30 382 C 36.7585 5.20242 -0.463178 0
M  V30 383 H 38.4525 2.94466 -0.541307 0
M  V30 384 H 35.9985 1.41601 -0.261764 0
M  V30 385 H 37.9515 3.84569 1.72293 0
M  V30 386 H 36.6755 2.62315 1.94573 0
M  V30 387 H 35.3345 3.66501 0.085054 0
M  V30 388 H 34.9825 4.39186 2.45203 0
M  V30 389 H 34.6825 5.72762 1.31213 0
M  V30 390 H 36.2065 5.67899 2.24329 0
M  V30 391 H 37.6205 5.73293 -0.027502 0
M  V30 392 H 36.0175 5.94896 -0.788627 0
M  V30 393 H 37.0875 4.65504 -1.35773 0
M  V30 394 N 38.4306 0.297415 1.54768 0
M  V30 395 C 39.6796 -0.313669 1.99246 0
M  V30 396 C 39.9926 -1.55281 1.18942 0
M  V30 397 O 41.1986 -2.23825 1.5367 0
M  V30 398 C 39.6546 -0.609407 3.54703 0
M  V30 399 C 39.2626 0.611192 4.43811 0
M  V30 400 C 41.0066 -1.18188 4.07715 0
M  V30 401 C 38.9136 0.288805 5.90694 0
M  V30 402 H 37.8436 -0.120979 0.744231 0
M  V30 403 H 40.4946 0.40556 1.78962 0
M  V30 404 H 38.8766 -1.38813 3.70873 0
M  V30 405 H 40.0506 1.3875 4.39414 0
M  V30 406 H 38.3656 1.10205 4.01552 0
M  V30 407 H 40.9626 -1.43727 5.15021 0
M  V30 408 H 41.3056 -2.12299 3.58099 0
M  V30 409 H 41.8386 -0.464944 3.95074 0
M  V30 410 H 38.5776 1.19838 6.44453 0
M  V30 411 H 38.0976 -0.450305 5.98107 0
M  V30 412 H 39.7766 -0.110933 6.46905 0
M  V30 413 N 39.9087 -1.5758 0.0250728 0
M  V30 414 C 40.8187 -2.1343 -0.973905 0
M  V30 415 C 41.8347 -1.08556 -1.35984 0
M  V30 416 O 43.0107 -1.40592 -1.44207 0
M  V30 417 C 40.0757 -2.64703 -2.23904 0
M  V30 418 C 39.1367 -3.84276 -1.91391 0
M  V30 419 C 38.3697 -4.33095 -3.11873 0
M  V30 420 O 38.5927 -3.81107 -4.24398 0
M  V30 421 O 37.5267 -5.24984 -2.94406 0
M  V30 422 H 41.3527 -2.99057 -0.529036 0
M  V30 423 H 38.9377 -1.48118 -0.195288 0
M  V30 424 H 40.8197 -2.97769 -2.98181 0
M  V30 425 H 39.4947 -1.82161 -2.6758 0
M  V30 426 H 38.4017 -3.56143 -1.14511 0
M  V30 427 H 39.7347 -4.67968 -1.52534 0
M  V30 428 N 41.3868 0.248026 -1.55636 0
M  V30 429 C 42.6328 0.97767 -1.77678 0
M  V30 430 C 42.9658 1.85016 -0.590135 0
M  V30 431 O 42.2408 1.90095 0.411611 0
M  V30 432 C 42.5238 1.83914 -3.09593 0
M  V30 433 C 42.3768 0.99491 -4.38659 0
M  V30 434 C 43.6958 2.82183 -3.37729 0
M  V30 435 H 40.8148 0.354005 -0.646413 0
M  V30 436 H 43.4568 0.248253 -1.88371 0
M  V30 437 H 41.6068 2.46104 -3.00608 0
M  V30 438 H 43.2788 0.391789 -4.59633 0
M  V30 439 H 41.5218 0.299231 -4.32767 0
M  V30 440 H 42.1928 1.63145 -5.2734 0
M  V30 441 H 44.6688 2.30129 -3.4667 0
M  V30 442 H 43.5448 3.39582 -4.31249 0
M  V30 443 H 43.8058 3.58588 -2.58586 0
M  V30 444 N 42.8649 1.48995 0.513639 0
M  V30 445 C 43.7749 1.67443 1.64317 0
M  V30 446 C 44.7909 0.556947 1.64846 0
M  V30 447 O 45.9669 0.830082 1.83498 0
M  V30 448 C 43.0319 1.72515 3.00732 0
M  V30 449 C 42.0929 2.96009 3.1093 0
M  V30 450 C 41.3259 3.00829 4.40837 0
M  V30 451 O 41.5489 2.13594 5.28898 0
M  V30 452 O 40.4829 3.93168 4.55744 0
M  V30 453 H 44.3089 2.63106 1.51687 0
M  V30 454 H 41.8939 1.32588 0.688543 0
M  V30 455 H 43.7759 1.78277 3.81831 0
M  V30 456 H 42.4509 0.800278 3.13651 0
M  V30 457 H 41.3579 2.9577 2.29065 0
M  V30 458 H 42.6909 3.87934 3.02933 0
M  V30 459 N 44.343 -0.763751 1.37857 0
M  V30 460 C 45.275 -1.88664 1.30148 0
M  V30 461 C 46.288 -1.61365 0.215685 0
M  V30 462 O 47.477 -1.72134 0.472459 0
M  V30 463 C 44.577 -3.24075 0.991396 0
M  V30 464 C 43.75 -3.78958 2.18426 0
M  V30 465 C 42.809 -4.92862 1.8432 0
M  V30 466 O 41.835 -5.08027 2.56704 0
M  V30 467 N 43.037 -5.75071 0.792081 0
M  V30 468 H 45.802 -1.95791 2.26905 0
M  V30 469 H 43.363 -0.943226 1.31586 0
M  V30 470 H 45.355 -3.97804 0.743935 0
M  V30 471 H 43.925 -3.12399 0.112122 0
M  V30 472 H 43.145 -2.96913 2.59299 0
M  V30 473 H 44.433 -4.12357 2.98058 0
M  V30 474 H 43.831 -5.65375 0.191595 0
M  V30 475 H 42.388 -6.48991 0.60449 0
M  V30 476 N 45.8211 -1.22559 -0.990812 0
M  V30 477 C 47.0691 -1.04933 -1.72724 0
M  V30 478 C 47.3901 0.416158 -1.90508 0
M  V30 479 O 46.6601 1.29918 -1.46622 0
M  V30 480 H 45.2401 -0.385296 -0.639965 0
M  V30 481 H 47.9021 -1.54105 -1.19322 0
M  V30 482 H 46.9981 -1.52886 -2.72089 0
M  V30 483 N 47.2992 1.18797 -1.03562 0
M  V30 484 C 48.2292 2.24472 -0.643019 0
M  V30 485 C 49.2102 1.66433 0.351283 0
M  V30 486 O 50.3952 1.92803 0.232505 0
M  V30 487 C 47.5252 3.473 4.24935e-05 0
M  V30 488 C 46.4792 4.18055 -0.917257 0
M  V30 489 C 45.8052 5.34519 -0.138941 0
M  V30 490 C 47.1052 4.72109 -2.23407 0
M  V30 491 H 48.7992 2.57566 -1.52643 0
M  V30 492 H 46.3452 1.23806 -0.735394 0
M  V30 493 H 48.2982 4.20426 0.286383 0
M  V30 494 H 47.0222 3.13424 0.918299 0
M  V30 495 H 45.6812 3.46821 -1.1879 0
M  V30 496 H 45.3292 4.96891 0.781562 0
M  V30 497 H 45.0292 5.82794 -0.750005 0
M  V30 498 H 46.5532 6.10438 0.1405 0
M  V30 499 H 47.9672 5.36955 -2.00879 0
M  V30 500 H 46.3642 5.30897 -2.79765 0
M  V30 501 H 47.4342 3.89807 -2.88407 0
M  V30 502 N 48.7773 0.814389 1.34928 0
M  V30 503 C 50.0233 0.399013 1.98836 0
M  V30 504 C 50.3563 -1.03314 1.64438 0
M  V30 505 O 49.6313 -1.71811 0.911659 0
M  V30 506 C 49.9143 0.591629 3.55207 0
M  V30 507 C 49.7673 2.06928 3.99376 0
M  V30 508 C 51.0863 0.022199 4.40094 0
M  V30 509 H 48.2053 0.146451 0.722303 0
M  V30 510 H 50.8473 1.02537 1.59957 0
M  V30 511 H 48.9973 0.0584441 3.88456 0
M  V30 512 H 50.6693 2.66544 3.76499 0
M  V30 513 H 48.9123 2.56287 3.49999 0
M  V30 514 H 49.5833 2.1549 5.08201 0
M  V30 515 H 52.0593 0.477643 4.13349 0
M  V30 516 H 50.9353 0.186832 5.48582 0
M  V30 517 H 51.1963 -1.07215 4.28902 0
M  V30 518 N 50.2554 -1.46986 0.568584 0
M  V30 519 C 51.5014 -2.02741 0.0488709 0
M  V30 520 C 51.8344 -1.44077 -1.30214 0
M  V30 521 O 51.1094 -0.600552 -1.84996 0
M  V30 522 C 51.3924 -3.60086 -0.032047 0
M  V30 523 C 51.2454 -4.29162 1.34686 0
M  V30 524 C 52.5644 -4.33838 -0.739798 0
M  V30 525 H 49.6834 -0.736749 0.0192338 0
M  V30 526 H 52.3254 -1.75289 0.733065 0
M  V30 527 H 50.4754 -3.83606 -0.61473 0
M  V30 528 H 52.1474 -4.16948 1.97362 0
M  V30 529 H 50.3904 -3.89073 1.91846 0
M  V30 530 H 51.0614 -5.37826 1.24285 0
M  V30 531 H 53.5374 -4.15378 -0.244939 0
M  V30 532 H 52.4134 -5.43537 -0.765406 0
M  V30 533 H 52.6744 -4.03875 -1.79827 0
M  V30 534 N 51.7335 -0.305618 -1.54608 0
M  V30 535 C 52.6635 0.561482 -2.26649 0
M  V30 536 C 53.6445 1.13415 -1.26772 0
M  V30 537 O 54.8295 1.16262 -1.55553 0
M  V30 538 C 51.9595 1.73122 -3.01075 0
M  V30 539 C 50.9135 1.2887 -4.08138 0
M  V30 540 C 50.2395 2.54396 -4.70305 0
M  V30 541 C 51.5395 0.416578 -5.20636 0
M  V30 542 H 53.2335 -0.0393902 -2.99374 0
M  V30 543 H 50.7795 -0.020385 -1.43986 0
M  V30 544 H 52.7325 2.34396 -3.50195 0
M  V30 545 H 51.4565 2.3584 -2.25936 0
M  V30 546 H 50.1155 0.698991 -3.59875 0
M  V30 547 H 49.7635 3.15439 -3.918 0
M  V30 548 H 49.4635 2.25486 -5.42614 0
M  V30 549 H 50.9875 3.16464 -5.2219 0
M  V30 550 H 52.4015 0.935116 -5.65622 0
M  V30 551 H 50.7985 0.221046 -5.99693 0
M  V30 552 H 51.8685 -0.557162 -4.81688 0
M  V30 553 N 53.2116 1.57565 -0.0334293 0
M  V30 554 C 54.1216 2.13943 0.962572 0
M  V30 555 C 55.1376 1.09276 1.35406 0
M  V30 556 O 56.3136 1.41355 1.4346 0
M  V30 557 C 53.3786 2.65887 2.22497 0
M  V30 558 C 52.4396 3.85286 1.8935 0
M  V30 559 C 51.6726 4.34743 3.09571 0
M  V30 560 O 51.8956 3.83352 4.22371 0
M  V30 561 O 50.8296 5.26538 2.91618 0
M  V30 562 H 54.6556 2.99333 0.513169 0
M  V30 563 H 52.2406 1.4822 0.18743 0
M  V30 564 H 54.1226 2.99346 2.96598 0
M  V30 565 H 52.7976 1.83578 2.6661 0
M  V30 566 H 51.7046 3.56746 1.1262 0
M  V30 567 H 53.0376 4.68771 1.5005 0
M  V30 568 N 54.6897 -0.239769 1.55765 0
M  V30 569 C 55.9147 -0.988373 1.82335 0
M  V30 570 C 56.3397 -1.77886 0.611421 0
M  V30 571 O 55.6977 -1.75889 -0.439639 0
M  V30 572 C 55.7457 -1.89627 3.06715 0
M  V30 573 O 54.8497 -2.98904 2.84131 0
M  V30 574 H 54.1907 -0.280858 0.601677 0
M  V30 575 H 56.7207 -0.258597 2.02959 0
M  V30 576 H 56.7307 -2.30957 3.36338 0
M  V30 577 H 55.4057 -1.31511 3.9456 0
M  V30 578 H 53.9827 -2.61651 2.65694 0
M  V30 579 N 56.1678 -1.49265 -0.50573 0
M  V30 580 C 57.1308 -1.65075 -1.59006 0
M  V30 581 C 58.1308 -0.522768 -1.52065 0
M  V30 582 O 59.3208 -0.789117 -1.55302 0
M  V30 583 C 56.4528 -1.64369 -2.98656 0
M  V30 584 H 57.6458 -2.61784 -1.46319 0
M  V30 585 H 55.1988 -1.38226 -0.729616 0
M  V30 586 H 55.9338 -0.692272 -3.16825 0
M  V30 587 H 55.7188 -2.46282 -3.05103 0
M  V30 588 H 57.2088 -1.78674 -3.77446 0
M  V30 589 N 57.6459 0.756429 -1.3826 0
M  V30 590 C 58.5929 1.87011 -1.35261 0
M  V30 591 C 59.5629 1.64695 -0.215616 0
M  V30 592 O 60.7479 1.864 -0.407399 0
M  V30 593 C 57.8879 3.24275 -1.18068 0
M  V30 594 C 57.0009 3.58442 -2.41129 0
M  V30 595 C 56.1359 4.84994 -2.16689 0
M  V30 596 C 55.1749 5.11939 -3.35537 0
M  V30 597 N 54.3119 6.29685 -3.10549 0
M  V30 598 H 59.1519 1.8891 -2.30472 0
M  V30 599 H 56.6889 0.923373 -1.14509 0
M  V30 600 H 58.6469 4.03479 -1.06116 0
M  V30 601 H 57.2769 3.21711 -0.264973 0
M  V30 602 H 56.3289 2.74103 -2.63764 0
M  V30 603 H 57.6409 3.74283 -3.29717 0
M  V30 604 H 56.7949 5.72135 -2.01857 0
M  V30 605 H 55.5339 4.71286 -1.25462 0
M  V30 606 H 54.5389 4.23268 -3.50891 0
M  V30 607 H 55.7639 5.27546 -4.27635 0
M  V30 608 H 53.7099 6.17306 -2.21967 0
M  V30 609 H 53.6269 6.46014 -3.92686 0
M  V30 610 H 54.8949 7.19722 -2.99367 0
M  V30 611 N 59.124 1.23083 0.984299 0
M  V30 612 C 60.087 1.00979 2.05757 0
M  V30 613 C 61.087 -0.0269573 1.60777 0
M  V30 614 O 62.277 0.212403 1.729 0
M  V30 615 C 59.409 0.527072 3.36801 0
M  V30 616 H 60.602 1.9622 2.26799 0
M  V30 617 H 58.155 1.05072 1.15714 0
M  V30 618 H 58.89 -0.429294 3.21446 0
M  V30 619 H 58.675 1.27515 3.70786 0
M  V30 620 H 60.165 0.392942 4.15747 0
M  V30 621 N 60.6021 -1.18246 1.0419 0
M  V30 622 C 61.8271 -1.92736 0.765996 0
M  V30 623 C 62.2521 -1.75728 -0.67091 0
M  V30 624 O 61.6101 -1.06825 -1.46486 0
M  V30 625 C 61.6581 -3.42148 1.13875 0
M  V30 626 O 60.7621 -4.11548 0.264954 0
M  V30 627 H 60.1031 -0.601238 0.281797 0
M  V30 628 H 62.6331 -1.49942 1.39207 0
M  V30 629 H 62.6431 -3.92858 1.1012 0
M  V30 630 H 61.3181 -3.53848 2.18551 0
M  V30 631 H 59.8951 -3.71137 0.362226 0
M  V30 632 N 62.0802 -0.821533 -1.34494 0
M  V30 633 C 63.0132 -0.187704 -2.27427 0
M  V30 634 C 63.9912 0.65507 -1.48821 0
M  V30 635 O 65.1752 0.619111 -1.78043 0
M  V30 636 C 62.3022 0.737996 -3.30562 0
M  V30 637 C 61.3482 -0.0270713 -4.26491 0
M  V30 638 S 62.1812 -1.37329 -5.17592 0
M  V30 639 C 63.3372 -0.452427 -6.24263 0
M  V30 640 H 63.5702 -0.975598 -2.80837 0
M  V30 641 H 61.1032 -0.61736 -1.4152 0
M  V30 642 H 63.0612 1.26654 -3.90473 0
M  V30 643 H 61.7222 1.4994 -2.76001 0
M  V30 644 H 60.9152 0.6766 -4.99438 0
M  V30 645 H 60.5172 -0.48612 -3.70827 0
M  V30 646 H 62.8092 0.356557 -6.76561 0
M  V30 647 H 63.7522 -1.15153 -6.98674 0
M  V30 648 H 64.1602 -0.0414755 -5.64485 0
M  V30 649 N 63.5583 1.46682 -0.576371 0
M  V30 650 C 64.4683 2.34032 0.163141 0
M  V30 651 C 65.4843 1.49367 0.892501 0
M  V30 652 O 66.6603 1.82252 0.857106 0
M  V30 653 C 63.7253 3.26435 1.16795 0
M  V30 654 C 62.7863 4.26998 0.443944 0
M  V30 655 C 62.0193 5.14986 1.40088 0
M  V30 656 O 62.2423 5.05785 2.637 0
M  V30 657 O 61.1763 5.94906 0.914917 0
M  V30 658 H 65.0023 2.98607 -0.55388 0
M  V30 659 H 62.5873 1.45554 -0.336821 0
M  V30 660 H 64.4693 3.83459 1.74748 0
M  V30 661 H 63.1443 2.64465 1.86655 0
M  V30 662 H 62.0513 3.7368 -0.177271 0
M  V30 663 H 63.3843 4.91736 -0.213566 0
M  V30 664 N 65.0364 0.313813 1.54444 0
M  V30 665 C 66.2824 -0.292108 2.00685 0
M  V30 666 C 66.6154 -1.52548 1.20177 0
M  V30 667 O 65.8904 -1.92452 0.281531 0
M  V30 668 C 66.1734 -0.635968 3.5444 0
M  V30 669 C 66.0264 0.607437 4.4568 0
M  V30 670 C 67.3454 -1.45747 4.15266 0
M  V30 671 H 64.4644 -0.104697 0.729526 0
M  V30 672 H 67.1064 0.428457 1.85106 0
M  V30 673 H 65.2564 -1.24986 3.67846 0
M  V30 674 H 66.9284 1.24581 4.44159 0
M  V30 675 H 65.1714 1.23822 4.15753 0
M  V30 676 H 65.8424 0.322515 5.51057 0
M  V30 677 H 68.3184 -0.938645 4.05375 0
M  V30 678 H 67.1944 -1.66683 5.2298 0
M  V30 679 H 67.4554 -2.45063 3.67963 0
M  V30 680 N 66.5145 -1.57545 0.0417849 0
M  V30 681 C 67.9255 -1.80011 -0.495259 0
M  V30 682 C 68.2765 -0.953199 -1.71489 0
M  V30 683 O 67.4015 -0.167138 -2.15754 0
M  V30 684 C 67.9965 -3.26482 -0.905265 0
M  V30 685 C 66.5555 -3.499 -1.38734 0
M  V30 686 C 65.7025 -2.74979 -0.358056 0
M  V30 687 H 68.6535 -1.56425 0.267736 0
M  V30 688 H 68.6745 -3.36887 -1.76882 0
M  V30 689 H 68.1865 -3.88096 -0.017401 0
M  V30 690 H 66.2875 -2.93553 -2.29471 0
M  V30 691 H 66.4005 -4.58615 -1.38598 0
M  V30 692 H 64.7645 -2.40834 -0.828912 0
M  V30 693 H 65.5475 -3.39315 0.521561 0
M  V30 694 N 67.9926 0.231505 -1.5589 0
M  V30 695 C 69.2176 0.978689 -1.82856 0
M  V30 696 C 69.6426 1.77559 -0.620846 0
M  V30 697 O 69.0006 1.76119 0.430305 0
M  V30 698 C 69.0486 1.87997 -3.07716 0
M  V30 699 O 68.1526 2.97393 -2.85712 0
M  V30 700 H 67.4936 0.277663 -0.603158 0
M  V30 701 H 70.0236 0.24783 -2.03093 0
M  V30 702 H 70.0336 2.2917 -3.37558 0
M  V30 703 H 68.7086 1.29417 -3.95252 0
M  V30 704 H 67.2856 2.60238 -2.67078 0
M  V30 705 N 69.4707 1.49531 0.497807 0
M  V30 706 C 70.8817 1.52344 1.07927 0
M  V30 707 C 71.2327 0.311469 1.93712 0
M  V30 708 O 70.3577 -0.578405 2.08527 0
M  V30 709 C 70.9527 2.76062 1.96405 0
M  V30 710 C 69.5117 2.81643 2.49709 0
M  V30 711 C 68.6587 2.46299 1.27404 0
M  V30 712 H 71.6097 1.56182 0.281576 0
M  V30 713 H 71.6307 2.56405 2.81135 0
M  V30 714 H 71.1427 3.64254 1.33943 0
M  V30 715 H 69.2437 1.97739 3.15801 0
M  V30 716 H 69.3567 3.83891 2.86643 0
M  V30 717 H 67.7207 1.98148 1.60029 0
M  V30 718 H 68.5037 3.36769 0.66645 0
M  V30 719 N 70.9488 -0.749086 1.3866 0
M  V30 720 C 71.8958 -1.86291 1.36251 0
M  V30 721 C 72.8658 -1.64578 0.224347 0
M  V30 722 O 74.0508 -1.86181 0.417279 0
M  V30 723 C 71.1908 -3.23644 1.19786 0
M  V30 724 C 70.3038 -3.57158 2.43027 0
M  V30 725 C 69.4388 -4.83838 2.19258 0
M  V30 726 C 68.4778 -5.10152 3.38247 0
M  V30 727 N 67.6148 -6.28029 3.13884 0
M  V30 728 H 72.4548 -1.87685 2.3147 0
M  V30 729 H 69.9918 -0.917287 1.14997 0
M  V30 730 H 71.9498 -4.0291 1.08254 0
M  V30 731 H 70.5798 -3.21566 0.282031 0
M  V30 732 H 69.6318 -2.72701 2.65214 0
M  V30 733 H 70.9438 -3.7253 3.31697 0
M  V30 734 H 70.0978 -5.71057 2.04888 0
M  V30 735 H 68.8368 -4.70614 1.2796 0
M  V30 736 H 67.8418 -4.21401 3.53131 0
M  V30 737 H 69.0668 -5.25271 4.30427 0
M  V30 738 H 67.0128 -6.1612 2.25238 0
M  V30 739 H 66.9298 -6.43922 3.96106 0
M  V30 740 H 68.1978 -7.18124 3.03179 0
M  V30 741 N 72.4269 -1.23603 -0.977757 0
M  V30 742 C 73.3899 -1.02069 -2.05218 0
M  V30 743 C 74.3899 0.0184305 -1.60789 0
M  V30 744 O 75.5799 -0.221569 -1.72785 0
M  V30 745 C 72.7119 -0.544926 -3.36517 0
M  V30 746 H 73.9049 -1.9742 -2.25755 0
M  V30 747 H 71.4579 -1.05684 -1.15155 0
M  V30 748 H 72.1929 0.412241 -3.21669 0
M  V30 749 H 71.9779 -1.2948 -3.70105 0
M  V30 750 H 73.4679 -0.414985 -4.15533 0
M  V30 751 N 73.905 1.17692 -1.04816 0
M  V30 752 C 75.153 1.87488 -0.754497 0
M  V30 753 C 75.474 1.81205 0.720407 0
M  V30 754 O 74.744 1.23544 1.52032 0
M  V30 755 H 73.324 0.694101 -0.276102 0
M  V30 756 H 75.986 1.42793 -1.32651 0
M  V30 757 H 75.082 2.93328 -1.06606 0
M  V30 758 N 75.3831 0.828654 1.34056 0
M  V30 759 C 76.6291 0.42008 1.98402 0
M  V30 760 C 76.9621 -1.01564 1.65525 0
M  V30 761 O 76.2371 -1.70834 0.929831 0
M  V30 762 C 76.5201 0.62927 3.54559 0
M  V30 763 C 76.3731 2.11152 3.97159 0
M  V30 764 C 77.6921 0.0688756 4.40046 0
M  V30 765 H 74.8111 0.154104 0.720709 0
M  V30 766 H 77.4531 1.04228 1.5886 0
M  V30 767 H 75.6031 0.0996418 3.88372 0
M  V30 768 H 77.2751 2.70522 3.73651 0
M  V30 769 H 75.5181 2.59985 3.47261 0
M  V30 770 H 76.1891 2.20868 5.05887 0
M  V30 771 H 78.6651 0.521458 4.1282 0
M  V30 772 H 77.5411 0.245006 5.48353 0
M  V30 773 H 77.8021 -1.0266 4.30015 0
M  V30 774 N 76.8612 -1.46375 0.584142 0
M  V30 775 C 78.1072 -2.02678 0.0703716 0
M  V30 776 C 78.4402 -1.4545 -1.28678 0
M  V30 777 O 77.7152 -0.62014 -1.84349 0
M  V30 778 C 77.9982 -3.60099 0.00614674 0
M  V30 779 C 77.8512 -4.27709 1.3923 0
M  V30 780 C 79.1702 -4.34598 -0.693742 0
M  V30 781 H 76.2892 -0.736504 0.027047 0
M  V30 782 H 78.9312 -1.74501 0.751615 0
M  V30 783 H 77.0812 -3.84236 -0.574009 0
M  V30 784 H 78.7532 -4.14832 2.01773 0
M  V30 785 H 76.9962 -3.87016 1.95962 0
M  V30 786 H 77.6672 -5.36478 1.29982 0
M  V30 787 H 80.1432 -4.15615 -0.200869 0
M  V30 788 H 79.0192 -5.44318 -0.707714 0
M  V30 789 H 79.2802 -4.05759 -1.75533 0
M  V30 790 N 78.3393 -0.321999 -1.54275 0
M  V30 791 C 79.2863 0.544664 -2.24281 0
M  V30 792 C 80.2563 1.1129 -1.23303 0
M  V30 793 O 81.4413 1.15354 -1.51981 0
M  V30 794 C 78.5813 1.70045 -3.00298 0
M  V30 795 C 77.6943 1.16159 -4.1609 0
M  V30 796 C 76.8293 2.28293 -4.79641 0
M  V30 797 C 75.8683 1.71648 -5.8754 0
M  V30 798 N 75.0053 2.77438 -6.44959 0
M  V30 799 H 79.8453 -0.0588907 -2.97942 0
M  V30 800 H 77.3823 -0.0408345 -1.47043 0
M  V30 801 H 79.3403 2.38054 -3.42616 0
M  V30 802 H 77.9703 2.27531 -2.28975 0
M  V30 803 H 77.0223 0.373092 -3.78566 0
M  V30 804 H 78.3343 0.707087 -4.93763 0
M  V30 805 H 77.4883 3.0421 -5.2492 0
M  V30 806 H 76.2273 2.77079 -4.01346 0
M  V30 807 H 75.2323 0.942282 -5.41665 0
M  V30 808 H 76.4573 1.23741 -6.67731 0
M  V30 809 H 74.4033 3.25519 -5.69538 0
M  V30 810 H 74.3203 2.36547 -7.1804 0
M  V30 811 H 75.5883 3.53189 -6.94894 0
M  V30 812 N 79.8174 1.5752 -0.0501392 0
M  V30 813 C 81.0424 1.97376 0.636997 0
M  V30 814 C 81.4674 0.927466 1.63645 0
M  V30 815 O 80.8254 -0.10941 1.8097 0
M  V30 816 C 80.8734 3.36304 1.30123 0
M  V30 817 O 79.9774 3.34156 2.41689 0
M  V30 818 H 79.3184 0.642998 0.165679 0
M  V30 819 H 81.8484 2.04258 -0.118233 0
M  V30 820 H 81.8584 3.73008 1.65315 0
M  V30 821 H 80.5334 4.11993 0.568746 0
M  V30 822 H 79.1104 3.09196 2.08451 0
M  V30 823 N 81.2955 -0.223234 1.56011 0
M  V30 824 C 82.5415 -0.949279 1.79211 0
M  V30 825 C 82.8745 -1.84054 0.619494 0
M  V30 826 O 82.1495 -1.90726 -0.381317 0
M  V30 827 C 82.4325 -1.78965 3.12479 0
M  V30 828 C 82.2855 -0.924997 4.40186 0
M  V30 829 C 83.6045 -2.76774 3.42175 0
M  V30 830 H 80.7235 -0.343676 0.651963 0
M  V30 831 H 83.3655 -0.218253 1.88742 0
M  V30 832 H 81.5155 -2.41291 3.04485 0
M  V30 833 H 83.1875 -0.318615 4.60198 0
M  V30 834 H 81.4305 -0.230344 4.33188 0
M  V30 835 H 82.1015 -1.54735 5.29869 0
M  V30 836 H 84.5775 -2.24584 3.50287 0
M  V30 837 H 83.4535 -3.32678 4.36597 0
M  V30 838 H 83.7145 -3.54429 2.64258 0
M  V30 839 N 82.7736 -1.49793 -0.48987 0
M  V30 840 C 83.9986 -1.63836 -1.27172 0
M  V30 841 C 84.4236 -0.31402 -1.8546 0
M  V30 842 O 83.7816 0.719803 -1.66399 0
M  V30 843 C 83.8296 -2.71797 -2.36978 0
M  V30 844 O 82.9336 -2.31744 -3.41128 0
M  V30 845 H 82.2746 -0.547997 -0.37496 0
M  V30 846 H 84.8046 -1.96053 -0.585191 0
M  V30 847 H 84.8146 -2.94305 -2.82575 0
M  V30 848 H 83.4896 -3.67923 -1.93921 0
M  V30 849 H 82.0666 -2.1961 -3.01373 0
M  V30 850 N 84.2517 0.741722 -1.39055 0
M  V30 851 C 85.4977 1.50336 -1.36113 0
M  V30 852 C 85.8307 1.94148 0.0450796 0
M  V30 853 O 85.1057 1.66301 1.00868 0
M  V30 854 C 85.3887 2.74773 -2.32749 0
M  V30 855 C 85.2417 2.37023 -3.82283 0
M  V30 856 C 86.5607 3.76846 -2.27322 0
M  V30 857 H 83.6797 0.545351 -0.495743 0
M  V30 858 H 86.3217 0.848624 -1.69995 0
M  V30 859 H 84.4717 3.30639 -2.03986 0
M  V30 860 H 86.1437 1.8684 -4.21768 0
M  V30 861 H 84.3867 1.69334 -3.99385 0
M  V30 862 H 85.0577 3.26104 -4.45376 0
M  V30 863 H 87.5337 3.30548 -2.5274 0
M  V30 864 H 86.4097 4.6159 -2.97028 0
M  V30 865 H 86.6707 4.23286 -1.27599 0
M  V30 866 N 85.7298 1.2412 0.971189 0
M  V30 867 C 86.6768 1.0305 2.06517 0
M  V30 868 C 87.6468 -0.0550666 1.66009 0
M  V30 869 O 88.8318 0.0988688 1.90544 0
M  V30 870 C 85.9718 0.637653 3.39158 0
M  V30 871 C 85.0848 1.79633 3.92882 0
M  V30 872 C 84.2198 1.34939 5.13775 0
M  V30 873 C 83.2588 2.47823 5.59687 0
M  V30 874 N 82.3958 2.04022 6.71803 0
M  V30 875 H 87.2358 1.96685 2.23873 0
M  V30 876 H 84.7728 0.979694 1.09729 0
M  V30 877 H 86.7308 0.390931 4.15364 0
M  V30 878 H 85.3608 -0.261693 3.21737 0
M  V30 879 H 84.4128 2.15681 3.13346 0
M  V30 880 H 85.7248 2.64466 4.22918 0
M  V30 881 H 84.8788 1.06134 5.97345 0
M  V30 882 H 83.6178 0.471557 4.85415 0
M  V30 883 H 82.6228 2.77392 4.74693 0
M  V30 884 H 83.8478 3.36158 5.90063 0
M  V30 885 H 81.7938 1.18632 6.45184 0
M  V30 886 H 81.7108 2.82409 7.01271 0
M  V30 887 H 82.9788 1.78347 7.58823 0
M  V30 888 N 87.2079 -1.17134 1.05439 0
M  V30 889 C 88.1379 -2.2342 0.678649 0
M  V30 890 C 89.1189 -1.66971 -0.32476 0
M  V30 891 O 90.3039 -1.93149 -0.201802 0
M  V30 892 C 87.4339 -3.47256 0.0552099 0
M  V30 893 C 86.3879 -4.16543 0.98365 0
M  V30 894 C 85.7139 -5.34231 0.223961 0
M  V30 895 C 87.0139 -4.68495 2.3089 0
M  V30 896 H 88.7079 -2.55105 1.56722 0
M  V30 897 H 86.2539 -1.2262 0.754998 0
M  V30 898 H 88.2069 -4.20828 -0.21946 0
M  V30 899 H 86.9309 -3.14846 -0.868319 0
M  V30 900 H 85.5899 -3.44887 1.24293 0
M  V30 901 H 85.2379 -4.98071 -0.702412 0
M  V30 902 H 84.9379 -5.81527 0.842627 0
M  V30 903 H 86.4619 -6.10585 -0.0433671 0
M  V30 904 H 87.8759 -5.33691 2.09396 0
M  V30 905 H 86.2729 -5.26379 2.88176 0
M  V30 906 H 87.3429 -3.85169 2.94572 0
M  V30 907 N 88.686 -0.835752 -1.33615 0
M  V30 908 C 89.934 -0.429109 -1.97492 0
M  V30 909 C 90.255 1.01433 -1.66543 0
M  V30 910 O 89.525 1.70611 -0.962744 0
M  V30 911 H 88.105 -0.155686 -0.730596 0
M  V30 912 H 90.767 -1.06802 -1.63031 0
M  V30 913 H 89.863 -0.55861 -3.0706 0
M  V30 914 N 90.1641 1.46063 -0.591896 0
M  V30 915 C 91.4411 1.95595 -0.0137119 0
M  V30 916 C 91.8211 1.5345 1.4497 0
M  V30 917 O 91.1691 0.789543 2.14426 0
M  V30 918 C 91.3791 3.48453 -0.195373 0
M  V30 919 C 92.7271 4.24546 -0.0679765 0
M  V30 920 O 93.7511 3.55982 -0.124681 0
M  V30 921 O 92.6101 5.46467 0.0600579 0
M  V30 922 H 89.7041 0.825795 0.0446279 0
M  V30 923 H 92.2501 1.56303 -0.660859 0
M  V30 924 H 91.0221 3.72045 -1.21235 0
M  V30 925 H 90.6451 3.94597 0.487775 0
M  V30 926 N 91.6422 0.330177 1.54103 0
M  V30 927 C 92.5892 -0.532762 2.24567 0
M  V30 928 C 93.5592 -1.10635 1.23892 0
M  V30 929 O 94.7442 -1.14546 1.5259 0
M  V30 930 C 91.8842 -1.6845 3.01195 0
M  V30 931 C 90.9972 -1.13951 4.167 0
M  V30 932 C 90.1322 -2.25746 4.80845 0
M  V30 933 C 89.1712 -1.6853 5.88442 0
M  V30 934 N 88.3082 -2.74014 6.46421 0
M  V30 935 H 93.1482 0.0746905 2.97906 0
M  V30 936 H 90.6852 0.048632 1.4702 0
M  V30 937 H 92.6432 -2.36234 3.43874 0
M  V30 938 H 91.2732 -2.26314 2.30178 0
M  V30 939 H 90.3252 -0.35301 3.78758 0
M  V30 940 H 91.6372 -0.680892 4.94131 0
M  V30 941 H 90.7912 -3.01422 5.26526 0
M  V30 942 H 89.5302 -2.74947 4.0281 0
M  V30 943 H 88.5352 -0.913543 5.42157 0
M  V30 944 H 89.7602 -1.20198 6.68378 0
M  V30 945 H 87.7062 -3.22494 5.71256 0
M  V30 946 H 87.6232 -2.32735 7.19285 0
M  V30 947 H 88.8912 -3.49499 6.96757 0
M  V30 948 N 93.1203 -1.57491 0.0584922 0
M  V30 949 C 94.0503 -2.14988 -0.911178 0
M  V30 950 C 95.0313 -1.07343 -1.31952 0
M  V30 951 O 96.2163 -1.35318 -1.39294 0
M  V30 952 C 93.3463 -2.70078 -2.18347 0
M  V30 953 C 92.3003 -3.82771 -1.91495 0
M  V30 954 C 91.6263 -4.24408 -3.25241 0
M  V30 955 C 92.9263 -5.07592 -1.23075 0
M  V30 956 H 94.6203 -2.96263 -0.432246 0
M  V30 957 H 92.1663 -1.42512 -0.206469 0
M  V30 958 H 94.1193 -3.08943 -2.86587 0
M  V30 959 H 92.8433 -1.86005 -2.68458 0
M  V30 960 H 91.5023 -3.44389 -1.25664 0
M  V30 961 H 91.1503 -3.37275 -3.73168 0
M  V30 962 H 90.8503 -5.00366 -3.08071 0
M  V30 963 H 92.3743 -4.65879 -3.94701 0
M  V30 964 H 93.7883 -5.43857 -1.81362 0
M  V30 965 H 92.1853 -5.88741 -1.16207 0
M  V30 966 H 93.2553 -4.84454 -0.207847 0
M  V30 967 N 94.5984 0.214957 -1.56127 0
M  V30 968 C 95.5454 1.26642 -1.92952 0
M  V30 969 C 96.5154 1.46244 -0.78753 0
M  V30 970 O 97.7004 1.59704 -1.04399 0
M  V30 971 C 94.8404 2.6104 -2.25726 0
M  V30 972 C 93.9534 2.49183 -3.52891 0
M  V30 973 C 93.0884 3.76149 -3.7508 0
M  V30 974 C 92.1274 3.59041 -4.95738 0
M  V30 975 N 91.2644 4.77972 -5.14283 0
M  V30 976 H 96.1044 0.945384 -2.82607 0
M  V30 977 H 93.6414 0.455489 -1.3987 0
M  V30 978 H 95.5994 3.39313 -2.42739 0
M  V30 979 H 94.2294 2.91227 -1.39236 0
M  V30 980 H 93.2814 1.6231 -3.44034 0
M  V30 981 H 94.5934 2.32466 -4.41318 0
M  V30 982 H 93.7474 4.62865 -3.92226 0
M  V30 983 H 92.4864 3.95799 -2.84947 0
M  V30 984 H 91.4914 2.7071 -4.78535 0
M  V30 985 H 92.7164 3.40856 -5.87362 0
M  V30 986 H 90.6624 4.97923 -4.27093 0
M  V30 987 H 90.5794 4.64006 -5.96853 0
M  V30 988 H 91.8474 5.66096 -5.35869 0
M  V30 989 N 96.0765 1.50051 0.48192 0
M  V30 990 C 96.9865 1.7089 1.60728 0
M  V30 991 C 98.0025 0.591788 1.63627 0
M  V30 992 O 99.1785 0.868817 1.81696 0
M  V30 993 C 96.2435 1.78855 2.97005 0
M  V30 994 C 95.3045 3.02537 3.04581 0
M  V30 995 C 94.5375 3.10112 4.34357 0
M  V30 996 O 94.7605 2.24765 5.24249 0
M  V30 997 O 93.6945 4.02747 4.47301 0
M  V30 998 H 97.5205 2.66264 1.46072 0
M  V30 999 H 95.1055 1.34018 0.660264 0
M  V30 1000 H 96.9875 1.86336 3.77964 0
M  V30 1001 H 95.6625 0.866628 3.11883 0
M  V30 1002 H 94.5695 3.00563 2.22739 0
M  V30 1003 H 95.9025 3.94272 2.94636 0
M  V30 1004 N 97.5546 -0.734337 1.39446 0
M  V30 1005 C 98.8026 -1.49096 1.36436 0
M  V30 1006 C 99.1236 -1.94961 -0.0388255 0
M  V30 1007 O 98.3936 -1.69033 -0.990191 0
M  V30 1008 H 96.9736 -0.5531 0.502085 0
M  V30 1009 H 99.6356 -0.871725 1.74319 0
M  V30 1010 H 98.7316 -2.37276 2.02747 0
M  V30 1011 N 99.0327 -1.24633 -0.964593 0
M  V30 1012 C 100.31 -0.995809 -1.68354 0
M  V30 1013 C 100.69 0.480964 -2.05548 0
M  V30 1014 O 100.038 1.45599 -1.76105 0
M  V30 1015 C 100.248 -1.92177 -2.91323 0
M  V30 1016 C 101.596 -2.19446 -3.63495 0
M  V30 1017 O 102.62 -1.89855 -3.01386 0
M  V30 1018 O 101.479 -2.69714 -4.75307 0
M  V30 1019 H 98.5727 -0.376854 -0.736146 0
M  V30 1020 H 101.119 -1.35745 -1.0184 0
M  V30 1021 H 99.8907 -2.91938 -2.60553 0
M  V30 1022 H 99.5137 -1.56349 -3.65569 0
M  V30 1023 N 100.511 1.16574 -1.06058 0
M  V30 1024 C 101.474 2.19085 -0.673392 0
M  V30 1025 C 102.474 1.5835 0.279648 0
M  V30 1026 O 103.664 1.74088 0.0623488 0
M  V30 1027 C 100.796 3.40899 0.00954234 0
M  V30 1028 H 101.989 2.54853 -1.58081 0
M  V30 1029 H 99.5418 1.30808 -0.855516 0
M  V30 1030 H 100.277 3.10684 0.929826 0
M  V30 1031 H 100.062 3.86233 -0.67573 0
M  V30 1032 H 101.552 4.1675 0.266245 0
M  V30 1033 N 101.989 0.842826 1.3317 0
M  V30 1034 C 103.238 0.436738 1.96915 0
M  V30 1035 C 103.551 -1.01025 1.67491 0
M  V30 1036 O 104.757 -1.5212 2.24881 0
M  V30 1037 C 103.213 0.730021 3.52418 0
M  V30 1038 C 102.821 2.19195 3.90714 0
M  V30 1039 C 104.565 0.391076 4.22695 0
M  V30 1040 C 102.472 2.42907 5.39212 0
M  V30 1041 H 101.402 0.15958 0.736919 0
M  V30 1042 H 104.053 1.03196 1.51733 0
M  V30 1043 H 102.435 0.0643755 3.95948 0
M  V30 1044 H 103.609 2.8984 3.58231 0
M  V30 1045 H 101.924 2.49425 3.33431 0
M  V30 1046 H 104.521 0.545817 5.31907 0
M  V30 1047 H 104.864 -0.666294 4.10933 0
M  V30 1048 H 105.397 1.01212 3.84709 0
M  V30 1049 H 102.136 3.47224 5.55982 0
M  V30 1050 H 101.656 1.76827 5.73142 0
M  V30 1051 H 103.335 2.2626 6.06148 0
M  V30 1052 N 103.467 -1.45747 0.599634 0
M  V30 1053 C 104.716 -2.01502 0.0893511 0
M  V30 1054 C 105.029 -1.4748 -1.28488 0
M  V30 1055 O 106.235 -1.95161 -1.88745 0
M  V30 1056 C 104.691 -3.59735 0.109082 0
M  V30 1057 C 104.299 -4.22754 1.48267 0
M  V30 1058 C 106.043 -4.23085 -0.346374 0
M  V30 1059 C 103.95 -5.73115 1.45921 0
M  V30 1060 H 102.88 -0.753417 0.0296347 0
M  V30 1061 H 105.531 -1.67303 0.753788 0
M  V30 1062 H 103.913 -3.91087 -0.621854 0
M  V30 1063 H 105.087 -4.02987 2.23468 0
M  V30 1064 H 103.402 -3.71567 1.87955 0
M  V30 1065 H 105.999 -5.33327 -0.38298 0
M  V30 1066 H 106.342 -3.93201 -1.36743 0
M  V30 1067 H 106.875 -3.9642 0.331038 0
M  V30 1068 H 103.614 -6.07685 2.45762 0
M  V30 1069 H 103.134 -5.95097 0.749665 0
M  V30 1070 H 104.813 -6.3616 1.17941 0
M  V30 1071 N 104.945 -0.338344 -1.53925 0
M  V30 1072 C 105.855 0.529421 -2.28548 0
M  V30 1073 C 106.871 1.11645 -1.3346 0
M  V30 1074 O 108.047 1.13325 -1.66492 0
M  V30 1075 C 105.112 1.66713 -3.03987 0
M  V30 1076 C 104.173 1.11041 -4.14691 0
M  V30 1077 C 103.406 2.19389 -4.86522 0
M  V30 1078 O 103.629 3.40013 -4.57982 0
M  V30 1079 O 102.563 1.83976 -5.73094 0
M  V30 1080 H 106.389 -0.0770399 -3.03602 0
M  V30 1081 H 103.974 -0.103555 -1.49041 0
M  V30 1082 H 105.856 2.32918 -3.5118 0
M  V30 1083 H 104.531 2.25949 -2.31794 0
M  V30 1084 H 103.438 0.413024 -3.71813 0
M  V30 1085 H 104.771 0.562975 -4.8897 0
M  V30 1086 N 106.423 1.57458 -0.0668435 0
M  V30 1087 C 107.353 2.15468 0.899764 0
M  V30 1088 C 108.334 1.08042 1.31381 0
M  V30 1089 O 109.519 1.36054 1.38574 0
M  V30 1090 C 106.649 2.71232 2.16911 0
M  V30 1091 C 105.603 3.83781 1.89463 0
M  V30 1092 C 104.929 4.26127 3.22986 0
M  V30 1093 C 106.229 5.08238 1.20381 0
M  V30 1094 H 107.923 2.96488 0.416529 0
M  V30 1095 H 105.469 1.4262 0.198908 0
M  V30 1096 H 107.422 3.10458 2.84945 0
M  V30 1097 H 106.146 1.87426 2.67468 0
M  V30 1098 H 104.805 3.45051 1.23836 0
M  V30 1099 H 104.453 3.39249 3.71374 0
M  V30 1100 H 104.153 5.01993 3.05413 0
M  V30 1101 H 105.677 4.67966 3.92225 0
M  V30 1102 H 107.091 5.44811 1.78475 0
M  V30 1103 H 105.488 5.89349 1.13083 0
M  V30 1104 H 106.558 4.84558 0.182153 0
M  V30 1105 N 107.901 -0.206675 1.56239 0
M  V30 1106 C 108.811 -1.27686 1.96808 0
M  V30 1107 C 109.827 -1.50455 0.874035 0
M  V30 1108 O 111.003 -1.63295 1.17884 0
M  V30 1109 C 108.068 -2.60358 2.28942 0
M  V30 1110 C 107.129 -2.45762 3.51994 0
M  V30 1111 C 106.362 -3.72108 3.82585 0
M  V30 1112 O 106.585 -4.75776 3.14631 0
M  V30 1113 O 105.519 -3.6833 4.76043 0
M  V30 1114 H 109.345 -0.962593 2.88041 0
M  V30 1115 H 106.93 -0.410746 1.43643 0
M  V30 1116 H 108.812 -3.38687 2.50737 0
M  V30 1117 H 107.487 -2.91435 1.4088 0
M  V30 1118 H 106.394 -1.65584 3.35459 0
M  V30 1119 H 107.727 -2.19621 4.40486 0
M  V30 1120 N 109.379 -1.50304 -0.473955 0
M  V30 1121 C 110.79 -1.54042 -1.0549 0
M  V30 1122 C 111.141 -0.342248 -1.93192 0
M  V30 1123 O 110.266 0.545157 -2.09421 0
M  V30 1124 C 110.861 -2.79152 -1.91989 0
M  V30 1125 C 109.42 -2.8558 -2.45196 0
M  V30 1126 C 108.567 -2.48295 -1.2347 0
M  V30 1127 H 111.518 -1.5661 -0.256693 0
M  V30 1128 H 111.539 -2.60845 -2.7702 0
M  V30 1129 H 111.051 -3.66339 -1.28131 0
M  V30 1130 H 109.152 -2.02738 -3.12615 0
M  V30 1131 H 109.265 -3.88403 -2.80499 0
M  V30 1132 H 107.629 -2.00669 -1.56856 0
M  V30 1133 H 108.412 -3.37787 -0.612789 0
M  V30 1134 N 110.857 0.726932 -1.39834 0
M  V30 1135 C 111.82 1.82269 -1.38962 0
M  V30 1136 C 112.82 1.58248 -0.285334 0
M  V30 1137 O 114.01 1.65499 -0.54366 0
M  V30 1138 C 111.142 3.20186 -1.17019 0
M  V30 1139 H 112.335 1.84443 -2.36476 0
M  V30 1140 H 109.888 0.931416 -1.25516 0
M  V30 1141 H 110.623 3.23669 -0.202204 0
M  V30 1142 H 110.408 3.3902 -1.96998 0
M  V30 1143 H 111.898 4.00235 -1.1917 0
M  V30 1144 N 112.336 1.25143 0.95797 0
M  V30 1145 C 113.299 1.05321 2.03569 0
M  V30 1146 C 114.299 0.007152 1.60798 0
M  V30 1147 O 115.489 0.24903 1.72411 0
M  V30 1148 C 112.621 0.598394 3.35607 0
M  V30 1149 H 113.814 2.00986 2.22586 0
M  V30 1150 H 111.367 1.07502 1.13459 0
M  V30 1151 H 112.102 -0.361014 3.22284 0
M  V30 1152 H 111.887 1.35351 3.67998 0
M  V30 1153 H 113.377 0.48104 4.1482 0
M  V30 1154 N 113.814 -1.1601 1.06675 0
M  V30 1155 C 115.062 -1.86264 0.784229 0
M  V30 1156 C 115.383 -1.82328 -0.691488 0
M  V30 1157 O 114.653 -1.25947 -1.50047 0
M  V30 1158 H 113.233 -0.689621 0.28711 0
M  V30 1159 H 115.895 -1.40664 1.34906 0
M  V30 1160 H 114.991 -2.91595 1.11259 0
M  V30 1161 N 115.292 -0.849877 -1.32721 0
M  V30 1162 C 116.255 -0.296122 -2.27279 0
M  V30 1163 C 117.255 0.541458 -1.5141 0
M  V30 1164 O 118.445 0.353658 -1.70572 0
M  V30 1165 C 115.577 0.581579 -3.35902 0
M  V30 1166 H 116.77 -1.13064 -2.77771 0
M  V30 1167 H 114.323 -0.62383 -1.43311 0
M  V30 1168 H 115.058 1.43809 -2.9067 0
M  V30 1169 H 114.843 -0.0178814 -3.92096 0
M  V30 1170 H 116.333 0.961951 -4.0637 0
M  V30 1171 N 116.77 1.45427 -0.607355 0
M  V30 1172 C 117.733 2.28974 0.101693 0
M  V30 1173 C 118.733 1.39754 0.795329 0
M  V30 1174 O 119.923 1.61878 0.643527 0
M  V30 1175 C 117.055 3.20768 1.15414 0
M  V30 1176 H 118.248 2.93147 -0.632844 0
M  V30 1177 H 115.801 1.51945 -0.366391 0
M  V30 1178 H 116.536 2.61395 1.91945 0
M  V30 1179 H 116.321 3.86489 0.66098 0
M  V30 1180 H 117.811 3.83589 1.65073 0
M  V30 1181 N 118.248 0.346503 1.53744 0
M  V30 1182 C 119.211 -0.496439 2.23759 0
M  V30 1183 C 120.211 -1.0252 1.2388 0
M  V30 1184 O 121.401 -0.913974 1.48297 0
M  V30 1185 C 118.533 -1.69187 2.95954 0
M  V30 1186 H 119.726 0.115952 2.99676 0
M  V30 1187 H 117.279 0.0978939 1.55993 0
M  V30 1188 H 118.014 -2.34288 2.24231 0
M  V30 1189 H 117.799 -1.31989 3.69217 0
M  V30 1190 H 119.289 -2.28969 3.49232 0
M  V30 1191 N 119.726 -1.57421 0.075193 0
M  V30 1192 C 120.689 -2.11791 -0.876203 0
M  V30 1193 C 121.689 -1.04268 -1.22412 0
M  V30 1194 O 122.879 -1.30242 -1.15684 0
M  V30 1195 C 120.011 -2.62207 -2.17854 0
M  V30 1196 H 121.204 -2.9716 -0.40444 0
M  V30 1197 H 118.757 -1.55333 -0.173557 0
M  V30 1198 H 119.492 -1.803 -2.6956 0
M  V30 1199 H 119.277 -3.40802 -1.93897 0
M  V30 1200 H 120.767 -3.04335 -2.85955 0
M  V30 1201 N 121.204 0.198386 -1.56346 0
M  V30 1202 C 122.615 0.763358 -1.70381 0
M  V30 1203 C 122.966 1.83995 -0.681203 0
M  V30 1204 O 122.091 2.15785 0.16305 0
M  V30 1205 C 122.686 1.39143 -3.08909 0
M  V30 1206 C 121.245 1.90352 -3.2472 0
M  V30 1207 C 120.392 0.772233 -2.6633 0
M  V30 1208 H 123.343 -0.0266377 -1.58678 0
M  V30 1209 H 123.364 2.26076 -3.06055 0
M  V30 1210 H 122.876 0.607638 -3.83314 0
M  V30 1211 H 120.977 2.71461 -2.55225 0
M  V30 1212 H 121.09 2.06757 -4.3219 0
M  V30 1213 H 119.454 1.18566 -2.2542 0
M  V30 1214 H 120.237 0.00073556 -3.433 0
M  V30 1215 N 122.682 1.50554 0.465978 0
M  V30 1216 C 123.645 1.69233 1.54574 0
M  V30 1217 C 124.645 0.562901 1.50626 0
M  V30 1218 O 125.835 0.830016 1.53155 0
M  V30 1219 C 122.967 1.7223 2.94193 0
M  V30 1220 H 124.16 2.65571 1.39327 0
M  V30 1221 H 121.713 1.40111 0.692711 0
M  V30 1222 H 122.448 0.77603 3.14878 0
M  V30 1223 H 122.233 2.54285 2.98466 0
M  V30 1224 H 123.723 1.88618 3.72576 0
M  V30 1225 N 124.16 -0.719506 1.40217 0
M  V30 1226 C 125.07 -1.86378 1.42479 0
M  V30 1227 C 126.086 -1.71073 0.317834 0
M  V30 1228 O 127.262 -1.93406 0.561794 0
M  V30 1229 C 124.327 -3.22136 1.28178 0
M  V30 1230 C 123.388 -3.49723 2.48982 0
M  V30 1231 C 122.621 -4.79004 2.35353 0
M  V30 1232 O 122.844 -5.53821 1.36524 0
M  V30 1233 O 121.778 -5.06839 3.2465 0
M  V30 1234 H 125.604 -1.87425 2.38968 0
M  V30 1235 H 123.189 -0.869405 1.21498 0
M  V30 1236 H 125.071 -4.03234 1.22395 0
M  V30 1237 H 123.746 -3.21825 0.347934 0
M  V30 1238 H 122.653 -2.6865 2.60342 0
M  V30 1239 H 123.986 -3.54828 3.41113 0
M  V30 1240 N 125.638 -1.25649 -0.95132 0
M  V30 1241 C 126.601 -1.06399 -2.03007 0
M  V30 1242 C 127.601 -0.0156794 -1.60792 0
M  V30 1243 O 128.791 -0.25817 -1.72276 0
M  V30 1244 C 125.923 -0.616184 -3.35285 0
M  V30 1245 H 127.116 -2.02164 -2.21517 0
M  V30 1246 H 124.669 -1.08103 -1.12887 0
M  V30 1247 H 125.404 0.343917 -3.22471 0
M  V30 1248 H 125.189 -1.37301 -3.67275 0
M  V30 1249 H 126.679 -0.503032 -4.14559 0
M  V30 1250 N 127.117 1.15442 -1.07289 0
M  V30 1251 C 128.08 2.18358 -0.696591 0
M  V30 1252 C 129.08 1.58637 0.262837 0
M  V30 1253 O 130.27 1.74145 0.0438809 0
M  V30 1254 C 127.402 3.4089 -0.0266151 0
M  V30 1255 H 128.595 2.53162 -1.60776 0
M  V30 1256 H 126.148 1.29893 -0.869342 0
M  V30 1257 H 126.883 3.11653 0.896822 0
M  V30 1258 H 126.668 3.85495 -0.716657 0
M  V30 1259 H 128.158 4.17009 0.222028 0
M  V30 1260 N 128.595 0.856903 1.32268 0
M  V30 1261 C 129.558 0.308171 2.27119 0
M  V30 1262 C 130.558 -0.533421 1.51695 0
M  V30 1263 O 131.748 -0.344607 1.70757 0
M  V30 1264 C 128.88 -0.563757 3.36206 0
M  V30 1265 H 130.073 1.14535 2.77167 0
M  V30 1266 H 127.626 0.631421 1.42978 0
M  V30 1267 H 128.361 -1.42266 2.91429 0
M  V30 1268 H 128.146 0.0386749 3.92081 0
M  V30 1269 H 129.636 -0.940386 4.06874 0
M  V30 1270 N 130.073 -1.45103 0.615059 0
M  V30 1271 C 131.319 -2.02483 0.113347 0
M  V30 1272 C 131.652 -1.48146 -1.25564 0
M  V30 1273 O 130.927 -0.659104 -1.82992 0
M  V30 1274 C 131.21 -3.60005 0.0825278 0
M  V30 1275 C 131.063 -4.2466 1.48271 0
M  V30 1276 C 132.382 -4.35972 -0.601401 0
M  V30 1277 H 129.501 -0.735764 0.0426632 0
M  V30 1278 H 132.143 -1.72868 0.788461 0
M  V30 1279 H 130.293 -3.85367 -0.492378 0
M  V30 1280 H 131.965 -4.10458 2.10527 0
M  V30 1281 H 130.208 -3.82772 2.04127 0
M  V30 1282 H 130.879 -5.336 1.41332 0
M  V30 1283 H 133.355 -4.15947 -0.112666 0
M  V30 1284 H 132.231 -5.45697 -0.592097 0
M  V30 1285 H 132.492 -4.09391 -1.66887 0
M  V30 1286 N 131.551 -0.354651 -1.53558 0
M  V30 1287 C 132.962 0.126902 -1.86268 0
M  V30 1288 C 133.313 1.49075 -1.27558 0
M  V30 1289 O 132.438 2.08105 -0.5934 0
M  V30 1290 C 133.033 0.237046 -3.3797 0
M  V30 1291 C 131.592 0.662842 -3.70518 0
M  V30 1292 C 130.739 -0.196652 -2.76602 0
M  V30 1293 H 133.69 -0.573849 -1.47962 0
M  V30 1294 H 133.711 1.06259 -3.65362 0
M  V30 1295 H 133.223 -0.755725 -3.80671 0
M  V30 1296 H 131.324 1.66424 -3.33367 0
M  V30 1297 H 131.437 0.445034 -4.77029 0
M  V30 1298 H 129.801 0.332763 -2.52517 0
M  V30 1299 H 130.584 -1.18676 -3.22135 0
M  V30 1300 N 133.029 1.57378 -0.0835403 0
M  V30 1301 C 133.992 2.12252 0.864959 0
M  V30 1302 C 134.992 1.04916 1.21858 0
M  V30 1303 O 136.182 1.30853 1.14991 0
M  V30 1304 C 133.314 2.63358 2.16461 0
M  V30 1305 H 134.507 2.97371 0.388676 0
M  V30 1306 H 132.06 1.55423 0.165317 0
M  V30 1307 H 132.795 1.81727 2.686 0
M  V30 1308 H 132.58 3.41826 1.92087 0
M  V30 1309 H 134.07 3.05847 2.84337 0
M  V30 1310 N 134.507 -0.190092 1.56449 0
M  V30 1311 C 135.47 -1.21925 1.9408 0
M  V30 1312 C 136.47 -1.38176 0.822431 0
M  V30 1313 O 137.66 -1.35903 1.08977 0
M  V30 1314 C 134.792 -2.58773 2.21922 0
M  V30 1315 H 135.985 -0.897464 2.86157 0
M  V30 1316 H 133.538 -0.43181 1.50217 0
M  V30 1317 H 134.273 -2.95998 1.32499 0
M  V30 1318 H 134.058 -2.48348 3.03424 0
M  V30 1319 H 135.548 -3.32978 2.52022 0
M  V30 1320 N 135.985 -1.50799 -0.457987 0
M  V30 1321 C 137.396 -1.55152 -1.0385 0
M  V30 1322 C 137.747 -0.362719 -1.92818 0
M  V30 1323 O 136.872 0.522915 -2.09987 0
M  V30 1324 C 137.467 -2.81173 -1.89017 0
M  V30 1325 C 136.026 -2.88164 -2.42154 0
M  V30 1326 C 135.173 -2.49591 -1.20829 0
M  V30 1327 H 138.124 -1.56874 -0.240068 0
M  V30 1328 H 138.145 -2.63769 -2.74238 0
M  V30 1329 H 137.657 -3.67677 -1.24238 0
M  V30 1330 H 135.758 -2.06042 -3.10447 0
M  V30 1331 H 135.871 -3.91356 -2.76364 0
M  V30 1332 H 134.235 -2.02322 -1.54719 0
M  V30 1333 H 135.018 -3.38418 -0.576927 0
M  V30 1334 N 137.463 0.71206 -1.40597 0
M  V30 1335 C 138.691 1.50111 -1.42388 0
M  V30 1336 C 139.106 1.88784 -0.0245395 0
M  V30 1337 O 138.463 1.55681 0.952351 0
M  V30 1338 C 138.514 2.7742 -2.31776 0
M  V30 1339 O 138.235 2.40382 -3.66262 0
M  V30 1340 C 139.736 3.7129 -2.42196 0
M  V30 1341 H 136.956 0.46314 -0.485533 0
M  V30 1342 H 139.5 0.878068 -1.8469 0
M  V30 1343 H 137.655 3.36001 -1.92827 0
M  V30 1344 H 138.069 3.22324 -4.13772 0
M  V30 1345 H 139.543 4.57448 -3.08943 0
M  V30 1346 H 140.02 4.14641 -1.44809 0
M  V30 1347 H 140.626 3.18619 -2.81712 0
M  V30 1348 N 138.941 1.26152 0.944643 0
M  V30 1349 C 139.873 1.03199 2.04652 0
M  V30 1350 C 140.886 -0.00642356 1.62799 0
M  V30 1351 O 142.075 0.233263 1.76969 0
M  V30 1352 C 139.175 0.540111 3.34568 0
M  V30 1353 C 138.348 1.64697 4.05208 0
M  V30 1354 C 137.407 1.15374 5.13396 0
M  V30 1355 O 136.433 1.85013 5.38293 0
M  V30 1356 N 137.635 0.00031529 5.805 0
M  V30 1357 H 140.4 1.9808 2.2491 0
M  V30 1358 H 137.961 1.17491 1.11389 0
M  V30 1359 H 139.953 0.194401 4.04233 0
M  V30 1360 H 138.523 -0.315021 3.11009 0
M  V30 1361 H 137.743 2.16379 3.29506 0
M  V30 1362 H 139.031 2.3903 4.49157 0
M  V30 1363 H 138.429 -0.581336 5.62705 0
M  V30 1364 H 136.986 -0.286346 6.51171 0
M  V30 1365 N 140.419 -1.14872 1.07899 0
M  V30 1366 C 141.382 -2.17986 0.708161 0
M  V30 1367 C 142.382 -1.58775 -0.25442 0
M  V30 1368 O 143.572 -1.74166 -0.034645 0
M  V30 1369 C 140.704 -3.40871 0.0446929 0
M  V30 1370 H 141.897 -2.52306 1.62116 0
M  V30 1371 H 139.45 -1.2943 0.876218 0
M  V30 1372 H 140.185 -3.12124 -0.880281 0
M  V30 1373 H 139.97 -3.8511 0.737091 0
M  V30 1374 H 141.46 -4.17121 -0.19991 0
M  V30 1375 N 141.898 -0.863906 -1.31812 0
M  V30 1376 C 143.144 -0.472535 -1.97218 0
M  V30 1377 C 143.477 0.971394 -1.68159 0
M  V30 1378 O 142.752 1.68309 -0.974798 0
M  V30 1379 C 143.035 -0.723054 -3.52766 0
M  V30 1380 C 142.888 -2.21608 -3.91421 0
M  V30 1381 C 144.207 -0.185522 -4.39709 0
M  V30 1382 H 141.326 -0.173158 -0.71637 0
M  V30 1383 H 143.968 -1.08403 -1.56041 0
M  V30 1384 H 142.118 -0.202577 -3.87971 0
M  V30 1385 H 143.79 -2.80334 -3.66347 0
M  V30 1386 H 142.033 -2.691 -3.40246 0
M  V30 1387 H 142.704 -2.34203 -4.99853 0
M  V30 1388 H 145.18 -0.630726 -4.11292 0
M  V30 1389 H 144.056 -0.390306 -5.47511 0
M  V30 1390 H 144.317 0.912229 -4.32586 0
M  V30 1391 N 143.376 1.44774 -0.622745 0
M  V30 1392 C 144.653 1.95522 -0.0551974 0
M  V30 1393 C 145.033 1.5649 1.41683 0
M  V30 1394 O 144.381 0.834848 2.12703 0
M  V30 1395 C 144.591 3.4796 -0.269242 0
M  V30 1396 C 145.939 4.24306 -0.158014 0
M  V30 1397 O 146.963 3.55637 -0.200162 0
M  V30 1398 O 145.822 5.46471 -0.0558693 0
M  V30 1399 H 142.916 0.826556 0.0271015 0
M  V30 1400 H 145.462 1.54866 -0.693864 0
M  V30 1401 H 144.234 3.6939 -1.29099 0
M  V30 1402 H 143.857 3.95543 0.403966 0
M  V30 1403 N 144.854 0.36279 1.53368 0
M  V30 1404 C 145.764 -0.492994 2.29362 0
M  V30 1405 C 146.78 -1.09507 1.35219 0
M  V30 1406 O 147.956 -1.10662 1.68273 0
M  V30 1407 C 145.021 -1.61855 3.066 0
M  V30 1408 C 144.082 -1.04429 4.16405 0
M  V30 1409 C 143.315 -2.11621 4.89951 0
M  V30 1410 O 143.538 -3.32684 4.63333 0
M  V30 1411 O 142.472 -1.74835 5.75948 0
M  V30 1412 H 146.298 0.125331 3.03441 0
M  V30 1413 H 143.883 0.127253 1.48857 0
M  V30 1414 H 145.765 -2.27302 3.54841 0
M  V30 1415 H 144.44 -2.22233 2.3536 0
M  V30 1416 H 143.347 -0.353819 3.72423 0
M  V30 1417 H 144.68 -0.485113 4.89804 0
M  V30 1418 N 146.332 -1.57332 0.0918853 0
M  V30 1419 C 147.295 -2.12708 -0.85369 0
M  V30 1420 C 148.295 -1.05561 -1.213 0
M  V30 1421 O 149.485 -1.31461 -1.14296 0
M  V30 1422 C 146.617 -2.64503 -2.15061 0
M  V30 1423 H 147.81 -2.97573 -0.3729 0
M  V30 1424 H 145.363 -1.55509 -0.157072 0
M  V30 1425 H 146.098 -1.83149 -2.67632 0
M  V30 1426 H 145.883 -3.4284 -1.90272 0
M  V30 1427 H 147.373 -3.07351 -2.82711 0
M  V30 1428 N 147.81 0.181792 -1.56548 0
M  V30 1429 C 148.72 1.24538 -1.98815 0
M  V30 1430 C 149.736 1.49045 -0.897861 0
M  V30 1431 O 150.912 1.61399 -1.20467 0
M  V30 1432 C 147.977 2.56683 -2.33055 0
M  V30 1433 C 147.038 2.40131 -3.55859 0
M  V30 1434 C 146.271 3.65975 -3.88456 0
M  V30 1435 O 146.494 4.70711 -3.22161 0
M  V30 1436 O 145.428 3.6071 -4.81842 0
M  V30 1437 H 149.254 0.916647 -2.89536 0
M  V30 1438 H 146.839 0.387842 -1.44278 0
M  V30 1439 H 148.721 3.34655 -2.56094 0
M  V30 1440 H 147.396 2.89157 -1.45498 0
M  V30 1441 H 146.303 1.60226 -3.38051 0
M  V30 1442 H 147.636 2.12585 -4.43924 0
M  V30 1443 N 149.288 1.51039 0.449983 0
M  V30 1444 C 150.251 1.70863 1.5277 0
M  V30 1445 C 151.251 0.578846 1.5002 0
M  V30 1446 O 152.441 0.846213 1.52266 0
M  V30 1447 C 149.573 1.75341 2.9235 0
M  V30 1448 H 150.766 2.67034 1.36502 0
M  V30 1449 H 148.319 1.40838 0.677812 0
M  V30 1450 H 149.054 0.809383 3.14037 0
M  V30 1451 H 148.839 2.57436 2.95752 0
M  V30 1452 H 150.329 1.92559 3.70555 0
M  V30 1453 N 150.766 -0.704594 1.40972 0
M  V30 1454 C 152.177 -1.28418 1.3552 0
M  V30 1455 C 152.528 -1.96171 0.0339434 0
M  V30 1456 O 151.653 -1.98231 -0.867944 0
M  V30 1457 C 152.248 -2.33528 2.45459 0
M  V30 1458 C 150.807 -2.87085 2.43433 0
M  V30 1459 C 149.954 -1.61007 2.2577 0
M  V30 1460 H 152.905 -0.499963 1.50619 0
M  V30 1461 H 152.926 -3.14619 2.13998 0
M  V30 1462 H 152.438 -1.84187 3.41609 0
M  V30 1463 H 150.539 -3.40626 1.51013 0
M  V30 1464 H 150.652 -3.3813 3.39419 0
M  V30 1465 H 149.016 -1.86482 1.73483 0
M  V30 1466 H 149.799 -1.13675 3.23933 0
M  V30 1467 N 152.244 -1.26651 -0.937939 0
M  V30 1468 C 153.469 -1.15279 -1.72411 0
M  V30 1469 C 153.894 0.287866 -1.85884 0
M  V30 1470 O 153.252 1.20855 -1.35143 0
M  V30 1471 C 153.3 -1.83028 -3.10698 0
M  V30 1472 O 152.404 -1.12128 -3.96864 0
M  V30 1473 H 151.745 -0.401504 -0.528858 0
M  V30 1474 H 154.275 -1.67531 -1.1745 0
M  V30 1475 H 154.285 -1.89981 -3.6107 0
M  V30 1476 H 152.96 -2.87833 -3.00208 0
M  V30 1477 H 151.537 -1.13173 -3.55312 0
M  V30 1478 N 153.722 1.14298 -1.08507 0
M  V30 1479 C 155.133 1.66926 -0.836227 0
M  V30 1480 C 155.484 1.85576 0.63686 0
M  V30 1481 O 154.609 1.56767 1.49175 0
M  V30 1482 C 155.204 3.03219 -1.51142 0
M  V30 1483 C 153.763 3.52876 -1.30979 0
M  V30 1484 C 152.91 2.2833 -1.57356 0
M  V30 1485 H 155.861 0.983491 -1.24552 0
M  V30 1486 H 155.882 3.68726 -0.939211 0
M  V30 1487 H 155.394 2.89612 -2.58353 0
M  V30 1488 H 153.495 3.71703 -0.258429 0
M  V30 1489 H 153.608 4.33586 -2.03814 0
M  V30 1490 H 151.972 2.34454 -0.995164 0
M  V30 1491 H 152.755 2.17298 -2.65775 0
M  V30 1492 N 155.201 0.870884 1.31352 0
M  V30 1493 C 156.449 0.48132 1.96285 0
M  V30 1494 C 156.77 -0.969813 1.69173 0
M  V30 1495 O 156.04 -1.67998 1.00764 0
M  V30 1496 H 154.62 0.175002 0.726212 0
M  V30 1497 H 157.282 1.11087 1.60143 0
M  V30 1498 H 156.378 0.639825 3.05471 0
M  V30 1499 N 156.679 -1.44442 0.630414 0
M  V30 1500 C 157.642 -2.29107 -0.0652523 0
M  V30 1501 C 158.642 -1.41002 -0.772995 0
M  V30 1502 O 159.832 -1.62881 -0.617692 0
M  V30 1503 C 156.964 -3.22564 -1.10296 0
M  V30 1504 H 158.157 -2.92103 0.679401 0
M  V30 1505 H 155.71 -1.51343 0.390517 0
M  V30 1506 H 156.445 -2.64416 -1.87762 0
M  V30 1507 H 156.23 -3.87491 -0.59941 0
M  V30 1508 H 157.72 -3.86167 -1.5895 0
M  V30 1509 N 158.157 -0.370918 -1.53173 0
M  V30 1510 C 159.382 0.220293 -2.06227 0
M  V30 1511 C 159.807 1.41243 -1.24225 0
M  V30 1512 O 159.165 1.79387 -0.262645 0
M  V30 1513 C 159.213 0.586663 -3.55796 0
M  V30 1514 O 158.317 1.68317 -3.76488 0
M  V30 1515 H 157.658 0.0308099 -0.663285 0
M  V30 1516 H 160.188 -0.533068 -1.97534 0
M  V30 1517 H 160.198 0.85617 -3.98916 0
M  V30 1518 H 158.873 -0.285013 -4.14922 0
M  V30 1519 H 157.45 1.40881 -3.45264 0
M  V30 1520 N 159.635 1.57281 -0.100228 0
M  V30 1521 C 160.598 2.13158 0.842398 0
M  V30 1522 C 161.598 1.06202 1.20738 0
M  V30 1523 O 162.788 1.32066 1.13597 0
M  V30 1524 C 159.92 2.65639 2.13655 0
M  V30 1525 H 161.113 2.97766 0.357114 0
M  V30 1526 H 158.666 1.5559 0.148823 0
M  V30 1527 H 159.401 1.84566 2.66657 0
M  V30 1528 H 159.186 3.43844 1.88451 0
M  V30 1529 H 160.676 3.08846 2.81077 0
M  V30 1530 N 161.113 -0.173488 1.56642 0
M  V30 1531 C 162.341 -0.906095 1.86004 0
M  V30 1532 C 162.756 -1.75921 0.685355 0
M  V30 1533 O 162.113 -1.79198 -0.345578 0
M  V30 1534 C 162.164 -1.78462 3.14378 0
M  V30 1535 O 161.885 -0.965914 4.27319 0
M  V30 1536 C 163.386 -2.62707 3.57071 0
M  V30 1537 H 160.606 -0.263341 0.617165 0
M  V30 1538 H 163.15 -0.174236 2.03756 0
M  V30 1539 H 161.305 -2.46984 2.98459 0
M  V30 1540 H 161.719 -1.56655 5.00559 0
M  V30 1541 H 163.193 -3.19969 4.49804 0
M  V30 1542 H 163.67 -3.37472 2.81086 0
M  V30 1543 H 164.276 -1.99521 3.75595 0
M  V30 1544 N 162.591 -1.51276 -0.441967 0
M  V30 1545 C 164.002 -1.56244 -1.02199 0
M  V30 1546 C 164.353 -0.383149 -1.92422 0
M  V30 1547 O 163.478 0.500613 -2.1053 0
M  V30 1548 C 164.073 -2.83162 -1.86024 0
M  V30 1549 C 162.632 -2.90716 -2.39084 0
M  V30 1550 C 161.779 -2.50858 -1.18175 0
M  V30 1551 H 164.73 -1.5712 -0.223416 0
M  V30 1552 H 164.751 -2.66663 -2.71425 0
M  V30 1553 H 164.263 -3.68974 -1.20331 0
M  V30 1554 H 162.364 -2.09323 -3.08244 0
M  V30 1555 H 162.477 -3.94266 -2.72198 0
M  V30 1556 H 160.841 -2.03951 -1.52565 0
M  V30 1557 H 161.624 -3.3901 -0.541001 0
M  V30 1558 N 164.069 0.697108 -1.41344 0
M  V30 1559 C 165.032 1.79281 -1.42797 0
M  V30 1560 C 166.032 1.57607 -0.318837 0
M  V30 1561 O 167.222 1.64309 -0.578642 0
M  V30 1562 C 164.354 3.17632 -1.23785 0
M  V30 1563 H 165.547 1.79385 -2.40335 0
M  V30 1564 H 163.1 0.904582 -1.27464 0
M  V30 1565 H 163.835 3.23167 -0.270814 0
M  V30 1566 H 163.62 3.34765 -2.04144 0
M  V30 1567 H 165.11 3.97617 -1.27633 0
M  V30 1568 N 165.547 1.27147 0.931209 0
M  V30 1569 C 166.958 1.12044 1.49342 0
M  V30 1570 C 167.309 -0.295795 1.93957 0
M  V30 1571 O 166.434 -1.18835 1.80852 0
M  V30 1572 C 167.029 2.02781 2.71414 0
M  V30 1573 C 165.588 1.91794 3.2387 0
M  V30 1574 C 164.735 1.95543 1.96617 0
M  V30 1575 H 167.686 1.40091 0.745672 0
M  V30 1576 H 167.707 1.58156 3.46074 0
M  V30 1577 H 167.219 3.05848 2.38911 0
M  V30 1578 H 165.32 0.916992 3.6114 0
M  V30 1579 H 165.433 2.77852 3.90302 0
M  V30 1580 H 163.797 1.39722 2.12955 0
M  V30 1581 H 164.58 3.00259 1.66432 0
M  V30 1582 N 167.025 -1.13721 1.09112 0
M  V30 1583 C 167.988 -2.17222 0.731241 0
M  V30 1584 C 168.988 -1.59035 -0.237566 0
M  V30 1585 O 170.178 -1.74192 -0.0161704 0
M  V30 1586 C 167.31 -3.40804 0.0808443 0
M  V30 1587 H 168.503 -2.50573 1.64783 0
M  V30 1588 H 166.056 -1.28493 0.889897 0
M  V30 1589 H 166.791 -3.1304 -0.847127 0
M  V30 1590 H 166.576 -3.84306 0.777896 0
M  V30 1591 H 168.066 -4.1731 -0.155657 0
M  V30 1592 N 168.503 -0.877838 -1.30888 0
M  V30 1593 C 169.466 -0.344265 -2.266 0
M  V30 1594 C 170.466 0.50922 -1.52524 0
M  V30 1595 O 171.656 0.317398 -1.71284 0
M  V30 1596 C 168.788 0.510198 -3.37061 0
M  V30 1597 H 169.981 -1.1893 -2.7531 0
M  V30 1598 H 167.534 -0.654088 -1.41956 0
M  V30 1599 H 168.269 1.37612 -2.93655 0
M  V30 1600 H 168.054 -0.101047 -3.9197 0
M  V30 1601 H 169.544 0.875537 -4.08319 0
M  V30 1602 N 169.982 1.44106 -0.638065 0
M  V30 1603 C 170.945 2.29138 0.0531013 0
M  V30 1604 C 171.945 1.41409 0.765506 0
M  V30 1605 O 173.135 1.63206 0.609046 0
M  V30 1606 C 170.267 3.23144 1.08584 0
M  V30 1607 H 171.46 2.91739 -0.694883 0
M  V30 1608 H 169.013 1.51134 -0.398538 0
M  V30 1609 H 169.748 2.65408 1.86357 0
M  V30 1610 H 169.533 3.87804 0.578852 0
M  V30 1611 H 171.023 3.87004 1.56899 0
M  V30 1612 N 171.46 0.379036 1.52974 0
M  V30 1613 C 172.685 -0.209353 2.06341 0
M  V30 1614 C 173.11 -1.40583 1.24972 0
M  V30 1615 O 172.468 -1.79246 0.272155 0
M  V30 1616 C 172.516 -0.567786 3.56102 0
M  V30 1617 O 171.62 -1.66318 3.77375 0
M  V30 1618 H 170.961 -0.0272919 0.663439 0
M  V30 1619 H 173.491 0.543536 1.97248 0
M  V30 1620 H 173.501 -0.835003 3.99364 0
M  V30 1621 H 172.176 0.307013 4.14765 0
M  V30 1622 H 170.753 -1.39048 3.46006 0
M  V30 1623 N 172.938 -1.57226 0.108567 0
M  V30 1624 C 173.87 -2.11809 -0.875752 0
M  V30 1625 C 174.883 -1.05839 -1.23701 0
M  V30 1626 O 176.072 -1.33245 -1.18778 0
M  V30 1627 C 173.172 -2.59411 -2.18081 0
M  V30 1628 C 172.345 -3.89364 -1.99284 0
M  V30 1629 C 171.404 -4.22672 -3.13424 0
M  V30 1630 O 170.43 -4.91668 -2.86795 0
M  V30 1631 N 171.632 -3.79154 -4.3957 0
M  V30 1632 H 174.397 -2.9689 -0.409477 0
M  V30 1633 H 171.958 -1.61721 -0.076158 0
M  V30 1634 H 173.95 -2.7873 -2.93414 0
M  V30 1635 H 172.52 -1.79268 -2.5609 0
M  V30 1636 H 171.74 -3.79059 -1.08203 0
M  V30 1637 H 173.028 -4.74358 -1.84017 0
M  V30 1638 H 172.426 -3.23486 -4.64083 0
M  V30 1639 H 170.983 -4.03602 -5.11809 0
M  V30 1640 N 174.416 0.165178 -1.56732 0
M  V30 1641 C 175.326 1.22423 -2.00125 0
M  V30 1642 C 176.342 1.48084 -0.913619 0
M  V30 1643 O 177.518 1.60112 -1.22172 0
M  V30 1644 C 174.583 2.54197 -2.35764 0
M  V30 1645 C 173.644 2.36343 -3.58386 0
M  V30 1646 C 172.877 3.61834 -3.92316 0
M  V30 1647 O 173.1 4.67267 -3.27135 0
M  V30 1648 O 172.034 3.55579 -4.85641 0
M  V30 1649 H 175.86 0.885886 -2.90492 0
M  V30 1650 H 173.445 0.372518 -1.44681 0
M  V30 1651 H 175.327 3.3192 -2.59629 0
M  V30 1652 H 174.002 2.87598 -1.48557 0
M  V30 1653 H 172.909 1.56632 -3.39731 0
M  V30 1654 H 174.242 2.07865 -4.46154 0
M  V30 1655 N 175.894 1.51508 0.433938 0
M  V30 1656 C 177.14 1.64588 1.18484 0
M  V30 1657 C 177.473 0.362666 1.90784 0
M  V30 1658 O 176.748 -0.637892 1.83742 0
M  V30 1659 C 177.031 2.85149 2.19913 0
M  V30 1660 C 176.884 4.23456 1.51674 0
M  V30 1661 C 178.203 3.01227 3.20858 0
M  V30 1662 H 175.322 0.598994 0.429389 0
M  V30 1663 H 177.964 1.84002 0.473647 0
M  V30 1664 H 176.114 2.68729 2.80566 0
M  V30 1665 H 177.786 4.51552 0.943322 0
M  V30 1666 H 176.029 4.25998 0.819035 0
M  V30 1667 H 176.7 5.03812 2.2556 0
M  V30 1668 H 179.176 3.16382 2.70263 0
M  V30 1669 H 178.052 3.87141 3.89118 0
M  V30 1670 H 178.313 2.13447 3.8716 0
M  V30 1671 N 177.372 -0.689602 1.41712 0
M  V30 1672 C 178.788 -1.00093 1.24312 0
M  V30 1673 C 178.988 -2.01036 0.136729 0
M  V30 1674 O 178.044 -2.47562 -0.496918 0
M  V30 1675 C 179.357 -1.51985 2.59463 0
M  V30 1676 C 180.905 -1.63838 2.66695 0
M  V30 1677 C 181.38 -2.1913 4.02177 0
M  V30 1678 N 182.871 -2.26483 4.04054 0
M  V30 1679 C 183.606 -2.70306 5.0569 0
M  V30 1680 N 183.102 -3.13691 6.17713 0
M  V30 1681 N 184.895 -2.69923 4.9305 0
M  V30 1682 H 177.046 -0.0210029 2.1239 0
M  V30 1683 H 179.309 -0.0718733 0.945272 0
M  V30 1684 H 179.015 -0.85269 3.41207 0
M  V30 1685 H 178.889 -2.50103 2.82362 0
M  V30 1686 H 181.276 -2.29664 1.85306 0
M  V30 1687 H 181.357 -0.642492 2.476 0
M  V30 1688 H 181.001 -1.53918 4.84016 0
M  V30 1689 H 180.931 -3.19482 4.18615 0
M  V30 1690 H 183.422 -1.95874 3.23174 0
M  V30 1691 H 183.735 -3.45773 6.9113 0
M  V30 1692 H 182.08 -3.11585 6.21241 0
M  V30 1693 H 185.271 -2.35382 4.04614 0
M  V30 1694 H 185.444 -3.03758 5.72394 0
M  V30 1695 N 178.85 -1.27639 -0.924453 0
M  V30 1696 C 180.096 -1.14336 -1.67497 0
M  V30 1697 C 180.429 0.309465 -1.91718 0
M  V30 1698 O 179.704 1.22608 -1.50989 0
M  V30 1699 C 179.987 -1.93096 -3.0395 0
M  V30 1700 C 179.84 -3.46381 -2.8695 0
M  V30 1701 C 181.159 -1.73798 -4.0433 0
M  V30 1702 H 178.278 -0.416728 -0.607871 0
M  V30 1703 H 180.92 -1.56832 -1.07256 0
M  V30 1704 H 179.07 -1.56982 -3.55372 0
M  V30 1705 H 180.742 -3.92343 -2.42621 0
M  V30 1706 H 178.985 -3.72557 -2.22225 0
M  V30 1707 H 179.656 -3.96735 -3.83804 0
M  V30 1708 H 182.132 -2.05293 -3.61931 0
M  V30 1709 H 181.008 -2.31294 -4.97789 0
M  V30 1710 H 181.269 -0.686725 -4.36734 0
M  V30 1711 N 180.328 1.1314 -1.09713 0
M  V30 1712 C 181.739 1.66029 -0.853885 0
M  V30 1713 C 182.09 1.86241 0.617142 0
M  V30 1714 O 181.215 1.5834 1.47503 0
M  V30 1715 C 181.81 3.01599 -1.5435 0
M  V30 1716 C 180.369 3.51467 -1.34714 0
M  V30 1717 C 179.516 2.26648 -1.59769 0
M  V30 1718 H 182.467 0.970226 -1.25588 0
M  V30 1719 H 182.488 3.67709 -0.978267 0
M  V30 1720 H 182 2.86856 -2.6141 0
M  V30 1721 H 180.101 3.71408 -0.297838 0
M  V30 1722 H 180.214 4.314 -2.08401 0
M  V30 1723 H 178.578 2.33385 -1.01998 0
M  V30 1724 H 179.361 2.14467 -2.68065 0
M  V30 1725 N 181.806 0.884767 1.30421 0
M  V30 1726 C 183.083 0.423185 1.90967 0
M  V30 1727 C 183.463 -1.09605 1.80416 0
M  V30 1728 O 182.811 -1.93126 1.22125 0
M  V30 1729 C 183.021 0.921056 3.36627 0
M  V30 1730 C 184.369 0.955903 4.137 0
M  V30 1731 O 185.393 0.867706 3.4547 0
M  V30 1732 O 184.252 1.08614 5.35598 0
M  V30 1733 H 181.346 0.129369 0.816819 0
M  V30 1734 H 183.892 0.973653 1.3899 0
M  V30 1735 H 182.664 1.96489 3.3839 0
M  V30 1736 H 182.287 0.349741 3.96059 0
M  V30 1737 N 183.284 -1.43765 0.645699 0
M  V30 1738 C 184.533 -2.01116 0.153412 0
M  V30 1739 C 184.846 -1.51493 -1.23731 0
M  V30 1740 O 186.052 -2.01067 -1.8244 0
M  V30 1741 C 184.508 -3.59206 0.223473 0
M  V30 1742 C 184.116 -4.17823 1.61642 0
M  V30 1743 C 185.86 -4.23972 -0.211597 0
M  V30 1744 C 183.767 -5.68183 1.64081 0
M  V30 1745 H 182.697 -0.752093 0.0535891 0
M  V30 1746 H 185.348 -1.6482 0.806633 0
M  V30 1747 H 183.73 -3.92867 -0.497118 0
M  V30 1748 H 184.904 -3.95674 2.36176 0
M  V30 1749 H 183.219 -3.65399 1.99681 0
M  V30 1750 H 185.816 -5.34275 -0.213112 0
M  V30 1751 H 186.159 -3.97352 -1.24165 0
M  V30 1752 H 186.692 -3.95166 0.456988 0
M  V30 1753 H 183.431 -5.99559 2.64971 0
M  V30 1754 H 182.951 -5.9241 0.938611 0
M  V30 1755 H 184.63 -6.32085 1.3812 0
M  V30 1756 N 184.763 -0.387143 -1.52771 0
M  V30 1757 C 186.011 0.195349 -2.01154 0
M  V30 1758 C 186.332 1.475 -1.27549 0
M  V30 1759 O 185.602 1.91878 -0.394924 0
M  V30 1760 H 184.182 0.075178 -0.743207 0
M  V30 1761 H 186.844 -0.518337 -1.87881 0
M  V30 1762 H 185.94 0.407096 -3.09434 0
M  V30 1763 N 186.241 1.57166 -0.116904 0
M  V30 1764 C 187.466 1.999 0.55271 0
M  V30 1765 C 187.891 0.996039 1.59564 0
M  V30 1766 O 187.249 -0.032556 1.81271 0
M  V30 1767 C 187.297 3.4152 1.15742 0
M  V30 1768 O 186.401 3.44106 2.27299 0
M  V30 1769 H 185.742 0.649447 0.138258 0
M  V30 1770 H 188.272 2.03573 -0.204759 0
M  V30 1771 H 188.282 3.79684 1.49346 0
M  V30 1772 H 186.957 4.14034 0.393493 0
M  V30 1773 H 185.534 3.17759 1.9515 0
M  V30 1774 N 187.719 -0.156864 1.56817 0
M  V30 1775 C 188.682 -1.17781 1.96622 0
M  V30 1776 C 189.682 -1.36401 0.851555 0
M  V30 1777 O 190.872 -1.33561 1.11836 0
M  V30 1778 C 188.004 -2.54008 2.27361 0
M  V30 1779 H 189.197 -0.836564 2.87996 0
M  V30 1780 H 186.75 -0.39985 1.51099 0
M  V30 1781 H 187.485 -2.9312 1.38748 0
M  V30 1782 H 187.27 -2.41856 3.08623 0
M  V30 1783 H 188.76 -3.27558 2.59029 0
M  V30 1784 N 189.197 -1.51736 -0.425897 0
M  V30 1785 C 190.445 -1.64644 -1.17204 0
M  V30 1786 C 190.766 -0.370486 -1.91448 0
M  V30 1787 O 190.036 0.614088 -1.86026 0
M  V30 1788 H 188.616 -0.606819 -0.435638 0
M  V30 1789 H 191.278 -1.88713 -0.487177 0
M  V30 1790 H 190.374 -2.47958 -1.89534 0
M  V30 1791 N 190.675 0.682077 -1.42076 0
M  V30 1792 C 191.622 1.79578 -1.44984 0
M  V30 1793 C 192.592 1.6332 -0.302614 0
M  V30 1794 O 193.777 1.83978 -0.505633 0
M  V30 1795 C 190.917 3.1756 -1.35091 0
M  V30 1796 C 190.03 3.45156 -2.59791 0
M  V30 1797 C 189.165 4.72826 -2.42093 0
M  V30 1798 C 188.204 4.93433 -3.62202 0
M  V30 1799 N 187.341 6.12338 -3.43491 0
M  V30 1800 H 192.181 1.76427 -2.40161 0
M  V30 1801 H 189.718 0.861376 -1.19242 0
M  V30 1802 H 191.676 3.97287 -1.27354 0
M  V30 1803 H 190.306 3.19854 -0.435133 0
M  V30 1804 H 189.358 2.59736 -2.77923 0
M  V30 1805 H 190.67 3.5628 -3.49094 0
M  V30 1806 H 189.824 5.60631 -2.319 0
M  V30 1807 H 188.563 4.63973 -1.50268 0
M  V30 1808 H 187.568 4.04073 -3.72834 0
M  V30 1809 H 188.793 5.04136 -4.54998 0
M  V30 1810 H 186.739 6.04672 -2.54377 0
M  V30 1811 H 186.656 6.2429 -4.26377 0
M  V30 1812 H 187.924 7.02841 -3.37097 0
M  V30 1813 N 192.153 1.28127 0.917671 0
M  V30 1814 C 193.116 1.11744 2.00115 0
M  V30 1815 C 194.116 0.0583052 1.60694 0
M  V30 1816 O 195.306 0.303755 1.71531 0
M  V30 1817 C 192.438 0.704862 3.33533 0
M  V30 1818 H 193.631 2.07966 2.16079 0
M  V30 1819 H 191.184 1.11058 1.09981 0
M  V30 1820 H 191.919 -0.258299 3.2327 0
M  V30 1821 H 191.704 1.4699 3.63505 0
M  V30 1822 H 193.194 0.612768 4.1308 0
M  V30 1823 N 193.631 -1.12557 1.10312 0
M  V30 1824 C 195.047 -1.36036 0.834649 0
M  V30 1825 C 195.247 -1.93946 -0.546539 0
M  V30 1826 O 194.303 -2.16484 -1.29966 0
M  V30 1827 C 195.616 -2.30312 1.9333 0
M  V30 1828 C 197.164 -2.43906 1.9616 0
M  V30 1829 C 197.639 -3.41496 3.05195 0
M  V30 1830 N 199.13 -3.49053 3.04494 0
M  V30 1831 C 199.865 -4.24471 3.85502 0
M  V30 1832 N 199.361 -5.02966 4.76442 0
M  V30 1833 N 201.154 -4.19864 3.73725 0
M  V30 1834 H 193.305 -0.733246 1.99342 0
M  V30 1835 H 195.568 -0.385234 0.866198 0
M  V30 1836 H 195.274 -1.94933 2.92735 0
M  V30 1837 H 195.148 -3.30421 1.81939 0
M  V30 1838 H 197.535 -2.78567 0.973886 0
M  V30 1839 H 197.616 -1.4369 2.11629 0
M  V30 1840 H 197.26 -3.07565 4.04186 0
M  V30 1841 H 197.19 -4.41539 2.86968 0
M  V30 1842 H 199.681 -2.93053 2.38596 0
M  V30 1843 H 199.994 -5.57846 5.34815 0
M  V30 1844 H 198.339 -5.02167 4.80472 0
M  V30 1845 H 201.53 -3.57623 3.02032 0
M  V30 1846 H 201.703 -4.78386 4.37093 0
M  V30 1847 N 195.109 -0.891671 -1.2995 0
M  V30 1848 C 196.355 -0.514261 -1.96171 0
M  V30 1849 C 196.688 0.935506 -1.70182 0
M  V30 1850 O 195.963 1.66204 -1.01028 0
M  V30 1851 C 196.246 -0.797719 -3.51153 0
M  V30 1852 C 196.099 -2.2986 -3.86632 0
M  V30 1853 C 197.418 -0.278749 -4.39216 0
M  V30 1854 H 194.537 -0.188314 -0.712535 0
M  V30 1855 H 197.179 -1.11689 -1.53706 0
M  V30 1856 H 195.329 -0.284826 -3.87455 0
M  V30 1857 H 197.001 -2.88042 -3.60319 0
M  V30 1858 H 195.244 -2.76257 -3.34462 0
M  V30 1859 H 195.915 -2.44753 -4.94773 0
M  V30 1860 H 198.391 -0.717825 -4.09862 0
M  V30 1861 H 197.267 -0.506353 -5.46559 0
M  V30 1862 H 197.528 0.820266 -4.34424 0
M  V30 1863 N 196.587 1.43421 -0.653314 0
M  V30 1864 C 197.836 2.01032 -0.164076 0
M  V30 1865 C 198.149 1.52147 1.22926 0
M  V30 1866 O 199.355 2.02031 1.81371 0
M  V30 1867 C 197.811 3.59082 -0.24252 0
M  V30 1868 C 197.419 4.1696 -1.63855 0
M  V30 1869 C 199.163 4.24079 0.18911 0
M  V30 1870 C 197.07 5.67304 -1.67092 0
M  V30 1871 H 196 0.751798 -0.0575769 0
M  V30 1872 H 198.651 1.6439 -0.815362 0
M  V30 1873 H 197.033 3.93125 0.476276 0
M  V30 1874 H 198.207 3.94416 -2.38271 0
M  V30 1875 H 196.522 3.64335 -2.01616 0
M  V30 1876 H 199.119 5.34381 0.184775 0
M  V30 1877 H 199.462 3.98005 1.22056 0
M  V30 1878 H 199.995 3.94918 -0.477938 0
M  V30 1879 H 196.734 5.98145 -2.68146 0
M  V30 1880 H 196.254 5.91904 -0.970014 0
M  V30 1881 H 197.933 6.31344 -1.4147 0
M  V30 1882 N 198.065 0.39524 1.52563 0
M  V30 1883 C 198.975 -0.444232 2.30356 0
M  V30 1884 C 199.991 -1.06615 1.37511 0
M  V30 1885 O 201.167 -1.07067 1.70583 0
M  V30 1886 C 198.232 -1.55315 3.09964 0
M  V30 1887 C 197.293 -0.955734 4.18526 0
M  V30 1888 C 196.526 -2.01181 4.9433 0
M  V30 1889 O 196.749 -3.22781 4.70285 0
M  V30 1890 O 195.683 -1.62579 5.79527 0
M  V30 1891 H 199.509 0.189667 3.03107 0
M  V30 1892 H 197.094 0.1588 1.48554 0
M  V30 1893 H 198.976 -2.19724 3.59582 0
M  V30 1894 H 197.651 -2.17191 2.4002 0
M  V30 1895 H 196.558 -0.274743 3.7309 0
M  V30 1896 H 197.891 -0.381109 4.90722 0
M  V30 1897 N 199.544 -1.57102 0.125237 0
M  V30 1898 C 200.79 -1.95697 -0.532035 0
M  V30 1899 C 201.123 -1.009 -1.6593 0
M  V30 1900 O 200.398 -0.047347 -1.94442 0
M  V30 1901 C 200.681 -3.44181 -1.05884 0
M  V30 1902 C 200.534 -4.49752 0.0654392 0
M  V30 1903 C 201.853 -3.94655 -1.9477 0
M  V30 1904 H 198.972 -0.711571 -0.191925 0
M  V30 1905 H 201.614 -1.88923 0.20206 0
M  V30 1906 H 199.764 -3.50085 -1.68442 0
M  V30 1907 H 201.436 -4.55943 0.700982 0
M  V30 1908 H 199.679 -4.27653 0.727709 0
M  V30 1909 H 200.35 -5.50924 -0.344505 0
M  V30 1910 H 202.826 -3.91094 -1.42074 0
M  V30 1911 H 201.702 -4.99057 -2.28546 0
M  V30 1912 H 201.963 -3.35718 -2.87656 0
M  V30 1913 N 201.022 0.148545 -1.56898 0
M  V30 1914 C 201.952 1.18524 -2.01182 0
M  V30 1915 C 202.933 1.4489 -0.891123 0
M  V30 1916 O 204.118 1.55836 -1.15882 0
M  V30 1917 C 201.248 2.51879 -2.39112 0
M  V30 1918 C 200.202 2.40038 -3.54353 0
M  V30 1919 C 199.528 3.78089 -3.78091 0
M  V30 1920 C 200.828 1.88577 -4.87069 0
M  V30 1921 H 202.522 0.817029 -2.88036 0
M  V30 1922 H 200.068 0.391575 -1.38574 0
M  V30 1923 H 202.021 3.24627 -2.68692 0
M  V30 1924 H 200.745 2.90532 -1.49193 0
M  V30 1925 H 199.404 1.69742 -3.24936 0
M  V30 1926 H 199.052 4.14175 -2.85426 0
M  V30 1927 H 198.752 3.71028 -4.55645 0
M  V30 1928 H 200.276 4.52387 -4.10095 0
M  V30 1929 H 201.69 2.51117 -5.15377 0
M  V30 1930 H 200.087 1.9241 -5.68417 0
M  V30 1931 H 201.157 0.84136 -4.77545 0
M  V30 1932 N 202.5 1.5196 0.417844 0
M  V30 1933 C 203.746 1.65836 1.16732 0
M  V30 1934 C 204.079 0.382881 1.90388 0
M  V30 1935 O 203.354 -0.618368 1.84408 0
M  V30 1936 C 203.637 2.87466 2.16876 0
M  V30 1937 C 203.49 4.25041 1.47174 0
M  V30 1938 C 204.809 3.04613 3.17646 0
M  V30 1939 H 201.928 0.603515 0.423011 0
M  V30 1940 H 204.57 1.84494 0.454105 0
M  V30 1941 H 202.72 2.71689 2.777 0
M  V30 1942 H 204.392 4.52527 0.895376 0
M  V30 1943 H 202.635 4.26843 0.773806 0
M  V30 1944 H 203.306 5.06176 2.20204 0
M  V30 1945 H 205.782 3.1923 2.66892 0
M  V30 1946 H 204.658 3.91247 3.8499 0
M  V30 1947 H 204.919 2.17541 3.84874 0
M  V30 1948 N 203.978 -0.674533 1.42435 0
M  V30 1949 C 204.925 -1.78807 1.45934 0
M  V30 1950 C 205.895 -1.63157 0.311271 0
M  V30 1951 O 207.08 -1.83707 0.515383 0
M  V30 1952 C 204.22 -3.16839 1.36773 0
M  V30 1953 C 203.333 -3.43774 2.61617 0
M  V30 1954 C 202.468 -4.71536 2.44597 0
M  V30 1955 C 201.507 -4.91505 3.64814 0
M  V30 1956 N 200.644 -6.10508 3.46734 0
M  V30 1957 H 205.484 -1.75151 2.41093 0
M  V30 1958 H 203.021 -0.85504 1.19697 0
M  V30 1959 H 204.979 -3.96606 1.29459 0
M  V30 1960 H 203.609 -3.19619 0.452089 0
M  V30 1961 H 202.661 -2.58259 2.79297 0
M  V30 1962 H 203.973 -3.54423 3.50978 0
M  V30 1963 H 203.127 -5.59393 2.3487 0
M  V30 1964 H 201.866 -4.6317 1.52726 0
M  V30 1965 H 200.871 -4.0209 3.74972 0
M  V30 1966 H 202.096 -5.01716 4.57665 0
M  V30 1967 H 200.042 -6.03315 2.5758 0
M  V30 1968 H 199.959 -6.2202 4.29682 0
M  V30 1969 H 201.227 -7.01044 3.40819 0
M  V30 1970 N 205.456 -1.28612 -0.910864 0
M  V30 1971 C 206.419 -1.12803 -1.9952 0
M  V30 1972 C 207.419 -0.0668264 -1.60661 0
M  V30 1973 O 208.609 -0.312847 -1.71368 0
M  V30 1974 C 205.741 -0.72254 -3.33155 0
M  V30 1975 H 206.934 -2.09109 -2.14973 0
M  V30 1976 H 204.487 -1.11639 -1.09391 0
M  V30 1977 H 205.222 0.241152 -3.23402 0
M  V30 1978 H 205.007 -1.48916 -3.62721 0
M  V30 1979 H 206.497 -0.634666 -4.12749 0
M  V30 1980 N 206.934 1.1197 -1.10907 0
M  V30 1981 C 208.182 1.83225 -0.852819 0
M  V30 1982 C 208.503 1.84769 0.623341 0
M  V30 1983 O 207.773 1.3143 1.45269 0
M  V30 1984 H 206.353 0.67849 -0.312507 0
M  V30 1985 H 209.015 1.3556 -1.40033 0
M  V30 1986 H 208.111 2.87265 -1.22005 0
M  V30 1987 N 208.412 0.89855 1.29475 0
M  V30 1988 C 209.689 0.443416 1.90508 0
M  V30 1989 C 210.069 -1.07685 1.81569 0
M  V30 1990 O 209.417 -1.9182 1.24166 0
M  V30 1991 C 209.627 0.956708 3.35631 0
M  V30 1992 C 210.975 0.999728 4.12663 0
M  V30 1993 O 211.999 0.904299 3.4453 0
M  V30 1994 O 210.858 1.14289 5.34416 0
M  V30 1995 H 207.952 0.138025 0.815401 0
M  V30 1996 H 210.498 0.98834 1.37949 0
M  V30 1997 H 209.27 2.00067 3.36287 0
M  V30 1998 H 208.893 0.391728 3.95666 0
M  V30 1999 N 209.89 -1.43072 0.660911 0
M  V30 2000 C 210.822 -2.29108 -0.0647641 0
M  V30 2001 C 211.835 -1.42928 -0.779448 0
M  V30 2002 O 213.024 -1.66788 -0.635921 0
M  V30 2003 C 210.124 -3.20032 -1.11503 0
M  V30 2004 C 209.297 -4.34792 -0.476955 0
M  V30 2005 C 208.356 -5.06534 -1.42513 0
M  V30 2006 O 207.382 -5.61538 -0.930771 0
M  V30 2007 N 208.584 -5.1075 -2.75889 0
M  V30 2008 H 211.349 -2.92029 0.673731 0
M  V30 2009 H 208.91 -1.53846 0.50427 0
M  V30 2010 H 210.902 -3.64892 -1.75032 0
M  V30 2011 H 209.472 -2.58658 -1.75541 0
M  V30 2012 H 208.692 -3.92752 0.337572 0
M  V30 2013 H 209.98 -5.0879 -0.0318525 0
M  V30 2014 H 209.378 -4.67447 -3.18606 0
M  V30 2015 H 207.935 -5.59302 -3.347 0
M  V30 2016 N 211.368 -0.403325 -1.52352 0
M  V30 2017 C 212.614 0.174605 -2.02047 0
M  V30 2018 C 212.947 1.45282 -1.28867 0
M  V30 2019 O 212.222 1.90483 -0.393257 0
M  V30 2020 C 212.505 0.428238 -3.57545 0
M  V30 2021 C 212.358 -0.866248 -4.4138 0
M  V30 2022 C 213.677 1.21287 -4.23057 0
M  V30 2023 H 210.796 0.0619851 -0.734389 0
M  V30 2024 H 213.438 -0.53565 -1.82293 0
M  V30 2025 H 211.588 1.03327 -3.74507 0
M  V30 2026 H 213.26 -1.50265 -4.3614 0
M  V30 2027 H 211.503 -1.47851 -4.07827 0
M  V30 2028 H 212.174 -0.643249 -5.48239 0
M  V30 2029 H 214.65 0.700703 -4.10158 0
M  V30 2030 H 213.526 1.35909 -5.31808 0
M  V30 2031 H 213.787 2.23193 -3.81625 0
M  V30 2032 N 212.846 1.57033 -0.133567 0
M  V30 2033 C 213.778 2.13176 0.841944 0
M  V30 2034 C 214.791 1.07794 1.22001 0
M  V30 2035 O 215.98 1.35117 1.16643 0
M  V30 2036 C 213.08 2.62847 2.13926 0
M  V30 2037 C 212.253 3.92486 1.93064 0
M  V30 2038 C 211.312 4.27605 3.0666 0
M  V30 2039 O 210.338 4.96168 2.78937 0
M  V30 2040 N 211.54 3.861 4.33483 0
M  V30 2041 H 214.305 2.97503 0.362192 0
M  V30 2042 H 211.866 1.61821 0.05042 0
M  V30 2043 H 213.858 2.83363 2.88942 0
M  V30 2044 H 212.428 1.83319 2.53205 0
M  V30 2045 H 211.648 3.80732 1.02159 0
M  V30 2046 H 212.936 4.77225 1.76447 0
M  V30 2047 H 212.334 3.30828 4.58878 0
M  V30 2048 H 210.891 4.11694 5.05323 0
M  V30 2049 N 214.325 -0.140222 1.56975 0
M  V30 2050 C 215.288 -1.15689 1.97861 0
M  V30 2051 C 216.288 -1.3549 0.865974 0
M  V30 2052 O 217.478 -1.32367 1.13246 0
M  V30 2053 C 214.61 -2.51582 2.30042 0
M  V30 2054 H 215.803 -0.805971 2.88867 0
M  V30 2055 H 213.356 -0.383801 1.51515 0
M  V30 2056 H 214.091 -2.91632 1.41849 0
M  V30 2057 H 213.876 -2.38569 3.11171 0
M  V30 2058 H 215.366 -3.24792 2.62488 0
M  V30 2059 N 215.803 -1.52179 -0.40978 0
M  V30 2060 C 216.713 -1.78364 -1.52392 0
M  V30 2061 C 217.729 -0.669183 -1.60617 0
M  V30 2062 O 218.905 -0.954518 -1.77344 0
M  V30 2063 C 215.97 -1.92822 -2.88133 0
M  V30 2064 C 215.031 -3.16725 -2.898 0
M  V30 2065 C 214.264 -3.30483 -4.19067 0
M  V30 2066 O 214.487 -2.49522 -5.12928 0
M  V30 2067 O 213.421 -4.2363 -4.27576 0
M  V30 2068 H 217.247 -2.72931 -1.33201 0
M  V30 2069 H 214.832 -1.37016 -0.59557 0
M  V30 2070 H 216.714 -2.04157 -3.68643 0
M  V30 2071 H 215.389 -1.01444 -3.07393 0
M  V30 2072 H 214.296 -3.10848 -2.08146 0
M  V30 2073 H 215.629 -4.07881 -2.75489 0
M  V30 2074 N 217.281 0.66697 -1.42791 0
M  V30 2075 C 218.213 1.7925 -1.42836 0
M  V30 2076 C 219.226 1.59496 -0.326333 0
M  V30 2077 O 220.415 1.6847 -0.589916 0
M  V30 2078 C 217.515 3.16476 -1.21229 0
M  V30 2079 C 216.688 3.63011 -2.44013 0
M  V30 2080 C 215.747 4.78993 -2.17834 0
M  V30 2081 O 214.773 4.89137 -2.91091 0
M  V30 2082 N 215.975 5.68248 -1.18635 0
M  V30 2083 H 218.74 1.79695 -2.39854 0
M  V30 2084 H 216.301 0.850338 -1.37771 0
M  V30 2085 H 218.293 3.91734 -1.01621 0
M  V30 2086 H 216.863 3.10884 -0.32706 0
M  V30 2087 H 216.083 2.78346 -2.79137 0
M  V30 2088 H 217.371 3.90845 -3.25757 0
M  V30 2089 H 216.769 5.62712 -0.580615 0
M  V30 2090 H 215.326 6.43285 -1.05013 0
M  V30 2091 N 218.759 1.29093 0.90403 0
M  V30 2092 C 219.984 1.19809 1.69294 0
M  V30 2093 C 220.409 -0.238481 1.86582 0
M  V30 2094 O 219.767 -1.1723 1.383 0
M  V30 2095 C 219.815 1.91202 3.05736 0
M  V30 2096 O 218.919 1.22611 3.93752 0
M  V30 2097 H 218.26 0.415385 0.518027 0
M  V30 2098 H 220.79 1.70586 1.12967 0
M  V30 2099 H 220.8 1.99487 3.55906 0
M  V30 2100 H 219.475 2.95692 2.92471 0
M  V30 2101 H 218.052 1.22554 3.52186 0
M  V30 2102 N 220.237 -1.11381 1.11499 0
M  V30 2103 C 221.167 -2.19509 0.796125 0
M  V30 2104 C 222.148 -1.68458 -0.235796 0
M  V30 2105 O 223.333 -1.93947 -0.0991344 0
M  V30 2106 C 220.463 -3.46475 0.239205 0
M  V30 2107 C 219.417 -4.10744 1.20307 0
M  V30 2108 C 218.743 -5.32293 0.50683 0
M  V30 2109 C 220.043 -4.55597 2.55399 0
M  V30 2110 H 221.737 -2.46439 1.70024 0
M  V30 2111 H 219.283 -1.18446 0.818935 0
M  V30 2112 H 221.236 -4.214 0.00392006 0
M  V30 2113 H 219.96 -3.19006 -0.700206 0
M  V30 2114 H 218.619 -3.37813 1.42399 0
M  V30 2115 H 218.267 -5.01095 -0.437408 0
M  V30 2116 H 217.967 -5.76243 1.1497 0
M  V30 2117 H 219.491 -6.09956 0.280351 0
M  V30 2118 H 220.905 -5.21841 2.37391 0
M  V30 2119 H 219.302 -5.10363 3.15673 0
M  V30 2120 H 220.372 -3.69013 3.14575 0
M  V30 2121 N 221.715 -0.905404 -1.28997 0
M  V30 2122 C 222.964 -0.530191 -1.94607 0
M  V30 2123 C 223.277 0.929185 -1.72121 0
M  V30 2124 O 224.483 1.41218 -2.31883 0
M  V30 2125 C 222.939 -0.897333 -3.48534 0
M  V30 2126 C 222.547 -2.37587 -3.79811 0
M  V30 2127 C 224.291 -0.592304 -4.20347 0
M  V30 2128 C 222.198 -2.68357 -5.27009 0
M  V30 2129 H 221.128 -0.194558 -0.728466 0
M  V30 2130 H 223.779 -1.10318 -1.46636 0
M  V30 2131 H 222.161 -0.253214 -3.9519 0
M  V30 2132 H 223.335 -3.06602 -3.43994 0
M  V30 2133 H 221.65 -2.6505 -3.2115 0
M  V30 2134 H 224.247 -0.798975 -5.28697 0
M  V30 2135 H 224.59 0.469474 -4.13644 0
M  V30 2136 H 225.123 -1.19452 -3.79442 0
M  V30 2137 H 221.862 -3.73355 -5.38782 0
M  V30 2138 H 221.382 -2.03971 -5.64053 0
M  V30 2139 H 223.061 -2.54922 -5.94663 0
M  V30 2140 N 223.193 1.4272 -0.668489 0
M  V30 2141 C 224.439 2.01923 -0.188419 0
M  V30 2142 C 224.772 1.52704 1.19979 0
M  V30 2143 O 224.047 0.726566 1.8042 0
M  V30 2144 C 224.33 3.59451 -0.216085 0
M  V30 2145 C 224.183 4.18864 -1.6393 0
M  V30 2146 C 225.502 4.37903 0.439179 0
M  V30 2147 H 222.621 0.733674 -0.0699412 0
M  V30 2148 H 225.263 1.69822 -0.852076 0
M  V30 2149 H 223.413 3.86929 0.349012 0
M  V30 2150 H 225.085 4.02362 -2.25616 0
M  V30 2151 H 223.328 3.74933 -2.18193 0
M  V30 2152 H 223.999 5.27987 -1.61039 0
M  V30 2153 H 226.475 4.16079 -0.0417878 0
M  V30 2154 H 225.351 5.47519 0.389157 0
M  V30 2155 H 225.612 4.15303 1.51577 0
M  V30 2156 N 224.671 0.411399 1.52136 0
M  V30 2157 C 225.601 -0.404015 2.29978 0
M  V30 2158 C 226.582 -1.04412 1.34284 0
M  V30 2159 O 227.767 -1.0527 1.63192 0
M  V30 2160 C 224.897 -1.5197 3.12286 0
M  V30 2161 C 223.851 -1.00448 4.16046 0
M  V30 2162 C 223.177 -2.21393 4.86712 0
M  V30 2163 C 224.477 -0.0569336 5.22269 0
M  V30 2164 H 226.171 0.245529 2.98392 0
M  V30 2165 H 223.717 0.119525 1.43503 0
M  V30 2166 H 225.67 -2.09715 3.6551 0
M  V30 2167 H 224.394 -2.19716 2.41646 0
M  V30 2168 H 223.053 -0.449421 3.63835 0
M  V30 2169 H 222.701 -2.87699 4.12599 0
M  V30 2170 H 222.401 -1.87571 5.56858 0
M  V30 2171 H 223.925 -2.7974 5.4275 0
M  V30 2172 H 225.339 -0.54325 5.7072 0
M  V30 2173 H 223.736 0.192594 5.99791 0
M  V30 2174 H 224.806 0.887663 4.76706 0
M  V30 2175 N 226.149 -1.5696 0.141893 0
M  V30 2176 C 227.059 -2.20066 -0.812905 0
M  V30 2177 C 228.075 -1.18344 -1.27557 0
M  V30 2178 O 229.251 -1.50902 -1.33381 0
M  V30 2179 C 226.316 -2.80583 -2.03652 0
M  V30 2180 C 225.377 -3.97414 -1.62359 0
M  V30 2181 C 224.61 -4.55036 -2.78887 0
M  V30 2182 O 224.833 -4.11538 -3.94959 0
M  V30 2183 O 223.767 -5.45376 -2.54653 0
M  V30 2184 H 227.593 -3.02157 -0.305746 0
M  V30 2185 H 225.178 -1.49159 -0.0848799 0
M  V30 2186 H 227.06 -3.19067 -2.75272 0
M  V30 2187 H 225.735 -2.01508 -2.5333 0
M  V30 2188 H 224.642 -3.63656 -0.877775 0
M  V30 2189 H 225.975 -4.77994 -1.17401 0
M  V30 2190 N 227.627 0.131896 -1.57047 0
M  V30 2191 C 228.852 0.860418 -1.8871 0
M  V30 2192 C 229.277 1.73251 -0.73251 0
M  V30 2193 O 228.635 1.785 0.317429 0
M  V30 2194 C 228.683 1.68047 -3.19049 0
M  V30 2195 O 227.787 2.7862 -3.04047 0
M  V30 2196 H 227.128 0.238743 -0.619595 0
M  V30 2197 H 229.658 0.118169 -2.04258 0
M  V30 2198 H 229.668 2.07238 -3.51449 0
M  V30 2199 H 228.343 1.04018 -4.02682 0
M  V30 2200 H 226.92 2.42726 -2.83088 0
M  V30 2201 N 229.106 1.52395 0.401703 0
M  V30 2202 C 230.383 1.57387 1.16141 0
M  V30 2203 C 230.763 0.359359 2.08019 0
M  V30 2204 O 230.111 -0.65326 2.18963 0
M  V30 2205 C 230.321 2.90631 1.93221 0
M  V30 2206 C 231.669 3.43904 2.49028 0
M  V30 2207 O 232.693 2.92421 2.03393 0
M  V30 2208 O 231.552 4.33823 3.32356 0
M  V30 2209 H 228.646 0.634262 0.530698 0
M  V30 2210 H 231.192 1.64725 0.407883 0
M  V30 2211 H 229.964 3.70473 1.25958 0
M  V30 2212 H 229.587 2.8662 2.75563 0
M  V30 2213 N 230.584 -0.659388 1.43143 0
M  V30 2214 C 231.531 -1.77249 1.47822 0
M  V30 2215 C 232.501 -1.62818 0.328558 0
M  V30 2216 O 233.686 -1.83151 0.534838 0
M  V30 2217 C 230.826 -3.15371 1.40126 0
M  V30 2218 C 229.939 -3.4098 2.65249 0
M  V30 2219 C 229.074 -4.68915 2.49584 0
M  V30 2220 C 228.113 -4.87608 3.70006 0
M  V30 2221 N 227.25 -6.06796 3.53189 0
M  V30 2222 H 232.09 -1.72584 2.42938 0
M  V30 2223 H 229.627 -0.842297 1.20598 0
M  V30 2224 H 231.585 -3.9521 1.33659 0
M  V30 2225 H 230.215 -3.19121 0.485964 0
M  V30 2226 H 229.267 -2.55282 2.8202 0
M  V30 2227 H 230.579 -3.50681 3.54717 0
M  V30 2228 H 229.733 -5.56871 2.4079 0
M  V30 2229 H 228.472 -4.61524 1.5763 0
M  V30 2230 H 227.477 -3.9809 3.79215 0
M  V30 2231 H 228.702 -4.96834 4.62961 0
M  V30 2232 H 226.648 -6.00549 2.63965 0
M  V30 2233 H 226.565 -6.17428 4.36255 0
M  V30 2234 H 227.833 -6.9739 3.48236 0
M  V30 2235 N 232.062 -1.29571 -0.897171 0
M  V30 2236 C 233.025 -1.14913 -1.98312 0
M  V30 2237 C 234.025 -0.0838629 -1.60581 0
M  V30 2238 O 235.215 -0.331006 -1.71026 0
M  V30 2239 C 232.347 -0.757835 -3.3237 0
M  V30 2240 H 233.54 -2.11377 -2.12743 0
M  V30 2241 H 231.093 -1.12793 -1.08201 0
M  V30 2242 H 231.828 0.206837 -3.2364 0
M  V30 2243 H 231.613 -1.52755 -3.61121 0
M  V30 2244 H 233.103 -0.678408 -4.12053 0
M  V30 2245 N 233.54 1.10788 -1.12088 0
M  V30 2246 C 234.765 1.87002 -0.896949 0
M  V30 2247 C 235.19 1.79933 0.548261 0
M  V30 2248 O 234.548 1.16662 1.38779 0
M  V30 2249 C 234.596 3.3349 -1.37174 0
M  V30 2250 O 233.7 4.08745 -0.547831 0
M  V30 2251 H 233.041 0.580397 -0.322545 0
M  V30 2252 H 235.571 1.39996 -1.49206 0
M  V30 2253 H 235.581 3.84339 -1.36922 0
M  V30 2254 H 234.256 3.37951 -2.42408 0
M  V30 2255 H 232.833 3.6776 -0.617034 0
M  V30 2256 N 235.018 0.912232 1.28515 0
M  V30 2257 C 235.951 0.343928 2.25593 0
M  V30 2258 C 236.929 -0.550994 1.5298 0
M  V30 2259 O 238.113 -0.494991 1.81885 0
M  V30 2260 C 235.24 -0.508525 3.34861 0
M  V30 2261 C 234.286 0.320808 4.25292 0
M  V30 2262 S 235.119 1.72658 5.06902 0
M  V30 2263 C 236.275 0.881394 6.19663 0
M  V30 2264 H 236.508 1.16674 2.73449 0
M  V30 2265 H 234.041 0.713384 1.36931 0
M  V30 2266 H 235.999 -0.994539 3.9827 0
M  V30 2267 H 234.66 -1.30571 2.85675 0
M  V30 2268 H 233.853 -0.330941 5.02912 0
M  V30 2269 H 233.455 0.74042 3.66598 0
M  V30 2270 H 235.747 0.110359 6.7741 0
M  V30 2271 H 236.69 1.63009 6.89082 0
M  V30 2272 H 237.098 0.430239 5.62858 0
M  V30 2273 N 236.496 -1.42363 0.676048 0
M  V30 2274 C 237.406 -2.346 -0.00153389 0
M  V30 2275 C 238.422 -1.5516 -0.787485 0
M  V30 2276 O 239.598 -1.87723 -0.729521 0
M  V30 2277 C 236.663 -3.33705 -0.940298 0
M  V30 2278 C 235.724 -4.29042 -0.148739 0
M  V30 2279 C 234.957 -5.23413 -1.04279 0
M  V30 2280 O 235.18 -5.22749 -2.28232 0
M  V30 2281 O 234.114 -5.99795 -0.502925 0
M  V30 2282 H 237.94 -2.94082 0.758268 0
M  V30 2283 H 235.525 -1.42888 0.436289 0
M  V30 2284 H 237.407 -3.94586 -1.47917 0
M  V30 2285 H 236.082 -2.76695 -1.67993 0
M  V30 2286 H 234.989 -3.71571 0.43427 0
M  V30 2287 H 236.322 -4.89097 0.551805 0
M  V30 2288 N 237.974 -0.419461 -1.51915 0
M  V30 2289 C 239.223 0.154346 -2.01109 0
M  V30 2290 C 239.536 1.45338 -1.30905 0
M  V30 2291 O 240.742 2.10906 -1.7097 0
M  V30 2292 C 239.198 0.325615 -3.58424 0
M  V30 2293 C 238.806 -0.961934 -4.37551 0
M  V30 2294 C 240.55 0.854155 -4.15818 0
M  V30 2295 C 238.457 -0.757287 -5.86531 0
M  V30 2296 H 237.387 0.0614563 -0.751491 0
M  V30 2297 H 240.038 -0.54649 -1.75173 0
M  V30 2298 H 238.42 1.08903 -3.80731 0
M  V30 2299 H 239.594 -1.7323 -4.26999 0
M  V30 2300 H 237.909 -1.41766 -3.91524 0
M  V30 2301 H 240.506 1.02346 -5.24814 0
M  V30 2302 H 240.849 1.83172 -3.73837 0
M  V30 2303 H 241.382 0.149528 -3.97519 0
M  V30 2304 H 238.121 -1.70671 -6.32892 0
M  V30 2305 H 237.641 -0.0264061 -5.99794 0
M  V30 2306 H 239.32 -0.403482 -6.45741 0
M  V30 2307 N 239.452 1.56882 -0.150215 0
M  V30 2308 C 240.863 1.82995 0.370076 0
M  V30 2309 C 241.214 1.06907 1.64515 0
M  V30 2310 O 240.339 0.315369 2.1409 0
M  V30 2311 C 240.934 3.31942 0.678208 0
M  V30 2312 C 239.493 3.58625 1.14301 0
M  V30 2313 C 238.64 2.76792 0.167778 0
M  V30 2314 H 241.591 1.54209 -0.374858 0
M  V30 2315 H 241.612 3.48272 1.53254 0
M  V30 2316 H 241.124 3.87294 -0.249991 0
M  V30 2317 H 239.225 3.08664 2.08704 0
M  V30 2318 H 239.338 4.67073 1.06676 0
M  V30 2319 H 237.702 2.45972 0.661037 0
M  V30 2320 H 238.485 3.34916 -0.754069 0
M  V30 2321 N 240.93 -0.123565 1.57115 0
M  V30 2322 C 242.155 -0.850398 1.89164 0
M  V30 2323 C 242.58 -1.7286 0.741688 0
M  V30 2324 O 241.938 -1.78665 -0.307958 0
M  V30 2325 C 241.986 -1.66353 3.19936 0
M  V30 2326 O 241.09 -2.77004 3.0552 0
M  V30 2327 H 240.431 -0.235454 0.620852 0
M  V30 2328 H 242.961 -0.107335 2.04318 0
M  V30 2329 H 242.971 -2.05372 3.52543 0
M  V30 2330 H 241.646 -1.01881 4.03228 0
M  V30 2331 H 240.223 -2.41221 2.84371 0
M  V30 2332 N 242.408 -1.52605 -0.393616 0
M  V30 2333 C 243.819 -1.59417 -0.971761 0
M  V30 2334 C 244.17 -0.444173 -1.91106 0
M  V30 2335 O 243.295 0.433382 -2.12016 0
M  V30 2336 C 243.89 -2.88936 -1.76921 0
M  V30 2337 C 242.449 -2.98175 -2.29714 0
M  V30 2338 C 241.596 -2.54491 -1.10135 0
M  V30 2339 H 244.547 -1.57751 -0.173317 0
M  V30 2340 H 244.568 -2.75163 -2.62804 0
M  V30 2341 H 244.08 -3.72616 -1.08532 0
M  V30 2342 H 242.181 -2.19024 -3.01429 0
M  V30 2343 H 242.294 -4.02726 -2.59517 0
M  V30 2344 H 240.658 -2.08702 -1.45999 0
M  V30 2345 H 241.441 -3.4056 -0.432874 0
M  V30 2346 N 243.887 0.651787 -1.4349 0
M  V30 2347 C 244.85 1.74647 -1.48429 0
M  V30 2348 C 245.85 1.56513 -0.368817 0
M  V30 2349 O 247.04 1.62385 -0.630623 0
M  V30 2350 C 244.172 3.13533 -1.33827 0
M  V30 2351 H 245.365 1.71649 -2.4592 0
M  V30 2352 H 242.918 0.863573 -1.30277 0
M  V30 2353 H 243.653 3.22142 -0.37349 0
M  V30 2354 H 243.438 3.28101 -2.14691 0
M  V30 2355 H 244.928 3.93356 -1.40218 0
M  V30 2356 N 245.365 1.30045 0.890287 0
M  V30 2357 C 246.59 1.21598 1.68014 0
M  V30 2358 C 247.015 -0.218678 1.86825 0
M  V30 2359 O 246.373 -1.15756 1.39536 0
M  V30 2360 C 246.421 1.94434 3.03691 0
M  V30 2361 O 245.525 1.2678 3.92429 0
M  V30 2362 H 244.866 0.420856 0.513592 0
M  V30 2363 H 247.396 1.71775 1.11151 0
M  V30 2364 H 247.406 2.03251 3.5377 0
M  V30 2365 H 246.081 2.98777 2.89318 0
M  V30 2366 H 244.658 1.26282 3.50866 0
M  V30 2367 N 246.843 -1.10192 1.12674 0
M  V30 2368 C 248.091 -1.81845 0.881861 0
M  V30 2369 C 248.412 -1.85737 -0.593867 0
M  V30 2370 O 247.682 -1.33724 -1.4316 0
M  V30 2371 H 246.262 -0.673432 0.323261 0
M  V30 2372 H 248.924 -1.33316 1.42172 0
M  V30 2373 H 248.02 -2.85288 1.2656 0
M  V30 2374 N 248.321 -0.919034 -1.28029 0
M  V30 2375 C 249.567 -0.555757 -1.95036 0
M  V30 2376 C 249.9 0.899198 -1.72128 0
M  V30 2377 O 249.175 1.64023 -1.04531 0
M  V30 2378 C 249.458 -0.872024 -3.49382 0
M  V30 2379 C 249.311 -2.3801 -3.81669 0
M  V30 2380 C 250.63 -0.37185 -4.38526 0
M  V30 2381 H 247.749 -0.203386 -0.708381 0
M  V30 2382 H 250.391 -1.14924 -1.51303 0
M  V30 2383 H 248.541 -0.366946 -3.86763 0
M  V30 2384 H 250.213 -2.9562 -3.54128 0
M  V30 2385 H 248.456 -2.83289 -3.28526 0
M  V30 2386 H 249.127 -2.55192 -4.8947 0
M  V30 2387 H 251.603 -0.804602 -4.08247 0
M  V30 2388 H 250.479 -0.622173 -5.45362 0
M  V30 2389 H 250.74 0.727934 -4.36066 0
M  V30 2390 N 249.799 1.42003 -0.683588 0
M  V30 2391 C 251.045 2.01712 -0.209825 0
M  V30 2392 C 251.378 1.53968 1.18353 0
M  V30 2393 O 250.653 0.745661 1.79639 0
M  V30 2394 C 250.936 3.59202 -0.254197 0
M  V30 2395 C 250.789 4.17102 -1.68363 0
M  V30 2396 C 252.108 4.38344 0.392709 0
M  V30 2397 H 249.227 0.732891 -0.0777189 0
M  V30 2398 H 251.869 1.68909 -0.87004 0
M  V30 2399 H 250.019 3.87278 0.307954 0
M  V30 2400 H 251.691 3.99946 -2.29871 0
M  V30 2401 H 249.934 3.72597 -2.22157 0
M  V30 2402 H 250.605 5.26249 -1.6663 0
M  V30 2403 H 253.081 4.16011 -0.0859162 0
M  V30 2404 H 251.957 5.47901 0.331063 0
M  V30 2405 H 252.218 4.16887 1.47164 0
M  V30 2406 N 251.277 0.427512 1.51691 0
M  V30 2407 C 252.187 -0.39527 2.31246 0
M  V30 2408 C 253.203 -1.03674 1.39742 0
M  V30 2409 O 254.379 -1.03425 1.72816 0
M  V30 2410 C 251.444 -1.48706 3.13189 0
M  V30 2411 C 250.505 -0.866743 4.20459 0
M  V30 2412 C 249.738 -1.90651 4.98486 0
M  V30 2413 O 249.961 -3.12733 4.77026 0
M  V30 2414 O 248.895 -1.5025 5.82845 0
M  V30 2415 H 252.721 0.253918 3.02637 0
M  V30 2416 H 250.306 0.190274 1.48183 0
M  V30 2417 H 252.188 -2.12047 3.64162 0
M  V30 2418 H 250.863 -2.12051 2.44573 0
M  V30 2419 H 249.77 -0.195544 3.73589 0
M  V30 2420 H 251.103 -0.276934 4.9142 0
M  V30 2421 N 252.755 -1.56801 0.158532 0
M  V30 2422 C 253.98 -2.01295 -0.499516 0
M  V30 2423 C 254.405 -1.03799 -1.56867 0
M  V30 2424 O 253.763 -0.0155162 -1.81293 0
M  V30 2425 C 253.811 -3.44469 -1.06647 0
M  V30 2426 O 252.915 -3.50012 -2.18095 0
M  V30 2427 H 252.256 -0.652884 -0.12099 0
M  V30 2428 H 254.786 -2.02958 0.258661 0
M  V30 2429 H 254.796 -3.8351 -1.39227 0
M  V30 2430 H 253.471 -4.14932 -0.283581 0
M  V30 2431 H 252.048 -3.22822 -1.86656 0
M  V30 2432 N 254.233 0.115231 -1.57178 0
M  V30 2433 C 255.479 0.82357 -1.85325 0
M  V30 2434 C 255.812 1.79349 -0.744814 0
M  V30 2435 O 255.087 1.92899 0.249024 0
M  V30 2436 C 255.37 1.57014 -3.24066 0
M  V30 2437 C 255.223 0.619565 -4.45513 0
M  V30 2438 C 256.542 2.52545 -3.60429 0
M  V30 2439 H 253.661 0.297948 -0.674089 0
M  V30 2440 H 256.303 0.0877138 -1.89797 0
M  V30 2441 H 254.453 2.19742 -3.20383 0
M  V30 2442 H 256.125 0.000837639 -4.613 0
M  V30 2443 H 254.368 -0.0686174 -4.33746 0
M  V30 2444 H 255.039 1.17866 -5.3927 0
M  V30 2445 H 257.515 1.9992 -3.64926 0
M  V30 2446 H 256.391 3.01811 -4.58477 0
M  V30 2447 H 256.652 3.35383 -2.88047 0
M  V30 2448 N 255.711 1.52812 0.385517 0
M  V30 2449 C 256.674 1.77188 1.45386 0
M  V30 2450 C 257.674 0.641953 1.4743 0
M  V30 2451 O 258.864 0.910033 1.4854 0
M  V30 2452 C 255.996 1.87582 2.8465 0
M  V30 2453 H 257.189 2.72583 1.25054 0
M  V30 2454 H 254.742 1.43586 0.617467 0
M  V30 2455 H 255.477 0.941849 3.10322 0
M  V30 2456 H 255.262 2.69748 2.84567 0
M  V30 2457 H 256.752 2.08102 3.62054 0
M  V30 2458 N 257.189 -0.644168 1.43834 0
M  V30 2459 C 258.438 -1.39985 1.45214 0
M  V30 2460 C 258.751 -1.95421 0.0835494 0
M  V30 2461 O 259.957 -2.71488 -0.0251748 0
M  V30 2462 C 258.413 -2.53384 2.55587 0
M  V30 2463 C 258.021 -2.04517 3.98594 0
M  V30 2464 C 259.765 -3.30685 2.66172 0
M  V30 2465 C 257.672 -3.1518 5.00416 0
M  V30 2466 H 256.602 -0.526005 0.540218 0
M  V30 2467 H 259.253 -0.694367 1.69855 0
M  V30 2468 H 257.635 -3.26446 2.24163 0
M  V30 2469 H 258.809 -1.38405 4.39523 0
M  V30 2470 H 257.124 -1.40068 3.92135 0
M  V30 2471 H 259.721 -4.13158 3.39418 0
M  V30 2472 H 260.064 -3.79312 1.71546 0
M  V30 2473 H 260.597 -2.64708 2.96942 0
M  V30 2474 H 257.336 -2.71511 5.96625 0
M  V30 2475 H 256.856 -3.79974 4.64091 0
M  V30 2476 H 258.535 -3.80166 5.23529 0
M  V30 2477 N 258.668 -1.30515 -0.883378 0
M  V30 2478 C 259.6 -1.12846 -1.99496 0
M  V30 2479 C 260.613 -0.0712571 -1.62644 0
M  V30 2480 O 261.802 -0.317432 -1.75655 0
M  V30 2481 C 258.902 -0.699123 -3.3161 0
M  V30 2482 C 258.075 -1.83842 -3.96889 0
M  V30 2483 C 257.134 -1.39737 -5.07307 0
M  V30 2484 O 256.16 -2.10485 -5.28852 0
M  V30 2485 N 257.362 -0.277279 -5.79837 0
M  V30 2486 H 260.127 -2.08585 -2.15203 0
M  V30 2487 H 257.688 -1.22672 -1.05656 0
M  V30 2488 H 259.68 -0.387044 -4.02845 0
M  V30 2489 H 258.25 0.166276 -3.12157 0
M  V30 2490 H 257.47 -2.31853 -3.18807 0
M  V30 2491 H 258.758 -2.60187 -4.37241 0
M  V30 2492 H 258.156 0.3122 -5.64838 0
M  V30 2493 H 256.713 -0.0246623 -6.51795 0
M  V30 2494 N 260.146 1.09593 -1.13257 0
M  V30 2495 C 261.076 2.18214 -0.830946 0
M  V30 2496 C 262.057 1.68812 0.208966 0
M  V30 2497 O 263.242 1.9408 0.0682666 0
M  V30 2498 C 260.372 3.46051 -0.294296 0
M  V30 2499 C 259.326 4.08778 -1.26826 0
M  V30 2500 C 258.652 5.31419 -0.591449 0
M  V30 2501 C 259.952 4.51476 -2.62615 0
M  V30 2502 H 261.646 2.43703 -1.73923 0
M  V30 2503 H 259.192 1.17128 -0.837675 0
M  V30 2504 H 261.145 4.2134 -0.0709606 0
M  V30 2505 H 259.869 3.20079 0.649366 0
M  V30 2506 H 258.528 3.35505 -1.47756 0
M  V30 2507 H 258.176 5.01727 0.357633 0
M  V30 2508 H 257.876 5.74341 -1.24123 0
M  V30 2509 H 259.4 6.09433 -0.377355 0
M  V30 2510 H 260.814 5.17999 -2.45663 0
M  V30 2511 H 259.211 5.05277 -3.23752 0
M  V30 2512 H 260.281 3.63962 -3.20406 0
M  V30 2513 N 261.624 0.925811 1.2754 0
M  V30 2514 C 262.572 0.413897 2.28888 0
M  V30 2515 C 263.566 -0.500779 1.61829 0
M  V30 2516 O 264.772 -0.38069 1.75928 0
M  V30 2517 H 261.147 0.115274 0.743112 0
M  V30 2518 H 263.118 1.28151 2.69481 0
M  V30 2519 C 261.867 -0.319792 3.46226 0
M  V30 2520 H 261.19 0.374846 3.98039 0
M  V30 2521 H 262.63 -0.642435 4.19105 0
M  V30 2522 C 261.089 -1.53209 3.00048 0
M  V30 2523 O 261.619 -2.6309 3.03557 0
M  V30 2524 N 259.825 -1.38326 2.55566 0
M  V30 2525 H 259.372 -0.489292 2.5291 0
M  V30 2526 H 259.33 -2.19564 2.25031 0
M  V30 2527 N 263.102 -1.41638 0.69111 0
M  V30 2528 C 264.065 -2.29178 0.0319786 0
M  V30 2529 C 265.065 -1.44153 -0.712496 0
M  V30 2530 O 266.255 -1.65354 -0.548053 0
M  V30 2531 C 263.387 -3.26952 -0.965161 0
M  V30 2532 H 264.58 -2.88959 0.802681 0
M  V30 2533 H 262.133 -1.4955 0.454356 0
M  V30 2534 H 262.868 -2.72142 -1.76378 0
M  V30 2535 H 262.653 -3.89685 -0.434522 0
M  V30 2536 H 264.143 -3.92561 -1.42428 0
M  V30 2537 N 264.58 -0.43555 -1.51462 0
M  V30 2538 C 265.49 0.383001 -2.31453 0
M  V30 2539 C 266.506 1.02931 -1.4029 0
M  V30 2540 O 267.682 1.02507 -1.73362 0
M  V30 2541 C 264.747 1.47043 -3.13973 0
M  V30 2542 C 263.808 0.844433 -4.20913 0
M  V30 2543 C 263.041 1.88004 -4.9949 0
M  V30 2544 O 263.264 3.10199 -4.78678 0
M  V30 2545 O 262.198 1.47157 -5.83634 0
M  V30 2546 H 266.024 -0.269964 -3.02498 0
M  V30 2547 H 263.609 -0.19813 -1.4808 0
M  V30 2548 H 265.491 2.10113 -3.65281 0
M  V30 2549 H 264.166 2.10751 -2.45695 0
M  V30 2550 H 263.073 0.175729 -3.73687 0
M  V30 2551 H 264.406 0.250869 -4.9156 0
M  V30 2552 N 266.058 1.56714 -0.166846 0
M  V30 2553 C 267.304 1.97039 0.479962 0
M  V30 2554 C 267.637 1.05264 1.63197 0
M  V30 2555 O 266.912 0.0988833 1.94248 0
M  V30 2556 C 267.195 3.46867 0.967212 0
M  V30 2557 C 267.048 4.49421 -0.18466 0
M  V30 2558 C 268.367 3.9968 1.84238 0
M  V30 2559 H 265.486 0.71641 0.172992 0
M  V30 2560 H 268.128 1.8832 -0.252079 0
M  V30 2561 H 266.278 3.54428 1.59101 0
M  V30 2562 H 267.95 4.53924 -0.821621 0
M  V30 2563 H 266.193 4.25573 -0.840837 0
M  V30 2564 H 266.864 5.51644 0.198317 0
M  V30 2565 H 269.34 3.94723 1.31655 0
M  V30 2566 H 268.216 5.04941 2.15234 0
M  V30 2567 H 268.477 3.43226 2.78654 0
M  V30 2568 N 267.536 -0.106894 1.57237 0
M  V30 2569 C 268.784 -0.810921 1.85117 0
M  V30 2570 C 269.105 -1.7984 0.753827 0
M  V30 2571 O 268.375 -1.94649 -0.221056 0
M  V30 2572 H 266.955 -0.302466 0.683025 0
M  V30 2573 H 269.617 -0.0913324 1.94686 0
M  V30 2574 H 268.713 -1.34875 2.81452 0
M  V30 2575 N 269.014 -1.53014 -0.377408 0
M  V30 2576 C 270.242 -1.72515 -1.14219 0
M  V30 2577 C 270.657 -0.448735 -1.8339 0
M  V30 2578 O 270.014 0.577592 -1.73119 0
M  V30 2579 C 270.065 -2.8826 -2.18148 0
M  V30 2580 O 269.786 -4.10962 -1.51795 0
M  V30 2581 C 271.287 -3.19536 -3.07264 0
M  V30 2582 H 268.507 -0.577301 -0.342001 0
M  V30 2583 H 271.051 -1.99712 -0.439935 0
M  V30 2584 H 269.206 -2.63492 -2.83991 0
M  V30 2585 H 269.62 -4.75693 -2.20945 0
M  V30 2586 H 271.094 -4.03959 -3.76193 0
M  V30 2587 H 271.571 -2.34403 -3.71419 0
M  V30 2588 H 272.177 -3.46186 -2.47053 0
M  V30 2589 N 270.492 0.636531 -1.44174 0
M  V30 2590 C 271.74 1.39343 -1.46383 0
M  V30 2591 C 272.061 1.94766 -0.0955715 0
M  V30 2592 O 271.331 1.75452 0.871395 0
M  V30 2593 H 269.911 0.517199 -0.538994 0
M  V30 2594 H 272.573 0.74957 -1.7991 0
M  V30 2595 H 271.669 2.22746 -2.18611 0
M  V30 2596 N 271.97 1.30982 0.876444 0
M  V30 2597 C 273.247 1.10942 1.61094 0
M  V30 2598 C 273.627 -0.338223 2.08373 0
M  V30 2599 O 272.975 -1.33122 1.85717 0
M  V30 2600 C 273.185 2.11789 2.77392 0
M  V30 2601 C 274.533 2.43965 3.47514 0
M  V30 2602 O 275.557 2.10166 2.87591 0
M  V30 2603 O 274.416 3.01817 4.55597 0
M  V30 2604 H 271.51 0.42667 0.708436 0
M  V30 2605 H 274.056 1.42438 0.922474 0
M  V30 2606 H 272.828 3.09194 2.39823 0
M  V30 2607 H 272.451 1.81161 3.5393 0
M  V30 2608 N 273.449 -1.08991 1.13837 0
M  V30 2609 C 274.379 -2.17771 0.842507 0
M  V30 2610 C 275.36 -1.6892 -0.20001 0
M  V30 2611 O 276.545 -1.94113 -0.0579731 0
M  V30 2612 C 273.675 -3.4589 0.312644 0
M  V30 2613 C 272.629 -4.08099 1.28992 0
M  V30 2614 C 271.955 -5.31098 0.619623 0
M  V30 2615 C 273.255 -4.50077 2.65005 0
M  V30 2616 H 274.949 -2.42777 1.75213 0
M  V30 2617 H 272.495 -1.16682 0.843875 0
M  V30 2618 H 274.448 -4.21297 0.0933043 0
M  V30 2619 H 273.172 -3.20419 -0.632382 0
M  V30 2620 H 271.831 -3.34717 1.49533 0
M  V30 2621 H 271.479 -5.0191 -0.33102 0
M  V30 2622 H 271.179 -5.73674 1.27167 0
M  V30 2623 H 272.703 -6.09224 0.409669 0
M  V30 2624 H 274.117 -5.16688 2.48407 0
M  V30 2625 H 272.514 -5.03553 3.26427 0
M  V30 2626 H 273.584 -3.62257 3.22332 0
M  V30 2627 N 274.927 -0.932562 -1.27047 0
M  V30 2628 C 276.176 -0.571351 -1.93439 0
M  V30 2629 C 276.489 0.892467 -1.74053 0
M  V30 2630 O 277.695 1.36267 -2.34826 0
M  V30 2631 C 276.151 -0.97106 -3.46552 0
M  V30 2632 C 275.759 -2.4559 -3.74686 0
M  V30 2633 C 277.503 -0.681333 -4.18997 0
M  V30 2634 C 275.41 -2.79475 -5.21198 0
M  V30 2635 H 274.34 -0.209966 -0.724176 0
M  V30 2636 H 276.991 -1.13403 -1.44263 0
M  V30 2637 H 275.373 -0.336983 -3.94564 0
M  V30 2638 H 276.547 -3.13829 -3.37414 0
M  V30 2639 H 274.862 -2.71802 -3.15456 0
M  V30 2640 H 277.459 -0.910939 -5.26883 0
M  V30 2641 H 277.802 0.381628 -4.14547 0
M  V30 2642 H 278.335 -1.27473 -3.76823 0
M  V30 2643 H 275.074 -3.847 -5.30741 0
M  V30 2644 H 274.594 -2.1589 -5.596 0
M  V30 2645 H 276.273 -2.67478 -5.89122 0
M  V30 2646 N 276.405 1.4127 -0.698611 0
M  V30 2647 C 277.335 2.33447 -0.049629 0
M  V30 2648 C 278.316 1.51982 0.763898 0
M  V30 2649 O 279.501 1.80509 0.716257 0
M  V30 2650 C 276.631 3.35828 0.885267 0
M  V30 2651 C 275.585 4.27627 0.178613 0
M  V30 2652 C 274.911 5.20406 1.22807 0
M  V30 2653 C 276.211 5.13459 -0.956933 0
M  V30 2654 H 277.905 2.87966 -0.81951 0
M  V30 2655 H 275.451 1.38461 -0.395538 0
M  V30 2656 H 277.404 3.9924 1.34854 0
M  V30 2657 H 276.128 2.79666 1.68685 0
M  V30 2658 H 274.787 3.65643 -0.26466 0
M  V30 2659 H 274.435 4.60558 2.02226 0
M  V30 2660 H 274.135 5.82661 0.760239 0
M  V30 2661 H 275.659 5.86695 1.69179 0
M  V30 2662 H 277.073 5.70421 -0.573805 0
M  V30 2663 H 275.47 5.8467 -1.35205 0
M  V30 2664 H 276.54 4.50443 -1.79524 0
M  V30 2665 N 277.883 0.443576 1.51229 0
M  V30 2666 C 279.111 -0.11929 2.06556 0
M  V30 2667 C 279.526 -1.35921 1.31038 0
M  V30 2668 O 278.883 -1.78675 0.371704 0
M  V30 2669 C 278.934 -0.435228 3.5887 0
M  V30 2670 O 278.655 0.755486 4.31537 0
M  V30 2671 C 280.156 -1.04808 4.30732 0
M  V30 2672 H 277.376 -0.0051584 0.67098 0
M  V30 2673 H 279.92 0.624453 1.94733 0
M  V30 2674 H 278.075 -1.12887 3.70588 0
M  V30 2675 H 278.489 0.483491 5.22267 0
M  V30 2676 H 279.963 -1.2191 5.3837 0
M  V30 2677 H 280.44 -2.03081 3.89429 0
M  V30 2678 H 281.046 -0.393637 4.23474 0
M  V30 2679 N 279.361 -1.56624 0.175154 0
M  V30 2680 C 280.291 -2.21155 -0.749195 0
M  V30 2681 C 281.272 -1.16836 -1.23626 0
M  V30 2682 O 282.457 -1.45277 -1.28873 0
M  V30 2683 C 279.587 -2.8553 -1.97711 0
M  V30 2684 C 278.541 -3.95921 -1.62575 0
M  V30 2685 C 277.867 -4.47365 -2.92864 0
M  V30 2686 C 279.167 -5.15323 -0.850838 0
M  V30 2687 H 280.861 -2.98653 -0.211295 0
M  V30 2688 H 278.407 -1.43651 -0.100188 0
M  V30 2689 H 280.36 -3.2935 -2.62881 0
M  V30 2690 H 279.084 -2.05406 -2.53921 0
M  V30 2691 H 277.743 -3.52762 -0.997719 0
M  V30 2692 H 277.391 -3.64027 -3.47122 0
M  V30 2693 H 277.091 -5.21839 -2.70106 0
M  V30 2694 H 278.615 -4.93873 -3.59056 0
M  V30 2695 H 280.029 -5.55812 -1.40521 0
M  V30 2696 H 278.426 -5.95739 -0.722154 0
M  V30 2697 H 279.496 -4.84661 0.152082 0
M  V30 2698 N 280.839 0.0985539 -1.57292 0
M  V30 2699 C 282.255 0.45267 -1.53046 0
M  V30 2700 C 282.455 1.80713 -0.891342 0
M  V30 2701 O 281.511 2.4785 -0.482375 0
M  V30 2702 C 282.824 0.418341 -2.97776 0
M  V30 2703 C 284.372 0.500443 -3.08973 0
M  V30 2704 C 284.847 0.496297 -4.55303 0
M  V30 2705 N 286.338 0.557151 -4.59837 0
M  V30 2706 C 287.073 0.575726 -5.70502 0
M  V30 2707 N 286.569 0.550714 -6.90608 0
M  V30 2708 N 288.362 0.620277 -5.58667 0
M  V30 2709 H 280.513 -0.788673 -1.97215 0
M  V30 2710 H 282.776 -0.293188 -0.901524 0
M  V30 2711 H 282.482 -0.509659 -3.47988 0
M  V30 2712 H 282.356 1.2386 -3.56284 0
M  V30 2713 H 284.743 1.41886 -2.58751 0
M  V30 2714 H 284.824 -0.347894 -2.53423 0
M  V30 2715 H 284.468 -0.418162 -5.06176 0
M  V30 2716 H 284.398 1.3618 -5.08687 0
M  V30 2717 H 286.889 0.581816 -3.73394 0
M  V30 2718 H 287.202 0.568075 -7.70709 0
M  V30 2719 H 285.547 0.517816 -6.93068 0
M  V30 2720 H 288.738 0.637322 -4.63741 0
M  V30 2721 H 288.911 0.631283 -6.44918 0
M  V30 2722 N 282.317 1.53212 0.369288 0
M  V30 2723 C 283.545 1.73119 1.13303 0
M  V30 2724 C 283.96 0.458455 1.83149 0
M  V30 2725 O 283.317 -0.568403 1.73423 0
M  V30 2726 C 283.368 2.89413 2.16616 0
M  V30 2727 O 283.089 4.11761 1.49614 0
M  V30 2728 C 284.59 3.21161 3.05566 0
M  V30 2729 H 281.81 0.579107 0.338934 0
M  V30 2730 H 284.354 1.99942 0.429338 0
M  V30 2731 H 282.509 2.64994 2.82589 0
M  V30 2732 H 282.923 4.76858 2.18419 0
M  V30 2733 H 284.397 4.05949 3.74045 0
M  V30 2734 H 284.874 2.36369 3.70171 0
M  V30 2735 H 285.48 3.47492 2.45213 0
M  V30 2736 N 283.795 -0.628877 1.44509 0
M  V30 2737 C 285.023 -1.41554 1.50897 0
M  V30 2738 C 285.438 -1.8832 0.134564 0
M  V30 2739 O 284.795 -1.60969 -0.859965 0
M  V30 2740 C 284.846 -2.63435 2.47556 0
M  V30 2741 O 284.567 -2.18619 3.79654 0
M  V30 2742 C 286.068 -3.56537 2.63431 0
M  V30 2743 H 283.288 -0.434044 0.511709 0
M  V30 2744 H 285.832 -0.768895 1.89495 0
M  V30 2745 H 283.987 -3.24187 2.12089 0
M  V30 2746 H 284.401 -2.97652 4.31861 0
M  V30 2747 H 285.875 -4.38657 3.35088 0
M  V30 2748 H 286.352 -4.05493 1.68738 0
M  V30 2749 H 286.958 -3.01653 2.9981 0
M  V30 2750 N 285.273 -1.31445 -0.869486 0
M  V30 2751 C 286.521 -1.20918 -1.61936 0
M  V30 2752 C 286.842 0.232683 -1.93607 0
M  V30 2753 O 286.112 1.15352 -1.58338 0
M  V30 2754 H 284.692 -0.44454 -0.600328 0
M  V30 2755 H 287.354 -1.64776 -1.0409 0
M  V30 2756 H 286.45 -1.78124 -2.56278 0
M  V30 2757 N 286.751 1.08385 -1.14413 0
M  V30 2758 C 287.714 2.13486 -0.834048 0
M  V30 2759 C 288.714 1.59988 0.161418 0
M  V30 2760 O 289.904 1.74071 -0.0669575 0
M  V30 2761 C 287.036 3.4003 -0.243354 0
M  V30 2762 H 288.229 2.42425 -1.7655 0
M  V30 2763 H 285.782 1.24101 -0.950189 0
M  V30 2764 H 286.517 3.16726 0.696807 0
M  V30 2765 H 286.302 3.80157 -0.960367 0
M  V30 2766 H 287.792 4.17577 -0.0436242 0
M  V30 2767 N 288.23 0.939286 1.26551 0
M  V30 2768 C 289.162 0.404704 2.25599 0
M  V30 2769 C 290.175 -0.470983 1.55838 0
M  V30 2770 O 291.364 -0.281734 1.76263 0
M  V30 2771 C 288.464 -0.43764 3.36062 0
M  V30 2772 C 287.637 0.421449 4.35365 0
M  V30 2773 C 286.696 -0.36015 5.24966 0
M  V30 2774 O 285.722 0.236167 5.6871 0
M  V30 2775 N 286.924 -1.65715 5.56344 0
M  V30 2776 H 289.689 1.25618 2.72103 0
M  V30 2777 H 287.25 0.807963 1.40298 0
M  V30 2778 H 289.242 -0.967866 3.92956 0
M  V30 2779 H 287.812 -1.18991 2.89067 0
M  V30 2780 H 287.032 1.1329 3.7757 0
M  V30 2781 H 288.32 1.00835 4.98708 0
M  V30 2782 H 287.718 -2.16378 5.22682 0
M  V30 2783 H 286.275 -2.13366 6.15888 0
M  V30 2784 N 289.708 -1.40897 0.706093 0
M  V30 2785 C 290.671 -2.29131 0.0562841 0
M  V30 2786 C 291.671 -1.44901 -0.697166 0
M  V30 2787 O 292.861 -1.65926 -0.530484 0
M  V30 2788 C 289.993 -3.27957 -0.93043 0
M  V30 2789 H 291.186 -2.88091 0.833284 0
M  V30 2790 H 288.739 -1.4906 0.470192 0
M  V30 2791 H 289.474 -2.73997 -1.73482 0
M  V30 2792 H 289.259 -3.90124 -0.393166 0
M  V30 2793 H 290.749 -3.94049 -1.38256 0
M  V30 2794 N 291.186 -0.45159 -1.50991 0
M  V30 2795 C 292.118 0.388634 -2.25881 0
M  V30 2796 C 293.131 0.974041 -1.30446 0
M  V30 2797 O 294.32 0.865758 -1.56099 0
M  V30 2798 C 291.42 1.5571 -3.01011 0
M  V30 2799 C 290.593 1.08801 -4.23652 0
M  V30 2800 C 289.652 2.12825 -4.8124 0
M  V30 2801 O 288.678 1.71678 -5.42693 0
M  V30 2802 N 289.88 3.45453 -4.66522 0
M  V30 2803 H 292.645 -0.25329 -2.98628 0
M  V30 2804 H 290.206 -0.281268 -1.59438 0
M  V30 2805 H 292.198 2.24952 -3.3642 0
M  V30 2806 H 290.768 2.10409 -2.31186 0
M  V30 2807 H 289.988 0.22215 -3.93574 0
M  V30 2808 H 291.276 0.752213 -5.03209 0
M  V30 2809 H 290.674 3.81605 -4.17605 0
M  V30 2810 H 289.231 4.10549 -5.06254 0
M  V30 2811 N 292.664 1.56529 -0.183458 0
M  V30 2812 C 294.075 1.83739 0.331177 0
M  V30 2813 C 294.426 1.10373 1.62211 0
M  V30 2814 O 293.551 0.36071 2.13373 0
M  V30 2815 C 294.146 3.33306 0.607646 0
M  V30 2816 C 292.705 3.60969 1.06668 0
M  V30 2817 C 291.852 2.77086 0.109029 0
M  V30 2818 H 294.803 1.53379 -0.407484 0
M  V30 2819 H 294.824 3.51444 1.45832 0
M  V30 2820 H 294.336 3.86677 -0.332086 0
M  V30 2821 H 292.437 3.13021 2.0211 0
M  V30 2822 H 292.55 4.69231 0.967447 0
M  V30 2823 H 290.914 2.47319 0.608714 0
M  V30 2824 H 291.697 3.33241 -0.82494 0
M  V30 2825 N 294.142 -0.090211 1.57342 0
M  V30 2826 C 295.37 -0.806224 1.90546 0
M  V30 2827 C 295.785 -1.72041 0.777644 0
M  V30 2828 O 295.142 -1.80778 -0.250103 0
M  V30 2829 C 295.193 -1.61546 3.23396 0
M  V30 2830 O 294.914 -0.738043 4.31839 0
M  V30 2831 C 296.415 -2.4341 3.70495 0
M  V30 2832 H 293.635 -0.230256 0.630257 0
M  V30 2833 H 296.179 -0.0659843 2.04394 0
M  V30 2834 H 294.334 -2.30816 3.11131 0
M  V30 2835 H 294.748 -1.29901 5.08159 0
M  V30 2836 H 296.222 -2.95676 4.66133 0
M  V30 2837 H 296.699 -3.22098 2.98579 0
M  V30 2838 H 297.305 -1.79331 3.85643 0
M  V30 2839 N 295.62 -1.53406 -0.361157 0
M  V30 2840 C 296.583 -1.79479 -1.42548 0
M  V30 2841 C 297.583 -0.665327 -1.4639 0
M  V30 2842 O 298.773 -0.933549 -1.47073 0
M  V30 2843 C 295.905 -1.92087 -2.8163 0
M  V30 2844 H 297.098 -2.74538 -1.20701 0
M  V30 2845 H 294.651 -1.4455 -0.594546 0
M  V30 2846 H 295.386 -0.991099 -3.08784 0
M  V30 2847 H 295.171 -2.74241 -2.80239 0
M  V30 2848 H 296.661 -2.13836 -3.58697 0
M  V30 2849 N 297.098 0.621204 -1.44841 0
M  V30 2850 C 298.509 1.20298 -1.42777 0
M  V30 2851 C 298.86 1.95639 -0.148259 0
M  V30 2852 O 297.985 2.02955 0.750892 0
M  V30 2853 C 298.58 2.1882 -2.58657 0
M  V30 2854 C 297.139 2.72403 -2.59756 0
M  V30 2855 C 296.286 1.4757 -2.34773 0
M  V30 2856 H 299.237 0.411297 -1.53278 0
M  V30 2857 H 299.258 3.01607 -2.31977 0
M  V30 2858 H 298.77 1.63957 -3.51766 0
M  V30 2859 H 296.871 3.31242 -1.70615 0
M  V30 2860 H 296.984 3.17765 -3.58556 0
M  V30 2861 H 295.348 1.76051 -1.8406 0
M  V30 2862 H 296.131 0.945954 -3.3001 0
M  V30 2863 N 298.576 1.31904 0.862503 0
M  V30 2864 C 299.539 1.20131 1.95195 0
M  V30 2865 C 300.539 0.126409 1.60302 0
M  V30 2866 O 301.729 0.376234 1.70089 0
M  V30 2867 C 298.861 0.845691 3.30244 0
M  V30 2868 H 300.054 2.16943 2.07064 0
M  V30 2869 H 297.607 1.15622 1.05172 0
M  V30 2870 H 298.342 -0.120957 3.24074 0
M  V30 2871 H 298.127 1.62276 3.56944 0
M  V30 2872 H 299.617 0.787418 4.10109 0
M  V30 2873 N 300.054 -1.07777 1.14986 0
M  V30 2874 C 301.017 -2.13041 0.845358 0
M  V30 2875 C 302.017 -1.60071 -0.152931 0
M  V30 2876 O 303.207 -1.74033 0.0761879 0
M  V30 2877 C 300.339 -3.39896 0.261383 0
M  V30 2878 H 301.532 -2.41485 1.77834 0
M  V30 2879 H 299.085 -1.23595 0.956757 0
M  V30 2880 H 299.82 -3.17091 -0.68 0
M  V30 2881 H 299.605 -3.79642 0.980514 0
M  V30 2882 H 301.095 -4.17548 0.0657687 0
M  V30 2883 N 301.532 -0.945985 -1.26051 0
M  V30 2884 C 302.495 -0.463897 -2.24456 0
M  V30 2885 C 303.495 0.427655 -1.55009 0
M  V30 2886 O 304.685 0.226157 -1.72726 0
M  V30 2887 C 301.817 0.330812 -3.39291 0
M  V30 2888 H 303.01 -1.33357 -2.68619 0
M  V30 2889 H 300.563 -0.728416 -1.38289 0
M  V30 2890 H 301.298 1.21852 -3.00537 0
M  V30 2891 H 301.083 -0.308679 -3.90883 0
M  V30 2892 H 302.573 0.657865 -4.12386 0
M  V30 2893 N 303.011 1.40521 -0.713556 0
M  V30 2894 C 303.974 2.29098 -0.0684347 0
M  V30 2895 C 304.974 1.45268 0.689472 0
M  V30 2896 O 306.164 1.66205 0.521677 0
M  V30 2897 C 303.296 3.28446 0.913024 0
M  V30 2898 H 304.489 2.87645 -0.84855 0
M  V30 2899 H 302.042 1.48809 -0.47809 0
M  V30 2900 H 302.777 2.74913 1.72027 0
M  V30 2901 H 302.562 3.90327 0.372472 0
M  V30 2902 H 304.052 3.94777 1.36165 0
M  V30 2903 N 304.489 0.459591 1.5075 0
M  V30 2904 C 305.452 -0.329093 2.26825 0
M  V30 2905 C 306.452 -0.930481 1.31144 0
M  V30 2906 O 307.642 -0.801453 1.54669 0
M  V30 2907 C 304.774 -1.46768 3.07688 0
M  V30 2908 H 305.967 0.337924 2.9799 0
M  V30 2909 H 303.52 0.213336 1.54837 0
M  V30 2910 H 304.255 -2.17009 2.40993 0
M  V30 2911 H 304.04 -1.04238 3.77991 0
M  V30 2912 H 305.53 -2.02433 3.65254 0
M  V30 2913 N 305.967 -1.56429 0.191757 0
M  V30 2914 C 306.93 -2.17707 -0.716688 0
M  V30 2915 C 307.93 -1.13061 -1.14341 0
M  V30 2916 O 309.12 -1.38464 -1.05704 0
M  V30 2917 C 306.252 -2.77644 -1.97804 0
M  V30 2918 H 307.445 -2.99342 -0.1829 0
M  V30 2919 H 304.998 -1.56193 -0.0578566 0
M  V30 2920 H 305.733 -1.99799 -2.55443 0
M  V30 2921 H 305.518 -3.54246 -1.68083 0
M  V30 2922 H 307.008 -3.24708 -2.62592 0
M  V30 2923 N 307.445 0.0818655 -1.57387 0
M  V30 2924 C 308.67 0.799946 -1.91352 0
M  V30 2925 C 309.095 1.70833 -0.787258 0
M  V30 2926 O 308.453 1.79419 0.26048 0
M  V30 2927 C 308.501 1.57812 -3.24234 0
M  V30 2928 O 307.605 2.68806 -3.12757 0
M  V30 2929 H 306.946 0.21891 -0.626877 0
M  V30 2930 H 309.476 0.0531256 -2.04531 0
M  V30 2931 H 309.486 1.95952 -3.57864 0
M  V30 2932 H 308.161 0.911548 -4.05788 0
M  V30 2933 H 306.738 2.33597 -2.90666 0
M  V30 2934 N 308.923 1.53595 0.353017 0
M  V30 2935 C 310.334 1.61937 0.929153 0
M  V30 2936 C 310.685 0.494686 1.89861 0
M  V30 2937 O 309.81 -0.377017 2.1309 0
M  V30 2938 C 310.405 2.93526 1.69199 0
M  V30 2939 C 308.964 3.04161 2.21727 0
M  V30 2940 C 308.111 2.57322 1.03348 0
M  V30 2941 H 311.062 1.58155 0.131431 0
M  V30 2942 H 311.083 2.82034 2.55416 0
M  V30 2943 H 310.595 3.75362 0.986144 0
M  V30 2944 H 308.696 2.26938 2.95516 0
M  V30 2945 H 308.809 4.09465 2.48748 0
M  V30 2946 H 307.173 2.12499 1.40414 0
M  V30 2947 H 307.956 3.41588 0.342428 0
M  V30 2948 N 310.401 -0.613514 1.45168 0
M  V30 2949 C 311.364 -1.7065 1.53007 0
M  V30 2950 C 312.364 -1.5548 0.410184 0
M  V30 2951 O 313.554 -1.60656 0.673455 0
M  V30 2952 C 310.686 -3.09875 1.42093 0
M  V30 2953 H 311.879 -1.65068 2.50385 0
M  V30 2954 H 309.432 -0.828728 1.32521 0
M  V30 2955 H 310.167 -3.21039 0.458769 0
M  V30 2956 H 309.952 -3.22293 2.23315 0
M  V30 2957 H 311.442 -3.895 1.50598 0
M  V30 2958 N 311.879 -1.3236 -0.855495 0
M  V30 2959 C 313.29 -1.2056 -1.42556 0
M  V30 2960 C 313.641 0.182209 -1.95352 0
M  V30 2961 O 312.766 1.08088 -1.87472 0
M  V30 2962 C 313.361 -2.1826 -2.59129 0
M  V30 2963 C 311.92 -2.10351 -3.12137 0
M  V30 2964 C 311.067 -2.06674 -1.84882 0
M  V30 2965 H 314.018 -1.442 -0.662727 0
M  V30 2966 H 314.039 -1.78064 -3.36264 0
M  V30 2967 H 313.551 -3.19257 -2.20673 0
M  V30 2968 H 311.652 -1.12599 -3.55179 0
M  V30 2969 H 311.765 -3.00135 -3.73438 0
M  V30 2970 H 310.129 -1.51901 -2.04446 0
M  V30 2971 H 310.912 -3.09451 -1.48643 0
M  V30 2972 N 313.357 1.07166 -1.15556 0
M  V30 2973 C 314.32 2.12589 -0.856644 0
M  V30 2974 C 315.32 1.6015 0.14444 0
M  V30 2975 O 316.51 1.7399 -0.0854163 0
M  V30 2976 C 313.642 3.39753 -0.279405 0
M  V30 2977 H 314.835 2.40539 -1.79112 0
M  V30 2978 H 312.388 1.23086 -0.963298 0
M  V30 2979 H 313.123 3.17447 0.663174 0
M  V30 2980 H 312.908 3.79117 -1.00063 0
M  V30 2981 H 314.398 4.17507 -0.0879113 0
M  V30 2982 N 314.835 0.952656 1.25548 0
M  V30 2983 C 316.246 0.647392 1.75116 0
M  V30 2984 C 316.597 -0.837274 1.77438 0
M  V30 2985 O 315.722 -1.65525 1.39393 0
M  V30 2986 C 316.317 1.16845 3.18014 0
M  V30 2987 C 314.876 0.913382 3.6515 0
M  V30 2988 C 314.023 1.31265 2.44264 0
M  V30 2989 H 316.974 1.12968 1.11462 0
M  V30 2990 H 316.995 0.527606 3.76824 0
M  V30 2991 H 316.507 2.24902 3.16292 0
M  V30 2992 H 314.608 -0.152316 3.72289 0
M  V30 2993 H 314.721 1.54845 4.53387 0
M  V30 2994 H 313.085 0.731028 2.43984 0
M  V30 2995 H 313.868 2.40239 2.45234 0
M  V30 2996 N 316.313 -1.40141 0.720998 0
M  V30 2997 C 317.243 -2.33339 0.0867621 0
M  V30 2998 C 318.224 -1.53178 -0.739622 0
M  V30 2999 O 319.409 -1.81625 -0.687449 0
M  V30 3000 C 316.539 -3.37194 -0.831728 0
M  V30 3001 C 315.493 -4.27857 -0.110558 0
M  V30 3002 C 314.819 -5.22294 -1.14513 0
M  V30 3003 C 316.119 -5.11872 1.0385 0
M  V30 3004 H 317.813 -2.86626 0.865219 0
M  V30 3005 H 315.359 -1.37814 0.417516 0
M  V30 3006 H 317.312 -4.01335 -1.28485 0
M  V30 3007 H 316.036 -2.82314 -1.64214 0
M  V30 3008 H 314.695 -3.65176 0.322797 0
M  V30 3009 H 314.343 -4.63717 -1.94874 0
M  V30 3010 H 314.043 -5.83797 -0.667446 0
M  V30 3011 H 315.567 -5.89312 -1.59824 0
M  V30 3012 H 316.981 -5.69436 0.664482 0
M  V30 3013 H 315.378 -5.82445 1.4449 0
M  V30 3014 H 316.448 -4.4753 1.86668 0
M  V30 3015 N 317.792 -0.46758 -1.50504 0
M  V30 3016 C 318.755 0.317059 -2.26996 0
M  V30 3017 C 319.755 0.923513 -1.31635 0
M  V30 3018 O 320.945 0.793239 -1.55091 0
M  V30 3019 C 318.077 1.45134 -3.08462 0
M  V30 3020 H 319.27 -0.353723 -2.97807 0
M  V30 3021 H 316.823 -0.221545 -1.54722 0
M  V30 3022 H 317.558 2.15728 -2.4214 0
M  V30 3023 H 317.343 1.02232 -3.78538 0
M  V30 3024 H 318.833 2.00493 -3.66323 0
M  V30 3025 N 319.27 1.56325 -0.20005 0
M  V30 3026 C 320.681 1.8408 0.31167 0
M  V30 3027 C 321.032 1.12087 1.61031 0
M  V30 3028 O 320.157 0.38332 2.12978 0
M  V30 3029 C 320.752 3.33932 0.57226 0
M  V30 3030 C 319.311 3.6208 1.02834 0
M  V30 3031 C 318.458 2.77186 0.079634 0
M  V30 3032 H 321.409 1.52939 -0.423729 0
M  V30 3033 H 321.43 3.52971 1.42096 0
M  V30 3034 H 320.942 3.86303 -0.37308 0
M  V30 3035 H 319.043 3.15147 1.98778 0
M  V30 3036 H 319.156 4.7023 0.917624 0
M  V30 3037 H 317.52 2.47951 0.582448 0
M  V30 3038 H 318.303 3.32347 -0.860238 0
M  V30 3039 N 320.748 -0.0735177 1.57428 0
M  V30 3040 C 321.711 -1.07192 2.02589 0
M  V30 3041 C 322.711 -1.31695 0.922661 0
M  V30 3042 O 323.901 -1.27445 1.18758 0
M  V30 3043 C 321.033 -2.41599 2.40506 0
M  V30 3044 H 322.226 -0.682727 2.92025 0
M  V30 3045 H 319.779 -0.319193 1.53006 0
M  V30 3046 H 320.514 -2.85354 1.5409 0
M  V30 3047 H 320.299 -2.25156 3.21009 0
M  V30 3048 H 321.789 -3.13367 2.76027 0
M  V30 3049 N 322.226 -1.5378 -0.344866 0
M  V30 3050 C 323.189 -1.80981 -1.40637 0
M  V30 3051 C 324.189 -0.680816 -1.45676 0
M  V30 3052 O 325.379 -0.949095 -1.46075 0
M  V30 3053 C 322.511 -1.95063 -2.79577 0
M  V30 3054 H 323.704 -2.75803 -1.17783 0
M  V30 3055 H 321.257 -1.45173 -0.579181 0
M  V30 3056 H 321.992 -1.02379 -3.07716 0
M  V30 3057 H 321.777 -2.77198 -2.77315 0
M  V30 3058 H 323.267 -2.17629 -3.56409 0
M  V30 3059 N 323.704 0.605807 -1.45491 0
M  V30 3060 C 324.667 1.69836 -1.5391 0
M  V30 3061 C 325.667 1.55261 -0.418424 0
M  V30 3062 O 326.857 1.60296 -0.681965 0
M  V30 3063 C 323.989 3.09117 -1.43734 0
M  V30 3064 H 325.182 1.63738 -2.51257 0
M  V30 3065 H 322.735 0.821689 -1.32959 0
M  V30 3066 H 323.47 3.20791 -0.475788 0
M  V30 3067 H 323.255 3.21104 -2.25021 0
M  V30 3068 H 324.745 3.88696 -1.52661 0
M  V30 3069 N 325.182 1.32811 0.848464 0
M  V30 3070 C 326.43 1.23479 1.59991 0
M  V30 3071 C 326.751 -0.201853 1.93952 0
M  V30 3072 O 326.021 -1.12818 1.60153 0
M  V30 3073 H 324.601 0.454034 0.593179 0
M  V30 3074 H 327.263 1.66412 1.01455 0
M  V30 3075 H 326.359 1.82178 2.53412 0
M  V30 3076 N 326.66 -1.06551 1.16123 0
M  V30 3077 C 328.071 -1.60768 0.949232 0
M  V30 3078 C 328.422 -1.89523 -0.507508 0
M  V30 3079 O 327.547 -1.66671 -1.38021 0
M  V30 3080 C 328.142 -2.92086 1.71671 0
M  V30 3081 C 326.701 -3.43015 1.54977 0
M  V30 3082 C 325.848 -2.16947 1.72711 0
M  V30 3083 H 328.799 -0.895354 1.31031 0
M  V30 3084 H 328.82 -3.6138 1.19099 0
M  V30 3085 H 328.332 -2.71127 2.7769 0
M  V30 3086 H 326.433 -3.69039 0.513873 0
M  V30 3087 H 326.546 -4.18516 2.33198 0
M  V30 3088 H 324.91 -2.27041 1.15431 0
M  V30 3089 H 325.693 -1.98473 2.80113 0
M  V30 3090 N 328.138 -0.959301 -1.25041 0
M  V30 3091 C 329.07 -0.440543 -2.24926 0
M  V30 3092 C 330.083 0.446131 -1.56568 0
M  V30 3093 O 331.272 0.253657 -1.76689 0
M  V30 3094 C 328.372 0.38412 -3.36716 0
M  V30 3095 C 327.545 -0.490658 -4.34639 0
M  V30 3096 C 326.604 0.276587 -5.25473 0
M  V30 3097 O 325.63 -0.326614 -5.68262 0
M  V30 3098 N 326.832 1.56844 -5.5891 0
M  V30 3099 H 329.597 -1.29931 -2.70071 0
M  V30 3100 H 327.158 -0.830181 -1.38995 0
M  V30 3101 H 329.15 0.905228 -3.94446 0
M  V30 3102 H 327.72 1.14377 -2.90924 0
M  V30 3103 H 326.94 -1.19282 -3.7572 0
M  V30 3104 H 328.228 -1.08756 -4.97041 0
M  V30 3105 H 327.626 2.08036 -5.26059 0
M  V30 3106 H 326.183 2.03541 -6.19205 0
M  V30 3107 N 329.616 1.39756 -0.72842 0
M  V30 3108 C 330.526 2.34444 -0.0855374 0
M  V30 3109 C 331.542 1.57976 0.729356 0
M  V30 3110 O 332.718 1.90301 0.659346 0
M  V30 3111 C 329.783 3.36965 0.815798 0
M  V30 3112 C 328.844 4.29299 -0.0105996 0
M  V30 3113 C 328.077 5.26923 0.84781 0
M  V30 3114 O 328.3 5.30859 2.08673 0
M  V30 3115 O 327.234 6.01249 0.279969 0
M  V30 3116 H 331.06 2.91065 -0.866892 0
M  V30 3117 H 328.645 1.4117 -0.48902 0
M  V30 3118 H 330.527 3.99804 1.33171 0
M  V30 3119 H 329.202 2.82739 1.57608 0
M  V30 3120 H 328.109 3.69703 -0.571877 0
M  V30 3121 H 329.442 4.86712 -0.73295 0
M  V30 3122 N 331.094 0.475555 1.50254 0
M  V30 3123 C 332.34 -0.0780073 2.0265 0
M  V30 3124 C 332.673 -1.38968 1.35652 0
M  V30 3125 O 331.948 -1.8839 0.483691 0
M  V30 3126 C 332.231 -0.257161 3.59181 0
M  V30 3127 C 332.084 1.07585 4.36744 0
M  V30 3128 C 333.403 -1.00965 4.28362 0
M  V30 3129 H 330.522 -0.0268758 0.73651 0
M  V30 3130 H 333.164 0.622015 1.7953 0
M  V30 3131 H 331.314 -0.853412 3.79011 0
M  V30 3132 H 332.986 1.70902 4.28474 0
M  V30 3133 H 331.229 1.6714 4.00308 0
M  V30 3134 H 331.9 0.904088 5.44546 0
M  V30 3135 H 334.376 -0.504214 4.13034 0
M  V30 3136 H 333.252 -1.10381 5.37687 0
M  V30 3137 H 333.513 -2.04731 3.91839 0
M  V30 3138 N 332.573 -1.56217 0.208337 0
M  V30 3139 C 333.52 -2.19699 -0.707192 0
M  V30 3140 C 334.49 -1.14836 -1.20008 0
M  V30 3141 O 335.675 -1.4314 -1.26157 0
M  V30 3142 C 332.815 -2.87061 -1.91546 0
M  V30 3143 C 331.928 -4.06483 -1.46271 0
M  V30 3144 C 331.063 -4.61665 -2.62752 0
M  V30 3145 C 330.102 -5.73417 -2.14147 0
M  V30 3146 N 329.239 -6.22948 -3.23853 0
M  V30 3147 H 334.079 -2.97575 -0.159111 0
M  V30 3148 H 331.616 -1.46948 -0.0667874 0
M  V30 3149 H 333.574 -3.24294 -2.62468 0
M  V30 3150 H 332.204 -2.11725 -2.43664 0
M  V30 3151 H 331.256 -3.74825 -0.648886 0
M  V30 3152 H 332.568 -4.87271 -1.06622 0
M  V30 3153 H 331.722 -5.01272 -3.41776 0
M  V30 3154 H 330.461 -3.80013 -3.05682 0
M  V30 3155 H 329.466 -5.33326 -1.33581 0
M  V30 3156 H 330.691 -6.56897 -1.72232 0
M  V30 3157 H 328.637 -5.44213 -3.6629 0
M  V30 3158 H 328.554 -6.98823 -2.88414 0
M  V30 3159 H 329.822 -6.6721 -4.03052 0
M  V30 3160 N 334.051 0.0651679 -1.57465 0
M  V30 3161 C 335.297 0.764193 -1.87851 0
M  V30 3162 C 335.63 1.76889 -0.801495 0
M  V30 3163 O 334.905 1.93594 0.187528 0
M  V30 3164 C 335.188 1.46625 -3.28897 0
M  V30 3165 C 335.041 0.477515 -4.47258 0
M  V30 3166 C 336.36 2.4095 -3.68281 0
M  V30 3167 H 333.479 0.276351 -0.683227 0
M  V30 3168 H 336.121 0.0272868 -1.8998 0
M  V30 3169 H 334.271 2.09438 -3.27212 0
M  V30 3170 H 335.943 -0.145922 -4.61069 0
M  V30 3171 H 334.186 -0.206576 -4.33308 0
M  V30 3172 H 334.857 1.0065 -5.42746 0
M  V30 3173 H 337.333 1.88209 -3.71102 0
M  V30 3174 H 336.209 2.87072 -4.67847 0
M  V30 3175 H 336.47 3.26049 -2.98571 0
M  V30 3176 N 335.529 1.53961 0.336706 0
M  V30 3177 C 336.94 1.62914 0.911925 0
M  V30 3178 C 337.291 0.514795 1.89326 0
M  V30 3179 O 336.416 -0.354395 2.13478 0
M  V30 3180 C 337.011 2.95304 1.66076 0
M  V30 3181 C 335.57 3.06496 2.18489 0
M  V30 3182 C 334.717 2.58403 1.00613 0
M  V30 3183 H 337.668 1.58285 0.114649 0
M  V30 3184 H 337.689 2.84727 2.5241 0
M  V30 3185 H 337.201 3.76387 0.946276 0
M  V30 3186 H 335.302 2.3006 2.93092 0
M  V30 3187 H 335.415 4.1208 2.44391 0
M  V30 3188 H 333.779 2.13977 1.38152 0
M  V30 3189 H 334.562 3.41932 0.306179 0
M  V30 3190 N 337.007 -0.598083 1.45811 0
M  V30 3191 C 338.284 -1.35777 1.40797 0
M  V30 3192 C 338.664 -2.10935 0.083462 0
M  V30 3193 O 338.012 -2.08505 -0.934763 0
M  V30 3194 C 338.222 -2.29666 2.62783 0
M  V30 3195 C 339.57 -2.91977 3.08277 0
M  V30 3196 O 340.594 -2.39984 2.63223 0
M  V30 3197 O 339.453 -3.86376 3.86491 0
M  V30 3198 H 336.547 -0.609291 0.55919 0
M  V30 3199 H 339.093 -0.620379 1.57954 0
M  V30 3200 H 337.865 -1.73454 3.50756 0
M  V30 3201 H 337.488 -3.1077 2.48008 0
M  V30 3202 N 338.485 -1.33259 -0.841409 0
M  V30 3203 C 339.734 -1.23921 -1.59143 0
M  V30 3204 C 340.047 0.1941 -1.94635 0
M  V30 3205 O 341.253 0.409474 -2.68394 0
M  V30 3206 C 339.709 -2.17119 -2.87032 0
M  V30 3207 C 339.317 -3.65606 -2.58914 0
M  V30 3208 C 341.061 -2.16648 -3.65053 0
M  V30 3209 C 338.968 -4.50726 -3.82884 0
M  V30 3210 H 337.898 -0.460264 -0.597221 0
M  V30 3211 H 340.549 -1.58307 -0.927959 0
M  V30 3212 H 338.931 -1.75663 -3.54906 0
M  V30 3213 H 340.105 -4.15487 -1.99267 0
M  V30 3214 H 338.42 -3.68341 -1.942 0
M  V30 3215 H 341.017 -2.77474 -4.57069 0
M  V30 3216 H 341.36 -1.16088 -3.99787 0
M  V30 3217 H 341.893 -2.56453 -3.041 0
M  V30 3218 H 338.632 -5.52151 -3.53283 0
M  V30 3219 H 338.152 -4.0559 -4.41879 0
M  V30 3220 H 339.831 -4.64401 -4.50489 0
M  V30 3221 N 339.963 1.05934 -1.16686 0
M  V30 3222 C 341.211 1.78447 -0.948744 0
M  V30 3223 C 341.532 1.87813 0.524523 0
M  V30 3224 O 340.802 1.38945 1.38098 0
M  V30 3225 H 339.382 0.660971 -0.348033 0
M  V30 3226 H 342.044 1.27947 -1.47022 0
M  V30 3227 H 341.14 2.80394 -1.37061 0
M  V30 3228 N 341.441 0.965919 1.2453 0
M  V30 3229 C 342.666 0.643971 1.97149 0
M  V30 3230 C 343.091 -0.779487 1.71189 0
M  V30 3231 O 342.449 -1.5288 0.974553 0
M  V30 3232 C 342.497 0.922557 3.48599 0
M  V30 3233 O 341.601 0.00707672 4.12399 0
M  V30 3234 H 340.942 0.243647 0.617683 0
M  V30 3235 H 343.472 1.29558 1.58353 0
M  V30 3236 H 343.482 0.853373 3.98976 0
M  V30 3237 H 342.157 1.95996 3.66822 0
M  V30 3238 H 340.734 0.12943 3.72675 0
M  V30 3239 N 342.919 -1.39368 0.735821 0
M  V30 3240 C 343.882 -2.2896 0.104874 0
M  V30 3241 C 344.882 -1.46347 -0.666274 0
M  V30 3242 O 346.072 -1.67014 -0.49517 0
M  V30 3243 C 343.204 -3.29857 -0.860656 0
M  V30 3244 H 344.397 -2.86259 0.894205 0
M  V30 3245 H 341.95 -1.48029 0.501704 0
M  V30 3246 H 342.685 -2.77615 -1.67631 0
M  V30 3247 H 342.47 -3.9087 -0.310327 0
M  V30 3248 H 343.96 -3.96893 -1.29867 0
M  V30 3249 N 344.397 -0.483516 -1.5 0
M  V30 3250 C 345.645 0.067027 -2.01989 0
M  V30 3251 C 345.966 1.3909 -1.36671 0
M  V30 3252 O 345.236 1.88978 -0.516152 0
M  V30 3253 H 343.816 0.0277606 -0.746484 0
M  V30 3254 H 346.478 -0.636773 -1.84204 0
M  V30 3255 H 345.574 0.209484 -3.11396 0
M  V30 3256 N 345.875 1.56104 -0.216619 0
M  V30 3257 C 346.822 2.2007 0.695531 0
M  V30 3258 C 347.792 1.15471 1.19397 0
M  V30 3259 O 348.977 1.43807 1.25396 0
M  V30 3260 C 346.117 2.88073 1.90021 0
M  V30 3261 C 345.23 4.07253 1.44113 0
M  V30 3262 C 344.365 4.63052 2.603 0
M  V30 3263 C 343.404 5.74545 2.11103 0
M  V30 3264 N 342.541 6.24656 3.20545 0
M  V30 3265 H 347.381 2.97655 0.143327 0
M  V30 3266 H 344.918 1.46982 0.0589934 0
M  V30 3267 H 346.876 3.25681 2.60745 0
M  V30 3268 H 345.506 2.13015 2.42538 0
M  V30 3269 H 344.558 3.75164 0.628999 0
M  V30 3270 H 345.87 4.8783 1.04036 0
M  V30 3271 H 345.024 5.03078 3.39113 0
M  V30 3272 H 343.763 3.81628 3.03663 0
M  V30 3273 H 342.768 5.34027 1.3075 0
M  V30 3274 H 343.993 6.57801 1.68746 0
M  V30 3275 H 341.939 5.46148 3.63399 0
M  V30 3276 H 341.856 7.00343 2.84704 0
M  V30 3277 H 343.124 6.69338 3.99508 0
M  V30 3278 N 347.353 -0.0568162 1.57498 0
M  V30 3279 C 348.316 -1.05038 2.03715 0
M  V30 3280 C 349.316 -1.30709 0.936577 0
M  V30 3281 O 350.506 -1.26178 1.20103 0
M  V30 3282 C 347.638 -2.39034 2.43055 0
M  V30 3283 H 348.831 -0.651715 2.92733 0
M  V30 3284 H 346.384 -0.302947 1.53336 0
M  V30 3285 H 347.119 -2.83703 1.57108 0
M  V30 3286 H 346.904 -2.21739 3.2338 0
M  V30 3287 H 348.394 -3.10421 2.79336 0
M  V30 3288 N 348.832 -1.54138 -0.328536 0
M  V30 3289 C 350.248 -1.44736 -0.672574 0
M  V30 3290 C 350.448 -0.616217 -1.91846 0
M  V30 3291 O 349.504 -0.113067 -2.52247 0
M  V30 3292 C 350.817 -2.884 -0.851217 0
M  V30 3293 C 352.365 -2.98271 -0.948877 0
M  V30 3294 C 352.84 -4.43074 -1.15973 0
M  V30 3295 N 354.331 -4.46665 -1.22658 0
M  V30 3296 C 355.066 -5.55857 -1.40751 0
M  V30 3297 N 354.562 -6.75026 -1.5592 0
M  V30 3298 N 356.355 -5.43495 -1.4342 0
M  V30 3299 H 348.506 -2.06661 0.490421 0
M  V30 3300 H 350.769 -0.934812 0.157579 0
M  V30 3301 H 350.475 -3.51699 -0.00704236 0
M  V30 3302 H 350.349 -3.34225 -1.74853 0
M  V30 3303 H 352.736 -2.35102 -1.78356 0
M  V30 3304 H 352.817 -2.55785 -0.0281435 0
M  V30 3305 H 352.461 -5.06827 -0.329915 0
M  V30 3306 H 352.391 -4.83165 -2.09426 0
M  V30 3307 H 354.882 -3.60797 -1.124 0
M  V30 3308 H 355.195 -7.54004 -1.69404 0
M  V30 3309 H 353.54 -6.77944 -1.53027 0
M  V30 3310 H 356.731 -4.49349 -1.31162 0
M  V30 3311 H 356.904 -6.28649 -1.57178 0
M  V30 3312 N 350.31 0.590341 -1.46126 0
M  V30 3313 C 351.556 1.35082 -1.51264 0
M  V30 3314 C 351.889 1.93534 -0.160711 0
M  V30 3315 O 351.164 1.76045 0.826956 0
M  V30 3316 C 351.447 2.48588 -2.6053 0
M  V30 3317 C 351.3 1.95221 -4.05227 0
M  V30 3318 C 352.619 3.50662 -2.6594 0
M  V30 3319 H 349.738 0.489803 -0.550692 0
M  V30 3320 H 352.38 0.663887 -1.78024 0
M  V30 3321 H 350.53 3.07186 -2.37843 0
M  V30 3322 H 352.202 1.41139 -4.39178 0
M  V30 3323 H 350.445 1.26101 -4.15068 0
M  V30 3324 H 351.116 2.77121 -4.77397 0
M  V30 3325 H 353.592 3.01934 -2.86313 0
M  V30 3326 H 352.468 4.27551 -3.44226 0
M  V30 3327 H 352.729 4.07399 -1.71694 0
M  V30 3328 N 351.788 1.33704 0.83433 0
M  V30 3329 C 353.037 1.24763 1.58484 0
M  V30 3330 C 353.35 -0.183775 1.94735 0
M  V30 3331 O 354.556 -0.395234 2.68608 0
M  V30 3332 C 353.012 2.18638 2.85876 0
M  V30 3333 C 352.62 3.66974 2.56971 0
M  V30 3334 C 354.364 2.18581 3.63899 0
M  V30 3335 C 352.271 4.5275 3.80488 0
M  V30 3336 H 351.201 0.463425 0.594772 0
M  V30 3337 H 353.852 1.58797 0.919551 0
M  V30 3338 H 352.234 1.77542 3.5397 0
M  V30 3339 H 353.408 4.16538 1.9706 0
M  V30 3340 H 351.723 3.69366 1.92244 0
M  V30 3341 H 354.32 2.79894 4.55591 0
M  V30 3342 H 354.663 1.18207 3.99165 0
M  V30 3343 H 355.196 2.58062 3.02735 0
M  V30 3344 H 351.935 5.54017 3.5035 0
M  V30 3345 H 351.455 4.07927 4.39722 0
M  V30 3346 H 353.134 4.66784 4.4802 0
M  V30 3347 N 353.266 -1.05314 1.17247 0
M  V30 3348 C 354.176 -2.16538 0.90268 0
M  V30 3349 C 355.192 -1.73523 -0.128707 0
M  V30 3350 O 356.368 -2.01337 0.0502701 0
M  V30 3351 C 353.433 -3.44167 0.418356 0
M  V30 3352 C 352.494 -4.01635 1.51618 0
M  V30 3353 C 351.727 -5.23171 1.05487 0
M  V30 3354 O 351.95 -5.70327 -0.0914715 0
M  V30 3355 O 350.884 -5.72848 1.8474 0
M  V30 3356 H 354.71 -2.42145 1.83302 0
M  V30 3357 H 352.295 -1.15037 0.953246 0
M  V30 3358 H 354.177 -4.21112 0.155726 0
M  V30 3359 H 352.852 -3.20063 -0.48385 0
M  V30 3360 H 351.759 -3.26135 1.83268 0
M  V30 3361 H 353.092 -4.30053 2.39405 0
M  V30 3362 N 354.744 -0.972509 -1.24016 0
M  V30 3363 C 355.99 -0.637978 -1.92504 0
M  V30 3364 C 356.323 0.825383 -1.75787 0
M  V30 3365 O 355.598 1.59442 -1.11393 0
M  V30 3366 C 355.881 -1.01942 -3.45369 0
M  V30 3367 C 355.734 -2.53983 -3.71231 0
M  V30 3368 C 357.053 -0.55751 -4.36555 0
M  V30 3369 H 354.172 -0.233248 -0.699117 0
M  V30 3370 H 356.814 -1.21238 -1.46292 0
M  V30 3371 H 354.964 -0.530656 -3.84859 0
M  V30 3372 H 356.636 -3.10374 -3.41271 0
M  V30 3373 H 354.879 -2.96968 -3.16216 0
M  V30 3374 H 355.55 -2.75723 -4.78206 0
M  V30 3375 H 358.026 -0.977029 -4.04467 0
M  V30 3376 H 356.902 -0.85292 -5.42233 0
M  V30 3377 H 357.163 0.542328 -4.38761 0
M  V30 3378 N 356.222 1.38976 -0.743202 0
M  V30 3379 C 357.152 2.33171 -0.123873 0
M  V30 3380 C 358.133 1.54336 0.71516 0
M  V30 3381 O 359.318 1.82696 0.658467 0
M  V30 3382 C 356.448 3.38474 0.777978 0
M  V30 3383 C 355.402 4.27979 0.0424758 0
M  V30 3384 C 354.728 5.2405 1.06189 0
M  V30 3385 C 356.028 5.10155 -1.1198 0
M  V30 3386 H 357.722 2.85213 -0.910709 0
M  V30 3387 H 355.268 1.37133 -0.439388 0
M  V30 3388 H 357.221 4.03328 1.22084 0
M  V30 3389 H 355.945 2.84891 1.59702 0
M  V30 3390 H 354.604 3.64616 -0.380853 0
M  V30 3391 H 354.252 4.66758 1.87472 0
M  V30 3392 H 353.952 5.84785 0.574485 0
M  V30 3393 H 355.476 5.9178 1.50428 0
M  V30 3394 H 356.89 5.68307 -0.75499 0
M  V30 3395 H 355.287 5.80073 -1.53738 0
M  V30 3396 H 356.357 4.44504 -1.93764 0
M  V30 3397 N 357.7 0.491464 1.49741 0
M  V30 3398 C 358.946 -0.0565092 2.02721 0
M  V30 3399 C 359.279 -1.37522 1.37118 0
M  V30 3400 O 358.554 -1.87866 0.503645 0
M  V30 3401 C 358.837 -0.219051 3.59433 0
M  V30 3402 C 358.69 1.12211 4.35579 0
M  V30 3403 C 360.009 -0.964157 4.29409 0
M  V30 3404 H 357.128 -0.0190627 0.736753 0
M  V30 3405 H 359.77 0.641021 1.7886 0
M  V30 3406 H 357.92 -0.813165 3.79895 0
M  V30 3407 H 359.592 1.75437 4.26637 0
M  V30 3408 H 357.835 1.71377 3.98513 0
M  V30 3409 H 358.506 0.961794 5.43556 0
M  V30 3410 H 360.982 -0.460378 4.13545 0
M  V30 3411 H 359.858 -1.04671 5.38828 0
M  V30 3412 H 360.119 -2.00563 3.93988 0
M  V30 3413 N 359.178 -1.55987 0.224894 0
M  V30 3414 C 360.125 -2.20436 -0.68385 0
M  V30 3415 C 361.095 -1.16102 -1.18783 0
M  V30 3416 O 362.28 -1.4447 -1.24632 0
M  V30 3417 C 359.42 -2.89076 -1.88491 0
M  V30 3418 C 358.533 -4.08012 -1.41951 0
M  V30 3419 C 357.668 -4.64426 -2.5784 0
M  V30 3420 C 356.707 -5.75656 -2.08053 0
M  V30 3421 N 355.844 -6.26347 -3.17227 0
M  V30 3422 H 360.684 -2.97727 -0.12754 0
M  V30 3423 H 358.221 -1.47011 -0.0511978 0
M  V30 3424 H 360.179 -3.27059 -2.59014 0
M  V30 3425 H 358.809 -2.14298 -2.41405 0
M  V30 3426 H 357.861 -3.75492 -0.609095 0
M  V30 3427 H 359.173 -4.88375 -1.01447 0
M  V30 3428 H 358.327 -5.04869 -3.3644 0
M  V30 3429 H 357.066 -3.83233 -3.01635 0
M  V30 3430 H 356.071 -5.34712 -1.27916 0
M  V30 3431 H 357.296 -6.58686 -1.65255 0
M  V30 3432 H 355.242 -5.48067 -3.60497 0
M  V30 3433 H 355.159 -7.01843 -2.80986 0
M  V30 3434 H 356.427 -6.71447 -3.95953 0
M  V30 3435 N 360.656 0.0484629 -1.57525 0
M  V30 3436 C 361.619 1.03956 -2.04269 0
M  V30 3437 C 362.619 1.30211 -0.943496 0
M  V30 3438 O 363.809 1.25539 -1.20771 0
M  V30 3439 C 360.941 2.37742 -2.44319 0
M  V30 3440 H 362.134 0.636182 -2.93075 0
M  V30 3441 H 359.687 0.294811 -1.53494 0
M  V30 3442 H 360.422 2.82866 -1.5861 0
M  V30 3443 H 360.207 2.20021 -3.24551 0
M  V30 3444 H 361.697 3.08936 -2.80978 0
M  V30 3445 N 362.134 1.5431 0.320358 0
M  V30 3446 C 363.382 1.72327 1.05583 0
M  V30 3447 C 363.703 0.50149 1.88441 0
M  V30 3448 O 362.973 -0.48448 1.89815 0
M  V30 3449 H 361.553 0.635387 0.3928 0
M  V30 3450 H 364.215 1.91621 0.356019 0
M  V30 3451 H 363.311 2.60426 1.72003 0
M  V30 3452 N 363.613 -0.582584 1.46437 0
M  V30 3453 C 364.89 -1.34276 1.4223 0
M  V30 3454 C 365.27 -2.10835 0.10583 0
M  V30 3455 O 364.618 -2.09485 -0.912596 0
M  V30 3456 C 364.828 -2.26865 2.65204 0
M  V30 3457 C 366.176 -2.88691 3.11356 0
M  V30 3458 O 367.2 -2.37178 2.65753 0
M  V30 3459 O 366.059 -3.82255 3.90568 0
M  V30 3460 H 363.153 -0.603326 0.565621 0
M  V30 3461 H 365.699 -0.603591 1.58603 0
M  V30 3462 H 364.471 -1.69724 3.52576 0
M  V30 3463 H 364.094 -3.08122 2.5129 0
M  V30 3464 N 365.091 -1.34144 -0.827227 0
M  V30 3465 C 366.023 -1.21206 -1.9453 0
M  V30 3466 C 367.036 -0.140176 -1.62195 0
M  V30 3467 O 368.225 -0.391647 -1.7415 0
M  V30 3468 C 365.325 -0.839141 -3.28347 0
M  V30 3469 C 364.498 -2.0051 -3.88734 0
M  V30 3470 C 363.557 -1.61128 -5.00923 0
M  V30 3471 O 362.583 -2.32726 -5.19449 0
M  V30 3472 N 363.785 -0.522958 -5.7814 0
M  V30 3473 H 366.55 -2.17525 -2.06162 0
M  V30 3474 H 364.111 -1.27043 -1.00358 0
M  V30 3475 H 366.103 -0.557556 -4.00841 0
M  V30 3476 H 364.673 0.0337293 -3.12582 0
M  V30 3477 H 363.893 -2.45166 -3.08686 0
M  V30 3478 H 365.181 -2.78498 -4.25812 0
M  V30 3479 H 364.579 0.0723518 -5.65654 0
M  V30 3480 H 363.136 -0.301089 -6.51104 0
M  V30 3481 N 366.569 1.04691 -1.17803 0
M  V30 3482 C 367.815 1.78045 -0.970969 0
M  V30 3483 C 368.148 1.87686 0.498751 0
M  V30 3484 O 367.423 1.38035 1.37027 0
M  V30 3485 C 367.706 3.2166 -1.61884 0
M  V30 3486 C 367.559 3.20001 -3.161 0
M  V30 3487 C 368.878 4.1962 -1.3269 0
M  V30 3488 H 365.997 0.64633 -0.354155 0
M  V30 3489 H 368.639 1.22333 -1.45378 0
M  V30 3490 H 366.789 3.69232 -1.20831 0
M  V30 3491 H 368.461 2.80467 -3.66246 0
M  V30 3492 H 366.704 2.58203 -3.48588 0
M  V30 3493 H 367.375 4.21386 -3.56564 0
M  V30 3494 H 369.851 3.80567 -1.68249 0
M  V30 3495 H 368.727 5.18339 -1.80599 0
M  V30 3496 H 368.988 4.414 -0.248622 0
M  V30 3497 N 368.047 0.979072 1.23499 0
M  V30 3498 C 368.979 0.476271 2.24197 0
M  V30 3499 C 369.992 -0.421166 1.57258 0
M  V30 3500 O 371.181 -0.225515 1.7707 0
M  V30 3501 C 368.281 -0.330503 3.37285 0
M  V30 3502 C 367.454 0.559744 4.33804 0
M  V30 3503 C 366.513 -0.192954 5.25846 0
M  V30 3504 O 365.539 0.416978 5.67671 0
M  V30 3505 N 366.741 -1.47932 5.61334 0
M  V30 3506 H 369.506 1.34211 2.67969 0
M  V30 3507 H 367.067 0.852189 1.37657 0
M  V30 3508 H 369.059 -0.842361 3.95836 0
M  V30 3509 H 367.629 -1.09734 2.92707 0
M  V30 3510 H 366.849 1.25245 3.73775 0
M  V30 3511 H 368.137 1.1665 4.95248 0
M  V30 3512 H 367.535 -1.9964 5.29302 0
M  V30 3513 H 366.092 -1.93664 6.22364 0
M  V30 3514 N 369.525 -1.3858 0.750561 0
M  V30 3515 C 370.488 -2.28836 0.129152 0
M  V30 3516 C 371.488 -1.47045 -0.650714 0
M  V30 3517 O 372.678 -1.6753 -0.477428 0
M  V30 3518 C 369.81 -3.30751 -0.825622 0
M  V30 3519 H 371.003 -2.85294 0.924516 0
M  V30 3520 H 368.556 -1.47489 0.517376 0
M  V30 3521 H 369.291 -2.79378 -1.64677 0
M  V30 3522 H 369.076 -3.91177 -0.268852 0
M  V30 3523 H 370.566 -3.98249 -1.2565 0
M  V30 3524 N 371.003 -0.499398 -1.49478 0
M  V30 3525 C 371.913 0.284489 -2.32869 0
M  V30 3526 C 372.929 0.968885 -1.44529 0
M  V30 3527 O 374.105 0.95062 -1.77553 0
M  V30 3528 C 371.17 1.33594 -3.19928 0
M  V30 3529 C 370.231 0.665149 -4.24116 0
M  V30 3530 C 369.464 1.6665 -5.07014 0
M  V30 3531 O 369.687 2.89618 -4.91404 0
M  V30 3532 O 368.621 1.22271 -5.8935 0
M  V30 3533 H 372.447 -0.39802 -3.01081 0
M  V30 3534 H 370.032 -0.260758 -1.47107 0
M  V30 3535 H 371.914 1.94431 -3.73864 0
M  V30 3536 H 370.589 2.0014 -2.54412 0
M  V30 3537 H 369.496 0.0170769 -3.74096 0
M  V30 3538 H 370.829 0.0421555 -4.92182 0
M  V30 3539 N 372.481 1.55866 -0.233164 0
M  V30 3540 C 373.413 2.18099 0.704668 0
M  V30 3541 C 374.426 1.15334 1.14899 0
M  V30 3542 O 375.615 1.42262 1.07814 0
M  V30 3543 C 372.715 2.7592 1.96777 0
M  V30 3544 C 371.888 4.03969 1.67713 0
M  V30 3545 C 370.947 4.46242 2.78845 0
M  V30 3546 O 369.973 5.12903 2.46818 0
M  V30 3547 N 371.175 4.12886 4.08051 0
M  V30 3548 H 373.94 2.99205 0.172258 0
M  V30 3549 H 371.501 1.61815 -0.0525945 0
M  V30 3550 H 373.493 3.01165 2.70337 0
M  V30 3551 H 372.063 1.99051 2.41034 0
M  V30 3552 H 371.283 3.86459 0.777391 0
M  V30 3553 H 372.571 4.8748 1.4574 0
M  V30 3554 H 371.969 3.59342 4.3691 0
M  V30 3555 H 370.526 4.42997 4.78118 0
M  V30 3556 N 373.959 -0.0401083 1.57549 0
M  V30 3557 C 375.184 -0.748931 1.93406 0
M  V30 3558 C 375.609 -1.68686 0.832274 0
M  V30 3559 O 374.967 -1.80047 -0.212818 0
M  V30 3560 C 375.015 -1.4916 3.28304 0
M  V30 3561 O 374.119 -2.6042 3.19774 0
M  V30 3562 H 373.46 -0.202212 0.63246 0
M  V30 3563 H 375.99 0.00112086 2.046 0
M  V30 3564 H 376 -1.86395 3.62934 0
M  V30 3565 H 374.675 -0.80364 4.08062 0
M  V30 3566 H 373.252 -2.25808 2.96758 0
M  V30 3567 N 375.437 -1.54477 -0.31217 0
M  V30 3568 C 376.367 -1.87652 -1.38957 0
M  V30 3569 C 377.348 -0.734358 -1.53431 0
M  V30 3570 O 378.533 -0.98911 -1.67123 0
M  V30 3571 C 375.663 -2.11396 -2.75552 0
M  V30 3572 C 374.617 -3.27243 -2.75855 0
M  V30 3573 C 373.943 -3.36382 -4.15633 0
M  V30 3574 C 375.243 -4.64622 -2.38587 0
M  V30 3575 H 376.937 -2.77887 -1.11442 0
M  V30 3576 H 374.483 -1.33707 -0.534655 0
M  V30 3577 H 376.436 -2.33189 -3.51 0
M  V30 3578 H 375.16 -1.17921 -3.04569 0
M  V30 3579 H 373.819 -3.05356 -2.02863 0
M  V30 3580 H 373.467 -2.40445 -4.41809 0
M  V30 3581 H 373.167 -4.14249 -4.1674 0
M  V30 3582 H 374.691 -3.60422 -4.92877 0
M  V30 3583 H 376.105 -4.86219 -3.03749 0
M  V30 3584 H 374.502 -5.45121 -2.50925 0
M  V30 3585 H 375.572 -4.66097 -1.33723 0
M  V30 3586 N 376.915 0.57481 -1.46744 0
M  V30 3587 C 378.164 1.32898 -1.51727 0
M  V30 3588 C 378.477 1.948 -0.176692 0
M  V30 3589 O 379.683 2.71299 -0.104385 0
M  V30 3590 C 378.139 2.40901 -2.67385 0
M  V30 3591 C 377.747 1.85266 -4.07898 0
M  V30 3592 C 379.491 3.17609 -2.81646 0
M  V30 3593 C 377.398 2.90945 -5.14883 0
M  V30 3594 H 376.328 0.499631 -0.564699 0
M  V30 3595 H 378.979 0.612536 -1.72975 0
M  V30 3596 H 377.361 3.15379 -2.39483 0
M  V30 3597 H 378.535 1.17278 -4.45626 0
M  V30 3598 H 376.85 1.21199 -3.98371 0
M  V30 3599 H 379.447 3.96493 -3.58744 0
M  V30 3600 H 379.79 3.70696 -1.89448 0
M  V30 3601 H 380.323 2.50239 -3.09233 0
M  V30 3602 H 377.062 2.42736 -6.089 0
M  V30 3603 H 376.582 3.57398 -4.81691 0
M  V30 3604 H 378.261 3.54755 -5.41071 0
M  V30 3605 N 378.394 1.34581 0.820102 0
M  V30 3606 C 379.64 1.27285 1.57881 0
M  V30 3607 C 379.973 -0.156137 1.93571 0
M  V30 3608 O 379.248 -1.10222 1.60254 0
M  V30 3609 C 379.531 2.16639 2.87645 0
M  V30 3610 C 379.384 3.68088 2.58517 0
M  V30 3611 C 380.703 2.05378 3.8924 0
M  V30 3612 H 377.822 0.463714 0.572833 0
M  V30 3613 H 380.464 1.64859 0.944539 0
M  V30 3614 H 378.614 1.84725 3.41773 0
M  V30 3615 H 380.286 4.10382 2.10676 0
M  V30 3616 H 378.529 3.89038 1.91917 0
M  V30 3617 H 379.2 4.2598 3.51063 0
M  V30 3618 H 381.676 2.33404 3.44473 0
M  V30 3619 H 380.552 2.7012 4.77835 0
M  V30 3620 H 380.813 1.0316 4.29896 0
M  V30 3621 N 379.872 -1.04064 1.18357 0
M  V30 3622 C 380.802 -2.14001 0.934113 0
M  V30 3623 C 381.783 -1.69616 -0.128186 0
M  V30 3624 O 382.968 -1.94185 0.0244093 0
M  V30 3625 C 380.098 -3.44253 0.459066 0
M  V30 3626 C 379.052 -4.02261 1.46185 0
M  V30 3627 C 378.378 -5.27992 0.844322 0
M  V30 3628 C 379.678 -4.38432 2.83856 0
M  V30 3629 H 381.372 -2.35127 1.85352 0
M  V30 3630 H 378.918 -1.12998 0.892604 0
M  V30 3631 H 380.871 -4.20522 0.271907 0
M  V30 3632 H 379.595 -3.22813 -0.495912 0
M  V30 3633 H 378.254 -3.28074 1.63595 0
M  V30 3634 H 377.902 -5.02862 -0.117845 0
M  V30 3635 H 377.602 -5.67765 1.51384 0
M  V30 3636 H 379.126 -6.06938 0.667693 0
M  V30 3637 H 380.54 -5.05688 2.70098 0
M  V30 3638 H 378.937 -4.89254 3.47491 0
M  V30 3639 H 380.007 -3.4826 3.37406 0
M  V30 3640 N 381.35 -0.985608 -1.22978 0
M  V30 3641 C 382.26 -0.538548 -2.28335 0
M  V30 3642 C 383.276 0.409163 -1.69121 0
M  V30 3643 O 384.452 0.277797 -1.99475 0
M  V30 3644 C 381.517 0.146867 -3.46389 0
M  V30 3645 C 380.578 -0.842896 -4.20944 0
M  V30 3646 C 379.811 -0.190095 -5.33361 0
M  V30 3647 O 380.034 1.01767 -5.61248 0
M  V30 3648 O 378.968 -0.891289 -5.95264 0
M  V30 3649 H 382.794 -1.41487 -2.68729 0
M  V30 3650 H 380.379 -0.753495 -1.29007 0
M  V30 3651 H 382.261 0.531125 -4.1804 0
M  V30 3652 H 380.936 0.997871 -3.07935 0
M  V30 3653 H 379.843 -1.27795 -3.51595 0
M  V30 3654 H 381.176 -1.66287 -4.6326 0
M  V30 3655 N 382.828 1.3818 -0.7579 0
M  V30 3656 C 384.053 2.04827 -0.325679 0
M  V30 3657 C 384.478 1.56788 1.03919 0
M  V30 3658 O 383.836 0.721811 1.66312 0
M  V30 3659 C 383.884 3.58774 -0.362447 0
M  V30 3660 O 382.988 4.07372 0.642033 0
M  V30 3661 H 382.329 0.64833 -0.143402 0
M  V30 3662 H 384.859 1.7677 -1.03023 0
M  V30 3663 H 384.869 4.07434 -0.214844 0
M  V30 3664 H 383.544 3.93096 -1.35824 0
M  V30 3665 H 382.121 3.70068 0.458688 0
M  V30 3666 N 384.306 0.507319 1.49211 0
M  V30 3667 C 385.583 -0.0982702 1.95353 0
M  V30 3668 C 385.963 -1.53516 1.449 0
M  V30 3669 O 385.311 -2.18594 0.66551 0
M  V30 3670 C 385.521 -0.00440283 3.49 0
M  V30 3671 C 386.869 -0.175147 4.24239 0
M  V30 3672 O 387.893 -0.0792891 3.56112 0
M  V30 3673 O 386.752 -0.37276 5.45227 0
M  V30 3674 H 383.846 -0.0918236 0.821887 0
M  V30 3675 H 386.392 0.570307 1.5983 0
M  V30 3676 H 385.164 0.997402 3.78375 0
M  V30 3677 H 384.787 -0.712845 3.91158 0
M  V30 3678 N 385.784 -1.5574 0.241426 0
M  V30 3679 C 386.731 -2.21149 -0.660432 0
M  V30 3680 C 387.701 -1.17356 -1.17545 0
M  V30 3681 O 388.886 -1.45784 -1.23093 0
M  V30 3682 C 386.026 -2.91059 -1.85414 0
M  V30 3683 C 385.139 -4.09495 -1.37616 0
M  V30 3684 C 384.274 -4.67135 -2.529 0
M  V30 3685 C 383.313 -5.77831 -2.01936 0
M  V30 3686 N 382.45 -6.29677 -3.10566 0
M  V30 3687 H 387.29 -2.97845 -0.095955 0
M  V30 3688 H 384.827 -1.47057 -0.0356024 0
M  V30 3689 H 386.785 -3.29788 -2.5553 0
M  V30 3690 H 385.415 -2.16846 -2.39118 0
M  V30 3691 H 384.467 -3.76117 -0.569235 0
M  V30 3692 H 385.779 -4.89423 -0.962618 0
M  V30 3693 H 384.933 -5.08409 -3.31067 0
M  V30 3694 H 383.672 -3.86411 -2.97553 0
M  V30 3695 H 382.677 -5.36039 -1.22238 0
M  V30 3696 H 383.902 -6.60402 -1.58259 0
M  V30 3697 H 381.848 -5.5186 -3.54664 0
M  V30 3698 H 381.765 -7.04783 -2.73526 0
M  V30 3699 H 383.033 -6.75609 -3.88809 0
M  V30 3700 N 387.262 0.0317525 -1.57568 0
M  V30 3701 C 388.225 1.01783 -2.0536 0
M  V30 3702 C 389.225 1.29203 -0.957253 0
M  V30 3703 O 390.415 1.24251 -1.22095 0
M  V30 3704 C 387.547 2.35137 -2.46827 0
M  V30 3705 H 388.74 0.605062 -2.93733 0
M  V30 3706 H 386.293 0.278514 -1.53799 0
M  V30 3707 H 387.028 2.81168 -1.61602 0
M  V30 3708 H 386.813 2.16566 -3.26866 0
M  V30 3709 H 388.303 3.05938 -2.84239 0
M  V30 3710 N 388.74 1.54641 0.303973 0
M  V30 3711 C 389.965 1.78092 1.06292 0
M  V30 3712 C 390.39 0.537342 1.80262 0
M  V30 3713 O 389.748 -0.511993 1.7392 0
M  V30 3714 C 389.796 2.98612 2.02147 0
M  V30 3715 O 388.9 2.71528 3.10397 0
M  V30 3716 H 388.241 0.589548 0.305497 0
M  V30 3717 H 390.771 2.01716 0.3423 0
M  V30 3718 H 390.781 3.265 2.44667 0
M  V30 3719 H 389.456 3.88785 1.47714 0
M  V30 3720 H 388.033 2.54648 2.72413 0
M  V30 3721 N 390.218 -0.567019 1.47046 0
M  V30 3722 C 391.151 -1.69016 1.53326 0
M  V30 3723 C 392.129 -1.57949 0.386126 0
M  V30 3724 O 393.313 -1.78945 0.592529 0
M  V30 3725 C 390.44 -3.07191 1.42658 0
M  V30 3726 C 389.486 -3.36733 2.6175 0
M  V30 3727 S 390.319 -3.27069 4.24012 0
M  V30 3728 C 391.475 -4.67755 4.1588 0
M  V30 3729 H 391.708 -1.63434 2.48348 0
M  V30 3730 H 389.241 -0.747048 1.35124 0
M  V30 3731 H 391.199 -3.86897 1.37191 0
M  V30 3732 H 389.86 -3.10249 0.490369 0
M  V30 3733 H 389.053 -4.37441 2.50323 0
M  V30 3734 H 388.655 -2.64627 2.64289 0
M  V30 3735 H 390.947 -5.58491 3.83529 0
M  V30 3736 H 391.89 -4.84239 5.16641 0
M  V30 3737 H 392.298 -4.45341 3.46889 0
M  V30 3738 N 391.696 -1.35014 -0.812953 0
M  V30 3739 C 392.606 -1.2951 -1.95613 0
M  V30 3740 C 393.622 -0.20107 -1.72834 0
M  V30 3741 O 394.798 -0.42932 -1.96771 0
M  V30 3742 C 391.863 -1.06033 -3.30088 0
M  V30 3743 C 390.924 -2.24688 -3.65805 0
M  V30 3744 C 390.157 -2.02322 -4.93864 0
M  V30 3745 O 390.38 -0.986464 -5.61805 0
M  V30 3746 O 389.314 -2.89525 -5.27692 0
M  V30 3747 H 393.14 -2.25705 -2.03202 0
M  V30 3748 H 390.725 -1.15321 -0.949811 0
M  V30 3749 H 392.607 -0.94763 -4.10607 0
M  V30 3750 H 391.282 -0.128852 -3.23443 0
M  V30 3751 H 390.189 -2.41521 -2.85689 0
M  V30 3752 H 391.522 -3.16261 -3.77147 0
M  V30 3753 N 393.175 1.03435 -1.18907 0
M  V30 3754 C 394.424 1.76143 -0.982669 0
M  V30 3755 C 394.737 1.89416 0.487953 0
M  V30 3756 O 395.943 2.59041 0.813036 0
M  V30 3757 C 394.399 3.16722 -1.70924 0
M  V30 3758 C 394.007 3.11522 -3.21959 0
M  V30 3759 C 395.751 3.93764 -1.58588 0
M  V30 3760 C 393.658 4.46999 -3.87228 0
M  V30 3761 H 392.588 0.660292 -0.364047 0
M  V30 3762 H 395.239 1.158 -1.42347 0
M  V30 3763 H 393.621 3.775 -1.19623 0
M  V30 3764 H 394.795 2.60158 -3.80335 0
M  V30 3765 H 393.11 2.47978 -3.34508 0
M  V30 3766 H 395.707 4.93963 -2.04707 0
M  V30 3767 H 396.05 4.12794 -0.539142 0
M  V30 3768 H 396.583 3.39576 -2.07203 0
M  V30 3769 H 393.322 4.33174 -4.91976 0
M  V30 3770 H 392.842 4.98441 -3.33642 0
M  V30 3771 H 394.521 5.15898 -3.90459 0
M  V30 3772 N 394.653 0.992116 1.22453 0
M  V30 3773 C 396.064 0.702776 1.72968 0
M  V30 3774 C 396.415 -0.780399 1.80012 0
M  V30 3775 O 395.54 -1.61007 1.44589 0
M  V30 3776 C 396.135 1.26903 3.14135 0
M  V30 3777 C 394.694 1.02909 3.62059 0
M  V30 3778 C 393.841 1.38969 2.39964 0
M  V30 3779 H 396.792 1.16457 1.07812 0
M  V30 3780 H 396.813 0.647223 3.74955 0
M  V30 3781 H 396.325 2.34851 3.08977 0
M  V30 3782 H 394.426 -0.0337979 3.72585 0
M  V30 3783 H 394.539 1.69191 4.48231 0
M  V30 3784 H 392.903 0.808279 2.41535 0
M  V30 3785 H 393.686 2.4792 2.37467 0
M  V30 3786 N 396.131 -1.37776 0.765217 0
M  V30 3787 C 397.356 -2.04651 0.336537 0
M  V30 3788 C 397.781 -1.57337 -1.03086 0
M  V30 3789 O 397.139 -0.730621 -1.65927 0
M  V30 3790 C 397.187 -3.58577 0.381468 0
M  V30 3791 O 396.291 -4.07706 -0.62042 0
M  V30 3792 H 395.632 -0.64756 0.146838 0
M  V30 3793 H 398.162 -1.76221 1.03959 0
M  V30 3794 H 398.172 -4.07314 0.236448 0
M  V30 3795 H 396.847 -3.9237 1.37907 0
M  V30 3796 H 395.424 -3.70306 -0.439056 0
M  V30 3797 N 397.609 -0.515225 -1.4894 0
M  V30 3798 C 399.02 -0.0710067 -1.86565 0
M  V30 3799 C 399.371 1.34733 -1.42623 0
M  V30 3800 O 398.496 2.00653 -0.810379 0
M  V30 3801 C 399.091 -0.122083 -3.3858 0
M  V30 3802 C 397.65 0.266863 -3.75453 0
M  V30 3803 C 396.797 -0.488376 -2.72966 0
M  V30 3804 H 399.748 -0.727266 -1.41055 0
M  V30 3805 H 399.769 0.669818 -3.74558 0
M  V30 3806 H 399.281 -1.15448 -3.70531 0
M  V30 3807 H 397.382 1.30196 -3.49113 0
M  V30 3808 H 397.495 -0.0624811 -4.79059 0
M  V30 3809 H 395.859 0.0635622 -2.54621 0
M  V30 3810 H 396.642 -1.52113 -3.07761 0
M  V30 3811 N 399.087 1.5561 -0.249682 0
M  V30 3812 C 400.05 2.20217 0.635394 0
M  V30 3813 C 401.05 1.17227 1.10066 0
M  V30 3814 O 402.24 1.42292 1.00492 0
M  V30 3815 C 399.372 2.84794 1.87363 0
M  V30 3816 H 400.565 2.99814 0.0716752 0
M  V30 3817 H 398.118 1.563 -0.000153234 0
M  V30 3818 H 398.853 2.09142 2.47851 0
M  V30 3819 H 398.638 3.60241 1.5482 0
M  V30 3820 H 400.128 3.3423 2.5036 0
M  V30 3821 N 400.565 -0.0233959 1.57583 0
M  V30 3822 C 401.528 -1.00693 2.05897 0
M  V30 3823 C 402.528 -1.28693 0.964092 0
M  V30 3824 O 403.718 -1.23602 1.22753 0
M  V30 3825 C 400.85 -2.33825 2.4807 0
M  V30 3826 H 402.043 -0.589476 2.9405 0
M  V30 3827 H 399.596 -0.270354 1.53944 0
M  V30 3828 H 400.331 -2.80307 1.6309 0
M  V30 3829 H 400.116 -2.1483 3.2801 0
M  V30 3830 H 401.606 -3.04426 2.85857 0
M  V30 3831 N 402.043 -1.548 -0.295768 0
M  V30 3832 C 403.291 -1.73985 -1.02828 0
M  V30 3833 C 403.612 -0.531406 -1.87619 0
M  V30 3834 O 402.882 0.454221 -1.90561 0
M  V30 3835 H 401.462 -0.641556 -0.382642 0
M  V30 3836 H 404.124 -1.92163 -0.325489 0
M  V30 3837 H 403.22 -2.63129 -1.67838 0
M  V30 3838 N 403.521 0.559213 -1.47345 0
M  V30 3839 C 404.767 1.31843 -1.54095 0
M  V30 3840 C 405.1 1.93149 -0.201726 0
M  V30 3841 O 404.375 1.77759 0.789428 0
M  V30 3842 C 404.658 2.43006 -2.65744 0
M  V30 3843 C 404.511 1.86581 -4.09277 0
M  V30 3844 C 405.83 3.44943 -2.73318 0
M  V30 3845 H 402.949 0.478012 -0.560957 0
M  V30 3846 H 405.591 0.625977 -1.79392 0
M  V30 3847 H 403.741 3.02072 -2.44305 0
M  V30 3848 H 405.413 1.31792 -4.42073 0
M  V30 3849 H 403.656 1.17268 -4.17649 0
M  V30 3850 H 404.327 2.66933 -4.83168 0
M  V30 3851 H 406.803 2.95793 -2.92653 0
M  V30 3852 H 405.679 4.20153 -3.53218 0
M  V30 3853 H 405.94 4.03665 -1.80296 0
M  V30 3854 N 404.999 1.35443 0.805782 0
M  V30 3855 C 406.245 1.28952 1.56522 0
M  V30 3856 C 406.578 -0.135597 1.93726 0
M  V30 3857 O 405.853 -1.08516 1.61414 0
M  V30 3858 C 406.136 2.19678 2.85331 0
M  V30 3859 C 405.989 3.7081 2.54598 0
M  V30 3860 C 407.308 2.09495 3.8704 0
M  V30 3861 H 404.427 0.469764 0.567883 0
M  V30 3862 H 407.069 1.65851 0.927001 0
M  V30 3863 H 405.219 1.8834 3.39795 0
M  V30 3864 H 406.891 4.12593 2.06312 0
M  V30 3865 H 405.134 3.91051 1.8778 0
M  V30 3866 H 405.805 4.29679 3.46525 0
M  V30 3867 H 408.281 2.37045 3.41978 0
M  V30 3868 H 407.157 2.75173 4.74943 0
M  V30 3869 H 407.418 1.07714 4.28777 0
M  V30 3870 N 406.477 -1.02803 1.19454 0
M  V30 3871 C 407.387 -2.14575 0.948408 0
M  V30 3872 C 408.403 -1.73757 -0.091871 0
M  V30 3873 O 409.579 -2.01185 0.0929654 0
M  V30 3874 C 406.644 -3.43202 0.491265 0
M  V30 3875 C 405.705 -3.98328 1.60103 0
M  V30 3876 C 404.938 -5.20816 1.16561 0
M  V30 3877 O 405.161 -5.70392 0.0295238 0
M  V30 3878 O 404.095 -5.68801 1.96849 0
M  V30 3879 H 407.921 -2.38202 1.88397 0
M  V30 3880 H 405.506 -1.12989 0.977433 0
M  V30 3881 H 407.388 -4.20687 0.245015 0
M  V30 3882 H 406.063 -3.21018 -0.415851 0
M  V30 3883 H 404.97 -3.22174 1.90144 0
M  V30 3884 H 406.303 -4.24879 2.48473 0
M  V30 3885 N 407.956 -0.998596 -1.21925 0
M  V30 3886 C 409.181 -0.696015 -1.95372 0
M  V30 3887 C 409.606 0.733826 -1.73195 0
M  V30 3888 O 408.964 1.50242 -1.01474 0
M  V30 3889 C 409.012 -1.01466 -3.4603 0
M  V30 3890 O 408.116 -0.116415 -4.12236 0
M  V30 3891 H 407.457 -0.259938 -0.611006 0
M  V30 3892 H 409.987 -1.33711 -1.54863 0
M  V30 3893 H 409.997 -0.958855 -3.96573 0
M  V30 3894 H 408.672 -2.05653 -3.61497 0
M  V30 3895 H 407.249 -0.228193 -3.72201 0
M  V30 3896 N 409.434 1.37368 -0.772513 0
M  V30 3897 C 410.68 1.99969 -0.337681 0
M  V30 3898 C 411.013 1.61184 1.08321 0
M  V30 3899 O 410.288 0.858395 1.74533 0
M  V30 3900 C 410.571 3.56858 -0.482121 0
M  V30 3901 C 410.424 4.0555 -1.94549 0
M  V30 3902 C 411.743 4.39955 0.113143 0
M  V30 3903 H 408.862 0.726464 -0.124171 0
M  V30 3904 H 411.504 1.63034 -0.975699 0
M  V30 3905 H 409.654 3.88452 0.0610361 0
M  V30 3906 H 411.326 3.84518 -2.54841 0
M  V30 3907 H 409.569 3.57715 -2.45403 0
M  V30 3908 H 410.24 5.14587 -1.9976 0
M  V30 3909 H 412.716 4.14623 -0.35031 0
M  V30 3910 H 411.592 5.48897 -0.0180514 0
M  V30 3911 H 411.853 4.25403 1.20354 0
M  V30 3912 N 410.912 0.523116 1.48665 0
M  V30 3913 C 411.875 -0.232592 2.28017 0
M  V30 3914 C 412.875 -0.874021 1.34972 0
M  V30 3915 O 414.065 -0.735132 1.57929 0
M  V30 3916 C 411.197 -1.33586 3.13636 0
M  V30 3917 H 412.39 0.464008 2.96289 0
M  V30 3918 H 409.943 0.278816 1.53793 0
M  V30 3919 H 410.678 -2.06593 2.4998 0
M  V30 3920 H 410.463 -0.881125 3.82071 0
M  V30 3921 H 411.953 -1.86759 3.73511 0
M  V30 3922 N 412.39 -1.55475 0.257931 0
M  V30 3923 C 413.636 -1.99502 -0.364266 0
M  V30 3924 C 413.969 -1.146 -1.56782 0
M  V30 3925 O 413.244 -0.211968 -1.93342 0
M  V30 3926 C 413.527 -3.51917 -0.763333 0
M  V30 3927 C 413.38 -4.4758 0.446371 0
M  V30 3928 C 414.699 -4.09742 -1.60623 0
M  V30 3929 H 411.818 -0.725277 -0.130929 0
M  V30 3930 H 414.46 -1.8653 0.361446 0
M  V30 3931 H 412.61 -3.63101 -1.38166 0
M  V30 3932 H 414.282 -4.48362 1.08487 0
M  V30 3933 H 412.525 -4.19947 1.08753 0
M  V30 3934 H 413.196 -5.51862 0.123645 0
M  V30 3935 H 415.672 -4.01727 -1.08418 0
M  V30 3936 H 414.548 -5.16631 -1.85429 0
M  V30 3937 H 414.809 -3.58889 -2.58169 0
M  V30 3938 N 413.868 0.0150385 -1.57593 0
M  V30 3939 C 414.8 1.03912 -2.04291 0
M  V30 3940 C 415.813 1.31618 -0.958146 0
M  V30 3941 O 417.002 1.28859 -1.23522 0
M  V30 3942 C 414.102 2.37749 -2.41514 0
M  V30 3943 C 413.275 2.29198 -3.72541 0
M  V30 3944 C 412.334 3.45598 -3.96797 0
M  V30 3945 O 411.36 3.24461 -4.67668 0
M  V30 3946 N 412.562 4.67945 -3.43523 0
M  V30 3947 H 415.327 0.64099 -2.92765 0
M  V30 3948 H 412.888 0.20272 -1.60626 0
M  V30 3949 H 414.88 3.14364 -2.54867 0
M  V30 3950 H 413.45 2.69357 -1.58637 0
M  V30 3951 H 412.67 1.3759 -3.69408 0
M  V30 3952 H 413.958 2.20642 -4.5847 0
M  V30 3953 H 413.356 4.88017 -2.86104 0
M  V30 3954 H 411.913 5.41878 -3.62232 0
M  V30 3955 N 415.346 1.54954 0.287554 0
M  V30 3956 C 416.276 1.89839 1.35954 0
M  V30 3957 C 417.257 0.758675 1.52244 0
M  V30 3958 O 418.442 1.01557 1.65529 0
M  V30 3959 C 415.572 2.15753 2.72154 0
M  V30 3960 C 414.526 3.3159 2.70614 0
M  V30 3961 C 413.852 3.42952 4.10229 0
M  V30 3962 C 415.152 4.68359 2.31165 0
M  V30 3963 H 416.846 2.79625 1.07007 0
M  V30 3964 H 414.392 1.3454 0.513316 0
M  V30 3965 H 416.345 2.38743 3.47246 0
M  V30 3966 H 415.069 1.22752 3.02654 0
M  V30 3967 H 413.728 3.08545 1.97979 0
M  V30 3968 H 413.376 2.47443 4.37928 0
M  V30 3969 H 413.076 4.20826 4.10097 0
M  V30 3970 H 414.6 3.68218 4.87081 0
M  V30 3971 H 416.014 4.9099 2.95976 0
M  V30 3972 H 414.411 5.49044 2.42221 0
M  V30 3973 H 415.481 4.68165 1.26291 0
M  V30 3974 N 416.824 -0.551391 1.4764 0
M  V30 3975 C 417.772 -1.67896 1.60978 0
M  V30 3976 C 418.766 -1.62549 0.476877 0
M  V30 3977 O 419.972 -1.67664 0.654878 0
M  V30 3978 H 416.347 -0.555649 0.506713 0
M  V30 3979 H 418.318 -1.53784 2.55721 0
M  V30 3980 C 417.067 -3.06234 1.64669 0
M  V30 3981 H 416.39 -3.11033 2.51194 0
M  V30 3982 H 417.83 -3.84804 1.7805 0
M  V30 3983 C 416.289 -3.34737 0.381115 0
M  V30 3984 O 416.819 -3.98381 -0.515297 0
M  V30 3985 N 415.025 -2.8944 0.259354 0
M  V30 3986 H 414.572 -2.37827 0.98976 0
M  V30 3987 H 414.53 -3.08882 -0.586464 0
M  V30 3988 N 418.302 -1.35869 -0.798587 0
M  V30 3989 C 419.265 -1.29307 -1.89242 0
M  V30 3990 C 420.265 -0.202747 -1.59517 0
M  V30 3991 O 421.455 -0.456957 -1.681 0
M  V30 3992 C 418.587 -1.00229 -3.25833 0
M  V30 3993 H 419.78 -2.26576 -1.96478 0
M  V30 3994 H 417.333 -1.20509 -0.995358 0
M  V30 3995 H 418.068 -0.033801 -3.24282 0
M  V30 3996 H 417.853 -1.79121 -3.48795 0
M  V30 3997 H 419.343 -0.98219 -4.05885 0
M  V30 3998 N 419.78 1.02168 -1.19998 0
M  V30 3999 C 420.69 2.14069 -0.959774 0
M  V30 4000 C 421.706 1.73804 0.082655 0
M  V30 4001 O 422.882 2.01133 -0.103633 0
M  V30 4002 C 419.947 3.42936 -0.509459 0
M  V30 4003 C 419.008 3.97474 -1.62213 0
M  V30 4004 C 418.241 5.2019 -1.19321 0
M  V30 4005 O 418.464 5.70369 -0.0597726 0
M  V30 4006 O 417.398 5.67749 -1.99863 0
M  V30 4007 H 421.224 2.37199 -1.89658 0
M  V30 4008 H 418.809 1.12469 -0.983411 0
M  V30 4009 H 420.691 4.20551 -0.267322 0
M  V30 4010 H 419.366 3.21234 0.398821 0
M  V30 4011 H 418.273 3.21161 -1.9185 0
M  V30 4012 H 419.606 4.23555 -2.50723 0
M  V30 4013 N 421.258 1.00505 1.21394 0
M  V30 4014 C 422.504 0.688793 1.90745 0
M  V30 4015 C 422.837 -0.778486 1.77914 0
M  V30 4016 O 422.112 -1.56433 1.15581 0
M  V30 4017 C 422.395 1.11063 3.42545 0
M  V30 4018 C 422.248 2.63737 3.64367 0
M  V30 4019 C 423.567 0.673059 4.34923 0
M  V30 4020 H 420.686 0.251702 0.692687 0
M  V30 4021 H 423.328 1.25074 1.43026 0
M  V30 4022 H 421.478 0.632508 3.83317 0
M  V30 4023 H 423.15 3.19313 3.32922 0
M  V30 4024 H 421.393 3.05248 3.08231 0
M  V30 4025 H 422.064 2.88305 4.70727 0
M  V30 4026 H 424.54 1.08392 4.01734 0
M  V30 4027 H 423.416 0.996383 5.39781 0
M  V30 4028 H 423.677 -0.425808 4.40045 0
M  V30 4029 N 422.737 -1.36956 0.779787 0
M  V30 4030 C 423.985 -1.99097 0.347079 0
M  V30 4031 C 424.306 -1.62206 -1.08232 0
M  V30 4032 O 423.576 -0.891373 -1.74446 0
M  V30 4033 H 422.156 -0.736409 0.125342 0
M  V30 4034 H 424.818 -1.67308 0.999696 0
M  V30 4035 H 423.914 -3.09107 0.431162 0
M  V30 4036 N 424.215 -0.530993 -1.48385 0
M  V30 4037 C 425.443 -0.00134122 -2.069 0
M  V30 4038 C 425.858 1.2805 -1.3874 0
M  V30 4039 O 425.215 1.76204 -0.475244 0
M  V30 4040 C 425.266 0.225256 -3.60798 0
M  V30 4041 O 424.987 -1.0058 -4.26398 0
M  V30 4042 C 426.488 0.795172 -4.3611 0
M  V30 4043 H 423.708 -0.0339704 -0.67014 0
M  V30 4044 H 426.252 -0.736926 -1.90761 0
M  V30 4045 H 424.407 0.910891 -3.76539 0
M  V30 4046 H 424.821 -0.787165 -5.1856 0
M  V30 4047 H 426.295 0.903143 -5.44562 0
M  V30 4048 H 426.772 1.80031 -4.00606 0
M  V30 4049 H 427.378 0.146069 -4.25049 0
M  V30 4050 N 425.693 1.55336 -0.266172 0
M  V30 4051 C 426.941 1.99003 0.35246 0
M  V30 4052 C 427.262 1.15591 1.57047 0
M  V30 4053 O 426.532 0.243268 1.94384 0
M  V30 4054 H 425.112 0.735025 0.133217 0
M  V30 4055 H 427.774 1.91367 -0.369434 0
M  V30 4056 H 426.87 3.05289 0.648453 0
M  V30 4057 N 427.171 -0.0066808 1.57599 0
M  V30 4058 C 428.448 -0.729586 1.81484 0
M  V30 4059 C 428.828 -1.92359 0.869558 0
M  V30 4060 O 428.176 -2.28348 -0.0832533 0
M  V30 4061 C 428.386 -1.1416 3.29801 0
M  V30 4062 C 429.734 -1.54823 3.95367 0
M  V30 4063 O 430.758 -1.23558 3.34084 0
M  V30 4064 O 429.617 -2.12937 5.03309 0
M  V30 4065 H 426.711 -0.354674 0.747085 0
M  V30 4066 H 429.257 0.0182609 1.6969 0
M  V30 4067 H 428.029 -0.290231 3.90222 0
M  V30 4068 H 427.652 -1.94876 3.46568 0
M  V30 4069 N 428.649 -1.55105 -0.279332 0
M  V30 4070 C 429.581 -1.83952 -1.36727 0
M  V30 4071 C 430.594 -0.723642 -1.45833 0
M  V30 4072 O 431.783 -1.00141 -1.47763 0
M  V30 4073 C 428.883 -1.98183 -2.74912 0
M  V30 4074 C 428.056 -3.28787 -2.88475 0
M  V30 4075 C 427.115 -3.33162 -4.07295 0
M  V30 4076 O 426.141 -4.06576 -3.98353 0
M  V30 4077 N 427.343 -2.60109 -5.18964 0
M  V30 4078 H 430.108 -2.77853 -1.12328 0
M  V30 4079 H 427.669 -1.54945 -0.469442 0
M  V30 4080 H 429.661 -1.98488 -3.52682 0
M  V30 4081 H 428.231 -1.11177 -2.92162 0
M  V30 4082 H 427.451 -3.41075 -1.97641 0
M  V30 4083 H 428.739 -4.14933 -2.94463 0
M  V30 4084 H 428.137 -2.00136 -5.29115 0
M  V30 4085 H 426.694 -2.66143 -5.94988 0
M  V30 4086 N 430.127 0.543554 -1.4793 0
M  V30 4087 C 431.376 1.29649 -1.54512 0
M  V30 4088 C 431.689 1.94382 -0.217973 0
M  V30 4089 O 432.895 2.71017 -0.161908 0
M  V30 4090 C 431.351 2.35175 -2.72435 0
M  V30 4091 C 430.959 1.76572 -4.11736 0
M  V30 4092 C 432.703 3.11564 -2.8832 0
M  V30 4093 C 430.61 2.79958 -5.20939 0
M  V30 4094 H 429.54 0.487541 -0.57517 0
M  V30 4095 H 432.191 0.575708 -1.74235 0
M  V30 4096 H 430.573 3.10229 -2.46118 0
M  V30 4097 H 431.747 1.07799 -4.48013 0
M  V30 4098 H 430.062 1.12722 -4.00852 0
M  V30 4099 H 432.659 3.88794 -3.67074 0
M  V30 4100 H 433.002 3.66594 -1.97268 0
M  V30 4101 H 433.535 2.43623 -3.14472 0
M  V30 4102 H 430.274 2.29766 -6.13912 0
M  V30 4103 H 429.794 3.47101 -4.89164 0
M  V30 4104 H 431.473 3.43198 -5.48474 0
M  V30 4105 N 431.605 1.3629 0.791371 0
M  V30 4106 C 432.535 1.33137 1.91825 0
M  V30 4107 C 433.516 0.203168 1.68882 0
M  V30 4108 O 434.701 0.400509 1.90025 0
M  V30 4109 C 431.831 1.11793 3.28816 0
M  V30 4110 C 430.785 2.21417 3.66277 0
M  V30 4111 C 430.111 1.85218 5.01596 0
M  V30 4112 C 431.411 3.63489 3.75064 0
M  V30 4113 H 433.105 2.2743 1.9472 0
M  V30 4114 H 430.651 1.09479 0.935437 0
M  V30 4115 H 432.604 1.08222 4.07266 0
M  V30 4116 H 431.328 0.139501 3.26302 0
M  V30 4117 H 429.987 2.2411 2.90121 0
M  V30 4118 H 429.635 0.859544 4.95602 0
M  V30 4119 H 429.335 2.58611 5.27631 0
M  V30 4120 H 430.859 1.832 5.82469 0
M  V30 4121 H 432.273 3.63034 4.43711 0
M  V30 4122 H 430.67 4.35771 4.12582 0
M  V30 4123 H 431.74 3.98536 2.76219 0
M  V30 4124 N 433.083 -1.0153 1.20538 0
M  V30 4125 C 434.311 -1.78746 1.04199 0
M  V30 4126 C 434.726 -1.84323 -0.408733 0
M  V30 4127 O 434.083 -1.29714 -1.28377 0
M  V30 4128 C 434.134 -3.23152 1.62035 0
M  V30 4129 O 433.855 -3.17918 3.0143 0
M  V30 4130 C 435.356 -4.16911 1.50666 0
M  V30 4131 H 432.576 -0.56208 0.366479 0
M  V30 4132 H 435.12 -1.27794 1.59653 0
M  V30 4133 H 433.275 -3.71248 1.10697 0
M  V30 4134 H 433.689 -4.08567 3.28897 0
M  V30 4135 H 435.163 -5.16072 1.95892 0
M  V30 4136 H 435.64 -4.36791 0.459363 0
M  V30 4137 H 436.246 -3.74698 2.01201 0
M  V30 4138 N 434.561 -1.01147 -1.20859 0
M  V30 4139 C 435.491 -0.597663 -2.25722 0
M  V30 4140 C 436.472 0.384744 -1.65692 0
M  V30 4141 O 437.657 0.271303 -1.92296 0
M  V30 4142 C 434.787 0.0700149 -3.47229 0
M  V30 4143 C 433.741 -0.832843 -4.19819 0
M  V30 4144 C 433.067 -0.0312202 -5.34691 0
M  V30 4145 C 434.367 -2.1385 -4.76514 0
M  V30 4146 H 436.061 -1.47423 -2.60589 0
M  V30 4147 H 433.607 -0.710301 -1.25263 0
M  V30 4148 H 435.56 0.37103 -4.19763 0
M  V30 4149 H 434.284 0.981259 -3.11511 0
M  V30 4150 H 432.943 -1.11778 -3.49144 0
M  V30 4151 H 432.591 0.881515 -4.95215 0
M  V30 4152 H 432.291 -0.632434 -5.84187 0
M  V30 4153 H 433.815 0.26346 -6.10031 0
M  V30 4154 H 435.229 -1.9002 -5.40893 0
M  V30 4155 H 433.626 -2.69012 -5.36426 0
M  V30 4156 H 434.696 -2.80495 -3.95538 0
M  V30 4157 N 436.039 1.36541 -0.78704 0
M  V30 4158 C 437.455 1.52571 -0.46844 0
M  V30 4159 C 437.655 1.7415 1.01361 0
M  V30 4160 O 436.711 1.77163 1.79915 0
M  V30 4161 C 438.024 2.71299 -1.29682 0
M  V30 4162 C 439.572 2.85169 -1.29027 0
M  V30 4163 C 440.047 4.06898 -2.10233 0
M  V30 4164 N 441.538 4.1404 -2.07666 0
M  V30 4165 C 442.273 5.07301 -2.67271 0
M  V30 4166 N 441.769 6.06021 -3.35724 0
M  V30 4167 N 443.562 4.99898 -2.57018 0
M  V30 4168 H 435.713 1.20788 -1.74711 0
M  V30 4169 H 437.976 0.589364 -0.742532 0
M  V30 4170 H 437.682 2.61868 -2.34773 0
M  V30 4171 H 437.556 3.6539 -0.936479 0
M  V30 4172 H 439.943 2.94062 -0.247284 0
M  V30 4173 H 440.024 1.91992 -1.69035 0
M  V30 4174 H 439.668 3.98766 -3.1456 0
M  V30 4175 H 439.598 4.99218 -1.67597 0
M  V30 4176 H 442.089 3.43357 -1.57843 0
M  V30 4177 H 442.402 6.73741 -3.78541 0
M  V30 4178 H 440.747 6.06253 -3.39826 0
M  V30 4179 H 443.938 4.21724 -2.03142 0
M  V30 4180 H 444.111 5.72392 -3.03761 0
M  V30 4181 N 437.518 0.538854 1.48102 0
M  V30 4182 C 438.764 0.00801365 2.02798 0
M  V30 4183 C 439.097 -1.3309 1.41424 0
M  V30 4184 O 438.372 -1.86169 0.563158 0
M  V30 4185 C 438.655 -0.104589 3.59948 0
M  V30 4186 C 438.508 1.26012 4.31788 0
M  V30 4187 C 439.827 -0.827055 4.32259 0
M  V30 4188 H 436.946 0.00438624 0.736987 0
M  V30 4189 H 439.588 0.6976 1.7673 0
M  V30 4190 H 437.738 -0.691893 3.82289 0
M  V30 4191 H 439.41 1.88922 4.2084 0
M  V30 4192 H 437.653 1.83968 3.92859 0
M  V30 4193 H 438.324 1.13424 5.40221 0
M  V30 4194 H 440.8 -0.328578 4.14801 0
M  V30 4195 H 439.676 -0.87476 5.41885 0
M  V30 4196 H 439.937 -1.87927 4.0017 0
M  V30 4197 N 438.996 -1.55193 0.274407 0
M  V30 4198 C 439.959 -2.212 -0.600279 0
M  V30 4199 C 440.959 -1.18963 -1.08187 0
M  V30 4200 O 442.149 -1.43873 -0.982158 0
M  V30 4201 C 439.281 -2.87739 -1.82809 0
M  V30 4202 H 440.474 -2.9989 -0.0239682 0
M  V30 4203 H 438.027 -1.5628 0.0250192 0
M  V30 4204 H 438.762 -2.13058 -2.44493 0
M  V30 4205 H 438.547 -3.62658 -1.49069 0
M  V30 4206 H 440.037 -3.38171 -2.45011 0
M  V30 4207 N 440.474 -0.00167713 -1.576 0
M  V30 4208 C 441.722 0.681471 -1.90264 0
M  V30 4209 C 442.043 1.7422 -0.875924 0
M  V30 4210 O 441.313 1.95709 0.0864412 0
M  V30 4211 H 439.893 0.254696 -0.702239 0
M  V30 4212 H 442.555 -0.0429996 -1.94853 0
M  V30 4213 H 441.651 1.15166 -2.90075 0
M  V30 4214 N 441.952 1.55251 0.271103 0
M  V30 4215 C 442.915 1.87484 1.31842 0
M  V30 4216 C 443.915 0.749545 1.42262 0
M  V30 4217 O 445.105 1.01771 1.4138 0
M  V30 4218 C 442.237 2.0818 2.69951 0
M  V30 4219 H 443.43 2.81108 1.0449 0
M  V30 4220 H 440.983 1.47771 0.509258 0
M  V30 4221 H 441.718 1.16944 3.02481 0
M  V30 4222 H 441.503 2.90114 2.63774 0
M  V30 4223 H 442.993 2.34385 3.4562 0
M  V30 4224 N 443.43 -0.535701 1.48216 0
M  V30 4225 C 444.393 -1.623 1.61838 0
M  V30 4226 C 445.393 -1.53087 0.492024 0
M  V30 4227 O 446.583 -1.5686 0.757668 0
M  V30 4228 C 443.715 -3.01907 1.58319 0
M  V30 4229 H 444.908 -1.51564 2.58783 0
M  V30 4230 H 442.461 -0.757317 1.36727 0
M  V30 4231 H 443.196 -3.18155 0.628299 0
M  V30 4232 H 442.981 -3.10003 2.40085 0
M  V30 4233 H 444.471 -3.80969 1.71033 0
M  V30 4234 N 444.908 -1.36708 -0.784132 0
M  V30 4235 C 446.319 -1.27947 -1.35965 0
M  V30 4236 C 446.67 0.0784013 -1.96043 0
M  V30 4237 O 445.795 0.979989 -1.92938 0
M  V30 4238 C 446.39 -2.31689 -2.47195 0
M  V30 4239 C 444.949 -2.26601 -3.00548 0
M  V30 4240 C 444.096 -2.16184 -1.73666 0
M  V30 4241 H 447.047 -1.4751 -0.585358 0
M  V30 4242 H 447.068 -1.95638 -3.26352 0
M  V30 4243 H 446.58 -3.30506 -2.03439 0
M  V30 4244 H 444.681 -1.31268 -3.48711 0
M  V30 4245 H 444.794 -3.19508 -3.57004 0
M  V30 4246 H 443.158 -1.62524 -1.96107 0
M  V30 4247 H 443.941 -3.16896 -1.32031 0
M  V30 4248 N 446.386 1.0089 -1.21074 0
M  V30 4249 C 447.611 1.78727 -1.05221 0
M  V30 4250 C 448.036 1.83932 0.393795 0
M  V30 4251 O 447.394 1.28004 1.28393 0
M  V30 4252 C 447.442 3.20665 -1.64944 0
M  V30 4253 O 446.546 4.02632 -0.892273 0
M  V30 4254 H 445.887 0.550973 -0.370574 0
M  V30 4255 H 448.417 1.26847 -1.60534 0
M  V30 4256 H 448.427 3.71352 -1.69002 0
M  V30 4257 H 447.102 3.16191 -2.70177 0
M  V30 4258 H 445.679 3.61207 -0.926492 0
M  V30 4259 N 447.864 1.01787 1.20321 0
M  V30 4260 C 449.112 0.706538 1.89347 0
M  V30 4261 C 449.433 -0.766289 1.79313 0
M  V30 4262 O 448.703 -1.55126 1.19635 0
M  V30 4263 H 447.283 0.258348 0.700903 0
M  V30 4264 H 449.945 1.28974 1.46122 0
M  V30 4265 H 449.041 0.991066 2.95946 0
M  V30 4266 N 449.342 -1.36122 0.79427 0
M  V30 4267 C 450.753 -1.81646 0.431446 0
M  V30 4268 C 451.104 -1.66043 -1.04518 0
M  V30 4269 O 450.229 -1.1841 -1.8113 0
M  V30 4270 C 450.824 -3.29785 0.776341 0
M  V30 4271 C 449.383 -3.73501 0.466282 0
M  V30 4272 C 448.53 -2.58313 1.00844 0
M  V30 4273 H 451.481 -1.24274 0.986995 0
M  V30 4274 H 451.502 -3.80437 0.0692413 0
M  V30 4275 H 451.014 -3.4111 1.8511 0
M  V30 4276 H 449.115 -3.67733 -0.600245 0
M  V30 4277 H 449.228 -4.68754 0.990288 0
M  V30 4278 H 447.592 -2.5102 0.431406 0
M  V30 4279 H 448.375 -2.72421 2.08906 0
M  V30 4280 N 450.82 -0.546701 -1.47814 0
M  V30 4281 C 452.236 -0.205717 -1.58269 0
M  V30 4282 C 452.436 1.29153 -1.54667 0
M  V30 4283 O 451.492 2.07098 -1.44453 0
M  V30 4284 C 452.805 -0.823065 -2.89216 0
M  V30 4285 C 454.353 -0.793328 -3.02779 0
M  V30 4286 C 454.828 -1.38955 -4.36412 0
M  V30 4287 N 456.319 -1.35227 -4.43021 0
M  V30 4288 C 457.054 -1.78333 -5.44963 0
M  V30 4289 N 456.55 -2.29246 -6.53772 0
M  V30 4290 N 458.343 -1.69467 -5.35945 0
M  V30 4291 H 450.494 -1.5196 -1.48398 0
M  V30 4292 H 452.757 -0.633078 -0.705632 0
M  V30 4293 H 452.463 -1.8749 -2.97558 0
M  V30 4294 H 452.337 -0.309915 -3.75925 0
M  V30 4295 H 454.724 0.249784 -2.94041 0
M  V30 4296 H 454.805 -1.34412 -2.17639 0
M  V30 4297 H 454.449 -2.43168 -4.45906 0
M  V30 4298 H 454.379 -0.814291 -5.20266 0
M  V30 4299 H 456.87 -0.979739 -3.64979 0
M  V30 4300 H 457.183 -2.60089 -7.27718 0
M  V30 4301 H 455.528 -2.3325 -6.5469 0
M  V30 4302 H 458.719 -1.29477 -4.49837 0
M  V30 4303 H 458.892 -2.03381 -6.15256 0
M  V30 4304 N 452.299 1.55045 -0.282633 0
M  V30 4305 C 453.262 2.21515 0.588539 0
M  V30 4306 C 454.262 1.19535 1.07554 0
M  V30 4307 O 455.452 1.44391 0.974514 0
M  V30 4308 C 452.584 2.88704 1.8128 0
M  V30 4309 H 453.777 2.99899 0.00806397 0
M  V30 4310 H 451.33 1.56265 -0.0333067 0
M  V30 4311 H 452.065 2.14352 2.43359 0
M  V30 4312 H 451.85 3.63443 1.47144 0
M  V30 4313 H 453.34 3.39465 2.43214 0
M  V30 4314 N 453.777 0.010035 1.57597 0
M  V30 4315 C 455.193 -0.346164 1.55801 0
M  V30 4316 C 455.393 -1.74144 1.01371 0
M  V30 4317 O 454.449 -2.43938 0.651968 0
M  V30 4318 C 455.762 -0.212216 2.9995 0
M  V30 4319 C 457.31 -0.286409 3.11687 0
M  V30 4320 C 457.785 -0.18147 4.5764 0
M  V30 4321 N 459.276 -0.239056 4.62583 0
M  V30 4322 C 460.011 -0.181351 5.73113 0
M  V30 4323 N 459.507 -0.073661 6.92761 0
M  V30 4324 N 461.3 -0.233949 5.61613 0
M  V30 4325 H 453.451 0.922657 1.91313 0
M  V30 4326 H 455.714 0.354595 0.879185 0
M  V30 4327 H 455.42 0.748169 3.4365 0
M  V30 4328 H 455.294 -0.990224 3.6397 0
M  V30 4329 H 457.681 -1.23724 2.67911 0
M  V30 4330 H 457.762 0.521645 2.50425 0
M  V30 4331 H 457.406 0.765863 5.02093 0
M  V30 4332 H 457.336 -1.00814 5.1686 0
M  V30 4333 H 459.827 -0.32321 3.76515 0
M  V30 4334 H 460.14 -0.0358003 7.72792 0
M  V30 4335 H 458.485 -0.0391461 6.94989 0
M  V30 4336 H 461.676 -0.316347 4.6703 0
M  V30 4337 H 461.849 -0.185514 6.47734 0
M  V30 4338 N 455.255 -1.55392 -0.262866 0
M  V30 4339 C 456.503 -1.76127 -0.991147 0
M  V30 4340 C 456.824 -0.571083 -1.8645 0
M  V30 4341 O 456.094 0.413698 -1.91482 0
M  V30 4342 H 454.674 -0.649528 -0.368948 0
M  V30 4343 H 457.336 -1.9281 -0.284655 0
M  V30 4344 H 456.432 -2.6663 -1.62219 0
M  V30 4345 N 456.733 0.527833 -1.48498 0
M  V30 4346 C 457.958 1.313 -1.60546 0
M  V30 4347 C 458.383 1.86199 -0.26672 0
M  V30 4348 O 457.741 1.64513 0.761918 0
M  V30 4349 C 457.789 2.43818 -2.65678 0
M  V30 4350 O 456.893 3.46916 -2.22987 0
M  V30 4351 H 456.234 0.388784 -0.538277 0
M  V30 4352 H 458.764 0.634896 -1.945 0
M  V30 4353 H 458.774 2.89973 -2.87018 0
M  V30 4354 H 457.449 2.03222 -3.62869 0
M  V30 4355 H 456.026 3.06864 -2.11869 0
M  V30 4356 N 458.211 1.37122 0.776871 0
M  V30 4357 C 459.622 1.28667 1.35284 0
M  V30 4358 C 459.973 -0.0680035 1.96082 0
M  V30 4359 O 459.098 -0.969743 1.93455 0
M  V30 4360 C 459.693 2.32997 2.45963 0
M  V30 4361 C 458.252 2.28191 2.99342 0
M  V30 4362 C 457.399 2.17101 1.72517 0
M  V30 4363 H 460.35 1.47819 0.577527 0
M  V30 4364 H 460.371 1.97366 3.2531 0
M  V30 4365 H 459.883 3.3158 2.01684 0
M  V30 4366 H 457.984 1.33115 3.4801 0
M  V30 4367 H 458.097 3.21397 3.55304 0
M  V30 4368 H 456.461 1.63562 1.95242 0
M  V30 4369 H 457.244 3.17591 1.30348 0
M  V30 4370 N 459.689 -1.00246 1.21608 0
M  V30 4371 C 460.937 -1.73717 1.0328 0
M  V30 4372 C 461.258 -1.90102 -0.434318 0
M  V30 4373 O 460.528 -1.45376 -1.31311 0
M  V30 4374 H 459.108 -0.643613 0.379172 0
M  V30 4375 H 461.77 -1.20787 1.52959 0
M  V30 4376 H 460.866 -2.73535 1.50283 0
M  V30 4377 N 461.167 -1.02423 -1.1978 0
M  V30 4378 C 462.099 -0.559152 -2.22275 0
M  V30 4379 C 463.112 0.36251 -1.58713 0
M  V30 4380 O 464.301 0.159641 -1.77785 0
M  V30 4381 C 461.401 0.205094 -3.38279 0
M  V30 4382 C 460.574 -0.720361 -4.31427 0
M  V30 4383 C 459.633 -0.00234368 -5.262 0
M  V30 4384 O 458.659 -0.627378 -5.65732 0
M  V30 4385 N 459.861 1.26996 -5.66438 0
M  V30 4386 H 462.626 -1.44064 -2.62804 0
M  V30 4387 H 460.187 -0.902692 -1.34399 0
M  V30 4388 H 462.179 0.694868 -3.9869 0
M  V30 4389 H 460.749 0.987947 -2.96578 0
M  V30 4390 H 459.969 -1.39031 -3.68869 0
M  V30 4391 H 461.257 -1.3495 -4.90577 0
M  V30 4392 H 460.655 1.79858 -5.36347 0
M  V30 4393 H 459.212 1.70432 -6.29123 0
M  V30 4394 N 462.645 1.35699 -0.801477 0
M  V30 4395 C 463.608 2.28199 -0.213994 0
M  V30 4396 C 464.608 1.49359 0.595691 0
M  V30 4397 O 465.798 1.69186 0.414921 0
M  V30 4398 C 462.93 3.33587 0.702297 0
M  V30 4399 H 464.123 2.81666 -1.02976 0
M  V30 4400 H 461.676 1.45467 -0.571759 0
M  V30 4401 H 462.411 2.85297 1.54195 0
M  V30 4402 H 462.196 3.91906 0.123484 0
M  V30 4403 H 463.686 4.02638 1.10783 0
M  V30 4404 N 464.123 0.554532 1.47522 0
M  V30 4405 C 465.086 -0.184174 2.28459 0
M  V30 4406 C 466.086 -0.845195 1.36796 0
M  V30 4407 O 467.276 -0.701467 1.59452 0
M  V30 4408 C 464.408 -1.26903 3.16399 0
M  V30 4409 H 465.601 0.526751 2.95238 0
M  V30 4410 H 463.154 0.311375 1.53167 0
M  V30 4411 H 463.889 -2.01244 2.54306 0
M  V30 4412 H 463.674 -0.799883 3.83854 0
M  V30 4413 H 465.164 -1.78794 3.77389 0
M  V30 4414 N 465.601 -1.54893 0.290851 0
M  V30 4415 C 466.564 -2.21824 -0.576784 0
M  V30 4416 C 467.564 -1.20104 -1.06919 0
M  V30 4417 O 468.754 -1.44906 -0.966843 0
M  V30 4418 C 465.886 -2.89662 -1.79747 0
M  V30 4419 H 467.079 -2.99899 0.00784051 0
M  V30 4420 H 464.632 -1.56245 0.0415934 0
M  V30 4421 H 465.367 -2.15639 -2.42219 0
M  V30 4422 H 465.152 -3.64219 -1.45214 0
M  V30 4423 H 466.642 -3.4075 -2.4141 0
M  V30 4424 N 467.08 -0.0183926 -1.57589 0
M  V30 4425 C 468.043 0.951986 -2.08494 0
M  V30 4426 C 469.043 1.26092 -0.997874 0
M  V30 4427 O 470.233 1.20304 -1.25987 0
M  V30 4428 C 467.365 2.27165 -2.54182 0
M  V30 4429 H 468.558 0.511307 -2.95509 0
M  V30 4430 H 466.111 0.229444 -1.54607 0
M  V30 4431 H 466.846 2.75884 -1.70465 0
M  V30 4432 H 466.631 2.06057 -3.33591 0
M  V30 4433 H 468.121 2.9674 -2.93828 0
M  V30 4434 N 468.558 1.5553 0.254621 0
M  V30 4435 C 469.969 1.67518 0.824286 0
M  V30 4436 C 470.32 0.614429 1.86331 0
M  V30 4437 O 469.445 -0.240736 2.15057 0
M  V30 4438 C 470.04 3.03692 1.50189 0
M  V30 4439 C 468.599 3.17646 2.01935 0
M  V30 4440 C 467.746 2.63373 0.867746 0
M  V30 4441 H 470.697 1.58671 0.0305843 0
M  V30 4442 H 470.718 2.97706 2.36962 0
M  V30 4443 H 470.23 3.80874 0.745431 0
M  V30 4444 H 468.331 2.45273 2.80485 0
M  V30 4445 H 468.444 4.24455 2.22204 0
M  V30 4446 H 466.808 2.20999 1.26616 0
M  V30 4447 H 467.591 3.43074 0.124498 0
M  V30 4448 N 470.036 -0.519951 1.48776 0
M  V30 4449 C 471.284 -1.2727 1.56993 0
M  V30 4450 C 471.605 -1.9339 0.25004 0
M  V30 4451 O 470.875 -1.81822 -0.729216 0
M  V30 4452 H 469.455 -0.472732 0.578389 0
M  V30 4453 H 472.117 -0.604234 1.85297 0
M  V30 4454 H 471.213 -2.04669 2.3562 0
M  V30 4455 N 471.514 -1.37532 -0.769588 0
M  V30 4456 C 472.477 -1.33292 -1.86456 0
M  V30 4457 C 473.477 -0.236537 -1.59051 0
M  V30 4458 O 474.667 -0.492511 -1.67093 0
M  V30 4459 C 471.799 -1.07118 -3.23633 0
M  V30 4460 H 472.992 -2.30692 -1.91628 0
M  V30 4461 H 470.545 -1.22593 -0.969572 0
M  V30 4462 H 471.28 -0.102578 -3.24138 0
M  V30 4463 H 471.065 -1.86479 -3.44917 0
M  V30 4464 H 472.555 -1.06806 -4.03711 0
M  V30 4465 N 472.992 0.995999 -1.22138 0
M  V30 4466 C 473.955 2.06711 -0.990109 0
M  V30 4467 C 474.955 1.60744 0.0422978 0
M  V30 4468 O 476.145 1.73095 -0.195895 0
M  V30 4469 C 473.277 3.37288 -0.49491 0
M  V30 4470 H 474.47 2.28661 -1.94047 0
M  V30 4471 H 472.023 1.16711 -1.03963 0
M  V30 4472 H 472.758 3.21022 0.459948 0
M  V30 4473 H 472.543 3.71986 -1.23971 0
M  V30 4474 H 474.033 4.16103 -0.353253 0
M  V30 4475 N 474.47 1.03057 1.19235 0
M  V30 4476 C 475.881 0.757449 1.70645 0
M  V30 4477 C 476.232 -0.722735 1.82403 0
M  V30 4478 O 475.357 -1.56325 1.49638 0
M  V30 4479 C 475.952 1.36833 3.09939 0
M  V30 4480 C 474.511 1.14375 3.58602 0
M  V30 4481 C 473.658 1.46533 2.35422 0
M  V30 4482 H 476.609 1.19828 1.04052 0
M  V30 4483 H 476.63 0.766184 3.72706 0
M  V30 4484 H 476.142 2.44562 3.01349 0
M  V30 4485 H 474.243 0.0847542 3.72504 0
M  V30 4486 H 474.356 1.83366 4.42622 0
M  V30 4487 H 472.72 0.884712 2.38841 0
M  V30 4488 H 473.503 2.55349 2.2946 0
M  V30 4489 N 475.948 -1.35272 0.808662 0
M  V30 4490 C 476.911 -2.28082 0.226093 0
M  V30 4491 C 477.911 -1.49673 -0.587762 0
M  V30 4492 O 479.101 -1.69404 -0.405943 0
M  V30 4493 C 476.233 -3.33955 -0.684596 0
M  V30 4494 H 477.426 -2.81116 1.04469 0
M  V30 4495 H 474.979 -1.45162 0.579466 0
M  V30 4496 H 475.714 -2.86111 -1.5268 0
M  V30 4497 H 475.499 -3.91965 -0.102699 0
M  V30 4498 H 476.989 -4.03219 -1.08646 0
M  V30 4499 N 477.426 -0.562348 -1.47226 0
M  V30 4500 C 478.837 -0.130325 -1.86245 0
M  V30 4501 C 479.188 1.30128 -1.46838 0
M  V30 4502 O 478.313 1.97974 -0.873805 0
M  V30 4503 C 478.908 -0.229738 -3.3802 0
M  V30 4504 C 477.467 0.14728 -3.76112 0
M  V30 4505 C 476.614 -0.574971 -2.71274 0
M  V30 4506 H 479.565 -0.771773 -1.3867 0
M  V30 4507 H 479.586 0.550316 -3.76499 0
M  V30 4508 H 479.098 -1.27178 -3.66671 0
M  V30 4509 H 477.199 1.19023 -3.53078 0
M  V30 4510 H 477.312 -0.214858 -4.78618 0
M  V30 4511 H 475.676 -0.0174756 -2.54694 0
M  V30 4512 H 476.459 -1.61827 -3.02766 0
M  V30 4513 N 478.904 1.54736 -0.299062 0
M  V30 4514 C 479.867 2.22127 0.565012 0
M  V30 4515 C 480.867 1.20669 1.06281 0
M  V30 4516 O 482.057 1.45417 0.959145 0
M  V30 4517 C 479.189 2.90611 1.78208 0
M  V30 4518 H 480.382 2.99891 -0.0237448 0
M  V30 4519 H 477.935 1.5622 -0.0498788 0
M  V30 4520 H 478.67 2.16921 2.41072 0
M  V30 4521 H 478.455 3.64984 1.43281 0
M  V30 4522 H 479.945 3.42026 2.396 0
M  V30 4523 N 480.382 0.0267497 1.57577 0
M  V30 4524 C 481.793 -0.512413 1.79531 0
M  V30 4525 C 482.144 -1.72391 0.936791 0
M  V30 4526 O 481.269 -2.15903 0.146543 0
M  V30 4527 C 481.864 -0.936378 3.25603 0
M  V30 4528 C 480.423 -1.42067 3.4856 0
M  V30 4529 C 479.57 -0.384278 2.74624 0
M  V30 4530 H 482.521 0.252797 1.56674 0
M  V30 4531 H 482.542 -1.80088 3.35184 0
M  V30 4532 H 482.054 -0.0544332 3.88062 0
M  V30 4533 H 480.155 -2.32262 2.9135 0
M  V30 4534 H 480.268 -1.42968 4.57271 0
M  V30 4535 H 478.632 -0.851855 2.40032 0
M  V30 4536 H 479.415 0.489159 3.39797 0
M  V30 4537 N 481.861 -1.55662 -0.24637 0
M  V30 4538 C 483.107 -1.77782 -0.975779 0
M  V30 4539 C 483.44 -0.592103 -1.84953 0
M  V30 4540 O 482.715 0.409588 -1.90138 0
M  V30 4541 C 482.998 -3.09788 -1.83584 0
M  V30 4542 C 482.851 -4.38764 -0.990241 0
M  V30 4543 C 484.17 -3.38029 -2.81823 0
M  V30 4544 H 481.289 -0.646789 -0.353317 0
M  V30 4545 H 483.931 -1.88398 -0.246248 0
M  V30 4546 H 482.081 -3.00869 -2.45784 0
M  V30 4547 H 483.753 -4.59675 -0.386897 0
M  V30 4548 H 481.996 -4.32798 -0.294626 0
M  V30 4549 H 482.667 -5.27514 -1.62584 0
M  V30 4550 H 485.143 -3.46915 -2.2976 0
M  V30 4551 H 484.019 -4.3161 -3.39122 0
M  V30 4552 H 484.28 -2.58968 -3.58313 0
M  V30 4553 N 483.339 0.512053 -1.4905 0
M  V30 4554 C 484.587 1.26436 -1.57665 0
M  V30 4555 C 484.908 1.93255 -0.260293 0
M  V30 4556 O 484.178 1.82206 0.719564 0
M  V30 4557 H 482.758 0.469658 -0.580888 0
M  V30 4558 H 485.42 0.594398 -1.85615 0
M  V30 4559 H 484.516 2.03417 -2.36702 0
M  V30 4560 N 484.817 1.37938 0.762283 0
M  V30 4561 C 485.78 1.34279 1.85747 0
M  V30 4562 C 486.78 0.244969 1.58923 0
M  V30 4563 O 487.97 0.501365 1.66829 0
M  V30 4564 C 485.102 1.08833 3.23061 0
M  V30 4565 H 486.295 2.31705 1.90401 0
M  V30 4566 H 483.848 1.23105 0.963057 0
M  V30 4567 H 484.583 0.119767 3.24079 0
M  V30 4568 H 484.368 1.88306 3.43923 0
M  V30 4569 H 485.858 1.08946 4.03138 0
M  V30 4570 N 486.295 -0.989507 1.22664 0
M  V30 4571 C 487.706 -1.54406 1.04955 0
M  V30 4572 C 488.057 -1.92366 -0.385951 0
M  V30 4573 O 487.182 -1.75111 -1.27142 0
M  V30 4574 C 487.777 -2.80578 1.89899 0
M  V30 4575 C 486.336 -3.32464 1.76478 0
M  V30 4576 C 485.483 -2.05524 1.86159 0
M  V30 4577 H 488.434 -0.810211 1.3646 0
M  V30 4578 H 488.455 -3.53075 1.4184 0
M  V30 4579 H 487.967 -2.52918 2.94371 0
M  V30 4580 H 486.068 -3.65024 0.747528 0
M  V30 4581 H 486.181 -4.02838 2.59342 0
M  V30 4582 H 484.545 -2.19241 1.29636 0
M  V30 4583 H 485.328 -1.80258 2.92168 0
M  V30 4584 N 487.773 -1.03688 -1.18687 0
M  V30 4585 C 488.998 -0.757819 -1.93059 0
M  V30 4586 C 489.423 0.678353 -1.75442 0
M  V30 4587 O 488.781 1.46938 -1.06203 0
M  V30 4588 C 488.829 -1.12423 -3.42627 0
M  V30 4589 O 487.933 -0.247505 -4.11657 0
M  V30 4590 H 487.274 -0.279245 -0.602427 0
M  V30 4591 H 489.804 -1.3857 -1.5053 0
M  V30 4592 H 489.814 -1.08454 -3.93322 0
M  V30 4593 H 488.489 -2.17049 -3.54771 0
M  V30 4594 H 487.066 -0.34649 -3.71287 0
M  V30 4595 N 489.251 1.34841 -0.815825 0
M  V30 4596 C 490.667 1.51543 -0.500697 0
M  V30 4597 C 490.867 1.76261 0.976444 0
M  V30 4598 O 489.923 1.8094 1.76117 0
M  V30 4599 C 491.236 2.68487 -1.35407 0
M  V30 4600 C 492.784 2.82368 -1.35046 0
M  V30 4601 C 493.259 4.02347 -2.18816 0
M  V30 4602 N 494.75 4.09542 -2.16402 0
M  V30 4603 C 495.485 5.01517 -2.77971 0
M  V30 4604 N 494.981 5.98763 -3.48503 0
M  V30 4605 N 496.774 4.94334 -2.67563 0
M  V30 4606 H 488.925 1.17055 -1.77234 0
M  V30 4607 H 491.188 0.573481 -0.754866 0
M  V30 4608 H 490.894 2.56829 -2.40274 0
M  V30 4609 H 490.768 3.63321 -1.01377 0
M  V30 4610 H 493.155 2.93471 -0.309604 0
M  V30 4611 H 493.236 1.88363 -1.73069 0
M  V30 4612 H 492.88 3.92004 -3.22948 0
M  V30 4613 H 492.81 4.95551 -1.78148 0
M  V30 4614 H 495.301 3.39932 -1.65091 0
M  V30 4615 H 495.614 6.6556 -3.92747 0
M  V30 4616 H 493.959 5.98909 -3.52609 0
M  V30 4617 H 497.15 4.1732 -2.12041 0
M  V30 4618 H 497.323 5.6582 -3.15834 0
M  V30 4619 N 490.729 0.570148 1.46925 0
M  V30 4620 C 491.677 -0.183181 2.31878 0
M  V30 4621 C 492.671 -0.896721 1.43719 0
M  V30 4622 O 493.877 -0.816536 1.60414 0
M  V30 4623 H 490.252 -0.077944 0.74795 0
M  V30 4624 H 492.223 0.552312 2.93244 0
M  V30 4625 C 490.972 -1.19172 3.2664 0
M  V30 4626 H 490.295 -0.652088 3.94446 0
M  V30 4627 H 491.735 -1.68946 3.88887 0
M  V30 4628 C 490.194 -2.24627 2.51086 0
M  V30 4629 O 490.724 -3.31773 2.26472 0
M  V30 4630 N 488.93 -1.98898 2.11867 0
M  V30 4631 H 488.477 -1.11777 2.32086 0
M  V30 4632 H 488.435 -2.6967 1.61634 0
M  V30 4633 N 492.207 -1.54576 0.307264 0
M  V30 4634 C 493.455 -1.99867 -0.299574 0
M  V30 4635 C 493.776 -1.19714 -1.53927 0
M  V30 4636 O 493.046 -0.29472 -1.9367 0
M  V30 4637 H 491.626 -0.738299 -0.113683 0
M  V30 4638 H 494.288 -1.9032 0.420042 0
M  V30 4639 H 493.384 -3.06901 -0.567283 0
M  V30 4640 N 493.685 -0.035106 -1.57561 0
M  V30 4641 C 494.648 0.929819 -2.09492 0
M  V30 4642 C 495.648 1.25026 -1.01119 0
M  V30 4643 O 496.838 1.18961 -1.27255 0
M  V30 4644 C 493.97 2.24457 -2.56577 0
M  V30 4645 H 495.163 0.479935 -2.96035 0
M  V30 4646 H 492.716 0.213033 -1.54841 0
M  V30 4647 H 493.451 2.74061 -1.73382 0
M  V30 4648 H 493.236 2.02508 -3.35757 0
M  V30 4649 H 494.726 2.93607 -2.96959 0
M  V30 4650 N 495.163 1.55791 0.238111 0
M  V30 4651 C 496.11 1.9105 1.29493 0
M  V30 4652 C 497.08 0.765733 1.47397 0
M  V30 4653 O 498.265 1.02017 1.61236 0
M  V30 4654 C 495.405 2.21826 2.64362 0
M  V30 4655 C 494.518 3.49153 2.54394 0
M  V30 4656 C 493.653 3.69455 3.81676 0
M  V30 4657 C 492.692 4.90353 3.66361 0
M  V30 4658 N 491.829 5.07131 4.85554 0
M  V30 4659 H 496.669 2.81172 0.987233 0
M  V30 4660 H 494.206 1.39179 0.476203 0
M  V30 4661 H 496.164 2.37675 3.4288 0
M  V30 4662 H 494.794 1.34897 2.93262 0
M  V30 4663 H 493.846 3.41587 1.67399 0
M  V30 4664 H 495.158 4.37818 2.38991 0
M  V30 4665 H 494.312 3.85311 4.68636 0
M  V30 4666 H 493.051 2.7904 3.99985 0
M  V30 4667 H 492.056 4.74464 2.77784 0
M  V30 4668 H 493.281 5.82237 3.49538 0
M  V30 4669 H 491.227 4.19654 5.04209 0
M  V30 4670 H 491.144 5.89899 4.72816 0
M  V30 4671 H 492.412 5.27407 5.73988 0
M  V30 4672 N 496.642 -0.504142 1.49319 0
M  V30 4673 C 497.888 -1.26033 1.58882 0
M  V30 4674 C 498.221 -1.92268 0.273274 0
M  V30 4675 O 497.496 -1.80567 -0.72291 0
M  V30 4676 C 497.779 -2.32976 2.7458 0
M  V30 4677 C 497.632 -1.71263 4.1592 0
M  V30 4678 C 498.951 -3.34561 2.85932 0
M  V30 4679 H 496.07 -0.456863 0.578312 0
M  V30 4680 H 498.712 -0.558965 1.81592 0
M  V30 4681 H 496.862 -2.92796 2.55348 0
M  V30 4682 H 498.534 -1.15294 4.4666 0
M  V30 4683 H 496.777 -1.01686 4.21714 0
M  V30 4684 H 497.448 -2.48816 4.92742 0
M  V30 4685 H 499.924 -2.84727 3.0343 0
M  V30 4686 H 498.8 -4.06754 3.68568 0
M  V30 4687 H 499.061 -3.96695 1.95154 0
M  V30 4688 N 498.12 -1.38341 -0.754957 0
M  V30 4689 C 499.07 -1.31964 -1.85929 0
M  V30 4690 C 500.054 -0.204181 -1.59599 0
M  V30 4691 O 501.246 -0.440036 -1.71443 0
M  V30 4692 C 498.375 -1.14565 -3.2362 0
M  V30 4693 C 497.461 -2.30727 -3.55846 0
M  V30 4694 N 497.852 -3.56165 -3.59138 0
M  V30 4695 C 496.15 -2.23249 -3.86104 0
M  V30 4696 C 496.851 -4.32865 -3.88591 0
M  V30 4697 N 495.827 -3.62203 -4.05351 0
M  V30 4698 H 499.629 -2.2694 -1.8675 0
M  V30 4699 H 497.143 -1.31553 -0.952243 0
M  V30 4700 H 499.14 -1.0808 -4.02647 0
M  V30 4701 H 497.8 -0.205212 -3.24051 0
M  V30 4702 H 498.811 -3.89854 -3.40932 0
M  V30 4703 H 495.488 -1.37357 -3.94258 0
M  V30 4704 H 496.878 -5.41504 -3.97773 0
M  V30 4705 N 499.598 0.982988 -1.23187 0
M  V30 4706 C 500.561 2.05649 -1.01198 0
M  V30 4707 C 501.561 1.6078 0.0252464 0
M  V30 4708 O 502.751 1.72878 -0.214243 0
M  V30 4709 C 499.883 3.36744 -0.530656 0
M  V30 4710 H 501.076 2.2659 -1.96461 0
M  V30 4711 H 498.629 1.15602 -1.05195 0
M  V30 4712 H 499.364 3.21492 0.425873 0
M  V30 4713 H 499.149 3.7065 -1.2791 0
M  V30 4714 H 500.639 4.15705 -0.397366 0
M  V30 4715 N 501.076 1.04316 1.18135 0
M  V30 4716 C 502.324 0.746542 1.87806 0
M  V30 4717 C 502.645 -0.728082 1.80898 0
M  V30 4718 O 501.915 -1.52554 1.22899 0
M  V30 4719 H 500.495 0.273157 0.695265 0
M  V30 4720 H 503.157 1.32044 1.43354 0
M  V30 4721 H 502.253 1.05362 2.93778 0
M  V30 4722 N 502.554 -1.34406 0.822964 0
M  V30 4723 C 503.965 -1.8069 0.469879 0
M  V30 4724 C 504.316 -1.68223 -1.00972 0
M  V30 4725 O 503.441 -1.22226 -1.78577 0
M  V30 4726 C 504.036 -3.28064 0.846118 0
M  V30 4727 C 502.595 -3.72428 0.545402 0
M  V30 4728 C 501.742 -2.56116 1.06301 0
M  V30 4729 H 504.693 -1.22153 1.01313 0
M  V30 4730 H 504.714 -3.80205 0.149922 0
M  V30 4731 H 504.226 -3.37107 1.92304 0
M  V30 4732 H 502.327 -3.68924 -0.522109 0
M  V30 4733 H 502.44 -4.66548 1.0895 0
M  V30 4734 H 500.804 -2.50048 0.484554 0
M  V30 4735 H 501.587 -2.67928 2.14638 0
M  V30 4736 N 504.032 -0.577932 -1.46621 0
M  V30 4737 C 504.995 0.147805 -2.28723 0
M  V30 4738 C 505.995 0.823325 -1.38123 0
M  V30 4739 O 507.185 0.676011 -1.60548 0
M  V30 4740 C 504.317 1.21853 -3.18378 0
M  V30 4741 H 505.51 -0.573654 -2.94362 0
M  V30 4742 H 503.063 -0.335703 -1.52652 0
M  V30 4743 H 503.798 1.97173 -2.57475 0
M  V30 4744 H 503.583 0.738714 -3.85078 0
M  V30 4745 H 505.073 1.72768 -3.80186 0
M  V30 4746 N 505.51 1.54411 -0.315457 0
M  V30 4747 C 506.756 2.00716 0.289972 0
M  V30 4748 C 507.089 1.2034 1.5242 0
M  V30 4749 O 506.364 0.283579 1.92422 0
M  V30 4750 C 506.647 3.54507 0.632196 0
M  V30 4751 C 506.5 4.45615 -0.61218 0
M  V30 4752 C 507.819 4.15421 1.45305 0
M  V30 4753 H 504.938 0.729637 0.10392 0
M  V30 4754 H 507.58 1.8506 -0.430427 0
M  V30 4755 H 505.73 3.67979 1.24595 0
M  V30 4756 H 507.402 4.44026 -1.25053 0
M  V30 4757 H 505.645 4.15621 -1.24264 0
M  V30 4758 H 506.316 5.51022 -0.328379 0
M  V30 4759 H 508.792 4.05474 0.934331 0
M  V30 4760 H 507.668 5.23157 1.66127 0
M  V30 4761 H 507.929 3.68223 2.44671 0
M  V30 4762 N 506.988 0.0434614 1.5754 0
M  V30 4763 C 508.404 -0.313039 1.565 0
M  V30 4764 C 508.604 -1.71954 1.05043 0
M  V30 4765 O 507.66 -2.425 0.703564 0
M  V30 4766 C 508.973 -0.148544 3.00333 0
M  V30 4767 C 510.521 -0.220231 3.12224 0
M  V30 4768 C 510.996 -0.0843565 4.57922 0
M  V30 4769 N 512.487 -0.140881 4.62986 0
M  V30 4770 C 513.222 -0.0597443 5.73369 0
M  V30 4771 N 512.718 0.0733004 6.92761 0
M  V30 4772 N 514.511 -0.11477 5.61983 0
M  V30 4773 H 506.662 0.96303 1.89313 0
M  V30 4774 H 508.925 0.373164 0.871466 0
M  V30 4775 H 508.631 0.820894 3.41986 0
M  V30 4776 H 508.505 -0.912798 3.65989 0
M  V30 4777 H 510.892 -1.18014 2.70475 0
M  V30 4778 H 510.973 0.574646 2.49262 0
M  V30 4779 H 510.617 0.872192 5.00355 0
M  V30 4780 H 510.547 -0.898281 5.18882 0
M  V30 4781 H 513.038 -0.243273 3.77116 0
M  V30 4782 H 513.351 0.128128 7.72694 0
M  V30 4783 H 511.696 0.10828 6.94916 0
M  V30 4784 H 514.887 -0.217212 4.67596 0
M  V30 4785 H 515.06 -0.0480779 6.47982 0
M  V30 4786 N 508.466 -1.55915 -0.229846 0
M  V30 4787 C 509.398 -1.88209 -1.30805 0
M  V30 4788 C 510.411 -0.769672 -1.43457 0
M  V30 4789 O 511.6 -1.04792 -1.44502 0
M  V30 4790 C 508.7 -2.06829 -2.68468 0
M  V30 4791 C 507.873 -3.37798 -2.77869 0
M  V30 4792 C 506.932 -3.45952 -3.96489 0
M  V30 4793 O 505.958 -4.19043 -3.85216 0
M  V30 4794 N 507.16 -2.76488 -5.10426 0
M  V30 4795 H 509.925 -2.81286 -1.03431 0
M  V30 4796 H 507.486 -1.5636 -0.41991 0
M  V30 4797 H 509.478 -2.09608 -3.46189 0
M  V30 4798 H 508.048 -1.20416 -2.88477 0
M  V30 4799 H 507.268 -3.4719 -1.86689 0
M  V30 4800 H 508.556 -4.24091 -2.81113 0
M  V30 4801 H 507.954 -2.16868 -5.2248 0
M  V30 4802 H 506.511 -2.84938 -5.8622 0
M  V30 4803 N 509.944 0.496216 -1.49584 0
M  V30 4804 C 510.874 1.60576 -1.69521 0
M  V30 4805 C 511.855 1.61169 -0.543933 0
M  V30 4806 O 513.04 1.77834 -0.78031 0
M  V30 4807 C 510.17 2.99038 -1.76616 0
M  V30 4808 C 509.124 3.13312 -2.91581 0
M  V30 4809 C 508.45 4.53172 -2.83794 0
M  V30 4810 C 509.75 2.92886 -4.32452 0
M  V30 4811 H 511.444 1.44146 -2.62416 0
M  V30 4812 H 508.99 0.692024 -1.26282 0
M  V30 4813 H 510.943 3.76564 -1.8915 0
M  V30 4814 H 509.667 3.16568 -0.80324 0
M  V30 4815 H 508.326 2.38213 -2.78658 0
M  V30 4816 H 507.974 4.67585 -1.854 0
M  V30 4817 H 507.674 4.63662 -3.60958 0
M  V30 4818 H 509.198 5.32752 -2.98342 0
M  V30 4819 H 510.612 3.60178 -4.46032 0
M  V30 4820 H 509.009 3.14844 -5.10875 0
M  V30 4821 H 510.079 1.88966 -4.46565 0
M  V30 4822 N 511.423 1.38739 0.74761 0
M  V30 4823 C 512.386 1.36241 1.84312 0
M  V30 4824 C 513.386 0.261811 1.58654 0
M  V30 4825 O 514.576 0.519031 1.66288 0
M  V30 4826 C 511.708 1.12253 3.21888 0
M  V30 4827 H 512.901 2.33712 1.87933 0
M  V30 4828 H 510.454 1.2412 0.949946 0
M  V30 4829 H 511.189 0.154133 3.23934 0
M  V30 4830 H 510.974 1.91943 3.41907 0
M  V30 4831 H 512.464 1.13215 4.0196 0
M  V30 4832 N 512.901 -0.976442 1.23707 0
M  V30 4833 C 514.317 -1.24341 1.00058 0
M  V30 4834 C 514.517 -1.99315 -0.295932 0
M  V30 4835 O 513.573 -2.3123 -1.01435 0
M  V30 4836 C 514.886 -2.03909 2.21001 0
M  V30 4837 C 516.434 -2.17034 2.25534 0
M  V30 4838 C 516.909 -2.99994 3.46075 0
M  V30 4839 N 518.4 -3.07578 3.46338 0
M  V30 4840 C 519.135 -3.72104 4.36264 0
M  V30 4841 N 518.631 -4.3842 5.36432 0
M  V30 4842 N 520.424 -3.69029 4.23998 0
M  V30 4843 H 512.575 -0.47428 2.07037 0
M  V30 4844 H 514.838 -0.272167 0.908091 0
M  V30 4845 H 514.544 -1.56198 3.15111 0
M  V30 4846 H 514.418 -3.04654 2.22409 0
M  V30 4847 H 516.805 -2.63951 1.31961 0
M  V30 4848 H 516.886 -1.15664 2.28156 0
M  V30 4849 H 516.53 -2.53772 4.39957 0
M  V30 4850 H 516.46 -4.01541 3.40694 0
M  V30 4851 H 518.951 -2.60397 2.73865 0
M  V30 4852 H 519.264 -4.85447 6.013 0
M  V30 4853 H 517.609 -4.37116 5.40328 0
M  V30 4854 H 520.8 -3.16392 3.44984 0
M  V30 4855 H 520.973 -4.19034 4.94282 0
M  V30 4856 N 514.379 -1.04941 -1.1758 0
M  V30 4857 C 515.289 -0.658826 -2.25159 0
M  V30 4858 C 516.305 0.318941 -1.71052 0
M  V30 4859 O 517.481 0.171669 -2.00667 0
M  V30 4860 C 514.546 -0.0369522 -3.4668 0
M  V30 4861 C 513.607 -1.06484 -4.15884 0
M  V30 4862 C 512.84 -0.472551 -5.31604 0
M  V30 4863 O 513.063 0.718736 -5.65854 0
M  V30 4864 O 511.997 -1.20557 -5.89703 0
M  V30 4865 H 515.823 -1.55533 -2.60851 0
M  V30 4866 H 513.408 -0.820819 -1.24832 0
M  V30 4867 H 515.29 0.308784 -4.20267 0
M  V30 4868 H 513.965 0.833238 -3.12792 0
M  V30 4869 H 512.872 -1.46253 -3.44327 0
M  V30 4870 H 514.205 -1.9061 -4.53794 0
M  V30 4871 N 515.857 1.33968 -0.830081 0
M  V30 4872 C 517.104 1.98063 -0.421566 0
M  V30 4873 C 517.432 1.65787 1.0171 0
M  V30 4874 O 516.687 0.925348 1.72441 0
M  V30 4875 C 516.986 3.52679 -0.57898 0
M  V30 4876 C 516.652 4.04884 -1.98443 0
M  V30 4877 C 515.314 4.18852 -2.36888 0
M  V30 4878 C 517.666 4.32879 -2.90285 0
M  V30 4879 C 514.994 4.58145 -3.66497 0
M  V30 4880 C 517.346 4.7362 -4.19364 0
M  V30 4881 C 516.01 4.85794 -4.57778 0
M  V30 4882 H 515.28 0.724765 -0.154262 0
M  V30 4883 H 517.927 1.59792 -1.05541 0
M  V30 4884 H 516.232 3.91556 0.138219 0
M  V30 4885 H 517.929 4.00261 -0.243317 0
M  V30 4886 H 514.519 3.9448 -1.67581 0
M  V30 4887 H 518.703 4.21619 -2.61823 0
M  V30 4888 H 513.959 4.65762 -3.96075 0
M  V30 4889 H 518.133 4.9424 -4.90612 0
M  V30 4890 H 515.76 5.15998 -5.58256 0
M  V30 4891 N 517.335 0.585699 1.46312 0
M  V30 4892 C 518.583 0.072278 2.01971 0
M  V30 4893 C 518.904 -1.29345 1.45928 0
M  V30 4894 O 518.174 -1.84973 0.645109 0
M  V30 4895 H 516.754 0.023729 0.746623 0
M  V30 4896 H 519.416 0.762155 1.7938 0
M  V30 4897 H 518.512 0.00552767 3.121 0
M  V30 4898 N 518.813 -1.54241 0.323641 0
M  V30 4899 C 520.059 -2.00867 -0.279323 0
M  V30 4900 C 520.392 -1.21146 -1.5178 0
M  V30 4901 O 519.667 -0.29378 -1.92269 0
M  V30 4902 C 519.95 -3.54837 -0.613387 0
M  V30 4903 C 519.803 -4.45284 0.635803 0
M  V30 4904 C 521.122 -4.16186 -1.43099 0
M  V30 4905 H 518.241 -0.730177 -0.100049 0
M  V30 4906 H 520.883 -1.84829 0.440235 0
M  V30 4907 H 519.033 -3.68634 -1.22641 0
M  V30 4908 H 520.705 -4.43357 1.27406 0
M  V30 4909 H 518.948 -4.14956 1.26466 0
M  V30 4910 H 519.619 -5.5084 0.357597 0
M  V30 4911 H 522.095 -4.05964 -0.912814 0
M  V30 4912 H 520.971 -5.24031 -1.6335 0
M  V30 4913 H 521.232 -3.69516 -2.42715 0
M  V30 4914 N 520.291 -0.0518155 -1.57515 0
M  V30 4915 C 521.201 0.937539 -2.15052 0
M  V30 4916 C 522.217 1.34121 -1.10849 0
M  V30 4917 O 523.393 1.418 -1.4302 0
M  V30 4918 C 520.458 2.19379 -2.68466 0
M  V30 4919 C 519.519 1.84841 -3.87469 0
M  V30 4920 C 518.752 3.04477 -4.38326 0
M  V30 4921 O 518.975 4.17868 -3.88256 0
M  V30 4922 O 517.909 2.85453 -5.29906 0
M  V30 4923 H 521.735 0.478201 -2.99912 0
M  V30 4924 H 519.32 0.17012 -1.48428 0
M  V30 4925 H 521.202 2.93084 -3.02787 0
M  V30 4926 H 519.877 2.64449 -1.86677 0
M  V30 4927 H 518.784 1.08449 -3.58036 0
M  V30 4928 H 520.117 1.44569 -4.7049 0
M  V30 4929 N 521.769 1.56035 0.221574 0
M  V30 4930 C 522.699 1.95434 1.2778 0
M  V30 4931 C 523.68 0.822564 1.48889 0
M  V30 4932 O 524.865 1.08486 1.61072 0
M  V30 4933 C 521.995 2.27102 2.62759 0
M  V30 4934 C 520.949 3.4277 2.56306 0
M  V30 4935 C 520.275 3.60043 3.95314 0
M  V30 4936 C 521.575 4.77742 2.11093 0
M  V30 4937 H 523.269 2.83912 0.950504 0
M  V30 4938 H 520.815 1.36596 0.455791 0
M  V30 4939 H 522.768 2.53256 3.36807 0
M  V30 4940 H 521.492 1.35478 2.97176 0
M  V30 4941 H 520.151 3.16664 1.84715 0
M  V30 4942 H 519.799 2.65794 4.27039 0
M  V30 4943 H 519.499 4.37841 3.91879 0
M  V30 4944 H 521.023 3.88545 4.71025 0
M  V30 4945 H 522.437 5.03102 2.74885 0
M  V30 4946 H 520.834 5.58823 2.18716 0
M  V30 4947 H 521.904 4.731 1.06321 0
M  V30 4948 N 523.247 -0.488276 1.49845 0
M  V30 4949 C 524.21 -1.57069 1.66919 0
M  V30 4950 C 525.21 -1.51445 0.540479 0
M  V30 4951 O 526.4 -1.5437 0.807188 0
M  V30 4952 C 523.532 -2.96718 1.67844 0
M  V30 4953 H 524.725 -1.43254 2.63474 0
M  V30 4954 H 522.278 -0.713435 1.39068 0
M  V30 4955 H 523.013 -3.15996 0.7292 0
M  V30 4956 H 522.798 -3.02208 2.49826 0
M  V30 4957 H 524.288 -3.75335 1.83066 0
M  V30 4958 N 524.725 -1.39134 -0.740242 0
M  V30 4959 C 525.688 -1.37217 -1.83587 0
M  V30 4960 C 526.688 -0.270221 -1.58513 0
M  V30 4961 O 527.878 -0.527843 -1.6601 0
M  V30 4962 C 525.01 -1.13959 -3.21288 0
M  V30 4963 H 526.203 -2.34705 -1.86691 0
M  V30 4964 H 523.756 -1.24622 -0.94335 0
M  V30 4965 H 524.491 -0.17131 -3.23847 0
M  V30 4966 H 524.276 -1.93754 -3.40884 0
M  V30 4967 H 525.766 -1.15346 -4.01354 0
M  V30 4968 N 526.204 0.969867 -1.24223 0
M  V30 4969 C 527.453 1.70687 -1.07466 0
M  V30 4970 C 527.766 1.91736 0.386861 0
M  V30 4971 O 528.972 2.62986 0.674581 0
M  V30 4972 C 527.428 3.07217 -1.87472 0
M  V30 4973 C 527.036 2.94018 -3.3802 0
M  V30 4974 C 528.78 3.84804 -1.79237 0
M  V30 4975 C 526.687 4.25844 -4.10379 0
M  V30 4976 H 525.617 0.640067 -0.398536 0
M  V30 4977 H 528.268 1.08092 -1.48285 0
M  V30 4978 H 526.65 3.70628 -1.39466 0
M  V30 4979 H 527.824 2.39632 -3.9359 0
M  V30 4980 H 526.139 2.29898 -3.47183 0
M  V30 4981 H 528.736 4.82417 -2.30603 0
M  V30 4982 H 529.079 4.09356 -0.757197 0
M  V30 4983 H 529.612 3.28115 -2.24912 0
M  V30 4984 H 526.351 4.06486 -5.14246 0
M  V30 4985 H 525.871 4.80054 -3.59594 0
M  V30 4986 H 527.55 4.94475 -4.17257 0
M  V30 4987 N 527.682 1.05563 1.17022 0
M  V30 4988 C 528.63 0.653887 2.2322 0
M  V30 4989 C 529.624 -0.326642 1.66221 0
M  V30 4990 O 530.83 -0.192301 1.7897 0
M  V30 4991 H 527.205 0.193297 0.726733 0
M  V30 4992 H 529.176 1.5596 2.54399 0
M  V30 4993 C 527.925 0.0485434 3.47666 0
M  V30 4994 H 527.248 0.79413 3.91834 0
M  V30 4995 H 528.688 -0.195133 4.23551 0
M  V30 4996 C 527.147 -1.20583 3.14581 0
M  V30 4997 O 527.677 -2.29475 3.29703 0
M  V30 4998 N 525.883 -1.10493 2.68774 0
M  V30 4999 H 525.43 -0.218795 2.56669 0
M  V30 5000 H 525.388 -1.94507 2.47011 0
M  V30 5001 N 529.16 -1.33526 0.837174 0
M  V30 5002 C 530.385 -2.0258 0.444545 0
M  V30 5003 C 530.81 -1.6258 -0.946006 0
M  V30 5004 O 530.168 -0.817548 -1.6182 0
M  V30 5005 C 530.216 -3.5605 0.571006 0
M  V30 5006 O 529.32 -4.10422 -0.403431 0
M  V30 5007 H 528.661 -0.638866 0.180958 0
M  V30 5008 H 531.191 -1.70462 1.13154 0
M  V30 5009 H 531.201 -4.05488 0.452024 0
M  V30 5010 H 529.876 -3.84509 1.58512 0
M  V30 5011 H 528.453 -3.72113 -0.242147 0
M  V30 5012 N 530.638 -0.59345 -1.46 0
M  V30 5013 C 531.866 -0.0890934 -2.06708 0
M  V30 5014 C 532.281 1.2205 -1.44046 0
M  V30 5015 O 531.638 1.74029 -0.549551 0
M  V30 5016 C 531.689 0.0720263 -3.61428 0
M  V30 5017 O 531.41 -1.18574 -4.21748 0
M  V30 5018 C 532.911 0.609487 -4.3909 0
M  V30 5019 H 530.131 -0.0623628 -0.668096 0
M  V30 5020 H 532.675 -0.817171 -1.87464 0
M  V30 5021 H 530.83 0.750369 -3.80063 0
M  V30 5022 H 531.244 -1.0064 -5.14754 0
M  V30 5023 H 532.718 0.671363 -5.47902 0
M  V30 5024 H 533.195 1.62878 -4.07882 0
M  V30 5025 H 533.801 -0.03434 -4.25286 0
M  V30 5026 N 532.116 1.54067 -0.331816 0
M  V30 5027 C 533.364 2.00319 0.267739 0
M  V30 5028 C 533.685 1.22148 1.52003 0
M  V30 5029 O 532.955 0.325494 1.93177 0
M  V30 5030 H 531.535 0.740014 0.101922 0
M  V30 5031 H 534.197 1.89628 -0.450267 0
M  V30 5032 H 533.293 3.07765 0.518385 0
M  V30 5033 N 533.594 0.0601682 1.57485 0
M  V30 5034 C 535.005 -0.474217 1.80577 0
M  V30 5035 C 535.356 -1.70365 0.973147 0
M  V30 5036 O 534.481 -2.15544 0.192306 0
M  V30 5037 C 535.076 -0.867102 3.27516 0
M  V30 5038 C 533.635 -1.34642 3.51495 0
M  V30 5039 C 532.782 -0.32594 2.75378 0
M  V30 5040 H 535.733 0.285973 1.56102 0
M  V30 5041 H 535.754 -1.72938 3.38929 0
M  V30 5042 H 535.266 0.0278927 3.8809 0
M  V30 5043 H 533.367 -2.2603 2.96212 0
M  V30 5044 H 533.48 -1.33237 4.60201 0
M  V30 5045 H 531.844 -0.800749 2.41785 0
M  V30 5046 H 532.627 0.561125 3.38683 0
M  V30 5047 N 535.072 -1.5615 -0.213296 0
M  V30 5048 C 536.488 -1.49327 -0.56336 0
M  V30 5049 C 536.688 -0.756826 -1.86747 0
M  V30 5050 O 535.744 -0.299866 -2.50713 0
M  V30 5051 C 537.057 -2.9392 -0.634944 0
M  V30 5052 C 538.605 -3.04487 -0.725013 0
M  V30 5053 C 539.08 -4.50456 -0.82787 0
M  V30 5054 N 540.571 -4.54533 -0.891876 0
M  V30 5055 C 541.306 -5.64766 -0.991315 0
M  V30 5056 N 540.802 -6.84733 -1.05419 0
M  V30 5057 N 542.595 -5.52637 -1.02709 0
M  V30 5058 H 534.746 -2.02453 0.642366 0
M  V30 5059 H 537.009 -0.920548 0.226487 0
M  V30 5060 H 536.715 -3.50783 0.253859 0
M  V30 5061 H 536.589 -3.46274 -1.49579 0
M  V30 5062 H 538.976 -2.47685 -1.60425 0
M  V30 5063 H 539.057 -2.55289 0.161669 0
M  V30 5064 H 538.701 -5.07878 0.0469464 0
M  V30 5065 H 538.631 -4.97369 -1.73009 0
M  V30 5066 H 541.122 -3.68141 -0.85327 0
M  V30 5067 H 541.435 -7.64493 -1.13007 0
M  V30 5068 H 539.78 -6.87427 -1.02318 0
M  V30 5069 H 542.971 -4.5784 -0.974687 0
M  V30 5070 H 543.144 -6.38576 -1.10113 0
M  V30 5071 N 536.55 0.480323 -1.50102 0
M  V30 5072 C 537.798 1.23063 -1.60312 0
M  V30 5073 C 538.119 1.92659 -0.301226 0
M  V30 5074 O 537.389 1.83691 0.680753 0
M  V30 5075 H 535.969 0.457231 -0.590719 0
M  V30 5076 H 538.631 0.554893 -1.86834 0
M  V30 5077 H 537.727 1.9835 -2.40964 0
M  V30 5078 N 538.028 1.39524 0.732853 0
M  V30 5079 C 539.444 1.21176 1.03868 0
M  V30 5080 C 539.644 0.0748448 2.01361 0
M  V30 5081 O 538.7 -0.57281 2.45917 0
M  V30 5082 C 540.013 2.54667 1.59892 0
M  V30 5083 C 541.561 2.6153 1.71962 0
M  V30 5084 C 542.036 3.95248 2.31394 0
M  V30 5085 N 543.527 3.96899 2.38801 0
M  V30 5086 C 544.262 4.97138 2.85729 0
M  V30 5087 N 543.758 6.07775 3.32537 0
M  V30 5088 N 545.551 4.84516 2.84957 0
M  V30 5089 H 537.702 2.12225 0.086304 0
M  V30 5090 H 539.965 0.942614 0.100907 0
M  V30 5091 H 539.671 3.38423 0.95721 0
M  V30 5092 H 539.545 2.74538 2.58668 0
M  V30 5093 H 541.932 1.78156 2.35254 0
M  V30 5094 H 542.013 2.45507 0.718327 0
M  V30 5095 H 541.657 4.79054 1.68729 0
M  V30 5096 H 541.587 4.08593 3.32204 0
M  V30 5097 H 544.078 3.16998 2.05719 0
M  V30 5098 H 544.391 6.8017 3.66862 0
M  V30 5099 H 542.736 6.11366 3.30541 0
M  V30 5100 H 545.927 3.97185 2.47713 0
M  V30 5101 H 546.1 5.62783 3.21215 0
M  V30 5102 N 539.506 -0.963266 1.24736 0
M  V30 5103 C 540.755 -1.70115 1.08369 0
M  V30 5104 C 541.068 -1.91939 -0.376688 0
M  V30 5105 O 542.274 -2.6334 -0.660624 0
M  V30 5106 C 540.73 -3.06218 1.89099 0
M  V30 5107 C 540.338 -2.92221 3.39574 0
M  V30 5108 C 542.082 -3.83848 1.81275 0
M  V30 5109 C 539.989 -4.23662 4.12631 0
M  V30 5110 H 538.919 -0.637944 0.401924 0
M  V30 5111 H 541.57 -1.07304 1.48856 0
M  V30 5112 H 539.952 -3.69884 1.41429 0
M  V30 5113 H 541.126 -2.37541 3.94856 0
M  V30 5114 H 539.441 -2.28054 3.48397 0
M  V30 5115 H 542.038 -4.81188 2.33158 0
M  V30 5116 H 542.381 -4.08949 0.778895 0
M  V30 5117 H 542.914 -3.26918 2.26649 0
M  V30 5118 H 539.653 -4.03753 5.16395 0
M  V30 5119 H 539.173 -4.78141 3.62135 0
M  V30 5120 H 540.852 -4.92256 4.19873 0
M  V30 5121 N 540.985 -1.06182 -1.16461 0
M  V30 5122 C 541.915 -0.692861 -2.22984 0
M  V30 5123 C 542.896 0.314122 -1.67174 0
M  V30 5124 O 544.081 0.189499 -1.93273 0
M  V30 5125 C 541.211 -0.07732 -3.47214 0
M  V30 5126 C 540.165 -1.01015 -4.15909 0
M  V30 5127 C 539.491 -0.257973 -5.34077 0
M  V30 5128 C 540.791 -2.33868 -4.67015 0
M  V30 5129 H 542.485 -1.58343 -2.54102 0
M  V30 5130 H 540.031 -0.76279 -1.22137 0
M  V30 5131 H 541.984 0.19266 -4.20959 0
M  V30 5132 H 540.708 0.848254 -3.15392 0
M  V30 5133 H 539.367 -1.26486 -3.44088 0
M  V30 5134 H 539.015 0.670684 -4.98509 0
M  V30 5135 H 538.715 -0.879638 -5.80979 0
M  V30 5136 H 540.239 0.00448788 -6.106 0
M  V30 5137 H 541.653 -2.1279 -5.32347 0
M  V30 5138 H 540.05 -2.91522 -5.24533 0
M  V30 5139 H 541.12 -2.97019 -3.83286 0
M  V30 5140 N 542.463 1.3308 -0.844243 0
M  V30 5141 C 543.41 2.29104 -0.279323 0
M  V30 5142 C 544.38 1.54577 0.607882 0
M  V30 5143 O 545.565 1.8285 0.545009 0
M  V30 5144 C 542.705 3.40927 0.53508 0
M  V30 5145 C 541.818 4.30354 -0.376749 0
M  V30 5146 C 540.953 5.29297 0.449276 0
M  V30 5147 C 539.992 6.10365 -0.460606 0
M  V30 5148 N 539.129 7.01335 0.327612 0
M  V30 5149 H 543.969 2.76817 -1.10346 0
M  V30 5150 H 541.506 1.36203 -0.555611 0
M  V30 5151 H 543.464 4.04469 1.02278 0
M  V30 5152 H 542.094 2.94391 1.32414 0
M  V30 5153 H 541.146 3.67485 -0.982791 0
M  V30 5154 H 542.458 4.87067 -1.07549 0
M  V30 5155 H 541.612 5.98392 1.00058 0
M  V30 5156 H 540.351 4.73174 1.18143 0
M  V30 5157 H 539.356 5.40182 -1.02388 0
M  V30 5158 H 540.581 6.68571 -1.1912 0
M  V30 5159 H 538.527 6.47655 1.04305 0
M  V30 5160 H 538.444 7.55355 -0.3123 0
M  V30 5161 H 539.712 7.74731 0.86098 0
M  V30 5162 N 543.941 0.601185 1.45683 0
M  V30 5163 C 544.851 -0.123395 2.34275 0
M  V30 5164 C 545.867 -0.86702 1.5086 0
M  V30 5165 O 547.043 -0.826049 1.8368 0
M  V30 5166 C 544.108 -1.11237 3.2837 0
M  V30 5167 C 543.169 -0.371405 4.2769 0
M  V30 5168 C 542.402 -1.31327 5.1729 0
M  V30 5169 O 542.625 -2.55078 5.10188 0
M  V30 5170 O 541.559 -0.813811 5.96373 0
M  V30 5171 H 545.385 0.604483 2.97623 0
M  V30 5172 H 542.97 0.361477 1.44961 0
M  V30 5173 H 544.852 -1.68214 3.8637 0
M  V30 5174 H 543.527 -1.82139 2.67595 0
M  V30 5175 H 542.434 0.24067 3.73325 0
M  V30 5176 H 543.767 0.296998 4.91303 0
M  V30 5177 N 545.419 -1.53889 0.339982 0
M  V30 5178 C 546.696 -1.93084 -0.312719 0
M  V30 5179 C 547.076 -1.2712 -1.68534 0
M  V30 5180 O 546.424 -0.420835 -2.24591 0
M  V30 5181 C 546.634 -3.4683 -0.388558 0
M  V30 5182 C 547.982 -4.19732 -0.641088 0
M  V30 5183 O 549.006 -3.53075 -0.470818 0
M  V30 5184 O 547.865 -5.3781 -0.970685 0
M  V30 5185 H 544.959 -0.806784 -0.18174 0
M  V30 5186 H 547.505 -1.65137 0.390898 0
M  V30 5187 H 546.277 -3.87055 0.574821 0
M  V30 5188 H 545.9 -3.80933 -1.1391 0
M  V30 5189 N 546.897 -0.0685191 -1.57451 0
M  V30 5190 C 548.143 0.602239 -1.93652 0
M  V30 5191 C 548.476 1.6946 -0.948526 0
M  V30 5192 O 547.751 1.94487 0.022782 0
M  V30 5193 C 548.034 1.18223 -3.4014 0
M  V30 5194 C 547.887 0.0967431 -4.49696 0
M  V30 5195 C 549.206 2.08872 -3.87377 0
M  V30 5196 H 546.325 0.217453 -0.70419 0
M  V30 5197 H 548.967 -0.133821 -1.89528 0
M  V30 5198 H 547.117 1.80953 -3.43785 0
M  V30 5199 H 548.789 -0.536155 -4.58174 0
M  V30 5200 H 547.032 -0.573063 -4.29998 0
M  V30 5201 H 547.703 0.542894 -5.49324 0
M  V30 5202 H 550.179 1.56081 -3.85717 0
M  V30 5203 H 549.055 2.46389 -4.90493 0
M  V30 5204 H 549.316 2.99572 -3.25129 0
M  V30 5205 N 548.375 1.56261 0.205012 0
M  V30 5206 C 549.307 1.90266 1.27795 0
M  V30 5207 C 550.32 0.792397 1.42214 0
M  V30 5208 O 551.509 1.07077 1.42817 0
M  V30 5209 C 548.609 2.11074 2.65143 0
M  V30 5210 C 547.782 3.42176 2.7246 0
M  V30 5211 C 546.841 3.52216 3.90936 0
M  V30 5212 O 545.867 4.25119 3.78501 0
M  V30 5213 N 547.069 2.84573 5.05963 0
M  V30 5214 H 549.834 2.82896 0.989434 0
M  V30 5215 H 547.395 1.57008 0.394981 0
M  V30 5216 H 549.387 2.15089 3.4281 0
M  V30 5217 H 547.957 1.2499 2.86524 0
M  V30 5218 H 547.177 3.50116 1.81142 0
M  V30 5219 H 548.465 4.28509 2.74331 0
M  V30 5220 H 547.863 2.25152 5.18963 0
M  V30 5221 H 546.42 2.94228 5.81613 0
M  V30 5222 N 549.853 -0.472356 1.50355 0
M  V30 5223 C 550.816 -1.5529 1.68576 0
M  V30 5224 C 551.816 -1.50863 0.556511 0
M  V30 5225 O 553.006 -1.53505 0.823516 0
M  V30 5226 C 550.138 -2.94921 1.70981 0
M  V30 5227 H 551.331 -1.40451 2.64978 0
M  V30 5228 H 548.884 -0.698645 1.39816 0
M  V30 5229 H 549.619 -3.15204 0.762675 0
M  V30 5230 H 549.404 -2.99541 2.53017 0
M  V30 5231 H 550.894 -3.73372 1.87037 0
M  V30 5232 N 551.331 -1.39911 -0.725443 0
M  V30 5233 C 552.561 -1.40744 -1.51244 0
M  V30 5234 C 552.969 -0.00275403 -1.892 0
M  V30 5235 O 552.312 0.981299 -1.55294 0
M  V30 5236 C 552.374 -2.22527 -2.82351 0
M  V30 5237 C 552.038 -3.71053 -2.66774 0
M  V30 5238 C 553.035 -4.63916 -2.34686 0
M  V30 5239 C 550.72 -4.14753 -2.83347 0
M  V30 5240 C 552.714 -5.98463 -2.19366 0
M  V30 5241 C 550.401 -5.49372 -2.67644 0
M  V30 5242 C 551.399 -6.41042 -2.357 0
M  V30 5243 O 551.087 -7.73181 -2.20107 0
M  V30 5244 H 550.819 -0.482314 -0.473655 0
M  V30 5245 H 553.373 -1.84472 -0.903284 0
M  V30 5246 H 551.603 -1.73563 -3.45562 0
M  V30 5247 H 553.292 -2.15421 -3.44018 0
M  V30 5248 H 554.058 -4.31453 -2.21525 0
M  V30 5249 H 549.937 -3.43728 -3.072 0
M  V30 5250 H 553.481 -6.69979 -1.94354 0
M  V30 5251 H 549.378 -5.81424 -2.80387 0
M  V30 5252 H 550.146 -7.84008 -2.35103 0
M  V30 5253 N 552.809 0.956637 -1.25245 0
M  V30 5254 C 554.055 1.70352 -1.10036 0
M  V30 5255 C 554.388 1.90869 0.358156 0
M  V30 5256 O 553.663 1.47819 1.26411 0
M  V30 5257 C 553.946 3.08766 -1.85298 0
M  V30 5258 C 553.799 2.95672 -3.38966 0
M  V30 5259 C 555.118 4.08622 -1.63451 0
M  V30 5260 H 552.237 0.618279 -0.401123 0
M  V30 5261 H 554.879 1.11212 -1.54051 0
M  V30 5262 H 553.029 3.59252 -1.47887 0
M  V30 5263 H 554.701 2.52527 -3.86041 0
M  V30 5264 H 552.944 2.31634 -3.6678 0
M  V30 5265 H 553.615 3.93776 -3.86839 0
M  V30 5266 H 556.091 3.67038 -1.96015 0
M  V30 5267 H 554.967 5.03514 -2.18551 0
M  V30 5268 H 555.228 4.3834 -0.575357 0
M  V30 5269 N 554.287 1.06798 1.15896 0
M  V30 5270 C 555.234 0.683314 2.20453 0
M  V30 5271 C 556.204 -0.32255 1.62938 0
M  V30 5272 O 557.389 -0.210276 1.89638 0
M  V30 5273 C 554.529 0.0813266 3.45004 0
M  V30 5274 C 553.642 1.13799 4.16742 0
M  V30 5275 C 552.777 0.501598 5.28826 0
M  V30 5276 C 551.816 1.54144 5.92373 0
M  V30 5277 N 550.953 0.928038 6.9594 0
M  V30 5278 H 555.793 1.57932 2.52708 0
M  V30 5279 H 553.33 0.789544 1.24115 0
M  V30 5280 H 555.288 -0.285274 4.16224 0
M  V30 5281 H 553.918 -0.77806 3.13283 0
M  V30 5282 H 552.97 1.62223 3.44075 0
M  V30 5283 H 554.282 1.92664 4.60089 0
M  V30 5284 H 553.436 0.0823162 6.06644 0
M  V30 5285 H 552.175 -0.318883 4.86656 0
M  V30 5286 H 551.18 1.97056 5.13273 0
M  V30 5287 H 552.405 2.3641 6.36621 0
M  V30 5288 H 550.351 0.12836 6.55874 0
M  V30 5289 H 550.268 1.65401 7.37685 0
M  V30 5290 H 551.536 0.534071 7.77668 0
M  V30 5291 N 555.766 -1.3263 0.851289 0
M  V30 5292 C 556.729 -2.27247 0.298541 0
M  V30 5293 C 557.729 -1.51467 -0.539847 0
M  V30 5294 O 558.919 -1.7061 -0.351843 0
M  V30 5295 C 556.051 -3.35964 -0.578004 0
M  V30 5296 H 557.244 -2.7765 1.13359 0
M  V30 5297 H 554.797 -1.43245 0.625354 0
M  V30 5298 H 555.532 -2.90823 -1.435 0
M  V30 5299 H 555.317 -3.92094 0.0220539 0
M  V30 5300 H 556.807 -4.06472 -0.957626 0
M  V30 5301 N 557.244 -0.608902 -1.45362 0
M  V30 5302 C 558.177 0.158059 -2.27652 0
M  V30 5303 C 559.155 0.872397 -1.37215 0
M  V30 5304 O 560.339 0.881002 -1.66645 0
M  V30 5305 C 557.466 1.22896 -3.15617 0
M  V30 5306 C 556.512 0.617607 -4.22005 0
M  V30 5307 S 557.345 -0.575518 -5.32398 0
M  V30 5308 C 558.501 0.495938 -6.23932 0
M  V30 5309 H 558.734 -0.540095 -2.92353 0
M  V30 5310 H 556.267 -0.396456 -1.49223 0
M  V30 5311 H 558.225 1.84195 -3.66855 0
M  V30 5312 H 556.886 1.89919 -2.50179 0
M  V30 5313 H 556.079 1.42341 -4.83482 0
M  V30 5314 H 555.681 0.0797273 -3.73915 0
M  V30 5315 H 557.973 1.37465 -6.63408 0
M  V30 5316 H 558.916 -0.0827108 -7.08052 0
M  V30 5317 H 559.324 0.811856 -5.58631 0
M  V30 5318 N 558.722 1.53707 -0.348139 0
M  V30 5319 C 559.655 2.21481 0.549667 0
M  V30 5320 C 560.633 1.20046 1.09671 0
M  V30 5321 O 561.817 1.48883 1.15612 0
M  V30 5322 C 558.944 2.89585 1.75664 0
M  V30 5323 C 557.99 4.04948 1.33864 0
M  V30 5324 S 558.823 5.34325 0.354577 0
M  V30 5325 C 559.979 6.05934 1.56828 0
M  V30 5326 H 560.212 2.97289 -0.0259755 0
M  V30 5327 H 557.745 1.53833 -0.132216 0
M  V30 5328 H 559.703 3.29441 2.44906 0
M  V30 5329 H 558.364 2.13535 2.30351 0
M  V30 5330 H 557.557 4.51552 2.23868 0
M  V30 5331 H 557.159 3.66893 0.725651 0
M  V30 5332 H 559.451 6.29606 2.50205 0
M  V30 5333 H 560.394 6.98799 1.14395 0
M  V30 5334 H 560.802 5.36151 1.76642 0
M  V30 5335 N 560.2 0.0768682 1.57412 0
M  V30 5336 C 561.132 -0.918248 2.10002 0
M  V30 5337 C 562.145 -1.25808 1.03325 0
M  V30 5338 O 563.334 -1.21438 1.30824 0
M  V30 5339 C 560.434 -2.23263 2.54964 0
M  V30 5340 C 559.607 -2.07088 3.8527 0
M  V30 5341 C 558.666 -3.21876 4.16272 0
M  V30 5342 O 557.692 -2.96643 4.8579 0
M  V30 5343 N 558.894 -4.4712 3.70221 0
M  V30 5344 H 561.659 -0.469209 2.96004 0
M  V30 5345 H 559.22 -0.108725 1.61535 0
M  V30 5346 H 561.212 -2.9897 2.72762 0
M  V30 5347 H 559.782 -2.59649 1.74072 0
M  V30 5348 H 559.002 -1.15818 3.76802 0
M  V30 5349 H 560.29 -1.93537 4.70554 0
M  V30 5350 H 559.688 -4.70506 3.1407 0
M  V30 5351 H 558.245 -5.19837 3.93209 0
M  V30 5352 N 561.678 -1.56367 -0.196722 0
M  V30 5353 C 562.625 -1.94417 -1.24382 0
M  V30 5354 C 563.595 -0.804543 -1.45315 0
M  V30 5355 O 564.78 -1.06256 -1.58475 0
M  V30 5356 C 561.92 -2.28757 -2.58388 0
M  V30 5357 C 561.033 -3.55775 -2.45047 0
M  V30 5358 C 560.168 -3.79445 -3.71746 0
M  V30 5359 C 559.207 -4.99894 -3.53231 0
M  V30 5360 N 558.344 -5.19826 -4.71938 0
M  V30 5361 H 563.184 -2.83691 -0.912338 0
M  V30 5362 H 560.721 -1.40392 -0.439135 0
M  V30 5363 H 562.679 -2.46682 -3.36457 0
M  V30 5364 H 561.309 -1.42625 -2.89582 0
M  V30 5365 H 560.361 -3.45905 -1.58284 0
M  V30 5366 H 561.673 -4.44 -2.27299 0
M  V30 5367 H 560.827 -3.97601 -4.58256 0
M  V30 5368 H 559.566 -2.89546 -3.92446 0
M  V30 5369 H 558.571 -4.81662 -2.65107 0
M  V30 5370 H 559.796 -5.913 -3.33978 0
M  V30 5371 H 557.742 -4.32875 -4.92905 0
M  V30 5372 H 557.659 -6.02228 -4.57009 0
M  V30 5373 H 558.927 -5.42439 -5.59803 0
M  V30 5374 N 563.156 0.464375 -1.50603 0
M  V30 5375 C 564.119 1.54393 -1.69397 0
M  V30 5376 C 565.119 1.50566 -0.564504 0
M  V30 5377 O 566.309 1.53066 -0.831645 0
M  V30 5378 C 563.441 2.9401 -1.72543 0
M  V30 5379 H 564.634 1.39044 -2.65719 0
M  V30 5380 H 562.187 0.69122 -1.40185 0
M  V30 5381 H 562.922 3.14795 -0.77938 0
M  V30 5382 H 562.707 2.98195 -2.54602 0
M  V30 5383 H 564.197 3.72375 -1.89015 0
M  V30 5384 N 564.634 1.40294 0.718013 0
M  V30 5385 C 565.581 1.40367 1.8321 0
M  V30 5386 C 566.551 0.260952 1.64037 0
M  V30 5387 O 567.736 0.458648 1.85205 0
M  V30 5388 C 564.876 1.26965 3.20895 0
M  V30 5389 C 563.989 2.50922 3.51656 0
M  V30 5390 C 563.124 2.29981 4.78834 0
M  V30 5391 C 562.163 3.49527 5.02491 0
M  V30 5392 N 561.3 3.27796 6.20882 0
M  V30 5393 H 566.14 2.35593 1.82482 0
M  V30 5394 H 563.677 1.17012 0.891444 0
M  V30 5395 H 565.635 1.17202 4.00399 0
M  V30 5396 H 564.265 0.353591 3.20858 0
M  V30 5397 H 563.317 2.71223 2.66725 0
M  V30 5398 H 564.629 3.39913 3.65048 0
M  V30 5399 H 563.783 2.17558 5.66351 0
M  V30 5400 H 562.522 1.38411 4.67647 0
M  V30 5401 H 561.527 3.6243 4.1343 0
M  V30 5402 H 562.752 4.42021 5.15553 0
M  V30 5403 H 560.698 2.38906 6.1095 0
M  V30 5404 H 560.615 4.10351 6.34939 0
M  V30 5405 H 561.883 3.19101 7.11193 0
M  V30 5406 N 566.112 -0.949982 1.2575 0
M  V30 5407 C 567.022 -2.08109 1.08295 0
M  V30 5408 C 568.038 -1.7399 0.0188181 0
M  V30 5409 O 569.214 -2.00187 0.220724 0
M  V30 5410 C 566.279 -3.39383 0.708534 0
M  V30 5411 C 565.34 -3.8734 1.85111 0
M  V30 5412 C 564.573 -5.12349 1.49447 0
M  V30 5413 O 564.796 -5.6905 0.392212 0
M  V30 5414 O 563.73 -5.5513 2.32624 0
M  V30 5415 H 567.556 -2.25738 2.03165 0
M  V30 5416 H 565.141 -1.06545 1.04731 0
M  V30 5417 H 567.023 -4.18277 0.512061 0
M  V30 5418 H 565.698 -3.23013 -0.210854 0
M  V30 5419 H 564.605 -3.09429 2.10248 0
M  V30 5420 H 565.938 -4.08216 2.74991 0
M  V30 5421 N 567.59 -1.07411 -1.15328 0
M  V30 5422 C 568.553 -0.698914 -2.18284 0
M  V30 5423 C 569.553 0.261149 -1.58665 0
M  V30 5424 O 570.743 0.0420277 -1.74149 0
M  V30 5425 C 567.875 -0.0302427 -3.40887 0
M  V30 5426 H 569.068 -1.61045 -2.52991 0
M  V30 5427 H 566.621 -0.870724 -1.298 0
M  V30 5428 H 567.356 0.893505 -3.11748 0
M  V30 5429 H 567.141 -0.720759 -3.85419 0
M  V30 5430 H 568.631 0.21759 -4.17033 0
M  V30 5431 N 569.068 1.32177 -0.85831 0
M  V30 5432 C 570.479 1.79381 -0.517621 0
M  V30 5433 C 570.83 1.70841 0.964769 0
M  V30 5434 O 569.955 1.26917 1.75274 0
M  V30 5435 C 570.55 3.25706 -0.932801 0
M  V30 5436 C 569.109 3.70851 -0.643953 0
M  V30 5437 C 568.256 2.53208 -1.13054 0
M  V30 5438 H 571.207 1.19424 -1.04516 0
M  V30 5439 H 571.228 3.79673 -0.250674 0
M  V30 5440 H 570.74 3.31889 -2.01174 0
M  V30 5441 H 568.841 3.70178 0.424112 0
M  V30 5442 H 568.954 4.63495 -1.21281 0
M  V30 5443 H 567.318 2.48676 -0.550679 0
M  V30 5444 H 568.101 2.62143 -2.21666 0
M  V30 5445 N 570.547 0.616602 1.45037 0
M  V30 5446 C 571.51 -0.0871112 2.29034 0
M  V30 5447 C 572.51 -0.786414 1.40258 0
M  V30 5448 O 573.7 -0.633207 1.62284 0
M  V30 5449 C 570.832 -1.13369 3.21497 0
M  V30 5450 H 572.025 0.651497 2.92738 0
M  V30 5451 H 569.578 0.376058 1.51709 0
M  V30 5452 H 570.313 -1.90277 2.62612 0
M  V30 5453 H 570.098 -0.636358 3.86902 0
M  V30 5454 H 571.588 -1.62627 3.84633 0
M  V30 5455 N 572.025 -1.5352 0.356285 0
M  V30 5456 C 572.988 -2.24071 -0.482182 0
M  V30 5457 C 573.988 -1.24531 -1.01729 0
M  V30 5458 O 575.178 -1.48876 -0.904513 0
M  V30 5459 C 572.31 -2.97025 -1.67299 0
M  V30 5460 H 573.503 -2.99596 0.135031 0
M  V30 5461 H 571.056 -1.55928 0.107825 0
M  V30 5462 H 571.791 -2.25719 -2.32855 0
M  V30 5463 H 571.576 -3.7005 -1.29636 0
M  V30 5464 H 573.066 -3.50683 -2.26741 0
M  V30 5465 N 573.503 -0.0852151 -1.57369 0
M  V30 5466 C 574.751 0.579658 -1.93609 0
M  V30 5467 C 575.072 1.69332 -0.967043 0
M  V30 5468 O 574.342 1.95892 -0.0174215 0
M  V30 5469 H 572.922 0.217113 -0.714752 0
M  V30 5470 H 575.584 -0.146226 -1.94351 0
M  V30 5471 H 574.68 0.996276 -2.95771 0
M  V30 5472 N 574.981 1.5647 0.188427 0
M  V30 5473 C 575.944 1.9421 1.21718 0
M  V30 5474 C 576.944 0.823901 1.38089 0
M  V30 5475 O 578.134 1.09122 1.35787 0
M  V30 5476 C 575.266 2.22197 2.58537 0
M  V30 5477 H 576.459 2.86252 0.894418 0
M  V30 5478 H 574.012 1.50263 0.430211 0
M  V30 5479 H 574.747 1.32814 2.95856 0
M  V30 5480 H 574.532 3.03688 2.48025 0
M  V30 5481 H 576.022 2.52376 3.3271 0
M  V30 5482 N 576.459 -0.456382 1.50847 0
M  V30 5483 C 577.422 -1.53493 1.70213 0
M  V30 5484 C 578.422 -1.50264 0.572481 0
M  V30 5485 O 579.612 -1.52623 0.839751 0
M  V30 5486 C 576.744 -2.93091 1.741 0
M  V30 5487 H 577.937 -1.37633 2.66453 0
M  V30 5488 H 575.49 -0.683776 1.4055 0
M  V30 5489 H 576.225 -3.14378 0.796063 0
M  V30 5490 H 576.01 -2.9684 2.5618 0
M  V30 5491 H 577.5 -3.71368 1.90987 0
M  V30 5492 N 577.937 -1.40673 -0.710563 0
M  V30 5493 C 579.162 -1.42741 -1.50465 0
M  V30 5494 C 579.587 -0.0302116 -1.88076 0
M  V30 5495 O 578.945 0.962945 -1.53613 0
M  V30 5496 C 578.993 -2.32873 -2.75322 0
M  V30 5497 O 578.097 -1.77544 -3.72226 0
M  V30 5498 H 577.438 -0.485056 -0.45345 0
M  V30 5499 H 579.968 -1.84961 -0.874681 0
M  V30 5500 H 579.978 -2.48233 -3.23797 0
M  V30 5501 H 578.653 -3.34401 -2.47283 0
M  V30 5502 H 577.23 -1.71556 -3.31093 0
M  V30 5503 N 579.415 0.9433 -1.26252 0
M  V30 5504 C 580.663 1.68592 -1.11451 0
M  V30 5505 C 580.984 1.91957 0.343123 0
M  V30 5506 O 580.254 1.51475 1.24226 0
M  V30 5507 H 578.834 0.624789 -0.409448 0
M  V30 5508 H 581.496 1.13351 -1.58548 0
M  V30 5509 H 580.592 2.66054 -1.63162 0
M  V30 5510 N 580.893 1.08022 1.14757 0
M  V30 5511 C 581.856 0.71048 2.1791 0
M  V30 5512 C 582.856 -0.252731 1.58801 0
M  V30 5513 O 584.046 -0.0327915 1.74169 0
M  V30 5514 C 581.178 0.0483203 3.40866 0
M  V30 5515 H 582.371 1.62384 2.52134 0
M  V30 5516 H 579.924 0.877595 1.29337 0
M  V30 5517 H 580.659 -0.876959 3.12218 0
M  V30 5518 H 580.444 0.741189 3.85031 0
M  V30 5519 H 581.934 -0.195471 4.17142 0
M  V30 5520 N 582.371 -1.3172 0.865308 0
M  V30 5521 C 583.619 -1.96487 0.472995 0
M  V30 5522 C 583.94 -1.68761 -0.976975 0
M  V30 5523 O 583.21 -1.00051 -1.68424 0
M  V30 5524 H 581.79 -0.726947 0.171922 0
M  V30 5525 H 584.452 -1.60612 1.10407 0
M  V30 5526 H 583.548 -3.0574 0.62687 0
M  V30 5527 N 583.85 -0.624285 -1.44708 0
M  V30 5528 C 585.099 -0.123539 -2.01321 0
M  V30 5529 C 585.412 1.25966 -1.49639 0
M  V30 5530 O 586.618 1.85405 -1.98336 0
M  V30 5531 C 585.074 -0.170124 -3.59498 0
M  V30 5532 C 584.682 -1.55421 -4.20176 0
M  V30 5533 C 586.426 0.274513 -4.23611 0
M  V30 5534 C 584.332 -1.55628 -5.70556 0
M  V30 5535 H 583.263 -0.0424183 -0.752806 0
M  V30 5536 H 585.913 -0.782076 -1.65999 0
M  V30 5537 H 584.296 0.555385 -3.92086 0
M  V30 5538 H 585.47 -2.30276 -3.99136 0
M  V30 5539 H 583.784 -1.94235 -3.68323 0
M  V30 5540 H 586.382 0.292402 -5.339 0
M  V30 5541 H 586.725 1.3005 -3.95465 0
M  V30 5542 H 587.258 -0.398275 -3.95801 0
M  V30 5543 H 583.997 -2.56041 -6.03426 0
M  V30 5544 H 583.517 -0.850563 -5.93739 0
M  V30 5545 H 585.196 -1.28721 -6.34066 0
M  V30 5546 N 585.328 1.53329 -0.364422 0
M  V30 5547 C 586.739 1.86345 0.115039 0
M  V30 5548 C 587.09 1.28505 1.4826 0
M  V30 5549 O 586.215 0.606639 2.07723 0
M  V30 5550 C 586.81 3.38114 0.215522 0
M  V30 5551 C 585.369 3.70932 0.639237 0
M  V30 5552 C 584.516 2.76471 -0.214261 0
M  V30 5553 H 587.467 1.47593 -0.583258 0
M  V30 5554 H 587.488 3.66031 1.0393 0
M  V30 5555 H 587 3.80182 -0.779948 0
M  V30 5556 H 585.101 3.3442 1.64298 0
M  V30 5557 H 585.214 4.77302 0.41465 0
M  V30 5558 H 583.578 2.52724 0.316678 0
M  V30 5559 H 584.361 3.21373 -1.20725 0
M  V30 5560 N 586.806 0.0935595 1.57322 0
M  V30 5561 C 588.217 -0.435807 1.81542 0
M  V30 5562 C 588.568 -1.68263 1.00907 0
M  V30 5563 O 587.693 -2.15087 0.237983 0
M  V30 5564 C 588.288 -0.797436 3.29282 0
M  V30 5565 C 586.847 -1.27155 3.54272 0
M  V30 5566 C 585.994 -0.267455 2.76007 0
M  V30 5567 H 588.945 0.31902 1.5546 0
M  V30 5568 H 588.966 -1.6571 3.42521 0
M  V30 5569 H 588.478 0.110206 3.87943 0
M  V30 5570 H 586.579 -2.19696 3.00939 0
M  V30 5571 H 586.692 -1.23445 4.62923 0
M  V30 5572 H 585.056 -0.749282 2.43429 0
M  V30 5573 H 585.839 0.632839 3.37417 0
M  V30 5574 N 588.284 -1.56567 -0.180126 0
M  V30 5575 C 589.533 -1.80685 -0.896426 0
M  V30 5576 C 589.846 -0.669335 -1.83791 0
M  V30 5577 O 591.052 -0.795209 -2.59593 0
M  V30 5578 C 589.508 -3.20132 -1.6445 0
M  V30 5579 C 589.116 -4.41727 -0.747088 0
M  V30 5580 C 590.86 -3.53549 -2.34955 0
M  V30 5581 C 588.767 -5.72195 -1.49489 0
M  V30 5582 H 587.697 -0.673758 -0.338477 0
M  V30 5583 H 590.348 -1.8289 -0.149467 0
M  V30 5584 H 588.73 -3.12218 -2.43589 0
M  V30 5585 H 589.904 -4.608 0.00671129 0
M  V30 5586 H 588.219 -4.16122 -0.152134 0
M  V30 5587 H 590.816 -4.48267 -2.91481 0
M  V30 5588 H 591.159 -2.78006 -3.09868 0
M  V30 5589 H 591.692 -3.62976 -1.62768 0
M  V30 5590 H 588.431 -6.50743 -0.788251 0
M  V30 5591 H 587.951 -5.57115 -2.22224 0
M  V30 5592 H 589.63 -6.1384 -2.04472 0
M  V30 5593 N 589.762 0.448376 -1.51087 0
M  V30 5594 C 591.173 1.0286 -1.5581 0
M  V30 5595 C 591.524 1.92583 -0.374989 0
M  V30 5596 O 590.649 2.10316 0.509533 0
M  V30 5597 C 591.244 1.87223 -2.8237 0
M  V30 5598 C 589.803 2.40314 -2.897 0
M  V30 5599 C 588.95 1.19238 -2.50355 0
M  V30 5600 H 591.901 0.230075 -1.57023 0
M  V30 5601 H 591.922 2.72553 -2.6551 0
M  V30 5602 H 591.434 1.21894 -3.68461 0
M  V30 5603 H 589.535 3.09129 -2.08014 0
M  V30 5604 H 589.648 2.73866 -3.93108 0
M  V30 5605 H 588.012 1.53428 -2.03303 0
M  V30 5606 H 588.795 0.555367 -3.38778 0
M  V30 5607 N 591.24 1.41047 0.703093 0
M  V30 5608 C 592.651 1.35657 1.28274 0
M  V30 5609 C 593.002 0.0360309 1.96167 0
M  V30 5610 O 592.127 -0.865833 1.98324 0
M  V30 5611 C 592.722 2.45707 2.33267 0
M  V30 5612 C 591.281 2.43738 2.86825 0
M  V30 5613 C 590.428 2.25941 1.60767 0
M  V30 5614 H 593.379 1.50672 0.49836 0
M  V30 5615 H 593.4 2.14333 3.14391 0
M  V30 5616 H 592.912 3.41805 1.83824 0
M  V30 5617 H 591.013 1.51375 3.40465 0
M  V30 5618 H 591.126 3.39779 3.37768 0
M  V30 5619 H 589.49 1.73681 1.86298 0
M  V30 5620 H 590.273 3.24054 1.1333 0
M  V30 5621 N 592.718 -0.936591 1.26751 0
M  V30 5622 C 593.964 -1.6858 1.12733 0
M  V30 5623 C 594.297 -1.91414 -0.327745 0
M  V30 5624 O 593.572 -1.49812 -1.24043 0
M  V30 5625 C 593.855 -3.05779 1.90187 0
M  V30 5626 C 593.708 -2.90242 3.43627 0
M  V30 5627 C 595.027 -4.0597 1.69931 0
M  V30 5628 H 592.146 -0.61182 0.410908 0
M  V30 5629 H 594.788 -1.08747 1.55801 0
M  V30 5630 H 592.938 -3.56853 1.53584 0
M  V30 5631 H 594.61 -2.46354 3.9001 0
M  V30 5632 H 592.853 -2.2577 3.70419 0
M  V30 5633 H 593.524 -3.87572 3.93055 0
M  V30 5634 H 596 -3.63874 2.0183 0
M  V30 5635 H 594.876 -4.99974 2.26534 0
M  V30 5636 H 595.137 -4.37369 0.64502 0
M  V30 5637 N 594.196 -1.08629 -1.14182 0
M  V30 5638 C 595.473 -0.73002 -1.81466 0
M  V30 5639 C 595.853 0.785996 -1.95922 0
M  V30 5640 O 595.201 1.70535 -1.52086 0
M  V30 5641 C 595.411 -1.45957 -3.17014 0
M  V30 5642 C 596.759 -1.62008 -3.92477 0
M  V30 5643 O 597.783 -1.42141 -3.26611 0
M  V30 5644 O 596.642 -1.94806 -5.106 0
M  V30 5645 H 593.736 -0.261307 -0.784632 0
M  V30 5646 H 596.282 -1.188 -1.2118 0
M  V30 5647 H 595.054 -2.49221 -3.01669 0
M  V30 5648 H 594.677 -0.993222 -3.84995 0
M  V30 5649 N 595.674 1.31259 -0.872281 0
M  V30 5650 C 596.921 1.96622 -0.484365 0
M  V30 5651 C 597.249 1.68939 0.963841 0
M  V30 5652 O 596.504 0.97974 1.6941 0
M  V30 5653 C 596.803 3.50659 -0.690889 0
M  V30 5654 C 596.469 3.98366 -2.11224 0
M  V30 5655 C 595.131 4.11104 -2.50094 0
M  V30 5656 C 597.483 4.23425 -3.0391 0
M  V30 5657 C 594.811 4.46254 -3.80887 0
M  V30 5658 C 597.163 4.60039 -4.3422 0
M  V30 5659 C 595.827 4.70984 -4.73001 0
M  V30 5660 H 595.097 0.71949 -0.177242 0
M  V30 5661 H 597.744 1.56353 -1.10571 0
M  V30 5662 H 596.049 3.91798 0.0135782 0
M  V30 5663 H 597.746 3.99284 -0.370534 0
M  V30 5664 H 594.336 3.88949 -1.80047 0
M  V30 5665 H 598.52 4.13075 -2.75104 0
M  V30 5666 H 593.776 4.52926 -4.10692 0
M  V30 5667 H 597.95 4.78381 -5.06088 0
M  V30 5668 H 595.577 4.97977 -5.7439 0
M  V30 5669 N 597.152 0.631951 1.44375 0
M  V30 5670 C 598.115 -0.0628142 2.29114 0
M  V30 5671 C 599.115 -0.771494 1.41084 0
M  V30 5672 O 600.305 -0.615959 1.62947 0
M  V30 5673 C 597.437 -1.09953 3.22681 0
M  V30 5674 H 598.63 0.682509 2.92031 0
M  V30 5675 H 596.183 0.392128 1.51301 0
M  V30 5676 H 596.918 -1.87481 2.64616 0
M  V30 5677 H 596.703 -0.595286 3.87555 0
M  V30 5678 H 598.193 -1.58538 3.86336 0
M  V30 5679 N 598.631 -1.53133 0.372548 0
M  V30 5680 C 599.578 -2.25951 -0.470631 0
M  V30 5681 C 600.548 -1.26895 -1.07176 0
M  V30 5682 O 601.733 -1.55691 -1.10294 0
M  V30 5683 C 598.873 -3.05726 -1.6008 0
M  V30 5684 C 597.986 -4.19684 -1.02416 0
M  V30 5685 C 597.121 -4.86888 -2.124 0
M  V30 5686 C 596.16 -5.92866 -1.52238 0
M  V30 5687 N 595.297 -6.53732 -2.56084 0
M  V30 5688 H 600.137 -2.97587 0.156816 0
M  V30 5689 H 597.674 -1.4683 0.0891571 0
M  V30 5690 H 599.632 -3.50258 -2.26661 0
M  V30 5691 H 598.262 -2.36331 -2.1988 0
M  V30 5692 H 597.314 -3.79588 -0.248426 0
M  V30 5693 H 598.626 -4.95821 -0.544366 0
M  V30 5694 H 597.78 -5.34638 -2.86787 0
M  V30 5695 H 596.519 -4.10239 -2.63734 0
M  V30 5696 H 595.524 -5.4447 -0.763685 0
M  V30 5697 H 596.749 -6.71439 -1.0172 0
M  V30 5698 H 594.695 -5.79932 -3.06618 0
M  V30 5699 H 594.612 -7.25429 -2.12811 0
M  V30 5700 H 595.88 -7.0613 -3.30152 0
M  V30 5701 N 600.109 -0.101901 -1.5727 0
M  V30 5702 C 601.339 0.567568 -1.98651 0
M  V30 5703 C 601.747 1.61839 -0.980037 0
M  V30 5704 O 601.09 1.83661 0.0376564 0
M  V30 5705 C 601.152 1.26742 -3.36417 0
M  V30 5706 C 600.816 0.366561 -4.55528 0
M  V30 5707 C 601.813 -0.388022 -5.1845 0
M  V30 5708 C 599.498 0.282629 -5.01504 0
M  V30 5709 C 601.492 -1.21445 -6.25724 0
M  V30 5710 C 599.179 -0.547443 -6.08643 0
M  V30 5711 C 600.177 -1.29462 -6.70618 0
M  V30 5712 O 599.865 -2.11095 -7.7569 0
M  V30 5713 H 599.597 0.156282 -0.657687 0
M  V30 5714 H 602.151 -0.179912 -2.04611 0
M  V30 5715 H 600.381 2.06162 -3.27161 0
M  V30 5716 H 602.07 1.8321 -3.622 0
M  V30 5717 H 602.836 -0.332949 -4.83856 0
M  V30 5718 H 598.715 0.853868 -4.53023 0
M  V30 5719 H 602.259 -1.79814 -6.74027 0
M  V30 5720 H 598.156 -0.603971 -6.42668 0
M  V30 5721 H 598.924 -2.03851 -7.92709 0
M  V30 5722 N 601.587 1.56661 0.17182 0
M  V30 5723 C 602.835 1.81606 0.886774 0
M  V30 5724 C 603.156 0.678818 1.82803 0
M  V30 5725 O 602.426 -0.301354 1.93568 0
M  V30 5726 H 601.006 0.669934 0.330451 0
M  V30 5727 H 603.668 1.94142 0.171757 0
M  V30 5728 H 602.764 2.75634 1.46398 0
M  V30 5729 N 603.065 -0.440357 1.51323 0
M  V30 5730 C 603.975 -1.55955 1.75258 0
M  V30 5731 C 604.991 -1.61933 0.636687 0
M  V30 5732 O 606.167 -1.79231 0.918593 0
M  V30 5733 C 603.232 -2.9196 1.86977 0
M  V30 5734 C 602.293 -2.96122 3.10822 0
M  V30 5735 C 601.526 -4.2564 3.21973 0
M  V30 5736 O 601.749 -5.17851 2.39137 0
M  V30 5737 O 600.683 -4.36025 4.14929 0
M  V30 5738 H 604.509 -1.38673 2.70191 0
M  V30 5739 H 602.094 -0.623055 1.35788 0
M  V30 5740 H 603.976 -3.72682 1.96688 0
M  V30 5741 H 602.651 -3.09375 0.952307 0
M  V30 5742 H 601.558 -2.14366 3.06591 0
M  V30 5743 H 602.891 -2.83651 4.02247 0
M  V30 5744 N 604.543 -1.41418 -0.695603 0
M  V30 5745 C 605.792 -1.40073 -1.4513 0
M  V30 5746 C 606.105 -0.0130439 -1.95596 0
M  V30 5747 O 607.311 0.123032 -2.71221 0
M  V30 5748 C 605.767 -2.46286 -2.62433 0
M  V30 5749 C 605.375 -3.90962 -2.18753 0
M  V30 5750 C 607.119 -2.54077 -3.40066 0
M  V30 5751 C 605.026 -4.88728 -3.33015 0
M  V30 5752 H 603.956 -0.520903 -0.545138 0
M  V30 5753 H 606.607 -1.67242 -0.75515 0
M  V30 5754 H 604.989 -2.12248 -3.34315 0
M  V30 5755 H 606.163 -4.34248 -1.54161 0
M  V30 5756 H 604.478 -3.86831 -1.54114 0
M  V30 5757 H 607.075 -3.24303 -4.25125 0
M  V30 5758 H 607.418 -1.5776 -3.8525 0
M  V30 5759 H 607.951 -2.87206 -2.75241 0
M  V30 5760 H 604.69 -5.86449 -2.92844 0
M  V30 5761 H 604.21 -4.50091 -3.96457 0
M  V30 5762 H 605.889 -5.09483 -3.98793 0
M  V30 5763 N 606.021 0.929856 -1.27246 0
M  V30 5764 C 606.931 2.0636 -1.11592 0
M  V30 5765 C 607.947 1.73938 -0.046496 0
M  V30 5766 O 609.123 1.9981 -0.252544 0
M  V30 5767 C 606.188 3.38213 -0.762437 0
M  V30 5768 C 605.249 3.84346 -1.9125 0
M  V30 5769 C 604.482 5.09906 -1.57579 0
M  V30 5770 O 604.705 5.68354 -0.482694 0
M  V30 5771 O 603.639 5.51359 -2.41426 0
M  V30 5772 H 607.465 2.22478 -2.0673 0
M  V30 5773 H 605.05 1.04865 -1.06413 0
M  V30 5774 H 606.932 4.1741 -0.57854 0
M  V30 5775 H 605.607 3.23307 0.159439 0
M  V30 5776 H 604.514 3.06045 -2.15144 0
M  V30 5777 H 605.847 4.0379 -2.81451 0
M  V30 5778 N 607.499 1.09233 1.13605 0
M  V30 5779 C 608.409 0.741939 2.22559 0
M  V30 5780 C 609.425 -0.255236 1.72118 0
M  V30 5781 O 610.601 -0.0970747 2.01166 0
M  V30 5782 C 607.666 0.165595 3.46304 0
M  V30 5783 C 606.727 1.21846 4.11645 0
M  V30 5784 C 605.96 0.669526 5.29484 0
M  V30 5785 O 606.183 -0.508228 5.68131 0
M  V30 5786 O 605.117 1.42361 5.84822 0
M  V30 5787 H 608.943 1.65107 2.54899 0
M  V30 5788 H 606.528 0.866584 1.21699 0
M  V30 5789 H 608.41 -0.152592 4.21124 0
M  V30 5790 H 607.085 -0.716573 3.15669 0
M  V30 5791 H 605.992 1.58931 3.38662 0
M  V30 5792 H 607.325 2.07321 4.46407 0
M  V30 5793 N 608.977 -1.30795 0.87923 0
M  V30 5794 C 610.223 -1.96653 0.495519 0
M  V30 5795 C 610.556 -1.69282 -0.951703 0
M  V30 5796 O 609.831 -0.994374 -1.6716 0
M  V30 5797 C 610.114 -3.51898 0.764174 0
M  V30 5798 C 609.967 -3.88808 2.2616 0
M  V30 5799 C 611.286 -4.39462 0.236825 0
M  V30 5800 H 608.405 -0.7143 0.181507 0
M  V30 5801 H 611.047 -1.54765 1.10217 0
M  V30 5802 H 609.197 -3.87709 0.247841 0
M  V30 5803 H 610.869 -3.63051 2.8459 0
M  V30 5804 H 609.112 -3.37082 2.73053 0
M  V30 5805 H 609.783 -4.97086 2.4002 0
M  V30 5806 H 612.259 -4.10528 0.678683 0
M  V30 5807 H 611.135 -5.47018 0.454176 0
M  V30 5808 H 611.396 -4.33621 -0.861683 0
M  V30 5809 N 610.455 -0.639598 -1.44038 0
M  V30 5810 C 611.866 -0.228866 -1.85292 0
M  V30 5811 C 612.217 1.22161 -1.53529 0
M  V30 5812 O 611.342 1.93064 -0.977518 0
M  V30 5813 C 611.937 -0.408592 -3.36327 0
M  V30 5814 C 610.496 -0.0522953 -3.76364 0
M  V30 5815 C 609.643 -0.717959 -2.67844 0
M  V30 5816 H 612.594 -0.844194 -1.34384 0
M  V30 5817 H 612.615 0.349968 -3.78887 0
M  V30 5818 H 612.127 -1.46435 -3.59414 0
M  V30 5819 H 610.228 1.0014 -3.58891 0
M  V30 5820 H 610.341 -0.468261 -4.76806 0
M  V30 5821 H 608.705 -0.152459 -2.54243 0
M  V30 5822 H 609.488 -1.77648 -2.93762 0
M  V30 5823 N 611.933 1.52934 -0.380664 0
M  V30 5824 C 612.866 2.22597 0.502564 0
M  V30 5825 C 613.844 1.22345 1.071 0
M  V30 5826 O 615.028 1.51302 1.12428 0
M  V30 5827 C 612.155 2.93246 1.69482 0
M  V30 5828 C 611.201 4.07696 1.25244 0
M  V30 5829 S 612.034 5.34957 0.241159 0
M  V30 5830 C 613.19 6.09124 1.4394 0
M  V30 5831 H 613.423 2.97167 -0.089029 0
M  V30 5832 H 610.956 1.53518 -0.164817 0
M  V30 5833 H 612.914 3.34562 2.37863 0
M  V30 5834 H 611.575 2.18373 2.2577 0
M  V30 5835 H 610.768 4.56199 2.1424 0
M  V30 5836 H 610.37 3.68349 0.647664 0
M  V30 5837 H 612.662 6.34771 2.36794 0
M  V30 5838 H 613.605 7.01068 0.995464 0
M  V30 5839 H 614.013 5.39777 1.65229 0
M  V30 5840 N 613.412 0.11024 1.57214 0
M  V30 5841 C 614.64 -0.557834 1.99238 0
M  V30 5842 C 615.055 -1.60778 0.989734 0
M  V30 5843 O 614.412 -1.82491 -0.0186092 0
M  V30 5844 C 614.463 -1.19189 3.41286 0
M  V30 5845 O 614.184 -0.183919 4.37714 0
M  V30 5846 C 615.685 -1.94413 3.98395 0
M  V30 5847 H 612.905 -0.148392 0.654386 0
M  V30 5848 H 615.449 0.193996 2.03578 0
M  V30 5849 H 613.604 -1.89456 3.37913 0
M  V30 5850 H 614.018 -0.643475 5.20538 0
M  V30 5851 H 615.492 -2.34116 4.99894 0
M  V30 5852 H 615.969 -2.81592 3.3705 0
M  V30 5853 H 616.575 -1.28928 4.05287 0
M  V30 5854 N 614.89 -1.56749 -0.16351 0
M  V30 5855 C 616.306 -1.51043 -0.515567 0
M  V30 5856 C 616.506 -0.815855 -1.84245 0
M  V30 5857 O 615.562 -0.379477 -2.49632 0
M  V30 5858 C 616.875 -2.95791 -0.541114 0
M  V30 5859 C 618.423 -3.0664 -0.627776 0
M  V30 5860 C 618.898 -4.52861 -0.684141 0
M  V30 5861 N 620.389 -4.5714 -0.746818 0
M  V30 5862 C 621.124 -5.67634 -0.811137 0
M  V30 5863 N 620.62 -6.8774 -0.835811 0
M  V30 5864 N 622.413 -5.55624 -0.850756 0
M  V30 5865 H 614.564 -2.00307 0.70645 0
M  V30 5866 H 616.827 -0.912876 0.255659 0
M  V30 5867 H 616.533 -3.49797 0.365329 0
M  V30 5868 H 616.407 -3.50858 -1.38487 0
M  V30 5869 H 618.794 -2.52663 -1.52464 0
M  V30 5870 H 618.875 -2.54645 0.242805 0
M  V30 5871 H 618.519 -5.07472 0.2085 0
M  V30 5872 H 618.449 -5.02621 -1.57098 0
M  V30 5873 H 620.94 -3.70669 -0.735717 0
M  V30 5874 H 621.253 -7.67701 -0.886279 0
M  V30 5875 H 619.598 -6.90334 -0.803958 0
M  V30 5876 H 622.789 -4.60709 -0.828535 0
M  V30 5877 H 622.962 -6.41756 -0.897418 0
M  V30 5878 N 616.368 0.432326 -1.51554 0
M  V30 5879 C 617.298 1.53242 -1.76179 0
M  V30 5880 C 618.279 1.58717 -0.611801 0
M  V30 5881 O 619.464 1.74364 -0.855033 0
M  V30 5882 C 616.594 2.91278 -1.89141 0
M  V30 5883 C 615.548 3.00663 -3.04608 0
M  V30 5884 C 614.874 4.40728 -3.02759 0
M  V30 5885 C 616.174 2.74281 -4.44485 0
M  V30 5886 H 617.868 1.32886 -2.68294 0
M  V30 5887 H 615.414 0.637841 -1.29103 0
M  V30 5888 H 617.367 3.68203 -2.04951 0
M  V30 5889 H 616.091 3.12877 -0.936785 0
M  V30 5890 H 614.75 2.26179 -2.88511 0
M  V30 5891 H 614.398 4.59301 -2.05065 0
M  V30 5892 H 614.098 4.47936 -3.80299 0
M  V30 5893 H 615.622 5.19619 -3.20669 0
M  V30 5894 H 617.036 3.40936 -4.60907 0
M  V30 5895 H 615.433 2.92893 -5.23769 0
M  V30 5896 H 616.503 1.69856 -4.54177 0
M  V30 5897 N 617.846 1.41785 0.688094 0
M  V30 5898 C 618.779 1.38643 1.81255 0
M  V30 5899 C 619.757 0.252583 1.60626 0
M  V30 5900 O 620.941 0.440691 1.83276 0
M  V30 5901 C 618.068 1.16449 3.18053 0
M  V30 5902 C 617.114 2.32651 3.57457 0
M  V30 5903 S 617.947 3.95152 3.61407 0
M  V30 5904 C 619.103 3.75275 5.00919 0
M  V30 5905 H 619.336 2.33799 1.83644 0
M  V30 5906 H 616.869 1.28398 0.857513 0
M  V30 5907 H 618.827 1.0433 3.97021 0
M  V30 5908 H 617.488 0.229002 3.13264 0
M  V30 5909 H 616.681 2.12835 4.56856 0
M  V30 5910 H 616.283 2.41215 2.85817 0
M  V30 5911 H 618.575 3.35443 5.88629 0
M  V30 5912 H 619.518 4.74302 5.25778 0
M  V30 5913 H 619.926 3.08401 4.7281 0
M  V30 5914 N 619.324 -0.923095 1.27737 0
M  V30 5915 C 620.256 -2.02871 1.06658 0
M  V30 5916 C 621.269 -1.62786 0.0212095 0
M  V30 5917 O 622.458 -1.76548 0.263267 0
M  V30 5918 C 619.558 -3.33603 0.59682 0
M  V30 5919 C 618.731 -4.02354 1.71551 0
M  V30 5920 C 617.79 -5.11364 1.24071 0
M  V30 5921 O 616.816 -5.35075 1.94123 0
M  V30 5922 N 618.018 -5.80416 0.0988444 0
M  V30 5923 H 620.783 -2.21515 2.01869 0
M  V30 5924 H 618.344 -1.09378 1.19365 0
M  V30 5925 H 620.336 -4.03845 0.262984 0
M  V30 5926 H 618.906 -3.11499 -0.262187 0
M  V30 5927 H 618.126 -3.25786 2.2194 0
M  V30 5928 H 619.414 -4.45035 2.46619 0
M  V30 5929 H 618.812 -5.63611 -0.485743 0
M  V30 5930 H 617.369 -6.51563 -0.17578 0
M  V30 5931 N 620.802 -1.09834 -1.13024 0
M  V30 5932 C 622.051 -0.831806 -1.83749 0
M  V30 5933 C 622.364 0.644763 -1.84668 0
M  V30 5934 O 623.57 1.02697 -2.51327 0
M  V30 5935 C 622.026 -1.43817 -3.29916 0
M  V30 5936 C 621.634 -2.94759 -3.37374 0
M  V30 5937 C 623.378 -1.25077 -4.05655 0
M  V30 5938 C 621.285 -3.48461 -4.77838 0
M  V30 5939 H 620.215 -0.30751 -0.688443 0
M  V30 5940 H 622.866 -1.32156 -1.27307 0
M  V30 5941 H 621.248 -0.876106 -3.86187 0
M  V30 5942 H 622.422 -3.57228 -2.91076 0
M  V30 5943 H 620.737 -3.12581 -2.75103 0
M  V30 5944 H 623.334 -1.62649 -5.09362 0
M  V30 5945 H 623.677 -0.191782 -4.15858 0
M  V30 5946 H 624.21 -1.78057 -3.55725 0
M  V30 5947 H 620.949 -4.53998 -4.72828 0
M  V30 5948 H 620.469 -2.90757 -5.24615 0
M  V30 5949 H 622.148 -3.45914 -5.46766 0
M  V30 5950 N 622.28 1.30327 -0.886154 0
M  V30 5951 C 623.528 1.9571 -0.504195 0
M  V30 5952 C 623.849 1.70294 0.950003 0
M  V30 5953 O 623.119 1.02718 1.66811 0
M  V30 5954 H 621.699 0.72412 -0.183465 0
M  V30 5955 H 624.361 1.58835 -1.12949 0
M  V30 5956 H 623.457 3.04704 -0.675431 0
M  V30 5957 N 623.758 0.647228 1.43697 0
M  V30 5958 C 624.721 -0.0385101 2.29168 0
M  V30 5959 C 625.721 -0.756487 1.41894 0
M  V30 5960 O 626.911 -0.598641 1.63591 0
M  V30 5961 C 624.043 -1.06524 3.23829 0
M  V30 5962 H 625.236 0.713445 2.9129 0
M  V30 5963 H 622.789 0.408153 1.50877 0
M  V30 5964 H 623.524 -1.84664 2.66589 0
M  V30 5965 H 623.309 -0.554147 3.88164 0
M  V30 5966 H 624.799 -1.54432 3.87996 0
M  V30 5967 N 625.236 -1.5273 0.388769 0
M  V30 5968 C 626.464 -2.05992 -0.193677 0
M  V30 5969 C 626.879 -1.26053 -1.40557 0
M  V30 5970 O 626.236 -0.307049 -1.79898 0
M  V30 5971 C 626.287 -3.57068 -0.564321 0
M  V30 5972 O 626.008 -4.3398 0.599422 0
M  V30 5973 C 627.509 -4.26674 -1.20269 0
M  V30 5974 H 624.729 -0.670358 -0.0293445 0
M  V30 5975 H 627.273 -1.96857 0.553844 0
M  V30 5976 H 625.428 -3.66277 -1.26174 0
M  V30 5977 H 625.842 -5.2367 0.294895 0
M  V30 5978 H 627.316 -5.33625 -1.4124 0
M  V30 5979 H 627.793 -3.81854 -2.16989 0
M  V30 5980 H 628.399 -4.2178 -0.546047 0
M  V30 5981 N 626.714 -0.118576 -1.57153 0
M  V30 5982 C 627.662 0.849114 -2.16547 0
M  V30 5983 C 628.656 1.27567 -1.11458 0
M  V30 5984 O 629.862 1.24746 -1.29763 0
M  V30 5985 H 626.237 0.291935 -0.693021 0
M  V30 5986 H 628.208 0.323693 -2.96639 0
M  V30 5987 C 626.957 2.08951 -2.77912 0
M  V30 5988 H 626.28 1.77021 -3.58474 0
M  V30 5989 H 627.72 2.74666 -3.23008 0
M  V30 5990 C 626.179 2.87899 -1.74974 0
M  V30 5991 O 626.709 3.83268 -1.20285 0
M  V30 5992 N 624.915 2.51884 -1.44924 0
M  V30 5993 H 624.462 1.74397 -1.89587 0
M  V30 5994 H 624.42 3.05003 -0.762921 0
M  V30 5995 N 628.193 1.56834 0.155195 0
M  V30 5996 C 629.123 2.00678 1.19376 0
M  V30 5997 C 630.104 0.884973 1.45266 0
M  V30 5998 O 631.289 1.1522 1.56326 0
M  V30 5999 C 628.419 2.38042 2.5289 0
M  V30 6000 C 627.373 3.53332 2.41538 0
M  V30 6001 C 626.699 3.76485 3.79688 0
M  V30 6002 C 627.999 4.86265 1.9064 0
M  V30 6003 H 629.693 2.87688 0.829232 0
M  V30 6004 H 627.239 1.38407 0.397445 0
M  V30 6005 H 629.192 2.67314 3.25763 0
M  V30 6006 H 627.916 1.4796 2.91162 0
M  V30 6007 H 626.575 3.24213 1.71117 0
M  V30 6008 H 626.223 2.83667 4.15382 0
M  V30 6009 H 625.923 4.54068 3.72956 0
M  V30 6010 H 627.447 4.08174 4.54122 0
M  V30 6011 H 628.861 5.14308 2.53299 0
M  V30 6012 H 627.258 5.67597 1.94818 0
M  V30 6013 H 628.328 4.77184 0.861596 0
M  V30 6014 N 629.671 -0.424282 1.51781 0
M  V30 6015 C 630.621 -1.51464 1.70419 0
M  V30 6016 C 631.605 -1.50911 0.558094 0
M  V30 6017 O 632.797 -1.57143 0.814552 0
M  V30 6018 C 629.926 -2.89539 1.84451 0
M  V30 6019 C 629.012 -2.94798 3.04886 0
M  V30 6020 N 629.403 -2.69778 4.27848 0
M  V30 6021 C 627.701 -3.25962 3.04408 0
M  V30 6022 C 628.402 -2.81216 5.09208 0
M  V30 6023 N 627.378 -3.13447 4.44131 0
M  V30 6024 H 631.18 -1.30892 2.63144 0
M  V30 6025 H 628.694 -0.631783 1.49607 0
M  V30 6026 H 630.691 -3.67998 1.95917 0
M  V30 6027 H 629.351 -3.11121 0.929168 0
M  V30 6028 H 630.362 -2.44458 4.56575 0
M  V30 6029 H 627.039 -3.53236 2.22555 0
M  V30 6030 H 628.429 -2.65715 6.17127 0
M  V30 6031 N 631.149 -1.42148 -0.680565 0
M  V30 6032 C 632.565 -1.24947 -0.992995 0
M  V30 6033 C 632.765 -0.149527 -2.00944 0
M  V30 6034 O 631.821 0.481145 -2.47873 0
M  V30 6035 C 633.134 -2.60426 -1.5033 0
M  V30 6036 C 634.682 -2.67733 -1.62137 0
M  V30 6037 C 635.157 -4.03564 -2.16565 0
M  V30 6038 N 636.648 -4.05488 -2.23905 0
M  V30 6039 C 637.383 -5.07401 -2.67081 0
M  V30 6040 N 636.879 -6.19698 -3.09751 0
M  V30 6041 N 638.672 -4.94758 -2.66778 0
M  V30 6042 H 630.823 -2.12399 -0.0074788 0
M  V30 6043 H 633.086 -0.94571 -0.0658529 0
M  V30 6044 H 632.792 -3.41743 -0.830947 0
M  V30 6045 H 632.666 -2.83949 -2.483 0
M  V30 6046 H 635.053 -1.86765 -2.2848 0
M  V30 6047 H 635.134 -2.48004 -0.626713 0
M  V30 6048 H 634.778 -4.84987 -1.50833 0
M  V30 6049 H 634.708 -4.20641 -3.1681 0
M  V30 6050 H 637.199 -3.24415 -1.93812 0
M  V30 6051 H 637.512 -6.93318 -3.41365 0
M  V30 6052 H 635.857 -6.23212 -3.07623 0
M  V30 6053 H 639.048 -4.06105 -2.32801 0
M  V30 6054 H 639.221 -5.74317 -3.00107 0
M  V30 6055 N 632.627 0.916307 -1.28225 0
M  V30 6056 C 633.852 1.7043 -1.18188 0
M  V30 6057 C 634.277 1.86346 0.256274 0
M  V30 6058 O 633.635 1.37175 1.18544 0
M  V30 6059 C 633.683 3.07546 -1.88275 0
M  V30 6060 O 632.787 3.94904 -1.18848 0
M  V30 6061 H 632.128 0.521967 -0.410423 0
M  V30 6062 H 634.658 1.14589 -1.69501 0
M  V30 6063 H 634.668 3.57793 -1.96082 0
M  V30 6064 H 633.343 2.95279 -2.92887 0
M  V30 6065 H 631.92 3.53339 -1.19187 0
M  V30 6066 N 634.105 1.10431 1.1244 0
M  V30 6067 C 635.351 0.857864 1.84424 0
M  V30 6068 C 635.706 -0.609995 1.82474 0
M  V30 6069 O 634.999 -1.44401 1.25932 0
M  V30 6070 C 635.193 1.34022 3.3132 0
M  V30 6071 C 635.022 2.85344 3.47576 0
M  V30 6072 C 633.792 3.53345 3.61213 0
M  V30 6073 C 635.99 3.83446 3.42744 0
M  V30 6074 N 633.972 4.92989 3.65834 0
M  V30 6075 C 635.343 5.09101 3.5386 0
M  V30 6076 C 637.398 3.76154 3.26209 0
M  V30 6077 C 636.101 6.28323 3.50146 0
M  V30 6078 C 638.127 4.94876 3.23809 0
M  V30 6079 C 637.489 6.19378 3.35485 0
M  V30 6080 H 633.588 0.366917 0.690577 0
M  V30 6081 H 636.172 1.40668 1.34613 0
M  V30 6082 H 634.343 0.818727 3.79673 0
M  V30 6083 H 636.075 1.03801 3.91162 0
M  V30 6084 H 632.83 3.03791 3.63329 0
M  V30 6085 H 633.254 5.65762 3.71809 0
M  V30 6086 H 637.896 2.80813 3.16076 0
M  V30 6087 H 635.614 7.23953 3.5905 0
M  V30 6088 H 639.2 4.90942 3.12197 0
M  V30 6089 H 638.08 7.09704 3.33602 0
M  V30 6090 N 635.583 -1.29855 0.893053 0
M  V30 6091 C 636.513 -2.3035 0.382249 0
M  V30 6092 C 637.494 -1.61328 -0.539203 0
M  V30 6093 O 638.679 -1.88882 -0.451342 0
M  V30 6094 C 635.809 -3.45024 -0.396983 0
M  V30 6095 C 634.763 -4.258 0.433437 0
M  V30 6096 C 634.089 -5.32605 -0.472889 0
M  V30 6097 C 635.389 -4.94549 1.67984 0
M  V30 6098 H 637.083 -2.73325 1.22205 0
M  V30 6099 H 634.629 -1.314 0.589073 0
M  V30 6100 H 636.582 -4.14398 -0.765024 0
M  V30 6101 H 635.306 -3.00875 -1.2705 0
M  V30 6102 H 633.965 -3.58125 0.783723 0
M  V30 6103 H 633.613 -4.84702 -1.34435 0
M  V30 6104 H 633.313 -5.87547 0.0789958 0
M  V30 6105 H 634.837 -6.04832 -0.837269 0
M  V30 6106 H 636.251 -5.56395 1.38192 0
M  V30 6107 H 634.648 -5.59393 2.17254 0
M  V30 6108 H 635.718 -4.20215 2.41965 0
M  V30 6109 N 637.061 -0.65484 -1.43351 0
M  V30 6110 C 638.009 0.0476784 -2.32551 0
M  V30 6111 C 639.003 0.811403 -1.48703 0
M  V30 6112 O 640.209 0.721621 -1.64902 0
M  V30 6113 H 636.584 0.0342038 -0.751222 0
M  V30 6114 H 638.555 -0.722342 -2.89525 0
M  V30 6115 C 637.304 0.999251 -3.33032 0
M  V30 6116 H 636.627 0.421005 -3.97577 0
M  V30 6117 H 638.067 1.45986 -3.98076 0
M  V30 6118 C 636.526 2.09606 -2.63756 0
M  V30 6119 O 637.056 3.18004 -2.4543 0
M  V30 6120 N 635.262 1.86207 -2.23103 0
M  V30 6121 H 634.809 0.980555 -2.38208 0
M  V30 6122 H 634.767 2.59787 -1.77081 0
M  V30 6123 N 638.539 1.52521 -0.396863 0
M  V30 6124 C 639.785 2.01971 0.183169 0
M  V30 6125 C 640.118 1.2825 1.45827 0
M  V30 6126 O 639.393 0.385179 1.90648 0
M  V30 6127 C 639.676 3.5736 0.443391 0
M  V30 6128 C 639.529 4.41743 -0.84753 0
M  V30 6129 C 640.848 4.22539 1.2308 0
M  V30 6130 H 637.967 0.734119 0.0650976 0
M  V30 6131 H 640.609 1.82519 -0.527918 0
M  V30 6132 H 638.759 3.74066 1.04914 0
M  V30 6133 H 640.431 4.36773 -1.48414 0
M  V30 6134 H 638.674 4.0845 -1.4612 0
M  V30 6135 H 639.345 5.48507 -0.620003 0
M  V30 6136 H 641.821 4.09857 0.718084 0
M  V30 6137 H 640.697 5.31227 1.38162 0
M  V30 6138 H 640.958 3.80675 2.24808 0
M  V30 6139 N 640.017 0.126909 1.57088 0
M  V30 6140 C 641.428 -0.397201 1.82426 0
M  V30 6141 C 641.779 -1.66084 1.04453 0
M  V30 6142 O 640.904 -2.14534 0.283552 0
M  V30 6143 C 641.499 -0.727411 3.30899 0
M  V30 6144 C 640.058 -1.19612 3.56889 0
M  V30 6145 C 639.205 -0.20885 2.76512 0
M  V30 6146 H 642.156 0.351924 1.54749 0
M  V30 6147 H 642.177 -1.58407 3.45959 0
M  V30 6148 H 641.689 0.19247 3.87622 0
M  V30 6149 H 639.79 -2.13263 3.05532 0
M  V30 6150 H 639.903 -1.13598 4.65438 0
M  V30 6151 H 638.267 -0.697479 2.44964 0
M  V30 6152 H 639.05 0.704267 3.35998 0
M  V30 6153 N 641.495 -1.56914 -0.146875 0
M  V30 6154 C 642.445 -1.94693 -1.18653 0
M  V30 6155 C 643.429 -0.81821 -1.38543 0
M  V30 6156 O 644.621 -1.08167 -1.40103 0
M  V30 6157 C 641.75 -2.33117 -2.52014 0
M  V30 6158 C 640.836 -3.5256 -2.35717 0
M  V30 6159 N 641.227 -4.69091 -1.89175 0
M  V30 6160 C 639.525 -3.57647 -2.66467 0
M  V30 6161 C 640.226 -5.51187 -1.85924 0
M  V30 6162 N 639.202 -4.92899 -2.29242 0
M  V30 6163 H 643.004 -2.82264 -0.81879 0
M  V30 6164 H 640.518 -1.58474 -0.354929 0
M  V30 6165 H 642.515 -2.58387 -3.27172 0
M  V30 6166 H 641.175 -1.46898 -2.89571 0
M  V30 6167 H 642.186 -4.92844 -1.59139 0
M  V30 6168 H 638.863 -2.81967 -3.07898 0
M  V30 6169 H 640.253 -6.54613 -1.51431 0
M  V30 6170 N 642.974 0.416227 -1.52004 0
M  V30 6171 C 644.22 1.16555 -1.6596 0
M  V30 6172 C 644.553 1.90347 -0.384906 0
M  V30 6173 O 643.828 1.84474 0.616405 0
M  V30 6174 C 644.111 2.1657 -2.87696 0
M  V30 6175 C 643.964 1.46722 -4.25197 0
M  V30 6176 C 645.283 3.17321 -3.04951 0
M  V30 6177 H 642.402 0.422369 -0.603965 0
M  V30 6178 H 645.044 0.452141 -1.84542 0
M  V30 6179 H 643.194 2.77411 -2.71985 0
M  V30 6180 H 644.866 0.89056 -4.52622 0
M  V30 6181 H 643.109 0.769263 -4.26925 0
M  V30 6182 H 643.78 2.19665 -5.0641 0
M  V30 6183 H 646.256 2.66552 -3.19514 0
M  V30 6184 H 645.132 3.84573 -3.91656 0
M  V30 6185 H 645.393 3.84643 -2.17951 0
M  V30 6186 N 644.452 1.42507 0.673017 0
M  V30 6187 C 645.68 1.46473 1.46128 0
M  V30 6188 C 646.095 0.0765912 1.88645 0
M  V30 6189 O 645.452 -0.909057 1.58248 0
M  V30 6190 C 645.503 2.39339 2.70923 0
M  V30 6191 O 645.224 3.72752 2.3019 0
M  V30 6192 C 646.725 2.52343 3.64469 0
M  V30 6193 H 643.945 0.49812 0.449575 0
M  V30 6194 H 646.489 1.87041 0.826802 0
M  V30 6195 H 644.644 2.02019 3.30556 0
M  V30 6196 H 645.058 4.22503 3.10791 0
M  V30 6197 H 646.532 3.2144 4.48754 0
M  V30 6198 H 647.009 1.56189 4.1049 0
M  V30 6199 H 647.615 2.90392 3.10729 0
M  V30 6200 N 645.93 -0.909495 1.28709 0
M  V30 6201 C 646.862 -2.01729 1.08804 0
M  V30 6202 C 647.875 -1.62755 0.0384739 0
M  V30 6203 O 649.064 -1.76259 0.281977 0
M  V30 6204 C 646.164 -3.32952 0.63217 0
M  V30 6205 C 645.337 -4.00512 1.75809 0
M  V30 6206 C 644.396 -5.10019 1.29488 0
M  V30 6207 O 643.422 -5.32986 1.99787 0
M  V30 6208 N 644.624 -5.80278 0.1604 0
M  V30 6209 H 647.389 -2.19362 2.04207 0
M  V30 6210 H 644.95 -1.08106 1.20518 0
M  V30 6211 H 646.942 -4.03543 0.305802 0
M  V30 6212 H 645.512 -3.11759 -0.229134 0
M  V30 6213 H 644.732 -3.23413 2.25383 0
M  V30 6214 H 646.02 -4.42395 2.51325 0
M  V30 6215 H 645.418 -5.64094 -0.425937 0
M  V30 6216 H 643.975 -6.51713 -0.106663 0
M  V30 6217 N 647.408 -1.11026 -1.11852 0
M  V30 6218 C 648.655 -0.85646 -1.83497 0
M  V30 6219 C 648.983 0.617938 -1.84423 0
M  V30 6220 O 648.238 1.47194 -1.28966 0
M  V30 6221 C 648.537 -1.35777 -3.30604 0
M  V30 6222 C 648.203 -2.84465 -3.49843 0
M  V30 6223 C 646.865 -3.25068 -3.54802 0
M  V30 6224 C 649.217 -3.80251 -3.56453 0
M  V30 6225 C 646.545 -4.60194 -3.63921 0
M  V30 6226 C 648.897 -5.15188 -3.67102 0
M  V30 6227 C 647.561 -5.55356 -3.70319 0
M  V30 6228 H 646.831 -0.313401 -0.671462 0
M  V30 6229 H 649.478 -1.38792 -1.31943 0
M  V30 6230 H 647.783 -0.746455 -3.84624 0
M  V30 6231 H 649.48 -1.13779 -3.8452 0
M  V30 6232 H 646.07 -2.52054 -3.46651 0
M  V30 6233 H 650.254 -3.49986 -3.51886 0
M  V30 6234 H 645.51 -4.90728 -3.64686 0
M  V30 6235 H 649.684 -5.89248 -3.71159 0
M  V30 6236 H 647.311 -6.60054 -3.77138 0
M  V30 6237 N 648.886 1.2938 -0.899927 0
M  V30 6238 C 649.796 2.31462 -0.382437 0
M  V30 6239 C 650.812 1.65956 0.522929 0
M  V30 6240 O 651.988 1.97131 0.412454 0
M  V30 6241 C 649.053 3.44595 0.381472 0
M  V30 6242 C 648.114 4.25692 -0.555444 0
M  V30 6243 C 647.347 5.33422 0.172102 0
M  V30 6244 O 647.57 5.53053 1.396 0
M  V30 6245 O 646.504 5.99939 -0.485491 0
M  V30 6246 H 650.33 2.77706 -1.22934 0
M  V30 6247 H 647.915 1.33821 -0.664259 0
M  V30 6248 H 649.797 4.13474 0.813442 0
M  V30 6249 H 648.472 3.00458 1.20443 0
M  V30 6250 H 647.379 3.59453 -1.03653 0
M  V30 6251 H 648.712 4.73471 -1.34483 0
M  V30 6252 N 650.364 0.662433 1.43002 0
M  V30 6253 C 651.589 0.186003 2.06564 0
M  V30 6254 C 652.014 -1.14314 1.49379 0
M  V30 6255 O 651.372 -1.70824 0.607346 0
M  V30 6256 C 651.42 0.118269 3.60406 0
M  V30 6257 O 650.524 -0.916859 4.02079 0
M  V30 6258 H 649.865 0.0990981 0.656563 0
M  V30 6259 H 652.395 0.907958 1.8335 0
M  V30 6260 H 652.405 -0.0619981 4.07953 0
M  V30 6261 H 651.08 1.08849 4.01403 0
M  V30 6262 H 649.657 -0.708635 3.66105 0
M  V30 6263 N 651.842 -1.52309 0.404946 0
M  V30 6264 C 652.805 -2.25491 -0.410651 0
M  V30 6265 C 653.805 -1.27704 -0.977154 0
M  V30 6266 O 654.995 -1.51679 -0.856691 0
M  V30 6267 C 652.127 -3.02197 -1.57765 0
M  V30 6268 H 653.32 -2.99015 0.230277 0
M  V30 6269 H 650.873 -1.55506 0.157377 0
M  V30 6270 H 651.608 -2.33013 -2.25556 0
M  V30 6271 H 651.393 -3.73987 -1.17797 0
M  V30 6272 H 652.883 -3.57719 -2.15469 0
M  V30 6273 N 653.32 -0.135238 -1.57019 0
M  V30 6274 C 654.597 0.563227 -1.87316 0
M  V30 6275 C 654.977 1.83749 -1.03921 0
M  V30 6276 O 654.325 2.2817 -0.122675 0
M  V30 6277 C 654.535 0.840031 -3.3874 0
M  V30 6278 C 655.883 1.18598 -4.077 0
M  V30 6279 O 656.907 0.92977 -3.43851 0
M  V30 6280 O 655.766 1.66758 -5.20436 0
M  V30 6281 H 652.86 0.285971 -0.775983 0
M  V30 6282 H 655.406 -0.170965 -1.68837 0
M  V30 6283 H 654.178 -0.0622785 -3.9125 0
M  V30 6284 H 653.801 1.62882 -3.62706 0
M  V30 6285 N 654.798 1.5699 0.138552 0
M  V30 6286 C 656.047 1.82998 0.848205 0
M  V30 6287 C 656.36 0.717829 1.81952 0
M  V30 6288 O 657.566 0.863756 2.57394 0
M  V30 6289 C 656.022 3.24379 1.55904 0
M  V30 6290 C 655.63 4.43552 0.62971 0
M  V30 6291 C 657.374 3.59654 2.25498 0
M  V30 6292 C 655.281 5.75957 1.34266 0
M  V30 6293 H 654.211 0.682495 0.320495 0
M  V30 6294 H 656.862 1.83222 0.100924 0
M  V30 6295 H 655.244 3.18567 2.35226 0
M  V30 6296 H 656.418 4.6062 -0.128882 0
M  V30 6297 H 654.733 4.16379 0.0417526 0
M  V30 6298 H 657.33 4.55837 2.79493 0
M  V30 6299 H 657.673 2.86124 3.02388 0
M  V30 6300 H 658.206 3.67164 1.53087 0
M  V30 6301 H 654.945 6.52604 0.615441 0
M  V30 6302 H 654.465 5.62811 2.07375 0
M  V30 6303 H 656.144 6.19046 1.88126 0
M  V30 6304 N 656.276 -0.40816 1.52223 0
M  V30 6305 C 657.504 -1.17672 1.70179 0
M  V30 6306 C 657.919 -1.84257 0.411696 0
M  V30 6307 O 657.276 -1.7192 -0.612354 0
M  V30 6308 C 657.327 -2.23911 2.83806 0
M  V30 6309 O 657.048 -1.60044 4.0782 0
M  V30 6310 C 658.549 -3.1364 3.13281 0
M  V30 6311 H 655.769 -0.353562 0.570293 0
M  V30 6312 H 658.313 -0.480083 1.98785 0
M  V30 6313 H 656.468 -2.89242 2.57717 0
M  V30 6314 H 656.882 -2.30484 4.71145 0
M  V30 6315 H 658.356 -3.84255 3.96298 0
M  V30 6316 H 658.833 -3.76066 2.26872 0
M  V30 6317 H 659.439 -2.53977 3.41139 0
M  V30 6318 N 657.755 -1.42862 -0.66545 0
M  V30 6319 C 658.665 -1.49491 -1.80803 0
M  V30 6320 C 659.681 -0.382914 -1.69734 0
M  V30 6321 O 660.857 -0.635223 -1.9112 0
M  V30 6322 C 657.922 -1.40383 -3.17007 0
M  V30 6323 C 656.983 -2.62152 -3.39963 0
M  V30 6324 C 656.216 -2.53469 -4.69669 0
M  V30 6325 O 656.439 -1.57568 -5.48205 0
M  V30 6326 O 655.373 -3.43763 -4.94075 0
M  V30 6327 H 659.199 -2.45949 -1.78165 0
M  V30 6328 H 656.784 -1.24728 -0.822387 0
M  V30 6329 H 658.666 -1.377 -3.98267 0
M  V30 6330 H 657.341 -0.470546 -3.20262 0
M  V30 6331 H 656.248 -2.70409 -2.58515 0
M  V30 6332 H 657.581 -3.54411 -3.41546 0
M  V30 6333 N 659.233 0.902656 -1.29189 0
M  V30 6334 C 660.163 2.02294 -1.16616 0
M  V30 6335 C 661.144 1.6999 -0.0611175 0
M  V30 6336 O 662.329 1.9271 -0.240072 0
M  V30 6337 C 659.459 3.37018 -0.83882 0
M  V30 6338 C 658.413 3.83522 -1.89986 0
M  V30 6339 C 657.739 5.15337 -1.42589 0
M  V30 6340 C 659.039 4.04169 -3.30824 0
M  V30 6341 H 660.733 2.13071 -2.10336 0
M  V30 6342 H 658.279 1.02378 -1.01266 0
M  V30 6343 H 660.232 4.14895 -0.737584 0
M  V30 6344 H 658.956 3.26325 0.134071 0
M  V30 6345 H 657.615 3.07859 -1.99043 0
M  V30 6346 H 657.263 5.01056 -0.441759 0
M  V30 6347 H 656.963 5.47423 -2.13547 0
M  V30 6348 H 658.487 5.95758 -1.3381 0
M  V30 6349 H 659.901 4.72537 -3.24626 0
M  V30 6350 H 658.298 4.47604 -3.99713 0
M  V30 6351 H 659.368 3.08604 -3.74021 0
M  V30 6352 N 660.711 1.11618 1.11262 0
M  V30 6353 C 661.621 0.78898 2.20935 0
M  V30 6354 C 662.637 -0.21867 1.7262 0
M  V30 6355 O 663.813 -0.0543826 2.01327 0
M  V30 6356 C 660.878 0.239014 3.45875 0
M  V30 6357 C 659.939 1.3055 4.08968 0
M  V30 6358 C 659.172 0.781687 5.27944 0
M  V30 6359 O 659.395 -0.387605 5.69082 0
M  V30 6360 O 658.329 1.54734 5.81671 0
M  V30 6361 H 662.155 1.70477 2.51339 0
M  V30 6362 H 659.74 0.892203 1.19834 0
M  V30 6363 H 661.622 -0.0632312 4.21353 0
M  V30 6364 H 660.297 -0.649454 3.17118 0
M  V30 6365 H 659.204 1.66079 3.35214 0
M  V30 6366 H 660.537 2.16743 4.41909 0
M  V30 6367 N 662.189 -1.289 0.906776 0
M  V30 6368 C 663.152 -2.25777 0.394656 0
M  V30 6369 C 664.152 -1.53621 -0.475119 0
M  V30 6370 O 665.342 -1.71949 -0.279165 0
M  V30 6371 C 662.474 -3.38113 -0.43499 0
M  V30 6372 H 663.667 -2.72592 1.25033 0
M  V30 6373 H 661.22 -1.40463 0.685547 0
M  V30 6374 H 661.955 -2.96648 -1.31036 0
M  V30 6375 H 661.74 -3.91647 0.188334 0
M  V30 6376 H 663.23 -4.10168 -0.784365 0
M  V30 6377 N 663.667 -0.670007 -1.42649 0
M  V30 6378 C 664.914 -0.190286 -2.01604 0
M  V30 6379 C 665.242 1.20155 -1.52948 0
M  V30 6380 O 664.497 1.81964 -0.72026 0
M  V30 6381 C 664.796 -0.168298 -3.57004 0
M  V30 6382 C 664.462 -1.50415 -4.25072 0
M  V30 6383 C 663.124 -1.86992 -4.43382 0
M  V30 6384 C 665.476 -2.38414 -4.63474 0
M  V30 6385 C 662.804 -3.11203 -4.97363 0
M  V30 6386 C 665.156 -3.61933 -5.18833 0
M  V30 6387 C 663.82 -3.98685 -5.35356 0
M  V30 6388 H 663.09 -0.0696305 -0.737721 0
M  V30 6389 H 665.737 -0.864044 -1.70899 0
M  V30 6390 H 664.042 0.588958 -3.87348 0
M  V30 6391 H 665.739 0.22001 -4.00396 0
M  V30 6392 H 662.329 -1.20959 -4.11177 0
M  V30 6393 H 666.513 -2.11442 -4.49006 0
M  V30 6394 H 661.769 -3.39705 -5.08341 0
M  V30 6395 H 665.943 -4.30326 -5.47533 0
M  V30 6396 H 663.57 -4.95009 -5.76949 0
M  V30 6397 N 665.145 1.52092 -0.413018 0
M  V30 6398 C 666.561 1.59471 -0.0640836 0
M  V30 6399 C 666.761 1.42562 1.42402 0
M  V30 6400 O 665.817 1.25453 2.19129 0
M  V30 6401 C 667.13 2.95392 -0.562474 0
M  V30 6402 C 668.678 3.08637 -0.520788 0
M  V30 6403 C 669.153 4.47044 -0.995752 0
M  V30 6404 N 670.644 4.53296 -0.952732 0
M  V30 6405 C 671.379 5.58669 -1.29138 0
M  V30 6406 N 670.875 6.71576 -1.70168 0
M  V30 6407 N 672.668 5.48898 -1.2111 0
M  V30 6408 H 664.819 1.6133 -1.38153 0
M  V30 6409 H 667.082 0.75916 -0.567785 0
M  V30 6410 H 666.788 3.13059 -1.60271 0
M  V30 6411 H 666.662 3.77191 0.0257875 0
M  V30 6412 H 669.049 2.90652 0.510412 0
M  V30 6413 H 669.13 2.28735 -1.14515 0
M  V30 6414 H 668.774 4.65773 -2.0253 0
M  V30 6415 H 668.704 5.25448 -0.348162 0
M  V30 6416 H 671.195 3.72248 -0.651119 0
M  V30 6417 H 671.508 7.47973 -1.9431 0
M  V30 6418 H 669.853 6.72847 -1.74075 0
M  V30 6419 H 673.044 4.59573 -0.889396 0
M  V30 6420 H 673.217 6.30912 -1.47833 0
M  V30 6421 N 666.623 0.143563 1.56945 0
M  V30 6422 C 667.869 -0.50916 1.96304 0
M  V30 6423 C 668.202 -1.64741 1.0283 0
M  V30 6424 O 667.477 -1.94374 0.0700361 0
M  V30 6425 C 667.76 -1.0186 3.45393 0
M  V30 6426 C 667.613 0.117923 4.49645 0
M  V30 6427 C 668.932 -1.90151 3.96901 0
M  V30 6428 H 666.051 -0.183608 0.713763 0
M  V30 6429 H 668.693 0.224095 1.88674 0
M  V30 6430 H 666.843 -1.64345 3.52027 0
M  V30 6431 H 668.515 0.754145 4.55094 0
M  V30 6432 H 666.758 0.777568 4.26774 0
M  V30 6433 H 667.429 -0.280187 5.51288 0
M  V30 6434 H 669.905 -1.375 3.92725 0
M  V30 6435 H 668.781 -2.22707 5.0169 0
M  V30 6436 H 669.042 -2.83718 3.39052 0
M  V30 6437 N 668.101 -1.57061 -0.130224 0
M  V30 6438 C 669.064 -1.98593 -1.14426 0
M  V30 6439 C 670.064 -0.874584 -1.34936 0
M  V30 6440 O 671.254 -1.14086 -1.31643 0
M  V30 6441 C 668.386 -2.31639 -2.50112 0
M  V30 6442 H 669.579 -2.89374 -0.787561 0
M  V30 6443 H 667.132 -1.51756 -0.374146 0
M  V30 6444 H 667.867 -1.43703 -2.90723 0
M  V30 6445 H 667.652 -3.12684 -2.36583 0
M  V30 6446 H 669.142 -2.64551 -3.23114 0
M  V30 6447 N 669.579 0.400081 -1.52437 0
M  V30 6448 C 670.511 1.50729 -1.72666 0
M  V30 6449 C 671.524 1.51058 -0.607075 0
M  V30 6450 O 672.713 1.5516 -0.88248 0
M  V30 6451 C 669.813 2.89604 -1.76019 0
M  V30 6452 C 668.986 3.13365 -3.05157 0
M  V30 6453 C 668.045 4.32163 -3.00203 0
M  V30 6454 O 667.071 4.29004 -3.74092 0
M  V30 6455 N 668.273 5.3776 -2.18619 0
M  V30 6456 H 671.038 1.33767 -2.68191 0
M  V30 6457 H 668.599 0.58948 -1.50787 0
M  V30 6458 H 670.591 3.67159 -1.70225 0
M  V30 6459 H 669.161 2.99979 -0.879284 0
M  V30 6460 H 668.381 2.23774 -3.24529 0
M  V30 6461 H 669.669 3.26089 -3.90568 0
M  V30 6462 H 669.067 5.43177 -1.58035 0
M  V30 6463 H 667.624 6.14023 -2.18674 0
M  V30 6464 N 671.057 1.43213 0.657864 0
M  V30 6465 C 672.004 1.48011 1.77092 0
M  V30 6466 C 672.974 0.330291 1.62783 0
M  V30 6467 O 674.159 0.536787 1.83094 0
M  V30 6468 C 671.299 1.40461 3.15222 0
M  V30 6469 C 670.412 2.65612 3.40697 0
M  V30 6470 C 669.547 2.50083 4.68649 0
M  V30 6471 C 668.586 3.70525 4.87214 0
M  V30 6472 N 667.723 3.53835 6.0642 0
M  V30 6473 H 672.563 2.43121 1.72326 0
M  V30 6474 H 670.1 1.20687 0.841013 0
M  V30 6475 H 672.058 1.34079 3.95068 0
M  V30 6476 H 670.688 0.489359 3.19069 0
M  V30 6477 H 669.74 2.82292 2.54982 0
M  V30 6478 H 671.052 3.5509 3.50303 0
M  V30 6479 H 670.206 2.41383 5.56614 0
M  V30 6480 H 668.945 1.58121 4.61356 0
M  V30 6481 H 667.95 3.79639 3.97686 0
M  V30 6482 H 669.175 4.63489 4.96341 0
M  V30 6483 H 667.121 2.64604 6.00267 0
M  V30 6484 H 667.038 4.36912 6.16963 0
M  V30 6485 H 668.306 3.48978 6.97019 0
M  V30 6486 N 672.536 -0.895792 1.29666 0
M  V30 6487 C 673.499 -1.98189 1.15124 0
M  V30 6488 C 674.499 -1.60572 0.0855717 0
M  V30 6489 O 675.689 -1.70991 0.332826 0
M  V30 6490 C 672.821 -3.32289 0.761372 0
M  V30 6491 H 674.014 -2.12518 2.11603 0
M  V30 6492 H 671.567 -1.0808 1.12908 0
M  V30 6493 H 672.302 -3.23662 -0.203393 0
M  V30 6494 H 672.087 -3.60958 1.53139 0
M  V30 6495 H 673.577 -4.1198 0.682792 0
M  V30 6496 N 674.014 -1.12206 -1.10668 0
M  V30 6497 C 675.26 -0.877172 -1.82848 0
M  V30 6498 C 675.593 0.595571 -1.84842 0
M  V30 6499 O 674.868 1.44013 -1.30731 0
M  V30 6500 C 675.151 -1.44957 -3.29635 0
M  V30 6501 C 675.004 -2.99051 -3.35989 0
M  V30 6502 C 676.323 -1.10714 -4.25946 0
M  V30 6503 H 673.442 -0.320103 -0.663854 0
M  V30 6504 H 676.084 -1.38827 -1.2972 0
M  V30 6505 H 674.234 -1.01488 -3.7501 0
M  V30 6506 H 675.906 -3.51182 -2.99113 0
M  V30 6507 H 674.149 -3.34705 -2.75962 0
M  V30 6508 H 674.82 -3.34194 -4.39339 0
M  V30 6509 H 677.296 -1.48254 -3.88793 0
M  V30 6510 H 676.172 -1.5343 -5.2702 0
M  V30 6511 H 676.433 -0.019 -4.42096 0
M  V30 6512 N 675.492 1.28418 -0.913599 0
M  V30 6513 C 676.455 2.25564 -0.406624 0
M  V30 6514 C 677.455 1.5387 0.466965 0
M  V30 6515 O 678.645 1.72094 0.270042 0
M  V30 6516 C 675.777 3.38339 0.417053 0
M  V30 6517 H 676.97 2.71926 -1.26477 0
M  V30 6518 H 674.523 1.40098 -0.692986 0
M  V30 6519 H 675.258 2.97339 1.29461 0
M  V30 6520 H 675.043 3.91542 -0.209102 0
M  V30 6521 H 676.533 4.10578 0.762602 0
M  V30 6522 N 676.97 0.677563 1.42291 0
M  V30 6523 C 677.88 0.000962654 2.346 0
M  V30 6524 C 678.896 -0.785833 1.55244 0
M  V30 6525 O 680.072 -0.727523 1.87801 0
M  V30 6526 C 677.137 -0.936746 3.33805 0
M  V30 6527 C 676.198 -0.144173 4.29058 0
M  V30 6528 C 675.431 -1.03722 5.23524 0
M  V30 6529 O 675.654 -2.27675 5.22992 0
M  V30 6530 O 674.588 -0.496542 5.99848 0
M  V30 6531 H 678.414 0.761397 2.94001 0
M  V30 6532 H 675.999 0.43781 1.42841 0
M  V30 6533 H 677.881 -1.47497 3.94744 0
M  V30 6534 H 676.556 -1.67698 2.76874 0
M  V30 6535 H 675.463 0.438224 3.71524 0
M  V30 6536 H 676.796 0.55701 4.89038 0
M  V30 6537 N 678.448 -1.51871 0.421078 0
M  V30 6538 C 679.395 -2.27334 -0.398508 0
M  V30 6539 C 680.365 -1.30241 -1.03085 0
M  V30 6540 O 681.55 -1.59121 -1.05285 0
M  V30 6541 C 678.69 -3.10664 -1.50272 0
M  V30 6542 C 677.803 -4.2273 -0.890122 0
M  V30 6543 C 676.938 -4.93399 -1.96803 0
M  V30 6544 C 675.977 -5.97409 -1.333 0
M  V30 6545 N 675.114 -6.61548 -2.35156 0
M  V30 6546 H 679.954 -2.96938 0.251411 0
M  V30 6547 H 677.491 -1.46472 0.135825 0
M  V30 6548 H 679.449 -3.57292 -2.15403 0
M  V30 6549 H 678.079 -2.43207 -2.1225 0
M  V30 6550 H 677.131 -3.80186 -0.127537 0
M  V30 6551 H 678.443 -4.97302 -0.386349 0
M  V30 6552 H 677.597 -5.43491 -2.69633 0
M  V30 6553 H 676.336 -4.18421 -2.50549 0
M  V30 6554 H 675.341 -5.46624 -0.59008 0
M  V30 6555 H 676.566 -6.74335 -0.803076 0
M  V30 6556 H 674.512 -5.89394 -2.88012 0
M  V30 6557 H 674.429 -7.31832 -1.89624 0
M  V30 6558 H 675.697 -7.16276 -3.0752 0
M  V30 6559 N 679.926 -0.151884 -1.56866 0
M  V30 6560 C 680.889 0.771861 -2.15812 0
M  V30 6561 C 681.889 1.17181 -1.10115 0
M  V30 6562 O 683.079 1.09194 -1.35729 0
M  V30 6563 C 680.211 2.04806 -2.7252 0
M  V30 6564 H 681.404 0.259021 -2.98779 0
M  V30 6565 H 678.957 0.097588 -1.55995 0
M  V30 6566 H 679.692 2.60445 -1.93233 0
M  V30 6567 H 679.477 1.77044 -3.49854 0
M  V30 6568 H 680.967 2.70771 -3.1792 0
M  V30 6569 N 681.404 1.57128 0.121893 0
M  V30 6570 C 682.652 1.84335 0.828548 0
M  V30 6571 C 682.973 0.736632 1.80551 0
M  V30 6572 O 682.243 -0.23962 1.94429 0
M  V30 6573 H 680.823 0.680108 0.30897 0
M  V30 6574 H 683.485 1.9459 0.109906 0
M  V30 6575 H 682.581 2.80152 1.37554 0
M  V30 6576 N 682.882 -0.391992 1.52647 0
M  V30 6577 C 684.128 -1.139 1.67793 0
M  V30 6578 C 684.461 -1.89711 0.41514 0
M  V30 6579 O 683.736 -1.85431 -0.586979 0
M  V30 6580 C 684.019 -2.11966 2.91105 0
M  V30 6581 C 683.872 -1.39939 4.27478 0
M  V30 6582 C 685.191 -3.1243 3.09961 0
M  V30 6583 H 682.31 -0.412707 0.610608 0
M  V30 6584 H 684.952 -0.422725 1.85238 0
M  V30 6585 H 683.102 -2.73048 2.76364 0
M  V30 6586 H 684.774 -0.818439 4.53982 0
M  V30 6587 H 683.017 -0.701246 4.28095 0
M  V30 6588 H 683.688 -2.1158 5.09841 0
M  V30 6589 H 686.164 -2.61435 3.23714 0
M  V30 6590 H 685.04 -3.78294 3.97725 0
M  V30 6591 H 685.301 -3.81127 2.24042 0
M  V30 6592 N 684.36 -1.4356 -0.65026 0
M  V30 6593 C 685.307 -1.48948 -1.76304 0
M  V30 6594 C 686.277 -0.338919 -1.62605 0
M  V30 6595 O 687.462 -0.54649 -1.82806 0
M  V30 6596 C 684.602 -1.42131 -3.14472 0
M  V30 6597 C 683.715 -2.67415 -3.39284 0
M  V30 6598 C 682.85 -2.52565 -4.67316 0
M  V30 6599 C 681.889 -3.73103 -4.85243 0
M  V30 6600 N 681.026 -3.57046 -6.04535 0
M  V30 6601 H 685.866 -2.44032 -1.71034 0
M  V30 6602 H 683.403 -1.21131 -0.834601 0
M  V30 6603 H 685.361 -1.36172 -3.94351 0
M  V30 6604 H 683.991 -0.506273 -3.18805 0
M  V30 6605 H 683.043 -2.8364 -2.53481 0
M  V30 6606 H 684.355 -3.56943 -3.48415 0
M  V30 6607 H 683.509 -2.44331 -5.55326 0
M  V30 6608 H 682.248 -1.60566 -4.60511 0
M  V30 6609 H 681.253 -3.81743 -3.95667 0
M  V30 6610 H 682.478 -4.66115 -4.93876 0
M  V30 6611 H 680.424 -2.67783 -5.98856 0
M  V30 6612 H 680.341 -4.40178 -6.14638 0
M  V30 6613 H 681.609 -3.52669 -6.95158 0
M  V30 6614 N 685.838 0.888903 -1.30139 0
M  V30 6615 C 686.768 2.01046 -1.18755 0
M  V30 6616 C 687.749 1.69916 -0.0791438 0
M  V30 6617 O 688.934 1.92445 -0.260498 0
M  V30 6618 C 686.064 3.36109 -0.874518 0
M  V30 6619 C 685.018 3.81486 -1.94043 0
M  V30 6620 C 684.344 5.13796 -1.48047 0
M  V30 6621 C 685.644 4.00637 -3.35093 0
M  V30 6622 H 687.338 2.10828 -2.12584 0
M  V30 6623 H 684.884 1.01298 -1.02346 0
M  V30 6624 H 686.837 4.14089 -0.781548 0
M  V30 6625 H 685.561 3.26449 0.0994519 0
M  V30 6626 H 684.22 3.05731 -2.02297 0
M  V30 6627 H 683.868 5.0056 -0.494878 0
M  V30 6628 H 683.568 5.45127 -2.19341 0
M  V30 6629 H 685.092 5.94305 -1.40121 0
M  V30 6630 H 686.506 4.69067 -3.2962 0
M  V30 6631 H 684.903 4.43339 -4.04438 0
M  V30 6632 H 685.973 3.0462 -3.77273 0
M  V30 6633 N 687.317 1.12792 1.10072 0
M  V30 6634 C 688.545 0.908506 1.85886 0
M  V30 6635 C 688.96 -0.542408 1.80841 0
M  V30 6636 O 688.317 -1.37517 1.1998 0
M  V30 6637 C 688.368 1.37973 3.34134 0
M  V30 6638 O 688.089 2.77378 3.39106 0
M  V30 6639 C 689.59 1.1978 4.26811 0
M  V30 6640 H 686.81 0.3244 0.587372 0
M  V30 6641 H 689.354 1.49882 1.39125 0
M  V30 6642 H 687.509 0.832566 3.78348 0
M  V30 6643 H 687.923 2.98144 4.31521 0
M  V30 6644 H 689.397 1.57635 5.29014 0
M  V30 6645 H 689.874 0.138768 4.38981 0
M  V30 6646 H 690.48 1.73266 3.88406 0
M  V30 6647 N 688.795 -1.27931 0.920396 0
M  V30 6648 C 690.041 -1.94977 0.557832 0
M  V30 6649 C 690.374 -1.72224 -0.897365 0
M  V30 6650 O 689.649 -1.04705 -1.63912 0
M  V30 6651 C 689.932 -3.49289 0.875741 0
M  V30 6652 C 689.785 -3.81416 2.38416 0
M  V30 6653 C 691.104 -4.38486 0.376517 0
M  V30 6654 H 688.223 -0.708164 0.20414 0
M  V30 6655 H 690.865 -1.5118 1.15085 0
M  V30 6656 H 689.015 -3.86724 0.371062 0
M  V30 6657 H 690.687 -3.53813 2.95997 0
M  V30 6658 H 688.93 -3.28225 2.83639 0
M  V30 6659 H 689.601 -4.89198 2.55713 0
M  V30 6660 H 692.077 -4.08161 0.808945 0
M  V30 6661 H 690.953 -5.45296 0.627976 0
M  V30 6662 H 691.214 -4.36143 -0.723293 0
M  V30 6663 N 690.273 -0.685099 -1.4193 0
M  V30 6664 C 691.203 -0.0273506 -2.33484 0
M  V30 6665 C 692.184 0.778366 -1.51246 0
M  V30 6666 O 693.369 0.733449 -1.79817 0
M  V30 6667 C 690.499 0.917272 -3.34968 0
M  V30 6668 C 689.453 0.21941 -4.27437 0
M  V30 6669 C 688.779 1.27768 -5.1921 0
M  V30 6670 C 690.079 -0.907894 -5.14349 0
M  V30 6671 H 691.773 -0.791994 -2.88735 0
M  V30 6672 H 689.319 -0.382308 -1.38832 0
M  V30 6673 H 691.272 1.38657 -3.97935 0
M  V30 6674 H 689.996 1.71346 -2.78043 0
M  V30 6675 H 688.655 -0.229757 -3.65879 0
M  V30 6676 H 688.303 2.06612 -4.58607 0
M  V30 6677 H 688.003 0.815803 -5.81909 0
M  V30 6678 H 689.527 1.7477 -5.85054 0
M  V30 6679 H 690.941 -0.519348 -5.70943 0
M  V30 6680 H 689.338 -1.2962 -5.85934 0
M  V30 6681 H 690.408 -1.75218 -4.52136 0
M  V30 6682 N 691.751 1.51645 -0.429126 0
M  V30 6683 C 693.162 1.86665 0.0359003 0
M  V30 6684 C 693.513 1.34677 1.42676 0
M  V30 6685 O 692.638 0.694195 2.04963 0
M  V30 6686 C 693.233 3.38724 0.0719221 0
M  V30 6687 C 691.792 3.7331 0.481336 0
M  V30 6688 C 690.939 2.75313 -0.331329 0
M  V30 6689 H 693.89 1.44987 -0.645333 0
M  V30 6690 H 693.911 3.7011 0.883118 0
M  V30 6691 H 693.423 3.76532 -0.940495 0
M  V30 6692 H 691.524 3.41088 1.49966 0
M  V30 6693 H 691.637 4.78631 0.211837 0
M  V30 6694 H 690.001 2.53839 0.209204 0
M  V30 6695 H 690.784 3.15963 -1.34247 0
M  V30 6696 N 693.229 0.160201 1.56784 0
M  V30 6697 C 694.159 -0.770264 2.2043 0
M  V30 6698 C 695.14 -1.24736 1.15651 0
M  V30 6699 O 696.325 -1.30253 1.44041 0
M  V30 6700 C 693.455 -2.00427 2.83631 0
M  V30 6701 C 692.409 -1.66345 3.94352 0
M  V30 6702 C 691.735 -2.97119 4.4455 0
M  V30 6703 C 693.035 -0.899972 5.14488 0
M  V30 6704 H 694.729 -0.239783 2.98438 0
M  V30 6705 H 692.275 -0.113891 1.43549 0
M  V30 6706 H 694.228 -2.66012 3.26827 0
M  V30 6707 H 692.952 -2.5587 2.02973 0
M  V30 6708 H 691.611 -1.03133 3.51794 0
M  V30 6709 H 691.259 -3.5058 3.60698 0
M  V30 6710 H 690.959 -2.75073 5.19238 0
M  V30 6711 H 692.483 -3.63753 4.90425 0
M  V30 6712 H 693.897 -1.45818 5.54446 0
M  V30 6713 H 692.294 -0.778968 5.95023 0
M  V30 6714 H 693.364 0.105827 4.84785 0
M  V30 6715 N 694.707 -1.5719 -0.113559 0
M  V30 6716 C 695.637 -2.03772 -1.14013 0
M  V30 6717 C 696.618 -0.923176 -1.42869 0
M  V30 6718 O 697.803 -1.19325 -1.53216 0
M  V30 6719 C 694.933 -2.44663 -2.4649 0
M  V30 6720 C 693.887 -3.59612 -2.32085 0
M  V30 6721 C 693.213 -3.8642 -3.69573 0
M  V30 6722 C 694.513 -4.91149 -1.7768 0
M  V30 6723 H 696.207 -2.89785 -0.752665 0
M  V30 6724 H 693.753 -1.39412 -0.360609 0
M  V30 6725 H 695.706 -2.75857 -3.18561 0
M  V30 6726 H 694.43 -1.55628 -2.87137 0
M  V30 6727 H 693.089 -3.28636 -1.62461 0
M  V30 6728 H 692.737 -2.94581 -4.07715 0
M  V30 6729 H 692.437 -4.63797 -3.60786 0
M  V30 6730 H 693.961 -4.2007 -4.4314 0
M  V30 6731 H 695.375 -5.20843 -2.39574 0
M  V30 6732 H 693.772 -5.72562 -1.79701 0
M  V30 6733 H 694.842 -4.79301 -0.734776 0
M  V30 6734 N 696.185 0.383891 -1.52853 0
M  V30 6735 C 697.115 1.47559 -1.80965 0
M  V30 6736 C 698.096 1.5669 -0.661986 0
M  V30 6737 O 699.281 1.71556 -0.910072 0
M  V30 6738 C 696.411 2.85114 -1.98312 0
M  V30 6739 C 695.365 2.9082 -3.14019 0
M  V30 6740 C 694.691 4.30873 -3.16627 0
M  V30 6741 C 695.991 2.60001 -4.52986 0
M  V30 6742 H 697.685 1.24283 -2.72386 0
M  V30 6743 H 695.231 0.596445 -1.31067 0
M  V30 6744 H 697.184 3.61496 -2.16561 0
M  V30 6745 H 695.908 3.09738 -1.03585 0
M  V30 6746 H 694.567 2.16886 -2.9556 0
M  V30 6747 H 694.215 4.52545 -2.19573 0
M  V30 6748 H 693.915 4.3561 -3.94357 0
M  V30 6749 H 695.439 5.09154 -3.37038 0
M  V30 6750 H 696.853 3.261 -4.71521 0
M  V30 6751 H 695.25 2.76081 -5.32822 0
M  V30 6752 H 696.32 1.5532 -4.59351 0
M  V30 6753 N 697.663 1.43903 0.642637 0
M  V30 6754 C 698.61 1.49881 1.75512 0
M  V30 6755 C 699.58 0.347538 1.62423 0
M  V30 6756 O 700.765 0.556177 1.82514 0
M  V30 6757 C 697.905 1.43797 3.13714 0
M  V30 6758 C 697.018 2.6921 3.37861 0
M  V30 6759 C 696.153 2.5504 4.6597 0
M  V30 6760 C 695.192 3.75671 4.83257 0
M  V30 6761 N 694.329 3.60247 6.02633 0
M  V30 6762 H 699.169 2.44935 1.69737 0
M  V30 6763 H 696.706 1.21572 0.828165 0
M  V30 6764 H 698.664 1.38262 3.93624 0
M  V30 6765 H 697.294 0.523173 3.18532 0
M  V30 6766 H 696.346 2.8498 2.51973 0
M  V30 6767 H 697.658 3.58786 3.46517 0
M  V30 6768 H 696.812 2.47273 5.54023 0
M  V30 6769 H 695.551 1.63006 4.59653 0
M  V30 6770 H 694.556 3.83836 3.93637 0
M  V30 6771 H 695.781 4.68728 4.91397 0
M  V30 6772 H 693.727 2.70955 5.97427 0
M  V30 6773 H 693.644 4.43431 6.12295 0
M  V30 6774 H 694.912 3.56351 6.93278 0
M  V30 6775 N 699.141 -0.881989 1.30609 0
M  V30 6776 C 700.104 -1.96957 1.1722 0
M  V30 6777 C 701.104 -1.60472 0.102598 0
M  V30 6778 O 702.294 -1.70628 0.350943 0
M  V30 6779 C 699.426 -3.31463 0.796572 0
M  V30 6780 H 700.619 -2.10262 2.13846 0
M  V30 6781 H 698.172 -1.06877 1.14048 0
M  V30 6782 H 698.907 -3.23859 -0.169053 0
M  V30 6783 H 698.692 -3.59314 1.56959 0
M  V30 6784 H 700.182 -4.11233 0.72645 0
M  V30 6785 N 700.619 -1.13374 -1.09472 0
M  V30 6786 C 701.859 -0.905422 -1.83252 0
M  V30 6787 C 702.223 0.558396 -1.83701 0
M  V30 6788 O 703.424 0.904254 -2.53134 0
M  V30 6789 C 701.695 -1.47658 -3.25472 0
M  V30 6790 S 703.254 -1.38825 -4.16261 0
M  V30 6791 H 700.072 -0.326371 -0.631667 0
M  V30 6792 H 702.674 -1.44517 -1.31663 0
M  V30 6793 H 701.378 -2.53533 -3.22722 0
M  V30 6794 H 700.909 -0.934756 -3.82133 0
M  V30 6795 H 702.924 -0.366379 -4.94846 0
M  V30 6796 N 702.098 1.27442 -0.927168 0
M  V30 6797 C 703.061 2.2512 -0.430525 0
M  V30 6798 C 704.061 1.54357 0.450619 0
M  V30 6799 O 705.251 1.72371 0.251774 0
M  V30 6800 C 702.383 3.38763 0.381144 0
M  V30 6801 H 703.576 2.70569 -1.29354 0
M  V30 6802 H 701.129 1.39355 -0.707806 0
M  V30 6803 H 701.864 2.98695 1.263 0
M  V30 6804 H 701.649 3.91298 -0.250618 0
M  V30 6805 H 703.139 4.11364 0.719012 0
M  V30 6806 N 703.576 0.692616 1.41565 0
M  V30 6807 C 704.806 0.230943 2.05305 0
M  V30 6808 C 705.214 -1.12379 1.52209 0
M  V30 6809 O 704.557 -1.71281 0.663968 0
M  V30 6810 C 704.619 0.107894 3.59338 0
M  V30 6811 C 704.283 1.39419 4.35214 0
M  V30 6812 C 705.28 2.33143 4.64694 0
M  V30 6813 C 702.965 1.64674 4.74539 0
M  V30 6814 C 704.959 3.50385 5.32456 0
M  V30 6815 C 702.646 2.82202 5.42038 0
M  V30 6816 C 703.644 3.74881 5.70923 0
M  V30 6817 O 703.332 4.90351 6.37033 0
M  V30 6818 H 703.064 0.105708 0.667684 0
M  V30 6819 H 705.618 0.94488 1.82376 0
M  V30 6820 H 703.848 -0.661785 3.80995 0
M  V30 6821 H 705.537 -0.316213 4.04666 0
M  V30 6822 H 706.303 2.14887 4.34797 0
M  V30 6823 H 702.182 0.934007 4.51439 0
M  V30 6824 H 705.726 4.22743 5.54918 0
M  V30 6825 H 701.623 3.00376 5.71353 0
M  V30 6826 H 702.391 4.90128 6.55528 0
M  V30 6827 N 705.054 -1.51416 0.437162 0
M  V30 6828 C 705.984 -2.30631 -0.364922 0
M  V30 6829 C 706.965 -1.36037 -1.02118 0
M  V30 6830 O 708.15 -1.64956 -1.02485 0
M  V30 6831 C 705.28 -3.1482 -1.46648 0
M  V30 6832 C 704.234 -4.17691 -0.933717 0
M  V30 6833 C 703.56 -4.904 -2.13101 0
M  V30 6834 C 704.86 -5.2229 0.0317201 0
M  V30 6835 H 706.554 -2.97932 0.29614 0
M  V30 6836 H 704.1 -1.4328 0.143865 0
M  V30 6837 H 706.053 -3.69017 -2.03481 0
M  V30 6838 H 704.777 -2.4534 -2.15583 0
M  V30 6839 H 703.436 -3.64545 -0.387602 0
M  V30 6840 H 703.084 -4.17423 -2.80654 0
M  V30 6841 H 702.784 -5.59962 -1.78092 0
M  V30 6842 H 704.308 -5.4742 -2.70487 0
M  V30 6843 H 705.722 -5.7156 -0.446302 0
M  V30 6844 H 704.119 -5.99378 0.29437 0
M  V30 6845 H 705.189 -4.75131 0.968447 0
M  V30 6846 N 706.532 -0.168513 -1.56696 0
M  V30 6847 C 707.462 0.758563 -2.20835 0
M  V30 6848 C 708.443 1.24121 -1.1631 0
M  V30 6849 O 709.628 1.29487 -1.4473 0
M  V30 6850 C 706.758 1.9892 -2.8469 0
M  V30 6851 C 705.712 1.64252 -3.95228 0
M  V30 6852 C 705.038 2.94757 -4.46119 0
M  V30 6853 C 706.338 0.872675 -5.14958 0
M  V30 6854 H 708.032 0.223953 -2.98561 0
M  V30 6855 H 705.578 0.106277 -1.43607 0
M  V30 6856 H 707.531 2.64275 -3.28233 0
M  V30 6857 H 706.255 2.5479 -2.04327 0
M  V30 6858 H 704.914 1.01266 -3.52336 0
M  V30 6859 H 704.562 3.48662 -3.62552 0
M  V30 6860 H 704.262 2.72316 -5.2069 0
M  V30 6861 H 705.786 3.61147 -4.92347 0
M  V30 6862 H 707.2 1.42875 -5.55211 0
M  V30 6863 H 705.597 0.747402 -5.95428 0
M  V30 6864 H 706.667 -0.131535 -4.84722 0
M  V30 6865 N 708.01 1.57248 0.105221 0
M  V30 6866 C 708.957 2.01338 1.12835 0
M  V30 6867 C 709.927 0.887897 1.40377 0
M  V30 6868 O 711.112 1.15315 1.5201 0
M  V30 6869 C 708.252 2.43432 2.44611 0
M  V30 6870 C 707.365 3.69457 2.23888 0
M  V30 6871 C 706.5 4.00473 3.48991 0
M  V30 6872 C 705.539 5.19638 3.23485 0
M  V30 6873 N 704.676 5.46457 4.40828 0
M  V30 6874 H 709.516 2.88527 0.745386 0
M  V30 6875 H 707.053 1.42714 0.356535 0
M  V30 6876 H 709.011 2.65879 3.21503 0
M  V30 6877 H 707.641 1.59266 2.80774 0
M  V30 6878 H 706.693 3.54545 1.37847 0
M  V30 6879 H 708.005 4.56497 2.01026 0
M  V30 6880 H 707.159 4.23642 4.34295 0
M  V30 6881 H 705.898 3.11935 3.74897 0
M  V30 6882 H 704.903 4.96299 2.36574 0
M  V30 6883 H 706.128 6.09766 2.98935 0
M  V30 6884 H 704.074 4.60876 4.66829 0
M  V30 6885 H 703.991 6.27849 4.2112 0
M  V30 6886 H 705.259 5.74155 5.27225 0
M  V30 6887 N 709.488 -0.375779 1.53054 0
M  V30 6888 C 710.398 -1.48381 1.81715 0
M  V30 6889 C 711.414 -1.59087 0.704795 0
M  V30 6890 O 712.59 -1.75174 0.993785 0
M  V30 6891 C 709.655 -2.83767 1.99192 0
M  V30 6892 C 708.716 -2.82673 3.23102 0
M  V30 6893 C 707.949 -4.11601 3.39736 0
M  V30 6894 O 708.172 -5.07243 2.60885 0
M  V30 6895 O 707.106 -4.18034 4.33049 0
M  V30 6896 H 710.932 -1.27089 2.7583 0
M  V30 6897 H 708.517 -0.564902 1.38308 0
M  V30 6898 H 710.399 -3.64004 2.12318 0
M  V30 6899 H 709.074 -3.05057 1.08267 0
M  V30 6900 H 707.981 -2.0117 3.15407 0
M  V30 6901 H 709.314 -2.66335 4.13916 0
M  V30 6902 N 710.966 -1.44241 -0.634997 0
M  V30 6903 C 711.896 -1.53632 -1.7584 0
M  V30 6904 C 712.877 -0.389603 -1.65578 0
M  V30 6905 O 714.062 -0.609219 -1.84397 0
M  V30 6906 C 711.192 -1.47644 -3.14354 0
M  V30 6907 C 710.146 -2.60752 -3.394 0
M  V30 6908 C 709.472 -2.39817 -4.77904 0
M  V30 6909 C 710.772 -4.02921 -3.32343 0
M  V30 6910 H 712.466 -2.47662 -1.68238 0
M  V30 6911 H 710.012 -1.19197 -0.807969 0
M  V30 6912 H 711.965 -1.52815 -3.92716 0
M  V30 6913 H 710.689 -0.501284 -3.2273 0
M  V30 6914 H 709.348 -2.54965 -2.63417 0
M  V30 6915 H 708.996 -1.40502 -4.82978 0
M  V30 6916 H 708.696 -3.15649 -4.9562 0
M  V30 6917 H 710.22 -2.46799 -5.585 0
M  V30 6918 H 711.634 -4.10098 -4.00615 0
M  V30 6919 H 710.031 -4.78925 -3.61595 0
M  V30 6920 H 711.101 -4.26766 -2.30215 0
M  V30 6921 N 712.444 0.87505 -1.31075 0
M  V30 6922 C 713.855 1.4433 -1.18431 0
M  V30 6923 C 714.206 1.9506 0.211189 0
M  V30 6924 O 713.331 1.85847 1.10859 0
M  V30 6925 C 713.926 2.62341 -2.14389 0
M  V30 6926 C 712.485 3.15225 -2.05694 0
M  V30 6927 C 711.632 1.87929 -2.03907 0
M  V30 6928 H 714.583 0.684061 -1.432 0
M  V30 6929 H 714.604 3.3887 -1.73053 0
M  V30 6930 H 714.116 2.25388 -3.15946 0
M  V30 6931 H 712.217 3.56812 -1.07314 0
M  V30 6932 H 712.33 3.77853 -2.94558 0
M  V30 6933 H 710.694 2.06679 -1.48849 0
M  V30 6934 H 711.477 1.53221 -3.07211 0
M  V30 6935 N 713.922 1.13953 1.08869 0
M  V30 6936 C 715.199 0.815768 1.77777 0
M  V30 6937 C 715.579 -0.691624 1.99449 0
M  V30 6938 O 714.927 -1.63085 1.60049 0
M  V30 6939 C 715.137 1.60916 3.09689 0
M  V30 6940 C 716.485 1.80549 3.84301 0
M  V30 6941 O 717.509 1.57562 3.19457 0
M  V30 6942 O 716.368 2.18946 5.00724 0
M  V30 6943 H 713.462 0.298445 0.771271 0
M  V30 6944 H 716.008 1.24446 1.15374 0
M  V30 6945 H 714.78 2.6333 2.89435 0
M  V30 6946 H 714.403 1.17578 3.79817 0
M  V30 6947 N 715.4 -1.26948 0.933913 0
M  V30 6948 C 716.647 -1.94087 0.577625 0
M  V30 6949 C 716.975 -1.73345 -0.88214 0
M  V30 6950 O 716.23 -1.05945 -1.64542 0
M  V30 6951 C 716.529 -3.46963 0.857406 0
M  V30 6952 C 716.195 -3.87834 2.2999 0
M  V30 6953 C 714.857 -3.98704 2.69423 0
M  V30 6954 C 717.209 -4.08442 3.23766 0
M  V30 6955 C 714.537 -4.27573 4.01744 0
M  V30 6956 C 716.889 -4.38798 4.55675 0
M  V30 6957 C 715.553 -4.47881 4.94934 0
M  V30 6958 H 714.823 -0.710215 0.211368 0
M  V30 6959 H 717.47 -1.50899 1.17905 0
M  V30 6960 H 715.775 -3.91416 0.173369 0
M  V30 6961 H 717.472 -3.97062 0.560615 0
M  V30 6962 H 714.062 -3.79916 1.98399 0
M  V30 6963 H 718.246 -3.99479 2.94499 0
M  V30 6964 H 713.502 -4.32815 4.31834 0
M  V30 6965 H 717.676 -4.5369 5.28335 0
M  V30 6966 H 715.303 -4.70005 5.97495 0
M  V30 6967 N 716.879 -0.700114 -1.41195 0
M  V30 6968 C 717.827 -0.0263301 -2.32585 0
M  V30 6969 C 718.821 0.763683 -1.51209 0
M  V30 6970 O 720.027 0.668793 -1.67114 0
M  V30 6971 H 716.402 0.0102869 -0.75193 0
M  V30 6972 H 718.373 -0.814087 -2.8708 0
M  V30 6973 C 717.122 0.892793 -3.36042 0
M  V30 6974 H 716.445 0.294306 -3.98715 0
M  V30 6975 H 717.885 1.33247 -4.02518 0
M  V30 6976 C 716.344 2.01109 -2.7029 0
M  V30 6977 O 716.874 3.10035 -2.55423 0
M  V30 6978 N 715.08 1.79015 -2.28915 0
M  V30 6979 H 714.627 0.904275 -2.41207 0
M  V30 6980 H 714.585 2.54022 -1.85257 0
M  V30 6981 N 718.357 1.51182 -0.445186 0
M  V30 6982 C 719.582 2.07056 0.119445 0
M  V30 6983 C 720.007 1.30966 1.35016 0
M  V30 6984 O 719.365 0.349827 1.77893 0
M  V30 6985 C 719.413 3.58234 0.412428 0
M  V30 6986 O 718.517 3.84249 1.49754 0
M  V30 6987 H 717.858 0.663998 -0.00157797 0
M  V30 6988 H 720.388 1.94699 -0.628779 0
M  V30 6989 H 720.398 4.02617 0.660583 0
M  V30 6990 H 719.073 4.13038 -0.487049 0
M  V30 6991 H 717.65 3.51724 1.23873 0
M  V30 6992 N 719.835 0.176821 1.56605 0
M  V30 6993 C 721.06 -0.47599 2.01864 0
M  V30 6994 C 721.485 -1.55645 1.05623 0
M  V30 6995 O 720.843 -1.81263 0.0366729 0
M  V30 6996 C 720.891 -1.02619 3.4569 0
M  V30 6997 O 719.995 -2.13996 3.52533 0
M  V30 6998 H 719.336 -0.113363 0.654251 0
M  V30 6999 H 721.866 0.28233 2.02643 0
M  V30 7000 H 721.876 -1.34742 3.85109 0
M  V30 7001 H 720.551 -0.235138 4.15235 0
M  V30 7002 H 719.128 -1.82876 3.24978 0
M  V30 7003 N 721.313 -1.57302 -0.09688 0
M  V30 7004 C 722.243 -2.0497 -1.11846 0
M  V30 7005 C 723.224 -0.938278 -1.41882 0
M  V30 7006 O 724.409 -1.20943 -1.51942 0
M  V30 7007 C 721.539 -2.47264 -2.43881 0
M  V30 7008 C 720.493 -3.62053 -2.28257 0
M  V30 7009 C 719.819 -3.90318 -3.65453 0
M  V30 7010 C 721.119 -4.93005 -1.72461 0
M  V30 7011 H 722.813 -2.90567 -0.721888 0
M  V30 7012 H 720.359 -1.39786 -0.345803 0
M  V30 7013 H 722.312 -2.7922 -3.15617 0
M  V30 7014 H 721.036 -1.58664 -2.8547 0
M  V30 7015 H 719.695 -3.30341 -1.58967 0
M  V30 7016 H 719.343 -2.98889 -4.04567 0
M  V30 7017 H 719.043 -4.67597 -3.55846 0
M  V30 7018 H 720.567 -4.24747 -4.3866 0
M  V30 7019 H 721.981 -5.23354 -2.34036 0
M  V30 7020 H 720.378 -5.74436 -1.73618 0
M  V30 7021 H 721.448 -4.80053 -0.683898 0
M  V30 7022 N 722.791 0.367657 -1.53252 0
M  V30 7023 C 723.754 1.43308 -1.78873 0
M  V30 7024 C 724.754 1.46671 -0.659115 0
M  V30 7025 O 725.944 1.47468 -0.927306 0
M  V30 7026 C 723.076 2.82442 -1.90892 0
M  V30 7027 H 724.269 1.21864 -2.74024 0
M  V30 7028 H 721.822 0.600668 -1.44297 0
M  V30 7029 H 722.557 3.09202 -0.978 0
M  V30 7030 H 722.342 2.81399 -2.73051 0
M  V30 7031 H 723.832 3.59601 -2.12314 0
M  V30 7032 N 724.269 1.44576 0.627338 0
M  V30 7033 C 725.68 1.42266 1.20902 0
M  V30 7034 C 726.031 0.139964 1.957 0
M  V30 7035 O 725.156 -0.759489 2.02634 0
M  V30 7036 C 725.751 2.57727 2.19914 0
M  V30 7037 C 724.31 2.58599 2.73502 0
M  V30 7038 C 723.457 2.34145 1.48564 0
M  V30 7039 H 726.408 1.53102 0.417791 0
M  V30 7040 H 726.429 2.30697 3.02588 0
M  V30 7041 H 725.941 3.51068 1.65447 0
M  V30 7042 H 724.042 1.6921 3.31962 0
M  V30 7043 H 724.155 3.57205 3.19282 0
M  V30 7044 H 722.519 1.83313 1.76829 0
M  V30 7045 H 723.302 3.29606 0.959935 0
M  V30 7046 N 725.747 -0.868086 1.31537 0
M  V30 7047 C 726.972 -1.65926 1.24432 0
M  V30 7048 C 727.397 -1.87169 -0.186936 0
M  V30 7049 O 726.755 -1.4148 -1.13371 0
M  V30 7050 C 726.803 -3.00347 1.9956 0
M  V30 7051 O 725.907 -3.90221 1.33422 0
M  V30 7052 H 725.248 -0.506375 0.429512 0
M  V30 7053 H 727.778 -1.0822 1.73637 0
M  V30 7054 H 727.788 -3.50269 2.09226 0
M  V30 7055 H 726.463 -2.84205 3.03645 0
M  V30 7056 H 725.04 -3.48672 1.32219 0
M  V30 7057 N 727.225 -1.14528 -1.08264 0
M  V30 7058 C 728.473 -0.912599 -1.80322 0
M  V30 7059 C 728.794 0.562256 -1.86718 0
M  V30 7060 O 728.064 1.40869 -1.36135 0
M  V30 7061 H 726.644 -0.334645 -0.667849 0
M  V30 7062 H 729.306 -1.44415 -1.30883 0
M  V30 7063 H 728.402 -1.31384 -2.83098 0
M  V30 7064 N 728.703 1.26451 -0.940633 0
M  V30 7065 C 729.635 2.25556 -0.407104 0
M  V30 7066 C 730.648 1.55888 0.469324 0
M  V30 7067 O 731.837 1.76292 0.279858 0
M  V30 7068 C 728.937 3.36109 0.434064 0
M  V30 7069 C 728.11 4.3532 -0.426082 0
M  V30 7070 C 727.169 5.25004 0.354563 0
M  V30 7071 O 726.195 5.68684 -0.242219 0
M  V30 7072 N 727.397 5.5652 1.65123 0
M  V30 7073 H 730.162 2.7197 -1.25907 0
M  V30 7074 H 727.723 1.40212 -0.809456 0
M  V30 7075 H 729.715 3.93059 0.963684 0
M  V30 7076 H 728.285 2.89194 1.18683 0
M  V30 7077 H 727.505 3.77449 -1.13692 0
M  V30 7078 H 728.793 4.986 -1.01366 0
M  V30 7079 H 728.191 5.22912 2.15822 0
M  V30 7080 H 726.748 6.16115 2.12711 0
M  V30 7081 N 730.181 0.707592 1.40822 0
M  V30 7082 C 731.144 0.0587224 2.29125 0
M  V30 7083 C 732.144 -0.695624 1.44975 0
M  V30 7084 O 733.334 -0.528718 1.65983 0
M  V30 7085 C 730.466 -0.926939 3.28056 0
M  V30 7086 H 731.659 0.836349 2.88002 0
M  V30 7087 H 729.212 0.471778 1.4901 0
M  V30 7088 H 729.947 -1.7319 2.74182 0
M  V30 7089 H 729.732 -0.389015 3.90165 0
M  V30 7090 H 731.222 -1.37837 3.94196 0
M  V30 7091 N 731.66 -1.50943 0.453197 0
M  V30 7092 C 732.59 -2.31005 -0.34044 0
M  V30 7093 C 733.571 -1.37112 -1.00669 0
M  V30 7094 O 734.756 -1.66033 -1.0073 0
M  V30 7095 C 731.886 -3.16358 -1.433 0
M  V30 7096 C 730.84 -4.18658 -0.889363 0
M  V30 7097 C 730.166 -4.92633 -2.07887 0
M  V30 7098 C 731.466 -5.22227 0.0871142 0
M  V30 7099 H 733.16 -2.97601 0.327723 0
M  V30 7100 H 730.706 -1.43119 0.159054 0
M  V30 7101 H 732.659 -3.71155 -1.99555 0
M  V30 7102 H 731.383 -2.47613 -2.12968 0
M  V30 7103 H 730.042 -3.64936 -0.348915 0
M  V30 7104 H 729.69 -4.20376 -2.76211 0
M  V30 7105 H 729.39 -5.61819 -1.72143 0
M  V30 7106 H 730.914 -5.50258 -2.64666 0
M  V30 7107 H 732.328 -5.72001 -0.385656 0
M  V30 7108 H 730.725 -5.99032 0.357926 0
M  V30 7109 H 731.795 -4.74077 1.01879 0
M  V30 7110 N 733.138 -0.185124 -1.56509 0
M  V30 7111 C 734.387 0.456421 -1.96468 0
M  V30 7112 C 734.7 1.63448 -1.07444 0
M  V30 7113 O 735.906 2.34316 -1.37143 0
M  V30 7114 C 734.362 0.863404 -3.4939 0
M  V30 7115 C 733.97 -0.289815 -4.47062 0
M  V30 7116 C 735.714 1.47259 -3.98139 0
M  V30 7117 C 733.621 0.137571 -5.9124 0
M  V30 7118 H 732.551 0.17429 -0.733579 0
M  V30 7119 H 735.202 -0.275554 -1.81419 0
M  V30 7120 H 733.584 1.65176 -3.59907 0
M  V30 7121 H 734.758 -1.06728 -4.4827 0
M  V30 7122 H 733.073 -0.809851 -4.08449 0
M  V30 7123 H 735.67 1.80463 -5.03326 0
M  V30 7124 H 736.013 2.3755 -3.41871 0
M  V30 7125 H 736.546 0.748405 -3.90696 0
M  V30 7126 H 733.285 -0.730907 -6.51412 0
M  V30 7127 H 732.805 0.8801 -5.93308 0
M  V30 7128 H 734.484 0.576771 -6.44424 0
M  V30 7129 N 734.616 1.57351 0.0885366 0
M  V30 7130 C 736.032 1.53331 0.442916 0
M  V30 7131 C 736.232 0.902831 1.80142 0
M  V30 7132 O 735.288 0.498147 2.47537 0
M  V30 7133 C 736.601 2.98036 0.399372 0
M  V30 7134 C 738.149 3.09286 0.480759 0
M  V30 7135 C 738.624 4.5561 0.467296 0
M  V30 7136 N 740.115 4.60182 0.52786 0
M  V30 7137 C 740.85 5.70857 0.539388 0
M  V30 7138 N 740.346 6.90944 0.506729 0
M  V30 7139 N 742.139 5.59051 0.584691 0
M  V30 7140 H 734.29 1.96709 -0.801215 0
M  V30 7141 H 736.553 0.899639 -0.298922 0
M  V30 7142 H 736.259 3.47656 -0.531806 0
M  V30 7143 H 736.133 3.57066 1.21589 0
M  V30 7144 H 738.52 2.5965 1.40236 0
M  V30 7145 H 738.601 2.53197 -0.364023 0
M  V30 7146 H 738.245 5.05899 -0.450384 0
M  V30 7147 H 738.175 5.09544 1.32938 0
M  V30 7148 H 740.666 3.73757 0.558028 0
M  V30 7149 H 740.979 7.71055 0.518989 0
M  V30 7150 H 739.324 6.93384 0.473675 0
M  V30 7151 H 742.515 4.64138 0.607781 0
M  V30 7152 H 742.688 6.45307 0.590206 0
M  V30 7153 N 736.094 -0.359525 1.53444 0
M  V30 7154 C 737.041 -1.44073 1.8031 0
M  V30 7155 C 738.011 -1.52946 0.647811 0
M  V30 7156 O 739.196 -1.68739 0.890614 0
M  V30 7157 C 736.336 -2.80941 2.00416 0
M  V30 7158 C 735.449 -2.80986 3.28132 0
M  V30 7159 C 734.584 -4.09468 3.38393 0
M  V30 7160 C 733.623 -4.03679 4.60119 0
M  V30 7161 N 732.76 -5.23821 4.675 0
M  V30 7162 H 737.6 -1.20464 2.72566 0
M  V30 7163 H 735.137 -0.583859 1.35017 0
M  V30 7164 H 737.095 -3.60459 2.1006 0
M  V30 7165 H 735.725 -3.02936 1.11489 0
M  V30 7166 H 734.777 -1.93666 3.27411 0
M  V30 7167 H 736.089 -2.72583 4.17732 0
M  V30 7168 H 735.243 -4.97404 3.47382 0
M  V30 7169 H 733.982 -4.20632 2.4682 0
M  V30 7170 H 732.987 -3.14129 4.51224 0
M  V30 7171 H 734.212 -3.94112 5.5304 0
M  V30 7172 H 732.158 -5.35559 3.7883 0
M  V30 7173 H 732.075 -5.17611 5.51013 0
M  V30 7174 H 733.343 -6.13572 4.8078 0
M  V30 7175 N 737.572 -1.44907 -0.619662 0
M  V30 7176 C 738.519 -1.52654 -1.73105 0
M  V30 7177 C 739.489 -0.373334 -1.6185 0
M  V30 7178 O 740.674 -0.585143 -1.81606 0
M  V30 7179 C 737.814 -1.48769 -3.11387 0
M  V30 7180 C 736.927 -2.74551 -3.33535 0
M  V30 7181 C 736.062 -2.62421 -4.61854 0
M  V30 7182 C 735.101 -3.83312 -4.77219 0
M  V30 7183 N 734.238 -3.69789 -5.96826 0
M  V30 7184 H 739.078 -2.47605 -1.65819 0
M  V30 7185 H 736.615 -1.22875 -0.808719 0
M  V30 7186 H 738.573 -1.44507 -3.91374 0
M  V30 7187 H 737.203 -0.573783 -3.1766 0
M  V30 7188 H 736.255 -2.88953 -2.47408 0
M  V30 7189 H 737.567 -3.64253 -3.40765 0
M  V30 7190 H 736.721 -2.56056 -5.50019 0
M  V30 7191 H 735.46 -1.70298 -4.57001 0
M  V30 7192 H 734.465 -3.90049 -3.87481 0
M  V30 7193 H 735.69 -4.76486 -4.83878 0
M  V30 7194 H 733.636 -2.80426 -5.93041 0
M  V30 7195 H 733.553 -4.53116 -6.05163 0
M  V30 7196 H 734.821 -3.67335 -6.87521 0
M  V30 7197 N 739.05 0.861098 -1.31996 0
M  V30 7198 C 740.28 1.64501 -1.24992 0
M  V30 7199 C 740.688 1.88288 0.185576 0
M  V30 7200 O 740.031 1.44756 1.131 0
M  V30 7201 C 740.093 3.03098 -1.93319 0
M  V30 7202 C 739.757 3.02381 -3.42658 0
M  V30 7203 C 740.754 2.79696 -4.38254 0
M  V30 7204 C 738.439 3.23221 -3.84491 0
M  V30 7205 C 740.433 2.77843 -5.73657 0
M  V30 7206 C 738.12 3.20996 -5.20005 0
M  V30 7207 C 739.118 2.98335 -6.14398 0
M  V30 7208 O 738.806 2.95971 -7.47433 0
M  V30 7209 H 738.538 0.519309 -0.432775 0
M  V30 7210 H 741.092 1.08241 -1.74565 0
M  V30 7211 H 739.322 3.61121 -1.38306 0
M  V30 7212 H 741.011 3.63751 -1.8011 0
M  V30 7213 H 741.777 2.63368 -4.07262 0
M  V30 7214 H 737.656 3.39887 -3.11445 0
M  V30 7215 H 741.2 2.60074 -6.47308 0
M  V30 7216 H 737.097 3.36865 -5.50629 0
M  V30 7217 H 737.865 3.1197 -7.56714 0
M  V30 7218 N 740.528 1.15101 1.07655 0
M  V30 7219 C 741.774 0.925343 1.80458 0
M  V30 7220 C 742.107 -0.546354 1.86356 0
M  V30 7221 O 741.382 -1.40496 1.34503 0
M  V30 7222 C 741.665 1.53646 3.25676 0
M  V30 7223 C 741.518 3.07854 3.27942 0
M  V30 7224 C 742.837 1.21968 4.22861 0
M  V30 7225 H 739.956 0.337592 0.655134 0
M  V30 7226 H 742.598 1.42217 1.25993 0
M  V30 7227 H 740.748 1.11395 3.72187 0
M  V30 7228 H 742.42 3.58989 2.89697 0
M  V30 7229 H 740.663 3.41904 2.66991 0
M  V30 7230 H 741.334 3.45725 4.30324 0
M  V30 7231 H 743.81 1.5851 3.84726 0
M  V30 7232 H 742.686 1.67349 5.22767 0
M  V30 7233 H 742.947 0.136207 4.4189 0
M  V30 7234 N 742.006 -1.2595 0.947325 0
M  V30 7235 C 742.956 -2.23859 0.432547 0
M  V30 7236 C 743.94 -1.53755 -0.474154 0
M  V30 7237 O 745.132 -1.74293 -0.308397 0
M  V30 7238 C 742.261 -3.42027 -0.295318 0
M  V30 7239 C 741.347 -4.19409 0.62903 0
M  V30 7240 N 741.738 -4.74284 1.7575 0
M  V30 7241 C 740.036 -4.43866 0.435805 0
M  V30 7242 C 740.737 -5.32821 2.33401 0
M  V30 7243 N 739.713 -5.18858 1.62135 0
M  V30 7244 H 743.515 -2.63886 1.29388 0
M  V30 7245 H 741.029 -1.41105 0.80393 0
M  V30 7246 H 743.026 -4.11297 -0.681188 0
M  V30 7247 H 741.686 -3.03526 -1.15334 0
M  V30 7248 H 742.697 -4.71641 2.13952 0
M  V30 7249 H 739.374 -4.15768 -0.37994 0
M  V30 7250 H 740.764 -5.86111 3.28517 0
M  V30 7251 N 743.484 -0.715051 -1.40445 0
M  V30 7252 C 744.733 -0.251322 -2.00128 0
M  V30 7253 C 745.046 1.16194 -1.57347 0
M  V30 7254 O 746.252 1.72416 -2.09726 0
M  V30 7255 C 744.708 -0.398407 -3.57688 0
M  V30 7256 C 744.316 -1.81828 -4.09442 0
M  V30 7257 C 746.06 0.00455625 -4.245 0
M  V30 7258 C 743.967 -1.91598 -5.59503 0
M  V30 7259 H 742.897 -0.0902081 -0.748584 0
M  V30 7260 H 745.548 -0.886062 -1.6069 0
M  V30 7261 H 743.93 0.304908 -3.94824 0
M  V30 7262 H 745.104 -2.55193 -3.83684 0
M  V30 7263 H 743.419 -2.17266 -3.55225 0
M  V30 7264 H 746.016 -0.0477303 -5.34679 0
M  V30 7265 H 746.359 1.04636 -4.02935 0
M  V30 7266 H 746.892 -0.649184 -3.92467 0
M  V30 7267 H 743.631 -2.93898 -5.85922 0
M  V30 7268 H 743.151 -1.22644 -5.87127 0
M  V30 7269 H 744.83 -1.68785 -6.24596 0
M  V30 7270 N 744.962 1.50701 -0.461195 0
M  V30 7271 C 746.21 2.01867 0.0970051 0
M  V30 7272 C 746.531 1.34591 1.41104 0
M  V30 7273 O 745.801 0.488041 1.89723 0
M  V30 7274 H 744.381 0.74599 0.0388392 0
M  V30 7275 H 747.043 1.85129 -0.609357 0
M  V30 7276 H 746.139 3.11051 0.255688 0
M  V30 7277 N 746.441 0.193421 1.56409 0
M  V30 7278 C 747.688 -0.445789 1.97532 0
M  V30 7279 C 748.016 -1.61744 1.08024 0
M  V30 7280 O 747.271 -1.95338 0.118982 0
M  V30 7281 C 747.57 -0.949718 3.44551 0
M  V30 7282 C 747.236 0.108383 4.5077 0
M  V30 7283 C 745.898 0.399126 4.79542 0
M  V30 7284 C 748.25 0.825423 5.14622 0
M  V30 7285 C 745.578 1.41192 5.69457 0
M  V30 7286 C 747.93 1.82735 6.05632 0
M  V30 7287 C 746.594 2.12531 6.32761 0
M  V30 7288 H 745.864 -0.163126 0.722822 0
M  V30 7289 H 748.511 0.290035 1.89291 0
M  V30 7290 H 746.816 -1.76378 3.49854 0
M  V30 7291 H 748.513 -1.45367 3.73724 0
M  V30 7292 H 745.103 -0.128392 4.28408 0
M  V30 7293 H 749.287 0.61403 4.92487 0
M  V30 7294 H 744.543 1.6487 5.88751 0
M  V30 7295 H 748.717 2.3882 6.5417 0
M  V30 7296 H 746.344 2.91155 7.02234 0
M  V30 7297 N 747.919 -1.57396 -0.0801906 0
M  V30 7298 C 748.882 -2.02133 -1.0805 0
M  V30 7299 C 749.882 -0.91707 -1.32085 0
M  V30 7300 O 751.072 -1.18217 -1.27947 0
M  V30 7301 C 748.204 -2.39479 -2.42616 0
M  V30 7302 H 749.397 -2.91733 -0.6951 0
M  V30 7303 H 746.95 -1.52869 -0.325677 0
M  V30 7304 H 747.685 -1.52879 -2.86004 0
M  V30 7305 H 747.47 -3.20052 -2.26515 0
M  V30 7306 H 748.96 -2.74697 -3.14534 0
M  V30 7307 N 749.397 0.351382 -1.53633 0
M  V30 7308 C 750.643 1.09411 -1.70754 0
M  V30 7309 C 750.976 1.88544 -0.465293 0
M  V30 7310 O 750.251 1.86923 0.537608 0
M  V30 7311 C 750.534 2.04173 -2.96623 0
M  V30 7312 C 750.387 1.28556 -4.31038 0
M  V30 7313 C 751.706 3.04102 -3.18136 0
M  V30 7314 H 748.825 0.396373 -0.621335 0
M  V30 7315 H 751.467 0.373464 -1.86293 0
M  V30 7316 H 749.617 2.65625 -2.83506 0
M  V30 7317 H 751.289 0.697786 -4.55992 0
M  V30 7318 H 749.532 0.587498 -4.29803 0
M  V30 7319 H 750.203 1.97989 -5.15271 0
M  V30 7320 H 752.679 2.5276 -3.30532 0
M  V30 7321 H 751.555 3.67616 -4.07615 0
M  V30 7322 H 751.816 3.75053 -2.34068 0
M  V30 7323 N 750.875 1.45233 0.611969 0
M  V30 7324 C 752.152 1.39495 1.37115 0
M  V30 7325 C 752.532 0.0633303 2.11005 0
M  V30 7326 O 751.88 -0.954617 2.07604 0
M  V30 7327 C 752.09 2.60579 2.32163 0
M  V30 7328 C 753.438 3.05477 2.94905 0
M  V30 7329 O 754.462 2.60921 2.42485 0
M  V30 7330 O 753.321 3.82787 3.90047 0
M  V30 7331 H 750.415 0.55335 0.614599 0
M  V30 7332 H 752.961 1.57355 0.635423 0
M  V30 7333 H 751.733 3.49085 1.76793 0
M  V30 7334 H 751.356 2.45031 3.13122 0
M  V30 7335 N 752.353 -0.854086 1.3245 0
M  V30 7336 C 753.581 -1.64074 1.26045 0
M  V30 7337 C 753.996 -1.8802 -0.171456 0
M  V30 7338 O 753.353 -1.4496 -1.10873 0
M  V30 7339 C 753.404 -2.9997 2.01743 0
M  V30 7340 O 753.125 -2.77084 3.39346 0
M  V30 7341 C 754.626 -3.94414 2.02368 0
M  V30 7342 H 751.846 -0.511015 0.434862 0
M  V30 7343 H 754.39 -1.06494 1.74583 0
M  V30 7344 H 752.545 -3.54193 1.56926 0
M  V30 7345 H 752.959 -3.63514 3.78098 0
M  V30 7346 H 754.433 -4.87032 2.59815 0
M  V30 7347 H 754.91 -4.27427 1.01009 0
M  V30 7348 H 755.516 -3.46127 2.47135 0
M  V30 7349 N 753.831 -1.1567 -1.07043 0
M  V30 7350 C 755.242 -0.942408 -1.61169 0
M  V30 7351 C 755.593 0.515537 -1.89306 0
M  V30 7352 O 754.718 1.38726 -1.66084 0
M  V30 7353 C 755.313 -1.70431 -2.92812 0
M  V30 7354 C 753.872 -1.53521 -3.43669 0
M  V30 7355 C 753.019 -1.7179 -2.17678 0
M  V30 7356 H 755.97 -1.3065 -0.9009 0
M  V30 7357 H 755.991 -1.17566 -3.61882 0
M  V30 7358 H 755.503 -2.76538 -2.72302 0
M  V30 7359 H 753.604 -0.498224 -3.69254 0
M  V30 7360 H 753.717 -2.31422 -4.19501 0
M  V30 7361 H 752.081 -1.14468 -2.27529 0
M  V30 7362 H 752.864 -2.79269 -1.99659 0
M  V30 7363 N 755.309 1.25446 -0.953992 0
M  V30 7364 C 756.586 1.884 -0.525823 0
M  V30 7365 C 756.966 1.86079 0.996891 0
M  V30 7366 O 756.314 1.32389 1.8624 0
M  V30 7367 C 756.524 3.31154 -1.10172 0
M  V30 7368 C 757.872 4.07926 -1.17819 0
M  V30 7369 O 758.896 3.40273 -1.05323 0
M  V30 7370 O 757.755 5.28942 -1.37415 0
M  V30 7371 H 754.849 0.808629 -0.173345 0
M  V30 7372 H 757.395 1.33522 -1.04738 0
M  V30 7373 H 756.167 3.27271 -2.14499 0
M  V30 7374 H 755.79 3.93588 -0.56338 0
M  V30 7375 N 756.787 0.722489 1.40064 0
M  V30 7376 C 758.035 0.264455 2.00362 0
M  V30 7377 C 758.356 -1.14847 1.57592 0
M  V30 7378 O 757.626 -1.77982 0.818477 0
M  V30 7379 H 756.206 0.0947846 0.740962 0
M  V30 7380 H 758.868 0.929659 1.71299 0
M  V30 7381 H 757.964 0.302977 3.10626 0
M  V30 7382 N 758.265 -1.50454 0.469181 0
M  V30 7383 C 759.195 -2.31353 -0.31592 0
M  V30 7384 C 760.176 -1.38172 -0.992094 0
M  V30 7385 O 761.361 -1.67093 -0.989633 0
M  V30 7386 C 758.491 -3.1786 -1.39937 0
M  V30 7387 C 757.445 -4.19578 -0.844909 0
M  V30 7388 C 756.771 -4.9481 -2.0265 0
M  V30 7389 C 758.071 -5.22106 0.142499 0
M  V30 7390 H 759.765 -2.97237 0.359269 0
M  V30 7391 H 757.311 -1.42942 0.174224 0
M  V30 7392 H 759.264 -3.7325 -1.95607 0
M  V30 7393 H 757.988 -2.49858 -2.1033 0
M  V30 7394 H 756.647 -3.65285 -0.310189 0
M  V30 7395 H 756.295 -4.23282 -2.71737 0
M  V30 7396 H 755.995 -5.63613 -1.66174 0
M  V30 7397 H 757.519 -5.53035 -2.58815 0
M  V30 7398 H 758.933 -5.72378 -0.324966 0
M  V30 7399 H 757.33 -5.98618 0.421441 0
M  V30 7400 H 758.4 -4.7297 1.06901 0
M  V30 7401 N 759.743 -0.201713 -1.56304 0
M  V30 7402 C 760.673 0.71155 -2.22394 0
M  V30 7403 C 761.654 1.21625 -1.18917 0
M  V30 7404 O 762.839 1.26388 -1.47444 0
M  V30 7405 C 759.969 1.92837 -2.88845 0
M  V30 7406 C 758.923 1.55831 -3.98623 0
M  V30 7407 C 758.249 2.85228 -4.52271 0
M  V30 7408 C 759.549 0.763249 -5.16693 0
M  V30 7409 H 761.243 0.160573 -2.98969 0
M  V30 7410 H 758.789 0.0757916 -1.438 0
M  V30 7411 H 760.742 2.57253 -3.33764 0
M  V30 7412 H 759.466 2.50398 -2.09686 0
M  V30 7413 H 758.125 0.9377 -3.54405 0
M  V30 7414 H 757.773 3.40893 -3.69866 0
M  V30 7415 H 757.473 2.6121 -5.26349 0
M  V30 7416 H 758.997 3.50622 -4.99897 0
M  V30 7417 H 760.411 1.31066 -5.58117 0
M  V30 7418 H 758.808 0.620935 -5.96879 0
M  V30 7419 H 759.878 -0.234322 -4.84334 0
M  V30 7420 N 761.222 1.57436 0.0718424 0
M  V30 7421 C 762.468 1.87525 0.772149 0
M  V30 7422 C 762.801 0.79399 1.77227 0
M  V30 7423 O 762.076 -0.195733 1.93513 0
M  V30 7424 C 762.359 3.28272 1.48018 0
M  V30 7425 C 762.212 4.47052 0.49647 0
M  V30 7426 C 763.531 3.67256 2.42509 0
M  V30 7427 H 760.65 0.682049 0.279245 0
M  V30 7428 H 763.292 1.89967 0.03534 0
M  V30 7429 H 761.442 3.26321 2.10824 0
M  V30 7430 H 763.114 4.61127 -0.126375 0
M  V30 7431 H 761.357 4.33392 -0.188205 0
M  V30 7432 H 762.028 5.42315 1.02949 0
M  V30 7433 H 764.504 3.70301 1.89781 0
M  V30 7434 H 763.38 4.66626 2.89053 0
M  V30 7435 H 763.641 2.97186 3.27312 0
M  V30 7436 N 762.7 -0.34323 1.53817 0
M  V30 7437 C 764.111 -0.918823 1.62525 0
M  V30 7438 C 764.462 -1.89542 0.506765 0
M  V30 7439 O 763.587 -2.13326 -0.363441 0
M  V30 7440 C 764.182 -1.67326 2.94597 0
M  V30 7441 C 762.741 -2.19786 3.05567 0
M  V30 7442 C 761.888 -1.01708 2.57974 0
M  V30 7443 H 764.839 -0.121358 1.58235 0
M  V30 7444 H 764.86 -2.53615 2.83654 0
M  V30 7445 H 764.372 -0.962223 3.75983 0
M  V30 7446 H 762.473 -2.94065 2.28816 0
M  V30 7447 H 762.586 -2.46135 4.1104 0
M  V30 7448 H 760.95 -1.39058 2.13389 0
M  V30 7449 H 761.733 -0.320671 3.41799 0
M  V30 7450 N 764.178 -1.45556 -0.604258 0
M  V30 7451 C 765.424 -1.49968 -1.36519 0
M  V30 7452 C 765.757 -0.142236 -1.93678 0
M  V30 7453 O 765.032 0.843717 -1.75247 0
M  V30 7454 C 765.315 -2.58146 -2.51063 0
M  V30 7455 C 765.168 -4.03346 -1.99078 0
M  V30 7456 C 766.487 -2.62581 -3.53184 0
M  V30 7457 H 763.606 -0.545993 -0.495036 0
M  V30 7458 H 766.248 -1.77382 -0.680845 0
M  V30 7459 H 764.398 -2.34901 -3.09441 0
M  V30 7460 H 766.07 -4.37811 -1.45323 0
M  V30 7461 H 764.313 -4.13845 -1.30055 0
M  V30 7462 H 764.984 -4.74731 -2.81664 0
M  V30 7463 H 767.46 -2.83419 -3.04652 0
M  V30 7464 H 766.336 -3.40131 -4.30816 0
M  V30 7465 H 766.597 -1.67798 -4.09019 0
M  V30 7466 N 765.656 0.84705 -1.32902 0
M  V30 7467 C 766.905 1.59667 -1.23245 0
M  V30 7468 C 767.218 1.94551 0.202349 0
M  V30 7469 O 768.424 2.68218 0.420847 0
M  V30 7470 C 766.88 2.8795 -2.15901 0
M  V30 7471 C 766.488 2.60461 -3.64505 0
M  V30 7472 C 768.232 3.65968 -2.15098 0
M  V30 7473 C 766.139 3.84791 -4.49099 0
M  V30 7474 H 765.069 0.599167 -0.457728 0
M  V30 7475 H 767.72 0.934662 -1.57912 0
M  V30 7476 H 766.102 3.55648 -1.74157 0
M  V30 7477 H 767.276 2.01026 -4.14639 0
M  V30 7478 H 765.591 1.9576 -3.67515 0
M  V30 7479 H 768.188 4.58241 -2.75534 0
M  V30 7480 H 768.531 4.00275 -1.14392 0
M  V30 7481 H 769.064 3.05184 -2.55162 0
M  V30 7482 H 765.803 3.55621 -5.50649 0
M  V30 7483 H 765.323 4.43594 -4.03713 0
M  V30 7484 H 767.002 4.52454 -4.62487 0
M  V30 7485 N 767.134 1.16236 1.06428 0
M  V30 7486 C 768.55 0.906983 1.31324 0
M  V30 7487 C 768.75 -0.440872 1.96618 0
M  V30 7488 O 767.806 -1.1807 2.23194 0
M  V30 7489 C 769.119 2.05501 2.19522 0
M  V30 7490 C 770.667 2.09061 2.32943 0
M  V30 7491 C 771.142 3.23214 3.24495 0
M  V30 7492 N 772.633 3.22922 3.32078 0
M  V30 7493 C 773.368 4.07889 4.03006 0
M  V30 7494 N 772.864 5.02941 4.76469 0
M  V30 7495 N 774.657 3.95881 3.99043 0
M  V30 7496 H 766.808 2.03015 0.624388 0
M  V30 7497 H 769.071 0.88576 0.337835 0
M  V30 7498 H 768.777 3.02847 1.78819 0
M  V30 7499 H 768.651 1.99538 3.201 0
M  V30 7500 H 771.038 1.12308 2.72893 0
M  V30 7501 H 771.119 2.19089 1.32037 0
M  V30 7502 H 770.763 4.20225 2.85261 0
M  V30 7503 H 770.693 3.10423 4.25377 0
M  V30 7504 H 773.184 2.54093 2.79724 0
M  V30 7505 H 773.497 5.64196 5.28112 0
M  V30 7506 H 771.842 5.06922 4.75453 0
M  V30 7507 H 775.033 3.20927 3.40769 0
M  V30 7508 H 775.206 4.62321 4.54052 0
M  V30 7509 N 768.612 -1.24939 0.960631 0
M  V30 7510 C 769.56 -2.27659 0.47686 0
M  V30 7511 C 770.554 -1.63148 -0.455961 0
M  V30 7512 O 771.76 -1.76911 -0.332029 0
M  V30 7513 H 768.135 -0.739651 0.135723 0
M  V30 7514 H 770.106 -2.65844 1.35534 0
M  V30 7515 C 768.855 -3.46976 -0.224191 0
M  V30 7516 H 768.178 -3.96854 0.484471 0
M  V30 7517 H 769.618 -4.20717 -0.526615 0
M  V30 7518 C 768.077 -3.04159 -1.44876 0
M  V30 7519 O 768.607 -3.10697 -2.54618 0
M  V30 7520 N 766.813 -2.59284 -1.31226 0
M  V30 7521 H 766.36 -2.54164 -0.419361 0
M  V30 7522 H 766.318 -2.31 -2.13275 0
M  V30 7523 N 770.09 -0.729906 -1.39679 0
M  V30 7524 C 771.336 -0.27603 -2.00913 0
M  V30 7525 C 771.669 1.13227 -1.57776 0
M  V30 7526 O 770.944 1.7709 -0.804319 0
M  V30 7527 C 771.227 -0.372157 -3.58172 0
M  V30 7528 C 771.08 -1.81986 -4.11341 0
M  V30 7529 C 772.399 0.248378 -4.39399 0
M  V30 7530 H 769.518 -0.101773 -0.729939 0
M  V30 7531 H 772.16 -0.925104 -1.65957 0
M  V30 7532 H 770.31 0.180459 -3.88081 0
M  V30 7533 H 771.982 -2.42896 -3.92172 0
M  V30 7534 H 770.225 -2.34287 -3.65092 0
M  V30 7535 H 770.896 -1.83842 -5.20486 0
M  V30 7536 H 773.372 -0.222645 -4.15504 0
M  V30 7537 H 772.248 0.150746 -5.48693 0
M  V30 7538 H 772.509 1.33378 -4.21501 0
M  V30 7539 N 771.568 1.50203 -0.477153 0
M  V30 7540 C 772.845 1.95115 0.137609 0
M  V30 7541 C 773.225 1.41778 1.56404 0
M  V30 7542 O 772.573 0.621333 2.1989 0
M  V30 7543 C 772.783 3.4892 0.0747168 0
M  V30 7544 C 774.131 4.238 0.260585 0
M  V30 7545 O 775.155 3.5588 0.151021 0
M  V30 7546 O 774.014 5.44366 0.482534 0
M  V30 7547 H 771.108 0.81987 0.108364 0
M  V30 7548 H 773.654 1.60946 -0.537989 0
M  V30 7549 H 772.426 3.80308 -0.920966 0
M  V30 7550 H 772.049 3.89642 0.791509 0
M  V30 7551 N 773.046 0.209999 1.56195 0
M  V30 7552 C 773.978 -0.736967 2.17029 0
M  V30 7553 C 774.991 -1.16599 1.13616 0
M  V30 7554 O 776.18 -1.09914 1.40646 0
M  V30 7555 C 773.28 -2.00852 2.72969 0
M  V30 7556 C 772.453 -1.73691 4.01435 0
M  V30 7557 C 771.512 -2.85439 4.42053 0
M  V30 7558 O 770.538 -2.54405 5.09183 0
M  V30 7559 N 771.74 -4.14135 4.06783 0
M  V30 7560 H 774.505 -0.216656 2.98916 0
M  V30 7561 H 772.066 0.0285672 1.61875 0
M  V30 7562 H 774.058 -2.74778 2.97118 0
M  V30 7563 H 772.628 -2.43963 1.95451 0
M  V30 7564 H 771.848 -0.834676 3.85262 0
M  V30 7565 H 773.136 -1.52961 4.85263 0
M  V30 7566 H 772.534 -4.42196 3.52816 0
M  V30 7567 H 771.091 -4.84642 4.35851 0
M  V30 7568 N 774.524 -1.57472 -0.0634922 0
M  V30 7569 C 775.471 -2.04258 -1.07457 0
M  V30 7570 C 776.441 -0.924804 -1.37973 0
M  V30 7571 O 777.626 -1.19305 -1.48899 0
M  V30 7572 C 774.766 -2.49832 -2.38071 0
M  V30 7573 C 773.879 -3.75263 -2.14014 0
M  V30 7574 C 773.014 -4.09585 -3.38251 0
M  V30 7575 C 772.053 -5.28032 -3.09594 0
M  V30 7576 N 771.19 -5.57953 -4.26185 0
M  V30 7577 H 776.03 -2.90402 -0.668626 0
M  V30 7578 H 773.567 -1.43609 -0.318572 0
M  V30 7579 H 775.525 -2.7431 -3.14341 0
M  V30 7580 H 774.155 -1.66654 -2.76453 0
M  V30 7581 H 773.207 -3.58075 -1.28399 0
M  V30 7582 H 774.519 -4.61667 -1.88852 0
M  V30 7583 H 773.673 -4.35008 -4.2291 0
M  V30 7584 H 772.412 -3.21765 -3.66495 0
M  V30 7585 H 771.417 -5.02397 -2.23332 0
M  V30 7586 H 772.642 -6.17477 -2.82663 0
M  V30 7587 H 770.588 -4.73092 -4.54445 0
M  V30 7588 H 770.505 -6.38793 -4.04326 0
M  V30 7589 H 771.773 -5.87931 -5.11817 0
M  V30 7590 N 776.003 0.335068 -1.53997 0
M  V30 7591 C 777.228 1.09859 -1.75914 0
M  V30 7592 C 777.653 1.81308 -0.500915 0
M  V30 7593 O 777.011 1.72854 0.54693 0
M  V30 7594 C 777.059 2.08122 -2.94478 0
M  V30 7595 O 776.163 3.15805 -2.65219 0
M  V30 7596 H 775.504 0.317313 -0.583274 0
M  V30 7597 H 778.034 0.382872 -2.00986 0
M  V30 7598 H 778.044 2.51195 -3.21504 0
M  V30 7599 H 776.719 1.55517 -3.8573 0
M  V30 7600 H 775.296 2.77489 -2.49107 0
M  V30 7601 N 777.481 1.45874 0.596531 0
M  V30 7602 C 778.411 1.5824 1.71705 0
M  V30 7603 C 779.392 0.433366 1.64487 0
M  V30 7604 O 780.577 0.657895 1.82717 0
M  V30 7605 C 777.707 1.55927 3.10329 0
M  V30 7606 C 776.661 2.69659 3.32367 0
M  V30 7607 C 775.987 2.52403 4.71377 0
M  V30 7608 C 777.287 4.11591 3.21544 0
M  V30 7609 H 778.981 2.52035 1.61613 0
M  V30 7610 H 776.527 1.21297 0.776082 0
M  V30 7611 H 778.48 1.63173 3.88526 0
M  V30 7612 H 777.204 0.586674 3.21288 0
M  V30 7613 H 775.863 2.61859 2.56564 0
M  V30 7614 H 775.511 1.53258 4.79083 0
M  V30 7615 H 775.211 3.28679 4.87077 0
M  V30 7616 H 776.735 2.6152 5.5176 0
M  V30 7617 H 778.149 4.20576 3.89601 0
M  V30 7618 H 776.546 4.88344 3.4877 0
M  V30 7619 H 777.616 4.32719 2.1882 0
M  V30 7620 N 778.959 -0.83999 1.33349 0
M  V30 7621 C 779.889 -1.965 1.26135 0
M  V30 7622 C 780.87 -1.69505 0.142152 0
M  V30 7623 O 782.055 -1.91346 0.331743 0
M  V30 7624 C 779.185 -3.32632 0.99866 0
M  V30 7625 C 778.139 -3.74021 2.08068 0
M  V30 7626 C 777.465 -5.07947 1.67014 0
M  V30 7627 C 778.765 -3.87925 3.49731 0
M  V30 7628 H 780.459 -2.02793 2.20262 0
M  V30 7629 H 778.005 -0.974297 1.06035 0
M  V30 7630 H 779.958 -4.10903 0.934696 0
M  V30 7631 H 778.682 -3.26593 0.0217759 0
M  V30 7632 H 777.341 -2.98012 2.13505 0
M  V30 7633 H 776.989 -4.98378 0.680316 0
M  V30 7634 H 776.689 -5.36611 2.39422 0
M  V30 7635 H 778.213 -5.88695 1.62082 0
M  V30 7636 H 779.627 -4.5651 3.46802 0
M  V30 7637 H 778.024 -4.28023 4.20614 0
M  V30 7638 H 779.094 -2.90407 3.88319 0
M  V30 7639 N 780.437 -1.16799 -1.0581 0
M  V30 7640 C 781.369 -0.836774 -2.13379 0
M  V30 7641 C 782.382 0.158116 -1.6203 0
M  V30 7642 O 783.571 -0.0673211 -1.78373 0
M  V30 7643 C 780.671 -0.225959 -3.38146 0
M  V30 7644 C 779.844 -1.26217 -4.18794 0
M  V30 7645 C 778.903 -0.670257 -5.21914 0
M  V30 7646 O 777.929 -1.34042 -5.53192 0
M  V30 7647 N 779.131 0.540683 -5.77977 0
M  V30 7648 H 781.896 -1.76257 -2.42391 0
M  V30 7649 H 779.457 -1.06599 -1.21853 0
M  V30 7650 H 781.449 0.18317 -4.04285 0
M  V30 7651 H 780.019 0.603494 -3.06719 0
M  V30 7652 H 779.239 -1.84729 -3.48237 0
M  V30 7653 H 780.527 -1.9613 -4.69479 0
M  V30 7654 H 779.925 1.10322 -5.54838 0
M  V30 7655 H 778.482 0.891958 -6.45668 0
M  V30 7656 N 781.915 1.24427 -0.967243 0
M  V30 7657 C 782.845 2.2773 -0.515899 0
M  V30 7658 C 783.826 1.64197 0.444227 0
M  V30 7659 O 785.011 1.91193 0.340451 0
M  V30 7660 C 782.141 3.46751 0.195149 0
M  V30 7661 C 781.095 4.22548 -0.680953 0
M  V30 7662 C 780.421 5.34456 0.161561 0
M  V30 7663 C 781.721 4.83914 -1.96532 0
M  V30 7664 H 783.415 2.65735 -1.37933 0
M  V30 7665 H 780.961 1.27742 -0.664681 0
M  V30 7666 H 782.914 4.18153 0.522117 0
M  V30 7667 H 781.638 3.07771 1.09292 0
M  V30 7668 H 780.297 3.52946 -0.991186 0
M  V30 7669 H 779.945 4.91716 1.05947 0
M  V30 7670 H 779.645 5.86087 -0.421418 0
M  V30 7671 H 781.169 6.08685 0.483211 0
M  V30 7672 H 782.583 5.47392 -1.70396 0
M  V30 7673 H 780.98 5.45775 -2.49499 0
M  V30 7674 H 782.05 4.05393 -2.66053 0
M  V30 7675 N 783.393 0.737304 1.3929 0
M  V30 7676 C 784.356 0.10731 2.28949 0
M  V30 7677 C 785.356 -0.664716 1.46418 0
M  V30 7678 O 786.546 -0.493392 1.67067 0
M  V30 7679 C 783.678 -0.857145 3.29948 0
M  V30 7680 H 784.871 0.89725 2.86163 0
M  V30 7681 H 782.424 0.503279 1.47976 0
M  V30 7682 H 783.159 -1.67336 2.77794 0
M  V30 7683 H 782.944 -0.306167 3.90903 0
M  V30 7684 H 784.434 -1.29444 3.97031 0
M  V30 7685 N 784.871 -1.49948 0.485112 0
M  V30 7686 C 785.834 -2.27351 -0.290546 0
M  V30 7687 C 786.834 -1.32704 -0.908087 0
M  V30 7688 O 788.024 -1.56007 -0.775085 0
M  V30 7689 C 785.156 -3.10135 -1.41524 0
M  V30 7690 H 786.349 -2.97374 0.388454 0
M  V30 7691 H 783.902 -1.54453 0.239586 0
M  V30 7692 H 784.637 -2.44641 -2.12888 0
M  V30 7693 H 784.422 -3.79705 -0.978074 0
M  V30 7694 H 785.912 -3.68638 -1.96204 0
M  V30 7695 N 786.349 -0.21828 -1.56081 0
M  V30 7696 C 787.259 0.704602 -2.23769 0
M  V30 7697 C 788.275 1.21633 -1.24425 0
M  V30 7698 O 789.451 1.25862 -1.57228 0
M  V30 7699 C 786.516 1.89725 -2.90182 0
M  V30 7700 C 785.577 1.42782 -4.0486 0
M  V30 7701 C 784.81 2.56361 -4.68097 0
M  V30 7702 O 785.033 3.74417 -4.30312 0
M  V30 7703 O 783.967 2.2775 -5.57148 0
M  V30 7704 H 787.793 0.158007 -3.03289 0
M  V30 7705 H 785.378 0.0120279 -1.49395 0
M  V30 7706 H 787.26 2.59382 -3.32113 0
M  V30 7707 H 785.935 2.432 -2.13624 0
M  V30 7708 H 784.842 0.699359 -3.67505 0
M  V30 7709 H 786.175 0.939474 -4.83151 0
M  V30 7710 N 787.827 1.57504 0.0551401 0
M  V30 7711 C 788.79 2.03826 1.04821 0
M  V30 7712 C 789.79 0.937968 1.30609 0
M  V30 7713 O 790.98 1.20237 1.2605 0
M  V30 7714 C 788.112 2.43309 2.38775 0
M  V30 7715 H 789.305 2.92802 0.6486 0
M  V30 7716 H 786.858 1.53368 0.301315 0
M  V30 7717 H 787.593 1.5741 2.83536 0
M  V30 7718 H 787.378 3.23615 2.21395 0
M  V30 7719 H 788.868 2.79666 3.10124 0
M  V30 7720 N 789.305 -0.326896 1.54172 0
M  V30 7721 C 790.268 -1.38515 1.8261 0
M  V30 7722 C 791.268 -1.44872 0.697771 0
M  V30 7723 O 792.458 -1.44957 0.966078 0
M  V30 7724 C 789.59 -2.77281 1.98313 0
M  V30 7725 H 790.783 -1.14556 2.77159 0
M  V30 7726 H 788.336 -0.562199 1.45839 0
M  V30 7727 H 789.071 -3.065 1.05964 0
M  V30 7728 H 788.856 -2.74061 2.80416 0
M  V30 7729 H 790.346 -3.53845 2.21773 0
M  V30 7730 N 790.784 -1.46188 -0.588786 0
M  V30 7731 C 791.694 -1.58865 -1.72624 0
M  V30 7732 C 792.71 -0.472348 -1.67466 0
M  V30 7733 O 793.886 -0.735638 -1.87484 0
M  V30 7734 C 790.951 -1.56989 -3.0912 0
M  V30 7735 C 790.012 -2.79804 -3.25589 0
M  V30 7736 C 789.245 -2.78009 -4.55573 0
M  V30 7737 O 789.468 -1.86406 -5.39082 0
M  V30 7738 O 788.402 -3.6947 -4.75159 0
M  V30 7739 H 792.228 -2.55047 -1.64878 0
M  V30 7740 H 789.813 -1.28912 -0.755115 0
M  V30 7741 H 791.695 -1.58618 -3.90408 0
M  V30 7742 H 790.37 -0.639648 -3.17317 0
M  V30 7743 H 789.277 -2.83732 -2.43818 0
M  V30 7744 H 790.61 -3.72017 -3.22279 0
M  V30 7745 N 792.262 0.832906 -1.33792 0
M  V30 7746 C 793.192 1.95828 -1.27176 0
M  V30 7747 C 794.173 1.69427 -0.15114 0
M  V30 7748 O 795.358 1.91167 -0.341886 0
M  V30 7749 C 792.488 3.32098 -1.01629 0
M  V30 7750 C 791.442 3.72912 -2.10049 0
M  V30 7751 C 790.768 5.07054 -1.69706 0
M  V30 7752 C 792.068 3.86064 -3.51783 0
M  V30 7753 H 793.762 2.01622 -2.21334 0
M  V30 7754 H 791.308 0.96866 -1.0655 0
M  V30 7755 H 793.261 4.10402 -0.956474 0
M  V30 7756 H 791.985 3.26577 -0.0390956 0
M  V30 7757 H 790.644 2.96876 -2.15082 0
M  V30 7758 H 790.292 4.9801 -0.706737 0
M  V30 7759 H 789.992 5.35333 -2.42264 0
M  V30 7760 H 791.516 5.87827 -1.65202 0
M  V30 7761 H 792.93 4.54665 -3.49218 0
M  V30 7762 H 791.327 4.25787 -4.22878 0
M  V30 7763 H 792.397 2.88344 -3.89854 0
M  V30 7764 N 793.74 1.17359 1.05189 0
M  V30 7765 C 794.703 0.892604 2.11105 0
M  V30 7766 C 795.703 -0.117236 1.60372 0
M  V30 7767 O 796.893 0.114936 1.7382 0
M  V30 7768 C 794.025 0.337032 3.3923 0
M  V30 7769 H 795.218 1.83169 2.37464 0
M  V30 7770 H 792.771 0.984051 1.21434 0
M  V30 7771 H 793.506 -0.609198 3.18527 0
M  V30 7772 H 793.291 1.06484 3.77364 0
M  V30 7773 H 794.781 0.158763 4.17298 0
M  V30 7774 N 795.218 -1.23913 0.973828 0
M  V30 7775 C 796.128 -2.28838 0.516735 0
M  V30 7776 C 797.144 -1.68723 -0.425282 0
M  V30 7777 O 798.32 -1.99201 -0.296819 0
M  V30 7778 C 795.385 -3.46233 -0.179914 0
M  V30 7779 C 794.446 -4.21729 0.80269 0
M  V30 7780 C 793.679 -5.33518 0.139191 0
M  V30 7781 O 793.902 -5.60252 -1.07118 0
M  V30 7782 O 792.836 -5.96088 0.834447 0
M  V30 7783 H 796.662 -2.70067 1.38916 0
M  V30 7784 H 794.247 -1.2972 0.74115 0
M  V30 7785 H 796.129 -4.17514 -0.570991 0
M  V30 7786 H 794.804 -3.06969 -1.02721 0
M  V30 7787 H 793.711 -3.52799 1.24434 0
M  V30 7788 H 795.044 -4.64825 1.61859 0
M  V30 7789 N 796.696 -0.74468 -1.38897 0
M  V30 7790 C 797.643 -0.111064 -2.30533 0
M  V30 7791 C 798.613 0.719276 -1.49719 0
M  V30 7792 O 799.798 0.677244 -1.78376 0
M  V30 7793 C 796.938 0.78292 -3.36102 0
M  V30 7794 C 796.051 -0.0610817 -4.31957 0
M  V30 7795 C 795.186 0.835075 -5.24595 0
M  V30 7796 C 794.225 -0.0130974 -6.12099 0
M  V30 7797 N 793.362 0.839525 -6.97063 0
M  V30 7798 H 798.202 -0.898113 -2.84144 0
M  V30 7799 H 795.739 -0.454537 -1.39901 0
M  V30 7800 H 797.697 1.31578 -3.95908 0
M  V30 7801 H 796.327 1.53585 -2.83922 0
M  V30 7802 H 795.379 -0.711469 -3.73687 0
M  V30 7803 H 796.691 -0.716482 -4.93627 0
M  V30 7804 H 795.845 1.43542 -5.89475 0
M  V30 7805 H 794.584 1.52423 -4.63269 0
M  V30 7806 H 793.589 -0.626179 -5.46223 0
M  V30 7807 H 794.814 -0.699181 -6.75491 0
M  V30 7808 H 792.76 1.5138 -6.38295 0
M  V30 7809 H 792.677 0.240823 -7.55616 0
M  V30 7810 H 793.945 1.42513 -7.66362 0
M  V30 7811 N 798.174 1.49689 -0.493057 0
M  V30 7812 C 799.137 2.27502 0.278485 0
M  V30 7813 C 800.137 1.33184 0.901037 0
M  V30 7814 O 801.327 1.56415 0.766801 0
M  V30 7815 C 798.459 3.10881 1.39878 0
M  V30 7816 H 799.652 2.97163 -0.404219 0
M  V30 7817 H 797.205 1.54324 -0.247774 0
M  V30 7818 H 797.94 2.45767 2.11587 0
M  V30 7819 H 797.725 3.80219 0.957924 0
M  V30 7820 H 799.215 3.69673 1.94247 0
M  V30 7821 N 799.652 0.226554 1.55963 0
M  V30 7822 C 801.068 -0.128733 1.5908 0
M  V30 7823 C 801.268 -1.58558 1.24345 0
M  V30 7824 O 800.324 -2.32661 0.981069 0
M  V30 7825 C 801.637 0.202076 3.0002 0
M  V30 7826 C 803.185 0.144718 3.12665 0
M  V30 7827 C 803.66 0.449272 4.55791 0
M  V30 7828 N 805.151 0.399026 4.61478 0
M  V30 7829 C 805.886 0.608106 5.70166 0
M  V30 7830 N 805.382 0.879227 6.87198 0
M  V30 7831 N 807.175 0.5402 5.59498 0
M  V30 7832 H 799.326 1.17686 1.76816 0
M  V30 7833 H 801.589 0.472072 0.822102 0
M  V30 7834 H 801.295 1.21341 3.30105 0
M  V30 7835 H 801.169 -0.480554 3.74126 0
M  V30 7836 H 803.556 -0.857261 2.82374 0
M  V30 7837 H 803.637 0.860899 2.40878 0
M  V30 7838 H 803.281 1.44871 4.86801 0
M  V30 7839 H 803.211 -0.288157 5.25811 0
M  V30 7840 H 805.702 0.197372 3.77384 0
M  V30 7841 H 806.015 1.02673 7.65949 0
M  V30 7842 H 804.36 0.916477 6.88931 0
M  V30 7843 H 807.551 0.328581 4.66945 0
M  V30 7844 H 807.724 0.706548 6.44137 0
M  V30 7845 N 801.13 -1.57531 -0.0467866 0
M  V30 7846 C 802.355 -1.93087 -0.757123 0
M  V30 7847 C 802.78 -0.825116 -1.69037 0
M  V30 7848 O 802.138 0.220449 -1.79955 0
M  V30 7849 C 802.186 -3.27669 -1.5055 0
M  V30 7850 O 801.29 -3.18667 -2.61773 0
M  V30 7851 H 800.631 -0.631597 -0.204892 0
M  V30 7852 H 803.161 -2.04599 -0.00755232 0
M  V30 7853 H 803.171 -3.6214 -1.87932 0
M  V30 7854 H 801.846 -4.07717 -0.820931 0
M  V30 7855 H 800.423 -2.95798 -2.27064 0
M  V30 7856 N 802.608 0.318715 -1.54344 0
M  V30 7857 C 803.555 1.39242 -1.84066 0
M  V30 7858 C 804.525 1.51175 -0.688134 0
M  V30 7859 O 805.71 1.66318 -0.935039 0
M  V30 7860 C 802.85 2.75528 -2.07794 0
M  V30 7861 C 801.963 2.72187 -3.35467 0
M  V30 7862 C 801.098 4.00352 -3.4913 0
M  V30 7863 C 800.137 3.91338 -4.7066 0
M  V30 7864 N 799.274 5.11242 -4.81224 0
M  V30 7865 H 804.114 1.13196 -2.75664 0
M  V30 7866 H 801.651 0.547857 -1.36517 0
M  V30 7867 H 803.609 3.54763 -2.19543 0
M  V30 7868 H 802.239 2.99873 -1.19482 0
M  V30 7869 H 801.291 1.84917 -3.3243 0
M  V30 7870 H 802.603 2.61411 -4.24812 0
M  V30 7871 H 801.757 4.88019 -3.60448 0
M  V30 7872 H 800.496 4.1394 -2.57886 0
M  V30 7873 H 799.501 3.02055 -4.59394 0
M  V30 7874 H 800.726 3.7931 -5.63294 0
M  V30 7875 H 798.672 5.25327 -3.92897 0
M  V30 7876 H 798.589 5.0282 -5.64543 0
M  V30 7877 H 799.857 6.0061 -4.96879 0
M  V30 7878 N 804.086 1.46499 0.581025 0
M  V30 7879 C 805.033 1.5719 1.68997 0
M  V30 7880 C 806.003 0.416114 1.60803 0
M  V30 7881 O 807.188 0.633086 1.79991 0
M  V30 7882 C 804.328 1.56973 3.07333 0
M  V30 7883 C 803.441 2.83298 3.26139 0
M  V30 7884 C 802.576 2.74574 4.54734 0
M  V30 7885 C 801.615 3.9583 4.66889 0
M  V30 7886 N 800.752 3.85482 5.86811 0
M  V30 7887 H 805.592 2.51914 1.59196 0
M  V30 7888 H 803.129 1.24975 0.775857 0
M  V30 7889 H 805.087 1.54832 3.87405 0
M  V30 7890 H 803.717 0.657803 3.16027 0
M  V30 7891 H 802.769 2.95411 2.3966 0
M  V30 7892 H 804.081 3.7316 3.30988 0
M  V30 7893 H 803.235 2.70548 5.43036 0
M  V30 7894 H 801.974 1.82354 4.52325 0
M  V30 7895 H 800.979 4.00186 3.77003 0
M  V30 7896 H 802.204 4.89148 4.71075 0
M  V30 7897 H 800.15 2.96051 5.85397 0
M  V30 7898 H 800.067 4.69002 5.92936 0
M  V30 7899 H 801.335 3.85434 6.7754 0
M  V30 7900 N 805.565 -0.825799 1.34232 0
M  V30 7901 C 806.495 -1.95151 1.28212 0
M  V30 7902 C 807.476 -1.69345 0.160123 0
M  V30 7903 O 808.661 -1.90983 0.352019 0
M  V30 7904 C 805.791 -3.31554 1.03388 0
M  V30 7905 C 804.745 -3.71793 2.12023 0
M  V30 7906 C 804.071 -5.06147 1.72392 0
M  V30 7907 C 805.371 -3.84193 3.53826 0
M  V30 7908 H 807.065 -2.00445 2.22401 0
M  V30 7909 H 804.611 -0.962996 1.07063 0
M  V30 7910 H 806.564 -4.09889 0.978225 0
M  V30 7911 H 805.288 -3.26551 0.0564142 0
M  V30 7912 H 803.947 -2.95731 2.16654 0
M  V30 7913 H 803.595 -4.97628 0.733137 0
M  V30 7914 H 803.295 -5.34041 2.451 0
M  V30 7915 H 804.819 -5.86943 1.68317 0
M  V30 7916 H 806.233 -4.52806 3.51624 0
M  V30 7917 H 804.63 -4.23538 4.2513 0
M  V30 7918 H 805.7 -2.86272 3.91377 0
M  V30 7919 N 807.043 -1.17915 -1.04565 0
M  V30 7920 C 808.291 -0.969505 -1.77327 0
M  V30 7921 C 808.612 0.502569 -1.88412 0
M  V30 7922 O 807.882 1.36467 -1.40547 0
M  V30 7923 H 806.462 -0.355723 -0.656864 0
M  V30 7924 H 809.124 -1.48506 -1.26223 0
M  V30 7925 H 808.22 -1.40324 -2.78775 0
M  V30 7926 N 808.521 1.23394 -0.980386 0
M  V30 7927 C 809.484 2.23092 -0.525619 0
M  V30 7928 C 810.484 1.56129 0.384745 0
M  V30 7929 O 811.674 1.73284 0.178439 0
M  V30 7930 C 808.806 3.40074 0.23712 0
M  V30 7931 H 809.999 2.64839 -1.40714 0
M  V30 7932 H 807.552 1.36227 -0.766275 0
M  V30 7933 H 808.287 3.03783 1.13518 0
M  V30 7934 H 808.072 3.89883 -0.416356 0
M  V30 7935 H 809.562 4.14043 0.543892 0
M  V30 7936 N 809.999 0.752036 1.385 0
M  V30 7937 C 811.276 0.233075 1.94206 0
M  V30 7938 C 811.656 -1.26838 1.68746 0
M  V30 7939 O 811.004 -2.04214 1.02513 0
M  V30 7940 C 811.214 0.58509 3.44061 0
M  V30 7941 C 812.562 0.543871 4.21102 0
M  V30 7942 O 813.586 0.523291 3.52335 0
M  V30 7943 O 812.445 0.553436 5.4369 0
M  V30 7944 H 809.539 0.0483049 0.825588 0
M  V30 7945 H 812.085 0.832053 1.47902 0
M  V30 7946 H 810.857 1.62212 3.56094 0
M  V30 7947 H 810.48 -0.0419738 3.97578 0
M  V30 7948 N 811.477 -1.49425 0.500989 0
M  V30 7949 C 812.44 -2.27646 -0.266416 0
M  V30 7950 C 813.44 -1.3366 -0.893961 0
M  V30 7951 O 814.63 -1.5682 -0.758495 0
M  V30 7952 C 811.762 -3.11618 -1.38227 0
M  V30 7953 H 812.955 -2.96945 0.419973 0
M  V30 7954 H 810.508 -1.5419 0.255954 0
M  V30 7955 H 811.243 -2.46885 -2.10281 0
M  V30 7956 H 811.028 -3.80721 -0.937746 0
M  V30 7957 H 812.518 -3.70698 -1.92283 0
M  V30 7958 N 812.955 -0.234822 -1.55841 0
M  V30 7959 C 813.888 0.710134 -2.16869 0
M  V30 7960 C 814.866 1.18155 -1.11706 0
M  V30 7961 O 816.05 1.26188 -1.40032 0
M  V30 7962 C 813.177 1.96368 -2.75966 0
M  V30 7963 C 812.223 1.63114 -3.94076 0
M  V30 7964 S 813.056 0.744307 -5.30302 0
M  V30 7965 C 814.212 2.00712 -5.92845 0
M  V30 7966 H 814.445 0.19146 -2.96683 0
M  V30 7967 H 811.978 -0.0193854 -1.54388 0
M  V30 7968 H 813.936 2.68338 -3.10653 0
M  V30 7969 H 812.597 2.45347 -1.96121 0
M  V30 7970 H 811.79 2.56285 -4.33975 0
M  V30 7971 H 811.392 0.991967 -3.60605 0
M  V30 7972 H 813.684 2.9557 -6.09627 0
M  V30 7973 H 814.627 1.65182 -6.88564 0
M  V30 7974 H 815.035 2.1537 -5.21801 0
M  V30 7975 N 814.433 1.57553 0.0384317 0
M  V30 7976 C 815.365 2.02726 1.06934 0
M  V30 7977 C 816.378 0.938502 1.33026 0
M  V30 7978 O 817.567 1.21595 1.30678 0
M  V30 7979 C 814.667 2.37958 2.41308 0
M  V30 7980 C 813.84 3.69098 2.34703 0
M  V30 7981 C 812.899 3.91623 3.51451 0
M  V30 7982 O 811.925 4.628 3.31368 0
M  V30 7983 N 813.127 3.36538 4.72993 0
M  V30 7984 H 815.892 2.91781 0.684381 0
M  V30 7985 H 813.453 1.60307 0.226542 0
M  V30 7986 H 815.445 2.50172 3.18113 0
M  V30 7987 H 814.015 1.54621 2.71682 0
M  V30 7988 H 813.235 3.67325 1.43059 0
M  V30 7989 H 814.523 4.55144 2.27424 0
M  V30 7990 H 813.921 2.78828 4.92211 0
M  V30 7991 H 812.478 3.54148 5.47195 0
M  V30 7992 N 815.911 -0.310526 1.54511 0
M  V30 7993 C 817.159 -1.04484 1.72996 0
M  V30 7994 C 817.48 -1.88118 0.513479 0
M  V30 7995 O 816.75 -1.90119 -0.472384 0
M  V30 7996 H 815.33 -0.388747 0.637875 0
M  V30 7997 H 817.992 -0.343811 1.91844 0
M  V30 7998 H 817.088 -1.70341 2.61515 0
M  V30 7999 N 817.389 -1.46805 -0.573248 0
M  V30 8000 C 818.352 -1.57655 -1.66366 0
M  V30 8001 C 819.352 -0.452905 -1.5429 0
M  V30 8002 O 820.542 -0.717502 -1.58737 0
M  V30 8003 C 817.674 -1.50584 -3.05839 0
M  V30 8004 H 818.867 -2.54842 -1.581 0
M  V30 8005 H 816.42 -1.34756 -0.791868 0
M  V30 8006 H 817.155 -0.547127 -3.19651 0
M  V30 8007 H 816.94 -2.32118 -3.16012 0
M  V30 8008 H 818.43 -1.61282 -3.85199 0
M  V30 8009 N 818.867 0.818669 -1.34668 0
M  V30 8010 C 820.107 1.58862 -1.28617 0
M  V30 8011 C 820.471 1.91483 0.140845 0
M  V30 8012 O 821.672 2.66821 0.325583 0
M  V30 8013 C 819.943 2.85044 -2.15604 0
M  V30 8014 S 821.502 3.75553 -2.26948 0
M  V30 8015 H 818.32 0.544454 -0.457265 0
M  V30 8016 H 820.922 0.966679 -1.69928 0
M  V30 8017 H 819.626 2.59083 -3.18284 0
M  V30 8018 H 819.157 3.52231 -1.75205 0
M  V30 8019 H 821.172 4.74682 -1.44539 0
M  V30 8020 N 820.346 1.18468 1.03938 0
M  V30 8021 C 821.593 0.980833 1.77161 0
M  V30 8022 C 821.921 -0.489425 1.88242 0
M  V30 8023 O 821.176 -1.37961 1.388 0
M  V30 8024 C 821.475 1.58229 3.20466 0
M  V30 8025 C 821.141 3.07889 3.29416 0
M  V30 8026 C 819.803 3.48737 3.31566 0
M  V30 8027 C 822.155 4.03903 3.29411 0
M  V30 8028 C 819.483 4.84171 3.31355 0
M  V30 8029 C 821.835 5.39253 3.3074 0
M  V30 8030 C 820.499 5.79547 3.31182 0
M  V30 8031 H 819.769 0.358912 0.648277 0
M  V30 8032 H 822.416 1.47552 1.22069 0
M  V30 8033 H 820.721 1.00964 3.78568 0
M  V30 8034 H 822.418 1.39998 3.75768 0
M  V30 8035 H 819.008 2.75335 3.28464 0
M  V30 8036 H 823.192 3.73395 3.2694 0
M  V30 8037 H 818.448 5.14685 3.30015 0
M  V30 8038 H 822.622 6.13417 3.29686 0
M  V30 8039 H 820.249 6.84466 3.30772 0
M  V30 8040 N 821.824 -1.22873 0.986916 0
M  V30 8041 C 823.052 -1.95487 0.677663 0
M  V30 8042 C 823.467 -1.72978 -0.756572 0
M  V30 8043 O 822.824 -1.02517 -1.50985 0
M  V30 8044 C 822.875 -3.48337 0.966638 0
M  V30 8045 O 822.596 -3.70087 2.34451 0
M  V30 8046 C 824.097 -4.38142 0.674248 0
M  V30 8047 H 821.317 -0.622211 0.251185 0
M  V30 8048 H 823.861 -1.56187 1.32007 0
M  V30 8049 H 822.016 -3.85628 0.370137 0
M  V30 8050 H 822.43 -4.64332 2.43918 0
M  V30 8051 H 823.904 -5.44165 0.926759 0
M  V30 8052 H 824.381 -4.3745 -0.391728 0
M  V30 8053 H 824.987 -4.06469 1.25152 0
M  V30 8054 N 823.302 -0.75937 -1.38099 0
M  V30 8055 C 824.551 -0.314864 -1.99227 0
M  V30 8056 C 824.864 1.1113 -1.60964 0
M  V30 8057 O 826.07 1.65657 -2.15105 0
M  V30 8058 C 824.526 -0.512001 -3.56239 0
M  V30 8059 C 824.134 -1.94762 -4.0345 0
M  V30 8060 C 825.878 -0.130497 -4.24299 0
M  V30 8061 C 823.785 -2.09301 -5.53125 0
M  V30 8062 H 822.715 -0.113978 -0.745335 0
M  V30 8063 H 825.366 -0.936736 -1.57789 0
M  V30 8064 H 823.748 0.179144 -3.95595 0
M  V30 8065 H 824.922 -2.67271 -3.75371 0
M  V30 8066 H 823.237 -2.28457 -3.48133 0
M  V30 8067 H 825.834 -0.21781 -5.34256 0
M  V30 8068 H 826.177 0.917644 -4.0606 0
M  V30 8069 H 826.71 -0.773716 -3.90203 0
M  V30 8070 H 823.449 -3.1239 -5.76275 0
M  V30 8071 H 822.969 -1.41261 -5.82928 0
M  V30 8072 H 824.648 -1.88571 -6.1891 0
M  V30 8073 N 824.78 1.49157 -0.508906 0
M  V30 8074 C 826.005 2.07376 0.0315182 0
M  V30 8075 C 826.43 1.36575 1.2934 0
M  V30 8076 O 825.788 0.424963 1.76249 0
M  V30 8077 C 825.836 3.59661 0.260118 0
M  V30 8078 O 824.94 3.90255 1.33322 0
M  V30 8079 H 824.281 0.663334 -0.029739 0
M  V30 8080 H 826.811 1.91857 -0.710791 0
M  V30 8081 H 826.821 4.05056 0.489225 0
M  V30 8082 H 825.496 4.10601 -0.661794 0
M  V30 8083 H 824.073 3.56661 1.08844 0
M  V30 8084 N 826.258 0.243083 1.55714 0
M  V30 8085 C 827.483 -0.389944 2.03701 0
M  V30 8086 C 827.908 -1.51025 1.12129 0
M  V30 8087 O 827.266 -1.80944 0.11352 0
M  V30 8088 C 827.314 -0.878649 3.49731 0
M  V30 8089 O 826.418 -1.98851 3.61292 0
M  V30 8090 H 825.759 -0.0855115 0.658471 0
M  V30 8091 H 828.289 0.368023 2.01263 0
M  V30 8092 H 828.299 -1.18287 3.90477 0
M  V30 8093 H 826.974 -0.0588107 4.15858 0
M  V30 8094 H 825.551 -1.68928 3.32442 0
M  V30 8095 N 827.736 -1.57571 -0.0300757 0
M  V30 8096 C 828.666 -2.0953 -1.03051 0
M  V30 8097 C 829.647 -0.99761 -1.37774 0
M  V30 8098 O 830.832 -1.27279 -1.46676 0
M  V30 8099 C 827.962 -2.57385 -2.33174 0
M  V30 8100 C 826.916 -3.71409 -2.12696 0
M  V30 8101 C 826.242 -4.05467 -3.4857 0
M  V30 8102 C 827.542 -4.99877 -1.51396 0
M  V30 8103 H 829.236 -2.93367 -0.597999 0
M  V30 8104 H 826.782 -1.41127 -0.286203 0
M  V30 8105 H 828.735 -2.92355 -3.03491 0
M  V30 8106 H 827.459 -1.70629 -2.78484 0
M  V30 8107 H 826.118 -3.36786 -1.44813 0
M  V30 8108 H 825.766 -3.15779 -3.91526 0
M  V30 8109 H 825.466 -4.82269 -3.35694 0
M  V30 8110 H 826.99 -4.4297 -4.2025 0
M  V30 8111 H 828.404 -5.3281 -2.11629 0
M  V30 8112 H 826.801 -5.81283 -1.49098 0
M  V30 8113 H 827.871 -4.82522 -0.479676 0
M  V30 8114 N 829.214 0.302327 -1.54673 0
M  V30 8115 C 830.462 1.03565 -1.73547 0
M  V30 8116 C 830.783 1.87843 -0.523448 0
M  V30 8117 O 830.053 1.90367 0.462295 0
M  V30 8118 H 828.633 0.385358 -0.639928 0
M  V30 8119 H 831.295 0.333632 -1.92023 0
M  V30 8120 H 830.391 1.68952 -2.62415 0
M  V30 8121 N 830.692 1.47107 0.565454 0
M  V30 8122 C 831.642 1.55384 1.66852 0
M  V30 8123 C 832.626 0.413369 1.55499 0
M  V30 8124 O 833.818 0.66281 1.64121 0
M  V30 8125 C 830.947 1.5634 3.05635 0
M  V30 8126 C 830.033 2.75742 3.22222 0
M  V30 8127 N 830.424 4.00515 3.08903 0
M  V30 8128 C 828.722 2.7233 3.53203 0
M  V30 8129 C 829.423 4.80435 3.27959 0
M  V30 8130 N 828.399 4.1261 3.53913 0
M  V30 8131 H 832.201 2.49635 1.55111 0
M  V30 8132 H 829.715 1.42986 0.769982 0
M  V30 8133 H 831.712 1.60359 3.84825 0
M  V30 8134 H 830.372 0.631785 3.18494 0
M  V30 8135 H 831.383 4.31501 2.86404 0
M  V30 8136 H 828.06 1.8827 3.7264 0
M  V30 8137 H 829.45 5.89334 3.22699 0
M  V30 8138 N 832.17 -0.811516 1.35101 0
M  V30 8139 C 833.419 -1.56343 1.27435 0
M  V30 8140 C 833.732 -1.95019 -0.150696 0
M  V30 8141 O 834.938 -2.6924 -0.349586 0
M  V30 8142 C 833.394 -2.82124 2.23459 0
M  V30 8143 C 833.002 -2.50706 3.71283 0
M  V30 8144 C 834.746 -3.60137 2.24726 0
M  V30 8145 C 832.653 -3.72748 4.59143 0
M  V30 8146 H 831.583 -0.58682 0.473453 0
M  V30 8147 H 834.234 -0.892465 1.60335 0
M  V30 8148 H 832.616 -3.50905 1.83525 0
M  V30 8149 H 833.79 -1.89962 4.19823 0
M  V30 8150 H 832.105 -1.85947 3.72576 0
M  V30 8151 H 834.702 -4.50775 2.87587 0
M  V30 8152 H 835.045 -3.97101 1.24965 0
M  V30 8153 H 835.578 -2.98311 2.63164 0
M  V30 8154 H 832.317 -3.40896 5.59884 0
M  V30 8155 H 831.837 -4.32735 4.15332 0
M  V30 8156 H 833.516 -4.40033 4.74321 0
M  V30 8157 N 833.648 -1.19017 -1.03309 0
M  V30 8158 C 834.896 -0.988258 -1.76289 0
M  V30 8159 C 835.217 0.482557 -1.88935 0
M  V30 8160 O 834.487 1.34969 -1.41987 0
M  V30 8161 H 833.067 -0.36267 -0.653054 0
M  V30 8162 H 835.729 -1.49836 -1.2464 0
M  V30 8163 H 834.825 -1.43273 -2.77271 0
M  V30 8164 N 835.127 1.22348 -0.993418 0
M  V30 8165 C 836.375 1.90733 -0.668246 0
M  V30 8166 C 836.696 1.77732 0.802261 0
M  V30 8167 O 835.966 1.16486 1.57505 0
M  V30 8168 H 834.546 0.705966 -0.244174 0
M  V30 8169 H 837.208 1.48691 -1.26004 0
M  V30 8170 H 836.304 2.97883 -0.931239 0
M  V30 8171 N 836.605 0.766683 1.37694 0
M  V30 8172 C 837.833 0.339939 2.04088 0
M  V30 8173 C 838.248 -1.03617 1.57826 0
M  V30 8174 O 837.605 -1.6605 0.757214 0
M  V30 8175 C 837.656 0.368269 3.59619 0
M  V30 8176 O 837.377 1.69009 4.04188 0
M  V30 8177 C 838.878 -0.0707053 4.43244 0
M  V30 8178 H 836.098 0.143189 0.655544 0
M  V30 8179 H 838.642 1.03919 1.76128 0
M  V30 8180 H 836.797 -0.282359 3.8637 0
M  V30 8181 H 837.211 1.62523 4.98685 0
M  V30 8182 H 838.685 0.000273538 5.52 0
M  V30 8183 H 839.162 -1.1204 4.24669 0
M  V30 8184 H 839.768 0.551543 4.21709 0
M  V30 8185 N 838.083 -1.48885 0.516809 0
M  V30 8186 C 839.046 -2.27916 -0.242256 0
M  V30 8187 C 840.046 -1.34601 -0.879735 0
M  V30 8188 O 841.236 -1.57616 -0.74182 0
M  V30 8189 C 838.368 -3.13067 -1.34914 0
M  V30 8190 H 839.561 -2.96483 0.451444 0
M  V30 8191 H 837.114 -1.5391 0.272294 0
M  V30 8192 H 837.849 -2.49102 -2.07651 0
M  V30 8193 H 837.634 -3.81695 -0.897313 0
M  V30 8194 H 839.124 -3.72716 -1.88341 0
M  V30 8195 N 839.561 -0.251338 -1.55583 0
M  V30 8196 C 840.808 0.372169 -1.99051 0
M  V30 8197 C 841.136 1.57623 -1.13953 0
M  V30 8198 O 840.391 1.94762 -0.191398 0
M  V30 8199 C 840.69 0.821186 -3.47838 0
M  V30 8200 C 840.356 -0.275608 -4.50057 0
M  V30 8201 C 839.018 -0.57683 -4.7773 0
M  V30 8202 C 841.37 -1.01585 -5.11204 0
M  V30 8203 C 838.698 -1.62229 -5.63825 0
M  V30 8204 C 841.05 -2.05087 -5.98433 0
M  V30 8205 C 839.714 -2.35869 -6.24437 0
M  V30 8206 H 838.984 0.136186 -0.728378 0
M  V30 8207 H 841.631 -0.360089 -1.88084 0
M  V30 8208 H 839.936 1.63272 -3.56159 0
M  V30 8209 H 841.633 1.31396 -3.78861 0
M  V30 8210 H 838.223 -0.030697 -4.28589 0
M  V30 8211 H 842.407 -0.79639 -4.89869 0
M  V30 8212 H 837.663 -1.86607 -5.82226 0
M  V30 8213 H 841.837 -2.62934 -6.44855 0
M  V30 8214 H 839.464 -3.17017 -6.90944 0
M  V30 8215 N 841.039 1.57585 0.0217189 0
M  V30 8216 C 842.267 1.93871 0.722619 0
M  V30 8217 C 842.682 0.851706 1.68498 0
M  V30 8218 O 842.039 -0.17127 1.81695 0
M  V30 8219 C 842.09 3.30114 1.47333 0
M  V30 8220 O 841.811 4.34639 0.549597 0
M  V30 8221 C 843.312 3.80727 2.27072 0
M  V30 8222 H 840.532 0.639671 0.202637 0
M  V30 8223 H 843.076 2.04487 -0.0229414 0
M  V30 8224 H 841.231 3.20872 2.17071 0
M  V30 8225 H 841.645 5.13326 1.07686 0
M  V30 8226 H 843.119 4.78547 2.75131 0
M  V30 8227 H 843.596 3.12301 3.08812 0
M  V30 8228 H 844.202 3.93075 1.62395 0
M  V30 8229 N 842.517 -0.29412 1.54831 0
M  V30 8230 C 843.928 -0.866651 1.65366 0
M  V30 8231 C 844.279 -1.87834 0.56681 0
M  V30 8232 O 843.404 -2.14374 -0.295389 0
M  V30 8233 C 843.999 -1.57869 2.99771 0
M  V30 8234 C 842.558 -2.09954 3.12404 0
M  V30 8235 C 841.705 -0.934492 2.6108 0
M  V30 8236 H 844.656 -0.0709551 1.58541 0
M  V30 8237 H 844.677 -2.44462 2.91579 0
M  V30 8238 H 844.189 -0.84212 3.78853 0
M  V30 8239 H 842.29 -2.86637 2.38055 0
M  V30 8240 H 842.403 -2.32934 4.18663 0
M  V30 8241 H 840.767 -1.32199 2.17705 0
M  V30 8242 H 841.55 -0.211768 3.42646 0
M  V30 8243 N 843.995 -1.47404 -0.557645 0
M  V30 8244 C 845.244 -1.53268 -1.31118 0
M  V30 8245 C 845.557 -0.199414 -1.94581 0
M  V30 8246 O 846.763 -0.136039 -2.71159 0
M  V30 8247 C 845.219 -2.70178 -2.37764 0
M  V30 8248 C 844.827 -4.10032 -1.80493 0
M  V30 8249 C 846.571 -2.85334 -3.14301 0
M  V30 8250 C 844.478 -5.18244 -2.84916 0
M  V30 8251 H 843.408 -0.570491 -0.493007 0
M  V30 8252 H 846.059 -1.73678 -0.592308 0
M  V30 8253 H 844.441 -2.43147 -3.12563 0
M  V30 8254 H 845.615 -4.46964 -1.12069 0
M  V30 8255 H 843.93 -3.99759 -1.16542 0
M  V30 8256 H 846.527 -3.63347 -3.92279 0
M  V30 8257 H 846.87 -1.93761 -3.68459 0
M  V30 8258 H 847.403 -3.12133 -2.46613 0
M  V30 8259 H 844.142 -6.11691 -2.35614 0
M  V30 8260 H 843.662 -4.85829 -3.51753 0
M  V30 8261 H 845.341 -5.45174 -3.48417 0
M  V30 8262 N 845.473 0.80434 -1.35529 0
M  V30 8263 C 846.719 1.56385 -1.29118 0
M  V30 8264 C 847.052 1.9374 0.133536 0
M  V30 8265 O 846.327 1.6153 1.08344 0
M  V30 8266 C 846.61 2.85097 -2.19981 0
M  V30 8267 C 846.463 2.54204 -3.7108 0
M  V30 8268 C 847.782 3.86817 -2.09907 0
M  V30 8269 H 844.901 0.567382 -0.470368 0
M  V30 8270 H 847.543 0.925235 -1.6595 0
M  V30 8271 H 845.693 3.39594 -1.88701 0
M  V30 8272 H 847.365 2.05872 -4.12813 0
M  V30 8273 H 845.608 1.87364 -3.91251 0
M  V30 8274 H 846.279 3.46068 -4.30048 0
M  V30 8275 H 848.755 3.41725 -2.37409 0
M  V30 8276 H 847.631 4.7465 -2.75678 0
M  V30 8277 H 847.892 4.28663 -1.08171 0
M  V30 8278 N 846.951 1.19563 1.02676 0
M  V30 8279 C 847.899 0.931942 2.13114 0
M  V30 8280 C 848.893 -0.113007 1.69023 0
M  V30 8281 O 850.099 0.0364298 1.79963 0
M  V30 8282 H 846.474 0.283981 0.696318 0
M  V30 8283 H 848.445 1.86991 2.32545 0
M  V30 8284 C 847.194 0.489461 3.44238 0
M  V30 8285 H 846.517 1.28508 3.78584 0
M  V30 8286 H 847.957 0.34408 4.22602 0
M  V30 8287 C 846.416 -0.796761 3.27343 0
M  V30 8288 O 846.946 -1.85767 3.56165 0
M  V30 8289 N 845.152 -0.754824 2.80626 0
M  V30 8290 H 844.699 0.108778 2.5737 0
M  V30 8291 H 844.657 -1.6158 2.69702 0
M  V30 8292 N 848.429 -1.21819 0.999893 0
M  V30 8293 C 849.392 -2.22227 0.561044 0
M  V30 8294 C 850.392 -1.56722 -0.359858 0
M  V30 8295 O 851.582 -1.73546 -0.150848 0
M  V30 8296 C 848.714 -3.40409 -0.182987 0
M  V30 8297 H 849.907 -2.62567 1.44909 0
M  V30 8298 H 847.46 -1.34991 0.78785 0
M  V30 8299 H 848.195 -3.05551 -1.08671 0
M  V30 8300 H 847.98 -3.89171 0.47833 0
M  V30 8301 H 849.47 -4.14856 -0.477952 0
M  V30 8302 N 849.908 -0.773975 -1.37286 0
M  V30 8303 C 851.319 -0.404433 -1.82267 0
M  V30 8304 C 851.67 1.06971 -1.64474 0
M  V30 8305 O 850.795 1.82867 -1.15708 0
M  V30 8306 C 851.39 -0.727298 -3.30902 0
M  V30 8307 C 849.949 -0.410784 -3.74152 0
M  V30 8308 C 849.096 -0.969983 -2.59782 0
M  V30 8309 H 852.047 -0.968437 -1.25726 0
M  V30 8310 H 852.068 -0.0127575 -3.80498 0
M  V30 8311 H 851.58 -1.80026 -3.4382 0
M  V30 8312 H 849.681 0.65477 -3.66802 0
M  V30 8313 H 849.794 -0.920592 -4.70172 0
M  V30 8314 H 848.158 -0.394094 -2.51633 0
M  V30 8315 H 848.941 -2.04839 -2.75492 0
M  V30 8316 N 851.386 1.48609 -0.524698 0
M  V30 8317 C 852.296 2.33318 0.244923 0
M  V30 8318 C 853.312 1.46153 0.944214 0
M  V30 8319 O 854.488 1.79141 0.920347 0
M  V30 8320 C 851.553 3.22149 1.28144 0
M  V30 8321 C 850.614 4.25184 0.593068 0
M  V30 8322 C 849.847 5.0977 1.5802 0
M  V30 8323 O 850.07 4.96249 2.81235 0
M  V30 8324 O 849.004 5.9134 1.1225 0
M  V30 8325 H 852.83 3.00362 -0.449066 0
M  V30 8326 H 850.415 1.46643 -0.285689 0
M  V30 8327 H 852.297 3.77111 1.88057 0
M  V30 8328 H 850.972 2.57772 1.95793 0
M  V30 8329 H 849.879 3.74071 -0.0464214 0
M  V30 8330 H 851.212 4.92183 -0.0413893 0
M  V30 8331 N 852.864 0.259585 1.55447 0
M  V30 8332 C 854.11 -0.362143 1.9954 0
M  V30 8333 C 854.443 -1.5666 1.14767 0
M  V30 8334 O 853.718 -1.93319 0.214025 0
M  V30 8335 C 854.001 -0.759588 3.51998 0
M  V30 8336 C 853.854 0.451134 4.47532 0
M  V30 8337 C 855.173 -1.60186 4.09913 0
M  V30 8338 H 852.292 -0.130157 0.725416 0
M  V30 8339 H 854.934 0.363431 1.86492 0
M  V30 8340 H 853.084 -1.3778 3.63248 0
M  V30 8341 H 854.756 1.08965 4.48246 0
M  V30 8342 H 852.999 1.092 4.19831 0
M  V30 8343 H 853.67 0.129518 5.51848 0
M  V30 8344 H 856.146 -1.0799 4.01842 0
M  V30 8345 H 855.022 -1.84879 5.16828 0
M  V30 8346 H 855.283 -2.57787 3.59163 0
M  V30 8347 N 854.342 -1.57594 -0.0133615 0
M  V30 8348 C 855.305 -2.06534 -0.993799 0
M  V30 8349 C 856.305 -0.972267 -1.28077 0
M  V30 8350 O 857.495 -1.23537 -1.22818 0
M  V30 8351 C 854.627 -2.49554 -2.3224 0
M  V30 8352 H 855.82 -2.94419 -0.570741 0
M  V30 8353 H 853.373 -1.54113 -0.260546 0
M  V30 8354 H 854.108 -1.64872 -2.79263 0
M  V30 8355 H 853.893 -3.29371 -2.12737 0
M  V30 8356 H 855.383 -2.8779 -3.026 0
M  V30 8357 N 855.82 0.285905 -1.54985 0
M  V30 8358 C 857.069 1.01691 -1.74189 0
M  V30 8359 C 857.382 1.87908 -0.543135 0
M  V30 8360 O 858.588 2.64389 -0.617305 0
M  V30 8361 C 857.044 1.85785 -3.0824 0
M  V30 8362 C 856.652 1.04497 -4.35642 0
M  V30 8363 C 858.396 2.58393 -3.36798 0
M  V30 8364 C 856.303 1.87955 -5.60738 0
M  V30 8365 H 855.233 0.383396 -0.649248 0
M  V30 8366 H 857.884 0.27317 -1.81455 0
M  V30 8367 H 856.266 2.64205 -2.94978 0
M  V30 8368 H 857.44 0.305847 -4.59784 0
M  V30 8369 H 855.755 0.434023 -4.14132 0
M  V30 8370 H 858.352 3.21214 -4.27464 0
M  V30 8371 H 858.695 3.28011 -2.56349 0
M  V30 8372 H 859.228 1.87012 -3.511 0
M  V30 8373 H 855.967 1.22781 -6.43898 0
M  V30 8374 H 855.487 2.59499 -5.40759 0
M  V30 8375 H 857.166 2.45636 -5.98558 0
M  V30 8376 N 857.298 1.47698 0.54982 0
M  V30 8377 C 858.228 1.63622 1.66583 0
M  V30 8378 C 859.209 0.485477 1.63025 0
M  V30 8379 O 860.394 0.715692 1.80531 0
M  V30 8380 C 857.524 1.65721 3.05211 0
M  V30 8381 C 856.478 2.80097 3.2362 0
M  V30 8382 C 855.804 2.67272 4.63109 0
M  V30 8383 C 857.104 4.21612 3.08286 0
M  V30 8384 H 858.798 2.57049 1.53512 0
M  V30 8385 H 856.344 1.23705 0.737099 0
M  V30 8386 H 858.297 1.75451 3.83138 0
M  V30 8387 H 857.021 0.688593 3.19258 0
M  V30 8388 H 855.68 2.69889 2.48104 0
M  V30 8389 H 855.328 1.68422 4.73965 0
M  V30 8390 H 855.028 3.44008 4.76374 0
M  V30 8391 H 856.552 2.78942 5.43161 0
M  V30 8392 H 857.966 4.32758 3.76024 0
M  V30 8393 H 856.363 4.99193 3.33057 0
M  V30 8394 H 857.433 4.39462 2.04942 0
M  V30 8395 N 858.776 -0.797141 1.35954 0
M  V30 8396 C 860.024 -1.55161 1.29497 0
M  V30 8397 C 860.345 -1.94582 -0.127659 0
M  V30 8398 O 859.615 -1.64343 -1.06622 0
M  V30 8399 H 858.195 -0.575413 0.47635 0
M  V30 8400 H 860.857 -0.950282 1.70164 0
M  V30 8401 H 859.953 -2.46272 1.9172 0
M  V30 8402 N 860.254 -1.20106 -1.0204 0
M  V30 8403 C 861.5 -1.01039 -1.75838 0
M  V30 8404 C 861.833 0.456819 -1.88751 0
M  V30 8405 O 861.108 1.33919 -1.41053 0
M  V30 8406 C 861.391 -1.69009 -3.17975 0
M  V30 8407 C 861.244 -3.2315 -3.1288 0
M  V30 8408 C 862.563 -1.42005 -4.16561 0
M  V30 8409 H 859.682 -0.368465 -0.638281 0
M  V30 8410 H 862.324 -1.48066 -1.19064 0
M  V30 8411 H 860.474 -1.29026 -3.66449 0
M  V30 8412 H 862.146 -3.72402 -2.72239 0
M  V30 8413 H 860.389 -3.54253 -2.50374 0
M  V30 8414 H 861.06 -3.65862 -4.13339 0
M  V30 8415 H 863.536 -1.76685 -3.76725 0
M  V30 8416 H 862.412 -1.92101 -5.14187 0
M  V30 8417 H 862.673 -0.346884 -4.40737 0
M  V30 8418 N 861.732 1.21287 -1.00634 0
M  V30 8419 C 862.957 1.94925 -0.708441 0
M  V30 8420 C 863.382 1.73659 0.722783 0
M  V30 8421 O 862.74 1.02429 1.49593 0
M  V30 8422 C 862.788 3.45377 -1.03667 0
M  V30 8423 O 861.892 4.12153 -0.142661 0
M  V30 8424 H 861.233 0.609338 -0.263824 0
M  V30 8425 H 863.763 1.54008 -1.34695 0
M  V30 8426 H 863.773 3.95954 -0.984086 0
M  V30 8427 H 862.448 3.6018 -2.0795 0
M  V30 8428 H 861.025 3.72048 -0.251888 0
M  V30 8429 N 863.21 0.781244 1.36873 0
M  V30 8430 C 864.157 0.172146 2.30157 0
M  V30 8431 C 865.127 -0.679328 1.51573 0
M  V30 8432 O 866.312 -0.629713 1.80109 0
M  V30 8433 C 863.452 -0.693534 3.38059 0
M  V30 8434 C 862.565 0.175586 4.31643 0
M  V30 8435 C 861.7 -0.695695 5.26625 0
M  V30 8436 C 860.739 0.17538 6.11849 0
M  V30 8437 N 859.876 -0.654416 6.99043 0
M  V30 8438 H 864.716 0.973133 2.81663 0
M  V30 8439 H 862.253 0.491469 1.38647 0
M  V30 8440 H 864.211 -1.21035 3.99257 0
M  V30 8441 H 862.841 -1.46003 2.87894 0
M  V30 8442 H 861.893 0.810295 3.7167 0
M  V30 8443 H 863.205 0.847107 4.91554 0
M  V30 8444 H 862.359 -1.27863 5.93073 0
M  V30 8445 H 861.098 -1.40087 4.67148 0
M  V30 8446 H 860.103 0.77078 5.4437 0
M  V30 8447 H 861.328 0.87803 6.734 0
M  V30 8448 H 859.274 -1.34403 6.42084 0
M  V30 8449 H 859.191 -0.0403998 7.55989 0
M  V30 8450 H 860.459 -1.22144 7.69871 0
M  V30 8451 N 864.689 -1.48329 0.532571 0
M  V30 8452 C 865.652 -2.2816 -0.218069 0
M  V30 8453 C 866.652 -1.35526 -0.865409 0
M  V30 8454 O 867.842 -1.58394 -0.725061 0
M  V30 8455 C 864.974 -3.1448 -1.31586 0
M  V30 8456 H 866.167 -2.95987 0.482865 0
M  V30 8457 H 863.72 -1.53612 0.288603 0
M  V30 8458 H 864.455 -2.5129 -2.04997 0
M  V30 8459 H 864.24 -3.82625 -0.856779 0
M  V30 8460 H 865.73 -3.74693 -1.84377 0
M  V30 8461 N 866.167 -0.267825 -1.55308 0
M  V30 8462 C 867.392 0.357487 -2.04296 0
M  V30 8463 C 867.817 1.49222 -1.14518 0
M  V30 8464 O 867.175 1.80741 -0.142292 0
M  V30 8465 C 867.223 0.822899 -3.51085 0
M  V30 8466 O 866.327 1.93078 -3.6441 0
M  V30 8467 H 865.668 0.075025 -0.659748 0
M  V30 8468 H 868.198 -0.399996 -2.00652 0
M  V30 8469 H 868.208 1.12059 -3.92309 0
M  V30 8470 H 866.883 -0.0073562 -4.15899 0
M  V30 8471 H 865.46 1.63618 -3.35087 0
M  V30 8472 N 867.645 1.57599 0.00500368 0
M  V30 8473 C 868.578 2.03541 1.03181 0
M  V30 8474 C 869.556 0.924301 1.33774 0
M  V30 8475 O 870.74 1.19204 1.46023 0
M  V30 8476 C 867.867 2.42879 2.36067 0
M  V30 8477 C 866.913 3.64673 2.21169 0
M  V30 8478 S 867.746 5.12805 1.54243 0
M  V30 8479 C 868.902 5.55408 2.88569 0
M  V30 8480 H 869.135 2.90316 0.640598 0
M  V30 8481 H 866.668 1.52886 0.215722 0
M  V30 8482 H 868.626 2.66212 3.12476 0
M  V30 8483 H 867.287 1.56512 2.72329 0
M  V30 8484 H 866.48 3.89932 3.19326 0
M  V30 8485 H 866.082 3.41316 1.52904 0
M  V30 8486 H 868.374 5.57563 3.84876 0
M  V30 8487 H 869.317 6.55418 2.68016 0
M  V30 8488 H 869.725 4.82961 2.92249 0
M  V30 8489 N 869.123 -0.277682 1.55134 0
M  V30 8490 C 870.055 -1.36531 1.84098 0
M  V30 8491 C 871.068 -1.45756 0.725194 0
M  V30 8492 O 872.257 -1.47656 1.00299 0
M  V30 8493 C 869.357 -2.74701 1.98476 0
M  V30 8494 C 868.53 -2.88125 3.29094 0
M  V30 8495 C 867.589 -4.0694 3.33596 0
M  V30 8496 O 866.615 -3.9792 4.06999 0
M  V30 8497 N 867.817 -5.18687 2.60661 0
M  V30 8498 H 870.582 -1.12032 2.77973 0
M  V30 8499 H 868.143 -0.467793 1.54995 0
M  V30 8500 H 870.135 -3.52471 1.98863 0
M  V30 8501 H 868.705 -2.92043 1.11488 0
M  V30 8502 H 867.925 -1.97277 3.41285 0
M  V30 8503 H 869.213 -2.94021 4.15246 0
M  V30 8504 H 868.611 -5.28901 2.00699 0
M  V30 8505 H 867.168 -5.94705 2.66776 0
M  V30 8506 N 870.601 -1.47988 -0.541979 0
M  V30 8507 C 872.012 -1.49073 -1.12402 0
M  V30 8508 C 872.363 -0.253825 -1.94551 0
M  V30 8509 O 871.488 0.640056 -2.06718 0
M  V30 8510 C 872.083 -2.7011 -2.04514 0
M  V30 8511 C 870.642 -2.74105 -2.5796 0
M  V30 8512 C 869.789 -2.42409 -1.3466 0
M  V30 8513 H 872.74 -1.55277 -0.327818 0
M  V30 8514 H 872.761 -2.47946 -2.88623 0
M  V30 8515 H 872.273 -3.60117 -1.44697 0
M  V30 8516 H 870.374 -1.88276 -3.21532 0
M  V30 8517 H 870.487 -3.75213 -2.97913 0
M  V30 8518 H 868.851 -1.9331 -1.65841 0
M  V30 8519 H 869.634 -3.34642 -0.766133 0
M  V30 8520 N 872.079 0.78992 -1.36375 0
M  V30 8521 C 873.325 1.55007 -1.3077 0
M  V30 8522 C 873.658 1.93871 0.112979 0
M  V30 8523 O 872.933 1.6267 1.06625 0
M  V30 8524 C 873.216 2.82748 -2.22993 0
M  V30 8525 C 873.069 2.50253 -3.73756 0
M  V30 8526 C 874.388 3.84569 -2.13998 0
M  V30 8527 H 871.507 0.562362 -0.476359 0
M  V30 8528 H 874.149 0.907582 -1.66922 0
M  V30 8529 H 872.299 3.37573 -1.92292 0
M  V30 8530 H 873.971 2.01482 -4.14973 0
M  V30 8531 H 872.214 1.83203 -3.93216 0
M  V30 8532 H 872.885 3.41487 -4.33694 0
M  V30 8533 H 875.361 3.39188 -2.4102 0
M  V30 8534 H 874.237 4.717 -2.80697 0
M  V30 8535 H 874.498 4.27491 -1.12711 0
M  V30 8536 N 873.557 1.20646 1.01402 0
M  V30 8537 C 874.803 1.02974 1.75408 0
M  V30 8538 C 875.158 -0.433294 1.87458 0
M  V30 8539 O 874.451 -1.31741 1.39122 0
M  V30 8540 C 874.645 1.64991 3.17037 0
M  V30 8541 C 874.474 3.17174 3.18796 0
M  V30 8542 C 873.244 3.86165 3.2589 0
M  V30 8543 C 875.442 4.14369 3.04636 0
M  V30 8544 N 873.424 5.25614 3.1718 0
M  V30 8545 C 874.795 5.4051 3.03724 0
M  V30 8546 C 876.85 4.05534 2.88872 0
M  V30 8547 C 875.553 6.58836 2.88664 0
M  V30 8548 C 877.579 5.23486 2.75166 0
M  V30 8549 C 876.941 6.48535 2.74922 0
M  V30 8550 H 873.04 0.431068 0.65246 0
M  V30 8551 H 875.624 1.52858 1.20593 0
M  V30 8552 H 873.795 1.17688 3.70141 0
M  V30 8553 H 875.527 1.40612 3.79487 0
M  V30 8554 H 872.282 3.37038 3.32719 0
M  V30 8555 H 872.706 5.98625 3.16192 0
M  V30 8556 H 877.348 3.09661 2.87872 0
M  V30 8557 H 875.066 7.5488 2.88413 0
M  V30 8558 H 878.652 5.18464 2.63982 0
M  V30 8559 H 877.532 7.3827 2.64439 0
M  V30 8560 N 875.035 -1.20752 1.01276 0
M  V30 8561 C 876.312 -1.85676 0.615112 0
M  V30 8562 C 876.692 -1.90623 -0.906976 0
M  V30 8563 O 876.04 -1.41124 -1.79712 0
M  V30 8564 C 876.25 -3.2552 1.25847 0
M  V30 8565 C 877.598 -4.0184 1.37148 0
M  V30 8566 O 878.622 -3.3486 1.21438 0
M  V30 8567 O 877.481 -5.21783 1.62495 0
M  V30 8568 H 874.575 -0.799437 0.211729 0
M  V30 8569 H 877.121 -1.28372 1.10989 0
M  V30 8570 H 875.893 -3.16664 2.29869 0
M  V30 8571 H 875.516 -3.90452 0.750524 0
M  V30 8572 N 876.513 -0.788492 -1.36457 0
M  V30 8573 C 877.761 -0.359749 -1.98872 0
M  V30 8574 C 878.082 1.07197 -1.62892 0
M  V30 8575 O 877.352 1.73875 -0.902463 0
M  V30 8576 H 875.932 -0.130029 -0.735596 0
M  V30 8577 H 878.594 -1.01033 -1.66668 0
M  V30 8578 H 877.69 -0.450835 -3.08827 0
M  V30 8579 N 877.991 1.48044 -0.54043 0
M  V30 8580 C 878.938 2.29781 0.216597 0
M  V30 8581 C 879.908 1.38021 0.924094 0
M  V30 8582 O 881.093 1.66985 0.923078 0
M  V30 8583 C 878.233 3.21623 1.2511 0
M  V30 8584 C 877.346 4.28467 0.551384 0
M  V30 8585 C 876.481 5.07477 1.56972 0
M  V30 8586 C 875.52 6.06113 0.854048 0
M  V30 8587 N 874.657 6.78143 1.81842 0
M  V30 8588 H 879.497 2.94001 -0.486578 0
M  V30 8589 H 877.034 1.44929 -0.251789 0
M  V30 8590 H 878.992 3.73279 1.8633 0
M  V30 8591 H 877.622 2.59305 1.92252 0
M  V30 8592 H 876.674 3.79997 -0.174982 0
M  V30 8593 H 877.986 4.98799 -0.0100542 0
M  V30 8594 H 877.14 5.63199 2.25592 0
M  V30 8595 H 875.879 4.37008 2.16507 0
M  V30 8596 H 874.884 5.49585 0.153838 0
M  V30 8597 H 876.109 6.78584 0.264675 0
M  V30 8598 H 874.055 6.10417 2.40265 0
M  V30 8599 H 873.972 7.44587 1.3087 0
M  V30 8600 H 875.24 7.38448 2.49628 0
M  V30 8601 N 879.47 0.276058 1.55163 0
M  V30 8602 C 880.433 -0.597924 2.21263 0
M  V30 8603 C 881.433 -1.0806 1.19078 0
M  V30 8604 O 882.623 -0.980626 1.43977 0
M  V30 8605 C 879.755 -1.82503 2.87933 0
M  V30 8606 H 880.948 -0.0207769 2.99893 0
M  V30 8607 H 878.501 0.0266823 1.56277 0
M  V30 8608 H 879.236 -2.44266 2.13318 0
M  V30 8609 H 879.021 -1.48683 3.62816 0
M  V30 8610 H 880.511 -2.44651 3.38431 0
M  V30 8611 N 880.948 -1.576 0.00335426 0
M  V30 8612 C 882.195 -1.90713 -0.680791 0
M  V30 8613 C 882.523 -0.877263 -1.73592 0
M  V30 8614 O 881.778 0.117497 -1.95347 0
M  V30 8615 C 882.077 -3.3058 -1.35837 0
M  V30 8616 C 881.743 -4.48786 -0.436111 0
M  V30 8617 C 880.405 -4.80855 -0.182195 0
M  V30 8618 C 882.757 -5.20821 0.198677 0
M  V30 8619 C 880.085 -5.8233 0.714747 0
M  V30 8620 C 882.437 -6.23252 1.08351 0
M  V30 8621 C 881.101 -6.53776 1.34658 0
M  V30 8622 H 880.371 -0.697869 -0.249119 0
M  V30 8623 H 883.018 -1.91407 0.0596011 0
M  V30 8624 H 881.323 -3.26026 -2.17289 0
M  V30 8625 H 883.02 -3.53462 -1.89383 0
M  V30 8626 H 879.61 -4.23731 -0.644186 0
M  V30 8627 H 883.794 -4.96298 0.0155259 0
M  V30 8628 H 879.05 -6.04339 0.926529 0
M  V30 8629 H 883.224 -6.78199 1.58172 0
M  V30 8630 H 880.851 -7.32225 2.04328 0
M  V30 8631 N 882.426 0.269451 -1.5528 0
M  V30 8632 C 883.358 1.35553 -1.84819 0
M  V30 8633 C 884.371 1.45369 -0.732914 0
M  V30 8634 O 885.56 1.47122 -1.0108 0
M  V30 8635 C 882.66 2.73645 -1.9993 0
M  V30 8636 C 881.833 2.86376 -3.30617 0
M  V30 8637 C 880.892 4.05165 -3.35749 0
M  V30 8638 O 879.918 3.95756 -4.09104 0
M  V30 8639 N 881.12 5.17297 -2.63408 0
M  V30 8640 H 883.885 1.10557 -2.78563 0
M  V30 8641 H 881.446 0.459566 -1.5524 0
M  V30 8642 H 883.438 3.51411 -2.00729 0
M  V30 8643 H 882.008 2.91448 -1.13035 0
M  V30 8644 H 881.228 1.95465 -3.42326 0
M  V30 8645 H 882.516 2.91815 -4.16799 0
M  V30 8646 H 881.914 5.2783 -2.03501 0
M  V30 8647 H 880.471 5.93281 -2.69927 0
M  V30 8648 N 883.904 1.48273 0.534124 0
M  V30 8649 C 885.315 1.49667 1.1161 0
M  V30 8650 C 885.666 0.264139 1.94414 0
M  V30 8651 O 884.791 -0.629084 2.07054 0
M  V30 8652 C 885.386 2.71191 2.03079 0
M  V30 8653 C 883.945 2.7547 2.56502 0
M  V30 8654 C 883.092 2.43119 1.33373 0
M  V30 8655 H 886.043 1.55449 0.319578 0
M  V30 8656 H 886.064 2.49473 2.87304 0
M  V30 8657 H 885.576 3.60879 1.42785 0
M  V30 8658 H 883.677 1.89979 3.20529 0
M  V30 8659 H 883.79 3.76787 2.95919 0
M  V30 8660 H 882.154 1.94187 1.64813 0
M  V30 8661 H 882.937 3.35044 0.748375 0
M  V30 8662 N 885.382 -0.782676 1.36792 0
M  V30 8663 C 886.798 -1.08169 1.17352 0
M  V30 8664 C 886.998 -2.015 0.0022037 0
M  V30 8665 O 886.054 -2.43692 -0.661093 0
M  V30 8666 C 887.367 -1.68969 2.48737 0
M  V30 8667 C 888.915 -1.81278 2.55161 0
M  V30 8668 C 889.39 -2.45492 3.86649 0
M  V30 8669 N 890.881 -2.52954 3.88032 0
M  V30 8670 C 891.616 -3.03465 4.86515 0
M  V30 8671 N 891.112 -3.54232 5.95392 0
M  V30 8672 N 892.905 -3.02239 4.73928 0
M  V30 8673 H 885.056 -0.162757 2.11775 0
M  V30 8674 H 887.319 -0.134823 0.938364 0
M  V30 8675 H 887.025 -1.07859 3.34753 0
M  V30 8676 H 886.899 -2.68397 2.65034 0
M  V30 8677 H 889.286 -2.41524 1.69559 0
M  V30 8678 H 889.367 -0.806367 2.42758 0
M  V30 8679 H 889.011 -1.85889 4.7266 0
M  V30 8680 H 888.941 -3.46718 3.96351 0
M  V30 8681 H 891.432 -2.17014 3.09376 0
M  V30 8682 H 891.745 -3.91145 6.66503 0
M  V30 8683 H 890.09 -3.52366 5.99052 0
M  V30 8684 H 893.281 -2.61871 3.87996 0
M  V30 8685 H 893.454 -3.41295 5.50837 0
M  V30 8686 N 886.86 -1.21182 -1.00761 0
M  V30 8687 C 887.79 -0.992773 -2.11344 0
M  V30 8688 C 888.771 0.0813618 -1.69905 0
M  V30 8689 O 889.956 -0.0779503 -1.94043 0
M  V30 8690 C 887.086 -0.553826 -3.42856 0
M  V30 8691 C 886.04 -1.57223 -3.98077 0
M  V30 8692 C 885.366 -0.989605 -5.25463 0
M  V30 8693 C 886.666 -2.95839 -4.30438 0
M  V30 8694 H 888.36 -1.91766 -2.29927 0
M  V30 8695 H 885.906 -0.923426 -1.10494 0
M  V30 8696 H 887.859 -0.387771 -4.19612 0
M  V30 8697 H 886.583 0.406702 -3.24058 0
M  V30 8698 H 885.242 -1.7258 -3.23437 0
M  V30 8699 H 884.89 -0.0208743 -5.02996 0
M  V30 8700 H 884.59 -1.66984 -5.63374 0
M  V30 8701 H 886.114 -0.834815 -6.04866 0
M  V30 8702 H 887.528 -2.8394 -4.98047 0
M  V30 8703 H 885.925 -3.60851 -4.79486 0
M  V30 8704 H 886.995 -3.46882 -3.38823 0
M  V30 8705 N 888.338 1.20213 -1.01915 0
M  V30 8706 C 889.271 2.2181 -0.536243 0
M  V30 8707 C 890.249 1.57144 0.417689 0
M  V30 8708 O 891.433 1.85461 0.337088 0
M  V30 8709 C 888.56 3.37989 0.219303 0
M  V30 8710 C 887.606 4.2097 -0.684571 0
M  V30 8711 S 888.439 4.90216 -2.15519 0
M  V30 8712 C 889.595 6.09814 -1.40988 0
M  V30 8713 H 889.828 2.62429 -1.39709 0
M  V30 8714 H 887.361 1.30305 -0.828254 0
M  V30 8715 H 889.319 4.05335 0.649112 0
M  V30 8716 H 887.98 2.95825 1.05575 0
M  V30 8717 H 887.173 5.03897 -0.101833 0
M  V30 8718 H 886.775 3.58892 -1.05227 0
M  V30 8719 H 889.067 6.73964 -0.691243 0
M  V30 8720 H 890.01 6.72552 -2.21539 0
M  V30 8721 H 890.418 5.5709 -0.911645 0
M  V30 8722 N 889.816 0.795718 1.36037 0
M  V30 8723 C 890.746 0.212803 2.32528 0
M  V30 8724 C 891.727 -0.655716 1.56953 0
M  V30 8725 O 892.912 -0.588238 1.85077 0
M  V30 8726 C 890.042 -0.648189 3.41198 0
M  V30 8727 C 888.996 0.120948 4.27829 0
M  V30 8728 C 888.322 -0.861044 5.27722 0
M  V30 8729 C 889.622 1.31375 5.05508 0
M  V30 8730 H 891.316 1.01893 2.81528 0
M  V30 8731 H 888.862 0.491422 1.35355 0
M  V30 8732 H 890.815 -1.06597 4.07695 0
M  V30 8733 H 889.539 -1.48709 2.9078 0
M  V30 8734 H 888.198 0.519777 3.62897 0
M  V30 8735 H 887.846 -1.69515 4.73575 0
M  V30 8736 H 887.546 -0.350808 5.86552 0
M  V30 8737 H 889.07 -1.27726 5.97092 0
M  V30 8738 H 890.484 0.971406 5.6501 0
M  V30 8739 H 888.881 1.75772 5.73781 0
M  V30 8740 H 889.951 2.10593 4.36782 0
M  V30 8741 N 891.294 -1.47756 0.548274 0
M  V30 8742 C 892.705 -1.8636 0.112547 0
M  V30 8743 C 893.056 -1.45589 -1.31523 0
M  V30 8744 O 892.181 -0.854874 -1.98799 0
M  V30 8745 C 892.776 -3.38224 0.197473 0
M  V30 8746 C 891.335 -3.75954 -0.183163 0
M  V30 8747 C 890.482 -2.7181 0.549059 0
M  V30 8748 H 893.433 -1.394 0.758506 0
M  V30 8749 H 893.454 -3.75957 -0.586217 0
M  V30 8750 H 892.966 -3.67868 1.23673 0
M  V30 8751 H 891.067 -3.51926 -1.22387 0
M  V30 8752 H 891.18 -4.78801 0.169178 0
M  V30 8753 H 889.544 -2.54699 -0.00682862 0
M  V30 8754 H 890.327 -3.04296 1.5893 0
M  V30 8755 N 892.772 -0.284283 -1.55015 0
M  V30 8756 C 893.702 0.592663 -2.25853 0
M  V30 8757 C 894.683 1.15151 -1.25197 0
M  V30 8758 O 895.868 1.18395 -1.53936 0
M  V30 8759 C 892.998 1.77254 -2.98661 0
M  V30 8760 C 891.952 1.34482 -4.06323 0
M  V30 8761 C 891.278 2.60853 -4.66754 0
M  V30 8762 C 892.578 0.488288 -5.20013 0
M  V30 8763 H 894.272 0.00187041 -2.994 0
M  V30 8764 H 891.818 -0.000540402 -1.44 0
M  V30 8765 H 893.771 2.39199 -3.46932 0
M  V30 8766 H 892.495 2.38931 -2.22664 0
M  V30 8767 H 891.154 0.748519 -3.58877 0
M  V30 8768 H 890.802 3.20808 -3.87416 0
M  V30 8769 H 890.502 2.32942 -5.39455 0
M  V30 8770 H 892.026 3.23631 -5.1778 0
M  V30 8771 H 893.44 1.01298 -5.6428 0
M  V30 8772 H 891.837 0.303669 -5.99331 0
M  V30 8773 H 892.907 -0.490727 -4.8241 0
M  V30 8774 N 894.251 1.57596 -0.0117121 0
M  V30 8775 C 895.476 1.95764 0.684938 0
M  V30 8776 C 895.901 0.887285 1.65858 0
M  V30 8777 O 895.259 -0.153508 1.80649 0
M  V30 8778 C 895.307 3.33031 1.38285 0
M  V30 8779 O 894.411 3.28163 2.49765 0
M  V30 8780 H 893.752 0.638767 0.181309 0
M  V30 8781 H 896.282 2.04486 -0.0683883 0
M  V30 8782 H 896.292 3.68866 1.74362 0
M  V30 8783 H 894.967 4.10483 0.669043 0
M  V30 8784 H 893.544 3.04021 2.15929 0
M  V30 8785 N 895.729 -0.261212 1.5542 0
M  V30 8786 C 896.659 -1.32712 1.92119 0
M  V30 8787 C 897.64 -1.50934 0.784406 0
M  V30 8788 O 898.825 -1.63781 1.04352 0
M  V30 8789 C 895.955 -2.68453 2.20341 0
M  V30 8790 C 894.909 -2.64947 3.36136 0
M  V30 8791 C 894.235 -4.04349 3.49865 0
M  V30 8792 C 895.535 -2.23182 4.72215 0
M  V30 8793 H 897.229 -1.02245 2.81401 0
M  V30 8794 H 894.775 -0.490406 1.35392 0
M  V30 8795 H 896.728 -3.43144 2.44603 0
M  V30 8796 H 895.452 -3.00527 1.27871 0
M  V30 8797 H 894.111 -1.92714 3.11861 0
M  V30 8798 H 893.759 -4.33665 2.5484 0
M  V30 8799 H 893.459 -4.02895 4.27726 0
M  V30 8800 H 894.983 -4.80761 3.76432 0
M  V30 8801 H 896.397 -2.87599 4.95943 0
M  V30 8802 H 894.794 -2.32867 5.53076 0
M  V30 8803 H 895.864 -1.18327 4.70241 0
M  V30 8804 N 897.207 -1.48554 -0.526253 0
M  V30 8805 C 898.432 -1.60686 -1.31129 0
M  V30 8806 C 898.857 -0.268701 -1.86171 0
M  V30 8807 O 898.215 0.760167 -1.64594 0
M  V30 8808 C 898.263 -2.65938 -2.43536 0
M  V30 8809 O 897.367 -2.23356 -3.46678 0
M  V30 8810 H 896.708 -0.538691 -0.388211 0
M  V30 8811 H 899.238 -1.94567 -0.632826 0
M  V30 8812 H 899.248 -2.87327 -2.89668 0
M  V30 8813 H 897.923 -3.63085 -2.02835 0
M  V30 8814 H 896.5 -2.12196 -3.06639 0
M  V30 8815 N 898.685 0.775411 -1.37205 0
M  V30 8816 C 899.915 1.56219 -1.352 0
M  V30 8817 C 900.323 1.89087 0.065456 0
M  V30 8818 O 899.666 1.51655 1.03665 0
M  V30 8819 C 899.728 2.9019 -2.12203 0
M  V30 8820 C 899.392 2.79978 -3.61195 0
M  V30 8821 C 900.389 2.51258 -4.55154 0
M  V30 8822 C 898.074 2.98115 -4.04268 0
M  V30 8823 C 900.068 2.40798 -5.90165 0
M  V30 8824 C 897.755 2.87276 -5.39366 0
M  V30 8825 C 898.753 2.58657 -6.32128 0
M  V30 8826 O 898.441 2.47838 -7.64743 0
M  V30 8827 H 898.173 0.490735 -0.464925 0
M  V30 8828 H 900.727 0.969201 -1.81096 0
M  V30 8829 H 898.957 3.51594 -1.60992 0
M  V30 8830 H 900.646 3.51561 -2.02879 0
M  V30 8831 H 901.412 2.36935 -4.23186 0
M  V30 8832 H 897.291 3.19392 -3.3243 0
M  V30 8833 H 900.835 2.18381 -6.62537 0
M  V30 8834 H 896.732 3.01166 -5.70937 0
M  V30 8835 H 897.5 2.63215 -7.75023 0
M  V30 8836 N 900.163 1.21714 1.00117 0
M  V30 8837 C 901.44 0.945391 1.71236 0
M  V30 8838 C 901.82 -0.541772 2.0403 0
M  V30 8839 O 901.168 -1.50763 1.71705 0
M  V30 8840 C 901.378 1.83444 2.96899 0
M  V30 8841 C 902.726 2.08558 3.69849 0
M  V30 8842 O 903.75 1.80824 3.06889 0
M  V30 8843 O 902.609 2.55485 4.83104 0
M  V30 8844 H 899.703 0.354834 0.747009 0
M  V30 8845 H 902.249 1.32661 1.05825 0
M  V30 8846 H 901.021 2.84075 2.69105 0
M  V30 8847 H 900.644 1.45428 3.70049 0
M  V30 8848 N 901.641 -1.19671 1.02551 0
M  V30 8849 C 902.591 -2.20655 0.574037 0
M  V30 8850 C 903.575 -1.56459 -0.375412 0
M  V30 8851 O 904.767 -1.75901 -0.196929 0
M  V30 8852 C 901.896 -3.43213 -0.0772031 0
M  V30 8853 C 900.982 -4.1456 0.894485 0
M  V30 8854 N 901.373 -4.62147 2.05557 0
M  V30 8855 C 899.671 -4.40196 0.717205 0
M  V30 8856 C 900.372 -5.16899 2.66814 0
M  V30 8857 N 899.348 -5.07496 1.94804 0
M  V30 8858 H 903.15 -2.55124 1.45908 0
M  V30 8859 H 900.664 -1.35707 0.89204 0
M  V30 8860 H 902.661 -4.14797 -0.41824 0
M  V30 8861 H 901.321 -3.10247 -0.957973 0
M  V30 8862 H 902.332 -4.5708 2.43513 0
M  V30 8863 H 899.009 -4.17342 -0.114758 0
M  V30 8864 H 900.399 -5.64032 3.65126 0
M  V30 8865 N 903.119 -0.802921 -1.35613 0
M  V30 8866 C 904.535 -0.486214 -1.52014 0
M  V30 8867 C 904.735 0.993219 -1.75321 0
M  V30 8868 O 903.791 1.77835 -1.79251 0
M  V30 8869 C 905.104 -1.32839 -2.69767 0
M  V30 8870 C 906.652 -1.32346 -2.83643 0
M  V30 8871 C 907.127 -2.14967 -4.04417 0
M  V30 8872 N 908.618 -2.12484 -4.11588 0
M  V30 8873 C 909.353 -2.73173 -5.04147 0
M  V30 8874 N 908.849 -3.42774 -6.02061 0
M  V30 8875 N 910.642 -2.62834 -4.96865 0
M  V30 8876 H 902.793 -1.76109 -1.18741 0
M  V30 8877 H 905.056 -0.74936 -0.580658 0
M  V30 8878 H 904.762 -2.37813 -2.5911 0
M  V30 8879 H 904.636 -0.979058 -3.64272 0
M  V30 8880 H 907.023 -0.281586 -2.93753 0
M  V30 8881 H 907.104 -1.71264 -1.90006 0
M  V30 8882 H 906.748 -3.19193 -3.95068 0
M  V30 8883 H 906.678 -1.73411 -4.97228 0
M  V30 8884 H 909.169 -1.61839 -3.41492 0
M  V30 8885 H 909.482 -3.86378 -6.69277 0
M  V30 8886 H 907.827 -3.46878 -6.02246 0
M  V30 8887 H 911.018 -2.08049 -4.19325 0
M  V30 8888 H 911.191 -3.10421 -5.68808 0
M  V30 8889 N 904.597 1.47463 -0.556102 0
M  V30 8890 C 905.843 2.02775 -0.0316806 0
M  V30 8891 C 906.176 1.42967 1.3143 0
M  V30 8892 O 905.451 0.584847 1.85499 0
M  V30 8893 C 905.734 3.60046 0.0625742 0
M  V30 8894 C 905.587 4.30288 -1.31043 0
M  V30 8895 C 906.906 4.33195 0.776553 0
M  V30 8896 H 904.025 0.736886 -0.0129869 0
M  V30 8897 H 906.667 1.75904 -0.718177 0
M  V30 8898 H 904.817 3.83071 0.647231 0
M  V30 8899 H 906.489 4.18607 -1.9382 0
M  V30 8900 H 904.732 3.90685 -1.8854 0
M  V30 8901 H 905.403 5.38861 -1.1972 0
M  V30 8902 H 907.879 4.15156 0.280147 0
M  V30 8903 H 906.755 5.42869 0.81146 0
M  V30 8904 H 907.016 4.02336 1.83244 0
M  V30 8905 N 906.075 0.2925 1.54862 0
M  V30 8906 C 907.324 -0.319994 1.99146 0
M  V30 8907 C 907.637 -1.55658 1.18448 0
M  V30 8908 O 908.843 -2.24312 1.52959 0
M  V30 8909 C 907.299 -0.620665 3.54508 0
M  V30 8910 C 906.907 0.597098 4.44003 0
M  V30 8911 C 908.651 -1.19482 4.07338 0
M  V30 8912 C 906.558 0.270049 5.90783 0
M  V30 8913 H 905.488 -0.123342 0.743843 0
M  V30 8914 H 908.139 0.399876 1.7909 0
M  V30 8915 H 906.521 -1.3999 3.7043 0
M  V30 8916 H 907.695 1.37354 4.39853 0
M  V30 8917 H 906.01 1.0893 4.019 0
M  V30 8918 H 908.607 -1.45362 5.14562 0
M  V30 8919 H 908.95 -2.13435 3.57423 0
M  V30 8920 H 909.483 -0.477485 3.94924 0
M  V30 8921 H 906.222 1.17791 6.4483 0
M  V30 8922 H 905.742 -0.469292 5.97961 0
M  V30 8923 H 907.421 -0.131471 6.46866 0
M  V30 8924 N 907.553 -1.57587 0.0200696 0
M  V30 8925 C 908.501 -2.10814 -0.982868 0
M  V30 8926 C 909.495 -1.03263 -1.34287 0
M  V30 8927 O 910.701 -1.21708 -1.32617 0
M  V30 8928 H 907.076 -0.673409 -0.334701 0
M  V30 8929 H 909.047 -2.94034 -0.50856 0
M  V30 8930 C 907.796 -2.64301 -2.25921 0
M  V30 8931 H 907.119 -3.46703 -1.99091 0
M  V30 8932 H 908.559 -3.052 -2.94328 0
M  V30 8933 C 907.018 -1.56628 -2.98277 0
M  V30 8934 O 907.548 -0.960825 -3.9004 0
M  V30 8935 N 905.754 -1.28889 -2.60453 0
M  V30 8936 H 905.301 -1.7831 -1.85912 0
M  V30 8937 H 905.259 -0.570697 -3.09177 0
M  V30 8938 N 909.032 0.252966 -1.55557 0
M  V30 8939 C 910.28 0.979912 -1.76754 0
M  V30 8940 C 910.601 1.86083 -0.582944 0
M  V30 8941 O 909.871 1.91742 0.401497 0
M  V30 8942 H 908.451 0.364805 -0.651864 0
M  V30 8943 H 911.113 0.272372 -1.92987 0
M  V30 8944 H 910.209 1.60518 -2.67657 0
M  V30 8945 N 910.51 1.48831 0.518367 0
M  V30 8946 C 911.473 1.63721 1.604 0
M  V30 8947 C 912.473 0.509857 1.52503 0
M  V30 8948 O 913.663 0.775922 1.55965 0
M  V30 8949 C 910.795 1.61831 3.00039 0
M  V30 8950 H 911.988 2.60534 1.48533 0
M  V30 8951 H 909.541 1.37602 0.741309 0
M  V30 8952 H 910.276 0.665387 3.17401 0
M  V30 8953 H 910.061 2.43686 3.0718 0
M  V30 8954 H 911.551 1.75467 3.78947 0
M  V30 8955 N 911.988 -0.768124 1.37614 0
M  V30 8956 C 912.951 -1.86314 1.3349 0
M  V30 8957 C 913.951 -1.59025 0.23823 0
M  V30 8958 O 915.141 -1.6704 0.494288 0
M  V30 8959 C 912.273 -3.23519 1.07462 0
M  V30 8960 H 913.466 -1.91382 2.30896 0
M  V30 8961 H 911.019 -0.968267 1.22696 0
M  V30 8962 H 911.754 -3.24127 0.106028 0
M  V30 8963 H 911.539 -3.44719 1.86846 0
M  V30 8964 H 913.029 -4.03597 1.07236 0
M  V30 8965 N 913.466 -1.22244 -0.994698 0
M  V30 8966 C 914.429 -0.992308 -2.06606 0
M  V30 8967 C 915.429 0.0405872 -1.60749 0
M  V30 8968 O 916.619 -0.197737 -1.73074 0
M  V30 8969 C 913.751 -0.498499 -3.37236 0
M  V30 8970 H 914.944 -1.9429 -2.28455 0
M  V30 8971 H 912.497 -1.04087 -1.166 0
M  V30 8972 H 913.232 0.456531 -3.21071 0
M  V30 8973 H 913.017 -1.24367 -3.71854 0
M  V30 8974 H 914.507 -0.35768 -4.16065 0
M  V30 8975 N 914.944 1.19125 -1.03184 0
M  V30 8976 C 915.907 2.20662 -0.619766 0
M  V30 8977 C 916.907 1.57621 0.318179 0
M  V30 8978 O 918.097 1.73885 0.104783 0
M  V30 8979 C 915.229 3.40774 0.0926696 0
M  V30 8980 H 916.422 2.58633 -1.5182 0
M  V30 8981 H 913.975 1.32855 -0.823364 0
M  V30 8982 H 914.71 3.08324 1.00531 0
M  V30 8983 H 914.495 3.87766 -0.581344 0
M  V30 8984 H 915.985 4.15977 0.367792 0
M  V30 8985 N 916.422 0.810101 1.35185 0
M  V30 8986 C 917.838 0.494269 1.51754 0
M  V30 8987 C 918.038 -0.983907 1.75845 0
M  V30 8988 O 917.094 -1.76882 1.80191 0
M  V30 8989 C 918.407 1.34268 2.69059 0
M  V30 8990 C 919.955 1.33848 2.82938 0
M  V30 8991 C 920.43 2.17109 4.03271 0
M  V30 8992 N 921.921 2.14664 4.10456 0
M  V30 8993 C 922.656 2.75843 5.02691 0
M  V30 8994 N 922.152 3.45962 6.00235 0
M  V30 8995 N 923.945 2.65465 4.95464 0
M  V30 8996 H 916.096 1.76736 1.17805 0
M  V30 8997 H 918.359 0.752429 0.576676 0
M  V30 8998 H 918.065 2.39183 2.57845 0
M  V30 8999 H 917.939 0.998362 3.63748 0
M  V30 9000 H 920.326 0.29716 2.936 0
M  V30 9001 H 920.407 1.72269 1.89095 0
M  V30 9002 H 920.051 3.21283 3.93369 0
M  V30 9003 H 919.981 1.76046 4.96302 0
M  V30 9004 H 922.472 1.63648 3.40628 0
M  V30 9005 H 922.785 3.89922 6.67219 0
M  V30 9006 H 921.13 3.50067 6.00398 0
M  V30 9007 H 924.321 2.1027 4.18215 0
M  V30 9008 H 924.494 3.13433 5.67154 0
M  V30 9009 N 917.9 -1.47166 0.563914 0
M  V30 9010 C 919.147 -2.02456 0.042371 0
M  V30 9011 C 919.475 -1.43753 -1.31016 0
M  V30 9012 O 918.73 -0.585287 -1.86743 0
M  V30 9013 C 919.029 -3.57279 -0.0931797 0
M  V30 9014 C 918.695 -4.34932 1.18933 0
M  V30 9015 C 917.357 -4.55867 1.54073 0
M  V30 9016 C 919.709 -4.79665 2.03889 0
M  V30 9017 C 917.037 -5.18785 2.74005 0
M  V30 9018 C 919.389 -5.43907 3.23029 0
M  V30 9019 C 918.053 -5.63074 3.58475 0
M  V30 9020 H 917.323 -0.740838 0.0155047 0
M  V30 9021 H 919.97 -1.76759 0.736776 0
M  V30 9022 H 918.275 -3.82005 -0.870596 0
M  V30 9023 H 919.972 -3.97716 -0.512176 0
M  V30 9024 H 916.562 -4.18921 0.905718 0
M  V30 9025 H 920.746 -4.63264 1.78046 0
M  V30 9026 H 916.002 -5.31818 3.01628 0
M  V30 9027 H 920.176 -5.77531 3.89141 0
M  V30 9028 H 917.803 -6.11598 4.515 0
M  V30 9029 N 919.378 -0.300708 -1.54705 0
M  V30 9030 C 920.606 0.31127 -2.04545 0
M  V30 9031 C 921.021 1.47542 -1.178 0
M  V30 9032 O 920.378 1.81361 -0.203571 0
M  V30 9033 C 920.429 0.767783 -3.53253 0
M  V30 9034 O 920.15 -0.350027 -4.36699 0
M  V30 9035 C 921.651 1.44494 -4.1909 0
M  V30 9036 H 918.871 0.067668 -0.667579 0
M  V30 9037 H 921.415 -0.440254 -1.99705 0
M  V30 9038 H 919.57 1.46933 -3.58454 0
M  V30 9039 H 919.984 0.00534038 -5.245 0
M  V30 9040 H 921.458 1.71553 -5.24665 0
M  V30 9041 H 921.935 2.3849 -3.68808 0
M  V30 9042 H 922.541 0.786581 -4.17963 0
M  V30 9043 N 920.856 1.57574 -0.0284266 0
M  V30 9044 C 921.803 2.10176 0.953658 0
M  V30 9045 C 922.773 1.00367 1.32347 0
M  V30 9046 O 923.958 1.27783 1.4169 0
M  V30 9047 C 921.098 2.63287 2.231 0
M  V30 9048 C 920.211 3.87102 1.91771 0
M  V30 9049 C 919.346 4.28609 3.13795 0
M  V30 9050 C 918.385 5.45184 2.78282 0
M  V30 9051 N 917.522 5.81851 3.92929 0
M  V30 9052 H 922.362 2.93806 0.498176 0
M  V30 9053 H 919.899 1.45222 0.234302 0
M  V30 9054 H 921.857 2.9217 2.97813 0
M  V30 9055 H 920.487 1.82489 2.66266 0
M  V30 9056 H 919.539 3.64952 1.07303 0
M  V30 9057 H 920.851 4.71892 1.61615 0
M  V30 9058 H 920.005 4.58925 3.96829 0
M  V30 9059 H 918.744 3.42585 3.47112 0
M  V30 9060 H 917.749 5.14563 1.93661 0
M  V30 9061 H 918.974 6.32907 2.46182 0
M  V30 9062 H 916.92 4.98782 4.2609 0
M  V30 9063 H 916.837 6.6128 3.66395 0
M  V30 9064 H 918.105 6.16772 4.76669 0
M  V30 9065 N 922.334 -0.244713 1.55689 0
M  V30 9066 C 923.75 -0.593331 1.48161 0
M  V30 9067 C 923.95 -1.88234 0.719047 0
M  V30 9068 O 923.006 -2.51266 0.249292 0
M  V30 9069 C 924.319 -0.694032 2.92581 0
M  V30 9070 C 925.867 -0.786213 3.02965 0
M  V30 9071 C 926.342 -0.918457 4.48696 0
M  V30 9072 N 927.833 -0.983272 4.52643 0
M  V30 9073 C 928.568 -1.1049 5.62654 0
M  V30 9074 N 928.064 -1.19193 6.8247 0
M  V30 9075 N 929.857 -1.13823 5.50455 0
M  V30 9076 H 922.008 0.601446 2.03707 0
M  V30 9077 H 924.271 0.207894 0.924924 0
M  V30 9078 H 923.977 0.183133 3.51223 0
M  V30 9079 H 923.851 -1.56525 3.4319 0
M  V30 9080 H 926.238 -1.65383 2.44402 0
M  V30 9081 H 926.319 0.110202 2.55563 0
M  V30 9082 H 925.963 -0.0553881 5.0787 0
M  V30 9083 H 925.893 -1.82994 4.93782 0
M  V30 9084 H 928.384 -0.927269 3.66347 0
M  V30 9085 H 928.697 -1.28387 7.62061 0
M  V30 9086 H 927.042 -1.16147 6.85226 0
M  V30 9087 H 930.233 -1.06673 4.55783 0
M  V30 9088 H 930.406 -1.22957 6.36228 0
M  V30 9089 N 923.813 -1.49104 -0.510467 0
M  V30 9090 C 924.743 -1.67981 -1.62187 0
M  V30 9091 C 925.724 -0.528529 -1.6168 0
M  V30 9092 O 926.909 -0.763305 -1.7857 0
M  V30 9093 C 924.039 -1.73755 -3.0071 0
M  V30 9094 C 922.993 -2.88579 -3.1608 0
M  V30 9095 C 922.319 -2.79457 -4.5586 0
M  V30 9096 C 923.619 -4.29638 -2.97 0
M  V30 9097 H 925.313 -2.61029 -1.46643 0
M  V30 9098 H 922.859 -1.25615 -0.704042 0
M  V30 9099 H 924.812 -1.85548 -3.78352 0
M  V30 9100 H 923.536 -0.772996 -3.17321 0
M  V30 9101 H 922.195 -2.76372 -2.40861 0
M  V30 9102 H 921.843 -1.80929 -4.69333 0
M  V30 9103 H 921.543 -3.56518 -4.67086 0
M  V30 9104 H 923.067 -2.93245 -5.35574 0
M  V30 9105 H 924.481 -4.42575 -3.64418 0
M  V30 9106 H 922.878 -5.07847 -3.19704 0
M  V30 9107 H 923.948 -4.44741 -1.93219 0
M  V30 9108 N 925.291 0.760815 -1.38019 0
M  V30 9109 C 926.539 1.51673 -1.33566 0
M  V30 9110 C 926.86 1.94852 0.076024 0
M  V30 9111 O 926.13 1.67112 1.02227 0
M  V30 9112 H 924.71 0.562581 -0.491438 0
M  V30 9113 H 927.372 0.904832 -1.72623 0
M  V30 9114 H 926.468 2.41102 -1.98182 0
M  V30 9115 N 926.769 1.22769 0.988202 0
M  V30 9116 C 928.046 0.9635 1.70223 0
M  V30 9117 C 928.426 -0.520102 2.04593 0
M  V30 9118 O 927.774 -1.48934 1.73295 0
M  V30 9119 C 927.984 1.86583 2.94937 0
M  V30 9120 C 929.332 2.12469 3.67616 0
M  V30 9121 O 930.356 1.84069 3.04954 0
M  V30 9122 O 929.215 2.60595 4.80367 0
M  V30 9123 H 926.309 0.362737 0.743203 0
M  V30 9124 H 928.855 1.33776 1.04412 0
M  V30 9125 H 927.627 2.86913 2.66077 0
M  V30 9126 H 927.25 1.49344 3.68486 0
M  V30 9127 N 928.247 -1.18576 1.03814 0
M  V30 9128 C 929.177 -2.24334 0.647795 0
M  V30 9129 C 930.158 -1.66508 -0.34774 0
M  V30 9130 O 931.343 -1.92852 -0.228401 0
M  V30 9131 C 928.473 -3.47299 0.00734922 0
M  V30 9132 C 927.427 -4.17859 0.926152 0
M  V30 9133 C 926.753 -5.34489 0.150317 0
M  V30 9134 C 928.053 -4.71632 2.24411 0
M  V30 9135 H 929.747 -2.57241 1.53191 0
M  V30 9136 H 927.293 -1.23649 0.738028 0
M  V30 9137 H 929.246 -4.20486 -0.277434 0
M  V30 9138 H 927.97 -3.13619 -0.911626 0
M  V30 9139 H 926.629 -3.46567 1.19528 0
M  V30 9140 H 926.277 -4.97056 -0.770985 0
M  V30 9141 H 925.977 -5.82633 0.762407 0
M  V30 9142 H 927.501 -6.10467 -0.127508 0
M  V30 9143 H 928.915 -5.36526 2.02021 0
M  V30 9144 H 927.312 -5.303 2.80894 0
M  V30 9145 H 928.382 -3.89192 2.89236 0
M  V30 9146 N 929.725 -0.817259 -1.34754 0
M  V30 9147 C 930.655 -0.249769 -2.3216 0
M  V30 9148 C 931.636 0.630663 -1.57977 0
M  V30 9149 O 932.821 0.558719 -1.85989 0
M  V30 9150 C 929.951 0.593825 -3.42186 0
M  V30 9151 C 928.905 -0.188997 -4.27583 0
M  V30 9152 C 928.231 0.776979 -5.29025 0
M  V30 9153 C 929.531 -1.39401 -5.03354 0
M  V30 9154 H 931.225 -1.06359 -2.79872 0
M  V30 9155 H 928.771 -0.512894 -1.34556 0
M  V30 9156 H 930.724 1.00097 -4.09339 0
M  V30 9157 H 929.448 1.44064 -2.93109 0
M  V30 9158 H 928.107 -0.577445 -3.62024 0
M  V30 9159 H 927.755 1.61959 -4.76212 0
M  V30 9160 H 927.455 0.257448 -5.87036 0
M  V30 9161 H 928.979 1.18211 -5.99048 0
M  V30 9162 H 930.393 -1.06117 -5.63393 0
M  V30 9163 H 928.79 -1.84878 -5.70912 0
M  V30 9164 H 929.86 -2.17515 -4.33377 0
M  V30 9165 N 931.203 1.46865 -0.571711 0
M  V30 9166 C 932.166 2.28658 0.157499 0
M  V30 9167 C 933.166 1.37773 0.829172 0
M  V30 9168 O 934.356 1.6026 0.682811 0
M  V30 9169 C 931.488 3.17859 1.23202 0
M  V30 9170 H 932.681 2.94603 -0.561171 0
M  V30 9171 H 930.234 1.52793 -0.329229 0
M  V30 9172 H 930.969 2.56637 1.98262 0
M  V30 9173 H 930.754 3.84762 0.755031 0
M  V30 9174 H 932.244 3.7945 1.74378 0
M  V30 9175 N 932.681 0.308908 1.54543 0
M  V30 9176 C 933.958 -0.351558 1.92415 0
M  V30 9177 C 934.338 -1.71061 1.23699 0
M  V30 9178 O 933.686 -2.25394 0.3755 0
M  V30 9179 C 933.896 -0.458357 3.45977 0
M  V30 9180 C 935.244 -0.725524 4.18355 0
M  V30 9181 O 936.268 -0.541859 3.52054 0
M  V30 9182 O 935.127 -1.07884 5.35745 0
M  V30 9183 H 932.221 -0.197957 0.802958 0
M  V30 9184 H 934.767 0.357548 1.65891 0
M  V30 9185 H 933.539 0.496723 3.88134 0
M  V30 9186 H 933.162 -1.21562 3.78561 0
M  V30 9187 N 934.159 -1.57557 0.0367827 0
M  V30 9188 C 935.408 -1.91291 -0.639569 0
M  V30 9189 C 935.721 -0.915601 -1.72847 0
M  V30 9190 O 936.927 -1.14447 -2.46199 0
M  V30 9191 C 935.383 -3.39697 -1.18888 0
M  V30 9192 C 934.991 -4.47803 -0.132851 0
M  V30 9193 C 936.735 -3.82487 -1.8413 0
M  V30 9194 C 934.642 -5.87311 -0.694229 0
M  V30 9195 H 933.572 -0.713886 -0.242658 0
M  V30 9196 H 936.223 -1.83209 0.103332 0
M  V30 9197 H 934.605 -3.42736 -1.98363 0
M  V30 9198 H 935.779 -4.56334 0.640009 0
M  V30 9199 H 934.094 -4.14264 0.421264 0
M  V30 9200 H 936.691 -4.84076 -2.27101 0
M  V30 9201 H 937.034 -3.17959 -2.68716 0
M  V30 9202 H 937.567 -3.81903 -1.11332 0
M  V30 9203 H 934.306 -6.55401 0.113667 0
M  V30 9204 H 933.826 -5.82371 -1.4354 0
M  V30 9205 H 935.505 -6.36119 -1.1816 0
M  V30 9206 N 935.637 0.236453 -1.55816 0
M  V30 9207 C 937.053 0.585465 -1.48474 0
M  V30 9208 C 937.253 1.8785 -0.72902 0
M  V30 9209 O 936.309 2.51131 -0.262614 0
M  V30 9210 C 937.622 0.678506 -2.92945 0
M  V30 9211 C 939.17 0.770135 -3.03378 0
M  V30 9212 C 939.645 0.894649 -4.49177 0
M  V30 9213 N 941.136 0.959253 -4.53158 0
M  V30 9214 C 941.871 1.07505 -5.63232 0
M  V30 9215 N 941.367 1.15572 -6.83092 0
M  V30 9216 N 943.16 1.10902 -5.51051 0
M  V30 9217 H 935.311 -0.612241 -2.03385 0
M  V30 9218 H 937.574 -0.212796 -0.923808 0
M  V30 9219 H 937.28 -0.201757 -3.51121 0
M  V30 9220 H 937.154 1.54703 -3.44016 0
M  V30 9221 H 939.541 1.64085 -2.45276 0
M  V30 9222 H 939.622 -0.123753 -2.555 0
M  V30 9223 H 939.266 0.0284537 -5.07892 0
M  V30 9224 H 939.196 1.80373 -4.94745 0
M  V30 9225 H 941.687 0.907827 -3.66834 0
M  V30 9226 H 942 1.24343 -7.62731 0
M  V30 9227 H 940.345 1.12511 -6.85833 0
M  V30 9228 H 943.536 1.04255 -4.56343 0
M  V30 9229 H 943.709 1.19581 -6.36871 0
M  V30 9230 N 937.115 1.49373 0.502552 0
M  V30 9231 C 938.078 1.65413 1.58654 0
M  V30 9232 C 939.078 0.526003 1.51953 0
M  V30 9233 O 940.268 0.792421 1.55133 0
M  V30 9234 C 937.4 1.65005 2.98306 0
M  V30 9235 H 938.593 2.62095 1.45762 0
M  V30 9236 H 936.146 1.38381 0.726672 0
M  V30 9237 H 936.881 0.699014 3.16677 0
M  V30 9238 H 936.666 2.46931 3.04578 0
M  V30 9239 H 938.156 1.79477 3.77065 0
M  V30 9240 N 938.594 -0.753485 1.38421 0
M  V30 9241 C 939.843 -1.50797 1.33952 0
M  V30 9242 C 940.156 -1.95482 -0.0678464 0
M  V30 9243 O 941.362 -2.7048 -0.235078 0
M  V30 9244 C 939.818 -2.72393 2.35224 0
M  V30 9245 C 939.426 -2.34733 3.81582 0
M  V30 9246 C 941.17 -3.50281 2.39798 0
M  V30 9247 C 939.077 -3.52939 4.7454 0
M  V30 9248 H 938.007 -0.566211 0.497916 0
M  V30 9249 H 940.658 -0.823659 1.63976 0
M  V30 9250 H 939.04 -3.42806 1.98243 0
M  V30 9251 H 940.214 -1.71985 4.27502 0
M  V30 9252 H 938.529 -1.69978 3.80127 0
M  V30 9253 H 941.126 -4.38172 3.06447 0
M  V30 9254 H 941.469 -3.91444 1.41695 0
M  V30 9255 H 942.002 -2.86881 2.75579 0
M  V30 9256 H 938.741 -3.16843 5.73839 0
M  V30 9257 H 938.261 -4.1473 4.33312 0
M  V30 9258 H 939.94 -4.19519 4.92557 0
M  V30 9259 N 940.072 -1.23292 -0.981677 0
M  V30 9260 C 941.002 -1.03738 -2.09191 0
M  V30 9261 C 941.983 0.0453041 -1.7004 0
M  V30 9262 O 943.168 -0.119092 -1.93834 0
M  V30 9263 C 940.298 -0.626426 -3.41604 0
M  V30 9264 C 939.252 -1.65631 -3.94652 0
M  V30 9265 C 938.578 -1.10084 -5.23245 0
M  V30 9266 C 939.878 -3.04903 -4.24066 0
M  V30 9267 H 941.572 -1.966 -2.25807 0
M  V30 9268 H 939.118 -0.946656 -1.0851 0
M  V30 9269 H 941.071 -0.476689 -4.18695 0
M  V30 9270 H 939.795 0.337873 -3.24848 0
M  V30 9271 H 938.454 -1.79402 -3.19704 0
M  V30 9272 H 938.102 -0.127562 -5.02838 0
M  V30 9273 H 937.802 -1.78896 -5.59705 0
M  V30 9274 H 939.326 -0.962928 -6.02959 0
M  V30 9275 H 940.74 -2.94441 -4.91912 0
M  V30 9276 H 939.137 -3.70941 -4.71724 0
M  V30 9277 H 940.207 -3.53991 -3.31389 0
M  V30 9278 N 941.55 1.18024 -1.04442 0
M  V30 9279 C 942.48 2.23988 -0.659683 0
M  V30 9280 C 943.461 1.6669 0.338904 0
M  V30 9281 O 944.646 1.92971 0.21817 0
M  V30 9282 C 941.776 3.4729 -0.0257672 0
M  V30 9283 C 940.73 4.17362 -0.948299 0
M  V30 9284 C 940.056 5.34401 -0.17866 0
M  V30 9285 C 941.356 4.70435 -2.26909 0
M  V30 9286 H 943.05 2.56425 -1.54553 0
M  V30 9287 H 940.596 1.23256 -0.744575 0
M  V30 9288 H 942.549 4.20627 0.255131 0
M  V30 9289 H 941.273 3.14098 0.894981 0
M  V30 9290 H 939.932 3.45928 -1.21364 0
M  V30 9291 H 939.58 4.97458 0.744614 0
M  V30 9292 H 939.28 5.8222 -0.793294 0
M  V30 9293 H 940.804 6.10526 0.0951315 0
M  V30 9294 H 942.218 5.35447 -2.04864 0
M  V30 9295 H 940.615 5.28803 -2.83703 0
M  V30 9296 H 941.685 3.87653 -2.91296 0
M  V30 9297 O 943.067 0.959562 1.29903 0
M  V30 9298 H 943.758 0.594984 1.84336 0
M  V30 END ATOM
M  V30 BEGIN BOND
M  V30 END BOND
M  V30 END CTAB
M  END
$$$$
