drugbank_target|P10828 Thyroid hormone receptor beta (DB00279; DB00451; DB00509; DB01583; DB02106; DB03176; DB03181; DB03604; DB03788; DB05035; DB05192; DB07425; DB08085; DB09100)
 OpenBabel12092119293D

  0  0  0     0  0            999 V3000
M  V30 BEGIN CTAB
M  V30 COUNTS 7361 7441 0 0 0
M  V30 BEGIN ATOM
M  V30 1 H -0.908 1.98254 -0.117106 0
M  V30 2 N 0 1.576 0 0
M  V30 3 C 0.933 2.03868 1.02534 0
M  V30 4 C 1.911 0.928543 1.3348 0
M  V30 5 O 3.095 1.19667 1.45644 0
M  V30 6 C 0.222 2.43627 2.35294 0
M  V30 7 C -0.732 3.65373 2.2001 0
M  V30 8 S 0.101 5.13292 1.52614 0
M  V30 9 C 1.257 5.56322 2.86805 0
M  V30 10 H 1.49 2.90518 0.631377 0
M  V30 11 H -0.977 1.52953 0.210867 0
M  V30 12 H 0.981 2.67203 3.11629 0
M  V30 13 H -0.358 1.57376 2.7183 0
M  V30 14 H -1.165 3.90944 3.18086 0
M  V30 15 H -1.563 3.418 1.51819 0
M  V30 16 H 0.729 5.58782 3.83104 0
M  V30 17 H 1.672 6.56266 2.65933 0
M  V30 18 H 2.08 4.83886 2.90714 0
M  V30 19 N 1.4781 -0.272755 1.55222 0
M  V30 20 C 2.7061 -1.02255 1.79865 0
M  V30 21 C 3.1211 -1.79924 0.572088 0
M  V30 22 O 2.4781 -1.76638 -0.458842 0
M  V30 23 C 2.5291 -1.98094 3.02392 0
M  V30 24 O 2.2501 -1.23572 4.20311 0
M  V30 25 C 3.7511 -2.84884 3.39641 0
M  V30 26 H 0.9711 -0.302057 0.599168 0
M  V30 27 H 3.5151 -0.303465 2.02236 0
M  V30 28 H 1.6701 -2.65465 2.82147 0
M  V30 29 H 2.0841 -1.88172 4.89583 0
M  V30 30 H 3.5581 -3.47927 4.28545 0
M  V30 31 H 4.0351 -3.54665 2.59055 0
M  V30 32 H 4.6411 -2.23003 3.62146 0
M  V30 33 N 2.9562 -1.48159 -0.537278 0
M  V30 34 C 4.3672 -1.49429 -1.11928 0
M  V30 35 C 4.7182 -0.26 -1.9447 0
M  V30 36 O 3.8432 0.633489 -2.0692 0
M  V30 37 C 4.4382 -2.70758 -2.03656 0
M  V30 38 C 2.9972 -2.74923 -2.57088 0
M  V30 39 C 2.1442 -2.42835 -1.3389 0
M  V30 40 H 5.0952 -1.55381 -0.322886 0
M  V30 41 H 5.1162 -2.48861 -2.87834 0
M  V30 42 H 4.6282 -3.60575 -1.43553 0
M  V30 43 H 2.7292 -1.89296 -3.20933 0
M  V30 44 H 2.8422 -3.76157 -2.9672 0
M  V30 45 H 1.2062 -1.93836 -1.65226 0
M  V30 46 H 1.9892 -3.34884 -0.755504 0
M  V30 47 N 4.4343 0.785586 -1.36625 0
M  V30 48 C 5.3823 1.91978 -1.31329 0
M  V30 49 C 6.3763 1.68162 -0.204416 0
M  V30 50 O 7.5823 1.76122 -0.371645 0
M  V30 51 H 3.9573 0.631087 -0.408942 0
M  V30 52 H 5.9283 1.93562 -2.27104 0
M  V30 53 C 4.6773 3.29055 -1.12329 0
M  V30 54 H 4.0003 3.4795 -1.96903 0
M  V30 55 H 5.4403 4.08756 -1.12671 0
M  V30 56 C 3.8993 3.36461 0.171861 0
M  V30 57 O 4.4293 3.84576 1.16035 0
M  V30 58 N 2.6353 2.89782 0.217846 0
M  V30 59 H 2.1823 2.50819 -0.587183 0
M  V30 60 H 2.1403 2.95119 1.08408 0
M  V30 61 N 5.9124 1.20967 1.01018 0
M  V30 62 C 7.1374 1.0503 1.78839 0
M  V30 63 C 7.5624 -0.395752 1.8389 0
M  V30 64 O 6.9204 -1.28529 1.27867 0
M  V30 65 C 6.9684 1.64602 3.2084 0
M  V30 66 O 6.0724 0.887988 4.02726 0
M  V30 67 H 5.4134 0.369987 0.551367 0
M  V30 68 H 7.9434 1.60399 1.27018 0
M  V30 69 H 7.9534 1.68607 3.71532 0
M  V30 70 H 6.6284 2.69841 3.16479 0
M  V30 71 H 5.2054 0.922648 3.61305 0
M  V30 72 N 7.3905 -1.2043 1.01659 0
M  V30 73 C 8.3235 -2.21924 0.531521 0
M  V30 74 C 9.3015 -1.57054 -0.421032 0
M  V30 75 O 10.4855 -1.85389 -0.341035 0
M  V30 76 C 7.6125 -3.37942 -0.226496 0
M  V30 77 C 6.6585 -4.21115 0.67561 0
M  V30 78 S 7.4915 -4.90674 2.14475 0
M  V30 79 C 8.6475 -6.10113 1.3969 0
M  V30 80 H 8.8805 -2.62725 1.3915 0
M  V30 81 H 6.4135 -1.30481 0.825479 0
M  V30 82 H 8.3715 -4.05196 -0.657738 0
M  V30 83 H 7.0325 -2.956 -1.06205 0
M  V30 84 H 6.2255 -5.03918 0.091108 0
M  V30 85 H 5.8275 -3.59115 1.04463 0
M  V30 86 H 8.1195 -6.7411 0.676897 0
M  V30 87 H 9.0625 -6.73022 2.20107 0
M  V30 88 H 9.4705 -5.57283 0.899786 0
M  V30 89 N 8.8686 -0.792821 -1.36206 0
M  V30 90 C 10.0966 -0.378825 -2.03402 0
M  V30 91 C 10.5116 1.00586 -1.59774 0
M  V30 92 O 9.8686 1.64574 -0.788764 0
M  V30 93 C 9.9196 -0.43683 -3.58851 0
M  V30 94 O 9.6406 -1.76691 -4.00889 0
M  V30 95 C 11.1416 -0.0138943 -4.43298 0
M  V30 96 H 8.3616 -0.155673 -0.652692 0
M  V30 97 H 10.9056 -1.07261 -1.74113 0
M  V30 98 H 9.0606 0.208575 -3.86838 0
M  V30 99 H 9.4746 -1.72011 -4.95492 0
M  V30 100 H 10.9486 -0.105615 -5.51899 0
M  V30 101 H 11.4256 1.03915 -4.2673 0
M  V30 102 H 12.0316 -0.63192 -4.20579 0
M  V30 103 N 10.3467 1.47872 -0.545128 0
M  V30 104 C 11.2567 2.33633 0.212746 0
M  V30 105 C 12.2727 1.4744 0.923983 0
M  V30 106 O 13.4487 1.80393 0.895572 0
M  V30 107 C 10.5137 3.23884 1.23693 0
M  V30 108 C 9.5747 4.25961 0.534417 0
M  V30 109 C 8.8077 5.11899 1.5098 0
M  V30 110 O 9.0307 5.00077 2.7437 0
M  V30 111 O 7.9647 5.92831 1.0409 0
M  V30 112 H 11.7907 2.99714 -0.490416 0
M  V30 113 H 9.3757 1.46235 -0.305871 0
M  V30 114 H 11.2577 3.79666 1.82843 0
M  V30 115 H 9.9327 2.60446 1.92222 0
M  V30 116 H 8.8397 3.73972 -0.0979679 0
M  V30 117 H 10.1727 4.92079 -0.109213 0
M  V30 118 N 11.8248 0.280983 1.55075 0
M  V30 119 C 12.7728 -0.619864 2.24188 0
M  V30 120 C 13.7668 -1.15315 1.24092 0
M  V30 121 O 14.9728 -1.1061 1.42005 0
M  V30 122 H 11.3478 -0.218459 0.719569 0
M  V30 123 H 13.3188 -0.0141831 2.98397 0
M  V30 124 C 12.0678 -1.7899 2.98091 0
M  V30 125 H 11.3908 -1.38874 3.74905 0
M  V30 126 H 12.8308 -2.39672 3.49762 0
M  V30 127 C 11.2898 -2.68192 2.03899 0
M  V30 128 O 11.8198 -3.6872 1.594 0
M  V30 129 N 10.0258 -2.35488 1.70275 0
M  V30 130 H 9.5728 -1.53787 2.06658 0
M  V30 131 H 9.5308 -2.95442 1.07524 0
M  V30 132 N 13.3029 -1.57598 0.00835791 0
M  V30 133 C 14.5509 -1.90551 -0.6734 0
M  V30 134 C 14.8719 -0.883301 -1.73847 0
M  V30 135 O 14.1419 0.0781442 -1.95744 0
M  V30 136 H 12.7219 -0.703312 -0.251717 0
M  V30 137 H 15.3839 -1.94833 0.0512592 0
M  V30 138 H 14.4799 -2.9056 -1.13935 0
M  V30 139 N 14.781 0.264519 -1.55364 0
M  V30 140 C 15.711 1.33121 -1.91836 0
M  V30 141 C 16.692 1.51101 -0.781192 0
M  V30 142 O 17.877 1.64003 -1.04003 0
M  V30 143 C 15.007 2.68921 -2.19769 0
M  V30 144 C 13.961 2.65661 -3.35571 0
M  V30 145 C 13.287 4.05093 -3.49004 0
M  V30 146 C 14.587 2.24187 -4.71739 0
M  V30 147 H 16.281 1.02844 -2.81182 0
M  V30 148 H 13.827 0.493286 -1.35287 0
M  V30 149 H 15.78 3.43663 -2.43872 0
M  V30 150 H 14.504 3.00799 -1.27231 0
M  V30 151 H 13.163 1.93377 -3.1145 0
M  V30 152 H 12.811 4.34206 -2.53917 0
M  V30 153 H 12.511 4.03804 -4.26868 0
M  V30 154 H 14.035 4.81561 -3.75408 0
M  V30 155 H 15.449 2.88654 -4.9533 0
M  V30 156 H 13.846 2.34044 -5.52579 0
M  V30 157 H 14.916 1.19327 -4.69988 0
M  V30 158 N 16.2591 1.48442 0.529413 0
M  V30 159 C 17.4871 1.60151 1.30994 0
M  V30 160 C 17.9021 0.261985 1.86973 0
M  V30 161 O 17.2591 -0.748805 1.66431 0
M  V30 162 C 17.3101 2.64854 2.46038 0
M  V30 163 O 17.0311 3.93608 1.92365 0
M  V30 164 C 18.5321 2.87007 3.37849 0
M  V30 165 H 15.7521 0.539971 0.398338 0
M  V30 166 H 18.2961 1.94273 0.638597 0
M  V30 167 H 16.4511 2.33589 3.09055 0
M  V30 168 H 16.8651 4.51055 2.67675 0
M  V30 169 H 18.3391 3.64068 4.14919 0
M  V30 170 H 18.8161 1.95852 3.93114 0
M  V30 171 H 19.4221 3.19579 2.80623 0
M  V30 172 N 17.7372 -0.778329 1.37039 0
M  V30 173 C 18.7002 -1.87301 1.32102 0
M  V30 174 C 19.7002 -1.59198 0.226405 0
M  V30 175 O 20.8902 -1.67403 0.481861 0
M  V30 176 C 18.0222 -3.24309 1.05055 0
M  V30 177 H 19.2152 -1.93093 2.29467 0
M  V30 178 H 16.7682 -0.977358 1.21973 0
M  V30 179 H 17.5032 -3.24196 0.0819373 0
M  V30 180 H 17.2882 -3.46098 1.84279 0
M  V30 181 H 18.7782 -4.04382 1.04234 0
M  V30 182 N 19.2153 -1.21501 -1.00376 0
M  V30 183 C 20.4613 -1.04457 -1.74529 0
M  V30 184 C 20.8163 0.417386 -1.87818 0
M  V30 185 O 20.1093 1.30556 -1.40234 0
M  V30 186 C 20.3033 -1.67673 -3.15627 0
M  V30 187 C 20.1323 -3.19865 -3.16096 0
M  V30 188 C 18.9023 -3.88915 -3.22604 0
M  V30 189 C 21.1003 -4.16936 -3.01112 0
M  V30 190 N 19.0823 -5.28284 -3.12712 0
M  V30 191 C 20.4533 -5.43066 -2.99131 0
M  V30 192 C 22.5083 -4.07968 -2.85423 0
M  V30 193 C 21.2113 -6.6126 -2.83068 0
M  V30 194 C 23.2373 -5.258 -2.70718 0
M  V30 195 C 22.5993 -6.50842 -2.69414 0
M  V30 196 H 18.6983 -0.436584 -0.648782 0
M  V30 197 H 21.2823 -1.53875 -1.19293 0
M  V30 198 H 19.4533 -1.20822 -3.6913 0
M  V30 199 H 21.1853 -1.43824 -3.78281 0
M  V30 200 H 17.9403 -3.39847 -3.2985 0
M  V30 201 H 18.3643 -6.01284 -3.11105 0
M  V30 202 H 23.0063 -3.1209 -2.85236 0
M  V30 203 H 20.7243 -7.57298 -2.82002 0
M  V30 204 H 24.3103 -5.20683 -2.59577 0
M  V30 205 H 23.1903 -7.40485 -2.5817 0
M  V30 206 N 20.6934 1.19889 -1.02296 0
M  V30 207 C 21.9704 1.85148 -0.630832 0
M  V30 208 C 22.3504 1.91385 0.890782 0
M  V30 209 O 21.6984 1.42642 1.78509 0
M  V30 210 C 21.9084 3.24442 -1.28602 0
M  V30 211 C 23.2564 4.00663 -1.4055 0
M  V30 212 O 24.2804 3.33818 -1.24273 0
M  V30 213 O 23.1394 5.20387 -1.66913 0
M  V30 214 H 20.2334 0.797613 -0.218499 0
M  V30 215 H 22.7794 1.27427 -1.12074 0
M  V30 216 H 21.5514 3.14704 -2.32545 0
M  V30 217 H 21.1744 3.89802 -0.7836 0
M  V30 218 N 22.1715 0.800033 1.35784 0
M  V30 219 C 23.1185 0.203848 2.29898 0
M  V30 220 C 24.0885 -0.658375 1.52495 0
M  V30 221 O 25.2735 -0.604832 1.8096 0
M  V30 222 C 22.4135 -0.64688 3.38983 0
M  V30 223 C 21.5265 0.235054 4.3136 0
M  V30 224 C 20.6615 -0.623054 5.27533 0
M  V30 225 C 19.7005 0.259682 6.11549 0
M  V30 226 N 18.8375 -0.558019 6.99879 0
M  V30 227 H 23.6775 1.01186 2.80295 0
M  V30 228 H 21.2145 0.51053 1.37957 0
M  V30 229 H 23.1725 -1.15521 4.00887 0
M  V30 230 H 21.8025 -1.42021 2.89879 0
M  V30 231 H 20.8545 0.861438 3.70518 0
M  V30 232 H 22.1665 0.914768 4.9034 0
M  V30 233 H 21.3205 -1.19678 5.94779 0
M  V30 234 H 20.0595 -1.33636 4.69034 0
M  V30 235 H 19.0645 0.845726 5.43256 0
M  V30 236 H 20.2895 0.970748 6.72126 0
M  V30 237 H 18.2355 -1.25542 6.43875 0
M  V30 238 H 18.1525 0.0637872 7.55973 0
M  V30 239 H 19.4205 -1.11523 7.71481 0
M  V30 240 N 23.6496 -1.47581 0.552962 0
M  V30 241 C 25.0606 -1.86324 0.118463 0
M  V30 242 C 25.4116 -1.46006 -1.3106 0
M  V30 243 O 24.5366 -0.861182 -1.98526 0
M  V30 244 C 25.1316 -3.3816 0.20821 0
M  V30 245 C 23.6906 -3.7601 -0.171226 0
M  V30 246 C 22.8376 -2.71634 0.557686 0
M  V30 247 H 25.7886 -1.39159 0.762928 0
M  V30 248 H 25.8096 -3.76141 -0.574278 0
M  V30 249 H 25.3216 -3.67473 1.24841 0
M  V30 250 H 23.4226 -3.52313 -1.21269 0
M  V30 251 H 23.5356 -4.78745 0.184379 0
M  V30 252 H 21.8996 -2.547 0.00125792 0
M  V30 253 H 22.6826 -3.0379 1.59896 0
M  V30 254 N 25.1277 -0.289203 -1.54924 0
M  V30 255 C 26.0747 0.592115 -2.23075 0
M  V30 256 C 27.0447 1.13881 -1.20915 0
M  V30 257 O 28.2297 1.18551 -1.495 0
M  V30 258 C 25.3697 1.76376 -2.96623 0
M  V30 259 C 24.4827 1.24959 -4.13533 0
M  V30 260 C 23.6177 2.38416 -4.74691 0
M  V30 261 C 22.6567 1.84072 -5.83767 0
M  V30 262 N 21.7937 2.91057 -6.38929 0
M  V30 263 H 26.6337 0.00432038 -2.98 0
M  V30 264 H 24.1707 -0.00963529 -1.47097 0
M  V30 265 H 26.1287 2.45268 -3.3749 0
M  V30 266 H 24.7587 2.32337 -2.24097 0
M  V30 267 H 23.8107 0.453307 -3.77689 0
M  V30 268 H 25.1227 0.811662 -4.92152 0
M  V30 269 H 24.2767 3.15276 -5.18349 0
M  V30 270 H 23.0157 2.8553 -3.95378 0
M  V30 271 H 22.0207 1.05697 -5.39545 0
M  V30 272 H 23.2457 1.37877 -6.64956 0
M  V30 273 H 21.1917 3.37526 -5.62505 0
M  V30 274 H 21.1087 2.51724 -7.12861 0
M  V30 275 H 22.3767 3.6785 -6.87246 0
M  V30 276 N 26.6058 1.57591 -0.0167156 0
M  V30 277 C 27.5558 2.05953 0.978137 0
M  V30 278 C 28.5398 0.957532 1.29306 0
M  V30 279 O 29.7318 1.22119 1.28125 0
M  V30 280 C 26.8608 2.58006 2.26468 0
M  V30 281 C 25.9468 3.75113 1.97867 0
M  V30 282 N 26.3378 4.86187 1.39486 0
M  V30 283 C 24.6358 3.83363 2.27924 0
M  V30 284 C 25.3368 5.67502 1.27735 0
M  V30 285 N 24.3128 5.14023 1.76866 0
M  V30 286 H 28.1148 2.89236 0.521522 0
M  V30 287 H 25.6288 1.61301 0.188596 0
M  V30 288 H 27.6258 2.90937 2.98599 0
M  V30 289 H 26.2858 1.76148 2.72767 0
M  V30 290 H 27.2968 5.06695 1.07147 0
M  V30 291 H 23.9738 3.1239 2.76982 0
M  V30 292 H 25.3638 6.66791 0.826978 0
M  V30 293 N 28.0839 -0.256276 1.55502 0
M  V30 294 C 29.3239 -0.993081 1.78654 0
M  V30 295 C 29.6879 -1.8288 0.584724 0
M  V30 296 O 30.8889 -2.59665 0.694822 0
M  V30 297 C 29.1599 -1.83856 3.06483 0
M  V30 298 S 30.7189 -2.63573 3.5082 0
M  V30 299 H 27.5369 -0.334199 0.62756 0
M  V30 300 H 30.1389 -0.26184 1.93739 0
M  V30 301 H 28.8429 -1.21414 3.92029 0
M  V30 302 H 28.3739 -2.61271 2.94111 0
M  V30 303 H 30.3889 -3.86312 3.11412 0
M  V30 304 N 29.562 -1.4872 -0.521534 0
M  V30 305 C 30.973 -1.50607 -1.10337 0
M  V30 306 C 31.324 -0.280612 -1.94183 0
M  V30 307 O 30.449 0.611507 -2.0758 0
M  V30 308 C 31.044 -2.72903 -2.00772 0
M  V30 309 C 29.603 -2.77634 -2.54158 0
M  V30 310 C 28.75 -2.44241 -1.31307 0
M  V30 311 H 31.701 -1.55714 -0.306388 0
M  V30 312 H 31.722 -2.519 -2.85178 0
M  V30 313 H 31.234 -3.62077 -1.39721 0
M  V30 314 H 29.335 -1.92689 -3.18907 0
M  V30 315 H 29.448 -3.79283 -2.92714 0
M  V30 316 H 27.812 -1.95577 -1.63161 0
M  V30 317 H 28.595 -3.35666 -0.719943 0
M  V30 318 N 31.0401 0.771051 -1.3745 0
M  V30 319 C 32.3171 1.519 -1.23231 0
M  V30 320 C 32.6971 2.10383 0.173809 0
M  V30 321 O 32.0451 1.95583 1.18151 0
M  V30 322 C 32.2551 2.59933 -2.32886 0
M  V30 323 C 33.6031 3.27316 -2.70461 0
M  V30 324 O 34.6271 2.70228 -2.32068 0
M  V30 325 O 33.4861 4.30531 -3.36608 0
M  V30 326 H 30.5801 0.672803 -0.480901 0
M  V30 327 H 33.1261 0.807957 -1.49232 0
M  V30 328 H 31.8981 2.14842 -3.27045 0
M  V30 329 H 31.5211 3.38637 -2.08353 0
M  V30 330 N 32.5182 1.22032 0.997298 0
M  V30 331 C 33.9342 0.979326 1.26021 0
M  V30 332 C 34.1342 -0.32972 1.98784 0
M  V30 333 O 33.1902 -1.05345 2.29475 0
M  V30 334 C 34.5032 2.17509 2.07631 0
M  V30 335 C 36.0512 2.21817 2.2083 0
M  V30 336 C 36.5262 3.40933 3.05825 0
M  V30 337 N 38.0172 3.41067 3.13412 0
M  V30 338 C 38.7522 4.29885 3.79455 0
M  V30 339 N 38.2482 5.28914 4.47462 0
M  V30 340 N 40.0412 4.17673 3.76173 0
M  V30 341 H 32.1922 2.06202 0.509352 0
M  V30 342 H 34.4552 0.90334 0.287541 0
M  V30 343 H 34.1612 3.12415 1.61524 0
M  V30 344 H 34.0352 2.17206 3.08385 0
M  V30 345 H 36.4222 1.27462 2.66153 0
M  V30 346 H 36.5032 2.2616 1.1952 0
M  V30 347 H 36.1472 4.35586 2.61203 0
M  V30 348 H 36.0772 3.33829 4.07266 0
M  V30 349 H 38.5682 2.69406 2.65007 0
M  V30 350 H 38.8812 5.92973 4.95583 0
M  V30 351 H 37.2262 5.32831 4.46224 0
M  V30 352 H 40.4172 3.39564 3.22202 0
M  V30 353 H 40.5902 4.87098 4.27363 0
M  V30 354 N 33.9963 -1.19345 1.0293 0
M  V30 355 C 34.9063 -2.26245 0.620515 0
M  V30 356 C 35.9223 -1.70486 -0.347928 0
M  V30 357 O 37.0983 -2.00347 -0.205704 0
M  V30 358 C 34.1633 -3.46693 -0.0218957 0
M  V30 359 C 33.2243 -4.17632 0.994102 0
M  V30 360 C 32.4573 -5.32329 0.382253 0
M  V30 361 O 32.6803 -5.64552 -0.814676 0
M  V30 362 O 31.6143 -5.91664 1.10531 0
M  V30 363 H 35.4403 -2.63453 1.51083 0
M  V30 364 H 33.0253 -1.26207 0.799513 0
M  V30 365 H 34.9073 -4.19683 -0.380072 0
M  V30 366 H 33.5823 -3.11333 -0.886209 0
M  V30 367 H 32.4893 -3.4676 1.40387 0
M  V30 368 H 33.8223 -4.56964 1.8288 0
M  V30 369 N 35.4744 -0.807222 -1.35358 0
M  V30 370 C 36.4244 -0.190706 -2.27201 0
M  V30 371 C 37.4084 0.635838 -1.47804 0
M  V30 372 O 38.6004 0.492991 -1.69996 0
M  V30 373 C 35.7294 0.659337 -3.36909 0
M  V30 374 C 34.8154 -0.176971 -4.23731 0
M  V30 375 N 35.2064 -1.24029 -4.90357 0
M  V30 376 C 33.5044 0.0412953 -4.45981 0
M  V30 377 C 34.2054 -1.75092 -5.54723 0
M  V30 378 N 33.1814 -1.05727 -5.33219 0
M  V30 379 H 36.9834 -1.0043 -2.76208 0
M  V30 380 H 34.4974 -0.648445 -1.48892 0
M  V30 381 H 36.4944 1.11706 -4.01656 0
M  V30 382 H 35.1544 1.47127 -2.89454 0
M  V30 383 H 36.1654 -1.62295 -4.91814 0
M  V30 384 H 32.8424 0.82232 -4.09322 0
M  V30 385 H 34.2324 -2.63963 -6.17878 0
M  V30 386 N 36.9525 1.47285 -0.560781 0
M  V30 387 C 38.2295 1.9558 0.0277798 0
M  V30 388 C 38.6095 1.5034 1.48192 0
M  V30 389 O 37.9575 0.743882 2.16052 0
M  V30 390 C 38.1675 3.48789 -0.121418 0
M  V30 391 C 39.5155 4.24594 0.0220912 0
M  V30 392 O 40.5395 3.56166 -0.0491439 0
M  V30 393 O 39.3985 5.46217 0.175958 0
M  V30 394 H 36.4925 0.824663 0.0621342 0
M  V30 395 H 39.0385 1.5767 -0.627556 0
M  V30 396 H 37.8105 3.74533 -1.13316 0
M  V30 397 H 37.4335 3.93473 0.571366 0
M  V30 398 N 38.4306 0.297415 1.54768 0
M  V30 399 C 39.6766 -0.306263 2.01081 0
M  V30 400 C 40.0316 -1.518 1.18214 0
M  V30 401 O 39.3246 -1.89967 0.249613 0
M  V30 402 C 39.5186 -0.717561 3.50123 0
M  V30 403 C 39.3476 0.45277 4.47415 0
M  V30 404 C 38.1176 0.943651 4.9641 0
M  V30 405 C 40.3156 1.29657 4.97688 0
M  V30 406 N 38.2976 2.08112 5.77549 0
M  V30 407 C 39.6686 2.28158 5.76493 0
M  V30 408 C 41.7236 1.32735 4.79881 0
M  V30 409 C 40.4266 3.29509 6.39387 0
M  V30 410 C 42.4526 2.32943 5.43591 0
M  V30 411 C 41.8146 3.30174 6.22225 0
M  V30 412 H 37.9136 -0.0766274 0.778237 0
M  V30 413 H 40.4976 0.426515 1.89971 0
M  V30 414 H 38.6686 -1.41952 3.6153 0
M  V30 415 H 40.4006 -1.30047 3.83236 0
M  V30 416 H 37.1556 0.51922 4.70745 0
M  V30 417 H 37.5796 2.65414 6.22803 0
M  V30 418 H 42.2216 0.589375 4.18672 0
M  V30 419 H 39.9396 4.04228 6.99732 0
M  V30 420 H 43.5256 2.36094 5.31743 0
M  V30 421 H 42.4056 4.06445 6.7065 0
M  V30 422 N 39.9087 -1.5758 0.0250728 0
M  V30 423 C 40.8557 -2.09973 -0.958129 0
M  V30 424 C 41.8257 -1.00085 -1.3256 0
M  V30 425 O 43.0107 -1.27481 -1.41962 0
M  V30 426 C 40.1507 -2.62812 -2.2366 0
M  V30 427 C 39.2637 -3.86693 -1.92594 0
M  V30 428 C 38.3987 -4.27941 -3.14707 0
M  V30 429 C 37.4377 -5.44591 -2.79442 0
M  V30 430 N 36.5747 -5.81014 -3.94167 0
M  V30 431 H 41.4147 -2.937 -0.504428 0
M  V30 432 H 38.9517 -1.45172 -0.237392 0
M  V30 433 H 40.9097 -2.91536 -2.98434 0
M  V30 434 H 39.5397 -1.81922 -2.66654 0
M  V30 435 H 38.5917 -3.64723 -1.0808 0
M  V30 436 H 39.9037 -4.71547 -1.62619 0
M  V30 437 H 39.0577 -4.58079 -3.97804 0
M  V30 438 H 37.7967 -3.41845 -3.4784 0
M  V30 439 H 36.8017 -5.1415 -1.94755 0
M  V30 440 H 38.0267 -6.32382 -2.47528 0
M  V30 441 H 35.9727 -4.97874 -4.2715 0
M  V30 442 H 35.8897 -6.60498 -3.67801 0
M  V30 443 H 37.1577 -6.15756 -4.7798 0
M  V30 444 N 41.3868 0.248026 -1.55636 0
M  V30 445 C 42.3168 1.31079 -1.93237 0
M  V30 446 C 43.2978 1.50264 -0.797174 0
M  V30 447 O 44.4828 1.62891 -1.05737 0
M  V30 448 C 41.6128 2.66575 -2.22609 0
M  V30 449 C 40.5668 2.62087 -3.3837 0
M  V30 450 C 39.8928 4.01369 -3.53281 0
M  V30 451 C 41.1928 2.19171 -4.7409 0
M  V30 452 H 42.8868 0.998556 -2.82257 0
M  V30 453 H 40.4328 0.47891 -1.35803 0
M  V30 454 H 42.3858 3.41057 -2.47503 0
M  V30 455 H 41.1098 2.99432 -1.30414 0
M  V30 456 H 39.7688 1.90063 -3.13483 0
M  V30 457 H 39.4168 4.31489 -2.58508 0
M  V30 458 H 39.1168 3.99254 -4.31127 0
M  V30 459 H 40.6408 4.77552 -3.80495 0
M  V30 460 H 42.0548 2.83384 -4.98363 0
M  V30 461 H 40.4518 2.2817 -5.5503 0
M  V30 462 H 41.5218 1.14336 -4.71227 0
M  V30 463 N 42.8649 1.48995 0.513639 0
M  V30 464 C 44.1109 1.58076 1.27042 0
M  V30 465 C 44.4439 0.261026 1.92438 0
M  V30 466 O 43.7189 -0.734393 1.80103 0
M  V30 467 C 44.0019 2.73091 2.34719 0
M  V30 468 C 43.8549 4.14821 1.73907 0
M  V30 469 C 45.1739 2.83796 3.36375 0
M  V30 470 H 42.2929 0.575391 0.460536 0
M  V30 471 H 44.9349 1.81232 0.570516 0
M  V30 472 H 43.0849 2.53479 2.94416 0
M  V30 473 H 44.7569 4.45917 1.18135 0
M  V30 474 H 42.9999 4.21058 1.0437 0
M  V30 475 H 43.6709 4.91147 2.51949 0
M  V30 476 H 46.1469 3.01611 2.86653 0
M  V30 477 H 45.0229 3.65971 4.09093 0
M  V30 478 H 45.2839 1.92624 3.9793 0
M  V30 479 N 44.343 -0.763751 1.37857 0
M  V30 480 C 45.591 -1.51957 1.33243 0
M  V30 481 C 45.912 -1.94835 -0.0801709 0
M  V30 482 O 45.182 -1.66894 -1.02582 0
M  V30 483 H 43.762 -0.563626 0.49024 0
M  V30 484 H 46.424 -0.908504 1.7243 0
M  V30 485 H 45.52 -2.41523 1.97669 0
M  V30 486 N 45.8211 -1.22559 -0.990812 0
M  V30 487 C 46.7541 -0.940773 -2.07905 0
M  V30 488 C 47.7321 0.117082 -1.62178 0
M  V30 489 O 48.9161 -0.0149506 -1.88494 0
M  V30 490 C 46.0431 -0.415321 -3.36144 0
M  V30 491 C 45.0891 -1.45818 -4.00799 0
M  V30 492 S 45.9221 -3.03219 -4.41382 0
M  V30 493 C 47.0781 -2.52317 -5.72789 0
M  V30 494 H 47.3111 -1.8623 -2.31745 0
M  V30 495 H 44.8441 -1.05688 -1.12558 0
M  V30 496 H 46.8021 -0.118747 -4.10328 0
M  V30 497 H 45.4631 0.485121 -3.10331 0
M  V30 498 H 44.6561 -1.04044 -4.93144 0
M  V30 499 H 44.2581 -1.70356 -3.32949 0
M  V30 500 H 46.5501 -1.93688 -6.49224 0
M  V30 501 H 47.4931 -3.43161 -6.19392 0
M  V30 502 H 47.9011 -1.93529 -5.30289 0
M  V30 503 N 47.2992 1.18797 -1.03562 0
M  V30 504 C 48.5242 1.9314 -0.755764 0
M  V30 505 C 48.9492 1.7537 0.68022 0
M  V30 506 O 48.3072 1.06046 1.47051 0
M  V30 507 C 48.3552 3.42747 -1.12058 0
M  V30 508 O 47.4592 4.11683 -0.243124 0
M  V30 509 H 46.8002 0.602724 -0.278604 0
M  V30 510 H 49.3302 1.50678 -1.3841 0
M  V30 511 H 49.3402 3.93437 -1.08035 0
M  V30 512 H 48.0152 3.55002 -2.16672 0
M  V30 513 H 46.5922 3.71323 -0.342539 0
M  V30 514 N 48.7773 0.814389 1.34928 0
M  V30 515 C 49.6873 0.231978 2.3345 0
M  V30 516 C 50.7033 -0.629139 1.62228 0
M  V30 517 O 51.8793 -0.539052 1.94052 0
M  V30 518 C 48.9443 -0.603482 3.41407 0
M  V30 519 C 48.0053 0.279037 4.28392 0
M  V30 520 C 47.2383 -0.516643 5.31193 0
M  V30 521 O 47.4613 -1.75068 5.4287 0
M  V30 522 O 46.3953 0.0965652 6.01823 0
M  V30 523 H 50.2213 1.04721 2.85074 0
M  V30 524 H 47.8063 0.576343 1.37836 0
M  V30 525 H 49.6883 -1.07908 4.0735 0
M  V30 526 H 48.3633 -1.39618 2.92042 0
M  V30 527 H 47.2703 0.801948 3.65403 0
M  V30 528 H 48.6033 1.03588 4.81176 0
M  V30 529 N 50.2554 -1.46986 0.568584 0
M  V30 530 C 51.2184 -2.28624 -0.162366 0
M  V30 531 C 52.2184 -1.37596 -0.832103 0
M  V30 532 O 53.4084 -1.60115 -0.68622 0
M  V30 533 C 50.5404 -3.17596 -1.23878 0
M  V30 534 H 51.7334 -2.94722 0.554899 0
M  V30 535 H 49.2864 -1.52863 0.325976 0
M  V30 536 H 50.0214 -2.56214 -1.98808 0
M  V30 537 H 49.8064 -3.846 -0.763219 0
M  V30 538 H 51.2964 -3.79078 -1.75185 0
M  V30 539 N 51.7335 -0.305618 -1.54608 0
M  V30 540 C 52.9735 0.303114 -2.0214 0
M  V30 541 C 53.3375 1.50737 -1.18921 0
M  V30 542 O 54.5385 2.18778 -1.56172 0
M  V30 543 C 52.8095 0.646332 -3.51507 0
M  V30 544 S 54.3685 1.23727 -4.20995 0
M  V30 545 H 51.1865 0.0927643 -0.704923 0
M  V30 546 H 53.7885 -0.434566 -1.90609 0
M  V30 547 H 52.4925 -0.238541 -4.09706 0
M  V30 548 H 52.0235 1.41468 -3.67084 0
M  V30 549 H 54.0385 2.52489 -4.27158 0
M  V30 550 N 53.2116 1.57565 -0.0334293 0
M  V30 551 C 54.1416 2.13511 0.945265 0
M  V30 552 C 55.1226 1.05231 1.33643 0
M  V30 553 O 56.3076 1.33084 1.41429 0
M  V30 554 C 53.4376 2.6657 2.22616 0
M  V30 555 C 52.3916 3.79676 1.97561 0
M  V30 556 C 51.7176 4.1918 3.31952 0
M  V30 557 C 53.0176 5.0557 1.31135 0
M  V30 558 H 54.7116 2.95538 0.479325 0
M  V30 559 H 52.2576 1.42166 0.229115 0
M  V30 560 H 54.2106 3.04344 2.91466 0
M  V30 561 H 52.9346 1.8171 2.71384 0
M  V30 562 H 51.5936 3.42347 1.31127 0
M  V30 563 H 51.2416 3.31296 3.78487 0
M  V30 564 H 50.9416 4.95402 3.15992 0
M  V30 565 H 52.4656 4.59541 4.02063 0
M  V30 566 H 53.8796 5.40903 1.89992 0
M  V30 567 H 52.2766 5.86818 1.25559 0
M  V30 568 H 53.3466 4.84062 0.284894 0
M  V30 569 N 54.6897 -0.239769 1.55765 0
M  V30 570 C 55.6397 -1.30002 1.87306 0
M  V30 571 C 56.6237 -1.43156 0.73452 0
M  V30 572 O 57.8157 -1.46277 0.99659 0
M  V30 573 C 54.9447 -2.65409 2.17745 0
M  V30 574 C 54.0307 -2.56231 3.37945 0
M  V30 575 N 54.4217 -2.16689 4.57033 0
M  V30 576 C 52.7197 -2.87229 3.41197 0
M  V30 577 C 53.4207 -2.18318 5.39177 0
M  V30 578 N 52.3967 -2.58098 4.78421 0
M  V30 579 H 56.1987 -0.984912 2.76906 0
M  V30 580 H 53.7127 -0.448381 1.56087 0
M  V30 581 H 55.7097 -3.41934 2.38509 0
M  V30 582 H 54.3697 -2.97781 1.29448 0
M  V30 583 H 55.3807 -1.88116 4.82528 0
M  V30 584 H 52.0577 -3.24094 2.63191 0
M  V30 585 H 53.4477 -1.90025 6.44469 0
M  V30 586 N 56.1678 -1.49265 -0.50573 0
M  V30 587 C 57.5838 -1.35923 -0.836486 0
M  V30 588 C 57.7838 -0.388704 -1.97715 0
M  V30 589 O 56.8398 0.181336 -2.51848 0
M  V30 590 C 58.1528 -2.76531 -1.18115 0
M  V30 591 C 59.7008 -2.85197 -1.28964 0
M  V30 592 C 60.1758 -4.26561 -1.66761 0
M  V30 593 N 61.6668 -4.2935 -1.73819 0
M  V30 594 C 62.4018 -5.35693 -2.045 0
M  V30 595 N 61.8978 -6.52287 -2.33438 0
M  V30 596 N 63.6908 -5.23105 -2.05711 0
M  V30 597 H 55.8418 -2.10965 0.246519 0
M  V30 598 H 58.1048 -0.9468 0.0476887 0
M  V30 599 H 57.8108 -3.49226 -0.416398 0
M  V30 600 H 57.6848 -3.11599 -2.1257 0
M  V30 601 H 60.0718 -2.12742 -2.04511 0
M  V30 602 H 60.1528 -2.53718 -0.325704 0
M  V30 603 H 59.7968 -4.99541 -0.917656 0
M  V30 604 H 59.7268 -4.55502 -2.64246 0
M  V30 605 H 62.2178 -3.4526 -1.53635 0
M  V30 606 H 62.5308 -7.29158 -2.56024 0
M  V30 607 H 60.8758 -6.55521 -2.30905 0
M  V30 608 H 64.0668 -4.31026 -1.82577 0
M  V30 609 H 64.2398 -6.06078 -2.29289 0
M  V30 610 N 57.6459 0.756429 -1.3826 0
M  V30 611 C 58.5929 1.87011 -1.35261 0
M  V30 612 C 59.5629 1.64695 -0.215616 0
M  V30 613 O 60.7479 1.864 -0.407399 0
M  V30 614 C 57.8879 3.24275 -1.18068 0
M  V30 615 C 57.0009 3.58442 -2.41129 0
M  V30 616 C 56.1359 4.84994 -2.16689 0
M  V30 617 C 55.1749 5.11939 -3.35537 0
M  V30 618 N 54.3119 6.29685 -3.10549 0
M  V30 619 H 59.1519 1.8891 -2.30472 0
M  V30 620 H 56.6889 0.923373 -1.14509 0
M  V30 621 H 58.6469 4.03479 -1.06116 0
M  V30 622 H 57.2769 3.21711 -0.264973 0
M  V30 623 H 56.3289 2.74103 -2.63764 0
M  V30 624 H 57.6409 3.74283 -3.29717 0
M  V30 625 H 56.7949 5.72135 -2.01857 0
M  V30 626 H 55.5339 4.71286 -1.25462 0
M  V30 627 H 54.5389 4.23268 -3.50891 0
M  V30 628 H 55.7639 5.27546 -4.27635 0
M  V30 629 H 53.7099 6.17306 -2.21967 0
M  V30 630 H 53.6269 6.46014 -3.92686 0
M  V30 631 H 54.8949 7.19722 -2.99367 0
M  V30 632 N 59.124 1.23083 0.984299 0
M  V30 633 C 60.349 1.088 1.76571 0
M  V30 634 C 60.774 -0.356657 1.84688 0
M  V30 635 O 60.132 -1.25788 1.30565 0
M  V30 636 C 60.18 1.71371 3.17277 0
M  V30 637 O 59.284 0.973213 4.00752 0
M  V30 638 H 58.625 0.381599 0.543395 0
M  V30 639 H 61.155 1.63057 1.23587 0
M  V30 640 H 61.165 1.76449 3.67872 0
M  V30 641 H 59.84 2.76493 3.10684 0
M  V30 642 H 58.417 0.999078 3.59267 0
M  V30 643 N 60.6021 -1.18246 1.0419 0
M  V30 644 C 61.5521 -2.19843 0.604392 0
M  V30 645 C 62.5361 -1.56962 -0.353814 0
M  V30 646 O 63.7281 -1.76156 -0.17267 0
M  V30 647 C 60.8571 -3.43287 -0.0298975 0
M  V30 648 C 59.9431 -4.13288 0.951531 0
M  V30 649 N 60.3341 -4.59271 2.11906 0
M  V30 650 C 58.6321 -4.39165 0.7778 0
M  V30 651 C 59.3331 -5.13173 2.73912 0
M  V30 652 N 58.3091 -5.04763 2.01779 0
M  V30 653 H 62.1111 -2.53089 1.4941 0
M  V30 654 H 59.6251 -1.34465 0.910658 0
M  V30 655 H 61.6221 -4.15334 -0.361037 0
M  V30 656 H 60.2821 -3.11537 -0.915127 0
M  V30 657 H 61.2931 -4.5368 2.49789 0
M  V30 658 H 57.9701 -4.17461 -0.0572331 0
M  V30 659 H 59.3601 -5.58947 3.72864 0
M  V30 660 N 62.0802 -0.821533 -1.34494 0
M  V30 661 C 63.3052 -0.420873 -2.03085 0
M  V30 662 C 63.7302 0.964915 -1.61465 0
M  V30 663 O 63.0882 1.62763 -0.798607 0
M  V30 664 C 63.1362 -0.529414 -3.56693 0
M  V30 665 O 62.2402 0.451302 -4.09923 0
M  V30 666 H 61.5812 -0.173489 -0.640935 0
M  V30 667 H 64.1112 -1.11157 -1.71771 0
M  V30 668 H 64.1212 -0.404671 -4.05988 0
M  V30 669 H 62.7962 -1.54014 -3.86332 0
M  V30 670 H 61.3732 0.285558 -3.71805 0
M  V30 671 N 63.5583 1.46682 -0.576371 0
M  V30 672 C 64.4683 2.34032 0.163141 0
M  V30 673 C 65.4843 1.49367 0.892501 0
M  V30 674 O 66.6603 1.82252 0.857106 0
M  V30 675 C 63.7253 3.26435 1.16795 0
M  V30 676 C 62.7863 4.26998 0.443944 0
M  V30 677 C 62.0193 5.14986 1.40088 0
M  V30 678 O 62.2423 5.05785 2.637 0
M  V30 679 O 61.1763 5.94906 0.914917 0
M  V30 680 H 65.0023 2.98607 -0.55388 0
M  V30 681 H 62.5873 1.45554 -0.336821 0
M  V30 682 H 64.4693 3.83459 1.74748 0
M  V30 683 H 63.1443 2.64465 1.86655 0
M  V30 684 H 62.0513 3.7368 -0.177271 0
M  V30 685 H 63.3843 4.91736 -0.213566 0
M  V30 686 N 65.0364 0.313813 1.54444 0
M  V30 687 C 66.4524 -0.0391619 1.59552 0
M  V30 688 C 66.6524 -1.51322 1.33056 0
M  V30 689 O 65.7084 -2.26782 1.11022 0
M  V30 690 C 67.0214 0.370302 2.98411 0
M  V30 691 C 68.5694 0.320139 3.11358 0
M  V30 692 C 69.0444 0.704617 4.52547 0
M  V30 693 N 70.5354 0.657645 4.58508 0
M  V30 694 C 71.2704 0.927453 5.6585 0
M  V30 695 N 70.7664 1.26389 6.81174 0
M  V30 696 N 72.5594 0.853662 5.5558 0
M  V30 697 H 64.7104 1.27433 1.69925 0
M  V30 698 H 66.9734 0.517511 0.794284 0
M  V30 699 H 66.6794 1.39694 3.22767 0
M  V30 700 H 66.5534 -0.269619 3.76235 0
M  V30 701 H 68.9404 -0.697275 2.86744 0
M  V30 702 H 69.0214 0.99486 2.35661 0
M  V30 703 H 68.6654 1.7199 4.77893 0
M  V30 704 H 68.5954 0.00768843 5.26599 0
M  V30 705 H 71.0864 0.409067 3.75679 0
M  V30 706 H 71.3994 1.4554 7.58972 0
M  V30 707 H 69.7444 1.30206 6.82694 0
M  V30 708 H 72.9354 0.590383 4.64362 0
M  V30 709 H 73.1084 1.0673 6.3915 0
M  V30 710 N 66.5145 -1.57545 0.0417849 0
M  V30 711 C 67.9305 -1.56467 -0.314704 0
M  V30 712 C 68.1305 -1.04859 -1.72066 0
M  V30 713 O 67.1865 -0.700983 -2.42575 0
M  V30 714 C 68.4995 -3.00317 -0.15174 0
M  V30 715 C 70.0475 -3.12201 -0.223553 0
M  V30 716 C 70.5225 -4.57913 -0.0892295 0
M  V30 717 N 72.0135 -4.6297 -0.145808 0
M  V30 718 C 72.7485 -5.73362 -0.0658459 0
M  V30 719 N 72.2445 -6.92769 0.0659282 0
M  V30 720 N 74.0375 -5.6197 -0.12075 0
M  V30 721 H 66.1885 -1.89416 0.961014 0
M  V30 722 H 68.4515 -0.871862 0.372237 0
M  V30 723 H 68.1575 -3.42073 0.817254 0
M  V30 724 H 68.0315 -3.65892 -0.916692 0
M  V30 725 H 70.4185 -2.70349 -1.18301 0
M  V30 726 H 70.4995 -2.49323 0.571994 0
M  V30 727 H 70.1435 -5.00448 0.866867 0
M  V30 728 H 70.0735 -5.18786 -0.903802 0
M  V30 729 H 72.5645 -3.7709 -0.247286 0
M  V30 730 H 72.8775 -7.72707 0.119905 0
M  V30 731 H 71.2225 -6.94927 0.100885 0
M  V30 732 H 74.4135 -4.67572 -0.222187 0
M  V30 733 H 74.5865 -6.47977 -0.0549735 0
M  V30 734 N 67.9926 0.231505 -1.5589 0
M  V30 735 C 69.2176 0.978689 -1.82856 0
M  V30 736 C 69.6426 1.77559 -0.620846 0
M  V30 737 O 69.0006 1.76119 0.430305 0
M  V30 738 C 69.0486 1.87997 -3.07716 0
M  V30 739 O 68.1526 2.97393 -2.85712 0
M  V30 740 H 67.4936 0.277663 -0.603158 0
M  V30 741 H 70.0236 0.24783 -2.03093 0
M  V30 742 H 70.0336 2.2917 -3.37558 0
M  V30 743 H 68.7086 1.29417 -3.95252 0
M  V30 744 H 67.2856 2.60238 -2.67078 0
M  V30 745 N 69.4707 1.49531 0.497807 0
M  V30 746 C 70.6987 1.62893 1.27567 0
M  V30 747 C 71.1137 0.301585 1.86376 0
M  V30 748 O 70.4707 -0.713335 1.67982 0
M  V30 749 C 70.5217 2.70013 2.40364 0
M  V30 750 O 70.2427 3.976 1.83972 0
M  V30 751 C 71.7437 2.94109 3.31685 0
M  V30 752 H 68.9637 0.548298 0.386794 0
M  V30 753 H 71.5077 1.95584 0.597245 0
M  V30 754 H 69.6627 2.40092 3.04031 0
M  V30 755 H 70.0767 4.56631 2.58047 0
M  V30 756 H 71.5507 3.72788 4.07104 0
M  V30 757 H 72.0277 2.04147 3.88871 0
M  V30 758 H 72.6337 3.2546 2.73781 0
M  V30 759 N 70.9488 -0.749086 1.3866 0
M  V30 760 C 71.8788 -1.8764 1.38973 0
M  V30 761 C 72.8598 -1.68178 0.255004 0
M  V30 762 O 74.0448 -1.88704 0.458754 0
M  V30 763 C 71.1748 -3.25222 1.21851 0
M  V30 764 C 70.1288 -3.59295 2.32575 0
M  V30 765 C 69.4548 -4.95663 2.00555 0
M  V30 766 C 70.7548 -3.63709 3.7485 0
M  V30 767 H 72.4488 -1.87635 2.3331 0
M  V30 768 H 69.9948 -0.901329 1.12303 0
M  V30 769 H 71.9478 -4.03746 1.20695 0
M  V30 770 H 70.6718 -3.25719 0.239775 0
M  V30 771 H 69.3308 -2.83093 2.32925 0
M  V30 772 H 68.9788 -4.92724 1.01154 0
M  V30 773 H 68.6788 -5.19429 2.74714 0
M  V30 774 H 70.2028 -5.7656 2.01024 0
M  V30 775 H 71.6168 -4.32338 3.76506 0
M  V30 776 H 70.0138 -3.98986 4.48252 0
M  V30 777 H 71.0838 -2.63834 4.06841 0
M  V30 778 N 72.4269 -1.23603 -0.977757 0
M  V30 779 C 73.3739 -1.01954 -2.07061 0
M  V30 780 C 74.3439 0.0638697 -1.65977 0
M  V30 781 O 75.5289 -0.0887624 -1.90593 0
M  V30 782 C 72.6689 -0.619658 -3.39491 0
M  V30 783 C 71.7819 -1.77547 -3.93829 0
M  V30 784 C 70.9169 -1.32212 -5.14484 0
M  V30 785 C 69.9559 -2.44852 -5.60994 0
M  V30 786 N 69.0929 -2.00456 -6.72876 0
M  V30 787 H 73.9329 -1.95495 -2.24913 0
M  V30 788 H 71.4699 -0.973861 -1.10247 0
M  V30 789 H 73.4279 -0.368898 -4.15566 0
M  V30 790 H 72.0579 0.278752 -3.21594 0
M  V30 791 H 71.1099 -2.14016 -3.14486 0
M  V30 792 H 72.4219 -2.62219 -4.24314 0
M  V30 793 H 71.5759 -1.02965 -5.97899 0
M  V30 794 H 70.3149 -0.445808 -4.85658 0
M  V30 795 H 69.3199 -2.74871 -4.76157 0
M  V30 796 H 70.5449 -3.33024 -5.91837 0
M  V30 797 H 68.4909 -1.15208 -6.45804 0
M  V30 798 H 68.4079 -2.78687 -7.02759 0
M  V30 799 H 69.6759 -1.7432 -7.59758 0
M  V30 800 N 73.905 1.17692 -1.04816 0
M  V30 801 C 74.853 2.23632 -0.63966 0
M  V30 802 C 75.847 1.6601 0.337219 0
M  V30 803 O 77.053 1.78844 0.203693 0
M  V30 804 H 73.428 0.727949 -0.188665 0
M  V30 805 H 75.399 2.55387 -1.54337 0
M  V30 806 C 74.148 3.4769 -0.0264051 0
M  V30 807 H 73.471 3.92331 -0.769164 0
M  V30 808 H 74.911 4.23418 0.222098 0
M  V30 809 C 73.37 3.13807 1.22584 0
M  V30 810 O 73.9 3.28236 2.31569 0
M  V30 811 N 72.106 2.68065 1.12202 0
M  V30 812 H 71.653 2.56525 0.235133 0
M  V30 813 H 71.611 2.45767 1.96076 0
M  V30 814 N 75.3831 0.828654 1.34056 0
M  V30 815 C 76.2931 0.256725 2.33191 0
M  V30 816 C 77.3091 -0.611898 1.62886 0
M  V30 817 O 78.4851 -0.51844 1.94613 0
M  V30 818 C 75.5501 -0.567238 3.42028 0
M  V30 819 C 74.6111 0.324458 4.28072 0
M  V30 820 C 73.8441 -0.460274 5.31712 0
M  V30 821 O 74.0671 -1.693 5.44696 0
M  V30 822 O 73.0011 0.160391 6.01686 0
M  V30 823 H 76.8271 1.07739 2.83947 0
M  V30 824 H 74.4121 0.59093 1.37217 0
M  V30 825 H 76.2941 -1.03582 4.08471 0
M  V30 826 H 74.9691 -1.36513 2.93506 0
M  V30 827 H 73.8761 0.840659 3.64532 0
M  V30 828 H 75.2091 1.08685 4.8005 0
M  V30 829 N 76.8612 -1.46375 0.584142 0
M  V30 830 C 77.7932 -2.28443 -0.186119 0
M  V30 831 C 78.8062 -1.38596 -0.854115 0
M  V30 832 O 79.9952 -1.63183 -0.723438 0
M  V30 833 C 77.0952 -3.13671 -1.28311 0
M  V30 834 C 76.2682 -4.31652 -0.706758 0
M  V30 835 C 75.3272 -4.98267 -1.69163 0
M  V30 836 O 74.3532 -5.55815 -1.22712 0
M  V30 837 N 75.5552 -4.95408 -3.02575 0
M  V30 838 H 78.3202 -2.9519 0.517986 0
M  V30 839 H 75.8812 -1.56303 0.42201 0
M  V30 840 H 77.8732 -3.55101 -1.94128 0
M  V30 841 H 76.4432 -2.48989 -1.89005 0
M  V30 842 H 75.6632 -3.93989 0.128908 0
M  V30 843 H 76.9512 -5.07906 -0.301506 0
M  V30 844 H 76.3492 -4.49902 -3.42936 0
M  V30 845 H 74.9062 -5.40774 -3.63877 0
M  V30 846 N 78.3393 -0.321999 -1.54275 0
M  V30 847 C 79.5643 0.285791 -2.05422 0
M  V30 848 C 79.9893 1.45124 -1.19669 0
M  V30 849 O 79.3473 1.80132 -0.205441 0
M  V30 850 C 79.3953 0.69956 -3.53749 0
M  V30 851 O 78.4993 1.8021 -3.70942 0
M  V30 852 H 77.8403 0.0518962 -0.661969 0
M  V30 853 H 80.3703 -0.469954 -1.9913 0
M  V30 854 H 80.3803 0.982649 -3.9599 0
M  V30 855 H 79.0553 -0.152864 -4.15619 0
M  V30 856 H 77.6323 1.51794 -3.40607 0
M  V30 857 N 79.8174 1.5752 -0.0501392 0
M  V30 858 C 81.0424 1.97376 0.636997 0
M  V30 859 C 81.4674 0.927466 1.63645 0
M  V30 860 O 80.8254 -0.10941 1.8097 0
M  V30 861 C 80.8734 3.36304 1.30123 0
M  V30 862 O 79.9774 3.34156 2.41689 0
M  V30 863 H 79.3184 0.642998 0.165679 0
M  V30 864 H 81.8484 2.04258 -0.118233 0
M  V30 865 H 81.8584 3.73008 1.65315 0
M  V30 866 H 80.5334 4.11993 0.568746 0
M  V30 867 H 79.1104 3.09196 2.08451 0
M  V30 868 N 81.2955 -0.223234 1.56011 0
M  V30 869 C 82.7065 -0.790368 1.69145 0
M  V30 870 C 83.0575 -1.85055 0.651845 0
M  V30 871 O 82.1825 -2.15498 -0.197359 0
M  V30 872 C 82.7775 -1.4404 3.06656 0
M  V30 873 C 81.3365 -1.95494 3.2165 0
M  V30 874 C 80.4835 -0.814506 2.65068 0
M  V30 875 H 83.4345 0.00139011 1.587 0
M  V30 876 H 83.4555 -2.30916 3.0242 0
M  V30 877 H 82.9675 -0.668543 3.82298 0
M  V30 878 H 81.0685 -2.75487 2.50874 0
M  V30 879 H 81.1815 -2.13607 4.28846 0
M  V30 880 H 79.5455 -1.22137 2.23505 0
M  V30 881 H 80.3285 -0.0553515 3.43255 0
M  V30 882 N 82.7736 -1.49793 -0.48987 0
M  V30 883 C 83.7236 -1.63673 -1.5873 0
M  V30 884 C 84.7076 -0.491956 -1.53195 0
M  V30 885 O 85.8996 -0.745461 -1.60536 0
M  V30 886 C 83.0286 -1.71689 -2.97284 0
M  V30 887 C 82.1146 -2.91781 -3.07774 0
M  V30 888 N 82.5056 -4.15714 -2.88124 0
M  V30 889 C 80.8036 -2.89949 -3.38889 0
M  V30 890 C 81.5046 -4.965 -3.03088 0
M  V30 891 N 80.4806 -4.30083 -3.3246 0
M  V30 892 H 84.2826 -2.57204 -1.42208 0
M  V30 893 H 81.7966 -1.46719 -0.69623 0
M  V30 894 H 83.7936 -1.79732 -3.76168 0
M  V30 895 H 82.4536 -0.793024 -3.14867 0
M  V30 896 H 83.4646 -4.45515 -2.64077 0
M  V30 897 H 80.1416 -2.06987 -3.62578 0
M  V30 898 H 81.5316 -6.04991 -2.92294 0
M  V30 899 N 84.2517 0.741722 -1.39055 0
M  V30 900 C 85.1817 1.869 -1.39966 0
M  V30 901 C 86.1627 1.6804 -0.26392 0
M  V30 902 O 87.3477 1.88458 -0.468755 0
M  V30 903 C 84.4777 3.24572 -1.23574 0
M  V30 904 C 83.4317 3.58056 -2.34477 0
M  V30 905 C 82.7577 4.94593 -2.0318 0
M  V30 906 C 84.0577 3.61716 -3.76774 0
M  V30 907 H 85.7517 1.86395 -2.34302 0
M  V30 908 H 83.2977 0.895361 -1.1278 0
M  V30 909 H 85.2507 4.031 -1.22834 0
M  V30 910 H 83.9747 3.25587 -0.257045 0
M  V30 911 H 82.6337 2.81854 -2.34423 0
M  V30 912 H 82.2817 4.92181 -1.03765 0
M  V30 913 H 81.9817 5.17964 -2.77465 0
M  V30 914 H 83.5057 5.75486 -2.04079 0
M  V30 915 H 84.9197 4.30335 -3.78794 0
M  V30 916 H 83.3167 3.96603 -4.50362 0
M  V30 917 H 84.3867 2.61672 -4.08235 0
M  V30 918 N 85.7298 1.2412 0.971189 0
M  V30 919 C 86.9788 1.07284 1.70801 0
M  V30 920 C 87.2918 -0.388902 1.91695 0
M  V30 921 O 88.4978 -0.677379 2.62914 0
M  V30 922 C 86.9538 1.87145 3.07416 0
M  V30 923 C 86.5618 3.37707 2.94377 0
M  V30 924 C 88.3058 1.78828 3.84995 0
M  V30 925 C 86.2128 4.09925 4.26281 0
M  V30 926 H 85.1428 0.397854 0.64049 0
M  V30 927 H 87.7938 1.4817 1.0825 0
M  V30 928 H 86.1758 1.39071 3.70777 0
M  V30 929 H 87.3498 3.93335 2.4005 0
M  V30 930 H 85.6648 3.46938 2.30267 0
M  V30 931 H 88.2618 2.30089 4.82662 0
M  V30 932 H 88.6048 0.75284 4.09436 0
M  V30 933 H 89.1378 2.24563 3.28354 0
M  V30 934 H 85.8768 5.13813 4.07033 0
M  V30 935 H 85.3968 3.59083 4.80437 0
M  V30 936 H 87.0758 4.1673 4.94919 0
M  V30 937 N 87.2079 -1.17134 1.05439 0
M  V30 938 C 88.1399 -2.2078 0.615539 0
M  V30 939 C 89.1529 -1.59584 -0.322001 0
M  V30 940 O 90.3419 -1.78133 -0.114344 0
M  V30 941 C 87.4419 -3.38691 -0.118938 0
M  V30 942 C 86.6149 -4.29454 0.829924 0
M  V30 943 C 85.6739 -5.26024 0.136258 0
M  V30 944 O 84.6999 -5.63952 0.77115 0
M  V30 945 N 85.9019 -5.69487 -1.1254 0
M  V30 946 H 88.6669 -2.59052 1.50705 0
M  V30 947 H 86.2279 -1.32058 0.936603 0
M  V30 948 H 88.2199 -4.00329 -0.593179 0
M  V30 949 H 86.7899 -2.98996 -0.91215 0
M  V30 950 H 86.0099 -3.65211 1.48373 0
M  V30 951 H 87.2979 -4.86984 1.47392 0
M  V30 952 H 86.6959 -5.4075 -1.6615 0
M  V30 953 H 85.2529 -6.33257 -1.54366 0
M  V30 954 N 88.686 -0.835752 -1.33615 0
M  V30 955 C 89.914 -0.443344 -2.02094 0
M  V30 956 C 90.329 0.954522 -1.62894 0
M  V30 957 O 89.686 1.61982 -0.840723 0
M  V30 958 C 89.737 -0.550775 -3.5728 0
M  V30 959 O 89.458 -1.89356 -3.95065 0
M  V30 960 C 90.959 -0.154919 -4.43029 0
M  V30 961 H 88.179 -0.176359 -0.647409 0
M  V30 962 H 90.723 -1.12746 -1.70612 0
M  V30 963 H 88.878 0.0853997 -3.87306 0
M  V30 964 H 89.292 -1.87687 -4.89769 0
M  V30 965 H 90.766 -0.281144 -5.51284 0
M  V30 966 H 91.243 0.902863 -4.2982 0
M  V30 967 H 91.849 -0.765404 -4.18356 0
M  V30 968 N 90.1641 1.46063 -0.591896 0
M  V30 969 C 91.3921 2.06717 -0.0868936 0
M  V30 970 C 91.8071 1.43916 1.22203 0
M  V30 971 O 91.1641 0.547698 1.74088 0
M  V30 972 C 91.2151 3.6142 0.0758725 0
M  V30 973 O 90.9361 4.21874 -1.18126 0
M  V30 974 C 92.4371 4.39025 0.61416 0
M  V30 975 H 89.6571 0.668162 -0.0616518 0
M  V30 976 H 92.2011 1.8755 -0.815175 0
M  V30 977 H 90.3561 3.79983 0.754413 0
M  V30 978 H 90.7701 5.14861 -1.00092 0
M  V30 979 H 92.2441 5.4783 0.677193 0
M  V30 980 H 92.7211 4.07708 1.63312 0
M  V30 981 H 93.3271 4.2529 -0.0298142 0
M  V30 982 N 91.6422 0.330177 1.54103 0
M  V30 983 C 92.8882 -0.263542 2.01685 0
M  V30 984 C 93.2432 -1.49258 1.21408 0
M  V30 985 O 92.5362 -1.89395 0.289852 0
M  V30 986 C 92.7302 -0.643134 3.51566 0
M  V30 987 C 92.5592 0.547571 4.46354 0
M  V30 988 C 91.3292 1.04873 4.94297 0
M  V30 989 C 93.5272 1.40184 4.94826 0
M  V30 990 N 91.5092 2.20316 5.73005 0
M  V30 991 C 92.8802 2.40335 5.71524 0
M  V30 992 C 94.9352 1.42884 4.76958 0
M  V30 993 C 93.6382 3.42998 6.32254 0
M  V30 994 C 95.6642 2.44421 5.38528 0
M  V30 995 C 95.0262 3.43298 6.15082 0
M  V30 996 H 91.1252 -0.0601026 0.779687 0
M  V30 997 H 93.7092 0.466714 1.89023 0
M  V30 998 H 91.8802 -1.34251 3.6446 0
M  V30 999 H 93.6122 -1.21889 3.85908 0
M  V30 1000 H 90.3672 0.618956 4.69538 0
M  V30 1001 H 90.7912 2.78565 6.17034 0
M  V30 1002 H 95.4332 0.678049 4.17328 0
M  V30 1003 H 93.1512 4.1898 6.91 0
M  V30 1004 H 96.7372 2.4732 5.26616 0
M  V30 1005 H 95.6172 4.20579 6.61878 0
M  V30 1006 N 93.1203 -1.57491 0.0584922 0
M  V30 1007 C 94.3483 -1.97296 -0.623037 0
M  V30 1008 C 94.7633 -0.936338 -1.63946 0
M  V30 1009 O 94.1203 0.0785981 -1.82331 0
M  V30 1010 C 94.1713 -3.37183 -1.30345 0
M  V30 1011 O 93.8923 -4.36872 -0.32773 0
M  V30 1012 C 95.3933 -3.91788 -2.07406 0
M  V30 1013 H 92.6133 -0.649153 -0.169826 0
M  V30 1014 H 95.1573 -2.04106 0.12696 0
M  V30 1015 H 93.3123 -3.31502 -2.00463 0
M  V30 1016 H 93.7263 -5.18141 -0.814269 0
M  V30 1017 H 95.2003 -4.91926 -2.50425 0
M  V30 1018 H 95.6773 -3.27609 -2.92521 0
M  V30 1019 H 96.2833 -4.00829 -1.42184 0
M  V30 1020 N 94.5984 0.214957 -1.56127 0
M  V30 1021 C 95.8234 0.95924 -1.83884 0
M  V30 1022 C 96.2484 1.7689 -0.639644 0
M  V30 1023 O 95.6064 1.76566 0.411601 0
M  V30 1024 C 95.6544 1.84723 -3.09693 0
M  V30 1025 O 94.7584 2.94346 -2.8885 0
M  V30 1026 H 94.0994 0.27125 -0.606069 0
M  V30 1027 H 96.6294 0.226276 -2.03345 0
M  V30 1028 H 96.6394 2.25576 -3.39969 0
M  V30 1029 H 95.3144 1.25218 -3.96602 0
M  V30 1030 H 93.8914 2.57391 -2.69823 0
M  V30 1031 N 96.0765 1.50051 0.48192 0
M  V30 1032 C 97.3015 1.64508 1.26301 0
M  V30 1033 C 97.7265 0.323851 1.85291 0
M  V30 1034 O 97.0845 -0.710969 1.66778 0
M  V30 1035 C 97.1325 2.7305 2.35533 0
M  V30 1036 O 96.2365 2.3355 3.39895 0
M  V30 1037 H 95.5775 0.549978 0.372048 0
M  V30 1038 H 98.1075 1.9636 0.574786 0
M  V30 1039 H 98.1175 2.95799 2.8101 0
M  V30 1040 H 96.7925 3.68946 1.91967 0
M  V30 1041 H 95.3695 2.21205 3.00204 0
M  V30 1042 N 97.5546 -0.734337 1.39446 0
M  V30 1043 C 98.8036 -1.48937 1.36017 0
M  V30 1044 C 99.1166 -1.95557 -0.0409005 0
M  V30 1045 O 100.323 -2.70779 -0.19778 0
M  V30 1046 C 98.7786 -2.69125 2.38955 0
M  V30 1047 C 98.3866 -2.29452 3.8478 0
M  V30 1048 C 100.131 -3.46944 2.44603 0
M  V30 1049 C 98.0376 -3.46366 4.79358 0
M  V30 1050 H 96.9676 -0.559296 0.505672 0
M  V30 1051 H 99.6186 -0.800983 1.65095 0
M  V30 1052 H 98.0006 -3.40041 2.02948 0
M  V30 1053 H 99.1746 -1.66077 4.29831 0
M  V30 1054 H 97.4896 -1.64723 3.82433 0
M  V30 1055 H 100.087 -4.33907 3.12456 0
M  V30 1056 H 100.43 -3.89454 1.47076 0
M  V30 1057 H 100.963 -2.83056 2.79507 0
M  V30 1058 H 97.7016 -3.08905 5.78151 0
M  V30 1059 H 97.2216 -4.08719 4.38986 0
M  V30 1060 H 98.9006 -4.12691 4.98292 0
M  V30 1061 N 99.0327 -1.24633 -0.964593 0
M  V30 1062 C 100.28 -1.08788 -1.70796 0
M  V30 1063 C 100.608 0.372783 -1.90894 0
M  V30 1064 O 99.8627 1.29167 -1.47018 0
M  V30 1065 C 100.162 -1.7763 -3.10133 0
M  V30 1066 C 99.8277 -3.27557 -3.09866 0
M  V30 1067 C 98.4897 -3.6846 -3.09501 0
M  V30 1068 C 100.842 -4.23389 -3.03959 0
M  V30 1069 C 98.1697 -5.03624 -3.00965 0
M  V30 1070 C 100.522 -5.58565 -2.96965 0
M  V30 1071 C 99.1857 -5.98809 -2.9493 0
M  V30 1072 H 98.4557 -0.398084 -0.624988 0
M  V30 1073 H 101.103 -1.54777 -1.12767 0
M  V30 1074 H 99.4077 -1.24044 -3.71645 0
M  V30 1075 H 101.105 -1.62832 -3.66451 0
M  V30 1076 H 97.6947 -2.95006 -3.10917 0
M  V30 1077 H 101.879 -3.92787 -3.03368 0
M  V30 1078 H 97.1347 -5.33998 -2.97752 0
M  V30 1079 H 101.309 -6.32523 -2.91354 0
M  V30 1080 H 98.9357 -7.03505 -2.88071 0
M  V30 1081 N 100.511 1.16574 -1.06058 0
M  V30 1082 C 101.461 2.18854 -0.63929 0
M  V30 1083 C 102.445 1.57505 0.328798 0
M  V30 1084 O 103.637 1.76408 0.144623 0
M  V30 1085 C 100.766 3.43291 -0.0247203 0
M  V30 1086 C 99.8518 4.11722 -1.01716 0
M  V30 1087 N 100.243 4.55841 -2.19186 0
M  V30 1088 C 98.5408 4.37872 -0.847569 0
M  V30 1089 C 99.2418 5.08751 -2.82042 0
M  V30 1090 N 98.2178 5.01489 -2.09784 0
M  V30 1091 H 102.02 2.5068 -1.53417 0
M  V30 1092 H 99.5338 1.32999 -0.931935 0
M  V30 1093 H 101.531 4.15856 0.294915 0
M  V30 1094 H 100.191 3.12954 0.865448 0
M  V30 1095 H 101.202 4.49649 -2.56975 0
M  V30 1096 H 97.8788 4.17499 -0.00918848 0
M  V30 1097 H 99.2688 5.52944 -3.81709 0
M  V30 1098 N 101.989 0.842826 1.3317 0
M  V30 1099 C 102.919 0.294028 2.31641 0
M  V30 1100 C 103.9 -0.600401 1.59151 0
M  V30 1101 O 105.085 -0.523124 1.87022 0
M  V30 1102 C 102.215 -0.528416 3.43257 0
M  V30 1103 C 101.169 0.27056 4.27144 0
M  V30 1104 C 100.495 -0.675881 5.30411 0
M  V30 1105 C 101.795 1.48981 5.00602 0
M  V30 1106 H 103.489 1.11681 2.77791 0
M  V30 1107 H 101.035 0.538478 1.33553 0
M  V30 1108 H 102.988 -0.922674 4.11175 0
M  V30 1109 H 101.712 -1.38445 2.95805 0
M  V30 1110 H 100.371 0.646427 3.60856 0
M  V30 1111 H 100.019 -1.52842 4.79216 0
M  V30 1112 H 99.7189 -0.145374 5.8742 0
M  V30 1113 H 101.243 -1.06757 6.01195 0
M  V30 1114 H 102.657 1.16849 5.61266 0
M  V30 1115 H 101.054 1.95739 5.6728 0
M  V30 1116 H 102.124 2.25746 4.29147 0
M  V30 1117 N 103.467 -1.45747 0.599634 0
M  V30 1118 C 104.744 -1.95585 0.0240846 0
M  V30 1119 C 105.124 -1.54217 -1.44154 0
M  V30 1120 O 104.472 -0.800903 -2.14004 0
M  V30 1121 C 104.682 -3.48344 0.21385 0
M  V30 1122 C 106.03 -4.24504 0.0904902 0
M  V30 1123 O 107.054 -3.55911 0.143558 0
M  V30 1124 O 105.913 -5.46491 -0.0310766 0
M  V30 1125 H 103.007 -0.82602 -0.0402478 0
M  V30 1126 H 105.553 -1.55951 0.669139 0
M  V30 1127 H 104.325 -3.71397 1.23206 0
M  V30 1128 H 103.948 -3.9485 -0.466842 0
M  V30 1129 N 104.945 -0.338344 -1.53925 0
M  V30 1130 C 105.895 0.536712 -2.21593 0
M  V30 1131 C 106.879 1.07015 -1.20153 0
M  V30 1132 O 108.071 1.00471 -1.45721 0
M  V30 1133 C 105.2 1.68977 -2.98834 0
M  V30 1134 C 104.286 1.17052 -4.07627 0
M  V30 1135 N 104.677 0.372085 -5.0443 0
M  V30 1136 C 102.975 1.44789 -4.21844 0
M  V30 1137 C 103.676 0.0909171 -5.81629 0
M  V30 1138 N 102.652 0.681131 -5.39316 0
M  V30 1139 H 106.454 -0.0804298 -2.9379 0
M  V30 1140 H 103.968 -0.144943 -1.61752 0
M  V30 1141 H 105.965 2.32857 -3.45808 0
M  V30 1142 H 104.625 2.31024 -2.28162 0
M  V30 1143 H 105.636 0.0136217 -5.17898 0
M  V30 1144 H 102.313 2.07313 -3.62391 0
M  V30 1145 H 103.703 -0.552817 -6.69622 0
M  V30 1146 N 106.423 1.57458 -0.0668435 0
M  V30 1147 C 107.7 1.8469 0.644132 0
M  V30 1148 C 108.08 0.958343 1.88093 0
M  V30 1149 O 107.428 0.0233579 2.28488 0
M  V30 1150 C 107.638 3.34767 0.986509 0
M  V30 1151 C 108.986 4.02159 1.36212 0
M  V30 1152 O 110.01 3.39484 1.07839 0
M  V30 1153 O 108.869 5.12694 1.89227 0
M  V30 1154 H 105.963 0.762816 0.319437 0
M  V30 1155 H 108.509 1.6942 -0.0973986 0
M  V30 1156 H 107.281 3.91151 0.107883 0
M  V30 1157 H 106.904 3.55281 1.78497 0
M  V30 1158 N 107.901 -0.206675 1.56239 0
M  V30 1159 C 109.178 -0.954051 1.70755 0
M  V30 1160 C 109.558 -2.01841 0.618353 0
M  V30 1161 O 108.906 -2.25444 -0.372434 0
M  V30 1162 C 109.116 -1.551 3.12642 0
M  V30 1163 C 110.464 -2.03757 3.72516 0
M  V30 1164 O 111.488 -1.64965 3.15698 0
M  V30 1165 O 110.347 -2.75103 4.72208 0
M  V30 1166 H 107.441 -0.446636 0.696021 0
M  V30 1167 H 109.987 -0.197283 1.68549 0
M  V30 1168 H 108.759 -0.783212 3.83382 0
M  V30 1169 H 108.382 -2.37291 3.19028 0
M  V30 1170 N 109.379 -1.50304 -0.473955 0
M  V30 1171 C 110.625 -1.61389 -1.22806 0
M  V30 1172 C 110.958 -0.311955 -1.91678 0
M  V30 1173 O 110.233 0.686384 -1.81986 0
M  V30 1174 C 110.516 -2.79219 -2.27396 0
M  V30 1175 C 110.369 -4.19286 -1.62848 0
M  V30 1176 C 111.688 -2.92614 -3.28732 0
M  V30 1177 H 108.807 -0.587399 -0.445119 0
M  V30 1178 H 111.449 -1.82681 -0.522265 0
M  V30 1179 H 109.599 -2.61195 -2.87592 0
M  V30 1180 H 111.271 -4.48892 -1.06271 0
M  V30 1181 H 109.514 -4.23677 -0.931693 0
M  V30 1182 H 110.185 -4.97655 -2.38838 0
M  V30 1183 H 112.661 -3.09105 -2.78556 0
M  V30 1184 H 111.537 -3.76688 -3.99246 0
M  V30 1185 H 111.798 -2.03107 -3.92683 0
M  V30 1186 N 110.857 0.726932 -1.39834 0
M  V30 1187 C 111.805 1.86235 -1.39353 0
M  V30 1188 C 112.799 1.67144 -0.275555 0
M  V30 1189 O 114.005 1.74387 -0.44601 0
M  V30 1190 H 110.38 0.613174 -0.43534 0
M  V30 1191 H 112.351 1.83756 -2.35109 0
M  V30 1192 C 111.1 3.23995 -1.26185 0
M  V30 1193 H 110.423 3.39285 -2.11484 0
M  V30 1194 H 111.863 4.03609 -1.29907 0
M  V30 1195 C 110.322 3.36888 0.0290018 0
M  V30 1196 O 110.852 3.89152 0.99619 0
M  V30 1197 N 109.058 2.90446 0.0947437 0
M  V30 1198 H 108.605 2.48102 -0.693035 0
M  V30 1199 H 108.563 2.99451 0.957932 0
M  V30 1200 N 112.336 1.25143 0.95797 0
M  V30 1201 C 113.613 1.00472 1.67823 0
M  V30 1202 C 113.993 -0.470056 2.058 0
M  V30 1203 O 113.341 -1.44663 1.76875 0
M  V30 1204 C 113.551 1.9372 2.90299 0
M  V30 1205 C 114.899 2.21371 3.62326 0
M  V30 1206 O 115.923 1.91451 3.00375 0
M  V30 1207 O 114.782 2.72231 4.7387 0
M  V30 1208 H 111.876 0.380752 0.734137 0
M  V30 1209 H 114.422 1.36283 1.01119 0
M  V30 1210 H 113.194 2.93316 2.59001 0
M  V30 1211 H 112.817 1.58286 3.64735 0
M  V30 1212 N 113.814 -1.1601 1.06675 0
M  V30 1213 C 114.746 -2.20115 0.638921 0
M  V30 1214 C 115.759 -1.59916 -0.305057 0
M  V30 1215 O 116.948 -1.78245 -0.0954446 0
M  V30 1216 C 114.048 -3.38798 -0.0830083 0
M  V30 1217 C 113.221 -4.2855 0.875426 0
M  V30 1218 C 112.28 -5.25849 0.192042 0
M  V30 1219 O 111.306 -5.63102 0.830921 0
M  V30 1220 N 112.508 -5.70648 -1.06493 0
M  V30 1221 H 115.273 -2.57439 1.53444 0
M  V30 1222 H 112.834 -1.31057 0.950557 0
M  V30 1223 H 114.826 -4.00936 -0.550685 0
M  V30 1224 H 113.396 -2.99947 -0.880386 0
M  V30 1225 H 112.616 -3.63617 1.52238 0
M  V30 1226 H 113.904 -4.85393 1.52548 0
M  V30 1227 H 113.302 -5.42482 -1.60405 0
M  V30 1228 H 111.859 -6.34859 -1.47641 0
M  V30 1229 N 115.292 -0.849877 -1.32721 0
M  V30 1230 C 116.517 -0.463856 -2.02146 0
M  V30 1231 C 116.942 0.930449 -1.63476 0
M  V30 1232 O 116.3 1.61033 -0.832952 0
M  V30 1233 C 116.348 -0.604955 -3.55489 0
M  V30 1234 O 115.452 0.36425 -4.10788 0
M  V30 1235 H 114.793 -0.187046 -0.637111 0
M  V30 1236 H 117.323 -1.14775 -1.69375 0
M  V30 1237 H 117.333 -0.490696 -4.05038 0
M  V30 1238 H 116.008 -1.62174 -3.82978 0
M  V30 1239 H 114.585 0.206628 -3.72327 0
M  V30 1240 N 116.77 1.45427 -0.607355 0
M  V30 1241 C 118.016 2.0254 -0.102607 0
M  V30 1242 C 118.349 1.47478 1.26348 0
M  V30 1243 O 117.624 0.64939 1.83339 0
M  V30 1244 C 117.907 3.60044 -0.0634347 0
M  V30 1245 C 117.76 4.2544 -1.46017 0
M  V30 1246 C 119.079 4.35646 0.624514 0
M  V30 1247 H 116.198 0.73598 -0.0387607 0
M  V30 1248 H 118.84 1.73284 -0.779282 0
M  V30 1249 H 116.99 3.85101 0.512808 0
M  V30 1250 H 118.662 4.11569 -2.08347 0
M  V30 1251 H 116.905 3.83849 -2.02094 0
M  V30 1252 H 117.576 5.34342 -1.385 0
M  V30 1253 H 120.052 4.15882 0.134723 0
M  V30 1254 H 118.928 5.45376 0.621028 0
M  V30 1255 H 119.189 4.08501 1.69055 0
M  V30 1256 N 118.248 0.346503 1.53744 0
M  V30 1257 C 119.473 -0.253074 2.0585 0
M  V30 1258 C 119.898 -1.43202 1.21962 0
M  V30 1259 O 119.256 -1.79783 0.234073 0
M  V30 1260 C 119.304 -0.643193 3.54817 0
M  V30 1261 O 118.408 -1.74286 3.73762 0
M  V30 1262 H 117.749 -0.0413583 0.662711 0
M  V30 1263 H 120.279 0.501574 1.98357 0
M  V30 1264 H 120.289 -0.919526 3.97503 0
M  V30 1265 H 118.964 0.218966 4.15323 0
M  V30 1266 H 117.541 -1.46356 3.42979 0
M  V30 1267 N 119.726 -1.57421 0.075193 0
M  V30 1268 C 120.951 -1.98364 -0.605515 0
M  V30 1269 C 121.376 -0.953383 -1.62149 0
M  V30 1270 O 120.734 0.0806053 -1.81121 0
M  V30 1271 C 120.782 -3.38332 -1.24756 0
M  V30 1272 O 119.886 -3.37959 -2.36342 0
M  V30 1273 H 119.227 -0.645553 -0.155428 0
M  V30 1274 H 121.757 -2.04044 0.150714 0
M  V30 1275 H 121.767 -3.75591 -1.5936 0
M  V30 1276 H 120.442 -4.12846 -0.503129 0
M  V30 1277 H 119.019 -3.12474 -2.03506 0
M  V30 1278 N 121.204 0.198386 -1.56346 0
M  V30 1279 C 122.167 1.22952 -1.93431 0
M  V30 1280 C 123.167 1.38611 -0.815092 0
M  V30 1281 O 124.357 1.36479 -1.08255 0
M  V30 1282 C 121.489 2.59946 -2.20546 0
M  V30 1283 H 122.682 0.912626 -2.85677 0
M  V30 1284 H 120.235 0.43977 -1.49986 0
M  V30 1285 H 120.97 2.96696 -1.30927 0
M  V30 1286 H 120.755 2.49953 -3.02102 0
M  V30 1287 H 122.245 3.3431 -2.50253 0
M  V30 1288 N 122.682 1.50554 0.465978 0
M  V30 1289 C 123.614 1.65949 1.58093 0
M  V30 1290 C 124.627 0.540827 1.53554 0
M  V30 1291 O 125.816 0.814187 1.5885 0
M  V30 1292 C 122.916 1.63261 2.96983 0
M  V30 1293 C 122.089 2.91245 3.26336 0
M  V30 1294 C 121.148 2.8113 4.44806 0
M  V30 1295 O 120.174 3.55086 4.44862 0
M  V30 1296 N 121.376 1.95032 5.46756 0
M  V30 1297 H 124.141 2.62122 1.45301 0
M  V30 1298 H 121.702 1.48082 0.65448 0
M  V30 1299 H 123.694 1.54101 3.74212 0
M  V30 1300 H 122.264 0.748032 3.03518 0
M  V30 1301 H 121.484 3.14493 2.37672 0
M  V30 1302 H 122.772 3.76022 3.42761 0
M  V30 1303 H 122.17 1.3427 5.49534 0
M  V30 1304 H 120.727 1.91772 6.2295 0
M  V30 1305 N 124.16 -0.719506 1.40217 0
M  V30 1306 C 125.388 -1.50864 1.41589 0
M  V30 1307 C 125.803 -1.88794 0.0145275 0
M  V30 1308 O 125.16 -1.55174 -0.960594 0
M  V30 1309 C 125.211 -2.78646 2.30302 0
M  V30 1310 O 124.932 -2.42321 3.64983 0
M  V30 1311 C 126.433 -3.72569 2.40224 0
M  V30 1312 H 123.653 -0.465709 0.48307 0
M  V30 1313 H 126.197 -0.88785 1.84221 0
M  V30 1314 H 124.352 -3.37019 1.91042 0
M  V30 1315 H 124.766 -3.24514 4.12057 0
M  V30 1316 H 126.24 -4.5908 3.06512 0
M  V30 1317 H 126.717 -4.15403 1.42608 0
M  V30 1318 H 127.323 -3.20109 2.80019 0
M  V30 1319 N 125.638 -1.25649 -0.95132 0
M  V30 1320 C 126.885 -1.10594 -1.69633 0
M  V30 1321 C 127.213 0.352515 -1.91279 0
M  V30 1322 O 126.468 1.27601 -1.4838 0
M  V30 1323 C 126.767 -1.80909 -3.08231 0
M  V30 1324 C 126.433 -3.30825 -3.06375 0
M  V30 1325 C 125.095 -3.71722 -3.05576 0
M  V30 1326 C 127.447 -4.26589 -2.99452 0
M  V30 1327 C 124.775 -5.06788 -2.95606 0
M  V30 1328 C 127.127 -5.61683 -2.91024 0
M  V30 1329 C 125.791 -6.01904 -2.88562 0
M  V30 1330 H 125.061 -0.404691 -0.620731 0
M  V30 1331 H 127.708 -1.55964 -1.11119 0
M  V30 1332 H 126.013 -1.27979 -3.70309 0
M  V30 1333 H 127.71 -1.6671 -3.64704 0
M  V30 1334 H 124.3 -2.98287 -3.07771 0
M  V30 1335 H 128.484 -3.95982 -2.99185 0
M  V30 1336 H 123.74 -5.37126 -2.92071 0
M  V30 1337 H 127.914 -6.35578 -2.84629 0
M  V30 1338 H 125.541 -7.06521 -2.80593 0
M  V30 1339 N 127.117 1.15442 -1.07289 0
M  V30 1340 C 128.049 2.19773 -0.650585 0
M  V30 1341 C 129.062 1.60076 0.296572 0
M  V30 1342 O 130.251 1.78293 0.0859905 0
M  V30 1343 C 127.351 3.38838 0.0650398 0
M  V30 1344 C 126.524 4.2808 -0.898141 0
M  V30 1345 C 125.583 5.2574 -0.219926 0
M  V30 1346 O 124.609 5.62654 -0.860773 0
M  V30 1347 N 125.811 5.71205 1.03466 0
M  V30 1348 H 128.576 2.56622 -1.54808 0
M  V30 1349 H 126.137 1.30551 -0.957494 0
M  V30 1350 H 128.129 4.01222 0.529415 0
M  V30 1351 H 126.699 3.00409 0.864466 0
M  V30 1352 H 125.919 3.62804 -1.54165 0
M  V30 1353 H 127.207 4.84577 -1.5512 0
M  V30 1354 H 126.605 5.43325 1.57526 0
M  V30 1355 H 125.162 6.35633 1.44272 0
M  V30 1356 N 128.595 0.856903 1.32268 0
M  V30 1357 C 129.823 0.475439 2.01363 0
M  V30 1358 C 130.238 -0.928486 1.64392 0
M  V30 1359 O 129.595 -1.60624 0.866387 0
M  V30 1360 C 129.646 0.607545 3.56358 0
M  V30 1361 O 129.367 1.95617 3.92002 0
M  V30 1362 C 130.868 0.225382 4.42727 0
M  V30 1363 H 128.088 0.186636 0.644521 0
M  V30 1364 H 130.632 1.15446 1.68797 0
M  V30 1365 H 128.787 -0.0237719 3.87393 0
M  V30 1366 H 129.201 1.95455 4.86721 0
M  V30 1367 H 130.675 0.368813 5.50767 0
M  V30 1368 H 131.152 -0.834369 4.31202 0
M  V30 1369 H 131.758 0.831864 4.17085 0
M  V30 1370 N 130.073 -1.45103 0.615059 0
M  V30 1371 C 130.983 -2.34382 -0.101034 0
M  V30 1372 C 131.999 -1.51681 -0.852585 0
M  V30 1373 O 133.175 -1.8446 -0.808484 0
M  V30 1374 C 130.24 -3.29417 -1.08099 0
M  V30 1375 C 129.301 -4.28025 -0.330577 0
M  V30 1376 C 128.534 -5.1852 -1.26385 0
M  V30 1377 O 128.757 -5.12598 -2.50198 0
M  V30 1378 O 127.691 -5.97122 -0.756866 0
M  V30 1379 H 131.517 -2.97033 0.632855 0
M  V30 1380 H 129.102 -1.4461 0.375293 0
M  V30 1381 H 130.984 -3.87958 -1.6452 0
M  V30 1382 H 129.659 -2.69321 -1.79577 0
M  V30 1383 H 128.566 -3.73078 0.276283 0
M  V30 1384 H 129.899 -4.90997 0.343866 0
M  V30 1385 N 131.551 -0.354651 -1.53558 0
M  V30 1386 C 132.461 0.50515 -2.29097 0
M  V30 1387 C 133.477 1.10223 -1.34636 0
M  V30 1388 O 134.653 1.11553 -1.67684 0
M  V30 1389 C 131.718 1.63479 -3.05738 0
M  V30 1390 C 130.779 1.06636 -4.15845 0
M  V30 1391 C 130.012 2.14217 -4.88822 0
M  V30 1392 O 130.235 3.35137 -4.61562 0
M  V30 1393 O 129.169 1.77887 -5.75013 0
M  V30 1394 H 132.995 -0.109237 -3.03503 0
M  V30 1395 H 130.58 -0.119357 -1.48922 0
M  V30 1396 H 132.462 2.2918 -3.5363 0
M  V30 1397 H 131.137 2.23478 -2.34178 0
M  V30 1398 H 130.044 0.373565 -3.7223 0
M  V30 1399 H 131.377 0.511081 -4.89539 0
M  V30 1400 N 133.029 1.57378 -0.0835403 0
M  V30 1401 C 133.976 2.13384 0.879539 0
M  V30 1402 C 134.946 1.04936 1.28754 0
M  V30 1403 O 136.131 1.32662 1.37133 0
M  V30 1404 C 133.271 2.70932 2.13752 0
M  V30 1405 C 132.384 3.93575 1.7811 0
M  V30 1406 C 131.519 4.39326 2.98607 0
M  V30 1407 C 130.558 5.54587 2.59037 0
M  V30 1408 N 129.695 5.95243 3.72331 0
M  V30 1409 H 134.535 2.9537 0.395076 0
M  V30 1410 H 132.072 1.45953 0.183349 0
M  V30 1411 H 134.03 3.02411 2.87408 0
M  V30 1412 H 132.66 1.91693 2.59718 0
M  V30 1413 H 131.712 3.68483 0.94469 0
M  V30 1414 H 133.024 4.77258 1.45005 0
M  V30 1415 H 132.178 4.72528 3.80529 0
M  V30 1416 H 130.917 3.5452 3.34913 0
M  V30 1417 H 129.922 5.21024 1.75539 0
M  V30 1418 H 131.147 6.41133 2.23887 0
M  V30 1419 H 129.093 5.13385 4.08378 0
M  V30 1420 H 129.01 6.73694 3.43034 0
M  V30 1421 H 130.278 6.33072 4.54797 0
M  V30 1422 N 134.507 -0.190092 1.56449 0
M  V30 1423 C 135.454 -1.23557 1.94942 0
M  V30 1424 C 136.424 -1.44972 0.810696 0
M  V30 1425 O 137.609 -1.58023 1.06927 0
M  V30 1426 C 134.749 -2.57416 2.2985 0
M  V30 1427 C 133.862 -2.43537 3.5681 0
M  V30 1428 C 132.997 -3.70134 3.81017 0
M  V30 1429 C 132.036 -3.51109 5.01387 0
M  V30 1430 N 131.173 -4.6973 5.21822 0
M  V30 1431 H 136.013 -0.900304 2.84075 0
M  V30 1432 H 133.55 -0.43318 1.40577 0
M  V30 1433 H 135.508 -3.35409 2.48106 0
M  V30 1434 H 134.138 -2.88975 1.43852 0
M  V30 1435 H 133.19 -1.56816 3.46573 0
M  V30 1436 H 134.502 -2.25415 4.4496 0
M  V30 1437 H 133.656 -4.56566 3.9954 0
M  V30 1438 H 132.395 -3.91215 2.91207 0
M  V30 1439 H 131.4 -2.63063 4.82782 0
M  V30 1440 H 132.625 -3.31468 5.9271 0
M  V30 1441 H 130.571 -4.91065 4.34961 0
M  V30 1442 H 130.488 -4.54452 6.0416 0
M  V30 1443 H 131.756 -5.57499 5.44808 0
M  V30 1444 N 135.985 -1.50799 -0.457987 0
M  V30 1445 C 137.225 -1.64088 -1.21879 0
M  V30 1446 C 137.589 -0.339848 -1.88968 0
M  V30 1447 O 138.79 -0.348301 -2.66534 0
M  V30 1448 C 137.061 -2.79726 -2.2246 0
M  V30 1449 S 138.62 -3.13225 -3.07303 0
M  V30 1450 H 135.438 -0.578314 -0.41361 0
M  V30 1451 H 138.04 -1.88632 -0.513645 0
M  V30 1452 H 136.744 -3.72722 -1.71775 0
M  V30 1453 H 136.275 -2.57308 -2.97584 0
M  V30 1454 H 138.29 -2.58062 -4.23814 0
M  V30 1455 N 137.463 0.71206 -1.40597 0
M  V30 1456 C 138.41 1.82613 -1.41142 0
M  V30 1457 C 139.38 1.63925 -0.267903 0
M  V30 1458 O 140.565 1.85009 -0.466495 0
M  V30 1459 C 137.705 3.20354 -1.28324 0
M  V30 1460 C 136.818 3.50589 -2.52411 0
M  V30 1461 C 135.953 4.77855 -2.32009 0
M  V30 1462 C 134.992 5.01005 -3.51654 0
M  V30 1463 N 134.129 6.19487 -3.30425 0
M  V30 1464 H 138.969 1.81482 -2.36365 0
M  V30 1465 H 136.506 0.886475 -1.17388 0
M  V30 1466 H 138.464 3.99899 -1.18899 0
M  V30 1467 H 137.094 3.20705 -0.367189 0
M  V30 1468 H 136.146 2.65573 -2.72351 0
M  V30 1469 H 137.458 3.63604 -3.41458 0
M  V30 1470 H 136.612 5.65424 -2.19956 0
M  V30 1471 H 135.351 4.67056 -1.40392 0
M  V30 1472 H 134.356 4.1189 -3.64179 0
M  V30 1473 H 135.581 5.13674 -4.44202 0
M  V30 1474 H 133.527 6.09932 -2.41494 0
M  V30 1475 H 133.444 6.33194 -4.13039 0
M  V30 1476 H 134.712 7.09834 -3.22113 0
M  V30 1477 N 138.941 1.26152 0.944643 0
M  V30 1478 C 140.189 1.11271 1.6871 0
M  V30 1479 C 140.51 -0.345166 1.91921 0
M  V30 1480 O 139.78 -1.24387 1.51343 0
M  V30 1481 H 138.36 0.408783 0.625224 0
M  V30 1482 H 141.022 1.58427 1.1352 0
M  V30 1483 H 140.118 1.62879 2.66227 0
M  V30 1484 N 140.419 -1.14872 1.07899 0
M  V30 1485 C 141.649 -1.89386 0.825631 0
M  V30 1486 C 142.057 -1.78565 -0.625406 0
M  V30 1487 O 141.4 -1.13918 -1.44113 0
M  V30 1488 C 141.462 -3.40206 1.16191 0
M  V30 1489 C 141.126 -3.74812 2.61467 0
M  V30 1490 C 142.123 -3.75367 3.59716 0
M  V30 1491 C 139.808 -4.0495 2.97189 0
M  V30 1492 C 141.802 -4.05574 4.9172 0
M  V30 1493 C 139.489 -4.34821 4.29388 0
M  V30 1494 C 140.487 -4.35116 5.26463 0
M  V30 1495 O 140.175 -4.64267 6.56286 0
M  V30 1496 H 139.907 -0.606894 0.297751 0
M  V30 1497 H 142.461 -1.46438 1.44031 0
M  V30 1498 H 140.691 -3.8358 0.490214 0
M  V30 1499 H 142.38 -3.96018 0.890193 0
M  V30 1500 H 143.146 -3.52176 3.33462 0
M  V30 1501 H 139.025 -4.03876 2.22273 0
M  V30 1502 H 142.569 -4.05719 5.67484 0
M  V30 1503 H 138.466 -4.5748 4.55392 0
M  V30 1504 H 139.234 -4.82007 6.61522 0
M  V30 1505 N 141.898 -0.863906 -1.31812 0
M  V30 1506 C 143.147 -0.46801 -1.96195 0
M  V30 1507 C 143.46 0.983474 -1.69077 0
M  V30 1508 O 144.666 1.48523 -2.27273 0
M  V30 1509 C 143.122 -0.785995 -3.51212 0
M  V30 1510 C 142.73 -2.25383 -3.87178 0
M  V30 1511 C 144.474 -0.458274 -4.22019 0
M  V30 1512 C 142.381 -2.51455 -5.3528 0
M  V30 1513 H 141.311 -0.171283 -0.734287 0
M  V30 1514 H 143.962 -1.05597 -1.50072 0
M  V30 1515 H 142.344 -0.127359 -3.95795 0
M  V30 1516 H 143.518 -2.95502 -3.53575 0
M  V30 1517 H 141.833 -2.54698 -3.2942 0
M  V30 1518 H 144.43 -0.630369 -5.30971 0
M  V30 1519 H 144.773 0.600834 -4.11941 0
M  V30 1520 H 145.306 -1.07319 -3.8305 0
M  V30 1521 H 142.045 -3.56025 -5.50387 0
M  V30 1522 H 141.565 -1.85923 -5.70257 0
M  V30 1523 H 143.244 -2.35874 -6.02472 0
M  V30 1524 N 143.376 1.44774 -0.622745 0
M  V30 1525 C 144.787 1.85546 -0.207226 0
M  V30 1526 C 145.138 1.52093 1.23944 0
M  V30 1527 O 144.263 0.95492 1.94191 0
M  V30 1528 C 144.858 3.36781 -0.369313 0
M  V30 1529 C 143.417 3.76399 -0.00836847 0
M  V30 1530 C 142.564 2.68664 -0.686651 0
M  V30 1531 H 145.515 1.3536 -0.828454 0
M  V30 1532 H 145.536 3.78453 0.394162 0
M  V30 1533 H 145.048 3.61098 -1.42231 0
M  V30 1534 H 143.149 3.57698 1.04322 0
M  V30 1535 H 143.262 4.7732 -0.412584 0
M  V30 1536 H 141.626 2.54404 -0.122777 0
M  V30 1537 H 142.409 2.95815 -1.74208 0
M  V30 1538 N 144.854 0.36279 1.53368 0
M  V30 1539 C 146.079 -0.231226 2.06107 0
M  V30 1540 C 146.504 -1.419 1.23474 0
M  V30 1541 O 145.862 -1.79524 0.253128 0
M  V30 1542 C 145.91 -0.605523 3.5548 0
M  V30 1543 O 145.014 -1.70312 3.7559 0
M  V30 1544 H 144.355 -0.034327 0.663112 0
M  V30 1545 H 146.885 0.522584 1.97814 0
M  V30 1546 H 146.895 -0.877314 3.98456 0
M  V30 1547 H 145.57 0.263004 4.15068 0
M  V30 1548 H 144.147 -1.4271 3.44512 0
M  V30 1549 N 146.332 -1.57332 0.0918853 0
M  V30 1550 C 147.562 -1.98286 -0.580205 0
M  V30 1551 C 147.97 -0.969713 -1.6246 0
M  V30 1552 O 147.313 0.0493501 -1.83634 0
M  V30 1553 C 147.375 -3.35603 -1.28882 0
M  V30 1554 C 147.039 -4.55285 -0.395559 0
M  V30 1555 C 148.036 -5.18687 0.355002 0
M  V30 1556 C 145.721 -5.01314 -0.314556 0
M  V30 1557 C 147.715 -6.26484 1.17458 0
M  V30 1558 C 145.402 -6.08979 0.508677 0
M  V30 1559 C 146.4 -6.71429 1.2519 0
M  V30 1560 O 146.088 -7.77018 2.06151 0
M  V30 1561 H 145.82 -0.656678 -0.160466 0
M  V30 1562 H 148.374 -2.04721 0.16688 0
M  V30 1563 H 146.604 -3.25842 -2.08241 0
M  V30 1564 H 148.293 -3.61026 -1.85512 0
M  V30 1565 H 149.059 -4.84058 0.302134 0
M  V30 1566 H 144.938 -4.5247 -0.882697 0
M  V30 1567 H 148.482 -6.75159 1.75518 0
M  V30 1568 H 144.379 -6.4304 0.563037 0
M  V30 1569 H 145.147 -7.93991 1.98799 0
M  V30 1570 N 147.81 0.181792 -1.56548 0
M  V30 1571 C 148.74 1.22765 -1.98623 0
M  V30 1572 C 149.721 1.46747 -0.860189 0
M  V30 1573 O 150.906 1.58259 -1.12551 0
M  V30 1574 C 148.036 2.56894 -2.33715 0
M  V30 1575 C 146.99 2.475 -3.49182 0
M  V30 1576 C 146.316 3.86023 -3.69986 0
M  V30 1577 C 147.616 1.98866 -4.82959 0
M  V30 1578 H 149.31 0.877942 -2.86239 0
M  V30 1579 H 146.856 0.42088 -1.37712 0
M  V30 1580 H 148.809 3.30253 -2.61746 0
M  V30 1581 H 147.533 2.93632 -1.42997 0
M  V30 1582 H 146.192 1.76596 -3.21262 0
M  V30 1583 H 145.84 4.20136 -2.76576 0
M  V30 1584 H 145.54 3.80609 -4.47672 0
M  V30 1585 H 147.064 4.60984 -4.00407 0
M  V30 1586 H 148.478 2.61992 -5.09934 0
M  V30 1587 H 146.875 2.04424 -5.64208 0
M  V30 1588 H 147.945 0.942465 -4.75653 0
M  V30 1589 N 149.288 1.51039 0.449983 0
M  V30 1590 C 150.565 1.53612 1.21089 0
M  V30 1591 C 150.945 0.292997 2.09057 0
M  V30 1592 O 150.293 -0.72259 2.16774 0
M  V30 1593 C 150.503 2.84337 2.0237 0
M  V30 1594 C 151.851 3.35807 2.59843 0
M  V30 1595 O 152.875 2.85802 2.12593 0
M  V30 1596 O 151.734 4.23029 3.45989 0
M  V30 1597 H 148.828 0.617057 0.550608 0
M  V30 1598 H 151.374 1.63344 0.460082 0
M  V30 1599 H 150.146 3.66278 1.37681 0
M  V30 1600 H 149.769 2.77708 2.84542 0
M  V30 1601 N 150.766 -0.704594 1.40972 0
M  V30 1602 C 151.713 -1.81862 1.42109 0
M  V30 1603 C 152.683 -1.63781 0.276593 0
M  V30 1604 O 153.868 -1.84759 0.4763 0
M  V30 1605 C 151.008 -3.19669 1.30022 0
M  V30 1606 C 150.121 -3.49246 2.54267 0
M  V30 1607 C 149.256 -4.76618 2.3454 0
M  V30 1608 C 148.295 -4.99133 3.54306 0
M  V30 1609 N 147.432 -6.17726 3.33706 0
M  V30 1610 H 152.272 -1.80226 2.37324 0
M  V30 1611 H 149.809 -0.880238 1.17857 0
M  V30 1612 H 151.767 -3.99263 1.21018 0
M  V30 1613 H 150.397 -3.20506 0.384192 0
M  V30 1614 H 149.449 -2.64125 2.73756 0
M  V30 1615 H 150.761 -3.61788 3.43381 0
M  V30 1616 H 149.915 -5.64249 2.22952 0
M  V30 1617 H 148.654 -4.66305 1.42867 0
M  V30 1618 H 147.659 -4.09953 3.66359 0
M  V30 1619 H 148.884 -5.11311 4.4692 0
M  V30 1620 H 146.83 -6.08642 2.44725 0
M  V30 1621 H 146.747 -6.30995 4.16391 0
M  V30 1622 H 148.015 -7.08115 3.25873 0
M  V30 1623 N 152.244 -1.26651 -0.937939 0
M  V30 1624 C 153.521 -1.0313 -1.66204 0
M  V30 1625 C 153.901 0.437256 -2.06522 0
M  V30 1626 O 153.249 1.41831 -1.79154 0
M  V30 1627 C 153.459 -1.98314 -2.87181 0
M  V30 1628 C 154.807 -2.27107 -3.58758 0
M  V30 1629 O 155.831 -1.96205 -2.97291 0
M  V30 1630 O 154.69 -2.79736 -4.69479 0
M  V30 1631 H 151.784 -0.392384 -0.727986 0
M  V30 1632 H 154.33 -1.37874 -0.989382 0
M  V30 1633 H 153.102 -2.97399 -2.54302 0
M  V30 1634 H 152.725 -1.64068 -3.6217 0
M  V30 1635 N 153.722 1.14298 -1.08507 0
M  V30 1636 C 154.632 2.23027 -0.727753 0
M  V30 1637 C 155.648 1.71952 0.26619 0
M  V30 1638 O 156.824 2.011 0.109882 0
M  V30 1639 C 153.889 3.46403 -0.143541 0
M  V30 1640 C 152.95 4.12413 -1.19223 0
M  V30 1641 C 152.183 5.29899 -0.635798 0
M  V30 1642 O 152.406 5.67796 0.544393 0
M  V30 1643 O 151.34 5.85717 -1.38634 0
M  V30 1644 H 155.166 2.55945 -1.63481 0
M  V30 1645 H 152.751 1.22248 -0.858817 0
M  V30 1646 H 154.633 4.21018 0.179404 0
M  V30 1647 H 153.308 3.15206 0.736659 0
M  V30 1648 H 152.215 3.39667 -1.56772 0
M  V30 1649 H 153.548 4.47718 -2.04474 0
M  V30 1650 N 155.201 0.870884 1.31352 0
M  V30 1651 C 156.131 0.343096 2.30966 0
M  V30 1652 C 157.112 -0.566507 1.60389 0
M  V30 1653 O 158.297 -0.483336 1.88089 0
M  V30 1654 C 155.427 -0.455487 3.443 0
M  V30 1655 C 154.381 0.361103 4.26474 0
M  V30 1656 C 153.707 -0.563221 5.31725 0
M  V30 1657 C 155.007 1.59566 4.97329 0
M  V30 1658 H 156.701 1.17548 2.75359 0
M  V30 1659 H 154.247 0.566686 1.32381 0
M  V30 1660 H 156.2 -0.83525 4.13039 0
M  V30 1661 H 154.924 -1.32139 2.98675 0
M  V30 1662 H 153.583 0.722825 3.59403 0
M  V30 1663 H 153.231 -1.42643 4.82351 0
M  V30 1664 H 152.931 -0.0207409 5.87596 0
M  V30 1665 H 154.455 -0.939808 6.03324 0
M  V30 1666 H 155.869 1.28728 5.58661 0
M  V30 1667 H 154.266 2.07728 5.63 0
M  V30 1668 H 155.336 2.34798 4.24262 0
M  V30 1669 N 156.679 -1.44442 0.630414 0
M  V30 1670 C 157.919 -2.03934 0.137919 0
M  V30 1671 C 158.283 -1.48509 -1.21692 0
M  V30 1672 O 159.484 -1.99499 -1.80149 0
M  V30 1673 C 157.755 -3.57187 0.123373 0
M  V30 1674 S 159.314 -4.37741 -0.304604 0
M  V30 1675 H 156.132 -0.708401 0.0607353 0
M  V30 1676 H 158.734 -1.76835 0.833643 0
M  V30 1677 H 157.438 -3.95032 1.11256 0
M  V30 1678 H 156.969 -3.88895 -0.59362 0
M  V30 1679 H 158.984 -4.71403 -1.54897 0
M  V30 1680 N 158.157 -0.370918 -1.53173 0
M  V30 1681 C 159.403 0.217423 -2.01631 0
M  V30 1682 C 159.736 1.47983 -1.25756 0
M  V30 1683 O 159.011 1.91274 -0.352764 0
M  V30 1684 C 159.294 0.503982 -3.56556 0
M  V30 1685 C 159.147 -0.77243 -4.43118 0
M  V30 1686 C 160.466 1.30234 -4.20389 0
M  V30 1687 H 157.585 0.0775486 -0.732909 0
M  V30 1688 H 160.227 -0.496863 -1.83388 0
M  V30 1689 H 158.377 1.11248 -3.72231 0
M  V30 1690 H 160.049 -1.4098 -4.39229 0
M  V30 1691 H 158.292 -1.39167 -4.10871 0
M  V30 1692 H 158.963 -0.526815 -5.4948 0
M  V30 1693 H 161.439 0.787546 -4.08579 0
M  V30 1694 H 160.315 1.47158 -5.28806 0
M  V30 1695 H 160.576 2.31237 -3.76805 0
M  V30 1696 N 159.635 1.57281 -0.100228 0
M  V30 1697 C 160.881 1.94826 0.563101 0
M  V30 1698 C 161.214 0.982475 1.67514 0
M  V30 1699 O 160.489 0.0164069 1.94493 0
M  V30 1700 C 160.772 3.42453 1.11346 0
M  V30 1701 C 160.625 4.498 0.00612081 0
M  V30 1702 C 161.944 3.91506 2.01024 0
M  V30 1703 H 159.063 0.708428 0.203221 0
M  V30 1704 H 161.705 1.8922 -0.171979 0
M  V30 1705 H 159.855 3.47361 1.7399 0
M  V30 1706 H 161.527 4.57 -0.628357 0
M  V30 1707 H 159.77 4.28756 -0.659581 0
M  V30 1708 H 160.441 5.50306 0.432109 0
M  V30 1709 H 162.917 3.88784 1.48278 0
M  V30 1710 H 161.793 4.95358 2.36457 0
M  V30 1711 H 162.054 3.31099 2.92961 0
M  V30 1712 N 161.113 -0.173488 1.56642 0
M  V30 1713 C 162.353 -0.896984 1.83667 0
M  V30 1714 C 162.717 -1.79523 0.680842 0
M  V30 1715 O 163.918 -2.55616 0.831488 0
M  V30 1716 C 162.189 -1.67351 3.15798 0
M  V30 1717 S 163.748 -2.44607 3.64298 0
M  V30 1718 H 160.566 -0.300464 0.644393 0
M  V30 1719 H 163.168 -0.158775 1.94854 0
M  V30 1720 H 161.872 -1.00462 3.97914 0
M  V30 1721 H 161.403 -2.45313 3.07546 0
M  V30 1722 H 163.418 -3.69261 3.31452 0
M  V30 1723 N 162.591 -1.51276 -0.441967 0
M  V30 1724 C 163.839 -1.63392 -1.18943 0
M  V30 1725 C 164.16 -0.350159 -1.9183 0
M  V30 1726 O 163.43 0.633784 -1.85364 0
M  V30 1727 H 162.01 -0.602164 -0.442049 0
M  V30 1728 H 164.672 -1.88186 -0.507165 0
M  V30 1729 H 163.768 -2.45934 -1.92154 0
M  V30 1730 N 164.069 0.697108 -1.41344 0
M  V30 1731 C 165.346 1.45154 -1.31109 0
M  V30 1732 C 165.726 2.11009 0.0620449 0
M  V30 1733 O 165.074 2.01571 1.07618 0
M  V30 1734 C 165.284 2.47223 -2.46337 0
M  V30 1735 C 166.632 3.1252 -2.87431 0
M  V30 1736 O 167.656 2.57547 -2.46065 0
M  V30 1737 O 166.515 4.12083 -3.58957 0
M  V30 1738 H 163.609 0.646365 -0.515889 0
M  V30 1739 H 166.155 0.727716 -1.53305 0
M  V30 1740 H 164.927 1.97204 -3.37974 0
M  V30 1741 H 164.55 3.27116 -2.2601 0
M  V30 1742 N 165.547 1.27147 0.931209 0
M  V30 1743 C 166.494 1.09568 2.03134 0
M  V30 1744 C 167.464 -0.00222433 1.661 0
M  V30 1745 O 168.649 0.159439 1.90133 0
M  V30 1746 C 165.789 0.745231 3.36957 0
M  V30 1747 C 164.902 1.92041 3.86968 0
M  V30 1748 C 164.037 1.51216 5.09222 0
M  V30 1749 C 163.076 2.65504 5.5152 0
M  V30 1750 N 162.213 2.25291 6.64972 0
M  V30 1751 H 167.053 2.03708 2.17502 0
M  V30 1752 H 164.59 1.01411 1.06556 0
M  V30 1753 H 166.548 0.522878 4.1391 0
M  V30 1754 H 165.178 -0.159202 3.22407 0
M  V30 1755 H 164.23 2.25541 3.06326 0
M  V30 1756 H 165.542 2.77787 4.1429 0
M  V30 1757 H 164.696 1.25084 5.93666 0
M  V30 1758 H 163.435 0.625749 4.83669 0
M  V30 1759 H 162.44 2.92354 4.65628 0
M  V30 1760 H 163.665 3.54761 5.7907 0
M  V30 1761 H 161.611 1.39098 6.41083 0
M  V30 1762 H 161.528 3.04577 6.91931 0
M  V30 1763 H 162.796 2.02398 7.52765 0
M  V30 1764 N 167.025 -1.13721 1.09112 0
M  V30 1765 C 167.988 -2.17222 0.731241 0
M  V30 1766 C 168.988 -1.59035 -0.237566 0
M  V30 1767 O 170.178 -1.74192 -0.0161704 0
M  V30 1768 C 167.31 -3.40804 0.0808443 0
M  V30 1769 H 168.503 -2.50573 1.64783 0
M  V30 1770 H 166.056 -1.28493 0.889897 0
M  V30 1771 H 166.791 -3.1304 -0.847127 0
M  V30 1772 H 166.576 -3.84306 0.777896 0
M  V30 1773 H 168.066 -4.1731 -0.155657 0
M  V30 1774 N 168.503 -0.877838 -1.30888 0
M  V30 1775 C 169.731 -0.507414 -2.00581 0
M  V30 1776 C 170.146 0.902216 -1.65848 0
M  V30 1777 O 169.503 1.59225 -0.891831 0
M  V30 1778 C 169.554 -0.664162 -3.55347 0
M  V30 1779 O 169.275 -2.01829 -3.8884 0
M  V30 1780 C 170.776 -0.295787 -4.42312 0
M  V30 1781 H 167.996 -0.196866 -0.641471 0
M  V30 1782 H 170.54 -1.18117 -1.66939 0
M  V30 1783 H 168.695 -0.0378619 -3.87381 0
M  V30 1784 H 169.109 -2.03174 -4.8355 0
M  V30 1785 H 170.583 -0.456388 -5.5011 0
M  V30 1786 H 171.06 0.765663 -4.32475 0
M  V30 1787 H 171.666 -0.898113 -4.15709 0
M  V30 1788 N 169.982 1.44106 -0.638065 0
M  V30 1789 C 171.23 2.01579 -0.145043 0
M  V30 1790 C 171.551 1.50496 1.24 0
M  V30 1791 O 170.821 0.711374 1.82527 0
M  V30 1792 H 169.401 0.745282 -0.05063 0
M  V30 1793 H 172.063 1.76516 -0.826327 0
M  V30 1794 H 171.159 3.11877 -0.118039 0
M  V30 1795 N 171.46 0.379036 1.52974 0
M  V30 1796 C 172.69 -0.20649 2.05566 0
M  V30 1797 C 173.098 -1.41906 1.25137 0
M  V30 1798 O 172.441 -1.81421 0.288464 0
M  V30 1799 C 172.503 -0.651086 3.53555 0
M  V30 1800 C 172.167 0.446626 4.54812 0
M  V30 1801 C 173.164 1.30079 5.03364 0
M  V30 1802 C 170.849 0.610719 4.98573 0
M  V30 1803 C 172.843 2.30426 5.94292 0
M  V30 1804 C 170.53 1.61754 5.89304 0
M  V30 1805 C 171.528 2.46274 6.37054 0
M  V30 1806 O 171.216 3.45237 7.25994 0
M  V30 1807 H 170.948 -0.0372381 0.674974 0
M  V30 1808 H 173.502 0.539718 1.98182 0
M  V30 1809 H 171.732 -1.44911 3.58522 0
M  V30 1810 H 173.421 -1.16112 3.88938 0
M  V30 1811 H 174.187 1.18527 4.70294 0
M  V30 1812 H 170.066 -0.0374044 4.60985 0
M  V30 1813 H 173.61 2.96432 6.31485 0
M  V30 1814 H 169.507 1.73348 6.21788 0
M  V30 1815 H 170.275 3.41124 7.44027 0
M  V30 1816 N 172.938 -1.57226 0.108567 0
M  V30 1817 C 173.888 -2.11305 -0.856396 0
M  V30 1818 C 174.872 -1.03129 -1.23504 0
M  V30 1819 O 176.064 -1.29381 -1.20787 0
M  V30 1820 C 173.193 -2.70771 -2.11041 0
M  V30 1821 C 172.279 -3.86011 -1.7566 0
M  V30 1822 N 172.67 -4.93492 -1.10902 0
M  V30 1823 C 170.968 -3.95999 -2.05185 0
M  V30 1824 C 171.669 -5.73984 -0.944308 0
M  V30 1825 N 170.645 -5.2346 -1.46596 0
M  V30 1826 H 174.447 -2.91784 -0.352002 0
M  V30 1827 H 171.961 -1.62126 -0.0942324 0
M  V30 1828 H 173.958 -3.07851 -2.81128 0
M  V30 1829 H 172.618 -1.91751 -2.62034 0
M  V30 1830 H 173.629 -5.1208 -0.774235 0
M  V30 1831 H 170.306 -3.28007 -2.58298 0
M  V30 1832 H 171.696 -6.70479 -0.436813 0
M  V30 1833 N 174.416 0.165178 -1.56732 0
M  V30 1834 C 175.646 0.894919 -1.86212 0
M  V30 1835 C 176.054 1.76066 -0.692627 0
M  V30 1836 O 175.397 1.80387 0.347303 0
M  V30 1837 C 175.459 1.8174 -3.10179 0
M  V30 1838 C 175.123 1.13064 -4.42793 0
M  V30 1839 C 176.12 0.493169 -5.17556 0
M  V30 1840 C 173.805 1.12556 -4.89527 0
M  V30 1841 C 175.799 -0.140209 -6.37246 0
M  V30 1842 C 173.486 0.488366 -6.09145 0
M  V30 1843 C 174.484 -0.143411 -6.82849 0
M  V30 1844 O 174.172 -0.77055 -8.00199 0
M  V30 1845 H 173.904 0.265114 -0.621844 0
M  V30 1846 H 176.458 0.168242 -2.0471 0
M  V30 1847 H 174.688 2.58455 -2.87642 0
M  V30 1848 H 176.377 2.4175 -3.26055 0
M  V30 1849 H 177.143 0.489023 -4.82528 0
M  V30 1850 H 173.022 1.60672 -4.32094 0
M  V30 1851 H 176.566 -0.633932 -6.94714 0
M  V30 1852 H 172.463 0.490116 -6.43637 0
M  V30 1853 H 173.231 -0.670408 -8.1575 0
M  V30 1854 N 175.894 1.51508 0.433938 0
M  V30 1855 C 177.31 1.39759 0.770682 0
M  V30 1856 C 177.51 0.482594 1.95636 0
M  V30 1857 O 176.566 -0.0609691 2.52426 0
M  V30 1858 C 177.879 2.81851 1.04787 0
M  V30 1859 C 179.427 2.91025 1.1521 0
M  V30 1860 C 179.902 4.34032 1.46219 0
M  V30 1861 N 181.393 4.37154 1.53136 0
M  V30 1862 C 182.128 5.4484 1.78709 0
M  V30 1863 N 181.624 6.62682 2.02051 0
M  V30 1864 N 183.417 5.32324 1.80519 0
M  V30 1865 H 175.568 2.09548 -0.346892 0
M  V30 1866 H 177.831 0.943446 -0.0928074 0
M  V30 1867 H 177.537 3.50815 0.249304 0
M  V30 1868 H 177.411 3.21386 1.97461 0
M  V30 1869 H 179.798 2.22257 1.94128 0
M  V30 1870 H 179.879 2.54983 0.204281 0
M  V30 1871 H 179.523 5.03351 0.678274 0
M  V30 1872 H 179.453 4.6759 2.42212 0
M  V30 1873 H 181.944 3.52197 1.36987 0
M  V30 1874 H 182.257 7.40543 2.20943 0
M  V30 1875 H 180.602 6.65791 1.99366 0
M  V30 1876 H 183.793 4.39246 1.61805 0
M  V30 1877 H 183.966 6.16328 2.00111 0
M  V30 1878 N 177.372 -0.689602 1.41712 0
M  V30 1879 C 178.612 -1.46184 1.42862 0
M  V30 1880 C 178.976 -1.91962 0.0382204 0
M  V30 1881 O 180.177 -2.68694 -0.0755019 0
M  V30 1882 C 178.448 -2.6371 2.4123 0
M  V30 1883 S 180.007 -3.52768 2.6096 0
M  V30 1884 H 176.825 -0.49947 0.506015 0
M  V30 1885 H 179.427 -0.804107 1.78198 0
M  V30 1886 H 178.131 -2.28293 3.41044 0
M  V30 1887 H 177.662 -3.3437 2.07269 0
M  V30 1888 H 179.677 -4.59146 1.88148 0
M  V30 1889 N 178.85 -1.27639 -0.924453 0
M  V30 1890 C 180.099 -1.13549 -1.66702 0
M  V30 1891 C 180.412 0.317487 -1.93006 0
M  V30 1892 O 181.618 0.579333 -2.65247 0
M  V30 1893 C 180.074 -1.98426 -3.00259 0
M  V30 1894 C 179.682 -3.484 -2.81641 0
M  V30 1895 C 181.426 -1.92993 -3.78092 0
M  V30 1896 C 179.333 -4.25464 -4.10773 0
M  V30 1897 H 178.263 -0.421351 -0.625283 0
M  V30 1898 H 180.914 -1.52085 -1.02676 0
M  V30 1899 H 179.296 -1.52736 -3.6536 0
M  V30 1900 H 180.47 -4.01973 -2.25287 0
M  V30 1901 H 178.785 -3.55245 -2.17232 0
M  V30 1902 H 181.382 -2.47844 -4.7379 0
M  V30 1903 H 181.725 -0.904281 -4.0636 0
M  V30 1904 H 182.258 -2.36595 -3.19793 0
M  V30 1905 H 178.997 -5.28566 -3.87683 0
M  V30 1906 H 178.517 -3.76667 -4.66779 0
M  V30 1907 H 180.196 -4.34812 -4.79111 0
M  V30 1908 N 180.328 1.1314 -1.09713 0
M  V30 1909 C 181.556 1.88321 -0.856898 0
M  V30 1910 C 181.971 1.79276 0.592073 0
M  V30 1911 O 181.328 1.16142 1.40774 0
M  V30 1912 C 181.379 3.37812 -1.28706 0
M  V30 1913 O 181.1 3.46627 -2.67921 0
M  V30 1914 C 182.601 4.29952 -1.07964 0
M  V30 1915 H 179.821 0.596094 -0.308079 0
M  V30 1916 H 182.365 1.43205 -1.45988 0
M  V30 1917 H 180.52 3.805 -0.727912 0
M  V30 1918 H 180.934 4.39579 -2.8613 0
M  V30 1919 H 182.408 5.33159 -1.42986 0
M  V30 1920 H 182.885 4.39196 -0.0176577 0
M  V30 1921 H 183.491 3.93036 -1.62489 0
M  V30 1922 N 181.806 0.884767 1.30421 0
M  V30 1923 C 183.046 0.509806 1.9794 0
M  V30 1924 C 183.41 -0.923736 1.68319 0
M  V30 1925 O 184.611 -1.40481 2.29169 0
M  V30 1926 C 182.882 0.776732 3.48858 0
M  V30 1927 S 184.441 0.503843 4.35898 0
M  V30 1928 H 181.259 0.189699 0.685227 0
M  V30 1929 H 183.861 1.14399 1.58535 0
M  V30 1930 H 182.565 1.81857 3.67908 0
M  V30 1931 H 182.096 0.1301 3.93185 0
M  V30 1932 H 184.111 -0.657625 4.91823 0
M  V30 1933 N 183.284 -1.43765 0.645699 0
M  V30 1934 C 184.194 -2.34544 -0.0512957 0
M  V30 1935 C 185.21 -1.53455 -0.82022 0
M  V30 1936 O 186.386 -1.86133 -0.769176 0
M  V30 1937 C 183.451 -3.31636 -1.01087 0
M  V30 1938 C 182.512 -4.2863 -0.239712 0
M  V30 1939 C 181.745 -5.21084 -1.15358 0
M  V30 1940 O 181.968 -5.1779 -2.39269 0
M  V30 1941 O 180.902 -5.98593 -0.630038 0
M  V30 1942 H 184.728 -2.95624 0.695718 0
M  V30 1943 H 182.313 -1.43781 0.405882 0
M  V30 1944 H 184.195 -3.9136 -1.56254 0
M  V30 1945 H 182.87 -2.73069 -1.73824 0
M  V30 1946 H 181.777 -3.72408 0.355356 0
M  V30 1947 H 183.11 -4.90157 0.447936 0
M  V30 1948 N 184.763 -0.387143 -1.52771 0
M  V30 1949 C 186.011 0.195349 -2.01154 0
M  V30 1950 C 186.332 1.475 -1.27549 0
M  V30 1951 O 185.602 1.91878 -0.394924 0
M  V30 1952 H 184.182 0.075178 -0.743207 0
M  V30 1953 H 186.844 -0.518337 -1.87881 0
M  V30 1954 H 185.94 0.407096 -3.09434 0
M  V30 1955 N 186.241 1.57166 -0.116904 0
M  V30 1956 C 187.481 1.97008 0.544715 0
M  V30 1957 C 187.845 0.998713 1.63981 0
M  V30 1958 O 189.046 1.28644 2.36018 0
M  V30 1959 C 187.317 3.41145 1.06559 0
M  V30 1960 S 188.876 4.02998 1.73603 0
M  V30 1961 H 185.694 0.688587 0.177112 0
M  V30 1962 H 188.296 1.94459 -0.201487 0
M  V30 1963 H 187 4.09592 0.257374 0
M  V30 1964 H 186.531 3.4734 1.84712 0
M  V30 1965 H 188.546 3.93585 3.02168 0
M  V30 1966 N 187.719 -0.156864 1.56817 0
M  V30 1967 C 188.666 -1.19394 1.97519 0
M  V30 1968 C 189.636 -1.4322 0.841265 0
M  V30 1969 O 190.821 -1.55719 1.10255 0
M  V30 1970 C 187.961 -2.52483 2.35258 0
M  V30 1971 C 187.074 -2.35914 3.61896 0
M  V30 1972 C 186.209 -3.61969 3.88782 0
M  V30 1973 C 185.248 -3.40395 5.08722 0
M  V30 1974 N 184.385 -4.58556 5.31668 0
M  V30 1975 H 189.225 -0.839845 2.85921 0
M  V30 1976 H 186.762 -0.403264 1.41464 0
M  V30 1977 H 188.72 -3.30071 2.55165 0
M  V30 1978 H 187.35 -2.85859 1.49949 0
M  V30 1979 H 186.402 -1.49429 3.49821 0
M  V30 1980 H 187.714 -2.15926 4.49641 0
M  V30 1981 H 186.868 -4.47989 4.09135 0
M  V30 1982 H 185.607 -3.84951 2.9944 0
M  V30 1983 H 184.612 -2.52763 4.88253 0
M  V30 1984 H 185.837 -3.18822 5.99608 0
M  V30 1985 H 183.783 -4.81729 4.45279 0
M  V30 1986 H 183.7 -4.41535 6.13664 0
M  V30 1987 H 184.968 -5.45817 5.5651 0
M  V30 1988 N 189.197 -1.51736 -0.425897 0
M  V30 1989 C 190.445 -1.64644 -1.17204 0
M  V30 1990 C 190.766 -0.370486 -1.91448 0
M  V30 1991 O 190.036 0.614088 -1.86026 0
M  V30 1992 H 188.616 -0.606819 -0.435638 0
M  V30 1993 H 191.278 -1.88713 -0.487177 0
M  V30 1994 H 190.374 -2.47958 -1.89534 0
M  V30 1995 N 190.675 0.682077 -1.42076 0
M  V30 1996 C 191.922 1.44215 -1.42156 0
M  V30 1997 C 192.25 1.94468 -0.0354186 0
M  V30 1998 O 191.505 1.70816 0.955002 0
M  V30 1999 C 191.804 2.66036 -2.38662 0
M  V30 2000 C 191.47 2.34366 -3.85206 0
M  V30 2001 C 190.132 2.25439 -4.25124 0
M  V30 2002 C 192.484 2.08513 -4.77673 0
M  V30 2003 C 189.812 1.88775 -5.55501 0
M  V30 2004 C 192.164 1.73354 -6.08384 0
M  V30 2005 C 190.828 1.62933 -6.47309 0
M  V30 2006 H 190.098 0.527718 -0.520187 0
M  V30 2007 H 192.745 0.778387 -1.74967 0
M  V30 2008 H 191.05 3.3741 -1.99152 0
M  V30 2009 H 192.747 3.24205 -2.35991 0
M  V30 2010 H 189.337 2.42213 -3.53597 0
M  V30 2011 H 193.521 2.14346 -4.47626 0
M  V30 2012 H 188.777 1.7927 -5.84527 0
M  V30 2013 H 192.951 1.52373 -6.79526 0
M  V30 2014 H 190.578 1.34292 -7.48244 0
M  V30 2015 N 192.153 1.28127 0.917671 0
M  V30 2016 C 193.4 1.15052 1.66641 0
M  V30 2017 C 193.728 -0.301677 1.92146 0
M  V30 2018 O 192.983 -1.23622 1.51711 0
M  V30 2019 C 193.282 1.89018 3.03327 0
M  V30 2020 C 192.948 3.38832 2.97496 0
M  V30 2021 C 191.61 3.79693 2.95613 0
M  V30 2022 C 193.962 4.34378 2.88036 0
M  V30 2023 C 191.29 5.14447 2.82066 0
M  V30 2024 C 193.642 5.69201 2.7603 0
M  V30 2025 C 192.306 6.09343 2.72502 0
M  V30 2026 H 191.576 0.421006 0.609783 0
M  V30 2027 H 194.223 1.58855 1.06945 0
M  V30 2028 H 192.528 1.37752 3.66785 0
M  V30 2029 H 194.225 1.76321 3.60156 0
M  V30 2030 H 190.815 3.06342 2.99754 0
M  V30 2031 H 194.999 4.03775 2.88581 0
M  V30 2032 H 190.255 5.44681 2.77728 0
M  V30 2033 H 194.429 6.42901 2.67678 0
M  V30 2034 H 192.056 7.13712 2.61762 0
M  V30 2035 N 193.631 -1.12557 1.10312 0
M  V30 2036 C 195.047 -1.36036 0.834649 0
M  V30 2037 C 195.247 -1.93946 -0.546539 0
M  V30 2038 O 194.303 -2.16484 -1.29966 0
M  V30 2039 C 195.616 -2.30312 1.9333 0
M  V30 2040 C 197.164 -2.43906 1.9616 0
M  V30 2041 C 197.639 -3.41496 3.05195 0
M  V30 2042 N 199.13 -3.49053 3.04494 0
M  V30 2043 C 199.865 -4.24471 3.85502 0
M  V30 2044 N 199.361 -5.02966 4.76442 0
M  V30 2045 N 201.154 -4.19864 3.73725 0
M  V30 2046 H 193.305 -0.733246 1.99342 0
M  V30 2047 H 195.568 -0.385234 0.866198 0
M  V30 2048 H 195.274 -1.94933 2.92735 0
M  V30 2049 H 195.148 -3.30421 1.81939 0
M  V30 2050 H 197.535 -2.78567 0.973886 0
M  V30 2051 H 197.616 -1.4369 2.11629 0
M  V30 2052 H 197.26 -3.07565 4.04186 0
M  V30 2053 H 197.19 -4.41539 2.86968 0
M  V30 2054 H 199.681 -2.93053 2.38596 0
M  V30 2055 H 199.994 -5.57846 5.34815 0
M  V30 2056 H 198.339 -5.02167 4.80472 0
M  V30 2057 H 201.53 -3.57623 3.02032 0
M  V30 2058 H 201.703 -4.78386 4.37093 0
M  V30 2059 N 195.109 -0.891671 -1.2995 0
M  V30 2060 C 196.525 -0.58662 -1.48428 0
M  V30 2061 C 196.725 0.873951 -1.81561 0
M  V30 2062 O 195.781 1.65471 -1.90724 0
M  V30 2063 C 197.094 -1.50553 -2.60296 0
M  V30 2064 C 198.642 -1.50988 -2.74175 0
M  V30 2065 C 199.117 -2.41488 -3.89163 0
M  V30 2066 N 200.608 -2.39489 -3.96483 0
M  V30 2067 C 201.343 -3.06223 -4.84784 0
M  V30 2068 N 200.839 -3.82206 -5.77833 0
M  V30 2069 N 202.632 -2.95421 -4.78208 0
M  V30 2070 H 194.783 -1.83644 -1.06718 0
M  V30 2071 H 197.046 -0.786455 -0.529332 0
M  V30 2072 H 196.752 -2.54581 -2.42654 0
M  V30 2073 H 196.626 -1.22008 -3.56923 0
M  V30 2074 H 199.013 -0.47708 -2.91218 0
M  V30 2075 H 199.094 -1.83567 -1.78148 0
M  V30 2076 H 198.738 -3.44857 -3.72876 0
M  V30 2077 H 198.668 -2.06222 -4.84541 0
M  V30 2078 H 201.159 -1.84278 -3.29924 0
M  V30 2079 H 201.472 -4.302 -6.41988 0
M  V30 2080 H 199.817 -3.86313 -5.77743 0
M  V30 2081 H 203.008 -2.35581 -4.04499 0
M  V30 2082 H 203.181 -3.47704 -5.46814 0
M  V30 2083 N 196.587 1.43421 -0.653314 0
M  V30 2084 C 197.815 2.06163 -0.174491 0
M  V30 2085 C 198.23 1.48969 1.1599 0
M  V30 2086 O 197.587 0.621042 1.71608 0
M  V30 2087 C 197.638 3.61417 -0.0774865 0
M  V30 2088 O 197.359 4.16485 -1.35912 0
M  V30 2089 C 198.86 4.41235 0.427402 0
M  V30 2090 H 196.08 0.664946 -0.0899353 0
M  V30 2091 H 198.624 1.83924 -0.893988 0
M  V30 2092 H 196.779 3.82841 0.59257 0
M  V30 2093 H 197.193 5.10153 -1.21839 0
M  V30 2094 H 198.667 5.5021 0.44423 0
M  V30 2095 H 199.144 4.14268 1.45873 0
M  V30 2096 H 199.75 4.2478 -0.210167 0
M  V30 2097 N 198.065 0.39524 1.52563 0
M  V30 2098 C 199.314 -0.186321 2.00838 0
M  V30 2099 C 199.627 -1.47402 1.28577 0
M  V30 2100 O 200.833 -2.13599 1.67593 0
M  V30 2101 C 199.289 -0.382595 3.57861 0
M  V30 2102 C 198.897 0.892202 4.39026 0
M  V30 2103 C 200.641 -0.9202 4.14406 0
M  V30 2104 C 198.548 0.66388 5.87662 0
M  V30 2105 H 197.478 -0.0734041 0.750418 0
M  V30 2106 H 200.129 0.518552 1.76021 0
M  V30 2107 H 198.511 -1.14946 3.7895 0
M  V30 2108 H 199.685 1.66414 4.29701 0
M  V30 2109 H 198 1.35519 3.9373 0
M  V30 2110 H 200.597 -1.10683 5.23119 0
M  V30 2111 H 200.94 -1.89096 3.70875 0
M  V30 2112 H 201.473 -0.212751 3.97231 0
M  V30 2113 H 198.212 1.6058 6.35527 0
M  V30 2114 H 197.732 -0.0690193 5.9976 0
M  V30 2115 H 199.411 0.300699 6.46301 0
M  V30 2116 N 199.544 -1.57102 0.125237 0
M  V30 2117 C 200.476 -2.12726 -0.853237 0
M  V30 2118 C 201.489 -1.07145 -1.22571 0
M  V30 2119 O 202.678 -1.34497 -1.17358 0
M  V30 2120 C 199.778 -2.61709 -2.15317 0
M  V30 2121 C 198.951 -3.91456 -1.95143 0
M  V30 2122 C 198.01 -4.25973 -3.08923 0
M  V30 2123 O 197.036 -4.94682 -2.81564 0
M  V30 2124 N 198.238 -3.83795 -4.35524 0
M  V30 2125 H 201.003 -2.97307 -0.377964 0
M  V30 2126 H 198.564 -1.61792 -0.0590011 0
M  V30 2127 H 200.556 -2.81826 -2.90441 0
M  V30 2128 H 199.126 -1.81974 -2.54174 0
M  V30 2129 H 198.346 -3.80185 -1.04177 0
M  V30 2130 H 199.634 -4.76283 -1.78976 0
M  V30 2131 H 199.032 -3.2839 -4.60626 0
M  V30 2132 H 197.589 -4.09008 -5.07499 0
M  V30 2133 N 201.022 0.148545 -1.56898 0
M  V30 2134 C 201.969 1.18345 -1.98149 0
M  V30 2135 C 202.939 1.42772 -0.848848 0
M  V30 2136 O 204.124 1.55132 -1.11079 0
M  V30 2137 C 201.264 2.51231 -2.36594 0
M  V30 2138 C 200.377 2.33991 -3.63142 0
M  V30 2139 C 199.512 3.59902 -3.90697 0
M  V30 2140 C 198.551 3.37692 -5.1052 0
M  V30 2141 N 197.688 4.5573 -5.34092 0
M  V30 2142 H 202.528 0.82467 -2.86362 0
M  V30 2143 H 200.065 0.395756 -1.41676 0
M  V30 2144 H 202.023 3.28713 -2.56912 0
M  V30 2145 H 200.653 2.85059 -1.51463 0
M  V30 2146 H 199.705 1.47572 -3.50609 0
M  V30 2147 H 201.017 2.13539 -4.5078 0
M  V30 2148 H 200.171 4.45813 -4.11505 0
M  V30 2149 H 198.91 3.83357 -3.01477 0
M  V30 2150 H 197.915 2.5017 -4.89587 0
M  V30 2151 H 199.14 3.15637 -6.0129 0
M  V30 2152 H 197.086 4.79361 -4.47827 0
M  V30 2153 H 197.003 4.38274 -6.15996 0
M  V30 2154 H 198.271 5.42858 -5.59397 0
M  V30 2155 N 202.5 1.5196 0.417844 0
M  V30 2156 C 203.448 1.75278 1.52907 0
M  V30 2157 C 204.442 0.619611 1.57662 0
M  V30 2158 O 205.648 0.801457 1.61173 0
M  V30 2159 H 202.023 0.554141 0.508362 0
M  V30 2160 H 203.994 2.68389 1.30422 0
M  V30 2161 C 202.743 1.91262 2.90369 0
M  V30 2162 H 202.066 2.77872 2.8745 0
M  V30 2163 H 203.506 2.11581 3.67436 0
M  V30 2164 C 201.965 0.677431 3.30019 0
M  V30 2165 O 202.495 -0.158799 4.01386 0
M  V30 2166 N 200.701 0.515851 2.85985 0
M  V30 2167 H 200.248 1.19744 2.28077 0
M  V30 2168 H 200.206 -0.309315 3.12875 0
M  V30 2169 N 203.978 -0.674533 1.42435 0
M  V30 2170 C 204.908 -1.80009 1.48724 0
M  V30 2171 C 205.889 -1.6659 0.343793 0
M  V30 2172 O 207.074 -1.86007 0.558137 0
M  V30 2173 C 204.204 -3.18306 1.38919 0
M  V30 2174 C 203.158 -3.46461 2.51294 0
M  V30 2175 C 202.484 -4.84335 2.26547 0
M  V30 2176 C 203.784 -3.43328 3.93603 0
M  V30 2177 H 205.478 -1.75004 2.42928 0
M  V30 2178 H 203.024 -0.840533 1.16923 0
M  V30 2179 H 204.977 -3.9678 1.41927 0
M  V30 2180 H 203.701 -3.2399 0.412094 0
M  V30 2181 H 202.36 -2.70348 2.47604 0
M  V30 2182 H 202.008 -4.86669 1.2713 0
M  V30 2183 H 201.708 -5.04136 3.01861 0
M  V30 2184 H 203.232 -5.65094 2.31304 0
M  V30 2185 H 204.646 -4.11772 3.98894 0
M  V30 2186 H 203.043 -3.74664 4.68771 0
M  V30 2187 H 204.113 -2.41897 4.20255 0
M  V30 2188 N 205.456 -1.28612 -0.910864 0
M  V30 2189 C 206.406 -1.09423 -2.00026 0
M  V30 2190 C 207.39 -0.0170079 -1.60891 0
M  V30 2191 O 208.582 -0.237472 -1.754 0
M  V30 2192 C 205.711 -0.76114 -3.34756 0
M  V30 2193 C 204.797 -1.87735 -3.80285 0
M  V30 2194 N 205.188 -3.11938 -3.98156 0
M  V30 2195 C 203.486 -1.76786 -4.09467 0
M  V30 2196 C 204.187 -3.84687 -4.36338 0
M  V30 2197 N 203.163 -3.12555 -4.44759 0
M  V30 2198 H 206.965 -2.03658 -2.11898 0
M  V30 2199 H 204.479 -1.19573 -1.09891 0
M  V30 2200 H 206.476 -0.604743 -4.12491 0
M  V30 2201 H 205.136 0.173403 -3.24237 0
M  V30 2202 H 206.147 -3.47516 -3.83996 0
M  V30 2203 H 202.824 -0.905284 -4.07567 0
M  V30 2204 H 204.214 -4.91518 -4.58104 0
M  V30 2205 N 206.934 1.1197 -1.10907 0
M  V30 2206 C 208.345 1.65114 -0.871446 0
M  V30 2207 C 208.696 1.86885 0.597353 0
M  V30 2208 O 207.821 1.59896 1.45816 0
M  V30 2209 C 208.416 2.99944 -1.5754 0
M  V30 2210 C 206.975 3.50018 -1.38435 0
M  V30 2211 C 206.122 2.24941 -1.62164 0
M  V30 2212 H 209.073 0.956851 -1.2661 0
M  V30 2213 H 209.094 3.66651 -1.01721 0
M  V30 2214 H 208.606 2.84067 -2.64438 0
M  V30 2215 H 206.707 3.71071 -0.337214 0
M  V30 2216 H 206.82 4.29165 -2.12965 0
M  V30 2217 H 205.184 2.3229 -1.04467 0
M  V30 2218 H 205.967 2.11612 -2.70324 0
M  V30 2219 N 208.412 0.89855 1.29475 0
M  V30 2220 C 209.637 0.538561 2.00285 0
M  V30 2221 C 210.062 -0.869135 1.66816 0
M  V30 2222 O 209.42 -1.57831 0.892145 0
M  V30 2223 C 209.468 0.736475 3.52999 0
M  V30 2224 O 208.572 -0.211537 4.11857 0
M  V30 2225 H 207.913 0.210563 0.62973 0
M  V30 2226 H 210.443 1.20982 1.64998 0
M  V30 2227 H 210.453 0.640685 4.02938 0
M  V30 2228 H 209.128 1.76276 3.76696 0
M  V30 2229 H 207.705 -0.0682991 3.72837 0
M  V30 2230 N 209.89 -1.43072 0.660911 0
M  V30 2231 C 211.12 -2.05769 0.185153 0
M  V30 2232 C 211.528 -1.49668 -1.15742 0
M  V30 2233 O 210.871 -0.625649 -1.72717 0
M  V30 2234 C 210.933 -3.59489 0.0278237 0
M  V30 2235 C 210.597 -4.38212 1.2969 0
M  V30 2236 C 211.594 -4.69772 2.22734 0
M  V30 2237 C 209.279 -4.7809 1.54063 0
M  V30 2238 C 211.273 -5.40129 3.38437 0
M  V30 2239 C 208.96 -5.4819 2.70058 0
M  V30 2240 C 209.958 -5.79132 3.62071 0
M  V30 2241 O 209.646 -6.47798 4.76039 0
M  V30 2242 H 209.378 -0.669873 0.0908086 0
M  V30 2243 H 211.932 -1.84436 0.90402 0
M  V30 2244 H 210.162 -3.79426 -0.746489 0
M  V30 2245 H 211.851 -4.03862 -0.406275 0
M  V30 2246 H 212.617 -4.39476 2.05149 0
M  V30 2247 H 208.496 -4.53408 0.833215 0
M  V30 2248 H 212.04 -5.64198 4.10277 0
M  V30 2249 H 207.937 -5.77902 2.87574 0
M  V30 2250 H 208.705 -6.66283 4.75404 0
M  V30 2251 N 211.368 -0.403325 -1.52352 0
M  V30 2252 C 212.593 0.176499 -2.06648 0
M  V30 2253 C 213.018 1.38577 -1.27193 0
M  V30 2254 O 212.376 1.7879 -0.300637 0
M  V30 2255 C 212.424 0.511061 -3.5696 0
M  V30 2256 O 211.528 1.60294 -3.79973 0
M  V30 2257 H 210.869 0.0167337 -0.663789 0
M  V30 2258 H 213.399 -0.574848 -1.96359 0
M  V30 2259 H 213.409 0.771362 -4.00642 0
M  V30 2260 H 212.084 -0.37296 -4.14224 0
M  V30 2261 H 210.661 1.33526 -3.48174 0
M  V30 2262 N 212.846 1.57033 -0.133567 0
M  V30 2263 C 214.086 1.97575 0.523789 0
M  V30 2264 C 214.45 1.01605 1.62912 0
M  V30 2265 O 215.651 1.3114 2.3464 0
M  V30 2266 C 213.922 3.42256 1.02935 0
M  V30 2267 S 215.481 4.04817 1.69319 0
M  V30 2268 H 212.299 0.690427 0.169799 0
M  V30 2269 H 214.901 1.94234 -0.222101 0
M  V30 2270 H 213.605 4.09842 0.213917 0
M  V30 2271 H 213.136 3.4928 1.81017 0
M  V30 2272 H 215.151 3.96767 2.97977 0
M  V30 2273 N 214.325 -0.140222 1.56975 0
M  V30 2274 C 215.272 -1.17292 1.98774 0
M  V30 2275 C 216.242 -1.4232 0.856408 0
M  V30 2276 O 217.427 -1.54541 1.119 0
M  V30 2277 C 214.567 -2.49973 2.37923 0
M  V30 2278 C 213.68 -2.32062 3.64378 0
M  V30 2279 C 212.815 -3.57825 3.926 0
M  V30 2280 C 211.854 -3.3498 5.12303 0
M  V30 2281 N 210.991 -4.52891 5.36502 0
M  V30 2282 H 215.831 -0.809472 2.86795 0
M  V30 2283 H 213.368 -0.388237 1.41884 0
M  V30 2284 H 215.326 -3.27346 2.58652 0
M  V30 2285 H 213.956 -2.84252 1.52972 0
M  V30 2286 H 213.008 -1.45711 3.51387 0
M  V30 2287 H 214.32 -2.11145 4.51906 0
M  V30 2288 H 213.474 -4.43624 4.13863 0
M  V30 2289 H 212.213 -3.81753 3.03506 0
M  V30 2290 H 211.218 -2.4757 4.90906 0
M  V30 2291 H 212.443 -3.12444 6.02956 0
M  V30 2292 H 210.389 -4.76979 4.50363 0
M  V30 2293 H 210.306 -4.35001 6.18312 0
M  V30 2294 H 211.574 -5.39884 5.62268 0
M  V30 2295 N 215.803 -1.52179 -0.40978 0
M  V30 2296 C 217.033 -1.69807 -1.17682 0
M  V30 2297 C 217.441 -0.406908 -1.84773 0
M  V30 2298 O 216.784 0.626863 -1.72673 0
M  V30 2299 C 216.846 -2.77712 -2.2829 0
M  V30 2300 C 216.51 -4.19481 -1.81341 0
M  V30 2301 C 217.507 -5.03345 -1.30154 0
M  V30 2302 C 215.192 -4.65713 -1.88194 0
M  V30 2303 C 217.186 -6.31511 -0.864416 0
M  V30 2304 C 214.873 -5.93869 -1.44093 0
M  V30 2305 C 215.871 -6.76597 -0.933023 0
M  V30 2306 O 215.559 -8.02354 -0.49838 0
M  V30 2307 H 215.291 -0.572372 -0.359675 0
M  V30 2308 H 217.845 -1.99511 -0.488311 0
M  V30 2309 H 216.075 -2.43383 -3.00502 0
M  V30 2310 H 217.764 -2.83946 -2.90051 0
M  V30 2311 H 218.53 -4.68819 -1.24232 0
M  V30 2312 H 214.409 -4.01424 -2.26671 0
M  V30 2313 H 217.953 -6.96033 -0.467286 0
M  V30 2314 H 213.85 -6.27903 -1.49694 0
M  V30 2315 H 214.618 -8.16135 -0.621747 0
M  V30 2316 N 217.281 0.66697 -1.42791 0
M  V30 2317 C 218.191 1.80962 -1.49299 0
M  V30 2318 C 219.207 1.69775 -0.381108 0
M  V30 2319 O 220.383 1.91188 -0.633188 0
M  V30 2320 C 217.448 3.17156 -1.40045 0
M  V30 2321 C 216.509 3.40242 -2.6179 0
M  V30 2322 C 215.742 4.69939 -2.52969 0
M  V30 2323 O 215.965 5.48372 -1.56985 0
M  V30 2324 O 214.899 4.94441 -3.43237 0
M  V30 2325 H 218.725 1.78427 -2.45759 0
M  V30 2326 H 216.31 0.823713 -1.24641 0
M  V30 2327 H 218.192 3.98413 -1.37276 0
M  V30 2328 H 216.867 3.20312 -0.467138 0
M  V30 2329 H 215.774 2.58802 -2.70134 0
M  V30 2330 H 217.107 3.41923 -3.54047 0
M  V30 2331 N 218.759 1.29093 0.90403 0
M  V30 2332 C 220.007 1.16583 1.65085 0
M  V30 2333 C 220.328 -0.283933 1.92922 0
M  V30 2334 O 219.598 -1.19509 1.55224 0
M  V30 2335 H 218.178 0.428467 0.611903 0
M  V30 2336 H 220.84 1.61959 1.08422 0
M  V30 2337 H 219.936 1.71266 2.6091 0
M  V30 2338 N 220.237 -1.11381 1.11499 0
M  V30 2339 C 221.184 -2.17439 0.773887 0
M  V30 2340 C 222.154 -1.64132 -0.254899 0
M  V30 2341 O 223.339 -1.90345 -0.13168 0
M  V30 2342 C 220.479 -3.44373 0.223917 0
M  V30 2343 C 219.592 -4.1168 1.30934 0
M  V30 2344 C 218.727 -5.263 0.71984 0
M  V30 2345 C 217.766 -5.85493 1.78507 0
M  V30 2346 N 216.903 -6.91507 1.21502 0
M  V30 2347 H 221.743 -2.45962 1.68246 0
M  V30 2348 H 219.28 -1.20744 0.840191 0
M  V30 2349 H 221.238 -4.17047 -0.112921 0
M  V30 2350 H 219.868 -3.16232 -0.647851 0
M  V30 2351 H 218.92 -3.37073 1.76312 0
M  V30 2352 H 220.232 -4.51729 2.11524 0
M  V30 2353 H 219.386 -6.05785 0.333094 0
M  V30 2354 H 218.125 -4.87559 -0.117377 0
M  V30 2355 H 217.13 -5.04686 2.18111 0
M  V30 2356 H 218.355 -6.26301 2.62533 0
M  V30 2357 H 216.301 -6.54783 0.399455 0
M  V30 2358 H 216.218 -7.30214 1.95763 0
M  V30 2359 H 217.486 -7.74795 0.855181 0
M  V30 2360 N 221.715 -0.905404 -1.28997 0
M  V30 2361 C 222.955 -0.541232 -1.97104 0
M  V30 2362 C 223.319 0.896841 -1.69767 0
M  V30 2363 O 224.52 1.36817 -2.31375 0
M  V30 2364 C 222.791 -0.832134 -3.47578 0
M  V30 2365 S 224.35 -0.573127 -4.35041 0
M  V30 2366 H 221.168 -0.200576 -0.682122 0
M  V30 2367 H 223.77 -1.16906 -1.56694 0
M  V30 2368 H 222.474 -1.87687 -3.64968 0
M  V30 2369 H 222.005 -0.192636 -3.92928 0
M  V30 2370 H 224.02 0.579297 -4.92807 0
M  V30 2371 N 223.193 1.4272 -0.668489 0
M  V30 2372 C 224.439 2.01923 -0.188419 0
M  V30 2373 C 224.772 1.52704 1.19979 0
M  V30 2374 O 224.047 0.726566 1.8042 0
M  V30 2375 C 224.33 3.59451 -0.216085 0
M  V30 2376 C 224.183 4.18864 -1.6393 0
M  V30 2377 C 225.502 4.37903 0.439179 0
M  V30 2378 H 222.621 0.733674 -0.0699412 0
M  V30 2379 H 225.263 1.69822 -0.852076 0
M  V30 2380 H 223.413 3.86929 0.349012 0
M  V30 2381 H 225.085 4.02362 -2.25616 0
M  V30 2382 H 223.328 3.74933 -2.18193 0
M  V30 2383 H 223.999 5.27987 -1.61039 0
M  V30 2384 H 226.475 4.16079 -0.0417878 0
M  V30 2385 H 225.351 5.47519 0.389157 0
M  V30 2386 H 225.612 4.15303 1.51577 0
M  V30 2387 N 224.671 0.411399 1.52136 0
M  V30 2388 C 225.92 -0.165009 2.01024 0
M  V30 2389 C 226.233 -1.4603 1.30133 0
M  V30 2390 O 227.439 -2.1181 1.69849 0
M  V30 2391 C 225.895 -0.344618 3.58246 0
M  V30 2392 C 225.503 0.938716 4.38055 0
M  V30 2393 C 227.247 -0.876195 4.15359 0
M  V30 2394 C 225.154 0.726172 5.86925 0
M  V30 2395 H 224.084 -0.0654407 0.751155 0
M  V30 2396 H 226.735 0.537192 1.75461 0
M  V30 2397 H 225.117 -1.10921 3.80148 0
M  V30 2398 H 226.291 1.70963 4.27912 0
M  V30 2399 H 224.606 1.39688 3.92271 0
M  V30 2400 H 227.203 -1.05128 5.24263 0
M  V30 2401 H 227.546 -1.85152 3.7286 0
M  V30 2402 H 228.079 -0.170607 3.97434 0
M  V30 2403 H 224.818 1.67312 6.33788 0
M  V30 2404 H 224.338 -0.00540283 5.998 0
M  V30 2405 H 226.017 0.369231 6.45946 0
M  V30 2406 N 226.149 -1.5696 0.141893 0
M  V30 2407 C 227.426 -1.87553 -0.555281 0
M  V30 2408 C 227.806 -1.04699 -1.83306 0
M  V30 2409 O 227.154 -0.132346 -2.28116 0
M  V30 2410 C 227.364 -3.39093 -0.825664 0
M  V30 2411 C 228.712 -4.08199 -1.16869 0
M  V30 2412 O 229.736 -3.44242 -0.915185 0
M  V30 2413 O 228.595 -5.21139 -1.6455 0
M  V30 2414 H 225.689 -0.777188 -0.282679 0
M  V30 2415 H 228.235 -1.68763 0.17812 0
M  V30 2416 H 227.007 -3.91221 0.0788633 0
M  V30 2417 H 226.63 -3.63393 -1.61343 0
M  V30 2418 N 227.627 0.131896 -1.57047 0
M  V30 2419 C 228.574 1.16236 -1.99393 0
M  V30 2420 C 229.544 1.41863 -0.863943 0
M  V30 2421 O 230.729 1.53946 -1.12718 0
M  V30 2422 C 227.869 2.48708 -2.39245 0
M  V30 2423 C 226.982 2.30127 -3.65603 0
M  V30 2424 C 226.117 3.55738 -3.94492 0
M  V30 2425 C 225.156 3.32259 -5.14073 0
M  V30 2426 N 224.293 4.50039 -5.38896 0
M  V30 2427 H 229.133 0.794251 -2.87221 0
M  V30 2428 H 226.67 0.380707 -1.42088 0
M  V30 2429 H 228.628 3.25969 -2.60384 0
M  V30 2430 H 227.258 2.83437 -1.54478 0
M  V30 2431 H 226.31 1.43845 -3.52154 0
M  V30 2432 H 227.622 2.08746 -4.5302 0
M  V30 2433 H 226.776 4.41423 -4.1621 0
M  V30 2434 H 225.515 3.80138 -3.05526 0
M  V30 2435 H 224.52 2.44963 -4.92212 0
M  V30 2436 H 225.745 3.09242 -6.04604 0
M  V30 2437 H 223.691 4.74584 -4.52886 0
M  V30 2438 H 223.608 4.31716 -6.2061 0
M  V30 2439 H 224.876 5.36895 -5.65123 0
M  V30 2440 N 229.106 1.52395 0.401703 0
M  V30 2441 C 230.352 1.67065 1.14966 0
M  V30 2442 C 230.685 0.403052 1.89971 0
M  V30 2443 O 229.96 -0.598774 1.85054 0
M  V30 2444 C 230.243 2.8975 2.13815 0
M  V30 2445 C 230.096 4.26578 1.42658 0
M  V30 2446 C 231.415 3.07965 3.14397 0
M  V30 2447 H 228.534 0.607968 0.416587 0
M  V30 2448 H 231.176 1.84965 0.434511 0
M  V30 2449 H 229.326 2.74619 2.74803 0
M  V30 2450 H 230.998 4.53451 0.847329 0
M  V30 2451 H 229.241 4.27639 0.72849 0
M  V30 2452 H 229.912 5.08483 2.14823 0
M  V30 2453 H 232.388 3.22043 2.63491 0
M  V30 2454 H 231.264 3.95308 3.80819 0
M  V30 2455 H 231.525 2.21611 3.82545 0
M  V30 2456 N 230.584 -0.659388 1.43143 0
M  V30 2457 C 231.812 -1.44723 1.47861 0
M  V30 2458 C 232.227 -1.88563 0.0945886 0
M  V30 2459 O 231.584 -1.59108 -0.893915 0
M  V30 2460 C 231.635 -2.68627 2.41913 0
M  V30 2461 O 231.356 -2.26623 3.74932 0
M  V30 2462 C 232.857 -3.62045 2.55809 0
M  V30 2463 H 230.077 -0.444801 0.502387 0
M  V30 2464 H 232.621 -0.808916 1.87821 0
M  V30 2465 H 230.776 -3.28613 2.05164 0
M  V30 2466 H 231.19 -3.06745 4.2545 0
M  V30 2467 H 232.664 -4.45666 3.25708 0
M  V30 2468 H 233.141 -4.08981 1.60099 0
M  V30 2469 H 233.747 -3.07944 2.93344 0
M  V30 2470 N 232.062 -1.29571 -0.897171 0
M  V30 2471 C 233.478 -1.07637 -1.17841 0
M  V30 2472 C 233.678 0.170713 -2.00776 0
M  V30 2473 O 232.734 0.867768 -2.3712 0
M  V30 2474 C 234.047 -2.3332 -1.8969 0
M  V30 2475 C 235.595 -2.38664 -2.02505 0
M  V30 2476 C 236.07 -3.64157 -2.77765 0
M  V30 2477 N 237.561 -3.64894 -2.85318 0
M  V30 2478 C 238.296 -4.58679 -3.44094 0
M  V30 2479 N 237.792 -5.62799 -4.04017 0
M  V30 2480 N 239.585 -4.46245 -3.41793 0
M  V30 2481 H 231.736 -2.09598 -0.343883 0
M  V30 2482 H 233.999 -0.923333 -0.214848 0
M  V30 2483 H 233.705 -3.24262 -1.36187 0
M  V30 2484 H 233.579 -2.41025 -2.9015 0
M  V30 2485 H 235.966 -1.48208 -2.55183 0
M  V30 2486 H 236.047 -2.34943 -1.01171 0
M  V30 2487 H 235.691 -4.54965 -2.25763 0
M  V30 2488 H 235.621 -3.65137 -3.7945 0
M  V30 2489 H 238.112 -2.89613 -2.42761 0
M  V30 2490 H 238.425 -6.3048 -4.46895 0
M  V30 2491 H 236.77 -5.66605 -4.02472 0
M  V30 2492 H 239.961 -3.64094 -2.94199 0
M  V30 2493 H 240.134 -5.19518 -3.87304 0
M  V30 2494 N 233.54 1.10788 -1.12088 0
M  V30 2495 C 234.488 2.19111 -0.780587 0
M  V30 2496 C 235.482 1.67818 0.230961 0
M  V30 2497 O 236.688 1.79777 0.0895427 0
M  V30 2498 H 233.063 0.714477 -0.234578 0
M  V30 2499 H 235.034 2.45055 -1.70266 0
M  V30 2500 C 233.783 3.46818 -0.24747 0
M  V30 2501 H 233.106 3.86646 -1.01712 0
M  V30 2502 H 234.546 4.23973 -0.0476291 0
M  V30 2503 C 233.005 3.20968 1.02378 0
M  V30 2504 O 233.535 3.42298 2.10226 0
M  V30 2505 N 231.741 2.74658 0.949271 0
M  V30 2506 H 231.288 2.57501 0.0715173 0
M  V30 2507 H 231.246 2.57739 1.80049 0
M  V30 2508 N 235.018 0.912232 1.28515 0
M  V30 2509 C 235.95 0.35676 2.26406 0
M  V30 2510 C 236.963 -0.503933 1.54804 0
M  V30 2511 O 238.152 -0.319059 1.75625 0
M  V30 2512 C 235.252 -0.508825 3.35058 0
M  V30 2513 C 234.425 0.329007 4.36161 0
M  V30 2514 C 233.484 -0.471422 5.24084 0
M  V30 2515 O 232.51 0.115482 5.69083 0
M  V30 2516 N 233.712 -1.77479 5.52704 0
M  V30 2517 H 236.477 1.19818 2.74707 0
M  V30 2518 H 234.038 0.778022 1.4198 0
M  V30 2519 H 236.03 -1.051 3.90815 0
M  V30 2520 H 234.6 -1.25095 2.86478 0
M  V30 2521 H 233.82 1.05256 3.79888 0
M  V30 2522 H 235.108 0.90234 5.00735 0
M  V30 2523 H 234.506 -2.27417 5.17975 0
M  V30 2524 H 233.063 -2.26382 6.11224 0
M  V30 2525 N 236.496 -1.42363 0.676048 0
M  V30 2526 C 237.736 -2.03392 0.20273 0
M  V30 2527 C 238.1 -1.52306 -1.16906 0
M  V30 2528 O 239.301 -2.05129 -1.73711 0
M  V30 2529 C 237.572 -3.56614 0.236947 0
M  V30 2530 S 239.131 -4.38489 -0.165186 0
M  V30 2531 H 235.949 -0.70611 0.0832418 0
M  V30 2532 H 238.551 -1.74093 0.88948 0
M  V30 2533 H 237.255 -3.91293 1.23767 0
M  V30 2534 H 236.786 -3.90587 -0.469596 0
M  V30 2535 H 238.801 -4.76093 -1.39822 0
M  V30 2536 N 237.974 -0.419461 -1.51915 0
M  V30 2537 C 238.906 0.43646 -2.25006 0
M  V30 2538 C 239.919 1.00149 -1.28351 0
M  V30 2539 O 241.108 0.898674 -1.54227 0
M  V30 2540 C 238.208 1.6206 -2.9764 0
M  V30 2541 C 237.381 1.17763 -4.21249 0
M  V30 2542 C 236.44 2.22985 -4.76617 0
M  V30 2543 O 235.466 1.83151 -5.38929 0
M  V30 2544 N 236.668 3.55271 -4.59089 0
M  V30 2545 H 239.433 -0.18989 -2.99098 0
M  V30 2546 H 236.994 -0.247386 -1.59999 0
M  V30 2547 H 238.986 2.32038 -3.31573 0
M  V30 2548 H 237.556 2.15266 -2.2667 0
M  V30 2549 H 236.776 0.305582 -3.93014 0
M  V30 2550 H 238.064 0.858781 -5.015 0
M  V30 2551 H 237.462 3.90377 -4.09417 0
M  V30 2552 H 236.019 4.21195 -4.97432 0
M  V30 2553 N 239.452 1.56882 -0.150215 0
M  V30 2554 C 240.362 2.20494 0.801222 0
M  V30 2555 C 241.378 1.19019 1.26927 0
M  V30 2556 O 242.554 1.51607 1.32579 0
M  V30 2557 C 239.619 2.81659 2.02161 0
M  V30 2558 C 238.68 3.9827 1.60249 0
M  V30 2559 C 237.913 4.56508 2.7647 0
M  V30 2560 O 238.136 4.13627 3.92771 0
M  V30 2561 O 237.07 5.46719 2.51757 0
M  V30 2562 H 240.896 3.02315 0.289717 0
M  V30 2563 H 238.481 1.49202 0.0769684 0
M  V30 2564 H 240.363 3.20522 2.73576 0
M  V30 2565 H 239.038 2.02849 2.52258 0
M  V30 2566 H 237.945 3.64117 0.858477 0
M  V30 2567 H 239.278 4.78609 1.14864 0
M  V30 2568 N 240.93 -0.123565 1.57115 0
M  V30 2569 C 242.17 -0.838097 1.86428 0
M  V30 2570 C 242.534 -1.77266 0.737611 0
M  V30 2571 O 243.735 -2.52842 0.912389 0
M  V30 2572 C 242.006 -1.57219 3.20962 0
M  V30 2573 S 243.565 -2.32893 3.71896 0
M  V30 2574 H 240.383 -0.279811 0.653626 0
M  V30 2575 H 242.985 -0.0967034 1.95261 0
M  V30 2576 H 241.689 -0.877522 4.00909 0
M  V30 2577 H 241.22 -2.35405 3.15195 0
M  V30 2578 H 243.235 -3.5853 3.43032 0
M  V30 2579 N 242.408 -1.52605 -0.393616 0
M  V30 2580 C 243.824 -1.41753 -0.733357 0
M  V30 2581 C 244.024 -0.534293 -1.94287 0
M  V30 2582 O 243.08 -0.0059787 -2.52499 0
M  V30 2583 C 244.393 -2.84531 -0.972772 0
M  V30 2584 C 245.941 -2.93978 -1.07453 0
M  V30 2585 C 246.416 -4.37756 -1.3466 0
M  V30 2586 N 247.907 -4.4106 -1.41492 0
M  V30 2587 C 248.642 -5.49387 -1.642 0
M  V30 2588 N 248.138 -6.67806 -1.8441 0
M  V30 2589 N 249.931 -5.36923 -1.66342 0
M  V30 2590 H 242.082 -2.08555 0.402328 0
M  V30 2591 H 244.345 -0.940654 0.117789 0
M  V30 2592 H 244.051 -3.51353 -0.156204 0
M  V30 2593 H 243.925 -3.26508 -1.88871 0
M  V30 2594 H 246.312 -2.27326 -1.88167 0
M  V30 2595 H 246.393 -2.55435 -0.136605 0
M  V30 2596 H 246.037 -5.04972 -0.544581 0
M  V30 2597 H 245.967 -4.73848 -2.2973 0
M  V30 2598 H 248.458 -3.55705 -1.27601 0
M  V30 2599 H 248.771 -7.46141 -2.01231 0
M  V30 2600 H 247.116 -6.70843 -1.81644 0
M  V30 2601 H 250.307 -4.43381 -1.50102 0
M  V30 2602 H 250.48 -6.21416 -1.837 0
M  V30 2603 N 243.887 0.651787 -1.4349 0
M  V30 2604 C 245.134 1.41167 -1.45183 0
M  V30 2605 C 245.462 1.94349 -0.0766601 0
M  V30 2606 O 244.717 1.72804 0.918555 0
M  V30 2607 C 245.016 2.60914 -2.44251 0
M  V30 2608 C 244.682 2.26142 -3.9009 0
M  V30 2609 C 243.344 2.16371 -4.2981 0
M  V30 2610 C 245.696 1.98334 -4.81989 0
M  V30 2611 C 243.024 1.7695 -5.5938 0
M  V30 2612 C 245.376 1.6041 -6.11924 0
M  V30 2613 C 244.04 1.49166 -6.5062 0
M  V30 2614 H 243.31 0.516566 -0.531263 0
M  V30 2615 H 245.957 0.741099 -1.76579 0
M  V30 2616 H 244.262 3.3311 -2.06265 0
M  V30 2617 H 245.959 3.19127 -2.42815 0
M  V30 2618 H 242.549 2.34658 -3.58655 0
M  V30 2619 H 246.733 2.04803 -4.52072 0
M  V30 2620 H 241.989 1.66831 -5.88198 0
M  V30 2621 H 246.163 1.37925 -6.82605 0
M  V30 2622 H 243.79 1.1839 -7.50925 0
M  V30 2623 N 245.365 1.30045 0.890287 0
M  V30 2624 C 246.312 1.15976 1.99545 0
M  V30 2625 C 247.282 0.0506202 1.66023 0
M  V30 2626 O 248.467 0.219847 1.89529 0
M  V30 2627 C 245.607 0.852054 3.34416 0
M  V30 2628 C 244.72 2.04255 3.80662 0
M  V30 2629 C 243.855 1.6734 5.04154 0
M  V30 2630 C 242.894 2.82916 5.42794 0
M  V30 2631 N 242.031 2.46333 6.57468 0
M  V30 2632 H 246.871 2.10524 2.10911 0
M  V30 2633 H 244.408 1.04749 1.03276 0
M  V30 2634 H 246.366 0.654296 4.12037 0
M  V30 2635 H 244.996 -0.0565502 3.2275 0
M  V30 2636 H 244.048 2.35172 2.98995 0
M  V30 2637 H 245.36 2.90826 4.05242 0
M  V30 2638 H 244.514 1.43908 5.89386 0
M  V30 2639 H 243.253 0.779308 4.81433 0
M  V30 2640 H 242.258 3.0702 4.56091 0
M  V30 2641 H 243.483 3.73004 5.6749 0
M  V30 2642 H 241.429 1.59423 6.36334 0
M  V30 2643 H 241.346 3.26436 6.81891 0
M  V30 2644 H 242.614 2.26244 7.45945 0
M  V30 2645 N 246.843 -1.10192 1.12674 0
M  V30 2646 C 247.79 -2.16606 0.796906 0
M  V30 2647 C 248.76 -1.64394 -0.237476 0
M  V30 2648 O 249.945 -1.90474 -0.111484 0
M  V30 2649 C 247.085 -3.44116 0.26043 0
M  V30 2650 C 246.198 -4.10268 1.35293 0
M  V30 2651 C 245.333 -5.25507 0.775621 0
M  V30 2652 C 244.372 -5.83567 1.84706 0
M  V30 2653 N 243.509 -6.90179 1.28829 0
M  V30 2654 H 248.349 -2.44163 1.70846 0
M  V30 2655 H 245.886 -1.19846 0.85295 0
M  V30 2656 H 247.844 -4.17143 -0.0686814 0
M  V30 2657 H 246.474 -3.16901 -0.614274 0
M  V30 2658 H 245.526 -3.35184 1.79877 0
M  V30 2659 H 246.838 -4.4946 2.16303 0
M  V30 2660 H 245.992 -6.05398 0.397327 0
M  V30 2661 H 244.731 -4.87656 -0.0656581 0
M  V30 2662 H 243.736 -5.02344 2.23452 0
M  V30 2663 H 244.961 -6.23482 2.69161 0
M  V30 2664 H 242.907 -6.54322 0.468881 0
M  V30 2665 H 242.824 -7.28097 2.03497 0
M  V30 2666 H 244.092 -7.73844 0.937311 0
M  V30 2667 N 248.321 -0.919034 -1.28029 0
M  V30 2668 C 249.561 -0.562107 -1.96519 0
M  V30 2669 C 249.925 0.878784 -1.70708 0
M  V30 2670 O 251.126 1.34355 -2.32813 0
M  V30 2671 C 249.397 -0.868953 -3.46676 0
M  V30 2672 S 250.956 -0.619237 -4.34409 0
M  V30 2673 H 247.774 -0.2078 -0.679956 0
M  V30 2674 H 250.376 -1.18562 -1.55446 0
M  V30 2675 H 249.08 -1.91547 -3.62957 0
M  V30 2676 H 248.611 -0.234301 -3.92702 0
M  V30 2677 H 250.626 0.526995 -4.93394 0
M  V30 2678 N 249.799 1.42003 -0.683588 0
M  V30 2679 C 251.048 2.00638 -0.206681 0
M  V30 2680 C 251.361 1.5472 1.19671 0
M  V30 2681 O 252.567 2.05833 1.77045 0
M  V30 2682 C 251.023 3.58487 -0.318632 0
M  V30 2683 C 250.631 4.1339 -1.72663 0
M  V30 2684 C 252.375 4.24384 0.0991141 0
M  V30 2685 C 250.282 5.63633 -1.79087 0
M  V30 2686 H 249.212 0.750408 -0.0735107 0
M  V30 2687 H 251.863 1.62624 -0.850048 0
M  V30 2688 H 250.245 3.94047 0.392781 0
M  V30 2689 H 251.419 3.89273 -2.46583 0
M  V30 2690 H 249.734 3.59976 -2.09299 0
M  V30 2691 H 252.331 5.34652 0.0713833 0
M  V30 2692 H 252.674 4.00505 1.13586 0
M  V30 2693 H 253.207 3.93816 -0.561599 0
M  V30 2694 H 249.946 5.92323 -2.80774 0
M  V30 2695 H 249.466 5.89714 -1.09535 0
M  V30 2696 H 251.145 6.28201 -1.5483 0
M  V30 2697 N 251.277 0.427512 1.51691 0
M  V30 2698 C 252.507 -0.140986 2.06118 0
M  V30 2699 C 252.915 -1.37854 1.29588 0
M  V30 2700 O 252.258 -1.80411 0.346036 0
M  V30 2701 C 252.32 -0.538276 3.55447 0
M  V30 2702 C 251.984 0.591095 4.53161 0
M  V30 2703 C 252.981 1.46027 4.98971 0
M  V30 2704 C 250.666 0.769028 4.96378 0
M  V30 2705 C 252.66 2.49216 5.8666 0
M  V30 2706 C 250.347 1.80421 5.83859 0
M  V30 2707 C 251.345 2.66417 6.28897 0
M  V30 2708 O 251.033 3.68159 7.14643 0
M  V30 2709 H 250.765 -0.0157455 0.675817 0
M  V30 2710 H 253.319 0.602495 1.96365 0
M  V30 2711 H 251.549 -1.33432 3.6295 0
M  V30 2712 H 253.238 -1.0368 3.92435 0
M  V30 2713 H 254.004 1.33429 4.66285 0
M  V30 2714 H 249.883 0.109273 4.6087 0
M  V30 2715 H 253.427 3.16372 6.21735 0
M  V30 2716 H 249.324 1.93042 6.15959 0
M  V30 2717 H 250.092 3.64622 7.32798 0
M  V30 2718 N 252.755 -1.56801 0.158532 0
M  V30 2719 C 254.001 -1.96781 -0.490405 0
M  V30 2720 C 254.334 -1.04397 -1.63753 0
M  V30 2721 O 253.609 -0.0885805 -1.94298 0
M  V30 2722 C 253.892 -3.4635 -0.985594 0
M  V30 2723 C 253.745 -4.49512 0.160824 0
M  V30 2724 C 255.064 -3.98697 -1.86355 0
M  V30 2725 H 252.183 -0.715482 -0.176788 0
M  V30 2726 H 254.825 -1.88451 0.242088 0
M  V30 2727 H 252.975 -3.53579 -1.60978 0
M  V30 2728 H 254.647 -4.54353 0.797537 0
M  V30 2729 H 252.89 -4.26013 0.818256 0
M  V30 2730 H 253.561 -5.51531 -0.227569 0
M  V30 2731 H 256.037 -3.94019 -1.33746 0
M  V30 2732 H 254.913 -5.03792 -2.17909 0
M  V30 2733 H 255.174 -3.41744 -2.8047 0
M  V30 2734 N 254.233 0.115231 -1.57178 0
M  V30 2735 C 255.481 0.820727 -1.84685 0
M  V30 2736 C 255.802 1.80237 -0.744279 0
M  V30 2737 O 255.072 1.94529 0.231375 0
M  V30 2738 H 253.652 0.306084 -0.681411 0
M  V30 2739 H 256.314 0.101656 -1.94635 0
M  V30 2740 H 255.41 1.36366 -2.80733 0
M  V30 2741 N 255.711 1.52812 0.385517 0
M  V30 2742 C 256.644 1.72592 1.49289 0
M  V30 2743 C 257.622 0.573819 1.52138 0
M  V30 2744 O 258.806 0.80404 1.70492 0
M  V30 2745 C 255.933 1.78669 2.87741 0
M  V30 2746 C 254.979 3.00455 3.02703 0
M  V30 2747 S 255.812 4.60366 2.73538 0
M  V30 2748 C 256.968 4.69263 4.14177 0
M  V30 2749 H 257.201 2.66248 1.32285 0
M  V30 2750 H 254.734 1.43148 0.578611 0
M  V30 2751 H 256.692 1.82855 3.67524 0
M  V30 2752 H 255.353 0.861 3.02069 0
M  V30 2753 H 254.546 3.01258 4.04054 0
M  V30 2754 H 254.148 2.94278 2.30817 0
M  V30 2755 H 256.44 4.48092 5.08153 0
M  V30 2756 H 257.383 5.71276 4.18388 0
M  V30 2757 H 257.791 3.98072 4.00249 0
M  V30 2758 N 257.189 -0.644168 1.43834 0
M  V30 2759 C 258.152 -1.73857 1.49353 0
M  V30 2760 C 259.152 -1.56315 0.377112 0
M  V30 2761 O 260.342 -1.62048 0.639226 0
M  V30 2762 C 257.474 -3.12819 1.35488 0
M  V30 2763 H 258.667 -1.70342 2.46827 0
M  V30 2764 H 256.22 -0.856652 1.30733 0
M  V30 2765 H 256.955 -3.2194 0.390569 0
M  V30 2766 H 256.74 -3.26958 2.16428 0
M  V30 2767 H 258.23 -3.92606 1.42302 0
M  V30 2768 N 258.668 -1.30515 -0.883378 0
M  V30 2769 C 259.896 -1.22359 -1.66841 0
M  V30 2770 C 260.311 0.213296 -1.87591 0
M  V30 2771 O 259.668 1.14075 -1.42454 0
M  V30 2772 C 259.719 -1.95011 -3.04389 0
M  V30 2773 O 259.44 -3.3309 -2.84575 0
M  V30 2774 C 260.941 -1.93532 -3.98824 0
M  V30 2775 H 258.161 -0.423371 -0.520575 0
M  V30 2776 H 260.705 -1.72167 -1.10357 0
M  V30 2777 H 258.86 -1.48997 -3.57601 0
M  V30 2778 H 259.274 -3.69907 -3.71846 0
M  V30 2779 H 260.748 -2.48902 -4.92699 0
M  V30 2780 H 261.225 -0.914627 -4.29571 0
M  V30 2781 H 261.831 -2.39364 -3.51547 0
M  V30 2782 N 260.146 1.09593 -1.13257 0
M  V30 2783 C 261.423 1.78293 -0.804432 0
M  V30 2784 C 261.803 1.99004 0.70431 0
M  V30 2785 O 261.151 1.59007 1.641 0
M  V30 2786 C 261.361 3.10707 -1.5894 0
M  V30 2787 C 262.709 3.85443 -1.78099 0
M  V30 2788 O 263.733 3.20454 -1.55525 0
M  V30 2789 O 262.592 5.02108 -2.15753 0
M  V30 2790 H 259.686 0.773156 -0.293528 0
M  V30 2791 H 262.232 1.16164 -1.23709 0
M  V30 2792 H 261.004 2.91106 -2.61482 0
M  V30 2793 H 260.627 3.80558 -1.15157 0
M  V30 2794 N 261.624 0.925811 1.2754 0
M  V30 2795 C 262.554 0.440748 2.29303 0
M  V30 2796 C 263.535 -0.497971 1.62648 0
M  V30 2797 O 264.72 -0.403126 1.8997 0
M  V30 2798 C 261.85 -0.309048 3.45922 0
M  V30 2799 C 260.804 0.54166 4.24559 0
M  V30 2800 C 260.13 -0.337191 5.33636 0
M  V30 2801 C 261.43 1.80516 4.90114 0
M  V30 2802 H 263.124 1.29121 2.70126 0
M  V30 2803 H 260.67 0.622323 1.29858 0
M  V30 2804 H 262.623 -0.659315 4.1621 0
M  V30 2805 H 261.347 -1.19352 3.04011 0
M  V30 2806 H 260.006 0.874609 3.56014 0
M  V30 2807 H 259.654 -1.22056 4.87966 0
M  V30 2808 H 259.354 0.228497 5.87156 0
M  V30 2809 H 260.878 -0.683072 6.06767 0
M  V30 2810 H 262.292 1.52307 5.52698 0
M  V30 2811 H 260.689 2.3142 5.53683 0
M  V30 2812 H 261.759 2.52581 4.13921 0
M  V30 2813 N 263.102 -1.41638 0.69111 0
M  V30 2814 C 264.348 -2.01598 0.220519 0
M  V30 2815 C 264.681 -1.54594 -1.17535 0
M  V30 2816 O 263.956 -0.755177 -1.79241 0
M  V30 2817 C 264.239 -3.59062 0.273243 0
M  V30 2818 C 264.092 -4.16203 1.70573 0
M  V30 2819 C 265.411 -4.38546 -0.369457 0
M  V30 2820 H 262.53 -0.732468 0.0816045 0
M  V30 2821 H 265.172 -1.68445 0.878986 0
M  V30 2822 H 263.322 -3.87435 -0.287411 0
M  V30 2823 H 264.994 -3.98722 2.31989 0
M  V30 2824 H 263.237 -3.71414 2.2413 0
M  V30 2825 H 263.908 -5.25358 1.69419 0
M  V30 2826 H 266.384 -4.1596 0.107977 0
M  V30 2827 H 265.26 -5.48069 -0.302002 0
M  V30 2828 H 265.521 -4.17662 -1.44951 0
M  V30 2829 N 264.58 -0.43555 -1.51462 0
M  V30 2830 C 265.51 0.367376 -2.30592 0
M  V30 2831 C 266.491 1.02263 -1.35928 0
M  V30 2832 O 267.676 1.02661 -1.64847 0
M  V30 2833 C 264.806 1.46983 -3.14664 0
M  V30 2834 C 263.76 0.938161 -4.17591 0
M  V30 2835 C 263.086 2.13622 -4.90173 0
M  V30 2836 C 264.386 -0.0261621 -5.22293 0
M  V30 2837 H 266.08 -0.292969 -2.97963 0
M  V30 2838 H 263.626 -0.14234 -1.43295 0
M  V30 2839 H 265.579 2.03873 -3.688 0
M  V30 2840 H 264.303 2.15843 -2.4511 0
M  V30 2841 H 262.962 0.391481 -3.64504 0
M  V30 2842 H 262.61 2.81098 -4.17124 0
M  V30 2843 H 262.31 1.78688 -5.59772 0
M  V30 2844 H 263.834 2.7107 -5.47132 0
M  V30 2845 H 265.248 0.452384 -5.71512 0
M  V30 2846 H 263.645 -0.287992 -5.99409 0
M  V30 2847 H 264.715 -0.963391 -4.75233 0
M  V30 2848 N 266.058 1.56714 -0.166846 0
M  V30 2849 C 267.335 1.88412 0.525373 0
M  V30 2850 C 267.715 1.07602 1.81618 0
M  V30 2851 O 267.063 0.168621 2.27877 0
M  V30 2852 C 267.273 3.40363 0.771613 0
M  V30 2853 C 268.621 4.10007 1.1036 0
M  V30 2854 O 269.645 3.45655 0.860304 0
M  V30 2855 O 268.504 5.2369 1.56239 0
M  V30 2856 H 265.598 0.781587 0.270278 0
M  V30 2857 H 268.144 1.68458 -0.204946 0
M  V30 2858 H 266.916 3.91046 -0.141093 0
M  V30 2859 H 266.539 3.65914 1.55541 0
M  V30 2860 N 267.536 -0.106894 1.57237 0
M  V30 2861 C 268.813 -0.843526 1.76477 0
M  V30 2862 C 269.193 -1.97499 0.745464 0
M  V30 2863 O 268.541 -2.27357 -0.228306 0
M  V30 2864 C 268.751 -1.34903 3.21873 0
M  V30 2865 C 270.099 -1.79654 3.8472 0
M  V30 2866 O 271.123 -1.44554 3.2555 0
M  V30 2867 O 269.982 -2.44515 4.88748 0
M  V30 2868 H 267.076 -0.401468 0.723016 0
M  V30 2869 H 269.622 -0.0896927 1.69463 0
M  V30 2870 H 268.394 -0.53781 3.87586 0
M  V30 2871 H 268.017 -2.16522 3.33473 0
M  V30 2872 N 269.014 -1.53014 -0.377408 0
M  V30 2873 C 270.239 -1.72818 -1.14668 0
M  V30 2874 C 270.664 -0.450725 -1.8262 0
M  V30 2875 O 270.022 0.59439 -1.7128 0
M  V30 2876 C 270.07 -2.88627 -2.16164 0
M  V30 2877 O 269.174 -2.56409 -3.22998 0
M  V30 2878 H 268.515 -0.574301 -0.333278 0
M  V30 2879 H 271.045 -1.99853 -0.438152 0
M  V30 2880 H 271.055 -3.14455 -2.59966 0
M  V30 2881 H 269.73 -3.81294 -1.66095 0
M  V30 2882 H 268.307 -2.4136 -2.84253 0
M  V30 2883 N 270.492 0.636531 -1.44174 0
M  V30 2884 C 271.439 1.74875 -1.50624 0
M  V30 2885 C 272.409 1.62275 -0.35442 0
M  V30 2886 O 273.594 1.82276 -0.563908 0
M  V30 2887 C 270.734 3.13102 -1.45125 0
M  V30 2888 C 269.847 3.36717 -2.7064 0
M  V30 2889 C 268.982 4.64885 -2.57013 0
M  V30 2890 C 268.021 4.8166 -3.77717 0
M  V30 2891 N 267.158 6.01101 -3.62798 0
M  V30 2892 H 271.998 1.68697 -2.45653 0
M  V30 2893 H 269.535 0.823004 -1.21922 0
M  V30 2894 H 271.493 3.93034 -1.39929 0
M  V30 2895 H 270.123 3.18308 -0.536671 0
M  V30 2896 H 269.175 2.50763 -2.86046 0
M  V30 2897 H 270.487 3.44993 -3.60252 0
M  V30 2898 H 269.641 5.52969 -2.49619 0
M  V30 2899 H 268.38 4.58957 -1.64953 0
M  V30 2900 H 267.385 3.92007 -3.85501 0
M  V30 2901 H 268.61 4.89406 -4.70807 0
M  V30 2902 H 266.556 5.96273 -2.73486 0
M  V30 2903 H 266.473 6.10409 -4.46023 0
M  V30 2904 H 267.741 6.91761 -3.59286 0
M  V30 2905 N 271.97 1.30982 0.876444 0
M  V30 2906 C 273.386 1.09498 1.16113 0
M  V30 2907 C 273.586 -0.13875 2.01022 0
M  V30 2908 O 272.642 -0.829935 2.38471 0
M  V30 2909 C 273.955 2.36308 1.85954 0
M  V30 2910 C 275.503 2.41856 1.98683 0
M  V30 2911 C 275.978 3.6853 2.71937 0
M  V30 2912 N 277.469 3.69387 2.79477 0
M  V30 2913 C 278.204 4.64096 3.36753 0
M  V30 2914 N 277.7 5.69155 3.95012 0
M  V30 2915 N 279.493 4.51626 3.3465 0
M  V30 2916 H 271.644 2.10118 0.310494 0
M  V30 2917 H 273.907 0.926634 0.200131 0
M  V30 2918 H 273.613 3.26388 1.31011 0
M  V30 2919 H 273.487 2.4561 2.86278 0
M  V30 2920 H 275.874 1.52249 2.52793 0
M  V30 2921 H 275.955 2.36523 0.9742 0
M  V30 2922 H 275.599 4.58499 2.18496 0
M  V30 2923 H 275.529 3.71127 3.73593 0
M  V30 2924 H 278.02 2.93438 2.38123 0
M  V30 2925 H 278.333 6.3751 4.36808 0
M  V30 2926 H 276.678 5.72937 3.93406 0
M  V30 2927 H 279.869 3.68728 2.8837 0
M  V30 2928 H 280.042 5.25614 3.7899 0
M  V30 2929 N 273.449 -1.08991 1.13837 0
M  V30 2930 C 274.379 -2.17771 0.842507 0
M  V30 2931 C 275.36 -1.6892 -0.20001 0
M  V30 2932 O 276.545 -1.94113 -0.0579731 0
M  V30 2933 C 273.675 -3.4589 0.312644 0
M  V30 2934 C 272.629 -4.08099 1.28992 0
M  V30 2935 C 271.955 -5.31098 0.619623 0
M  V30 2936 C 273.255 -4.50077 2.65005 0
M  V30 2937 H 274.949 -2.42777 1.75213 0
M  V30 2938 H 272.495 -1.16682 0.843875 0
M  V30 2939 H 274.448 -4.21297 0.0933043 0
M  V30 2940 H 273.172 -3.20419 -0.632382 0
M  V30 2941 H 271.831 -3.34717 1.49533 0
M  V30 2942 H 271.479 -5.0191 -0.33102 0
M  V30 2943 H 271.179 -5.73674 1.27167 0
M  V30 2944 H 272.703 -6.09224 0.409669 0
M  V30 2945 H 274.117 -5.16688 2.48407 0
M  V30 2946 H 272.514 -5.03553 3.26427 0
M  V30 2947 H 273.584 -3.62257 3.22332 0
M  V30 2948 N 274.927 -0.932562 -1.27047 0
M  V30 2949 C 275.89 -0.440064 -2.24936 0
M  V30 2950 C 276.89 0.444071 -1.54547 0
M  V30 2951 O 278.08 0.244465 -1.72476 0
M  V30 2952 C 275.212 0.36678 -3.38921 0
M  V30 2953 H 276.405 -1.305 -2.70018 0
M  V30 2954 H 273.958 -0.713707 -1.39054 0
M  V30 2955 H 274.693 1.25033 -2.99228 0
M  V30 2956 H 274.478 -0.267204 -3.91188 0
M  V30 2957 H 275.968 0.701567 -4.11665 0
M  V30 2958 N 276.405 1.4127 -0.698611 0
M  V30 2959 C 277.352 2.30773 -0.0352094 0
M  V30 2960 C 278.322 1.47273 0.768111 0
M  V30 2961 O 279.507 1.76053 0.735524 0
M  V30 2962 C 276.647 3.33346 0.893 0
M  V30 2963 C 275.76 4.31924 0.0809695 0
M  V30 2964 C 274.895 5.21566 1.0071 0
M  V30 2965 C 273.934 6.11811 0.188155 0
M  V30 2966 N 273.071 6.93926 1.06825 0
M  V30 2967 H 277.911 2.86943 -0.804207 0
M  V30 2968 H 275.448 1.4132 -0.408294 0
M  V30 2969 H 277.406 3.91368 1.44523 0
M  V30 2970 H 276.036 2.78719 1.62836 0
M  V30 2971 H 275.088 3.75825 -0.588224 0
M  V30 2972 H 276.4 4.95716 -0.553801 0
M  V30 2973 H 275.554 5.84437 1.62845 0
M  V30 2974 H 274.293 4.58008 1.67572 0
M  V30 2975 H 273.298 5.47986 -0.446254 0
M  V30 2976 H 274.523 6.77425 -0.476716 0
M  V30 2977 H 272.469 6.32973 1.72283 0
M  V30 2978 H 272.386 7.54416 0.489123 0
M  V30 2979 H 273.654 7.61262 1.67632 0
M  V30 2980 N 277.883 0.443576 1.51229 0
M  V30 2981 C 279.299 0.0962001 1.5931 0
M  V30 2982 C 279.499 -1.39501 1.45402 0
M  V30 2983 O 278.555 -2.16557 1.29843 0
M  V30 2984 C 279.868 0.621875 2.94199 0
M  V30 2985 C 281.416 0.582865 3.07525 0
M  V30 2986 C 281.891 1.08562 4.44948 0
M  V30 2987 N 283.382 1.04387 4.51284 0
M  V30 2988 C 284.117 1.40368 5.55954 0
M  V30 2989 N 283.613 1.83664 6.68011 0
M  V30 2990 N 285.406 1.32145 5.46346 0
M  V30 2991 H 277.557 1.41376 1.58514 0
M  V30 2992 H 279.82 0.582965 0.747567 0
M  V30 2993 H 279.526 1.66546 3.09767 0
M  V30 2994 H 279.4 0.0502125 3.77167 0
M  V30 2995 H 281.787 -0.451749 2.91622 0
M  V30 2996 H 281.868 1.191 2.26382 0
M  V30 2997 H 281.512 2.11873 4.61598 0
M  V30 2998 H 281.442 0.453956 5.2464 0
M  V30 2999 H 283.933 0.725986 3.70861 0
M  V30 3000 H 284.246 2.0934 7.43906 0
M  V30 3001 H 282.591 1.87596 6.69203 0
M  V30 3002 H 285.782 0.981808 4.57688 0
M  V30 3003 H 285.955 1.60514 6.27805 0
M  V30 3004 N 279.361 -1.56624 0.175154 0
M  V30 3005 C 280.308 -2.18149 -0.753634 0
M  V30 3006 C 281.278 -1.12265 -1.22417 0
M  V30 3007 O 282.463 -1.40432 -1.29165 0
M  V30 3008 C 279.603 -2.82933 -1.97592 0
M  V30 3009 C 278.716 -4.03289 -1.5486 0
M  V30 3010 C 277.851 -4.55988 -2.72485 0
M  V30 3011 C 276.89 -5.68746 -2.26262 0
M  V30 3012 N 276.027 -6.15938 -3.36994 0
M  V30 3013 H 280.867 -2.9717 -0.222195 0
M  V30 3014 H 278.404 -1.46774 -0.0979422 0
M  V30 3015 H 280.362 -3.18653 -2.69288 0
M  V30 3016 H 278.992 -2.06509 -2.481 0
M  V30 3017 H 278.044 -3.73364 -0.728246 0
M  V30 3018 H 279.356 -4.849 -1.16933 0
M  V30 3019 H 278.51 -4.9391 -3.52332 0
M  V30 3020 H 277.249 -3.73443 -3.13674 0
M  V30 3021 H 276.254 -5.30372 -1.44863 0
M  V30 3022 H 277.479 -6.53095 -1.86127 0
M  V30 3023 H 275.425 -5.36321 -3.77751 0
M  V30 3024 H 275.342 -6.92548 -3.03172 0
M  V30 3025 H 276.61 -6.58511 -4.17114 0
M  V30 3026 N 280.839 0.0985539 -1.57292 0
M  V30 3027 C 281.769 1.12064 -2.04851 0
M  V30 3028 C 282.75 1.41981 -0.936767 0
M  V30 3029 O 283.935 1.52071 -1.20781 0
M  V30 3030 C 281.065 2.44144 -2.47004 0
M  V30 3031 C 280.019 2.28643 -3.6181 0
M  V30 3032 C 279.345 3.65869 -3.89929 0
M  V30 3033 C 280.645 1.72986 -4.92822 0
M  V30 3034 H 282.339 0.724979 -2.9049 0
M  V30 3035 H 279.885 0.34729 -1.39749 0
M  V30 3036 H 281.838 3.15914 -2.78884 0
M  V30 3037 H 280.562 2.85639 -1.5836 0
M  V30 3038 H 279.221 1.59318 -3.30172 0
M  V30 3039 H 278.869 4.04885 -2.98458 0
M  V30 3040 H 278.569 3.56344 -4.67218 0
M  V30 3041 H 280.093 4.39112 -4.2428 0
M  V30 3042 H 281.507 2.34593 -5.23105 0
M  V30 3043 H 279.904 1.74229 -5.74251 0
M  V30 3044 H 280.974 0.689007 -4.7998 0
M  V30 3045 N 282.317 1.53212 0.369288 0
M  V30 3046 C 283.566 1.68436 1.10961 0
M  V30 3047 C 283.879 0.440738 1.9057 0
M  V30 3048 O 285.085 0.473446 2.6734 0
M  V30 3049 C 283.541 2.97744 2.0218 0
M  V30 3050 C 283.149 4.29355 1.279 0
M  V30 3051 C 284.893 3.22334 2.76226 0
M  V30 3052 C 282.8 5.49755 2.17999 0
M  V30 3053 H 281.73 0.627568 0.41794 0
M  V30 3054 H 284.381 1.79713 0.370884 0
M  V30 3055 H 282.763 2.8026 2.79768 0
M  V30 3056 H 283.937 4.57458 0.554007 0
M  V30 3057 H 282.252 4.11179 0.657311 0
M  V30 3058 H 284.849 4.09471 3.43857 0
M  V30 3059 H 285.192 2.38238 3.41392 0
M  V30 3060 H 285.725 3.40475 2.05723 0
M  V30 3061 H 282.464 6.36318 1.57417 0
M  V30 3062 H 281.984 5.25937 2.88359 0
M  V30 3063 H 283.663 5.84401 2.77641 0
M  V30 3064 N 283.795 -0.628877 1.44509 0
M  V30 3065 C 284.705 -1.7694 1.54044 0
M  V30 3066 C 285.721 -1.68705 0.425987 0
M  V30 3067 O 286.897 -1.89442 0.683656 0
M  V30 3068 C 283.962 -3.13332 1.48405 0
M  V30 3069 C 283.023 -3.33181 2.70719 0
M  V30 3070 C 282.256 -4.63067 2.6534 0
M  V30 3071 O 282.479 -5.44017 1.71469 0
M  V30 3072 O 281.413 -4.85167 3.56226 0
M  V30 3073 H 285.239 -1.71848 2.50403 0
M  V30 3074 H 282.824 -0.790378 1.26781 0
M  V30 3075 H 284.706 -3.94634 1.47791 0
M  V30 3076 H 283.381 -3.1896 0.551898 0
M  V30 3077 H 282.288 -2.51549 2.769 0
M  V30 3078 H 283.621 -3.32416 3.62988 0
M  V30 3079 N 285.273 -1.31445 -0.869486 0
M  V30 3080 C 286.183 -1.21097 -2.0093 0
M  V30 3081 C 287.199 -0.127584 -1.73532 0
M  V30 3082 O 288.375 -0.345477 -1.98415 0
M  V30 3083 C 285.44 -0.919378 -3.34288 0
M  V30 3084 C 284.501 -2.08971 -3.75006 0
M  V30 3085 C 283.734 -1.81194 -5.02001 0
M  V30 3086 O 283.957 -0.747296 -5.65484 0
M  V30 3087 O 282.891 -2.66883 -5.39497 0
M  V30 3088 H 286.717 -2.16883 -2.12592 0
M  V30 3089 H 284.302 -1.11189 -0.997868 0
M  V30 3090 H 286.184 -0.772625 -4.14257 0
M  V30 3091 H 284.859 0.00844772 -3.23699 0
M  V30 3092 H 283.766 -2.29187 -2.95676 0
M  V30 3093 H 285.099 -2.9998 -3.90221 0
M  V30 3094 N 286.751 1.08385 -1.14413 0
M  V30 3095 C 287.699 2.17406 -0.826888 0
M  V30 3096 C 288.693 1.6827 0.195312 0
M  V30 3097 O 289.899 1.79927 0.0513892 0
M  V30 3098 H 286.274 0.70934 -0.249681 0
M  V30 3099 H 288.245 2.41388 -1.75426 0
M  V30 3100 C 286.994 3.46215 -0.320979 0
M  V30 3101 H 286.317 3.84401 -1.0989 0
M  V30 3102 H 287.757 4.23777 -0.137549 0
M  V30 3103 C 286.216 3.23067 0.955472 0
M  V30 3104 O 286.746 3.4668 2.02918 0
M  V30 3105 N 284.952 2.7661 0.890798 0
M  V30 3106 H 284.499 2.57594 0.0168815 0
M  V30 3107 H 284.457 2.61501 1.74542 0
M  V30 3108 N 288.23 0.939286 1.26551 0
M  V30 3109 C 289.646 0.641304 1.46149 0
M  V30 3110 C 289.846 -0.805964 1.84679 0
M  V30 3111 O 288.902 -1.58278 1.96734 0
M  V30 3112 C 290.215 1.6011 2.54529 0
M  V30 3113 C 291.763 1.6106 2.68382 0
M  V30 3114 C 292.238 2.55765 3.79932 0
M  V30 3115 N 293.729 2.5404 3.87322 0
M  V30 3116 C 294.464 3.24004 4.73085 0
M  V30 3117 N 293.96 4.03388 5.63249 0
M  V30 3118 N 295.753 3.12965 4.66914 0
M  V30 3119 H 287.904 1.87478 0.998285 0
M  V30 3120 H 290.167 0.805559 0.499779 0
M  V30 3121 H 289.873 2.63412 2.33039 0
M  V30 3122 H 289.747 1.35171 3.52149 0
M  V30 3123 H 292.134 0.584835 2.89247 0
M  V30 3124 H 292.215 1.90053 1.71212 0
M  V30 3125 H 291.859 3.58458 3.5982 0
M  V30 3126 H 291.789 2.24063 4.76554 0
M  V30 3127 H 294.28 1.96396 3.22858 0
M  V30 3128 H 294.593 4.5373 6.25579 0
M  V30 3129 H 292.938 4.07489 5.63008 0
M  V30 3130 H 296.129 2.50432 3.95476 0
M  V30 3131 H 296.302 3.67759 5.33533 0
M  V30 3132 N 289.708 -1.40897 0.706093 0
M  V30 3133 C 290.618 -2.3455 0.0482286 0
M  V30 3134 C 291.634 -1.56796 -0.754396 0
M  V30 3135 O 292.81 -1.89228 -0.689538 0
M  V30 3136 C 289.875 -3.35625 -0.869303 0
M  V30 3137 C 288.936 -4.29261 -0.0576994 0
M  V30 3138 C 288.169 -5.25508 -0.931531 0
M  V30 3139 O 288.392 -5.27472 -2.17092 0
M  V30 3140 O 287.326 -6.00727 -0.375587 0
M  V30 3141 H 291.152 -2.92407 0.820476 0
M  V30 3142 H 288.737 -1.4193 0.4665 0
M  V30 3143 H 290.619 -3.97635 -1.39514 0
M  V30 3144 H 289.294 -2.80196 -1.62086 0
M  V30 3145 H 288.201 -3.70566 0.512988 0
M  V30 3146 H 289.534 -4.87817 0.655426 0
M  V30 3147 N 291.186 -0.45159 -1.50991 0
M  V30 3148 C 292.133 0.352625 -2.2809 0
M  V30 3149 C 293.103 1.0044 -1.32291 0
M  V30 3150 O 294.288 1.02058 -1.6121 0
M  V30 3151 C 291.428 1.43983 -3.13629 0
M  V30 3152 C 290.541 0.804772 -4.24438 0
M  V30 3153 C 289.676 1.86822 -4.97263 0
M  V30 3154 C 288.715 1.21236 -5.99973 0
M  V30 3155 N 287.852 2.2178 -6.66152 0
M  V30 3156 H 292.692 -0.311186 -2.96371 0
M  V30 3157 H 290.229 -0.165308 -1.46168 0
M  V30 3158 H 292.187 2.08161 -3.61559 0
M  V30 3159 H 290.817 2.07307 -2.47434 0
M  V30 3160 H 289.869 0.0509129 -3.80366 0
M  V30 3161 H 291.181 0.286076 -4.97979 0
M  V30 3162 H 290.335 2.58628 -5.48813 0
M  V30 3163 H 289.074 2.42068 -4.23385 0
M  V30 3164 H 288.079 0.479828 -5.47702 0
M  V30 3165 H 289.304 0.667051 -6.75816 0
M  V30 3166 H 287.25 2.76079 -5.95077 0
M  V30 3167 H 287.167 1.74841 -7.35504 0
M  V30 3168 H 288.435 2.93026 -7.22327 0
M  V30 3169 N 292.664 1.56529 -0.183458 0
M  V30 3170 C 294.08 1.58664 0.172554 0
M  V30 3171 C 294.28 1.19925 1.61926 0
M  V30 3172 O 293.336 0.916534 2.35278 0
M  V30 3173 C 294.649 3.00463 -0.119262 0
M  V30 3174 C 296.197 3.12945 -0.0584396 0
M  V30 3175 C 296.672 4.56857 -0.323408 0
M  V30 3176 N 298.163 4.62403 -0.271612 0
M  V30 3177 C 298.898 5.71626 -0.450639 0
M  V30 3178 N 298.394 6.89362 -0.689384 0
M  V30 3179 N 300.187 5.60775 -0.385701 0
M  V30 3180 H 292.338 1.79994 -1.12765 0
M  V30 3181 H 294.601 0.834808 -0.449222 0
M  V30 3182 H 294.307 3.33326 -1.12192 0
M  V30 3183 H 294.181 3.72659 0.583544 0
M  V30 3184 H 296.568 2.79902 0.934805 0
M  V30 3185 H 296.649 2.4316 -0.794144 0
M  V30 3186 H 296.293 4.9061 -1.31392 0
M  V30 3187 H 296.223 5.24816 0.43305 0
M  V30 3188 H 298.714 3.77785 -0.0932256 0
M  V30 3189 H 299.027 7.68489 -0.815113 0
M  V30 3190 H 297.372 6.91196 -0.726142 0
M  V30 3191 H 300.563 4.67674 -0.199687 0
M  V30 3192 H 300.736 6.4584 -0.528646 0
M  V30 3193 N 294.142 -0.090211 1.57342 0
M  V30 3194 C 295.558 -0.444547 1.53284 0
M  V30 3195 C 295.758 -1.80238 0.900914 0
M  V30 3196 O 294.814 -2.4759 0.495513 0
M  V30 3197 C 296.127 -0.402543 2.97993 0
M  V30 3198 C 297.675 -0.48405 3.09234 0
M  V30 3199 C 298.15 -0.472144 4.5556 0
M  V30 3200 N 299.641 -0.532757 4.60126 0
M  V30 3201 C 300.376 -0.545462 5.708 0
M  V30 3202 N 299.872 -0.514082 6.9089 0
M  V30 3203 N 301.665 -0.59064 5.58988 0
M  V30 3204 H 293.816 0.799121 1.96794 0
M  V30 3205 H 296.079 0.297965 0.899956 0
M  V30 3206 H 295.785 0.528106 3.47712 0
M  V30 3207 H 295.659 -1.21969 3.56936 0
M  V30 3208 H 298.046 -1.40512 2.595 0
M  V30 3209 H 298.127 0.361328 2.53235 0
M  V30 3210 H 297.771 0.445 5.05947 0
M  V30 3211 H 297.701 -1.3348 5.09402 0
M  V30 3212 H 300.192 -0.562006 3.73698 0
M  V30 3213 H 300.505 -0.527195 7.71 0
M  V30 3214 H 298.85 -0.481054 6.93333 0
M  V30 3215 H 302.041 -0.61272 4.64073 0
M  V30 3216 H 302.214 -0.597073 6.45243 0
M  V30 3217 N 295.62 -1.53406 -0.361157 0
M  V30 3218 C 297.036 -1.43277 -0.703124 0
M  V30 3219 C 297.236 -0.575384 -1.9311 0
M  V30 3220 O 296.292 -0.0595362 -2.5243 0
M  V30 3221 C 297.605 -2.8653 -0.9122 0
M  V30 3222 C 299.153 -2.96191 -1.01193 0
M  V30 3223 C 299.628 -4.40514 -1.25345 0
M  V30 3224 N 301.119 -4.43962 -1.32105 0
M  V30 3225 C 301.854 -5.52746 -1.5251 0
M  V30 3226 N 301.35 -6.71567 -1.70203 0
M  V30 3227 N 303.143 -5.40331 -1.54916 0
M  V30 3228 H 295.294 -2.07654 0.446475 0
M  V30 3229 H 297.557 -0.937944 0.137715 0
M  V30 3230 H 297.263 -3.51605 -0.0816414 0
M  V30 3231 H 297.137 -3.30441 -1.81903 0
M  V30 3232 H 299.524 -2.31266 -1.83303 0
M  V30 3233 H 299.605 -2.55667 -0.0823929 0
M  V30 3234 H 299.249 -5.06014 -0.437346 0
M  V30 3235 H 299.179 -4.78614 -2.19627 0
M  V30 3236 H 301.67 -3.58332 -1.20028 0
M  V30 3237 H 301.983 -7.50241 -1.85359 0
M  V30 3238 H 300.328 -6.74545 -1.67373 0
M  V30 3239 H 303.519 -4.46465 -1.40663 0
M  V30 3240 H 303.692 -6.25173 -1.70477 0
M  V30 3241 N 297.098 0.621204 -1.44841 0
M  V30 3242 C 298.008 1.7612 -1.5498 0
M  V30 3243 C 299.024 1.68477 -0.434927 0
M  V30 3244 O 300.2 1.89076 -0.693693 0
M  V30 3245 C 297.265 3.1254 -1.50065 0
M  V30 3246 C 296.326 3.31741 -2.72482 0
M  V30 3247 C 295.559 4.61653 -2.67792 0
M  V30 3248 O 295.782 5.431 -1.74352 0
M  V30 3249 O 294.716 4.83271 -3.58794 0
M  V30 3250 H 298.542 1.70518 -2.51311 0
M  V30 3251 H 296.127 0.783643 -1.27198 0
M  V30 3252 H 298.009 3.93844 -1.49882 0
M  V30 3253 H 296.684 3.18663 -0.568806 0
M  V30 3254 H 295.591 2.50077 -2.7823 0
M  V30 3255 H 296.924 3.30486 -3.64746 0
M  V30 3256 N 298.576 1.31904 0.862503 0
M  V30 3257 C 299.486 1.22161 2.00285 0
M  V30 3258 C 300.502 0.136785 1.73462 0
M  V30 3259 O 301.678 0.355994 1.98229 0
M  V30 3260 C 298.743 0.937093 3.33796 0
M  V30 3261 C 297.804 2.10957 3.73893 0
M  V30 3262 C 297.037 1.83853 5.01033 0
M  V30 3263 O 297.26 0.777274 5.65079 0
M  V30 3264 O 296.194 2.69741 5.38074 0
M  V30 3265 H 300.02 2.18008 2.11439 0
M  V30 3266 H 297.605 1.11716 0.991957 0
M  V30 3267 H 299.487 0.794583 4.13841 0
M  V30 3268 H 298.162 0.00871894 3.23699 0
M  V30 3269 H 297.069 2.30752 2.94456 0
M  V30 3270 H 298.402 3.02046 3.88625 0
M  V30 3271 N 300.054 -1.07777 1.14986 0
M  V30 3272 C 300.984 -2.16865 0.865557 0
M  V30 3273 C 301.965 -1.69123 -0.182083 0
M  V30 3274 O 303.15 -1.94164 -0.0373815 0
M  V30 3275 C 300.28 -3.45539 0.349313 0
M  V30 3276 C 299.234 -4.06708 1.33313 0
M  V30 3277 C 298.56 -5.30411 0.675918 0
M  V30 3278 C 299.86 -4.47241 2.69764 0
M  V30 3279 H 301.554 -2.40905 1.77778 0
M  V30 3280 H 299.1 -1.15781 0.856203 0
M  V30 3281 H 301.053 -4.21174 0.137983 0
M  V30 3282 H 299.777 -3.21072 -0.598362 0
M  V30 3283 H 298.436 -3.33112 1.53075 0
M  V30 3284 H 298.084 -5.02232 -0.277767 0
M  V30 3285 H 297.784 -5.72293 1.33244 0
M  V30 3286 H 299.308 -6.08755 0.474262 0
M  V30 3287 H 300.722 -5.14025 2.53873 0
M  V30 3288 H 299.119 -5.00062 3.3175 0
M  V30 3289 H 300.189 -3.58818 3.26156 0
M  V30 3290 N 301.532 -0.945985 -1.26051 0
M  V30 3291 C 302.464 -0.416662 -2.25381 0
M  V30 3292 C 303.477 0.462712 -1.56086 0
M  V30 3293 O 304.666 0.272383 -1.7641 0
M  V30 3294 C 301.766 0.419812 -3.3629 0
M  V30 3295 C 300.939 -0.444531 -4.35135 0
M  V30 3296 C 299.998 0.332305 -5.2515 0
M  V30 3297 O 299.024 -0.266324 -5.68577 0
M  V30 3298 N 300.226 1.62763 -5.57215 0
M  V30 3299 H 302.991 -1.27059 -2.71433 0
M  V30 3300 H 300.552 -0.815392 -1.39868 0
M  V30 3301 H 302.544 0.947013 -3.93464 0
M  V30 3302 H 301.114 1.17456 -2.89694 0
M  V30 3303 H 300.334 -1.15291 -3.76964 0
M  V30 3304 H 301.622 -1.03478 -4.98166 0
M  V30 3305 H 301.02 2.13603 -5.23823 0
M  V30 3306 H 299.577 2.10097 -6.17011 0
M  V30 3307 N 303.011 1.40521 -0.713556 0
M  V30 3308 C 303.958 2.30723 -0.059684 0
M  V30 3309 C 304.928 1.48079 0.752448 0
M  V30 3310 O 306.113 1.76823 0.71681 0
M  V30 3311 C 303.253 3.34274 0.857594 0
M  V30 3312 C 302.366 4.31986 0.0351536 0
M  V30 3313 C 301.501 5.22605 0.951724 0
M  V30 3314 C 300.54 6.11976 0.123253 0
M  V30 3315 N 299.677 6.9502 0.99459 0
M  V30 3316 H 304.517 2.86074 -0.834596 0
M  V30 3317 H 302.054 1.40879 -0.42326 0
M  V30 3318 H 304.012 3.92879 1.40364 0
M  V30 3319 H 302.642 2.8043 1.59871 0
M  V30 3320 H 301.694 3.7518 -0.628052 0
M  V30 3321 H 303.006 4.95101 -0.606347 0
M  V30 3322 H 302.16 5.86131 1.56638 0
M  V30 3323 H 300.899 4.59759 1.62705 0
M  V30 3324 H 299.904 5.47482 -0.50435 0
M  V30 3325 H 301.129 6.76881 -0.548539 0
M  V30 3326 H 299.075 6.34764 1.6556 0
M  V30 3327 H 298.992 7.54892 0.40908 0
M  V30 3328 H 300.26 7.62997 1.59549 0
M  V30 3329 N 304.489 0.459591 1.5075 0
M  V30 3330 C 305.714 -0.0996819 2.0716 0
M  V30 3331 C 306.139 -1.33761 1.32249 0
M  V30 3332 O 305.497 -1.77551 0.366786 0
M  V30 3333 C 305.545 -0.378226 3.58611 0
M  V30 3334 O 304.649 -1.46081 3.85661 0
M  V30 3335 H 303.99 0.00791392 0.663953 0
M  V30 3336 H 306.52 0.647329 1.9409 0
M  V30 3337 H 306.53 -0.622135 4.03229 0
M  V30 3338 H 305.205 0.526439 4.12555 0
M  V30 3339 H 303.782 -1.20511 3.5289 0
M  V30 3340 N 305.967 -1.56429 0.191757 0
M  V30 3341 C 307.216 -1.9666 -0.448088 0
M  V30 3342 C 307.529 -1.08136 -1.62991 0
M  V30 3343 O 308.735 -1.38135 -2.33733 0
M  V30 3344 C 307.191 -3.49753 -0.848585 0
M  V30 3345 C 306.799 -4.46935 0.308764 0
M  V30 3346 C 308.543 -3.9876 -1.4557 0
M  V30 3347 C 306.45 -5.91293 -0.112506 0
M  V30 3348 H 305.38 -0.734312 -0.171179 0
M  V30 3349 H 308.031 -1.81301 0.283242 0
M  V30 3350 H 306.413 -3.60604 -1.63649 0
M  V30 3351 H 307.587 -4.47813 1.08627 0
M  V30 3352 H 305.902 -4.08102 0.827158 0
M  V30 3353 H 308.499 -5.04086 -1.78328 0
M  V30 3354 H 308.842 -3.42875 -2.36099 0
M  V30 3355 H 309.375 -3.9101 -0.731836 0
M  V30 3356 H 306.114 -6.51097 0.758514 0
M  V30 3357 H 305.634 -5.93676 -0.854941 0
M  V30 3358 H 307.313 -6.44663 -0.549448 0
M  V30 3359 N 307.445 0.0818655 -1.57387 0
M  V30 3360 C 308.693 0.781368 -1.86384 0
M  V30 3361 C 309.014 1.78618 -0.782342 0
M  V30 3362 O 308.284 1.94976 0.190061 0
M  V30 3363 H 306.864 0.291562 -0.687751 0
M  V30 3364 H 309.526 0.060348 -1.94807 0
M  V30 3365 H 308.622 1.3038 -2.83562 0
M  V30 3366 N 308.923 1.53595 0.353017 0
M  V30 3367 C 309.873 1.77299 1.43349 0
M  V30 3368 C 310.857 0.627884 1.48143 0
M  V30 3369 O 312.049 0.88697 1.53173 0
M  V30 3370 C 309.178 1.97757 2.80619 0
M  V30 3371 C 308.264 3.18305 2.80254 0
M  V30 3372 N 308.655 4.39967 2.49526 0
M  V30 3373 C 306.953 3.19283 3.11407 0
M  V30 3374 C 307.654 5.21772 2.57156 0
M  V30 3375 N 306.63 4.58269 2.92388 0
M  V30 3376 H 310.432 2.68963 1.18474 0
M  V30 3377 H 307.946 1.52391 0.561306 0
M  V30 3378 H 309.943 2.1287 3.58458 0
M  V30 3379 H 308.603 1.07329 3.06448 0
M  V30 3380 H 309.614 4.67482 2.22893 0
M  V30 3381 H 306.291 2.3879 3.4247 0
M  V30 3382 H 307.681 6.2885 2.36638 0
M  V30 3383 N 310.401 -0.613514 1.45168 0
M  V30 3384 C 311.348 -1.72456 1.53387 0
M  V30 3385 C 312.318 -1.6169 0.380191 0
M  V30 3386 O 313.503 -1.81356 0.592836 0
M  V30 3387 C 310.643 -3.10753 1.50088 0
M  V30 3388 C 309.756 -3.32368 2.75963 0
M  V30 3389 C 308.891 -4.60737 2.64376 0
M  V30 3390 C 307.93 -4.7559 3.85332 0
M  V30 3391 N 307.067 -5.95253 3.72315 0
M  V30 3392 H 311.907 -1.64768 2.48305 0
M  V30 3393 H 309.444 -0.803503 1.23216 0
M  V30 3394 H 311.402 -3.90758 1.46164 0
M  V30 3395 H 310.032 -3.17413 0.587243 0
M  V30 3396 H 309.084 -2.4618 2.89999 0
M  V30 3397 H 310.396 -3.39218 3.65695 0
M  V30 3398 H 309.55 -5.48928 2.58385 0
M  V30 3399 H 308.289 -4.56275 1.72233 0
M  V30 3400 H 307.294 -3.85824 3.91688 0
M  V30 3401 H 308.519 -4.81854 4.78533 0
M  V30 3402 H 306.465 -5.91847 2.82937 0
M  V30 3403 H 306.382 -6.03236 4.55677 0
M  V30 3404 H 307.65 -6.85958 3.70246 0
M  V30 3405 N 311.879 -1.3236 -0.855495 0
M  V30 3406 C 313.29 -1.2056 -1.42556 0
M  V30 3407 C 313.641 0.182209 -1.95352 0
M  V30 3408 O 312.766 1.08088 -1.87472 0
M  V30 3409 C 313.361 -2.1826 -2.59129 0
M  V30 3410 C 311.92 -2.10351 -3.12137 0
M  V30 3411 C 311.067 -2.06674 -1.84882 0
M  V30 3412 H 314.018 -1.442 -0.662727 0
M  V30 3413 H 314.039 -1.78064 -3.36264 0
M  V30 3414 H 313.551 -3.19257 -2.20673 0
M  V30 3415 H 311.652 -1.12599 -3.55179 0
M  V30 3416 H 311.765 -3.00135 -3.73438 0
M  V30 3417 H 310.129 -1.51901 -2.04446 0
M  V30 3418 H 310.912 -3.09451 -1.48643 0
M  V30 3419 N 313.357 1.07166 -1.15556 0
M  V30 3420 C 314.267 2.17947 -0.868116 0
M  V30 3421 C 315.283 1.73297 0.156297 0
M  V30 3422 O 316.459 2.01392 -0.0182327 0
M  V30 3423 C 313.524 3.44789 -0.36355 0
M  V30 3424 C 312.585 4.03996 -1.45209 0
M  V30 3425 C 311.818 5.24783 -0.971508 0
M  V30 3426 O 312.041 5.70109 0.182194 0
M  V30 3427 O 310.975 5.75715 -1.75603 0
M  V30 3428 H 314.801 2.4503 -1.79427 0
M  V30 3429 H 312.386 1.16539 -0.934824 0
M  V30 3430 H 314.268 4.21307 -0.0887113 0
M  V30 3431 H 312.943 3.19253 0.534708 0
M  V30 3432 H 311.85 3.29009 -1.78056 0
M  V30 3433 H 313.183 4.33808 -2.32533 0
M  V30 3434 N 314.835 0.952656 1.25548 0
M  V30 3435 C 316.246 0.647392 1.75116 0
M  V30 3436 C 316.597 -0.837274 1.77438 0
M  V30 3437 O 315.722 -1.65525 1.39393 0
M  V30 3438 C 316.317 1.16845 3.18014 0
M  V30 3439 C 314.876 0.913382 3.6515 0
M  V30 3440 C 314.023 1.31265 2.44264 0
M  V30 3441 H 316.974 1.12968 1.11462 0
M  V30 3442 H 316.995 0.527606 3.76824 0
M  V30 3443 H 316.507 2.24902 3.16292 0
M  V30 3444 H 314.608 -0.152316 3.72289 0
M  V30 3445 H 314.721 1.54845 4.53387 0
M  V30 3446 H 313.085 0.731028 2.43984 0
M  V30 3447 H 313.868 2.40239 2.45234 0
M  V30 3448 N 316.313 -1.40141 0.720998 0
M  V30 3449 C 317.541 -2.05096 0.272656 0
M  V30 3450 C 317.956 -1.54334 -1.0875 0
M  V30 3451 O 317.313 -0.702211 -1.6845 0
M  V30 3452 C 317.364 -3.60636 0.249835 0
M  V30 3453 O 317.085 -4.09526 1.55629 0
M  V30 3454 C 318.586 -4.42772 -0.216396 0
M  V30 3455 H 315.806 -0.659897 0.121558 0
M  V30 3456 H 318.35 -1.79449 0.980723 0
M  V30 3457 H 316.505 -3.85232 -0.409237 0
M  V30 3458 H 316.919 -5.03758 1.4604 0
M  V30 3459 H 318.393 -5.51702 -0.181212 0
M  V30 3460 H 318.87 -4.20756 -1.25941 0
M  V30 3461 H 319.476 -4.23294 0.412596 0
M  V30 3462 N 317.792 -0.46758 -1.50504 0
M  V30 3463 C 319.069 0.15003 -1.95024 0
M  V30 3464 C 319.449 1.57304 -1.40779 0
M  V30 3465 O 318.797 2.20281 -0.607319 0
M  V30 3466 C 319.007 0.0969324 -3.48865 0
M  V30 3467 C 320.355 0.287565 -4.23625 0
M  V30 3468 O 321.379 0.173678 -3.55776 0
M  V30 3469 O 320.238 0.517186 -5.44047 0
M  V30 3470 H 317.332 0.113582 -0.819163 0
M  V30 3471 H 319.878 -0.52773 -1.61286 0
M  V30 3472 H 318.65 -0.896732 -3.80886 0
M  V30 3473 H 318.273 0.816303 -3.8913 0
M  V30 3474 N 319.27 1.56325 -0.20005 0
M  V30 3475 C 320.18 2.22931 0.730668 0
M  V30 3476 C 321.196 1.22997 1.23076 0
M  V30 3477 O 322.372 1.55748 1.27689 0
M  V30 3478 C 319.437 2.87948 1.93098 0
M  V30 3479 C 318.498 4.03166 1.47497 0
M  V30 3480 C 317.731 4.65073 2.61807 0
M  V30 3481 O 317.954 4.25913 3.79413 0
M  V30 3482 O 316.888 5.54452 2.34237 0
M  V30 3483 H 320.714 3.03084 0.193391 0
M  V30 3484 H 318.299 1.49371 0.0294621 0
M  V30 3485 H 320.181 3.29063 2.6324 0
M  V30 3486 H 318.856 2.10771 2.45677 0
M  V30 3487 H 317.763 3.66664 0.742201 0
M  V30 3488 H 319.096 4.82022 0.995796 0
M  V30 3489 N 320.748 -0.0735177 1.57428 0
M  V30 3490 C 321.658 -1.10547 2.06922 0
M  V30 3491 C 322.674 -1.42506 0.998402 0
M  V30 3492 O 323.85 -1.52717 1.31299 0
M  V30 3493 C 320.915 -2.40019 2.50184 0
M  V30 3494 C 319.976 -2.15046 3.71556 0
M  V30 3495 C 319.209 -3.38345 4.12745 0
M  V30 3496 O 319.432 -4.47399 3.53822 0
M  V30 3497 O 318.366 -3.2666 5.05546 0
M  V30 3498 H 322.192 -0.715013 2.95163 0
M  V30 3499 H 319.777 -0.287531 1.46607 0
M  V30 3500 H 321.659 -3.16218 2.78539 0
M  V30 3501 H 320.334 -2.78447 1.65072 0
M  V30 3502 H 319.241 -1.36558 3.48285 0
M  V30 3503 H 320.574 -1.81499 4.57514 0
M  V30 3504 N 322.226 -1.5378 -0.344866 0
M  V30 3505 C 323.472 -1.72158 -1.0832 0
M  V30 3506 C 323.827 -0.478218 -1.86362 0
M  V30 3507 O 323.12 0.529152 -1.84148 0
M  V30 3508 C 323.314 -2.92407 -2.05506 0
M  V30 3509 C 323.143 -4.28318 -1.37017 0
M  V30 3510 C 321.913 -4.92832 -1.11558 0
M  V30 3511 C 324.111 -5.08086 -0.797071 0
M  V30 3512 N 322.093 -6.12619 -0.396358 0
M  V30 3513 C 323.464 -6.1965 -0.208336 0
M  V30 3514 C 325.519 -4.92986 -0.697787 0
M  V30 3515 C 324.222 -7.17763 0.470023 0
M  V30 3516 C 326.248 -5.91391 -0.033171 0
M  V30 3517 C 325.61 -7.02292 0.544599 0
M  V30 3518 H 321.709 -0.683017 -0.380805 0
M  V30 3519 H 324.293 -1.91211 -0.366961 0
M  V30 3520 H 322.464 -2.74857 -2.74423 0
M  V30 3521 H 324.196 -2.9951 -2.72169 0
M  V30 3522 H 320.951 -4.52362 -1.40234 0
M  V30 3523 H 321.375 -6.7698 -0.0515119 0
M  V30 3524 H 326.017 -4.07414 -1.13022 0
M  V30 3525 H 323.735 -8.0291 0.914351 0
M  V30 3526 H 327.321 -5.81784 0.0430009 0
M  V30 3527 H 326.201 -7.77129 1.05073 0
M  V30 3528 N 323.704 0.605807 -1.45491 0
M  V30 3529 C 324.614 1.74466 -1.56839 0
M  V30 3530 C 325.63 1.68006 -0.452772 0
M  V30 3531 O 326.806 1.8833 -0.713708 0
M  V30 3532 C 323.871 3.10931 -1.53371 0
M  V30 3533 C 322.932 3.28832 -2.75986 0
M  V30 3534 C 322.165 4.58787 -2.72673 0
M  V30 3535 O 322.388 5.4122 -1.80102 0
M  V30 3536 O 321.322 4.79438 -3.63899 0
M  V30 3537 H 325.148 1.67843 -2.53106 0
M  V30 3538 H 322.733 0.770108 -1.28022 0
M  V30 3539 H 324.615 3.92233 -1.54051 0
M  V30 3540 H 323.29 3.18042 -0.602572 0
M  V30 3541 H 322.197 2.47112 -2.80867 0
M  V30 3542 H 323.53 3.26599 -3.68231 0
M  V30 3543 N 325.182 1.32811 0.848464 0
M  V30 3544 C 326.112 1.24882 1.97299 0
M  V30 3545 C 327.093 0.131357 1.69592 0
M  V30 3546 O 328.278 0.319553 1.91553 0
M  V30 3547 C 325.408 0.97746 3.33261 0
M  V30 3548 C 324.362 2.05682 3.75338 0
M  V30 3549 C 323.688 1.63777 5.09 0
M  V30 3550 C 324.988 3.47254 3.90144 0
M  V30 3551 H 326.682 2.18966 2.04191 0
M  V30 3552 H 324.228 1.05413 0.981029 0
M  V30 3553 H 326.181 0.908513 4.1149 0
M  V30 3554 H 324.905 0.000980011 3.266 0
M  V30 3555 H 323.564 2.11603 2.99366 0
M  V30 3556 H 323.212 0.648569 4.98801 0
M  V30 3557 H 322.912 2.36 5.38124 0
M  V30 3558 H 324.436 1.5833 5.89715 0
M  V30 3559 H 325.85 3.43888 4.58709 0
M  V30 3560 H 324.247 4.1788 4.30693 0
M  V30 3561 H 325.317 3.86462 2.92874 0
M  V30 3562 N 326.66 -1.06551 1.16123 0
M  V30 3563 C 327.909 -1.78687 0.935622 0
M  V30 3564 C 328.222 -1.88056 -0.538001 0
M  V30 3565 O 329.428 -2.56794 -0.88143 0
M  V30 3566 C 327.884 -3.21143 1.62466 0
M  V30 3567 C 327.492 -3.19949 3.13587 0
M  V30 3568 C 329.236 -3.9783 1.48092 0
M  V30 3569 C 327.143 -4.57108 3.75241 0
M  V30 3570 H 326.073 -0.669712 0.346412 0
M  V30 3571 H 328.724 -1.19534 1.39226 0
M  V30 3572 H 327.106 -3.80539 1.09572 0
M  V30 3573 H 328.28 -2.70151 3.73303 0
M  V30 3574 H 326.595 -2.5676 3.27816 0
M  V30 3575 H 329.192 -4.99217 1.91538 0
M  V30 3576 H 329.535 -4.14078 0.429507 0
M  V30 3577 H 330.068 -3.4495 1.98127 0
M  V30 3578 H 326.807 -4.46065 4.80319 0
M  V30 3579 H 326.327 -5.07111 3.20309 0
M  V30 3580 H 328.006 -5.26069 3.76644 0
M  V30 3581 N 328.138 -0.959301 -1.25041 0
M  V30 3582 C 329.085 -0.482057 -2.2571 0
M  V30 3583 C 330.055 0.467939 -1.59372 0
M  V30 3584 O 331.24 0.380159 -1.86974 0
M  V30 3585 C 328.38 0.229623 -3.44335 0
M  V30 3586 C 327.493 -0.758156 -4.25295 0
M  V30 3587 C 326.628 -0.0234403 -5.31195 0
M  V30 3588 C 325.667 -1.00184 -6.03846 0
M  V30 3589 N 324.804 -0.29769 -7.01469 0
M  V30 3590 H 329.644 -1.34538 -2.65901 0
M  V30 3591 H 327.181 -0.674592 -1.3072 0
M  V30 3592 H 329.139 0.658856 -4.11965 0
M  V30 3593 H 327.769 1.05696 -3.05005 0
M  V30 3594 H 326.821 -1.30586 -3.57284 0
M  V30 3595 H 328.133 -1.50458 -4.75567 0
M  V30 3596 H 327.287 0.464201 -6.04922 0
M  V30 3597 H 326.026 0.755741 -4.81809 0
M  V30 3598 H 325.031 -1.50044 -5.2893 0
M  V30 3599 H 326.256 -1.78133 -6.55321 0
M  V30 3600 H 324.202 0.462668 -6.54366 0
M  V30 3601 H 324.119 -0.983128 -7.4958 0
M  V30 3602 H 325.387 0.16826 -7.79318 0
M  V30 3603 N 329.616 1.39756 -0.72842 0
M  V30 3604 C 330.844 2.04948 -0.283528 0
M  V30 3605 C 331.259 1.54908 1.0793 0
M  V30 3606 O 330.616 0.711135 1.68075 0
M  V30 3607 C 330.667 3.60498 -0.268957 0
M  V30 3608 O 330.388 4.08695 -1.57798 0
M  V30 3609 C 331.889 4.4288 0.192912 0
M  V30 3610 H 329.109 0.659243 -0.125056 0
M  V30 3611 H 331.653 1.78927 -0.990226 0
M  V30 3612 H 329.808 3.85444 0.388801 0
M  V30 3613 H 330.222 5.02977 -1.48709 0
M  V30 3614 H 331.696 5.51791 0.151952 0
M  V30 3615 H 332.173 4.21418 1.23708 0
M  V30 3616 H 332.779 4.23069 -0.435039 0
M  V30 3617 N 331.094 0.475555 1.50254 0
M  V30 3618 C 332.34 -0.0780073 2.0265 0
M  V30 3619 C 332.673 -1.38968 1.35652 0
M  V30 3620 O 331.948 -1.8839 0.483691 0
M  V30 3621 C 332.231 -0.257161 3.59181 0
M  V30 3622 C 332.084 1.07585 4.36744 0
M  V30 3623 C 333.403 -1.00965 4.28362 0
M  V30 3624 H 330.522 -0.0268758 0.73651 0
M  V30 3625 H 333.164 0.622015 1.7953 0
M  V30 3626 H 331.314 -0.853412 3.79011 0
M  V30 3627 H 332.986 1.70902 4.28474 0
M  V30 3628 H 331.229 1.6714 4.00308 0
M  V30 3629 H 331.9 0.904088 5.44546 0
M  V30 3630 H 334.376 -0.504214 4.13034 0
M  V30 3631 H 333.252 -1.10381 5.37687 0
M  V30 3632 H 333.513 -2.04731 3.91839 0
M  V30 3633 N 332.573 -1.56217 0.208337 0
M  V30 3634 C 333.801 -2.02337 -0.43215 0
M  V30 3635 C 334.216 -1.08834 -1.54275 0
M  V30 3636 O 333.573 -0.0955462 -1.8225 0
M  V30 3637 C 333.624 -3.48072 -0.976138 0
M  V30 3638 O 333.345 -4.38007 0.0901621 0
M  V30 3639 C 334.846 -4.09773 -1.69119 0
M  V30 3640 H 332.066 -0.662385 -0.10718 0
M  V30 3641 H 334.61 -2.01966 0.320923 0
M  V30 3642 H 332.765 -3.49099 -1.67954 0
M  V30 3643 H 333.179 -5.23543 -0.316701 0
M  V30 3644 H 334.653 -5.13556 -2.02397 0
M  V30 3645 H 335.13 -3.53999 -2.59964 0
M  V30 3646 H 335.736 -4.12556 -1.03332 0
M  V30 3647 N 334.051 0.0651679 -1.57465 0
M  V30 3648 C 334.961 1.09448 -2.07505 0
M  V30 3649 C 335.977 1.41974 -1.00595 0
M  V30 3650 O 337.153 1.52018 -1.32107 0
M  V30 3651 C 334.218 2.38689 -2.51453 0
M  V30 3652 C 333.279 2.13073 -3.72691 0
M  V30 3653 C 332.512 3.36152 -4.14533 0
M  V30 3654 O 332.735 4.45517 -3.56189 0
M  V30 3655 O 331.669 3.23974 -5.07272 0
M  V30 3656 H 335.495 0.69935 -2.95538 0
M  V30 3657 H 333.08 0.279752 -1.46757 0
M  V30 3658 H 334.962 3.14736 -2.80212 0
M  V30 3659 H 333.637 2.77568 -1.66546 0
M  V30 3660 H 332.544 1.34709 -3.49005 0
M  V30 3661 H 333.877 1.79071 -4.5847 0
M  V30 3662 N 335.529 1.53961 0.336706 0
M  V30 3663 C 336.492 1.81724 1.39675 0
M  V30 3664 C 337.492 0.688532 1.45313 0
M  V30 3665 O 338.682 0.956829 1.45569 0
M  V30 3666 C 335.814 1.96543 2.78538 0
M  V30 3667 H 337.007 2.76424 1.16318 0
M  V30 3668 H 334.56 1.45478 0.571474 0
M  V30 3669 H 335.295 1.0401 3.07168 0
M  V30 3670 H 335.08 2.78665 2.75841 0
M  V30 3671 H 336.57 2.19516 3.5525 0
M  V30 3672 N 337.007 -0.598083 1.45811 0
M  V30 3673 C 337.957 -1.70272 1.51629 0
M  V30 3674 C 338.941 -1.56382 0.378629 0
M  V30 3675 O 340.133 -1.65557 0.626087 0
M  V30 3676 C 337.262 -3.09042 1.49493 0
M  V30 3677 C 336.348 -3.28284 2.68496 0
M  V30 3678 N 336.739 -3.17748 3.93535 0
M  V30 3679 C 335.037 -3.59182 2.64394 0
M  V30 3680 C 335.738 -3.38579 4.7301 0
M  V30 3681 N 334.714 -3.63016 4.04624 0
M  V30 3682 H 338.516 -1.60634 2.46118 0
M  V30 3683 H 336.03 -0.801642 1.41235 0
M  V30 3684 H 338.027 -3.88302 1.51747 0
M  V30 3685 H 336.687 -3.19823 0.560683 0
M  V30 3686 H 337.698 -2.95944 4.25014 0
M  V30 3687 H 334.375 -3.76742 1.79922 0
M  V30 3688 H 335.765 -3.35747 5.82 0
M  V30 3689 N 338.485 -1.33259 -0.841409 0
M  V30 3690 C 339.731 -1.24757 -1.59886 0
M  V30 3691 C 340.064 0.186913 -1.93298 0
M  V30 3692 O 339.339 1.12757 -1.5848 0
M  V30 3693 C 339.622 -2.12036 -2.91055 0
M  V30 3694 C 339.475 -3.63929 -2.6434 0
M  V30 3695 C 340.794 -1.9916 -3.92458 0
M  V30 3696 H 337.913 -0.454542 -0.580138 0
M  V30 3697 H 340.555 -1.63335 -0.970647 0
M  V30 3698 H 338.705 -1.79265 -3.44669 0
M  V30 3699 H 340.377 -4.06978 -2.17178 0
M  V30 3700 H 338.62 -3.85935 -1.98082 0
M  V30 3701 H 339.291 -4.20341 -3.57796 0
M  V30 3702 H 341.767 -2.27895 -3.48143 0
M  V30 3703 H 340.643 -2.62484 -4.82072 0
M  V30 3704 H 340.904 -0.963082 -4.31482 0
M  V30 3705 N 339.963 1.05934 -1.16686 0
M  V30 3706 C 340.926 2.11669 -0.879144 0
M  V30 3707 C 341.926 1.60294 0.127445 0
M  V30 3708 O 343.116 1.7389 -0.103865 0
M  V30 3709 C 340.248 3.39438 -0.315425 0
M  V30 3710 H 341.441 2.38626 -1.81653 0
M  V30 3711 H 338.994 1.22058 -0.976299 0
M  V30 3712 H 339.729 3.18132 0.629468 0
M  V30 3713 H 339.514 3.78034 -1.04079 0
M  V30 3714 H 341.004 4.17391 -0.132189 0
M  V30 3715 N 341.441 0.965919 1.2453 0
M  V30 3716 C 342.669 0.644385 1.96609 0
M  V30 3717 C 343.084 -0.785823 1.71669 0
M  V30 3718 O 342.441 -1.52703 0.999399 0
M  V30 3719 C 342.492 0.907375 3.49927 0
M  V30 3720 O 342.213 2.28136 3.74013 0
M  V30 3721 C 343.714 0.599784 4.39224 0
M  V30 3722 H 340.934 0.240588 0.626385 0
M  V30 3723 H 343.478 1.29337 1.58405 0
M  V30 3724 H 341.633 0.304631 3.862 0
M  V30 3725 H 342.047 2.36002 4.68405 0
M  V30 3726 H 343.521 0.834263 5.45659 0
M  V30 3727 H 343.998 -0.465921 4.36722 0
M  V30 3728 H 344.604 1.18235 4.08535 0
M  V30 3729 N 342.919 -1.39368 0.735821 0
M  V30 3730 C 343.867 -2.32443 0.0855131 0
M  V30 3731 C 344.861 -1.53104 -0.724954 0
M  V30 3732 O 346.067 -1.68762 -0.626047 0
M  V30 3733 H 342.442 -0.751948 0.00885257 0
M  V30 3734 H 344.413 -2.84916 0.886883 0
M  V30 3735 C 343.162 -3.38206 -0.806983 0
M  V30 3736 H 342.485 -3.99335 -0.19274 0
M  V30 3737 H 343.925 -4.05779 -1.2296 0
M  V30 3738 C 342.384 -2.75321 -1.94165 0
M  V30 3739 O 342.914 -2.63231 -3.03435 0
M  V30 3740 N 341.12 -2.33396 -1.73132 0
M  V30 3741 H 340.667 -2.4343 -0.842596 0
M  V30 3742 H 340.625 -1.91661 -2.49225 0
M  V30 3743 N 344.397 -0.483516 -1.5 0
M  V30 3744 C 345.36 0.292965 -2.2732 0
M  V30 3745 C 346.36 0.909499 -1.32608 0
M  V30 3746 O 347.55 0.776745 -1.55924 0
M  V30 3747 C 344.682 1.41854 -3.09984 0
M  V30 3748 H 345.875 -0.385289 -2.97415 0
M  V30 3749 H 343.428 -0.237942 -1.54478 0
M  V30 3750 H 344.163 2.13148 -2.44414 0
M  V30 3751 H 343.948 0.982114 -3.79601 0
M  V30 3752 H 345.438 1.96597 -3.68429 0
M  V30 3753 N 345.875 1.56104 -0.216619 0
M  V30 3754 C 346.807 2.17339 0.72776 0
M  V30 3755 C 347.82 1.14109 1.16116 0
M  V30 3756 O 349.009 1.4111 1.09317 0
M  V30 3757 C 346.109 2.73818 1.99693 0
M  V30 3758 C 345.282 4.02168 1.71988 0
M  V30 3759 C 344.341 4.43259 2.83562 0
M  V30 3760 O 343.367 5.10257 2.52244 0
M  V30 3761 N 344.569 4.08535 4.12407 0
M  V30 3762 H 347.334 2.99005 0.203983 0
M  V30 3763 H 344.895 1.61861 -0.0354289 0
M  V30 3764 H 346.887 2.9828 2.73516 0
M  V30 3765 H 345.457 1.96483 2.43132 0
M  V30 3766 H 344.677 3.85612 0.818337 0
M  V30 3767 H 345.965 4.85907 1.50903 0
M  V30 3768 H 345.363 3.54687 4.40696 0
M  V30 3769 H 343.92 4.37901 4.8279 0
M  V30 3770 N 347.353 -0.0568162 1.57498 0
M  V30 3771 C 348.601 -0.751617 1.87604 0
M  V30 3772 C 348.922 -1.77351 0.81066 0
M  V30 3773 O 348.192 -1.95254 -0.159018 0
M  V30 3774 H 346.772 -0.280583 0.692302 0
M  V30 3775 H 349.434 -0.0293483 1.94878 0
M  V30 3776 H 348.53 -1.25852 2.856 0
M  V30 3777 N 348.832 -1.54138 -0.328536 0
M  V30 3778 C 350.057 -1.76378 -1.09112 0
M  V30 3779 C 350.482 -0.508596 -1.81094 0
M  V30 3780 O 349.84 0.539598 -1.73084 0
M  V30 3781 C 349.888 -2.95358 -2.06872 0
M  V30 3782 O 348.992 -2.66556 -3.14677 0
M  V30 3783 H 348.333 -0.584614 -0.314838 0
M  V30 3784 H 350.863 -2.01146 -0.374348 0
M  V30 3785 H 350.873 -3.22566 -2.4983 0
M  V30 3786 H 349.548 -3.86385 -1.5388 0
M  V30 3787 H 348.125 -2.50282 -2.7643 0
M  V30 3788 N 350.31 0.590341 -1.46126 0
M  V30 3789 C 351.26 1.69466 -1.5253 0
M  V30 3790 C 352.244 1.56179 -0.386917 0
M  V30 3791 O 353.436 1.65223 -0.634858 0
M  V30 3792 C 350.565 3.08245 -1.5113 0
M  V30 3793 C 349.651 3.26856 -2.70233 0
M  V30 3794 N 350.042 3.15657 -3.95214 0
M  V30 3795 C 348.34 3.57775 -2.66296 0
M  V30 3796 C 349.041 3.36066 -4.74799 0
M  V30 3797 N 348.017 3.60865 -4.06543 0
M  V30 3798 H 351.819 1.59326 -2.46966 0
M  V30 3799 H 349.333 0.79414 -1.41659 0
M  V30 3800 H 351.33 3.87492 -1.53804 0
M  V30 3801 H 349.99 3.19521 -0.577636 0
M  V30 3802 H 351.001 2.93686 -4.26578 0
M  V30 3803 H 347.678 3.75782 -1.81918 0
M  V30 3804 H 349.068 3.32655 -5.83772 0
M  V30 3805 N 351.788 1.33704 0.83433 0
M  V30 3806 C 353.034 1.26612 1.59188 0
M  V30 3807 C 353.389 -0.165439 1.91687 0
M  V30 3808 O 352.682 -1.10873 1.56262 0
M  V30 3809 C 352.876 2.07926 2.90692 0
M  V30 3810 C 352.705 3.58844 2.71038 0
M  V30 3811 C 351.475 4.28148 2.68361 0
M  V30 3812 C 353.673 4.53082 2.43353 0
M  V30 3813 N 351.655 5.64987 2.40132 0
M  V30 3814 C 353.026 5.77843 2.24716 0
M  V30 3815 C 355.081 4.42119 2.28987 0
M  V30 3816 C 353.784 6.92877 1.9317 0
M  V30 3817 C 355.81 5.56973 1.98835 0
M  V30 3818 C 355.172 6.80745 1.81012 0
M  V30 3819 H 351.271 0.518517 0.585375 0
M  V30 3820 H 353.855 1.68294 0.979044 0
M  V30 3821 H 352.026 1.68558 3.49918 0
M  V30 3822 H 353.758 1.92568 3.55949 0
M  V30 3823 H 350.513 3.80469 2.82029 0
M  V30 3824 H 350.937 6.37133 2.28889 0
M  V30 3825 H 355.579 3.47058 2.41477 0
M  V30 3826 H 353.297 7.87931 1.79418 0
M  V30 3827 H 356.883 5.50428 1.88468 0
M  V30 3828 H 355.763 7.68115 1.58017 0
M  V30 3829 N 353.266 -1.05314 1.17247 0
M  V30 3830 C 354.213 -2.13031 0.888058 0
M  V30 3831 C 355.183 -1.65253 -0.167537 0
M  V30 3832 O 356.368 -1.90775 -0.0305974 0
M  V30 3833 C 353.508 -3.42702 0.406147 0
M  V30 3834 C 352.621 -4.04161 1.52572 0
M  V30 3835 C 351.756 -5.21744 0.997808 0
M  V30 3836 C 350.795 -5.75207 2.09291 0
M  V30 3837 N 349.932 -6.84094 1.57986 0
M  V30 3838 H 354.772 -2.36698 1.81048 0
M  V30 3839 H 352.309 -1.16121 0.903013 0
M  V30 3840 H 354.267 -4.17059 0.108305 0
M  V30 3841 H 352.897 -3.19222 -0.479313 0
M  V30 3842 H 351.949 -3.27253 1.93931 0
M  V30 3843 H 353.261 -4.39881 2.35172 0
M  V30 3844 H 352.415 -6.03168 0.653739 0
M  V30 3845 H 351.154 -4.87495 0.141232 0
M  V30 3846 H 350.159 -4.92414 2.44557 0
M  V30 3847 H 351.384 -6.11505 2.95362 0
M  V30 3848 H 349.33 -6.51745 0.74598 0
M  V30 3849 H 349.247 -7.18811 2.34195 0
M  V30 3850 H 350.515 -7.69172 1.26468 0
M  V30 3851 N 354.744 -0.972509 -1.24016 0
M  V30 3852 C 355.676 -0.464375 -2.24446 0
M  V30 3853 C 356.689 0.4295 -1.57032 0
M  V30 3854 O 357.878 0.234902 -1.76948 0
M  V30 3855 C 354.978 0.348385 -3.37105 0
M  V30 3856 C 354.151 -0.53673 -4.34094 0
M  V30 3857 C 353.21 0.220838 -5.25736 0
M  V30 3858 O 352.236 -0.386867 -5.67884 0
M  V30 3859 N 353.438 1.50907 -5.60542 0
M  V30 3860 H 356.203 -1.32788 -2.68677 0
M  V30 3861 H 353.764 -0.844877 -1.38107 0
M  V30 3862 H 355.756 0.863341 -3.95384 0
M  V30 3863 H 354.326 1.11285 -2.92121 0
M  V30 3864 H 353.546 -1.23261 -3.74433 0
M  V30 3865 H 354.834 -1.14022 -4.95859 0
M  V30 3866 H 354.232 2.02444 -5.28236 0
M  V30 3867 H 352.789 1.96962 -6.21329 0
M  V30 3868 N 356.222 1.38976 -0.743202 0
M  V30 3869 C 357.169 2.30544 -0.10861 0
M  V30 3870 C 358.139 1.49642 0.720869 0
M  V30 3871 O 359.324 1.78304 0.679142 0
M  V30 3872 C 356.464 3.36018 0.786496 0
M  V30 3873 C 355.577 4.31963 -0.0564849 0
M  V30 3874 C 354.712 5.24506 0.840657 0
M  V30 3875 C 353.751 6.121 -0.00658363 0
M  V30 3876 N 352.888 6.96973 0.846943 0
M  V30 3877 H 357.728 2.8424 -0.895088 0
M  V30 3878 H 355.265 1.3995 -0.453048 0
M  V30 3879 H 357.223 3.95768 1.31999 0
M  V30 3880 H 355.853 2.83758 1.53887 0
M  V30 3881 H 354.905 3.73763 -0.707492 0
M  V30 3882 H 356.217 4.93703 -0.711229 0
M  V30 3883 H 355.371 5.89322 1.4417 0
M  V30 3884 H 354.11 4.63107 1.52916 0
M  V30 3885 H 353.115 5.46289 -0.620366 0
M  V30 3886 H 354.34 6.75565 -0.691992 0
M  V30 3887 H 352.286 6.38133 1.52059 0
M  V30 3888 H 352.203 7.5559 0.248864 0
M  V30 3889 H 353.471 7.6621 1.43328 0
M  V30 3890 N 357.7 0.491464 1.49741 0
M  V30 3891 C 359.116 0.146835 1.58923 0
M  V30 3892 C 359.316 -1.34804 1.49767 0
M  V30 3893 O 358.372 -2.12317 1.36667 0
M  V30 3894 C 359.685 0.715157 2.92072 0
M  V30 3895 C 361.233 0.680407 3.05515 0
M  V30 3896 C 361.708 1.22663 4.41269 0
M  V30 3897 N 363.199 1.18691 4.47735 0
M  V30 3898 C 363.934 1.57984 5.51207 0
M  V30 3899 N 363.43 2.04824 6.6183 0
M  V30 3900 N 365.223 1.49459 5.41866 0
M  V30 3901 H 357.374 1.46347 1.53936 0
M  V30 3902 H 359.637 0.606453 0.728642 0
M  V30 3903 H 359.343 1.76317 3.04311 0
M  V30 3904 H 359.217 0.17018 3.76816 0
M  V30 3905 H 361.604 -0.358743 2.92911 0
M  V30 3906 H 361.685 1.26242 2.22478 0
M  V30 3907 H 361.329 2.26451 4.54623 0
M  V30 3908 H 361.259 0.620637 5.2293 0
M  V30 3909 H 363.75 0.843605 3.68364 0
M  V30 3910 H 364.063 2.32901 7.3687 0
M  V30 3911 H 362.408 2.08791 6.62896 0
M  V30 3912 H 365.599 1.12692 4.54333 0
M  V30 3913 H 365.772 1.80406 6.22381 0
M  V30 3914 N 359.178 -1.55987 0.224894 0
M  V30 3915 C 360.125 -2.20436 -0.68385 0
M  V30 3916 C 361.095 -1.16102 -1.18783 0
M  V30 3917 O 362.28 -1.4447 -1.24632 0
M  V30 3918 C 359.42 -2.89076 -1.88491 0
M  V30 3919 C 358.533 -4.08012 -1.41951 0
M  V30 3920 C 357.668 -4.64426 -2.5784 0
M  V30 3921 C 356.707 -5.75656 -2.08053 0
M  V30 3922 N 355.844 -6.26347 -3.17227 0
M  V30 3923 H 360.684 -2.97727 -0.12754 0
M  V30 3924 H 358.221 -1.47011 -0.0511978 0
M  V30 3925 H 360.179 -3.27059 -2.59014 0
M  V30 3926 H 358.809 -2.14298 -2.41405 0
M  V30 3927 H 357.861 -3.75492 -0.609095 0
M  V30 3928 H 359.173 -4.88375 -1.01447 0
M  V30 3929 H 358.327 -5.04869 -3.3644 0
M  V30 3930 H 357.066 -3.83233 -3.01635 0
M  V30 3931 H 356.071 -5.34712 -1.27916 0
M  V30 3932 H 357.296 -6.58686 -1.65255 0
M  V30 3933 H 355.242 -5.48067 -3.60497 0
M  V30 3934 H 355.159 -7.01843 -2.80986 0
M  V30 3935 H 356.427 -6.71447 -3.95953 0
M  V30 3936 N 360.656 0.0484629 -1.57525 0
M  V30 3937 C 361.903 0.743125 -1.88372 0
M  V30 3938 C 362.231 1.76383 -0.819715 0
M  V30 3939 O 361.486 1.94855 0.181659 0
M  V30 3940 C 361.785 1.46632 -3.25935 0
M  V30 3941 C 361.451 0.583427 -4.4711 0
M  V30 3942 C 360.113 0.340191 -4.79996 0
M  V30 3943 C 362.465 -0.0273345 -5.21193 0
M  V30 3944 C 359.793 -0.522903 -5.84365 0
M  V30 3945 C 362.145 -0.878017 -6.26477 0
M  V30 3946 C 360.809 -1.1309 -6.5785 0
M  V30 3947 H 360.079 0.271929 -0.689301 0
M  V30 3948 H 362.726 0.00336166 -1.915 0
M  V30 3949 H 361.031 2.2789 -3.18706 0
M  V30 3950 H 362.728 2.00902 -3.47044 0
M  V30 3951 H 359.318 0.783151 -4.21384 0
M  V30 3952 H 363.502 0.147654 -4.9608 0
M  V30 3953 H 358.758 -0.727335 -6.07058 0
M  V30 3954 H 362.932 -1.35789 -6.83033 0
M  V30 3955 H 360.559 -1.80144 -7.38547 0
M  V30 3956 N 362.134 1.5431 0.320358 0
M  V30 3957 C 363.064 1.86912 1.3995 0
M  V30 3958 C 364.045 0.726211 1.53819 0
M  V30 3959 O 365.23 0.980233 1.67646 0
M  V30 3960 C 362.36 2.09932 2.7667 0
M  V30 3961 C 361.314 3.25776 2.77586 0
M  V30 3962 C 360.64 3.34173 4.17412 0
M  V30 3963 C 361.94 4.6335 2.41048 0
M  V30 3964 H 363.634 2.77292 1.12914 0
M  V30 3965 H 361.18 1.33421 0.541738 0
M  V30 3966 H 363.133 2.31324 3.52232 0
M  V30 3967 H 361.857 1.16304 3.0519 0
M  V30 3968 H 360.516 3.04276 2.04479 0
M  V30 3969 H 360.164 2.38098 4.43078 0
M  V30 3970 H 359.864 4.12033 4.18931 0
M  V30 3971 H 361.388 3.57803 4.94782 0
M  V30 3972 H 362.802 4.84602 3.06324 0
M  V30 3973 H 361.199 5.43782 2.53813 0
M  V30 3974 H 362.269 4.65381 1.36193 0
M  V30 3975 N 363.613 -0.582584 1.46437 0
M  V30 3976 C 365.024 -1.1647 1.45916 0
M  V30 3977 C 365.375 -1.95177 0.200077 0
M  V30 3978 O 364.5 -2.04874 -0.696819 0
M  V30 3979 C 365.095 -2.11885 2.64367 0
M  V30 3980 C 363.654 -2.65421 2.66887 0
M  V30 3981 C 362.801 -1.41294 2.38603 0
M  V30 3982 H 365.752 -0.370514 1.54314 0
M  V30 3983 H 365.773 -2.9535 2.39892 0
M  V30 3984 H 365.285 -1.54573 3.5599 0
M  V30 3985 H 363.386 -3.26602 1.79338 0
M  V30 3986 H 363.499 -3.08147 3.66854 0
M  V30 3987 H 361.863 -1.71109 1.88663 0
M  V30 3988 H 362.646 -0.858125 3.32402 0
M  V30 3989 N 365.091 -1.34144 -0.827227 0
M  V30 3990 C 366.001 -1.27428 -1.96975 0
M  V30 3991 C 367.017 -0.182728 -1.73038 0
M  V30 3992 O 368.193 -0.408426 -1.97215 0
M  V30 3993 C 365.258 -1.02526 -3.31194 0
M  V30 3994 C 364.319 -2.20796 -3.68168 0
M  V30 3995 C 363.552 -1.97073 -4.95982 0
M  V30 3996 O 363.775 -0.926822 -5.6282 0
M  V30 3997 O 362.709 -2.83912 -5.30733 0
M  V30 3998 H 366.535 -2.23537 -2.05584 0
M  V30 3999 H 364.12 -1.14307 -0.961989 0
M  V30 4000 H 366.002 -0.904026 -4.11589 0
M  V30 4001 H 364.677 -0.0945389 -3.23562 0
M  V30 4002 H 363.584 -2.38477 -2.88235 0
M  V30 4003 H 364.917 -3.12243 -3.8048 0
M  V30 4004 N 366.569 1.04691 -1.17803 0
M  V30 4005 C 367.846 1.7472 -0.879328 0
M  V30 4006 C 368.226 2.01812 0.619271 0
M  V30 4007 O 367.574 1.65824 1.57209 0
M  V30 4008 C 367.784 3.03686 -1.71976 0
M  V30 4009 C 369.132 3.77542 -1.94286 0
M  V30 4010 O 370.156 3.13569 -1.68976 0
M  V30 4011 O 369.015 4.92506 -2.36855 0
M  V30 4012 H 366.109 0.760011 -0.326056 0
M  V30 4013 H 368.655 1.10813 -1.28525 0
M  V30 4014 H 367.427 2.79754 -2.73594 0
M  V30 4015 H 367.05 3.75332 -1.31194 0
M  V30 4016 N 368.047 0.979072 1.23499 0
M  V30 4017 C 369.296 0.642751 1.91185 0
M  V30 4018 C 369.609 -0.827253 1.77245 0
M  V30 4019 O 370.815 -1.27458 2.39722 0
M  V30 4020 C 369.271 1.09901 3.42709 0
M  V30 4021 C 368.879 2.59327 3.65313 0
M  V30 4022 C 370.623 0.836371 4.16179 0
M  V30 4023 C 368.53 2.98627 5.10467 0
M  V30 4024 H 367.46 0.236698 0.715884 0
M  V30 4025 H 370.111 1.1868 1.39955 0
M  V30 4026 H 368.493 0.48319 3.93041 0
M  V30 4027 H 369.667 3.26136 3.25533 0
M  V30 4028 H 367.982 2.83323 3.05151 0
M  V30 4029 H 370.579 1.10586 5.23139 0
M  V30 4030 H 370.922 -0.227509 4.15678 0
M  V30 4031 H 371.455 1.41371 3.71832 0
M  V30 4032 H 368.194 4.04133 5.16098 0
M  V30 4033 H 367.714 2.3651 5.51201 0
M  V30 4034 H 369.393 2.89159 5.78788 0
M  V30 4035 N 369.525 -1.3858 0.750561 0
M  V30 4036 C 370.773 -1.99789 0.30477 0
M  V30 4037 C 371.094 -1.59874 -1.11649 0
M  V30 4038 O 370.364 -0.85417 -1.76297 0
M  V30 4039 H 368.944 -0.738902 0.109694 0
M  V30 4040 H 371.606 -1.69391 0.963983 0
M  V30 4041 H 370.702 -3.09952 0.365499 0
M  V30 4042 N 371.003 -0.499398 -1.49478 0
M  V30 4043 C 371.935 0.316575 -2.27003 0
M  V30 4044 C 372.948 0.932047 -1.33479 0
M  V30 4045 O 374.137 0.815658 -1.58774 0
M  V30 4046 C 371.237 1.46055 -3.05812 0
M  V30 4047 C 370.41 0.952679 -4.26899 0
M  V30 4048 C 369.469 1.97407 -4.87767 0
M  V30 4049 O 368.495 1.54326 -5.4788 0
M  V30 4050 N 369.697 3.30436 -4.77276 0
M  V30 4051 H 372.462 -0.348168 -2.97671 0
M  V30 4052 H 370.023 -0.33185 -1.58463 0
M  V30 4053 H 372.015 2.14135 -3.43407 0
M  V30 4054 H 370.585 2.02948 -2.37762 0
M  V30 4055 H 369.805 0.0968248 -3.94081 0
M  V30 4056 H 371.093 0.59174 -5.05347 0
M  V30 4057 H 370.491 3.68126 -4.29534 0
M  V30 4058 H 369.048 3.94235 -5.19059 0
M  V30 4059 N 372.481 1.55866 -0.233164 0
M  V30 4060 C 373.444 2.1953 0.658715 0
M  V30 4061 C 374.444 1.16053 1.11303 0
M  V30 4062 O 375.634 1.41218 1.01996 0
M  V30 4063 C 372.766 2.82791 1.90373 0
M  V30 4064 H 373.959 2.99721 0.10347 0
M  V30 4065 H 371.512 1.56291 0.0164245 0
M  V30 4066 H 372.247 2.06501 2.50056 0
M  V30 4067 H 372.032 3.58578 1.58632 0
M  V30 4068 H 373.522 3.31556 2.53891 0
M  V30 4069 N 373.959 -0.0401083 1.57549 0
M  V30 4070 C 375.37 -0.588097 1.77196 0
M  V30 4071 C 375.721 -1.76209 0.862832 0
M  V30 4072 O 374.846 -2.16331 0.0548389 0
M  V30 4073 C 375.441 -1.07363 3.21339 0
M  V30 4074 C 374 -1.56723 3.42221 0
M  V30 4075 C 373.147 -0.50041 2.72747 0
M  V30 4076 H 376.098 0.186119 1.57605 0
M  V30 4077 H 376.119 -1.94143 3.27244 0
M  V30 4078 H 375.631 -0.218975 3.87482 0
M  V30 4079 H 373.732 -2.4441 2.81237 0
M  V30 4080 H 373.845 -1.62234 4.50796 0
M  V30 4081 H 372.209 -0.952894 2.36203 0
M  V30 4082 H 372.992 0.344599 3.41566 0
M  V30 4083 N 375.437 -1.54477 -0.31217 0
M  V30 4084 C 376.686 -1.72438 -1.04633 0
M  V30 4085 C 376.999 -0.511163 -1.88803 0
M  V30 4086 O 378.205 -0.572341 -2.65399 0
M  V30 4087 C 376.661 -3.05043 -1.9099 0
M  V30 4088 C 376.269 -4.33806 -1.11877 0
M  V30 4089 C 378.013 -3.32364 -2.64073 0
M  V30 4090 C 375.92 -5.57467 -1.97445 0
M  V30 4091 H 374.85 -0.642647 -0.394361 0
M  V30 4092 H 377.501 -1.80966 -0.303929 0
M  V30 4093 H 375.883 -2.90451 -2.69173 0
M  V30 4094 H 377.057 -4.59199 -0.383843 0
M  V30 4095 H 375.372 -4.13336 -0.504252 0
M  V30 4096 H 377.969 -4.21951 -3.28423 0
M  V30 4097 H 378.312 -2.50745 -3.32314 0
M  V30 4098 H 378.845 -3.47875 -1.92944 0
M  V30 4099 H 375.584 -6.41722 -1.33692 0
M  V30 4100 H 375.104 -5.36277 -2.6864 0
M  V30 4101 H 376.783 -5.94303 -2.5576 0
M  V30 4102 N 376.915 0.57481 -1.46744 0
M  V30 4103 C 378.161 1.3347 -1.52688 0
M  V30 4104 C 378.494 1.93353 -0.181229 0
M  V30 4105 O 377.769 1.76912 0.808237 0
M  V30 4106 C 378.052 2.45811 -2.63152 0
M  V30 4107 C 377.905 1.90912 -4.07275 0
M  V30 4108 C 379.224 3.47822 -2.69644 0
M  V30 4109 H 376.343 0.483935 -0.555856 0
M  V30 4110 H 378.985 0.644968 -1.78718 0
M  V30 4111 H 377.135 3.04646 -2.41088 0
M  V30 4112 H 378.807 1.36473 -4.4065 0
M  V30 4113 H 377.05 1.21691 -4.16382 0
M  V30 4114 H 377.721 2.72042 -4.80309 0
M  V30 4115 H 380.197 2.9888 -2.895 0
M  V30 4116 H 379.073 4.23876 -3.48742 0
M  V30 4117 H 379.334 4.05555 -1.76005 0
M  V30 4118 N 378.394 1.34581 0.820102 0
M  V30 4119 C 379.342 1.26401 1.95258 0
M  V30 4120 C 380.336 0.161553 1.68628 0
M  V30 4121 O 381.542 0.326703 1.7701 0
M  V30 4122 H 377.917 0.392749 0.64129 0
M  V30 4123 H 379.888 2.22105 1.99279 0
M  V30 4124 C 378.637 1.03919 3.31807 0
M  V30 4125 H 377.96 1.87984 3.52848 0
M  V30 4126 H 379.4 1.02232 4.11491 0
M  V30 4127 C 377.859 -0.257433 3.35915 0
M  V30 4128 O 378.389 -1.25784 3.81499 0
M  V30 4129 N 376.595 -0.291524 2.89134 0
M  V30 4130 H 376.142 0.523161 2.52232 0
M  V30 4131 H 376.1 -1.15883 2.92264 0
M  V30 4132 N 379.872 -1.04064 1.18357 0
M  V30 4133 C 380.835 -2.10243 0.912707 0
M  V30 4134 C 381.835 -1.60477 -0.101928 0
M  V30 4135 O 383.025 -1.73703 0.131517 0
M  V30 4136 C 380.157 -3.38893 0.369387 0
M  V30 4137 H 381.35 -2.35706 1.85426 0
M  V30 4138 H 378.903 -1.20489 0.995594 0
M  V30 4139 H 379.638 -3.19094 -0.578776 0
M  V30 4140 H 379.423 -3.76331 1.1008 0
M  V30 4141 H 380.913 -4.17128 0.198575 0
M  V30 4142 N 381.35 -0.985608 -1.22978 0
M  V30 4143 C 382.761 -0.693593 -1.73338 0
M  V30 4144 C 383.112 0.789935 -1.79595 0
M  V30 4145 O 382.237 1.61771 -1.43733 0
M  V30 4146 C 382.832 -1.25235 -3.14804 0
M  V30 4147 C 381.391 -1.00987 -3.626 0
M  V30 4148 C 380.538 -1.37695 -2.40698 0
M  V30 4149 H 383.489 -1.15884 -1.08428 0
M  V30 4150 H 383.51 -0.627329 -3.75293 0
M  V30 4151 H 383.022 -2.33209 -3.10218 0
M  V30 4152 H 381.123 0.0535565 -3.72562 0
M  V30 4153 H 381.236 -1.66812 -4.49122 0
M  V30 4154 H 379.6 -0.795459 -2.4196 0
M  V30 4155 H 380.383 -2.46657 -2.38779 0
M  V30 4156 N 382.828 1.3818 -0.7579 0
M  V30 4157 C 383.738 2.3421 -0.135247 0
M  V30 4158 C 384.754 1.59487 0.695683 0
M  V30 4159 O 385.93 1.91657 0.618832 0
M  V30 4160 C 382.995 3.3862 0.744139 0
M  V30 4161 C 382.056 4.2918 -0.101658 0
M  V30 4162 C 381.289 5.28603 0.735851 0
M  V30 4163 O 381.512 5.35166 1.97366 0
M  V30 4164 O 380.446 6.01707 0.152372 0
M  V30 4165 H 384.272 2.8916 -0.928436 0
M  V30 4166 H 381.857 1.40101 -0.518855 0
M  V30 4167 H 383.739 4.02539 1.2466 0
M  V30 4168 H 382.414 2.86019 1.51575 0
M  V30 4169 H 381.321 3.68407 -0.650167 0
M  V30 4170 H 382.654 4.85048 -0.836024 0
M  V30 4171 N 384.306 0.507319 1.49211 0
M  V30 4172 C 385.554 -0.0348839 2.0207 0
M  V30 4173 C 385.875 -1.36898 1.38866 0
M  V30 4174 O 385.145 -1.88133 0.546151 0
M  V30 4175 H 383.725 -0.0158812 0.746831 0
M  V30 4176 H 386.387 0.665998 1.83168 0
M  V30 4177 H 385.483 -0.159917 3.1169 0
M  V30 4178 N 385.784 -1.5574 0.241426 0
M  V30 4179 C 387.032 -1.98417 -0.384075 0
M  V30 4180 C 387.353 -1.13078 -1.58866 0
M  V30 4181 O 386.623 -0.212312 -1.94746 0
M  V30 4182 H 385.203 -0.732813 -0.144894 0
M  V30 4183 H 387.865 -1.9193 0.338943 0
M  V30 4184 H 386.961 -3.04219 -0.696939 0
M  V30 4185 N 387.262 0.0317525 -1.57568 0
M  V30 4186 C 388.209 1.0332 -2.06382 0
M  V30 4187 C 389.179 1.36082 -0.952414 0
M  V30 4188 O 390.364 1.46466 -1.2228 0
M  V30 4189 C 387.504 2.32989 -2.54578 0
M  V30 4190 C 386.617 2.0641 -3.79498 0
M  V30 4191 C 385.752 3.2993 -4.16317 0
M  V30 4192 C 384.791 2.98893 -5.34162 0
M  V30 4193 N 383.928 4.14857 -5.66426 0
M  V30 4194 H 388.768 0.609982 -2.9169 0
M  V30 4195 H 386.305 0.289573 -1.44222 0
M  V30 4196 H 388.263 3.0875 -2.80587 0
M  V30 4197 H 386.893 2.73039 -1.7219 0
M  V30 4198 H 385.945 1.21158 -3.6059 0
M  V30 4199 H 387.257 1.79513 -4.65378 0
M  V30 4200 H 386.411 4.1406 -4.4344 0
M  V30 4201 H 385.15 3.59938 -3.29083 0
M  V30 4202 H 384.155 2.13164 -5.06795 0
M  V30 4203 H 385.38 2.70165 -6.23047 0
M  V30 4204 H 383.326 4.44821 -4.82151 0
M  V30 4205 H 383.243 3.91374 -6.4681 0
M  V30 4206 H 384.511 4.99868 -5.98124 0
M  V30 4207 N 388.74 1.54641 0.303973 0
M  V30 4208 C 389.986 1.74038 1.04109 0
M  V30 4209 C 390.319 0.523051 1.87024 0
M  V30 4210 O 389.594 -0.479874 1.88487 0
M  V30 4211 C 389.877 3.02761 1.94955 0
M  V30 4212 C 389.73 4.34787 1.1524 0
M  V30 4213 C 391.049 3.27336 2.94175 0
M  V30 4214 H 388.168 0.63323 0.377079 0
M  V30 4215 H 390.81 1.87354 0.316001 0
M  V30 4216 H 388.96 2.9154 2.56782 0
M  V30 4217 H 390.632 4.57922 0.557236 0
M  V30 4218 H 388.875 4.31407 0.455053 0
M  V30 4219 H 389.546 5.21116 1.8205 0
M  V30 4220 H 392.022 3.38148 2.42477 0
M  V30 4221 H 390.898 4.18726 3.54908 0
M  V30 4222 H 391.159 2.45491 3.67677 0
M  V30 4223 N 390.218 -0.567019 1.47046 0
M  V30 4224 C 391.495 -1.3276 1.43646 0
M  V30 4225 C 391.875 -2.1071 0.128186 0
M  V30 4226 O 391.223 -2.10441 -0.890326 0
M  V30 4227 C 391.433 -2.2404 2.67595 0
M  V30 4228 C 392.781 -2.85372 3.14401 0
M  V30 4229 O 393.805 -2.34346 2.68254 0
M  V30 4230 O 392.664 -3.78091 3.946 0
M  V30 4231 H 389.758 -0.597293 0.571988 0
M  V30 4232 H 392.304 -0.586735 1.59234 0
M  V30 4233 H 391.076 -1.65975 3.54356 0
M  V30 4234 H 390.699 -3.05439 2.54544 0
M  V30 4235 N 391.696 -1.35014 -0.812953 0
M  V30 4236 C 392.626 -1.30069 -1.93919 0
M  V30 4237 C 393.607 -0.176275 -1.69184 0
M  V30 4238 O 394.792 -0.370227 -1.90638 0
M  V30 4239 C 391.922 -1.06547 -3.30552 0
M  V30 4240 C 390.876 -2.15561 -3.69753 0
M  V30 4241 C 390.202 -1.77214 -5.04479 0
M  V30 4242 C 391.502 -3.57476 -3.808 0
M  V30 4243 H 393.196 -2.24303 -1.98314 0
M  V30 4244 H 390.742 -1.07977 -0.952736 0
M  V30 4245 H 392.695 -1.01729 -4.08937 0
M  V30 4246 H 391.419 -0.0875719 -3.26483 0
M  V30 4247 H 390.078 -2.19466 -2.9365 0
M  V30 4248 H 389.726 -0.780589 -4.96906 0
M  V30 4249 H 389.426 -2.50184 -5.31678 0
M  V30 4250 H 390.95 -1.7391 -5.8531 0
M  V30 4251 H 392.364 -3.55929 -4.4943 0
M  V30 4252 H 390.761 -4.29152 -4.19462 0
M  V30 4253 H 391.831 -3.94091 -2.82525 0
M  V30 4254 N 393.175 1.03435 -1.18907 0
M  V30 4255 C 394.085 2.15075 -0.937015 0
M  V30 4256 C 395.101 1.73706 0.101085 0
M  V30 4257 O 396.277 2.01232 -0.0822948 0
M  V30 4258 C 393.342 3.43458 -0.473057 0
M  V30 4259 C 392.403 3.99172 -1.57989 0
M  V30 4260 C 391.636 5.21427 -1.13797 0
M  V30 4261 O 391.859 5.704 0.000725941 0
M  V30 4262 O 390.793 5.69837 -1.9383 0
M  V30 4263 H 394.619 2.39198 -1.87131 0
M  V30 4264 H 392.204 1.13506 -0.971427 0
M  V30 4265 H 394.086 4.20811 -0.222702 0
M  V30 4266 H 392.761 3.20793 0.432869 0
M  V30 4267 H 391.668 3.23178 -1.88433 0
M  V30 4268 H 393.001 4.2619 -2.46217 0
M  V30 4269 N 394.653 0.992116 1.22453 0
M  V30 4270 C 395.616 0.546883 2.2258 0
M  V30 4271 C 396.616 -0.369829 1.56489 0
M  V30 4272 O 397.806 -0.161896 1.73446 0
M  V30 4273 C 394.938 -0.204659 3.40285 0
M  V30 4274 H 396.131 1.43234 2.63484 0
M  V30 4275 H 393.684 0.779239 1.3549 0
M  V30 4276 H 394.419 -1.10614 3.04853 0
M  V30 4277 H 394.204 0.45354 3.89468 0
M  V30 4278 H 395.694 -0.504358 4.14543 0
M  V30 4279 N 396.131 -1.37776 0.765217 0
M  V30 4280 C 397.378 -1.99849 0.326588 0
M  V30 4281 C 397.706 -1.60746 -1.09504 0
M  V30 4282 O 396.961 -0.84202 -1.76659 0
M  V30 4283 C 397.26 -3.5504 0.410053 0
M  V30 4284 C 396.926 -4.13891 1.78899 0
M  V30 4285 C 395.588 -4.29678 2.16635 0
M  V30 4286 C 397.94 -4.46236 2.69301 0
M  V30 4287 C 395.268 -4.7511 3.44221 0
M  V30 4288 C 397.62 -4.93089 3.9629 0
M  V30 4289 C 396.284 -5.07082 4.34078 0
M  V30 4290 H 395.554 -0.7313 0.119507 0
M  V30 4291 H 398.201 -1.64645 0.977968 0
M  V30 4292 H 396.506 -3.90451 -0.324878 0
M  V30 4293 H 398.203 -4.00966 0.0520699 0
M  V30 4294 H 394.793 -4.02026 1.48569 0
M  V30 4295 H 398.977 -4.3363 2.41409 0
M  V30 4296 H 394.233 -4.84129 3.73402 0
M  V30 4297 H 398.407 -5.17084 4.66472 0
M  V30 4298 H 396.034 -5.42046 5.33001 0
M  V30 4299 N 397.609 -0.515225 -1.4894 0
M  V30 4300 C 398.834 0.022727 -2.07388 0
M  V30 4301 C 399.259 1.2876 -1.37122 0
M  V30 4302 O 398.617 1.76067 -0.432431 0
M  V30 4303 C 398.665 0.244869 -3.59768 0
M  V30 4304 O 397.769 1.31667 -3.90817 0
M  V30 4305 H 397.11 -0.0325506 -0.663202 0
M  V30 4306 H 399.64 -0.718918 -1.91553 0
M  V30 4307 H 399.65 0.47205 -4.0526 0
M  V30 4308 H 398.325 -0.679194 -4.10317 0
M  V30 4309 H 396.902 1.07331 -3.5712 0
M  V30 4310 N 399.087 1.5561 -0.249682 0
M  V30 4311 C 400.037 2.18157 0.662673 0
M  V30 4312 C 401.021 1.1383 1.13717 0
M  V30 4313 O 402.213 1.39731 1.08648 0
M  V30 4314 C 399.342 2.88672 1.85805 0
M  V30 4315 C 398.428 4.00258 1.40193 0
M  V30 4316 N 398.819 5.01473 0.660213 0
M  V30 4317 C 397.117 4.12864 1.68698 0
M  V30 4318 C 397.818 5.80155 0.423695 0
M  V30 4319 N 396.794 5.34533 0.988721 0
M  V30 4320 H 400.596 2.93769 0.0878688 0
M  V30 4321 H 398.11 1.62316 -0.0521183 0
M  V30 4322 H 400.107 3.31912 2.5227 0
M  V30 4323 H 398.767 2.14564 2.43705 0
M  V30 4324 H 399.778 5.16971 0.310047 0
M  V30 4325 H 396.455 3.4993 2.27717 0
M  V30 4326 H 397.845 6.71688 -0.168616 0
M  V30 4327 N 400.565 -0.0233959 1.57583 0
M  V30 4328 C 401.812 -0.713063 1.8953 0
M  V30 4329 C 402.14 -1.75056 0.847673 0
M  V30 4330 O 401.395 -1.95119 -0.150636 0
M  V30 4331 C 401.694 -1.41428 3.28227 0
M  V30 4332 C 401.36 -0.512222 4.47981 0
M  V30 4333 C 400.022 -0.263785 4.80476 0
M  V30 4334 C 402.374 0.110248 5.21083 0
M  V30 4335 C 399.702 0.615804 5.83459 0
M  V30 4336 C 402.054 0.977573 6.25001 0
M  V30 4337 C 400.718 1.23542 6.55968 0
M  V30 4338 H 399.988 -0.260928 0.69354 0
M  V30 4339 H 402.635 0.0271047 1.91481 0
M  V30 4340 H 400.94 -2.22791 3.22291 0
M  V30 4341 H 402.637 -1.95355 3.50196 0
M  V30 4342 H 399.227 -0.716013 4.22577 0
M  V30 4343 H 403.411 -0.0687137 4.96252 0
M  V30 4344 H 398.667 0.82382 6.05824 0
M  V30 4345 H 402.841 1.46638 6.80786 0
M  V30 4346 H 400.468 1.91871 7.35588 0
M  V30 4347 N 402.043 -1.548 -0.295768 0
M  V30 4348 C 403.271 -1.78327 -1.04914 0
M  V30 4349 C 403.686 -0.545316 -1.80753 0
M  V30 4350 O 403.043 0.485013 -1.75937 0
M  V30 4351 C 403.094 -2.99418 -2.02561 0
M  V30 4352 O 402.815 -4.18431 -1.29798 0
M  V30 4353 C 404.316 -3.35375 -2.89895 0
M  V30 4354 H 401.536 -0.594618 -0.310918 0
M  V30 4355 H 404.08 -2.01763 -0.333454 0
M  V30 4356 H 402.235 -2.78175 -2.69624 0
M  V30 4357 H 402.649 -4.86736 -1.95419 0
M  V30 4358 H 404.123 -4.23332 -3.54251 0
M  V30 4359 H 404.6 -2.53761 -3.58472 0
M  V30 4360 H 405.206 -3.58796 -2.28355 0
M  V30 4361 N 403.521 0.559213 -1.47345 0
M  V30 4362 C 404.468 1.66645 -1.59682 0
M  V30 4363 C 405.438 1.60168 -0.43994 0
M  V30 4364 O 406.623 1.79031 -0.659736 0
M  V30 4365 C 403.763 3.04969 -1.61518 0
M  V30 4366 C 402.876 3.21897 -2.88108 0
M  V30 4367 C 402.011 4.50608 -2.81294 0
M  V30 4368 C 401.05 4.60961 -4.02717 0
M  V30 4369 N 400.187 5.81024 -3.94151 0
M  V30 4370 H 405.027 1.55439 -2.54249 0
M  V30 4371 H 402.564 0.757219 -1.26113 0
M  V30 4372 H 404.522 3.85064 -1.60566 0
M  V30 4373 H 403.152 3.15015 -0.704645 0
M  V30 4374 H 402.204 2.35248 -2.98936 0
M  V30 4375 H 403.516 3.25412 -3.78032 0
M  V30 4376 H 402.67 5.3896 -2.7858 0
M  V30 4377 H 401.409 4.49568 -1.89049 0
M  V30 4378 H 400.414 3.71021 -4.05738 0
M  V30 4379 H 401.639 4.63761 -4.96087 0
M  V30 4380 H 399.585 5.80938 -3.04708 0
M  V30 4381 H 399.502 5.85909 -4.77752 0
M  V30 4382 H 400.77 6.71744 -3.9545 0
M  V30 4383 N 404.999 1.35443 0.805782 0
M  V30 4384 C 406.248 1.28097 1.55801 0
M  V30 4385 C 406.561 -0.142428 1.95081 0
M  V30 4386 O 407.767 -0.33817 2.69386 0
M  V30 4387 C 406.223 2.24653 2.81174 0
M  V30 4388 C 405.831 3.72342 2.49129 0
M  V30 4389 C 407.575 2.2625 3.59181 0
M  V30 4390 C 405.482 4.60719 3.70799 0
M  V30 4391 H 404.412 0.475937 0.584808 0
M  V30 4392 H 407.063 1.60712 0.885661 0
M  V30 4393 H 405.445 1.85011 3.50124 0
M  V30 4394 H 406.619 4.20624 1.88181 0
M  V30 4395 H 404.934 3.73361 1.84366 0
M  V30 4396 H 407.531 2.89495 4.49552 0
M  V30 4397 H 407.874 1.26647 3.96568 0
M  V30 4398 H 408.407 2.64426 2.97193 0
M  V30 4399 H 405.146 5.61324 3.3852 0
M  V30 4400 H 404.666 4.17163 4.3097 0
M  V30 4401 H 406.345 4.76182 4.38018 0
M  V30 4402 N 406.477 -1.02803 1.19454 0
M  V30 4403 C 407.726 -1.7562 0.991996 0
M  V30 4404 C 408.039 -1.89672 -0.477901 0
M  V30 4405 O 409.245 -2.59468 -0.799287 0
M  V30 4406 C 407.701 -3.15812 1.72601 0
M  V30 4407 C 407.309 -3.0981 3.23607 0
M  V30 4408 C 409.053 -3.92918 1.60674 0
M  V30 4409 C 406.96 -4.44939 3.89594 0
M  V30 4410 H 405.89 -0.658352 0.367543 0
M  V30 4411 H 408.541 -1.15044 1.42959 0
M  V30 4412 H 406.923 -3.7686 1.21624 0
M  V30 4413 H 408.097 -2.58138 3.81709 0
M  V30 4414 H 406.412 -2.46201 3.35819 0
M  V30 4415 H 409.009 -4.9287 2.07323 0
M  V30 4416 H 409.352 -4.12502 0.561025 0
M  V30 4417 H 409.885 -3.38472 2.09001 0
M  V30 4418 H 406.624 -4.30559 4.94267 0
M  V30 4419 H 406.144 -4.96664 3.36281 0
M  V30 4420 H 407.823 -5.1382 3.93189 0
M  V30 4421 N 407.956 -0.998596 -1.21925 0
M  V30 4422 C 409.184 -0.696286 -1.94832 0
M  V30 4423 C 409.599 0.740032 -1.73692 0
M  V30 4424 O 408.956 1.5 -1.03953 0
M  V30 4425 C 409.007 -0.999833 -3.47398 0
M  V30 4426 O 408.728 -2.37972 -3.67833 0
M  V30 4427 C 410.229 -0.716025 -4.37479 0
M  V30 4428 H 407.449 -0.257111 -0.619786 0
M  V30 4429 H 409.993 -1.33491 -1.54921 0
M  V30 4430 H 408.148 -0.406918 -3.85257 0
M  V30 4431 H 408.562 -2.48338 -4.61983 0
M  V30 4432 H 410.036 -0.978642 -5.43256 0
M  V30 4433 H 410.513 0.349968 -4.37803 0
M  V30 4434 H 411.119 -1.29025 -4.05256 0
M  V30 4435 N 409.434 1.37368 -0.772513 0
M  V30 4436 C 410.845 1.8231 -0.402493 0
M  V30 4437 C 411.196 1.6436 1.07146 0
M  V30 4438 O 410.321 1.15514 1.82991 0
M  V30 4439 C 410.916 3.30979 -0.723776 0
M  V30 4440 C 409.475 3.74195 -0.406802 0
M  V30 4441 C 408.622 2.59885 -0.967218 0
M  V30 4442 H 411.573 1.25829 -0.967099 0
M  V30 4443 H 411.594 3.80499 -0.00870832 0
M  V30 4444 H 411.106 3.44011 -1.7966 0
M  V30 4445 H 409.207 3.66732 0.658673 0
M  V30 4446 H 409.32 4.7027 -0.915588 0
M  V30 4447 H 407.684 2.51674 -0.391416 0
M  V30 4448 H 408.467 2.7571 -2.04546 0
M  V30 4449 N 410.912 0.523116 1.48665 0
M  V30 4450 C 411.875 -0.232592 2.28017 0
M  V30 4451 C 412.875 -0.874021 1.34972 0
M  V30 4452 O 414.065 -0.735132 1.57929 0
M  V30 4453 C 411.197 -1.33586 3.13636 0
M  V30 4454 H 412.39 0.464008 2.96289 0
M  V30 4455 H 409.943 0.278816 1.53793 0
M  V30 4456 H 410.678 -2.06593 2.4998 0
M  V30 4457 H 410.463 -0.881125 3.82071 0
M  V30 4458 H 411.953 -1.86759 3.73511 0
M  V30 4459 N 412.39 -1.55475 0.257931 0
M  V30 4460 C 413.639 -1.98383 -0.364275 0
M  V30 4461 C 413.952 -1.14952 -1.58258 0
M  V30 4462 O 415.158 -1.47924 -2.27664 0
M  V30 4463 C 413.614 -3.53037 -0.699479 0
M  V30 4464 C 413.222 -4.45223 0.498046 0
M  V30 4465 C 414.966 -4.04575 -1.28526 0
M  V30 4466 C 412.873 -5.91238 0.138383 0
M  V30 4467 H 411.803 -0.740911 -0.13988 0
M  V30 4468 H 414.454 -1.79936 0.359883 0
M  V30 4469 H 412.836 -3.6722 -1.48207 0
M  V30 4470 H 414.01 -4.42803 1.27522 0
M  V30 4471 H 412.325 -4.04226 0.999503 0
M  V30 4472 H 414.922 -5.11196 -1.56788 0
M  V30 4473 H 415.265 -3.5258 -2.21344 0
M  V30 4474 H 415.798 -3.93762 -0.565337 0
M  V30 4475 H 412.537 -6.47294 1.03398 0
M  V30 4476 H 412.057 -5.96768 -0.602374 0
M  V30 4477 H 413.736 -6.46413 -0.27553 0
M  V30 4478 N 413.868 0.0150385 -1.57593 0
M  V30 4479 C 415.096 0.714395 -1.94175 0
M  V30 4480 C 415.511 1.68135 -0.858841 0
M  V30 4481 O 414.868 1.81766 0.163567 0
M  V30 4482 C 414.919 1.45933 -3.30735 0
M  V30 4483 O 414.64 0.531167 -4.34868 0
M  V30 4484 C 416.141 2.25456 -3.81686 0
M  V30 4485 H 413.361 0.199923 -0.640525 0
M  V30 4486 H 415.905 -0.0316096 -2.04476 0
M  V30 4487 H 414.06 2.15709 -3.21789 0
M  V30 4488 H 414.474 1.05509 -5.13778 0
M  V30 4489 H 415.948 2.731 -4.79709 0
M  V30 4490 H 416.425 3.07485 -3.13607 0
M  V30 4491 H 417.031 1.60727 -3.9376 0
M  V30 4492 N 415.346 1.54954 0.287554 0
M  V30 4493 C 416.762 1.46469 0.633964 0
M  V30 4494 C 416.962 0.666865 1.90145 0
M  V30 4495 O 416.018 0.179906 2.51858 0
M  V30 4496 C 417.331 2.90556 0.774454 0
M  V30 4497 C 418.879 3.00681 0.869462 0
M  V30 4498 C 419.354 4.45993 1.04184 0
M  V30 4499 N 420.845 4.4976 1.10772 0
M  V30 4500 C 421.58 5.59393 1.25964 0
M  V30 4501 N 421.076 6.78923 1.37968 0
M  V30 4502 N 422.869 5.47107 1.28959 0
M  V30 4503 H 415.02 2.05288 -0.545041 0
M  V30 4504 H 417.283 0.930305 -0.182308 0
M  V30 4505 H 416.989 3.51594 -0.086207 0
M  V30 4506 H 416.863 3.38743 1.6593 0
M  V30 4507 H 419.25 2.39749 1.7206 0
M  V30 4508 H 419.331 2.55769 -0.0396831 0
M  V30 4509 H 418.975 5.07524 0.195422 0
M  V30 4510 H 418.905 4.88548 1.96542 0
M  V30 4511 H 421.396 3.63651 1.02794 0
M  V30 4512 H 421.709 7.58231 1.49353 0
M  V30 4513 H 420.054 6.81763 1.34999 0
M  V30 4514 H 423.245 4.52668 1.19202 0
M  V30 4515 H 423.418 6.32595 1.40455 0
M  V30 4516 N 416.824 -0.551391 1.4764 0
M  V30 4517 C 418.07 -1.31024 1.54792 0
M  V30 4518 C 418.403 -1.9304 0.211967 0
M  V30 4519 O 417.678 -1.78175 -0.77999 0
M  V30 4520 C 417.961 -2.41593 2.67029 0
M  V30 4521 C 417.814 -1.84408 4.10261 0
M  V30 4522 C 419.133 -3.43488 2.75143 0
M  V30 4523 H 416.252 -0.475031 0.563485 0
M  V30 4524 H 418.894 -0.616454 1.79722 0
M  V30 4525 H 417.044 -3.00772 2.45904 0
M  V30 4526 H 418.716 -1.29445 4.42766 0
M  V30 4527 H 416.959 -1.15051 4.18265 0
M  V30 4528 H 417.63 -2.64367 4.84576 0
M  V30 4529 H 420.106 -2.94236 2.94218 0
M  V30 4530 H 418.982 -4.18274 3.55441 0
M  V30 4531 H 419.243 -4.02703 1.82435 0
M  V30 4532 N 418.302 -1.35869 -0.798587 0
M  V30 4533 C 419.548 -1.2978 -1.55836 0
M  V30 4534 C 419.881 0.125322 -1.93795 0
M  V30 4535 O 419.156 1.07658 -1.61987 0
M  V30 4536 C 419.439 -2.21188 -2.84162 0
M  V30 4537 C 419.292 -3.72155 -2.52628 0
M  V30 4538 C 420.611 -2.11545 -3.85923 0
M  V30 4539 H 417.73 -0.472769 -0.565383 0
M  V30 4540 H 420.372 -1.66341 -0.918192 0
M  V30 4541 H 418.522 -1.90139 -3.38791 0
M  V30 4542 H 420.194 -4.13682 -2.04121 0
M  V30 4543 H 418.437 -3.92042 -1.85704 0
M  V30 4544 H 419.108 -4.31511 -3.44242 0
M  V30 4545 H 421.584 -2.38855 -3.40716 0
M  V30 4546 H 420.46 -2.77688 -4.73477 0
M  V30 4547 H 420.721 -1.09987 -4.282 0
M  V30 4548 N 419.78 1.02168 -1.19998 0
M  V30 4549 C 421.057 1.72816 -0.916191 0
M  V30 4550 C 421.437 2.03081 0.576325 0
M  V30 4551 O 420.785 1.69122 1.53656 0
M  V30 4552 C 420.995 2.9997 -1.78378 0
M  V30 4553 C 422.343 3.73336 -2.02251 0
M  V30 4554 O 423.367 3.09914 -1.75589 0
M  V30 4555 O 422.226 4.87371 -2.47249 0
M  V30 4556 H 419.32 0.752924 -0.342103 0
M  V30 4557 H 421.866 1.08062 -1.30846 0
M  V30 4558 H 420.638 2.73888 -2.79466 0
M  V30 4559 H 420.261 3.72464 -1.39126 0
M  V30 4560 N 421.258 1.00505 1.21394 0
M  V30 4561 C 422.505 0.687774 1.90462 0
M  V30 4562 C 422.833 -0.78147 1.7811 0
M  V30 4563 O 422.088 -1.58208 1.1519 0
M  V30 4564 C 422.387 1.0546 3.41486 0
M  V30 4565 C 422.053 2.51812 3.74034 0
M  V30 4566 C 420.715 2.91804 3.82628 0
M  V30 4567 C 423.067 3.46614 3.8924 0
M  V30 4568 C 420.395 4.2556 4.03876 0
M  V30 4569 C 422.747 4.80044 4.11995 0
M  V30 4570 C 421.411 5.19759 4.18816 0
M  V30 4571 H 420.681 0.251674 0.696951 0
M  V30 4572 H 423.328 1.26349 1.43903 0
M  V30 4573 H 421.633 0.397133 3.89782 0
M  V30 4574 H 423.33 0.786976 3.93202 0
M  V30 4575 H 419.92 2.1982 3.67936 0
M  V30 4576 H 424.104 3.16883 3.81967 0
M  V30 4577 H 419.36 4.55901 4.07387 0
M  V30 4578 H 423.534 5.53439 4.22704 0
M  V30 4579 H 421.161 6.23418 4.35033 0
M  V30 4580 N 422.737 -1.36956 0.779787 0
M  V30 4581 C 423.7 -2.2851 0.177662 0
M  V30 4582 C 424.7 -1.48393 -0.619377 0
M  V30 4583 O 425.89 -1.68505 -0.441785 0
M  V30 4584 C 423.022 -3.32428 -0.755279 0
M  V30 4585 H 424.215 -2.83269 0.984823 0
M  V30 4586 H 421.768 -1.46358 0.548544 0
M  V30 4587 H 422.503 -2.82808 -1.58714 0
M  V30 4588 H 422.288 -3.91659 -0.185817 0
M  V30 4589 H 423.778 -4.00824 -1.17174 0
M  V30 4590 N 424.215 -0.530993 -1.48385 0
M  V30 4591 C 425.162 0.231223 -2.29639 0
M  V30 4592 C 426.132 0.932864 -1.37429 0
M  V30 4593 O 427.317 0.933692 -1.66394 0
M  V30 4594 C 424.457 1.27155 -3.2082 0
M  V30 4595 C 423.57 0.578655 -4.28107 0
M  V30 4596 C 422.705 1.602 -5.06467 0
M  V30 4597 C 421.744 0.892625 -6.05556 0
M  V30 4598 N 420.881 1.86157 -6.76971 0
M  V30 4599 H 425.721 -0.467848 -2.94305 0
M  V30 4600 H 423.258 -0.242556 -1.45086 0
M  V30 4601 H 425.216 1.88703 -3.72085 0
M  V30 4602 H 423.846 1.939 -2.58075 0
M  V30 4603 H 422.898 -0.150782 -3.80101 0
M  V30 4604 H 424.21 0.0217065 -4.98795 0
M  V30 4605 H 423.364 2.29173 -5.61751 0
M  V30 4606 H 422.103 2.19285 -4.35621 0
M  V30 4607 H 421.108 0.188829 -5.49476 0
M  V30 4608 H 422.333 0.307878 -6.78402 0
M  V30 4609 H 420.279 2.44147 -6.08875 0
M  V30 4610 H 420.196 1.35608 -7.43738 0
M  V30 4611 H 421.464 2.54325 -7.36844 0
M  V30 4612 N 425.693 1.55336 -0.266172 0
M  V30 4613 C 426.64 2.22172 0.625165 0
M  V30 4614 C 427.61 1.19211 1.15663 0
M  V30 4615 O 428.795 1.47723 1.20758 0
M  V30 4616 C 425.935 2.93972 1.8076 0
M  V30 4617 C 425.048 4.11632 1.31084 0
M  V30 4618 C 424.183 4.71099 2.45436 0
M  V30 4619 C 423.222 5.8097 1.92718 0
M  V30 4620 N 422.359 6.34538 3.00509 0
M  V30 4621 H 427.199 2.9796 0.0485582 0
M  V30 4622 H 424.736 1.47095 0.0122024 0
M  V30 4623 H 426.694 3.33811 2.50251 0
M  V30 4624 H 425.324 2.20623 2.35638 0
M  V30 4625 H 424.376 3.76975 0.509326 0
M  V30 4626 H 425.688 4.90893 0.884633 0
M  V30 4627 H 424.842 5.13612 3.22936 0
M  V30 4628 H 423.581 3.91096 2.91368 0
M  V30 4629 H 422.586 5.37916 1.13695 0
M  V30 4630 H 423.811 6.62836 1.47733 0
M  V30 4631 H 421.757 5.57433 3.45839 0
M  V30 4632 H 421.674 7.09046 2.62279 0
M  V30 4633 H 422.942 6.81709 3.78011 0
M  V30 4634 N 427.171 -0.0066808 1.57599 0
M  V30 4635 C 428.101 -0.999296 2.11036 0
M  V30 4636 C 429.082 -1.36278 1.01795 0
M  V30 4637 O 430.267 -1.4477 1.29442 0
M  V30 4638 C 427.397 -2.29328 2.60818 0
M  V30 4639 C 426.351 -2.07159 3.74525 0
M  V30 4640 C 425.677 -3.42512 4.10596 0
M  V30 4641 C 426.977 -1.43959 5.02069 0
M  V30 4642 H 428.671 -0.554382 2.94223 0
M  V30 4643 H 426.217 -0.265221 1.41536 0
M  V30 4644 H 428.17 -2.99117 2.96828 0
M  V30 4645 H 426.894 -2.7592 1.74745 0
M  V30 4646 H 425.553 -1.39797 3.38899 0
M  V30 4647 H 425.201 -3.86795 3.21556 0
M  V30 4648 H 424.901 -3.28498 4.87199 0
M  V30 4649 H 426.425 -4.13628 4.4916 0
M  V30 4650 H 427.839 -2.03696 5.35893 0
M  V30 4651 H 426.236 -1.40452 5.83432 0
M  V30 4652 H 427.306 -0.407992 4.83181 0
M  V30 4653 N 428.649 -1.55105 -0.279332 0
M  V30 4654 C 430.06 -1.66186 -0.850832 0
M  V30 4655 C 430.411 -0.584707 -1.87285 0
M  V30 4656 O 429.536 0.274919 -2.14647 0
M  V30 4657 C 430.131 -3.01264 -1.55001 0
M  V30 4658 C 428.69 -3.14394 -2.06963 0
M  V30 4659 C 427.837 -2.61959 -0.909536 0
M  V30 4660 H 430.788 -1.58602 -0.0558235 0
M  V30 4661 H 430.809 -2.93899 -2.41669 0
M  V30 4662 H 430.321 -3.7964 -0.805931 0
M  V30 4663 H 428.422 -2.4078 -2.84352 0
M  V30 4664 H 428.535 -4.20867 -2.28928 0
M  V30 4665 H 426.899 -2.18957 -1.30116 0
M  V30 4666 H 427.682 -3.42833 -0.179062 0
M  V30 4667 N 430.127 0.543554 -1.4793 0
M  V30 4668 C 431.06 1.66556 -1.55995 0
M  V30 4669 C 432.038 1.57315 -0.411205 0
M  V30 4670 O 433.222 1.7798 -0.620922 0
M  V30 4671 C 430.349 3.04883 -1.47527 0
M  V30 4672 C 429.395 3.32526 -2.67074 0
M  V30 4673 S 430.228 3.20282 -4.29162 0
M  V30 4674 C 431.384 4.61079 -4.23269 0
M  V30 4675 H 431.617 1.59462 -2.50917 0
M  V30 4676 H 429.15 0.725456 -1.36296 0
M  V30 4677 H 431.108 3.84665 -1.43328 0
M  V30 4678 H 429.769 3.09429 -0.539665 0
M  V30 4679 H 428.962 4.33403 -2.5725 0
M  V30 4680 H 428.564 2.60389 -2.68466 0
M  V30 4681 H 430.856 5.52318 -3.92365 0
M  V30 4682 H 431.799 4.75959 -5.24279 0
M  V30 4683 H 432.207 4.39766 -3.5393 0
M  V30 4684 N 431.605 1.3629 0.791371 0
M  V30 4685 C 432.852 1.30412 1.54916 0
M  V30 4686 C 433.18 -0.117162 1.94147 0
M  V30 4687 O 432.435 -1.08599 1.62803 0
M  V30 4688 C 432.734 2.17068 2.8393 0
M  V30 4689 C 432.4 3.65645 2.63846 0
M  V30 4690 C 431.062 4.0614 2.58077 0
M  V30 4691 C 433.414 4.59855 2.45322 0
M  V30 4692 C 430.742 5.3899 2.31748 0
M  V30 4693 C 433.094 5.9292 2.2052 0
M  V30 4694 C 431.758 6.32542 2.13183 0
M  V30 4695 H 431.028 0.47721 0.566879 0
M  V30 4696 H 433.675 1.68325 0.913172 0
M  V30 4697 H 431.98 1.72085 3.51986 0
M  V30 4698 H 433.677 2.09846 3.4171 0
M  V30 4699 H 430.267 3.33518 2.69191 0
M  V30 4700 H 434.451 4.29443 2.48782 0
M  V30 4701 H 429.707 5.68672 2.24548 0
M  V30 4702 H 433.881 6.65487 2.05182 0
M  V30 4703 H 431.508 7.35412 1.92544 0
M  V30 4704 N 433.083 -1.0153 1.20538 0
M  V30 4705 C 434.323 -1.76689 1.02763 0
M  V30 4706 C 434.687 -1.87065 -0.432513 0
M  V30 4707 O 435.888 -2.58684 -0.730481 0
M  V30 4708 C 434.159 -3.14707 1.69393 0
M  V30 4709 S 435.718 -4.05886 1.66738 0
M  V30 4710 H 432.536 -0.608076 0.368463 0
M  V30 4711 H 435.138 -1.21558 1.53114 0
M  V30 4712 H 433.842 -3.04782 2.74838 0
M  V30 4713 H 433.373 -3.74913 1.19179 0
M  V30 4714 H 435.388 -4.91221 0.70117 0
M  V30 4715 N 434.561 -1.01147 -1.20859 0
M  V30 4716 C 435.471 -0.58686 -2.27141 0
M  V30 4717 C 436.487 0.373198 -1.69951 0
M  V30 4718 O 437.663 0.235423 -2.00019 0
M  V30 4719 C 434.728 0.0733602 -3.46622 0
M  V30 4720 C 433.789 -0.931995 -4.19061 0
M  V30 4721 C 433.022 -0.303186 -5.32838 0
M  V30 4722 O 433.245 0.898395 -5.63281 0
M  V30 4723 O 432.179 -1.01735 -5.9324 0
M  V30 4724 H 436.005 -1.47155 -2.65667 0
M  V30 4725 H 433.59 -0.780689 -1.2738 0
M  V30 4726 H 435.472 0.442333 -4.19072 0
M  V30 4727 H 434.147 0.932329 -3.09983 0
M  V30 4728 H 433.054 -1.35224 -3.48805 0
M  V30 4729 H 434.387 -1.76076 -4.59628 0
M  V30 4730 N 436.039 1.36541 -0.78704 0
M  V30 4731 C 436.969 2.32659 -0.197992 0
M  V30 4732 C 437.95 1.56533 0.665697 0
M  V30 4733 O 439.135 1.84698 0.60001 0
M  V30 4734 C 436.265 3.40778 0.669901 0
M  V30 4735 C 435.219 4.27897 -0.0937039 0
M  V30 4736 C 434.545 5.27163 0.894629 0
M  V30 4737 C 435.845 5.06334 -1.28154 0
M  V30 4738 H 437.539 2.82171 -1.00099 0
M  V30 4739 H 435.085 1.35665 -0.482793 0
M  V30 4740 H 437.038 4.07008 1.09191 0
M  V30 4741 H 435.762 2.89827 1.50558 0
M  V30 4742 H 434.421 3.6322 -0.49666 0
M  V30 4743 H 434.069 4.72486 1.72527 0
M  V30 4744 H 433.769 5.86317 0.388149 0
M  V30 4745 H 435.293 5.96266 1.31525 0
M  V30 4746 H 436.707 5.65617 -0.93541 0
M  V30 4747 H 435.104 5.74888 -1.72115 0
M  V30 4748 H 436.174 4.38114 -2.07807 0
M  V30 4749 N 437.518 0.538854 1.48102 0
M  V30 4750 C 438.929 0.100679 1.86428 0
M  V30 4751 C 439.28 -1.32447 1.44749 0
M  V30 4752 O 438.405 -1.99339 0.842199 0
M  V30 4753 C 439 0.175933 3.38343 0
M  V30 4754 C 437.559 -0.207098 3.7583 0
M  V30 4755 C 436.706 0.531741 2.72154 0
M  V30 4756 H 439.657 0.749614 1.3988 0
M  V30 4757 H 439.678 -0.610144 3.75576 0
M  V30 4758 H 439.19 1.21328 3.68648 0
M  V30 4759 H 437.291 -1.24626 3.5114 0
M  V30 4760 H 437.404 0.138687 4.78899 0
M  V30 4761 H 435.768 -0.0230462 2.5469 0
M  V30 4762 H 436.551 1.56989 3.05302 0
M  V30 4763 N 438.996 -1.55193 0.274407 0
M  V30 4764 C 440.236 -2.01488 -0.343778 0
M  V30 4765 C 440.6 -1.1586 -1.53103 0
M  V30 4766 O 441.801 -1.51732 -2.2188 0
M  V30 4767 C 440.072 -3.50134 -0.717021 0
M  V30 4768 S 441.631 -4.18417 -1.32184 0
M  V30 4769 H 438.449 -0.70291 -0.106948 0
M  V30 4770 H 441.051 -1.91446 0.396075 0
M  V30 4771 H 439.755 -4.10104 0.155947 0
M  V30 4772 H 439.286 -3.64159 -1.48835 0
M  V30 4773 H 441.301 -4.21984 -2.61044 0
M  V30 4774 N 440.474 -0.00167713 -1.576 0
M  V30 4775 C 441.384 1.00548 -2.1196 0
M  V30 4776 C 442.4 1.3758 -1.06526 0
M  V30 4777 O 443.576 1.46278 -1.38436 0
M  V30 4778 C 440.641 2.27809 -2.6135 0
M  V30 4779 C 439.702 1.97074 -3.81393 0
M  V30 4780 C 438.935 3.18267 -4.28417 0
M  V30 4781 O 439.158 4.30009 -3.74765 0
M  V30 4782 O 438.092 3.02167 -5.20556 0
M  V30 4783 H 441.918 0.573373 -2.98238 0
M  V30 4784 H 439.503 0.217255 -1.47812 0
M  V30 4785 H 441.385 3.02568 -2.93309 0
M  V30 4786 H 440.06 2.70254 -1.78169 0
M  V30 4787 H 438.967 1.19785 -3.54404 0
M  V30 4788 H 440.3 1.59464 -4.65652 0
M  V30 4789 N 441.952 1.55251 0.271103 0
M  V30 4790 C 443.229 1.66664 1.02384 0
M  V30 4791 C 443.609 0.534363 2.04225 0
M  V30 4792 O 442.957 -0.465337 2.23712 0
M  V30 4793 C 443.167 3.05961 1.67895 0
M  V30 4794 C 444.515 3.63772 2.18986 0
M  V30 4795 O 445.539 3.08606 1.77878 0
M  V30 4796 O 444.398 4.60429 2.94393 0
M  V30 4797 H 441.492 0.676957 0.475035 0
M  V30 4798 H 444.038 1.67589 0.26681 0
M  V30 4799 H 442.81 3.79815 0.941071 0
M  V30 4800 H 442.433 3.08943 2.5028 0
M  V30 4801 N 443.43 -0.535701 1.48216 0
M  V30 4802 C 444.362 -1.65662 1.58394 0
M  V30 4803 C 445.375 -1.5591 0.468607 0
M  V30 4804 O 446.564 -1.62475 0.7392 0
M  V30 4805 C 443.664 -3.04276 1.4923 0
M  V30 4806 C 442.837 -3.39567 2.75705 0
M  V30 4807 C 441.896 -4.57436 2.60075 0
M  V30 4808 O 440.922 -4.60942 3.33948 0
M  V30 4809 N 442.124 -5.55259 1.69315 0
M  V30 4810 H 444.889 -1.5737 2.55058 0
M  V30 4811 H 442.45 -0.722845 1.44867 0
M  V30 4812 H 444.442 -3.80994 1.36477 0
M  V30 4813 H 443.012 -3.06677 0.605632 0
M  V30 4814 H 442.232 -2.52083 3.03064 0
M  V30 4815 H 443.52 -3.59929 3.59623 0
M  V30 4816 H 442.918 -5.552 1.08489 0
M  V30 4817 H 441.475 -6.31218 1.62504 0
M  V30 4818 N 444.908 -1.36708 -0.784132 0
M  V30 4819 C 446.157 -1.30559 -1.53744 0
M  V30 4820 C 446.47 0.111374 -1.95283 0
M  V30 4821 O 447.676 0.29527 -2.6989 0
M  V30 4822 C 446.132 -2.29098 -2.77565 0
M  V30 4823 C 445.74 -3.76258 -2.43174 0
M  V30 4824 C 447.484 -2.31936 -3.55536 0
M  V30 4825 C 445.391 -4.6656 -3.63422 0
M  V30 4826 H 444.321 -0.48518 -0.577162 0
M  V30 4827 H 446.972 -1.62101 -0.859981 0
M  V30 4828 H 445.354 -1.90557 -3.47137 0
M  V30 4829 H 446.528 -4.23565 -1.81465 0
M  V30 4830 H 444.843 -3.76246 -1.78403 0
M  V30 4831 H 447.44 -2.9661 -4.44889 0
M  V30 4832 H 447.783 -1.3294 -3.94503 0
M  V30 4833 H 448.316 -2.6912 -2.92949 0
M  V30 4834 H 445.055 -5.66638 -3.29547 0
M  V30 4835 H 444.575 -4.23966 -4.24279 0
M  V30 4836 H 446.254 -4.8309 -4.30387 0
M  V30 4837 N 446.386 1.0089 -1.21074 0
M  V30 4838 C 447.635 1.74019 -1.01981 0
M  V30 4839 C 447.948 1.90408 0.447665 0
M  V30 4840 O 449.154 2.60707 0.757906 0
M  V30 4841 C 447.61 3.13026 -1.77603 0
M  V30 4842 C 447.218 3.04623 -3.28495 0
M  V30 4843 C 448.962 3.90312 -1.66904 0
M  V30 4844 C 446.869 4.38685 -3.96623 0
M  V30 4845 H 445.799 0.652422 -0.377971 0
M  V30 4846 H 448.45 1.12755 -1.44771 0
M  V30 4847 H 446.832 3.74878 -1.27604 0
M  V30 4848 H 448.006 2.52032 -3.85767 0
M  V30 4849 H 446.321 2.40827 -3.39693 0
M  V30 4850 H 448.918 4.8951 -2.15138 0
M  V30 4851 H 449.261 4.11558 -0.62658 0
M  V30 4852 H 449.794 3.35104 -2.14359 0
M  V30 4853 H 446.533 4.22641 -5.01054 0
M  V30 4854 H 446.053 4.91252 -3.4414 0
M  V30 4855 H 447.732 5.075 -4.01314 0
M  V30 4856 N 447.864 1.01787 1.20321 0
M  V30 4857 C 448.794 0.609625 2.25401 0
M  V30 4858 C 449.775 -0.375951 1.65893 0
M  V30 4859 O 450.96 -0.261101 1.92437 0
M  V30 4860 C 448.09 -0.0515995 3.47262 0
M  V30 4861 C 447.044 0.855095 4.19371 0
M  V30 4862 C 446.37 0.0595757 5.34667 0
M  V30 4863 C 447.67 2.16374 4.75373 0
M  V30 4864 H 449.364 1.48803 2.59804 0
M  V30 4865 H 446.91 0.716934 1.24884 0
M  V30 4866 H 448.863 -0.348764 4.19954 0
M  V30 4867 H 447.587 -0.964726 3.12027 0
M  V30 4868 H 446.246 1.13628 3.48546 0
M  V30 4869 H 445.894 -0.85524 4.95676 0
M  V30 4870 H 445.594 0.663406 5.83843 0
M  V30 4871 H 447.118 -0.231105 6.10162 0
M  V30 4872 H 448.532 1.92885 5.39878 0
M  V30 4873 H 446.929 2.71853 5.34991 0
M  V30 4874 H 447.999 2.82589 3.94045 0
M  V30 4875 N 449.342 -1.36122 0.79427 0
M  V30 4876 C 450.272 -2.32551 0.210328 0
M  V30 4877 C 451.253 -1.56884 -0.657386 0
M  V30 4878 O 452.438 -1.85014 -0.590207 0
M  V30 4879 C 449.568 -3.41128 -0.651819 0
M  V30 4880 C 448.522 -4.27842 0.116395 0
M  V30 4881 C 447.848 -5.2763 -0.86666 0
M  V30 4882 C 449.148 -5.05647 1.30837 0
M  V30 4883 H 450.842 -2.81636 1.01594 0
M  V30 4884 H 448.388 -1.35407 0.489981 0
M  V30 4885 H 450.341 -4.07581 -1.07031 0
M  V30 4886 H 449.065 -2.90622 -1.49019 0
M  V30 4887 H 447.724 -3.62952 0.515915 0
M  V30 4888 H 447.372 -4.73395 -1.70019 0
M  V30 4889 H 447.072 -5.86514 -0.35705 0
M  V30 4890 H 448.596 -5.96955 -1.28361 0
M  V30 4891 H 450.01 -5.65113 0.965393 0
M  V30 4892 H 448.407 -5.73967 1.75161 0
M  V30 4893 H 449.477 -4.37006 2.10128 0
M  V30 4894 N 450.82 -0.546701 -1.47814 0
M  V30 4895 C 451.767 0.206854 -2.29871 0
M  V30 4896 C 452.737 0.918235 -1.38411 0
M  V30 4897 O 453.922 0.915991 -1.67375 0
M  V30 4898 C 451.062 1.23746 -3.22151 0
M  V30 4899 C 450.175 0.533216 -4.28697 0
M  V30 4900 C 449.31 1.5482 -5.08138 0
M  V30 4901 C 448.349 0.828347 -6.06469 0
M  V30 4902 N 447.486 1.78966 -6.78908 0
M  V30 4903 H 452.326 -0.499037 -2.93792 0
M  V30 4904 H 449.863 -0.25793 -1.44821 0
M  V30 4905 H 451.821 1.84746 -3.74065 0
M  V30 4906 H 450.451 1.91151 -2.60117 0
M  V30 4907 H 449.503 -0.191089 -3.7992 0
M  V30 4908 H 450.815 -0.0311987 -4.9879 0
M  V30 4909 H 449.969 2.23202 -5.6415 0
M  V30 4910 H 448.708 2.14652 -4.37922 0
M  V30 4911 H 447.713 0.130539 -5.49645 0
M  V30 4912 H 448.938 0.235907 -6.7869 0
M  V30 4913 H 446.884 2.37675 -6.1143 0
M  V30 4914 H 446.801 1.27712 -7.45135 0
M  V30 4915 H 448.069 2.46496 -7.395 0
M  V30 4916 N 452.299 1.55045 -0.282633 0
M  V30 4917 C 453.547 1.99365 0.331334 0
M  V30 4918 C 453.868 1.1725 1.55812 0
M  V30 4919 O 453.138 0.263871 1.94115 0
M  V30 4920 H 451.718 0.736397 0.125414 0
M  V30 4921 H 454.38 1.90964 -0.389711 0
M  V30 4922 H 453.476 3.0596 0.616036 0
M  V30 4923 N 453.777 0.010035 1.57597 0
M  V30 4924 C 455.017 -0.677084 1.9286 0
M  V30 4925 C 455.381 -1.70377 0.885192 0
M  V30 4926 O 456.582 -2.44199 1.12339 0
M  V30 4927 C 454.853 -1.29452 3.33132 0
M  V30 4928 S 456.412 -2.00537 3.90295 0
M  V30 4929 H 453.23 -0.223409 0.674989 0
M  V30 4930 H 455.832 0.0691289 1.95378 0
M  V30 4931 H 454.536 -0.534593 4.06903 0
M  V30 4932 H 454.067 -2.07845 3.34012 0
M  V30 4933 H 456.082 -3.28168 3.72183 0
M  V30 4934 N 455.255 -1.55392 -0.262866 0
M  V30 4935 C 456.495 -1.78231 -1.00064 0
M  V30 4936 C 456.859 -0.576966 -1.83126 0
M  V30 4937 O 458.06 -0.683809 -2.59957 0
M  V30 4938 C 456.331 -3.05701 -1.85153 0
M  V30 4939 S 457.89 -3.49699 -2.65058 0
M  V30 4940 H 454.708 -0.626138 -0.336856 0
M  V30 4941 H 457.31 -1.93626 -0.27005 0
M  V30 4942 H 456.014 -3.91511 -1.23074 0
M  V30 4943 H 455.545 -2.93 -2.62515 0
M  V30 4944 H 457.56 -3.09772 -3.87629 0
M  V30 4945 N 456.733 0.527833 -1.48498 0
M  V30 4946 C 457.666 1.64892 -1.57753 0
M  V30 4947 C 458.644 1.5687 -0.427867 0
M  V30 4948 O 459.828 1.77311 -0.639764 0
M  V30 4949 C 456.955 3.03301 -1.50752 0
M  V30 4950 C 456.001 3.29675 -2.70586 0
M  V30 4951 S 456.834 3.15712 -4.32535 0
M  V30 4952 C 457.99 4.56564 -4.28136 0
M  V30 4953 H 458.223 1.56792 -2.52594 0
M  V30 4954 H 455.756 0.710959 -1.37057 0
M  V30 4955 H 457.714 3.83123 -1.474 0
M  V30 4956 H 456.375 3.08839 -0.572454 0
M  V30 4957 H 455.568 4.3065 -2.61833 0
M  V30 4958 H 455.17 2.57526 -2.71212 0
M  V30 4959 H 457.462 5.48126 -3.98201 0
M  V30 4960 H 458.405 4.70371 -5.29298 0
M  V30 4961 H 458.813 4.35987 -3.58574 0
M  V30 4962 N 458.211 1.37122 0.776871 0
M  V30 4963 C 459.121 1.34651 1.9211 0
M  V30 4964 C 460.137 0.246824 1.7224 0
M  V30 4965 O 461.313 0.48134 1.95563 0
M  V30 4966 C 458.378 1.14748 3.2716 0
M  V30 4967 C 457.439 2.34308 3.5972 0
M  V30 4968 C 456.672 2.15345 4.88326 0
M  V30 4969 O 456.895 1.13507 5.58992 0
M  V30 4970 O 455.829 3.03414 5.1983 0
M  V30 4971 H 459.655 2.31013 1.97146 0
M  V30 4972 H 457.24 1.17799 0.918901 0
M  V30 4973 H 459.122 1.05616 4.0795 0
M  V30 4974 H 457.797 0.214562 3.22988 0
M  V30 4975 H 456.704 2.49011 2.79185 0
M  V30 4976 H 458.037 3.26149 3.68629 0
M  V30 4977 N 459.689 -1.00246 1.21608 0
M  V30 4978 C 460.938 -1.73476 1.02902 0
M  V30 4979 C 461.251 -1.90643 -0.437561 0
M  V30 4980 O 462.457 -2.61105 -0.74407 0
M  V30 4981 C 460.913 -3.12079 1.79261 0
M  V30 4982 C 460.521 -3.02877 3.30106 0
M  V30 4983 C 462.265 -3.89421 1.68972 0
M  V30 4984 C 460.172 -4.36575 3.98944 0
M  V30 4985 H 459.102 -0.650408 0.381425 0
M  V30 4986 H 461.753 -1.11985 1.45367 0
M  V30 4987 H 460.135 -3.74196 1.2959 0
M  V30 4988 H 461.309 -2.49983 3.87098 0
M  V30 4989 H 459.624 -2.39022 3.40965 0
M  V30 4990 H 462.221 -4.88362 2.17731 0
M  V30 4991 H 462.564 -4.1122 0.648397 0
M  V30 4992 H 463.097 -3.33963 2.16133 0
M  V30 4993 H 459.836 -4.19978 5.03288 0
M  V30 4994 H 459.356 -4.8942 3.4674 0
M  V30 4995 H 461.035 -5.05364 4.04 0
M  V30 4996 N 461.167 -1.02423 -1.1978 0
M  V30 4997 C 462.1 -0.545641 -2.21581 0
M  V30 4998 C 463.078 0.411024 -1.57319 0
M  V30 4999 O 464.262 0.329223 -1.85603 0
M  V30 5000 C 461.389 0.204973 -3.38079 0
M  V30 5001 C 460.435 -0.70241 -4.20676 0
M  V30 5002 S 461.268 -2.17595 -4.89298 0
M  V30 5003 C 462.424 -1.43572 -6.09211 0
M  V30 5004 H 462.657 -1.4082 -2.61834 0
M  V30 5005 H 460.19 -0.833771 -1.29952 0
M  V30 5006 H 462.148 0.631924 -4.05607 0
M  V30 5007 H 460.809 1.0432 -2.9627 0
M  V30 5008 H 460.002 -0.123193 -5.03849 0
M  V30 5009 H 459.604 -1.06747 -3.58442 0
M  V30 5010 H 461.896 -0.719806 -6.73665 0
M  V30 5011 H 462.839 -2.24388 -6.71607 0
M  V30 5012 H 463.247 -0.935252 -5.56699 0
M  V30 5013 N 462.645 1.35699 -0.801477 0
M  V30 5014 C 463.87 2.03687 -0.390678 0
M  V30 5015 C 464.295 1.60015 0.988778 0
M  V30 5016 O 463.653 0.774357 1.63931 0
M  V30 5017 C 463.701 3.57439 -0.476404 0
M  V30 5018 O 462.805 4.09208 0.512106 0
M  V30 5019 H 462.146 0.64344 -0.163956 0
M  V30 5020 H 464.676 1.73403 -1.08594 0
M  V30 5021 H 464.686 4.06544 -0.344357 0
M  V30 5022 H 463.361 3.88576 -1.48262 0
M  V30 5023 H 461.938 3.7134 0.340721 0
M  V30 5024 N 464.123 0.554532 1.47522 0
M  V30 5025 C 465.053 -0.182974 2.32782 0
M  V30 5026 C 466.034 -0.911377 1.43624 0
M  V30 5027 O 467.219 -0.892366 1.72483 0
M  V30 5028 C 464.349 -1.21513 3.25349 0
M  V30 5029 C 463.303 -0.603355 4.23726 0
M  V30 5030 C 462.629 -1.73995 5.05598 0
M  V30 5031 C 463.929 0.441121 5.20434 0
M  V30 5032 H 465.623 0.52882 2.94693 0
M  V30 5033 H 463.169 0.255759 1.41711 0
M  V30 5034 H 465.122 -1.73922 3.83835 0
M  V30 5035 H 463.846 -1.95683 2.61487 0
M  V30 5036 H 462.505 -0.10059 3.66462 0
M  V30 5037 H 462.153 -2.47063 4.38143 0
M  V30 5038 H 461.853 -1.3364 5.72201 0
M  V30 5039 H 463.377 -2.26735 5.66942 0
M  V30 5040 H 464.791 0.00319931 5.733 0
M  V30 5041 H 463.188 0.763402 5.95224 0
M  V30 5042 H 464.258 1.33799 4.66075 0
M  V30 5043 N 465.601 -1.54893 0.290851 0
M  V30 5044 C 467.017 -1.59476 -0.0628432 0
M  V30 5045 C 467.217 -1.30795 -1.5328 0
M  V30 5046 O 466.273 -1.07644 -2.28406 0
M  V30 5047 C 467.586 -2.98928 0.325962 0
M  V30 5048 C 469.134 -3.11799 0.273882 0
M  V30 5049 C 469.609 -4.53544 0.637359 0
M  V30 5050 N 471.1 -4.59433 0.589507 0
M  V30 5051 C 471.835 -5.67164 0.84335 0
M  V30 5052 N 471.331 -6.82975 1.16263 0
M  V30 5053 N 473.124 -5.56786 0.771091 0
M  V30 5054 H 465.275 -1.71798 1.24896 0
M  V30 5055 H 467.538 -0.801879 0.505663 0
M  V30 5056 H 467.244 -3.24805 1.34887 0
M  V30 5057 H 467.118 -3.75793 -0.325441 0
M  V30 5058 H 469.505 -2.85677 -0.739765 0
M  V30 5059 H 469.586 -2.37112 0.959766 0
M  V30 5060 H 469.23 -4.80394 1.64877 0
M  V30 5061 H 469.16 -5.26553 -0.0704866 0
M  V30 5062 H 471.651 -3.76245 0.353252 0
M  V30 5063 H 471.964 -7.61048 1.34257 0
M  V30 5064 H 470.309 -6.84552 1.20057 0
M  V30 5065 H 473.5 -4.65187 0.521383 0
M  V30 5066 H 473.673 -6.40664 0.972295 0
M  V30 5067 N 467.08 -0.0183926 -1.57589 0
M  V30 5068 C 468.043 0.951986 -2.08494 0
M  V30 5069 C 469.043 1.26092 -0.997874 0
M  V30 5070 O 470.233 1.20304 -1.25987 0
M  V30 5071 C 467.365 2.27165 -2.54182 0
M  V30 5072 H 468.558 0.511307 -2.95509 0
M  V30 5073 H 466.111 0.229444 -1.54607 0
M  V30 5074 H 466.846 2.75884 -1.70465 0
M  V30 5075 H 466.631 2.06057 -3.33591 0
M  V30 5076 H 468.121 2.9674 -2.93828 0
M  V30 5077 N 468.558 1.5553 0.254621 0
M  V30 5078 C 469.521 1.88872 1.29846 0
M  V30 5079 C 470.521 0.764591 1.41459 0
M  V30 5080 O 471.711 1.03265 1.40293 0
M  V30 5081 C 468.843 2.11032 2.67728 0
M  V30 5082 H 470.036 2.82201 1.01502 0
M  V30 5083 H 467.589 1.48303 0.493556 0
M  V30 5084 H 468.324 1.20146 3.01223 0
M  V30 5085 H 468.109 2.92895 2.60682 0
M  V30 5086 H 469.599 2.38038 3.43115 0
M  V30 5087 N 470.036 -0.519951 1.48776 0
M  V30 5088 C 471.282 -1.27711 1.57536 0
M  V30 5089 C 471.615 -1.92547 0.252866 0
M  V30 5090 O 470.89 -1.7979 -0.742021 0
M  V30 5091 C 471.173 -2.35875 2.72094 0
M  V30 5092 C 471.026 -1.75664 4.1408 0
M  V30 5093 C 472.345 -3.37575 2.82367 0
M  V30 5094 H 469.464 -0.462971 0.573434 0
M  V30 5095 H 472.106 -0.578194 1.80989 0
M  V30 5096 H 470.256 -2.95488 2.52228 0
M  V30 5097 H 471.928 -1.20025 4.45412 0
M  V30 5098 H 470.171 -1.06154 4.20611 0
M  V30 5099 H 470.842 -2.54029 4.90075 0
M  V30 5100 H 473.318 -2.87929 3.00393 0
M  V30 5101 H 472.194 -4.1064 3.64233 0
M  V30 5102 H 472.455 -3.98743 1.90936 0
M  V30 5103 N 471.514 -1.37532 -0.769588 0
M  V30 5104 C 472.93 -1.18379 -1.07045 0
M  V30 5105 C 473.13 -0.0214312 -2.01489 0
M  V30 5106 O 472.186 0.637809 -2.44312 0
M  V30 5107 C 473.499 -2.50338 -1.66588 0
M  V30 5108 C 475.047 -2.56879 -1.78835 0
M  V30 5109 C 475.522 -3.88974 -2.41792 0
M  V30 5110 N 477.013 -3.90428 -2.4924 0
M  V30 5111 C 477.748 -4.89388 -2.98809 0
M  V30 5112 N 477.244 -5.98745 -3.48535 0
M  V30 5113 N 479.037 -4.76791 -2.97703 0
M  V30 5114 H 471.188 -2.11921 -0.142541 0
M  V30 5115 H 473.451 -0.939608 -0.125863 0
M  V30 5116 H 473.157 -3.35767 -1.0466 0
M  V30 5117 H 473.031 -2.67583 -2.65856 0
M  V30 5118 H 475.418 -1.71856 -2.39895 0
M  V30 5119 H 475.499 -2.43516 -0.783166 0
M  V30 5120 H 475.143 -4.74412 -1.81371 0
M  V30 5121 H 475.073 -3.99641 -3.4292 0
M  V30 5122 H 477.564 -3.11433 -2.14052 0
M  V30 5123 H 477.877 -6.70205 -3.84767 0
M  V30 5124 H 476.222 -6.02387 -3.46634 0
M  V30 5125 H 479.413 -3.90478 -2.58157 0
M  V30 5126 H 479.586 -5.54069 -3.36024 0
M  V30 5127 N 472.992 0.995999 -1.22138 0
M  V30 5128 C 474.222 1.76809 -1.06874 0
M  V30 5129 C 474.63 1.85265 0.383866 0
M  V30 5130 O 473.973 1.31969 1.27789 0
M  V30 5131 C 474.035 3.2186 -1.60144 0
M  V30 5132 C 473.699 3.36958 -3.0872 0
M  V30 5133 C 474.696 3.2452 -4.0618 0
M  V30 5134 C 472.381 3.62109 -3.48112 0
M  V30 5135 C 474.375 3.37013 -5.41019 0
M  V30 5136 C 472.062 3.74243 -4.831 0
M  V30 5137 C 473.06 3.61702 -5.79362 0
M  V30 5138 O 472.748 3.73436 -7.119 0
M  V30 5139 H 472.48 0.562207 -0.375365 0
M  V30 5140 H 475.034 1.26113 -1.62125 0
M  V30 5141 H 473.264 3.73734 -0.992981 0
M  V30 5142 H 474.953 3.80775 -1.40589 0
M  V30 5143 H 475.719 3.05004 -3.77091 0
M  V30 5144 H 471.598 3.70949 -2.73712 0
M  V30 5145 H 475.142 3.27141 -6.16137 0
M  V30 5146 H 471.039 3.93266 -5.11872 0
M  V30 5147 H 471.807 3.90328 -7.19435 0
M  V30 5148 N 474.47 1.03057 1.19235 0
M  V30 5149 C 475.747 0.642608 1.84743 0
M  V30 5150 C 476.127 -0.878577 1.91948 0
M  V30 5151 O 475.475 -1.77597 1.43776 0
M  V30 5152 C 475.685 1.30665 3.23616 0
M  V30 5153 C 477.033 1.43098 3.9976 0
M  V30 5154 O 478.057 1.26396 3.3302 0
M  V30 5155 O 476.916 1.70223 5.19313 0
M  V30 5156 H 474.01 0.223573 0.796206 0
M  V30 5157 H 476.556 1.12883 1.26711 0
M  V30 5158 H 475.328 2.34544 3.13217 0
M  V30 5159 H 474.951 0.808405 3.89295 0
M  V30 5160 N 475.948 -1.35272 0.808662 0
M  V30 5161 C 477.359 -1.81179 0.450688 0
M  V30 5162 C 477.71 -1.67143 -1.02751 0
M  V30 5163 O 476.835 -1.20325 -1.79864 0
M  V30 5164 C 477.43 -3.28943 0.811275 0
M  V30 5165 C 475.989 -3.72985 0.505871 0
M  V30 5166 C 475.136 -2.57229 1.03578 0
M  V30 5167 H 478.087 -1.2322 1.00012 0
M  V30 5168 H 478.108 -3.80342 0.109588 0
M  V30 5169 H 477.62 -3.39127 1.88718 0
M  V30 5170 H 475.721 -3.68349 -0.561209 0
M  V30 5171 H 475.834 -4.67677 1.03995 0
M  V30 5172 H 474.198 -2.50548 0.458005 0
M  V30 5173 H 474.981 -2.7019 2.11784 0
M  V30 5174 N 477.426 -0.562348 -1.47226 0
M  V30 5175 C 478.336 0.185466 -2.33866 0
M  V30 5176 C 479.352 0.906713 -1.48508 0
M  V30 5177 O 480.528 0.874458 -1.81425 0
M  V30 5178 C 477.593 1.19904 -3.25306 0
M  V30 5179 C 476.654 0.484669 -4.26555 0
M  V30 5180 C 475.887 1.44996 -5.13626 0
M  V30 5181 O 476.11 2.68515 -5.03245 0
M  V30 5182 O 475.044 0.971642 -5.94006 0
M  V30 5183 H 478.87 -0.525361 -2.99121 0
M  V30 5184 H 476.455 -0.322916 -1.45868 0
M  V30 5185 H 478.337 1.78399 -3.81774 0
M  V30 5186 H 477.012 1.8917 -2.62672 0
M  V30 5187 H 475.919 -0.141605 -3.73832 0
M  V30 5188 H 477.252 -0.166634 -4.91918 0
M  V30 5189 N 478.904 1.54736 -0.299062 0
M  V30 5190 C 480.129 2.04975 0.316254 0
M  V30 5191 C 480.554 1.17501 1.46885 0
M  V30 5192 O 479.912 0.178678 1.80417 0
M  V30 5193 C 479.96 3.52672 0.751997 0
M  V30 5194 O 479.064 3.68226 1.85697 0
M  V30 5195 H 478.405 0.661126 0.0617175 0
M  V30 5196 H 480.935 1.99805 -0.440341 0
M  V30 5197 H 480.945 3.94488 1.04133 0
M  V30 5198 H 479.62 4.158 -0.0911482 0
M  V30 5199 H 478.197 3.38316 1.56834 0
M  V30 5200 N 480.382 0.0267497 1.57577 0
M  V30 5201 C 481.292 -0.971633 2.13533 0
M  V30 5202 C 482.308 -1.35868 1.08701 0
M  V30 5203 O 483.484 -1.44058 1.40746 0
M  V30 5204 C 480.549 -2.23622 2.64941 0
M  V30 5205 C 479.61 -1.90982 3.8448 0
M  V30 5206 C 478.843 -3.11411 4.33427 0
M  V30 5207 O 479.066 -4.23992 3.81558 0
M  V30 5208 O 478 -2.93848 5.25297 0
M  V30 5209 H 481.826 -0.525853 2.99113 0
M  V30 5210 H 479.411 -0.193712 1.48139 0
M  V30 5211 H 481.293 -2.97864 2.98086 0
M  V30 5212 H 479.968 -2.67386 1.82446 0
M  V30 5213 H 478.875 -1.14132 3.56265 0
M  V30 5214 H 480.208 -1.52036 4.6813 0
M  V30 5215 N 481.861 -1.55662 -0.24637 0
M  V30 5216 C 483.089 -1.81575 -0.991876 0
M  V30 5217 C 483.504 -0.602545 -1.78927 0
M  V30 5218 O 482.861 0.428795 -1.77391 0
M  V30 5219 C 482.912 -3.05711 -1.92933 0
M  V30 5220 O 482.633 -4.22348 -1.1642 0
M  V30 5221 C 484.134 -3.44428 -2.79078 0
M  V30 5222 H 481.354 -0.604209 -0.291844 0
M  V30 5223 H 483.898 -2.02722 -0.269095 0
M  V30 5224 H 482.053 -2.86612 -2.60638 0
M  V30 5225 H 482.467 -4.92706 -1.79835 0
M  V30 5226 H 483.941 -4.34388 -3.40603 0
M  V30 5227 H 484.418 -2.65037 -3.50217 0
M  V30 5228 H 485.024 -3.65879 -2.16824 0
M  V30 5229 N 483.339 0.512053 -1.4905 0
M  V30 5230 C 484.269 1.62365 -1.67809 0
M  V30 5231 C 485.25 1.61737 -0.526809 0
M  V30 5232 O 486.435 1.78651 -0.761404 0
M  V30 5233 C 483.565 3.00895 -1.73435 0
M  V30 5234 C 482.519 3.16387 -2.88242 0
M  V30 5235 C 481.845 4.56157 -2.78971 0
M  V30 5236 C 483.145 2.97457 -4.29321 0
M  V30 5237 H 484.839 1.46921 -2.60873 0
M  V30 5238 H 482.385 0.705379 -1.2554 0
M  V30 5239 H 484.338 3.78549 -1.85145 0
M  V30 5240 H 483.062 3.17403 -0.769619 0
M  V30 5241 H 481.721 2.41155 -2.76116 0
M  V30 5242 H 481.369 4.69525 -1.8043 0
M  V30 5243 H 481.069 4.67465 -3.5602 0
M  V30 5244 H 482.593 5.35886 -2.92675 0
M  V30 5245 H 484.007 3.64888 -4.42187 0
M  V30 5246 H 482.404 3.20245 -5.07507 0
M  V30 5247 H 483.474 1.93692 -4.44535 0
M  V30 5248 N 484.817 1.37938 0.762283 0
M  V30 5249 C 486.045 1.36883 1.55147 0
M  V30 5250 C 486.46 -0.0435348 1.8875 0
M  V30 5251 O 485.817 -1.00786 1.52146 0
M  V30 5252 C 485.868 2.21624 2.85596 0
M  V30 5253 O 485.589 3.57358 2.5343 0
M  V30 5254 C 487.09 2.28653 3.7978 0
M  V30 5255 H 484.31 0.468521 0.480343 0
M  V30 5256 H 486.854 1.81404 0.944079 0
M  V30 5257 H 485.009 1.80588 3.42734 0
M  V30 5258 H 485.423 4.01883 3.37032 0
M  V30 5259 H 486.897 2.9225 4.68288 0
M  V30 5260 H 487.374 1.29767 4.19592 0
M  V30 5261 H 487.98 2.70043 3.28568 0
M  V30 5262 N 486.295 -0.989507 1.22664 0
M  V30 5263 C 487.225 -2.09847 1.02404 0
M  V30 5264 C 488.206 -1.70007 -0.0561303 0
M  V30 5265 O 489.391 -1.93906 0.106748 0
M  V30 5266 C 486.521 -3.41996 0.604663 0
M  V30 5267 C 485.475 -3.95699 1.63115 0
M  V30 5268 C 484.801 -5.23936 1.0675 0
M  V30 5269 C 486.101 -4.25999 3.02196 0
M  V30 5270 H 487.795 -2.27054 1.95158 0
M  V30 5271 H 485.341 -1.09111 0.939727 0
M  V30 5272 H 487.294 -4.1899 0.45002 0
M  V30 5273 H 486.018 -3.24626 -0.35855 0
M  V30 5274 H 484.677 -3.2084 1.77362 0
M  V30 5275 H 484.325 -5.02909 0.0955422 0
M  V30 5276 H 484.025 -5.60833 1.75328 0
M  V30 5277 H 485.549 -6.0356 0.924516 0
M  V30 5278 H 486.963 -4.93777 2.91303 0
M  V30 5279 H 485.36 -4.74076 3.67929 0
M  V30 5280 H 486.43 -3.33636 3.51873 0
M  V30 5281 N 487.773 -1.03688 -1.18687 0
M  V30 5282 C 488.721 -0.618292 -2.24232 0
M  V30 5283 C 489.715 0.353045 -1.6568 0
M  V30 5284 O 490.921 0.220749 -1.78641 0
M  V30 5285 H 487.296 -0.181711 -0.729716 0
M  V30 5286 H 489.267 -1.51893 -2.56848 0
M  V30 5287 C 488.016 0.00677342 -3.47699 0
M  V30 5288 H 487.339 -0.731692 -3.93047 0
M  V30 5289 H 488.779 0.262492 -4.23187 0
M  V30 5290 C 487.238 1.25572 -3.12623 0
M  V30 5291 O 487.768 2.34691 -3.26011 0
M  V30 5292 N 485.974 1.14755 -2.66982 0
M  V30 5293 H 485.521 0.259601 -2.56289 0
M  V30 5294 H 485.479 1.98412 -2.43885 0
M  V30 5295 N 489.251 1.34841 -0.815825 0
M  V30 5296 C 490.499 1.98107 -0.399744 0
M  V30 5297 C 490.82 1.65019 1.03894 0
M  V30 5298 O 490.09 0.937311 1.72021 0
M  V30 5299 H 488.67 0.732827 -0.144823 0
M  V30 5300 H 491.332 1.64599 -1.0437 0
M  V30 5301 H 490.428 3.07856 -0.512965 0
M  V30 5302 N 490.729 0.570148 1.46925 0
M  V30 5303 C 491.639 -0.173061 2.33961 0
M  V30 5304 C 492.655 -0.898825 1.48987 0
M  V30 5305 O 493.831 -0.864825 1.81887 0
M  V30 5306 C 490.896 -1.18177 3.25937 0
M  V30 5307 C 489.957 -0.462041 4.26806 0
M  V30 5308 C 489.19 -1.4227 5.14388 0
M  V30 5309 O 489.413 -2.65842 5.04662 0
M  V30 5310 O 488.347 -0.940127 5.94513 0
M  V30 5311 H 492.173 0.541216 2.98839 0
M  V30 5312 H 489.758 0.330647 1.45695 0
M  V30 5313 H 491.64 -1.76372 3.82715 0
M  V30 5314 H 490.315 -1.87774 2.63671 0
M  V30 5315 H 489.222 0.161429 3.73752 0
M  V30 5316 H 490.555 0.192719 4.91823 0
M  V30 5317 N 492.207 -1.54576 0.307264 0
M  V30 5318 C 493.14 -2.19946 -0.608195 0
M  V30 5319 C 494.118 -1.17096 -1.12815 0
M  V30 5320 O 495.302 -1.45766 -1.19518 0
M  V30 5321 C 492.429 -2.84826 -1.8328 0
M  V30 5322 C 491.475 -4.01256 -1.44554 0
M  V30 5323 S 492.308 -5.33197 -0.49612 0
M  V30 5324 C 493.464 -6.01563 -1.72838 0
M  V30 5325 H 493.697 -2.97253 -0.0528544 0
M  V30 5326 H 491.23 -1.54129 0.0913837 0
M  V30 5327 H 493.188 -3.22832 -2.53554 0
M  V30 5328 H 491.849 -2.07353 -2.35931 0
M  V30 5329 H 491.042 -4.45457 -2.35762 0
M  V30 5330 H 490.644 -3.6484 -0.822671 0
M  V30 5331 H 492.936 -6.22751 -2.6681 0
M  V30 5332 H 493.879 -6.9552 -1.32882 0
M  V30 5333 H 494.287 -5.31279 -1.90795 0
M  V30 5334 N 493.685 -0.035106 -1.57561 0
M  V30 5335 C 494.648 0.929819 -2.09492 0
M  V30 5336 C 495.648 1.25026 -1.01119 0
M  V30 5337 O 496.838 1.18961 -1.27255 0
M  V30 5338 C 493.97 2.24457 -2.56577 0
M  V30 5339 H 495.163 0.479935 -2.96035 0
M  V30 5340 H 492.716 0.213033 -1.54841 0
M  V30 5341 H 493.451 2.74061 -1.73382 0
M  V30 5342 H 493.236 2.02508 -3.35757 0
M  V30 5343 H 494.726 2.93607 -2.96959 0
M  V30 5344 N 495.163 1.55791 0.238111 0
M  V30 5345 C 496.409 1.78297 0.966337 0
M  V30 5346 C 496.742 0.601903 1.84637 0
M  V30 5347 O 496.017 -0.399499 1.90353 0
M  V30 5348 C 496.3 3.10758 1.81939 0
M  V30 5349 C 496.153 4.39283 0.966958 0
M  V30 5350 C 497.472 3.39519 2.80027 0
M  V30 5351 H 494.591 0.648654 0.349882 0
M  V30 5352 H 497.233 1.88525 0.236253 0
M  V30 5353 H 495.383 3.02168 2.44185 0
M  V30 5354 H 497.055 4.59873 0.362514 0
M  V30 5355 H 495.298 4.32948 0.271669 0
M  V30 5356 H 495.969 5.28368 1.59784 0
M  V30 5357 H 498.445 3.48128 2.27917 0
M  V30 5358 H 497.321 4.33402 3.36829 0
M  V30 5359 H 497.582 2.60864 3.56934 0
M  V30 5360 N 496.642 -0.504142 1.49319 0
M  V30 5361 C 497.87 -1.28256 1.62351 0
M  V30 5362 C 498.285 -1.86502 0.293682 0
M  V30 5363 O 497.642 -1.67678 -0.720449 0
M  V30 5364 C 497.693 -2.41507 2.68992 0
M  V30 5365 O 497.414 -1.85656 3.96817 0
M  V30 5366 C 498.915 -3.32929 2.927 0
M  V30 5367 H 496.135 -0.389115 0.546654 0
M  V30 5368 H 498.679 -0.605531 1.95329 0
M  V30 5369 H 496.834 -3.05046 2.38801 0
M  V30 5370 H 497.248 -2.59981 4.55533 0
M  V30 5371 H 498.722 -4.0868 3.71058 0
M  V30 5372 H 499.199 -3.89733 2.02496 0
M  V30 5373 H 499.805 -2.75158 3.24296 0
M  V30 5374 N 498.12 -1.38341 -0.754957 0
M  V30 5375 C 499.536 -1.19508 -1.05783 0
M  V30 5376 C 499.736 -0.0428005 -2.01455 0
M  V30 5377 O 498.792 0.611861 -2.44975 0
M  V30 5378 C 500.105 -2.52091 -1.63923 0
M  V30 5379 C 501.653 -2.58762 -1.76101 0
M  V30 5380 C 502.128 -3.91517 -2.37652 0
M  V30 5381 N 503.619 -3.93049 -2.45085 0
M  V30 5382 C 504.354 -4.9253 -2.93602 0
M  V30 5383 N 503.85 -6.02408 -3.42165 0
M  V30 5384 N 505.643 -4.79921 -2.92629 0
M  V30 5385 H 497.794 -2.1206 -0.120056 0
M  V30 5386 H 500.057 -0.94089 -0.11589 0
M  V30 5387 H 499.763 -3.36858 -1.01093 0
M  V30 5388 H 499.637 -2.70388 -2.63003 0
M  V30 5389 H 502.024 -1.74391 -2.38058 0
M  V30 5390 H 502.105 -2.44333 -0.757294 0
M  V30 5391 H 501.749 -4.76309 -1.76329 0
M  V30 5392 H 501.679 -4.03256 -3.38662 0
M  V30 5393 H 504.17 -3.13685 -2.10736 0
M  V30 5394 H 504.483 -6.74248 -3.77637 0
M  V30 5395 H 502.828 -6.0603 -3.40225 0
M  V30 5396 H 506.019 -3.93194 -2.54001 0
M  V30 5397 H 506.192 -5.57601 -3.30128 0
M  V30 5398 N 499.598 0.982988 -1.23187 0
M  V30 5399 C 500.846 1.72052 -1.06031 0
M  V30 5400 C 501.167 1.90769 0.404019 0
M  V30 5401 O 500.437 1.47446 1.28982 0
M  V30 5402 H 499.017 0.637499 -0.389363 0
M  V30 5403 H 501.679 1.18338 -1.54862 0
M  V30 5404 H 500.775 2.7111 -1.54615 0
M  V30 5405 N 501.076 1.04316 1.18135 0
M  V30 5406 C 502.008 0.594444 2.21357 0
M  V30 5407 C 503.021 -0.337215 1.59269 0
M  V30 5408 O 504.21 -0.131337 1.78016 0
M  V30 5409 C 501.31 -0.151251 3.38562 0
M  V30 5410 C 500.483 0.788907 4.30227 0
M  V30 5411 C 499.542 0.0860572 5.2613 0
M  V30 5412 O 498.568 0.717302 5.64662 0
M  V30 5413 N 499.77 -1.17969 5.68387 0
M  V30 5414 H 502.535 1.48227 2.60478 0
M  V30 5415 H 500.096 0.92396 1.32946 0
M  V30 5416 H 502.088 -0.631352 3.99745 0
M  V30 5417 H 500.658 -0.940639 2.98112 0
M  V30 5418 H 499.878 1.44882 3.6661 0
M  V30 5419 H 501.166 1.42738 4.88368 0
M  V30 5420 H 500.564 -1.71302 5.3914 0
M  V30 5421 H 499.121 -1.60402 6.31755 0
M  V30 5422 N 502.554 -1.34406 0.822964 0
M  V30 5423 C 503.484 -2.32052 0.259608 0
M  V30 5424 C 504.465 -1.58243 -0.623961 0
M  V30 5425 O 505.65 -1.86224 -0.55083 0
M  V30 5426 C 502.78 -3.42434 -0.579314 0
M  V30 5427 C 501.734 -4.27499 0.20712 0
M  V30 5428 C 501.06 -5.29349 -0.754547 0
M  V30 5429 C 502.36 -5.02758 1.41533 0
M  V30 5430 H 504.054 -2.79418 1.07545 0
M  V30 5431 H 501.6 -1.34338 0.518593 0
M  V30 5432 H 503.553 -4.0976 -0.983612 0
M  V30 5433 H 502.277 -2.93717 -1.4282 0
M  V30 5434 H 500.936 -3.61776 0.592787 0
M  V30 5435 H 500.584 -4.76895 -1.59939 0
M  V30 5436 H 500.284 -5.8714 -0.232561 0
M  V30 5437 H 501.808 -5.99544 -1.1567 0
M  V30 5438 H 503.222 -5.62938 1.08504 0
M  V30 5439 H 501.619 -5.70123 1.87296 0
M  V30 5440 H 502.689 -4.32451 2.1935 0
M  V30 5441 N 504.032 -0.577932 -1.46621 0
M  V30 5442 C 504.979 0.158048 -2.30258 0
M  V30 5443 C 505.949 0.888669 -1.40328 0
M  V30 5444 O 507.134 0.880283 -1.6928 0
M  V30 5445 C 504.274 1.16884 -3.24703 0
M  V30 5446 C 503.387 0.442163 -4.29731 0
M  V30 5447 C 502.522 1.44007 -5.11308 0
M  V30 5448 C 501.561 0.69952 -6.0809 0
M  V30 5449 N 500.698 1.64525 -6.82551 0
M  V30 5450 H 505.538 -0.561242 -2.92667 0
M  V30 5451 H 503.075 -0.288591 -1.44241 0
M  V30 5452 H 505.033 1.7677 -3.779 0
M  V30 5453 H 503.663 1.85591 -2.64113 0
M  V30 5454 H 502.715 -0.271632 -3.79429 0
M  V30 5455 H 504.027 -0.136992 -4.98612 0
M  V30 5456 H 503.181 2.11186 -5.68758 0
M  V30 5457 H 501.92 2.05315 -4.42377 0
M  V30 5458 H 500.925 0.0139217 -5.49798 0
M  V30 5459 H 502.15 0.091894 -6.79038 0
M  V30 5460 H 500.096 2.24653 -6.16334 0
M  V30 5461 H 500.013 1.11878 -7.47676 0
M  V30 5462 H 501.281 2.30754 -7.44562 0
M  V30 5463 N 505.51 1.54411 -0.315457 0
M  V30 5464 C 506.458 2.25514 0.569771 0
M  V30 5465 C 507.452 1.2663 1.12522 0
M  V30 5466 O 508.658 1.44434 1.07419 0
M  V30 5467 H 505.033 0.724257 0.202376 0
M  V30 5468 H 507.004 2.98354 -0.0522895 0
M  V30 5469 C 505.753 3.02004 1.72305 0
M  V30 5470 H 505.076 3.77906 1.30488 0
M  V30 5471 H 506.516 3.55014 2.31821 0
M  V30 5472 C 504.975 2.09822 2.63583 0
M  V30 5473 O 505.505 1.67574 3.65078 0
M  V30 5474 N 503.711 1.75478 2.31637 0
M  V30 5475 H 503.258 2.10032 1.49145 0
M  V30 5476 H 503.216 1.14079 2.92973 0
M  V30 5477 N 506.988 0.0434614 1.5754 0
M  V30 5478 C 508.236 -0.630786 1.92004 0
M  V30 5479 C 508.557 -1.71836 0.921807 0
M  V30 5480 O 507.827 -1.9587 -0.034522 0
M  V30 5481 H 506.407 -0.235988 0.708745 0
M  V30 5482 H 509.069 0.0946462 1.9467 0
M  V30 5483 H 508.165 -1.07434 2.93026 0
M  V30 5484 N 508.466 -1.55915 -0.229846 0
M  V30 5485 C 509.714 -1.7819 -0.953565 0
M  V30 5486 C 510.035 -0.610504 -1.85197 0
M  V30 5487 O 509.305 0.372988 -1.92316 0
M  V30 5488 H 507.885 -0.657208 -0.355087 0
M  V30 5489 H 510.547 -1.9337 -0.243693 0
M  V30 5490 H 509.643 -2.70011 -1.56527 0
M  V30 5491 N 509.944 0.496216 -1.49584 0
M  V30 5492 C 510.874 1.60576 -1.69521 0
M  V30 5493 C 511.855 1.61169 -0.543933 0
M  V30 5494 O 513.04 1.77834 -0.78031 0
M  V30 5495 C 510.17 2.99038 -1.76616 0
M  V30 5496 C 509.124 3.13312 -2.91581 0
M  V30 5497 C 508.45 4.53172 -2.83794 0
M  V30 5498 C 509.75 2.92886 -4.32452 0
M  V30 5499 H 511.444 1.44146 -2.62416 0
M  V30 5500 H 508.99 0.692024 -1.26282 0
M  V30 5501 H 510.943 3.76564 -1.8915 0
M  V30 5502 H 509.667 3.16568 -0.80324 0
M  V30 5503 H 508.326 2.38213 -2.78658 0
M  V30 5504 H 507.974 4.67585 -1.854 0
M  V30 5505 H 507.674 4.63662 -3.60958 0
M  V30 5506 H 509.198 5.32752 -2.98342 0
M  V30 5507 H 510.612 3.60178 -4.46032 0
M  V30 5508 H 509.009 3.14844 -5.10875 0
M  V30 5509 H 510.079 1.88966 -4.46565 0
M  V30 5510 N 511.423 1.38739 0.74761 0
M  V30 5511 C 512.671 1.35007 1.50391 0
M  V30 5512 C 512.992 -0.0574274 1.94915 0
M  V30 5513 O 512.262 -1.00628 1.6808 0
M  V30 5514 H 510.842 0.496784 0.557866 0
M  V30 5515 H 513.504 1.73479 0.888319 0
M  V30 5516 H 512.6 2.00474 2.392 0
M  V30 5517 N 512.901 -0.976442 1.23707 0
M  V30 5518 C 514.147 -1.72081 1.07312 0
M  V30 5519 C 514.48 -1.90275 -0.388476 0
M  V30 5520 O 513.755 -1.4579 -1.28746 0
M  V30 5521 C 514.038 -3.11675 1.80363 0
M  V30 5522 C 513.891 -3.01027 3.3422 0
M  V30 5523 C 515.21 -4.1117 1.5693 0
M  V30 5524 H 512.329 -0.624583 0.391236 0
M  V30 5525 H 514.971 -1.13649 1.52263 0
M  V30 5526 H 513.121 -3.61559 1.42153 0
M  V30 5527 H 514.793 -2.58637 3.81975 0
M  V30 5528 H 513.036 -2.3744 3.63049 0
M  V30 5529 H 513.707 -3.9988 3.80525 0
M  V30 5530 H 516.183 -3.7011 1.90151 0
M  V30 5531 H 515.059 -5.06928 2.10513 0
M  V30 5532 H 515.32 -4.392 0.505548 0
M  V30 5533 N 514.379 -1.04941 -1.1758 0
M  V30 5534 C 515.625 -0.759112 -1.88057 0
M  V30 5535 C 515.958 0.711918 -1.8068 0
M  V30 5536 O 515.233 1.52035 -1.21308 0
M  V30 5537 C 515.516 -1.237 -3.38187 0
M  V30 5538 C 515.369 -2.77078 -3.54327 0
M  V30 5539 C 516.688 -0.834014 -4.32125 0
M  V30 5540 H 513.807 -0.277237 -0.682868 0
M  V30 5541 H 516.449 -1.30296 -1.38286 0
M  V30 5542 H 514.599 -0.774337 -3.80705 0
M  V30 5543 H 516.271 -3.31449 -3.20842 0
M  V30 5544 H 514.514 -3.16477 -2.96689 0
M  V30 5545 H 515.185 -3.05577 -4.59703 0
M  V30 5546 H 517.661 -1.23228 -3.97434 0
M  V30 5547 H 516.537 -1.19603 -5.35711 0
M  V30 5548 H 516.798 0.262195 -4.41322 0
M  V30 5549 N 515.857 1.33968 -0.830081 0
M  V30 5550 C 517.082 2.02813 -0.433796 0
M  V30 5551 C 517.507 1.62076 0.954614 0
M  V30 5552 O 516.865 0.808955 1.62252 0
M  V30 5553 C 516.913 3.56348 -0.552115 0
M  V30 5554 O 516.017 4.10202 0.425191 0
M  V30 5555 H 515.358 0.639817 -0.177567 0
M  V30 5556 H 517.888 1.7106 -1.12248 0
M  V30 5557 H 517.898 4.05722 -0.430513 0
M  V30 5558 H 516.573 3.85344 -1.56471 0
M  V30 5559 H 515.15 3.71979 0.261878 0
M  V30 5560 N 517.335 0.585699 1.46312 0
M  V30 5561 C 518.612 0.00542031 1.95599 0
M  V30 5562 C 518.992 -1.45619 1.52834 0
M  V30 5563 O 518.34 -2.14759 0.780446 0
M  V30 5564 C 518.55 0.180601 3.48532 0
M  V30 5565 C 519.898 0.049979 4.24571 0
M  V30 5566 O 520.922 0.109589 3.56031 0
M  V30 5567 O 519.781 -0.0832226 5.46437 0
M  V30 5568 H 516.875 -0.0481281 0.825598 0
M  V30 5569 H 519.421 0.654227 1.56582 0
M  V30 5570 H 518.193 1.19657 3.72556 0
M  V30 5571 H 517.816 -0.504498 3.94386 0
M  V30 5572 N 518.813 -1.54241 0.323641 0
M  V30 5573 C 519.776 -2.22997 -0.529602 0
M  V30 5574 C 520.776 -1.22345 -1.04347 0
M  V30 5575 O 521.966 -1.46924 -0.935889 0
M  V30 5576 C 519.098 -2.93409 -1.73562 0
M  V30 5577 H 520.291 -2.99815 0.0714518 0
M  V30 5578 H 517.844 -1.56121 0.0747258 0
M  V30 5579 H 518.579 -2.20729 -2.37591 0
M  V30 5580 H 518.364 -3.67217 -1.37456 0
M  V30 5581 H 519.854 -3.45794 -2.34128 0
M  V30 5582 N 520.291 -0.0518155 -1.57515 0
M  V30 5583 C 521.54 0.621286 -1.91893 0
M  V30 5584 C 521.853 1.71966 -0.932052 0
M  V30 5585 O 523.059 2.45096 -1.16791 0
M  V30 5586 C 521.515 1.15641 -3.40816 0
M  V30 5587 C 521.123 0.0901146 -4.47909 0
M  V30 5588 C 522.867 1.80472 -3.84227 0
M  V30 5589 C 520.774 0.638154 -5.87947 0
M  V30 5590 H 519.704 0.235835 -0.716169 0
M  V30 5591 H 522.355 -0.120809 -1.83102 0
M  V30 5592 H 520.737 1.95084 -3.44613 0
M  V30 5593 H 521.911 -0.683525 -4.55702 0
M  V30 5594 H 520.226 -0.460774 -4.13843 0
M  V30 5595 H 522.823 2.22471 -4.86221 0
M  V30 5596 H 523.166 2.65669 -3.20508 0
M  V30 5597 H 523.699 1.07683 -3.82948 0
M  V30 5598 H 520.438 -0.176202 -6.55263 0
M  V30 5599 H 519.958 1.37976 -5.83714 0
M  V30 5600 H 521.637 1.12085 -6.37217 0
M  V30 5601 N 521.769 1.56035 0.221574 0
M  V30 5602 C 523.016 1.79047 0.94597 0
M  V30 5603 C 523.344 0.62057 1.84334 0
M  V30 5604 O 522.599 -0.395053 1.91671 0
M  V30 5605 C 522.898 3.07813 1.8162 0
M  V30 5606 C 522.564 4.3797 1.07206 0
M  V30 5607 C 521.226 4.73334 0.866508 0
M  V30 5608 C 523.578 5.18326 0.546565 0
M  V30 5609 C 520.906 5.8657 0.123549 0
M  V30 5610 C 523.258 6.32335 -0.18305 0
M  V30 5611 C 521.922 6.66301 -0.399861 0
M  V30 5612 H 521.192 0.655178 0.346155 0
M  V30 5613 H 523.839 1.90299 0.214146 0
M  V30 5614 H 522.144 2.91682 2.61589 0
M  V30 5615 H 523.841 3.2282 2.37884 0
M  V30 5616 H 520.431 4.10202 1.24226 0
M  V30 5617 H 524.615 4.9144 0.692847 0
M  V30 5618 H 519.871 6.11376 -0.0546591 0
M  V30 5619 H 524.045 6.9383 -0.59775 0
M  V30 5620 H 521.672 7.53889 -0.977489 0
M  V30 5621 N 523.247 -0.488276 1.49845 0
M  V30 5622 C 524.524 -1.24959 1.50481 0
M  V30 5623 C 524.904 -2.09735 0.239698 0
M  V30 5624 O 524.252 -2.14865 -0.777524 0
M  V30 5625 C 524.462 -2.0954 2.79095 0
M  V30 5626 C 525.81 -2.68305 3.29086 0
M  V30 5627 O 526.834 -2.19797 2.80299 0
M  V30 5628 O 525.693 -3.56643 4.14087 0
M  V30 5629 H 522.787 -0.566133 0.602845 0
M  V30 5630 H 525.333 -0.501504 1.6212 0
M  V30 5631 H 524.105 -1.46958 3.62656 0
M  V30 5632 H 523.728 -2.91517 2.70377 0
M  V30 5633 N 524.725 -1.39134 -0.740242 0
M  V30 5634 C 525.655 -1.40165 -1.86751 0
M  V30 5635 C 526.636 -0.265708 -1.68012 0
M  V30 5636 O 527.821 -0.47076 -1.88408 0
M  V30 5637 C 524.951 -1.2392 -3.2444 0
M  V30 5638 C 523.905 -2.34858 -3.57807 0
M  V30 5639 C 523.231 -2.03707 -4.94376 0
M  V30 5640 C 524.531 -3.77159 -3.61315 0
M  V30 5641 H 526.225 -2.345 -1.86145 0
M  V30 5642 H 523.771 -1.12875 -0.89416 0
M  V30 5643 H 525.724 -1.23263 -4.02969 0
M  V30 5644 H 524.448 -0.26051 -3.25559 0
M  V30 5645 H 523.107 -2.34723 -2.81604 0
M  V30 5646 H 522.755 -1.04289 -4.9207 0
M  V30 5647 H 522.455 -2.78016 -5.17669 0
M  V30 5648 H 523.979 -2.04691 -5.75268 0
M  V30 5649 H 525.393 -3.79252 -4.29931 0
M  V30 5650 H 523.79 -4.50784 -3.96124 0
M  V30 5651 H 524.86 -4.08513 -2.61238 0
M  V30 5652 N 526.204 0.969867 -1.24223 0
M  V30 5653 C 527.452 1.70918 -1.0785 0
M  V30 5654 C 527.773 1.91186 0.383763 0
M  V30 5655 O 527.043 1.48806 1.27411 0
M  V30 5656 H 525.623 0.633334 -0.396103 0
M  V30 5657 H 528.285 1.16689 -1.56108 0
M  V30 5658 H 527.381 2.69455 -1.57482 0
M  V30 5659 N 527.682 1.05563 1.17022 0
M  V30 5660 C 528.615 0.604197 2.20056 0
M  V30 5661 C 529.593 -0.369169 1.58354 0
M  V30 5662 O 530.777 -0.279898 1.8641 0
M  V30 5663 C 527.904 -0.115265 3.38504 0
M  V30 5664 C 526.95 0.813698 4.18666 0
M  V30 5665 S 527.783 2.30492 4.83357 0
M  V30 5666 C 528.939 1.59674 6.0519 0
M  V30 5667 H 529.172 1.47713 2.58008 0
M  V30 5668 H 526.705 0.867932 1.27696 0
M  V30 5669 H 528.663 -0.524162 4.0714 0
M  V30 5670 H 527.324 -0.964284 2.98932 0
M  V30 5671 H 526.517 0.256736 5.03346 0
M  V30 5672 H 526.119 1.16213 3.55486 0
M  V30 5673 H 528.411 0.898164 6.7152 0
M  V30 5674 H 529.354 2.42115 6.65422 0
M  V30 5675 H 529.762 1.08252 5.54023 0
M  V30 5676 N 529.16 -1.33526 0.837174 0
M  V30 5677 C 530.385 -2.0258 0.444545 0
M  V30 5678 C 530.81 -1.6258 -0.946006 0
M  V30 5679 O 530.168 -0.817548 -1.6182 0
M  V30 5680 C 530.216 -3.5605 0.571006 0
M  V30 5681 O 529.32 -4.10422 -0.403431 0
M  V30 5682 H 528.661 -0.638866 0.180958 0
M  V30 5683 H 531.191 -1.70462 1.13154 0
M  V30 5684 H 531.201 -4.05488 0.452024 0
M  V30 5685 H 529.876 -3.84509 1.58512 0
M  V30 5686 H 528.453 -3.72113 -0.242147 0
M  V30 5687 N 530.638 -0.59345 -1.46 0
M  V30 5688 C 531.568 0.121192 -2.33185 0
M  V30 5689 C 532.549 0.872977 -1.4599 0
M  V30 5690 O 533.734 0.846321 -1.74789 0
M  V30 5691 C 530.864 1.12844 -3.28456 0
M  V30 5692 C 529.818 0.4908 -4.25177 0
M  V30 5693 C 529.144 1.60529 -5.10034 0
M  V30 5694 C 530.444 -0.578949 -5.19081 0
M  V30 5695 H 532.138 -0.606767 -2.93187 0
M  V30 5696 H 529.684 -0.293242 -1.40983 0
M  V30 5697 H 531.637 1.63684 -3.88311 0
M  V30 5698 H 530.361 1.88681 -2.66584 0
M  V30 5699 H 529.02 0.00339328 -3.666 0
M  V30 5700 H 528.668 2.35359 -4.44539 0
M  V30 5701 H 528.368 1.18422 -5.75543 0
M  V30 5702 H 529.892 2.11623 -5.72755 0
M  V30 5703 H 531.306 -0.155199 -5.7309 0
M  V30 5704 H 529.703 -0.920947 -5.92991 0
M  V30 5705 H 530.773 -1.46109 -4.62364 0
M  V30 5706 N 532.116 1.54067 -0.331816 0
M  V30 5707 C 533.341 2.05599 0.272705 0
M  V30 5708 C 533.766 1.2059 1.44359 0
M  V30 5709 O 533.124 0.216907 1.79998 0
M  V30 5710 C 533.172 3.54188 0.677021 0
M  V30 5711 O 532.276 3.72082 1.77844 0
M  V30 5712 H 531.617 0.662286 0.0476801 0
M  V30 5713 H 534.147 1.98826 -0.482624 0
M  V30 5714 H 534.157 3.96608 0.957415 0
M  V30 5715 H 532.832 4.15513 -0.179325 0
M  V30 5716 H 531.409 3.41566 1.49622 0
M  V30 5717 N 533.594 0.0601682 1.57485 0
M  V30 5718 C 534.819 -0.624416 1.97777 0
M  V30 5719 C 535.244 -1.63051 0.937867 0
M  V30 5720 O 534.602 -1.81036 -0.0978845 0
M  V30 5721 C 534.65 -1.27979 3.37126 0
M  V30 5722 O 533.754 -2.39556 3.35688 0
M  V30 5723 H 533.095 -0.161581 0.64404 0
M  V30 5724 H 535.625 0.131237 2.04179 0
M  V30 5725 H 535.635 -1.62937 3.74053 0
M  V30 5726 H 534.31 -0.542501 4.12347 0
M  V30 5727 H 532.887 -2.06478 3.10517 0
M  V30 5728 N 535.072 -1.5615 -0.213296 0
M  V30 5729 C 536.319 -1.79546 -0.936462 0
M  V30 5730 C 536.647 -0.630337 -1.84003 0
M  V30 5731 O 535.902 0.384883 -1.91878 0
M  V30 5732 C 536.201 -3.08772 -1.79985 0
M  V30 5733 C 535.867 -4.38532 -1.04882 0
M  V30 5734 C 534.529 -4.73787 -0.841393 0
M  V30 5735 C 536.881 -5.18609 -0.51907 0
M  V30 5736 C 534.209 -5.86627 -0.0924403 0
M  V30 5737 C 536.561 -6.32229 0.216581 0
M  V30 5738 C 535.225 -6.6608 0.435191 0
M  V30 5739 H 534.495 -0.657004 -0.342676 0
M  V30 5740 H 537.142 -1.9041 -0.204051 0
M  V30 5741 H 535.447 -2.93065 -2.60038 0
M  V30 5742 H 537.144 -3.24077 -2.36168 0
M  V30 5743 H 533.734 -4.10855 -1.22048 0
M  V30 5744 H 537.918 -4.91801 -0.666775 0
M  V30 5745 H 533.174 -6.11338 0.087081 0
M  V30 5746 H 537.348 -6.93503 0.634538 0
M  V30 5747 H 534.975 -7.5336 1.01746 0
M  V30 5748 N 536.55 0.480323 -1.50102 0
M  V30 5749 C 537.498 1.60024 -1.68805 0
M  V30 5750 C 538.492 1.60089 -0.553888 0
M  V30 5751 O 539.698 1.64349 -0.734127 0
M  V30 5752 H 536.073 0.530841 -0.532646 0
M  V30 5753 H 538.044 1.41408 -2.62767 0
M  V30 5754 C 536.793 2.98029 -1.79092 0
M  V30 5755 H 536.116 2.98694 -2.65748 0
M  V30 5756 H 537.556 3.75871 -1.96206 0
M  V30 5757 C 536.015 3.32538 -0.540388 0
M  V30 5758 O 536.545 4.00386 0.324637 0
M  V30 5759 N 534.751 2.87873 -0.397154 0
M  V30 5760 H 534.298 2.32834 -1.1021 0
M  V30 5761 H 534.256 3.11328 0.438425 0
M  V30 5762 N 538.028 1.39524 0.732853 0
M  V30 5763 C 538.958 1.41153 1.86005 0
M  V30 5764 C 539.939 0.274614 1.67869 0
M  V30 5765 O 541.124 0.480745 1.88155 0
M  V30 5766 C 538.254 1.25638 3.23778 0
M  V30 5767 C 537.208 2.36752 3.56556 0
M  V30 5768 C 536.534 2.06326 4.93289 0
M  V30 5769 C 537.834 3.79069 3.5931 0
M  V30 5770 H 539.528 2.35484 1.84899 0
M  V30 5771 H 537.074 1.13348 0.888162 0
M  V30 5772 H 539.027 1.25398 4.0231 0
M  V30 5773 H 537.751 0.277772 3.25417 0
M  V30 5774 H 536.41 2.36213 2.80355 0
M  V30 5775 H 536.058 1.06897 4.9151 0
M  V30 5776 H 535.758 2.80757 5.16187 0
M  V30 5777 H 537.282 2.07739 5.74175 0
M  V30 5778 H 538.696 3.81526 4.27914 0
M  V30 5779 H 537.093 4.52878 3.93728 0
M  V30 5780 H 538.163 4.09893 2.59068 0
M  V30 5781 N 539.506 -0.963266 1.24736 0
M  V30 5782 C 540.783 -1.68248 0.9976 0
M  V30 5783 C 541.163 -2.05599 -0.478776 0
M  V30 5784 O 540.511 -1.7626 -1.45412 0
M  V30 5785 C 540.721 -2.91118 1.92487 0
M  V30 5786 C 542.069 -3.63261 2.19833 0
M  V30 5787 O 543.093 -3.01184 1.90176 0
M  V30 5788 O 541.952 -4.75019 2.7022 0
M  V30 5789 H 539.046 -0.735744 0.377637 0
M  V30 5790 H 541.592 -1.01696 1.35853 0
M  V30 5791 H 540.364 -2.60242 2.92215 0
M  V30 5792 H 539.987 -3.65402 1.56738 0
M  V30 5793 N 540.985 -1.06182 -1.16461 0
M  V30 5794 C 542.262 -0.691364 -1.82974 0
M  V30 5795 C 542.642 0.827377 -1.9421 0
M  V30 5796 O 541.99 1.73723 -1.48434 0
M  V30 5797 C 542.2 -1.39199 -3.20038 0
M  V30 5798 C 543.548 -1.53647 -3.95825 0
M  V30 5799 O 544.572 -1.35181 -3.29552 0
M  V30 5800 O 543.431 -1.83932 -5.14618 0
M  V30 5801 H 540.525 -0.244605 -0.789998 0
M  V30 5802 H 543.071 -1.16203 -1.23673 0
M  V30 5803 H 541.843 -2.42766 -3.06888 0
M  V30 5804 H 541.466 -0.911335 -3.87015 0
M  V30 5805 N 542.463 1.3308 -0.844243 0
M  V30 5806 C 543.691 2.01808 -0.456203 0
M  V30 5807 C 544.106 1.63498 0.944131 0
M  V30 5808 O 543.463 0.85102 1.61443 0
M  V30 5809 C 543.514 3.56922 -0.573513 0
M  V30 5810 O 543.235 3.93851 -1.91868 0
M  V30 5811 C 544.736 4.42922 -0.183125 0
M  V30 5812 H 541.956 0.646273 -0.180477 0
M  V30 5813 H 544.5 1.69891 -1.1383 0
M  V30 5814 H 542.655 3.87352 0.0607367 0
M  V30 5815 H 543.069 4.88564 -1.90802 0
M  V30 5816 H 544.543 5.51093 -0.316241 0
M  V30 5817 H 545.02 4.30386 0.875477 0
M  V30 5818 H 545.626 4.1786 -0.792027 0
M  V30 5819 N 543.941 0.601185 1.45683 0
M  V30 5820 C 544.851 -0.123395 2.34275 0
M  V30 5821 C 545.867 -0.86702 1.5086 0
M  V30 5822 O 547.043 -0.826049 1.8368 0
M  V30 5823 C 544.108 -1.11237 3.2837 0
M  V30 5824 C 543.169 -0.371405 4.2769 0
M  V30 5825 C 542.402 -1.31327 5.1729 0
M  V30 5826 O 542.625 -2.55078 5.10188 0
M  V30 5827 O 541.559 -0.813811 5.96373 0
M  V30 5828 H 545.385 0.604483 2.97623 0
M  V30 5829 H 542.97 0.361477 1.44961 0
M  V30 5830 H 544.852 -1.68214 3.8637 0
M  V30 5831 H 543.527 -1.82139 2.67595 0
M  V30 5832 H 542.434 0.24067 3.73325 0
M  V30 5833 H 543.767 0.296998 4.91303 0
M  V30 5834 N 545.419 -1.53889 0.339982 0
M  V30 5835 C 546.665 -2.01152 -0.258003 0
M  V30 5836 C 546.998 -1.22749 -1.50487 0
M  V30 5837 O 546.273 -0.314156 -1.91946 0
M  V30 5838 C 546.556 -3.55468 -0.575717 0
M  V30 5839 C 546.409 -4.44584 0.682996 0
M  V30 5840 C 547.728 -4.1768 -1.38677 0
M  V30 5841 H 544.847 -0.731198 -0.0922992 0
M  V30 5842 H 547.489 -1.84352 0.459814 0
M  V30 5843 H 545.639 -3.69914 -1.18725 0
M  V30 5844 H 547.311 -4.41981 1.32102 0
M  V30 5845 H 545.554 -4.13592 1.3086 0
M  V30 5846 H 546.225 -5.5043 0.416001 0
M  V30 5847 H 548.701 -4.0691 -0.869705 0
M  V30 5848 H 547.577 -5.25734 -1.57783 0
M  V30 5849 H 547.838 -3.72069 -2.38782 0
M  V30 5850 N 546.897 -0.0685191 -1.57451 0
M  V30 5851 C 547.86 0.885173 -2.11417 0
M  V30 5852 C 548.86 1.22853 -1.03748 0
M  V30 5853 O 550.05 1.16235 -1.2975 0
M  V30 5854 C 547.182 2.18964 -2.61281 0
M  V30 5855 H 548.375 0.417034 -2.96986 0
M  V30 5856 H 545.928 0.18014 -1.55258 0
M  V30 5857 H 546.663 2.70321 -1.79156 0
M  V30 5858 H 546.448 1.9534 -3.39977 0
M  V30 5859 H 547.938 2.87242 -3.0312 0
M  V30 5860 N 548.375 1.56261 0.205012 0
M  V30 5861 C 549.305 1.96779 1.257 0
M  V30 5862 C 550.286 0.838309 1.48008 0
M  V30 5863 O 551.471 1.10189 1.59913 0
M  V30 5864 C 548.601 2.29876 2.60335 0
M  V30 5865 C 547.555 3.45469 2.52656 0
M  V30 5866 C 546.881 3.64215 3.91473 0
M  V30 5867 C 548.181 4.79954 2.06014 0
M  V30 5868 H 549.875 2.84904 0.920338 0
M  V30 5869 H 547.421 1.37072 0.441277 0
M  V30 5870 H 549.374 2.56814 3.34102 0
M  V30 5871 H 548.098 1.38622 2.95722 0
M  V30 5872 H 546.757 3.18605 1.81345 0
M  V30 5873 H 546.405 2.70309 4.24196 0
M  V30 5874 H 546.105 4.41973 3.87213 0
M  V30 5875 H 547.629 3.93519 4.66878 0
M  V30 5876 H 549.043 5.05989 2.69533 0
M  V30 5877 H 547.44 5.61111 2.12777 0
M  V30 5878 H 548.51 4.74201 1.01297 0
M  V30 5879 N 549.853 -0.472356 1.50355 0
M  V30 5880 C 550.783 -1.57859 1.72055 0
M  V30 5881 C 551.764 -1.60283 0.569505 0
M  V30 5882 O 552.949 -1.7657 0.808503 0
M  V30 5883 C 550.079 -2.96191 1.81351 0
M  V30 5884 C 549.033 -3.08633 2.96529 0
M  V30 5885 C 548.359 -4.486 2.90968 0
M  V30 5886 C 549.659 -2.85969 4.37057 0
M  V30 5887 H 551.353 -1.39953 2.64676 0
M  V30 5888 H 548.899 -0.671846 1.27367 0
M  V30 5889 H 550.852 -3.73507 1.95117 0
M  V30 5890 H 549.576 -3.15251 0.853502 0
M  V30 5891 H 548.235 -2.33749 2.82413 0
M  V30 5892 H 547.883 -4.64577 1.92815 0
M  V30 5893 H 547.583 -4.57861 3.68289 0
M  V30 5894 H 549.107 -5.27938 3.0678 0
M  V30 5895 H 550.521 -3.53036 4.51706 0
M  V30 5896 H 548.918 -3.06677 5.15819 0
M  V30 5897 H 549.988 -1.81838 4.49514 0
M  V30 5898 N 551.331 -1.39911 -0.725443 0
M  V30 5899 C 552.263 -1.35301 -1.85003 0
M  V30 5900 C 553.276 -0.260102 -1.60709 0
M  V30 5901 O 554.465 -0.519749 -1.70766 0
M  V30 5902 C 551.565 -1.08039 -3.21218 0
M  V30 5903 C 550.738 -2.28793 -3.7279 0
M  V30 5904 C 549.797 -1.97841 -4.87591 0
M  V30 5905 O 548.823 -2.70616 -5.00755 0
M  V30 5906 N 550.025 -0.950367 -5.72668 0
M  V30 5907 H 552.79 -2.32218 -1.89459 0
M  V30 5908 H 550.351 -1.34137 -0.90658 0
M  V30 5909 H 552.343 -0.853354 -3.95601 0
M  V30 5910 H 550.913 -0.198229 -3.11971 0
M  V30 5911 H 550.133 -2.67388 -2.8965 0
M  V30 5912 H 551.421 -3.09317 -4.03981 0
M  V30 5913 H 550.819 -0.347436 -5.64632 0
M  V30 5914 H 549.376 -0.783232 -6.47077 0
M  V30 5915 N 552.809 0.956637 -1.25245 0
M  V30 5916 C 553.772 2.03457 -1.05537 0
M  V30 5917 C 554.772 1.60798 -0.00886317 0
M  V30 5918 O 555.962 1.72384 -0.250865 0
M  V30 5919 C 553.094 3.35543 -0.601965 0
M  V30 5920 H 554.287 2.22372 -2.01223 0
M  V30 5921 H 551.84 1.13344 -1.07623 0
M  V30 5922 H 552.575 3.22323 0.357584 0
M  V30 5923 H 552.36 3.67854 -1.35743 0
M  V30 5924 H 553.85 4.14769 -0.485454 0
M  V30 5925 N 554.287 1.06798 1.15896 0
M  V30 5926 C 555.533 0.788934 1.86825 0
M  V30 5927 C 555.866 -0.683084 1.8179 0
M  V30 5928 O 555.141 -1.50086 1.23711 0
M  V30 5929 C 555.424 1.29065 3.36176 0
M  V30 5930 C 555.277 2.8268 3.49874 0
M  V30 5931 C 556.596 0.902655 4.30744 0
M  V30 5932 H 553.715 0.288066 0.678371 0
M  V30 5933 H 556.357 1.32479 1.36195 0
M  V30 5934 H 554.507 0.834806 3.79425 0
M  V30 5935 H 556.179 3.36511 3.15528 0
M  V30 5936 H 554.422 3.21157 2.91617 0
M  V30 5937 H 555.093 3.12852 4.54783 0
M  V30 5938 H 557.569 1.29535 3.95424 0
M  V30 5939 H 556.445 1.28111 5.3374 0
M  V30 5940 H 556.706 -0.191951 4.41683 0
M  V30 5941 N 555.766 -1.3263 0.851289 0
M  V30 5942 C 556.696 -2.31449 0.308771 0
M  V30 5943 C 557.677 -1.59531 -0.590255 0
M  V30 5944 O 558.862 -1.87351 -0.511205 0
M  V30 5945 C 555.992 -3.43586 -0.506548 0
M  V30 5946 C 554.946 -4.26963 0.297753 0
M  V30 5947 C 554.272 -5.30831 -0.642094 0
M  V30 5948 C 555.572 -4.99643 1.52166 0
M  V30 5949 H 557.266 -2.77074 1.13447 0
M  V30 5950 H 554.812 -1.33207 0.546971 0
M  V30 5951 H 556.765 -4.11754 -0.896474 0
M  V30 5952 H 555.489 -2.96681 -1.36558 0
M  V30 5953 H 554.148 -3.60437 0.669391 0
M  V30 5954 H 553.796 -4.8018 -1.49788 0
M  V30 5955 H 553.496 -5.87501 -0.107968 0
M  V30 5956 H 555.02 -6.01862 -1.02927 0
M  V30 5957 H 556.434 -5.6051 1.20421 0
M  V30 5958 H 554.831 -5.66022 1.99347 0
M  V30 5959 H 555.901 -4.27701 2.28474 0
M  V30 5960 N 557.244 -0.608902 -1.45362 0
M  V30 5961 C 558.174 0.0964526 -2.33301 0
M  V30 5962 C 559.155 0.857444 -1.46908 0
M  V30 5963 O 560.34 0.827735 -1.75676 0
M  V30 5964 C 557.47 1.09354 -3.29635 0
M  V30 5965 C 556.424 0.445676 -4.25673 0
M  V30 5966 C 555.75 1.5511 -5.11708 0
M  V30 5967 C 557.05 -0.633972 -5.18438 0
M  V30 5968 H 558.744 -0.637829 -2.92527 0
M  V30 5969 H 556.29 -0.308178 -1.40664 0
M  V30 5970 H 558.243 1.59556 -3.90025 0
M  V30 5971 H 556.967 1.85843 -2.6857 0
M  V30 5972 H 555.626 -0.0354897 -3.66583 0
M  V30 5973 H 555.274 2.30631 -4.4701 0
M  V30 5974 H 554.974 1.12311 -5.76767 0
M  V30 5975 H 556.498 2.05537 -5.74967 0
M  V30 5976 H 557.912 -0.215974 -5.72893 0
M  V30 5977 H 556.309 -0.983789 -5.91981 0
M  V30 5978 H 557.379 -1.51005 -4.60788 0
M  V30 5979 N 558.722 1.53707 -0.348139 0
M  V30 5980 C 559.655 2.21481 0.549667 0
M  V30 5981 C 560.633 1.20046 1.09671 0
M  V30 5982 O 561.817 1.48883 1.15612 0
M  V30 5983 C 558.944 2.89585 1.75664 0
M  V30 5984 C 557.99 4.04948 1.33864 0
M  V30 5985 S 558.823 5.34325 0.354577 0
M  V30 5986 C 559.979 6.05934 1.56828 0
M  V30 5987 H 560.212 2.97289 -0.0259755 0
M  V30 5988 H 557.745 1.53833 -0.132216 0
M  V30 5989 H 559.703 3.29441 2.44906 0
M  V30 5990 H 558.364 2.13535 2.30351 0
M  V30 5991 H 557.557 4.51552 2.23868 0
M  V30 5992 H 557.159 3.66893 0.725651 0
M  V30 5993 H 559.451 6.29606 2.50205 0
M  V30 5994 H 560.394 6.98799 1.14395 0
M  V30 5995 H 560.802 5.36151 1.76642 0
M  V30 5996 N 560.2 0.0768682 1.57412 0
M  V30 5997 C 561.425 -0.603404 1.98428 0
M  V30 5998 C 561.85 -1.62047 0.955108 0
M  V30 5999 O 561.208 -1.81129 -0.0786778 0
M  V30 6000 C 561.256 -1.24396 3.38464 0
M  V30 6001 O 560.36 -2.35982 3.3821 0
M  V30 6002 H 559.701 -0.154741 0.645718 0
M  V30 6003 H 562.231 0.152885 2.04028 0
M  V30 6004 H 562.241 -1.5896 3.7576 0
M  V30 6005 H 560.916 -0.498735 4.12899 0
M  V30 6006 H 559.493 -2.03173 3.1269 0
M  V30 6007 N 561.678 -1.56367 -0.196722 0
M  V30 6008 C 562.903 -1.84991 -0.937714 0
M  V30 6009 C 563.328 -0.660244 -1.76132 0
M  V30 6010 O 562.686 0.390967 -1.77034 0
M  V30 6011 C 562.734 -3.11828 -1.81096 0
M  V30 6012 O 561.838 -2.92266 -2.90955 0
M  V30 6013 H 561.179 -0.609193 -0.264159 0
M  V30 6014 H 563.709 -2.03595 -0.202529 0
M  V30 6015 H 563.719 -3.42579 -2.21594 0
M  V30 6016 H 562.394 -3.98037 -1.2058 0
M  V30 6017 H 560.971 -2.72809 -2.54224 0
M  V30 6018 N 563.156 0.464375 -1.50603 0
M  V30 6019 C 564.433 1.22549 -1.5245 0
M  V30 6020 C 564.813 2.09327 -0.273035 0
M  V30 6021 O 564.161 2.16074 0.743242 0
M  V30 6022 C 564.371 2.05074 -2.82393 0
M  V30 6023 C 565.719 2.63036 -3.33313 0
M  V30 6024 O 566.743 2.1531 -2.8376 0
M  V30 6025 O 565.602 3.5001 -4.19709 0
M  V30 6026 H 562.696 0.556471 -0.611775 0
M  V30 6027 H 565.242 0.475648 -1.62898 0
M  V30 6028 H 564.014 1.41169 -3.64948 0
M  V30 6029 H 563.637 2.87179 -2.7498 0
M  V30 6030 N 564.634 1.40294 0.718013 0
M  V30 6031 C 566.05 1.2227 1.02577 0
M  V30 6032 C 566.25 0.0961976 2.0127 0
M  V30 6033 O 565.306 -0.546695 2.46511 0
M  V30 6034 C 566.619 2.56348 1.57182 0
M  V30 6035 C 568.167 2.6334 1.69178 0
M  V30 6036 C 568.642 3.9768 2.27188 0
M  V30 6037 N 570.133 3.99409 2.34578 0
M  V30 6038 C 570.868 5.00141 2.8044 0
M  V30 6039 N 570.364 6.11268 3.26073 0
M  V30 6040 N 572.157 4.87511 2.79802 0
M  V30 6041 H 564.308 2.12304 0.0637899 0
M  V30 6042 H 566.571 0.943632 0.0909036 0
M  V30 6043 H 566.277 3.3942 0.921262 0
M  V30 6044 H 566.151 2.77266 2.55741 0
M  V30 6045 H 568.538 1.80641 2.33351 0
M  V30 6046 H 568.619 2.46255 0.692247 0
M  V30 6047 H 568.263 4.80817 1.63638 0
M  V30 6048 H 568.193 4.12093 3.27852 0
M  V30 6049 H 570.684 3.19162 2.02346 0
M  V30 6050 H 570.997 6.84023 3.59628 0
M  V30 6051 H 569.342 6.14837 3.24038 0
M  V30 6052 H 572.533 3.9979 2.43487 0
M  V30 6053 H 572.706 5.66158 3.15228 0
M  V30 6054 N 566.112 -0.949982 1.2575 0
M  V30 6055 C 567.523 -1.50989 1.09815 0
M  V30 6056 C 567.874 -1.93497 -0.324556 0
M  V30 6057 O 566.999 -1.79068 -1.21506 0
M  V30 6058 C 567.594 -2.74394 1.98729 0
M  V30 6059 C 566.153 -3.26682 1.86965 0
M  V30 6060 C 565.3 -1.99498 1.92603 0
M  V30 6061 H 568.251 -0.766387 1.38968 0
M  V30 6062 H 568.272 -3.48383 1.53001 0
M  V30 6063 H 567.784 -2.43425 3.02268 0
M  V30 6064 H 565.885 -3.62461 0.863279 0
M  V30 6065 H 565.998 -3.94383 2.72027 0
M  V30 6066 H 564.362 -2.15005 1.36546 0
M  V30 6067 H 565.145 -1.70871 2.97755 0
M  V30 6068 N 567.59 -1.07411 -1.15328 0
M  V30 6069 C 568.838 -0.796073 -1.85761 0
M  V30 6070 C 569.159 0.679864 -1.82764 0
M  V30 6071 O 568.429 1.49242 -1.269 0
M  V30 6072 H 567.009 -0.291495 -0.687779 0
M  V30 6073 H 569.671 -1.35799 -1.39802 0
M  V30 6074 H 568.767 -1.13114 -2.90881 0
M  V30 6075 N 569.068 1.32177 -0.85831 0
M  V30 6076 C 569.998 2.31282 -0.321041 0
M  V30 6077 C 570.979 1.59841 0.581786 0
M  V30 6078 O 572.164 1.87619 0.501262 0
M  V30 6079 C 569.294 3.4385 0.48832 0
M  V30 6080 C 568.248 4.26799 -0.320391 0
M  V30 6081 C 567.574 5.31164 0.613934 0
M  V30 6082 C 568.874 4.98829 -1.54813 0
M  V30 6083 H 570.568 2.76469 -1.14915 0
M  V30 6084 H 568.114 1.32916 -0.554028 0
M  V30 6085 H 570.067 4.12224 0.874626 0
M  V30 6086 H 568.791 2.97401 1.34983 0
M  V30 6087 H 567.45 3.60077 -0.688497 0
M  V30 6088 H 567.098 4.80967 1.47239 0
M  V30 6089 H 566.798 5.8755 0.0768097 0
M  V30 6090 H 568.322 6.024 0.997336 0
M  V30 6091 H 569.736 5.59864 -1.23392 0
M  V30 6092 H 568.133 5.64957 -2.02346 0
M  V30 6093 H 569.203 4.26483 -2.30739 0
M  V30 6094 N 570.547 0.616602 1.45037 0
M  V30 6095 C 571.51 -0.0871112 2.29034 0
M  V30 6096 C 572.51 -0.786414 1.40258 0
M  V30 6097 O 573.7 -0.633207 1.62284 0
M  V30 6098 C 570.832 -1.13369 3.21497 0
M  V30 6099 H 572.025 0.651497 2.92738 0
M  V30 6100 H 569.578 0.376058 1.51709 0
M  V30 6101 H 570.313 -1.90277 2.62612 0
M  V30 6102 H 570.098 -0.636358 3.86902 0
M  V30 6103 H 571.588 -1.62627 3.84633 0
M  V30 6104 N 572.025 -1.5352 0.356285 0
M  V30 6105 C 573.265 -2.03027 -0.23649 0
M  V30 6106 C 573.629 -1.23813 -1.46746 0
M  V30 6107 O 574.83 -1.63281 -2.13525 0
M  V30 6108 C 573.101 -3.53442 -0.530415 0
M  V30 6109 S 574.66 -4.24836 -1.09819 0
M  V30 6110 H 571.478 -0.707591 -0.0695378 0
M  V30 6111 H 574.08 -1.89077 0.496999 0
M  V30 6112 H 572.784 -4.087 0.373114 0
M  V30 6113 H 572.315 -3.71536 -1.29323 0
M  V30 6114 H 574.33 -4.35228 -2.38309 0
M  V30 6115 N 573.503 -0.0852151 -1.57369 0
M  V30 6116 C 574.749 0.581666 -1.94279 0
M  V30 6117 C 575.082 1.68444 -0.966446 0
M  V30 6118 O 574.357 1.945 0.00215277 0
M  V30 6119 C 574.64 1.14609 -3.41375 0
M  V30 6120 C 574.493 0.0490414 -4.49773 0
M  V30 6121 C 575.812 2.04751 -3.8957 0
M  V30 6122 H 572.931 0.209972 -0.706456 0
M  V30 6123 H 575.573 -0.153915 -1.89376 0
M  V30 6124 H 573.723 1.77297 -3.45685 0
M  V30 6125 H 575.395 -0.584721 -4.57579 0
M  V30 6126 H 573.638 -0.618638 -4.29366 0
M  V30 6127 H 574.309 0.484601 -5.49869 0
M  V30 6128 H 576.785 1.51981 -3.87351 0
M  V30 6129 H 575.661 2.41173 -4.93079 0
M  V30 6130 H 575.922 2.96107 -3.28288 0
M  V30 6131 N 574.981 1.5647 0.188427 0
M  V30 6132 C 575.891 1.98285 1.2538 0
M  V30 6133 C 576.907 0.891535 1.49424 0
M  V30 6134 O 578.083 1.19782 1.61908 0
M  V30 6135 C 575.148 2.31965 2.57669 0
M  V30 6136 C 574.209 3.54838 2.41638 0
M  V30 6137 C 573.442 3.86901 3.67618 0
M  V30 6138 O 573.665 3.20163 4.72072 0
M  V30 6139 O 572.599 4.80309 3.62749 0
M  V30 6140 H 576.425 2.89145 0.928912 0
M  V30 6141 H 574.01 1.44112 0.393955 0
M  V30 6142 H 575.892 2.54673 3.35737 0
M  V30 6143 H 574.567 1.44271 2.89771 0
M  V30 6144 H 573.474 3.37369 1.61658 0
M  V30 6145 H 574.807 4.43019 2.14465 0
M  V30 6146 N 576.459 -0.456382 1.50847 0
M  V30 6147 C 577.875 -0.791345 1.386 0
M  V30 6148 C 578.075 -1.9633 0.453498 0
M  V30 6149 O 577.131 -2.52308 -0.0984353 0
M  V30 6150 C 578.444 -1.08959 2.80265 0
M  V30 6151 C 579.992 -1.19517 2.89283 0
M  V30 6152 C 580.467 -1.52647 4.31814 0
M  V30 6153 N 581.958 -1.59609 4.34832 0
M  V30 6154 C 582.693 -1.86777 5.42127 0
M  V30 6155 N 582.189 -2.11866 6.59609 0
M  V30 6156 N 583.982 -1.88402 5.29586 0
M  V30 6157 H 576.133 0.315746 2.1004 0
M  V30 6158 H 578.396 0.0787916 0.94472 0
M  V30 6159 H 578.102 -0.301355 3.50407 0
M  V30 6160 H 577.976 -2.02211 3.18419 0
M  V30 6161 H 580.363 -1.97406 2.19351 0
M  V30 6162 H 580.444 -0.242111 2.54652 0
M  V30 6163 H 580.088 -0.752922 5.02288 0
M  V30 6164 H 580.018 -2.49127 4.63943 0
M  V30 6165 H 582.509 -1.42201 3.50125 0
M  V30 6166 H 582.822 -2.31912 7.37182 0
M  V30 6167 H 581.167 -2.09228 6.62758 0
M  V30 6168 H 584.358 -1.68307 4.36795 0
M  V30 6169 H 584.531 -2.09238 6.13289 0
M  V30 6170 N 577.937 -1.40673 -0.710563 0
M  V30 6171 C 579.186 -1.38525 -1.46607 0
M  V30 6172 C 579.499 0.0077024 -1.95598 0
M  V30 6173 O 580.705 0.151792 -2.71075 0
M  V30 6174 C 579.161 -2.43489 -2.6503 0
M  V30 6175 C 578.769 -3.88619 -2.22888 0
M  V30 6176 C 580.513 -2.50456 -3.42742 0
M  V30 6177 C 578.42 -4.85168 -3.3818 0
M  V30 6178 H 577.35 -0.515092 -0.550632 0
M  V30 6179 H 580.001 -1.66431 -0.772846 0
M  V30 6180 H 578.383 -2.0869 -3.36548 0
M  V30 6181 H 579.557 -4.32588 -1.58758 0
M  V30 6182 H 577.872 -3.85174 -1.58208 0
M  V30 6183 H 580.469 -3.19776 -4.28541 0
M  V30 6184 H 580.812 -1.53665 -3.86902 0
M  V30 6185 H 581.345 -2.84271 -2.78271 0
M  V30 6186 H 578.084 -5.8331 -2.99047 0
M  V30 6187 H 577.604 -4.4586 -4.01209 0
M  V30 6188 H 579.283 -5.05225 -4.04174 0
M  V30 6189 N 579.415 0.9433 -1.26252 0
M  V30 6190 C 580.325 2.07532 -1.09397 0
M  V30 6191 C 581.341 1.73977 -0.0280449 0
M  V30 6192 O 582.517 2.00067 -0.231337 0
M  V30 6193 C 579.582 3.39002 -0.726523 0
M  V30 6194 C 578.643 3.86353 -1.87163 0
M  V30 6195 C 577.876 5.11549 -1.52162 0
M  V30 6196 O 578.099 5.68834 -0.422385 0
M  V30 6197 O 577.033 5.53889 -2.35565 0
M  V30 6198 H 580.859 2.24658 -2.04359 0
M  V30 6199 H 578.444 1.05988 -1.05295 0
M  V30 6200 H 580.326 4.18 -0.534236 0
M  V30 6201 H 579.001 3.2312 0.193721 0
M  V30 6202 H 577.908 3.0831 -2.11886 0
M  V30 6203 H 579.241 4.06752 -2.77152 0
M  V30 6204 N 580.893 1.08022 1.14757 0
M  V30 6205 C 581.84 0.706657 2.19716 0
M  V30 6206 C 582.81 -0.30525 1.63271 0
M  V30 6207 O 583.995 -0.19015 1.8985 0
M  V30 6208 C 581.135 0.117914 3.44898 0
M  V30 6209 C 580.248 1.18212 4.15512 0
M  V30 6210 C 579.383 0.557659 5.28265 0
M  V30 6211 C 578.422 1.60418 5.90705 0
M  V30 6212 N 577.559 1.0018 6.94916 0
M  V30 6213 H 582.399 1.60603 2.51019 0
M  V30 6214 H 579.936 0.802664 1.23271 0
M  V30 6215 H 581.894 -0.241112 4.16503 0
M  V30 6216 H 580.524 -0.744788 3.1409 0
M  V30 6217 H 579.576 1.65863 3.42335 0
M  V30 6218 H 580.888 1.97533 4.5802 0
M  V30 6219 H 580.042 0.146654 6.06523 0
M  V30 6220 H 578.781 -0.267249 4.86967 0
M  V30 6221 H 577.786 2.02489 5.11154 0
M  V30 6222 H 579.011 2.43149 6.34078 0
M  V30 6223 H 576.957 0.197917 6.55701 0
M  V30 6224 H 576.874 1.73216 7.35889 0
M  V30 6225 H 578.142 0.616523 7.77058 0
M  V30 6226 N 582.371 -1.3172 0.865308 0
M  V30 6227 C 583.601 -2.00765 0.487543 0
M  V30 6228 C 584.009 -1.65145 -0.92325 0
M  V30 6229 O 583.352 -0.874294 -1.61561 0
M  V30 6230 C 583.414 -3.55122 0.559369 0
M  V30 6231 C 583.078 -4.14202 1.93095 0
M  V30 6232 C 584.075 -4.3165 2.89784 0
M  V30 6233 C 581.76 -4.50036 2.23099 0
M  V30 6234 C 583.754 -4.84114 4.14623 0
M  V30 6235 C 581.441 -5.02203 3.48189 0
M  V30 6236 C 582.439 -5.19192 4.43767 0
M  V30 6237 O 582.127 -5.70241 5.6664 0
M  V30 6238 H 581.859 -0.649066 0.188915 0
M  V30 6239 H 584.413 -1.69032 1.16694 0
M  V30 6240 H 582.643 -3.86295 -0.176926 0
M  V30 6241 H 584.332 -4.05428 0.195694 0
M  V30 6242 H 585.098 -4.04288 2.6791 0
M  V30 6243 H 580.977 -4.36091 1.49485 0
M  V30 6244 H 584.521 -4.9729 4.89233 0
M  V30 6245 H 580.418 -5.28997 3.69908 0
M  V30 6246 H 581.186 -5.88617 5.68746 0
M  V30 6247 N 583.85 -0.624285 -1.44708 0
M  V30 6248 C 584.782 0.12305 -2.28869 0
M  V30 6249 C 585.795 0.81557 -1.40898 0
M  V30 6250 O 586.984 0.678162 -1.65116 0
M  V30 6251 C 584.084 1.19612 -3.1709 0
M  V30 6252 C 583.257 0.587452 -4.33437 0
M  V30 6253 C 582.316 1.55358 -5.02743 0
M  V30 6254 O 581.341 1.07338 -5.58988 0
M  V30 6255 N 582.543 2.88798 -5.03563 0
M  V30 6256 H 585.308 -0.599193 -2.93649 0
M  V30 6257 H 582.87 -0.464954 -1.5508 0
M  V30 6258 H 584.861 1.84261 -3.60319 0
M  V30 6259 H 583.432 1.82067 -2.54107 0
M  V30 6260 H 582.652 -0.237509 -3.93484 0
M  V30 6261 H 583.94 0.161326 -5.08544 0
M  V30 6262 H 583.338 3.30399 -4.59188 0
M  V30 6263 H 581.894 3.48826 -5.50603 0
M  V30 6264 N 585.328 1.53329 -0.364422 0
M  V30 6265 C 586.605 1.93557 0.281962 0
M  V30 6266 C 586.985 1.29786 1.6649 0
M  V30 6267 O 586.333 0.456512 2.23893 0
M  V30 6268 C 586.543 3.47405 0.333331 0
M  V30 6269 C 587.891 4.20699 0.574231 0
M  V30 6270 O 588.915 3.53779 0.414588 0
M  V30 6271 O 587.774 5.39287 0.885002 0
M  V30 6272 H 584.868 0.809573 0.168881 0
M  V30 6273 H 587.414 1.64494 -0.417121 0
M  V30 6274 H 586.186 3.86091 -0.636326 0
M  V30 6275 H 585.809 3.82697 1.07836 0
M  V30 6276 N 586.806 0.0935595 1.57322 0
M  V30 6277 C 588.031 -0.582324 1.99057 0
M  V30 6278 C 588.456 -1.61025 0.972242 0
M  V30 6279 O 587.814 -1.81202 -0.0594622 0
M  V30 6280 C 587.862 -1.20799 3.39765 0
M  V30 6281 O 586.966 -2.32382 3.40694 0
M  V30 6282 H 586.307 -0.147884 0.647323 0
M  V30 6283 H 588.837 0.174516 2.03854 0
M  V30 6284 H 588.847 -1.54966 3.77425 0
M  V30 6285 H 587.522 -0.454914 4.13405 0
M  V30 6286 H 586.099 -1.99845 3.14827 0
M  V30 6287 N 588.284 -1.56567 -0.180126 0
M  V30 6288 C 589.531 -1.81492 -0.898167 0
M  V30 6289 C 589.859 -0.669225 -1.82624 0
M  V30 6290 O 589.114 0.344096 -1.92651 0
M  V30 6291 C 589.413 -3.1252 -1.73395 0
M  V30 6292 C 589.079 -4.40658 -0.955567 0
M  V30 6293 C 587.741 -4.75465 -0.740707 0
M  V30 6294 C 590.093 -5.19593 -0.408948 0
M  V30 6295 C 587.421 -5.86691 0.0320128 0
M  V30 6296 C 589.773 -6.31627 0.350638 0
M  V30 6297 C 588.437 -6.65007 0.576378 0
M  V30 6298 H 587.707 -0.664125 -0.328662 0
M  V30 6299 H 590.354 -1.908 -0.163616 0
M  V30 6300 H 588.659 -2.98515 -2.53763 0
M  V30 6301 H 590.356 -3.29013 -2.29241 0
M  V30 6302 H 586.946 -4.13352 -1.13306 0
M  V30 6303 H 591.13 -4.93104 -0.562307 0
M  V30 6304 H 586.386 -6.11016 0.216735 0
M  V30 6305 H 590.56 -6.92001 0.781497 0
M  V30 6306 H 588.187 -7.51033 1.17703 0
M  V30 6307 N 589.762 0.448376 -1.51087 0
M  V30 6308 C 590.692 1.55102 -1.74544 0
M  V30 6309 C 591.673 1.59357 -0.594932 0
M  V30 6310 O 592.858 1.75261 -0.836491 0
M  V30 6311 C 589.988 2.93268 -1.86041 0
M  V30 6312 C 588.942 3.03877 -3.01402 0
M  V30 6313 C 588.268 4.43914 -2.98068 0
M  V30 6314 C 589.568 2.7898 -4.41551 0
M  V30 6315 H 591.262 1.35724 -2.66869 0
M  V30 6316 H 588.808 0.651498 -1.28419 0
M  V30 6317 H 590.761 3.70356 -2.01034 0
M  V30 6318 H 589.485 3.13853 -0.903548 0
M  V30 6319 H 588.144 2.29227 -2.86096 0
M  V30 6320 H 587.792 4.6145 -2.00182 0
M  V30 6321 H 587.492 4.51944 -3.75527 0
M  V30 6322 H 589.016 5.22991 -3.1514 0
M  V30 6323 H 590.43 3.45805 -4.57265 0
M  V30 6324 H 588.827 2.98431 -5.20633 0
M  V30 6325 H 589.897 1.74663 -4.5235 0
M  V30 6326 N 591.24 1.41047 0.703093 0
M  V30 6327 C 592.17 1.45067 1.82969 0
M  V30 6328 C 593.151 0.31016 1.67248 0
M  V30 6329 O 594.336 0.520548 1.87093 0
M  V30 6330 C 591.466 1.32478 3.2104 0
M  V30 6331 C 590.42 2.44262 3.51454 0
M  V30 6332 C 589.746 2.16742 4.88801 0
M  V30 6333 C 591.046 3.86606 3.51189 0
M  V30 6334 H 592.74 2.39353 1.79863 0
M  V30 6335 H 590.286 1.15206 0.863919 0
M  V30 6336 H 592.239 1.33904 3.99559 0
M  V30 6337 H 590.963 0.346735 3.24754 0
M  V30 6338 H 589.622 2.42107 2.75282 0
M  V30 6339 H 589.27 1.17299 4.89132 0
M  V30 6340 H 588.97 2.91643 5.10116 0
M  V30 6341 H 590.494 2.19872 5.69639 0
M  V30 6342 H 591.908 3.90517 4.19725 0
M  V30 6343 H 590.305 4.61128 3.84033 0
M  V30 6344 H 591.375 4.15296 2.50315 0
M  V30 6345 N 592.718 -0.936591 1.26751 0
M  V30 6346 C 593.681 -2.01752 1.08761 0
M  V30 6347 C 594.681 -1.60763 0.0344435 0
M  V30 6348 O 595.871 -1.71963 0.278258 0
M  V30 6349 C 593.003 -3.34543 0.655271 0
M  V30 6350 H 594.196 -2.19143 2.04735 0
M  V30 6351 H 591.749 -1.11618 1.09413 0
M  V30 6352 H 592.484 -3.22851 -0.30626 0
M  V30 6353 H 592.269 -3.65647 1.41578 0
M  V30 6354 H 593.759 -4.13944 0.551378 0
M  V30 6355 N 594.196 -1.08629 -1.14182 0
M  V30 6356 C 595.443 -0.817345 -1.85272 0
M  V30 6357 C 595.771 0.656917 -1.83071 0
M  V30 6358 O 595.026 1.49897 -1.25815 0
M  V30 6359 C 595.325 -1.28734 -3.3341 0
M  V30 6360 C 594.991 -2.76981 -3.55798 0
M  V30 6361 C 593.653 -3.17469 -3.61617 0
M  V30 6362 C 596.005 -3.72605 -3.64438 0
M  V30 6363 C 593.333 -4.52371 -3.736 0
M  V30 6364 C 595.685 -5.07286 -3.77947 0
M  V30 6365 C 594.349 -5.47376 -3.82016 0
M  V30 6366 H 593.619 -0.299088 -0.677958 0
M  V30 6367 H 596.266 -1.35962 -1.34857 0
M  V30 6368 H 594.571 -0.664702 -3.8612 0
M  V30 6369 H 596.268 -1.05598 -3.86846 0
M  V30 6370 H 592.858 -2.44644 -3.51919 0
M  V30 6371 H 597.042 -3.42443 -3.5923 0
M  V30 6372 H 592.298 -4.82882 -3.75013 0
M  V30 6373 H 596.472 -5.81243 -3.83575 0
M  V30 6374 H 594.099 -6.51906 -3.91054 0
M  V30 6375 N 595.674 1.31259 -0.872281 0
M  V30 6376 C 596.584 2.32221 -0.333255 0
M  V30 6377 C 597.6 1.6481 0.558013 0
M  V30 6378 O 598.776 1.96212 0.454175 0
M  V30 6379 C 595.841 3.43708 0.454479 0
M  V30 6380 C 594.902 4.26774 -0.465024 0
M  V30 6381 C 594.135 5.32937 0.28521 0
M  V30 6382 O 594.358 5.49968 1.513 0
M  V30 6383 O 593.292 6.00834 -0.358126 0
M  V30 6384 H 597.118 2.80252 -1.17016 0
M  V30 6385 H 594.703 1.352 -0.635724 0
M  V30 6386 H 596.585 4.11656 0.900963 0
M  V30 6387 H 595.26 2.97836 1.26789 0
M  V30 6388 H 594.167 3.61571 -0.960055 0
M  V30 6389 H 595.5 4.76217 -1.2441 0
M  V30 6390 N 597.152 0.631951 1.44375 0
M  V30 6391 C 598.102 -0.0943862 2.27805 0
M  V30 6392 C 599.086 -0.815359 1.38711 0
M  V30 6393 O 600.278 -0.701331 1.62513 0
M  V30 6394 C 597.407 -1.07472 3.26044 0
M  V30 6395 C 596.493 -0.353329 4.22626 0
M  V30 6396 N 596.884 0.618512 5.02004 0
M  V30 6397 C 595.182 -0.597662 4.41977 0
M  V30 6398 C 595.883 1.0448 5.7224 0
M  V30 6399 N 594.859 0.383413 5.42246 0
M  V30 6400 H 598.661 0.651672 2.86584 0
M  V30 6401 H 596.175 0.45752 1.55822 0
M  V30 6402 H 598.172 -1.60969 3.84571 0
M  V30 6403 H 596.832 -1.82107 2.68825 0
M  V30 6404 H 597.843 0.996356 5.08226 0
M  V30 6405 H 594.52 -1.32682 3.95856 0
M  V30 6406 H 595.91 1.84773 6.45994 0
M  V30 6407 N 598.631 -1.53133 0.372548 0
M  V30 6408 C 599.861 -2.05476 -0.215202 0
M  V30 6409 C 600.269 -1.24534 -1.42436 0
M  V30 6410 O 599.612 -0.280771 -1.81542 0
M  V30 6411 C 599.674 -3.53276 -0.666068 0
M  V30 6412 C 599.338 -4.54998 0.427342 0
M  V30 6413 C 600.335 -5.03911 1.27944 0
M  V30 6414 C 598.02 -4.98828 0.589579 0
M  V30 6415 C 600.014 -5.95263 2.27905 0
M  V30 6416 C 597.701 -5.89984 1.59255 0
M  V30 6417 C 598.699 -6.38093 2.43571 0
M  V30 6418 O 598.387 -7.27451 3.42156 0
M  V30 6419 H 598.119 -0.67481 -0.040099 0
M  V30 6420 H 600.673 -1.98409 0.531312 0
M  V30 6421 H 598.903 -3.57904 -1.4643 0
M  V30 6422 H 600.592 -3.88442 -1.1776 0
M  V30 6423 H 601.358 -4.70792 1.16532 0
M  V30 6424 H 597.237 -4.60965 -0.0569456 0
M  V30 6425 H 600.781 -6.32736 2.93753 0
M  V30 6426 H 596.678 -6.22518 1.70711 0
M  V30 6427 H 597.446 -7.45467 3.37967 0
M  V30 6428 N 600.109 -0.101901 -1.5727 0
M  V30 6429 C 601.358 0.559922 -1.93772 0
M  V30 6430 C 601.671 1.68913 -0.98629 0
M  V30 6431 O 602.877 2.41256 -1.24529 0
M  V30 6432 C 601.333 1.04739 -3.44322 0
M  V30 6433 C 600.941 -0.05243 -4.47969 0
M  V30 6434 C 602.685 1.68157 -3.89774 0
M  V30 6435 C 600.592 0.450781 -5.8968 0
M  V30 6436 H 599.522 0.212931 -0.723309 0
M  V30 6437 H 602.173 -0.179001 -1.82625 0
M  V30 6438 H 600.555 1.84021 -3.50645 0
M  V30 6439 H 601.729 -0.828157 -4.53297 0
M  V30 6440 H 600.044 -0.592202 -4.12167 0
M  V30 6441 H 602.641 2.0689 -4.93052 0
M  V30 6442 H 602.984 2.55338 -3.28798 0
M  V30 6443 H 603.517 0.954453 -3.8618 0
M  V30 6444 H 600.256 -0.38458 -6.54371 0
M  V30 6445 H 599.776 1.19336 -5.87809 0
M  V30 6446 H 601.455 0.917555 -6.40461 0
M  V30 6447 N 601.587 1.56661 0.17182 0
M  V30 6448 C 602.535 1.97289 1.23207 0
M  V30 6449 C 603.529 0.861566 1.45854 0
M  V30 6450 O 604.735 1.04668 1.4644 0
M  V30 6451 H 601.11 0.627681 0.41415 0
M  V30 6452 H 603.081 2.85662 0.862542 0
M  V30 6453 C 601.83 2.34849 2.564 0
M  V30 6454 H 601.153 3.19903 2.39797 0
M  V30 6455 H 602.593 2.67121 3.29276 0
M  V30 6456 C 601.052 1.19172 3.15119 0
M  V30 6457 O 601.582 0.479113 3.98833 0
M  V30 6458 N 599.788 0.962415 2.74201 0
M  V30 6459 H 599.335 1.54365 2.06226 0
M  V30 6460 H 599.293 0.190272 3.13824 0
M  V30 6461 N 603.065 -0.440357 1.51323 0
M  V30 6462 C 604.295 -1.21079 1.67402 0
M  V30 6463 C 604.703 -1.85555 0.369599 0
M  V30 6464 O 604.046 -1.71375 -0.661525 0
M  V30 6465 C 604.108 -2.33839 2.73056 0
M  V30 6466 C 603.772 -1.89755 4.15743 0
M  V30 6467 C 604.769 -1.40268 5.0062 0
M  V30 6468 C 602.454 -1.97539 4.61826 0
M  V30 6469 C 604.448 -0.991474 6.29642 0
M  V30 6470 C 602.135 -1.56029 5.90845 0
M  V30 6471 C 603.133 -1.06915 6.7458 0
M  V30 6472 O 602.821 -0.659933 8.01187 0
M  V30 6473 H 602.553 -0.371133 0.56501 0
M  V30 6474 H 605.107 -0.528409 1.98487 0
M  V30 6475 H 603.337 -3.05345 2.37279 0
M  V30 6476 H 605.026 -2.95713 2.78044 0
M  V30 6477 H 605.792 -1.33652 4.66221 0
M  V30 6478 H 601.671 -2.34713 3.96776 0
M  V30 6479 H 605.215 -0.607425 6.9495 0
M  V30 6480 H 601.112 -1.62315 6.24759 0
M  V30 6481 H 601.88 -0.786052 8.14717 0
M  V30 6482 N 604.543 -1.41418 -0.695603 0
M  V30 6483 C 605.959 -1.23887 -1.00619 0
M  V30 6484 C 606.159 -0.128206 -2.01092 0
M  V30 6485 O 605.215 0.507408 -2.47349 0
M  V30 6486 C 606.528 -2.58816 -1.53083 0
M  V30 6487 C 608.076 -2.65998 -1.64967 0
M  V30 6488 C 608.551 -4.01244 -2.20833 0
M  V30 6489 N 610.042 -4.0309 -2.28194 0
M  V30 6490 C 610.777 -5.04539 -2.72448 0
M  V30 6491 N 610.273 -6.16378 -3.16306 0
M  V30 6492 N 612.066 -4.91901 -2.72011 0
M  V30 6493 H 604.217 -2.12379 -0.0300061 0
M  V30 6494 H 606.48 -0.944958 -0.0758797 0
M  V30 6495 H 606.186 -3.40842 -0.867147 0
M  V30 6496 H 606.06 -2.81299 -2.51298 0
M  V30 6497 H 608.447 -1.84331 -2.30448 0
M  V30 6498 H 608.528 -2.47325 -0.652982 0
M  V30 6499 H 608.172 -4.83359 -1.55968 0
M  V30 6500 H 608.102 -4.17257 -3.21254 0
M  V30 6501 H 610.593 -3.22341 -1.97242 0
M  V30 6502 H 610.906 -6.89658 -3.487 0
M  V30 6503 H 609.251 -6.19914 -3.14215 0
M  V30 6504 H 612.442 -4.03613 -2.37095 0
M  V30 6505 H 612.615 -5.71102 -3.06181 0
M  V30 6506 N 606.021 0.929856 -1.27246 0
M  V30 6507 C 606.968 2.03017 -1.09785 0
M  V30 6508 C 607.938 1.661 0.000456744 0
M  V30 6509 O 609.123 1.90116 -0.161462 0
M  V30 6510 C 606.263 3.36878 -0.748816 0
M  V30 6511 C 605.376 3.86763 -1.92453 0
M  V30 6512 C 604.511 5.09061 -1.51758 0
M  V30 6513 C 603.55 5.51237 -2.66091 0
M  V30 6514 N 602.687 6.64732 -2.25999 0
M  V30 6515 H 607.527 2.17285 -2.03939 0
M  V30 6516 H 605.064 1.06448 -1.01524 0
M  V30 6517 H 607.022 4.13855 -0.527283 0
M  V30 6518 H 605.652 3.22424 0.155771 0
M  V30 6519 H 604.704 3.06086 -2.25867 0
M  V30 6520 H 606.016 4.13994 -2.78227 0
M  V30 6521 H 605.17 5.93532 -1.25716 0
M  V30 6522 H 603.909 4.83602 -0.630896 0
M  V30 6523 H 602.914 4.65316 -2.92849 0
M  V30 6524 H 604.139 5.78692 -3.55377 0
M  V30 6525 H 602.085 6.40935 -1.3978 0
M  V30 6526 H 602.002 6.91607 -3.05313 0
M  V30 6527 H 603.27 7.52549 -2.03199 0
M  V30 6528 N 607.499 1.09233 1.13605 0
M  V30 6529 C 608.449 0.6994 2.17008 0
M  V30 6530 C 609.433 -0.285238 1.58352 0
M  V30 6531 O 610.625 -0.09592 1.7674 0
M  V30 6532 C 607.754 0.11938 3.43092 0
M  V30 6533 C 606.84 1.13031 4.0876 0
M  V30 6534 N 607.231 2.31673 4.49623 0
M  V30 6535 C 605.529 0.967999 4.35369 0
M  V30 6536 C 606.23 2.95964 5.00779 0
M  V30 6537 N 605.206 2.23534 4.95513 0
M  V30 6538 H 609.008 1.60272 2.46354 0
M  V30 6539 H 606.522 0.968257 1.30378 0
M  V30 6540 H 608.519 -0.180122 4.16511 0
M  V30 6541 H 607.179 -0.778816 3.15221 0
M  V30 6542 H 608.19 2.69277 4.42391 0
M  V30 6543 H 604.867 0.124319 4.17315 0
M  V30 6544 H 606.257 3.96813 5.42208 0
M  V30 6545 N 608.977 -1.30795 0.87923 0
M  V30 6546 C 609.927 -2.25838 0.313276 0
M  V30 6547 C 610.911 -1.51025 -0.55499 0
M  V30 6548 O 612.103 -1.72413 -0.400353 0
M  V30 6549 C 609.232 -3.39981 -0.476204 0
M  V30 6550 C 608.318 -4.22154 0.405826 0
M  V30 6551 N 608.709 -4.82934 1.50362 0
M  V30 6552 C 607.007 -4.45552 0.199909 0
M  V30 6553 C 607.708 -5.44444 2.0483 0
M  V30 6554 N 606.684 -5.26723 1.34403 0
M  V30 6555 H 610.486 -2.70374 1.15218 0
M  V30 6556 H 608 -1.45168 0.728003 0
M  V30 6557 H 609.997 -4.07108 -0.898251 0
M  V30 6558 H 608.657 -2.96986 -1.31261 0
M  V30 6559 H 609.668 -4.82319 1.8865 0
M  V30 6560 H 606.345 -4.13169 -0.599795 0
M  V30 6561 H 607.735 -6.02701 2.96986 0
M  V30 6562 N 610.455 -0.639598 -1.44038 0
M  V30 6563 C 611.701 -0.147698 -2.02261 0
M  V30 6564 C 612.034 1.23031 -1.50256 0
M  V30 6565 O 611.309 1.81847 -0.690068 0
M  V30 6566 C 611.592 -0.14362 -3.59813 0
M  V30 6567 C 611.445 -1.55458 -4.22082 0
M  V30 6568 C 612.764 0.527317 -4.36929 0
M  V30 6569 H 609.883 -0.0551453 -0.734934 0
M  V30 6570 H 612.525 -0.817688 -1.71505 0
M  V30 6571 H 610.675 0.426898 -3.86147 0
M  V30 6572 H 612.347 -2.17464 -4.06826 0
M  V30 6573 H 610.59 -2.10594 -3.79253 0
M  V30 6574 H 611.261 -1.50369 -5.31124 0
M  V30 6575 H 613.737 0.0420504 -4.16079 0
M  V30 6576 H 612.613 0.499389 -5.46624 0
M  V30 6577 H 612.874 1.59914 -4.12165 0
M  V30 6578 N 611.933 1.52934 -0.380664 0
M  V30 6579 C 613.161 2.05886 0.204599 0
M  V30 6580 C 613.576 1.25305 1.41223 0
M  V30 6581 O 612.933 0.297504 1.80059 0
M  V30 6582 C 612.984 3.56764 0.583249 0
M  V30 6583 O 612.705 4.34292 -0.576398 0
M  V30 6584 C 614.206 4.2603 1.2253 0
M  V30 6585 H 611.426 0.670193 0.0328991 0
M  V30 6586 H 613.97 1.97148 -0.543397 0
M  V30 6587 H 612.125 3.65603 1.28115 0
M  V30 6588 H 612.539 5.23819 -0.267119 0
M  V30 6589 H 614.013 5.32868 1.44068 0
M  V30 6590 H 614.49 3.80698 2.19011 0
M  V30 6591 H 615.096 4.21485 0.568407 0
M  V30 6592 N 613.412 0.11024 1.57214 0
M  V30 6593 C 614.362 -0.854147 2.11396 0
M  V30 6594 C 615.346 -1.23394 1.03261 0
M  V30 6595 O 616.538 -1.20649 1.2951 0
M  V30 6596 C 613.667 -2.10752 2.70995 0
M  V30 6597 C 612.753 -1.75249 3.86198 0
M  V30 6598 N 613.144 -1.10377 4.9361 0
M  V30 6599 C 611.442 -2.04763 3.96217 0
M  V30 6600 C 612.143 -0.938199 5.74084 0
M  V30 6601 N 611.119 -1.46039 5.23616 0
M  V30 6602 H 614.921 -0.348897 2.91822 0
M  V30 6603 H 612.435 -0.0925071 1.62136 0
M  V30 6604 H 614.432 -2.80801 3.0815 0
M  V30 6605 H 613.092 -2.61829 1.9203 0
M  V30 6606 H 614.103 -0.768785 5.12162 0
M  V30 6607 H 610.78 -2.57948 3.28282 0
M  V30 6608 H 612.17 -0.429678 6.70525 0
M  V30 6609 N 614.89 -1.56749 -0.16351 0
M  V30 6610 C 616.137 -1.82434 -0.878866 0
M  V30 6611 C 616.465 -0.688557 -1.81904 0
M  V30 6612 O 615.72 0.323644 -1.93005 0
M  V30 6613 C 616.019 -3.14342 -1.70071 0
M  V30 6614 C 615.685 -4.41647 -0.908775 0
M  V30 6615 C 614.347 -4.76224 -0.690236 0
M  V30 6616 C 616.699 -5.19998 -0.353815 0
M  V30 6617 C 614.027 -5.86624 0.0942374 0
M  V30 6618 C 616.379 -6.3122 0.41761 0
M  V30 6619 C 615.043 -6.64358 0.646879 0
M  V30 6620 H 614.313 -0.667574 -0.3216 0
M  V30 6621 H 616.96 -1.90963 -0.14337 0
M  V30 6622 H 615.265 -3.0119 -2.50583 0
M  V30 6623 H 616.962 -3.31426 -2.25738 0
M  V30 6624 H 613.552 -4.1453 -1.08916 0
M  V30 6625 H 617.736 -4.93673 -0.509975 0
M  V30 6626 H 612.992 -6.10751 0.281529 0
M  V30 6627 H 617.166 -6.91133 0.854849 0
M  V30 6628 H 614.793 -7.49742 1.25662 0
M  V30 6629 N 616.368 0.432326 -1.51554 0
M  V30 6630 C 617.614 1.17997 -1.65675 0
M  V30 6631 C 617.969 1.88794 -0.37076 0
M  V30 6632 O 617.262 1.80817 0.633692 0
M  V30 6633 C 617.456 2.21907 -2.80164 0
M  V30 6634 C 617.285 1.6131 -4.19773 0
M  V30 6635 C 616.055 1.39585 -4.85638 0
M  V30 6636 C 618.253 1.08659 -5.0269 0
M  V30 6637 N 616.235 0.746374 -6.09346 0
M  V30 6638 C 617.606 0.562685 -6.17441 0
M  V30 6639 C 619.661 0.978831 -4.88184 0
M  V30 6640 C 618.364 -0.0584015 -7.19276 0
M  V30 6641 C 620.39 0.371631 -5.90231 0
M  V30 6642 C 619.752 -0.141711 -7.04257 0
M  V30 6643 H 615.851 0.419277 -0.660099 0
M  V30 6644 H 618.435 0.475809 -1.88797 0
M  V30 6645 H 616.606 2.89706 -2.58698 0
M  V30 6646 H 618.338 2.88867 -2.8344 0
M  V30 6647 H 615.093 1.65897 -4.43593 0
M  V30 6648 H 615.517 0.438934 -6.75576 0
M  V30 6649 H 620.159 1.36157 -4.00276 0
M  V30 6650 H 617.877 -0.453262 -8.06828 0
M  V30 6651 H 621.463 0.290086 -5.81076 0
M  V30 6652 H 620.343 -0.60417 -7.81869 0
M  V30 6653 N 617.846 1.41785 0.688094 0
M  V30 6654 C 619.257 1.3701 1.26828 0
M  V30 6655 C 619.608 0.056835 1.96118 0
M  V30 6656 O 618.733 -0.84475 1.99231 0
M  V30 6657 C 619.328 2.48168 2.30648 0
M  V30 6658 C 617.887 2.46766 2.84224 0
M  V30 6659 C 617.034 2.27633 1.58361 0
M  V30 6660 H 619.985 1.51192 0.482351 0
M  V30 6661 H 620.006 2.17655 3.121 0
M  V30 6662 H 619.518 3.43735 1.80188 0
M  V30 6663 H 617.619 1.54978 3.3884 0
M  V30 6664 H 617.732 3.43342 3.34145 0
M  V30 6665 H 616.096 1.75648 1.84445 0
M  V30 6666 H 616.879 3.25238 1.09887 0
M  V30 6667 N 619.324 -0.923095 1.27737 0
M  V30 6668 C 620.271 -2.02432 1.1086 0
M  V30 6669 C 621.241 -1.66098 0.00835195 0
M  V30 6670 O 622.426 -1.90027 0.171542 0
M  V30 6671 C 619.566 -3.36476 0.766671 0
M  V30 6672 C 618.679 -3.85737 1.94501 0
M  V30 6673 C 617.814 -5.08249 1.54455 0
M  V30 6674 C 616.853 -5.49818 2.6901 0
M  V30 6675 N 615.99 -6.63524 2.29521 0
M  V30 6676 H 620.83 -2.16201 2.05089 0
M  V30 6677 H 618.367 -1.05909 1.02087 0
M  V30 6678 H 620.325 -4.13569 0.549223 0
M  V30 6679 H 618.955 -3.22502 -0.13867 0
M  V30 6680 H 618.007 -3.04883 2.27487 0
M  V30 6681 H 619.319 -4.12513 2.80419 0
M  V30 6682 H 618.473 -5.92857 1.28862 0
M  V30 6683 H 617.212 -4.83261 0.656534 0
M  V30 6684 H 616.217 -4.63757 2.95313 0
M  V30 6685 H 617.442 -5.76799 3.5844 0
M  V30 6686 H 615.388 -6.40185 1.43177 0
M  V30 6687 H 615.305 -6.89978 3.08977 0
M  V30 6688 H 616.573 -7.51461 2.07187 0
M  V30 6689 N 620.802 -1.09834 -1.13024 0
M  V30 6690 C 621.732 -0.763451 -2.20666 0
M  V30 6691 C 622.713 0.260778 -1.68089 0
M  V30 6692 O 623.898 0.127915 -1.93778 0
M  V30 6693 C 621.028 -0.187744 -3.46792 0
M  V30 6694 C 619.982 -1.14196 -4.12484 0
M  V30 6695 C 619.308 -0.427755 -5.32986 0
M  V30 6696 C 620.608 -2.48607 -4.59338 0
M  V30 6697 H 622.302 -1.66347 -2.48936 0
M  V30 6698 H 619.848 -0.801261 -1.19649 0
M  V30 6699 H 621.801 0.0586375 -4.21359 0
M  V30 6700 H 620.525 0.747485 -3.17931 0
M  V30 6701 H 619.184 -1.37369 -3.3989 0
M  V30 6702 H 618.832 0.511747 -5.0039 0
M  V30 6703 H 618.532 -1.06403 -5.77886 0
M  V30 6704 H 620.056 -0.189772 -6.10305 0
M  V30 6705 H 621.47 -2.29618 -5.25308 0
M  V30 6706 H 619.867 -3.08062 -5.14993 0
M  V30 6707 H 620.937 -3.09062 -3.73642 0
M  V30 6708 N 622.28 1.30327 -0.886154 0
M  V30 6709 C 623.21 2.30549 -0.370028 0
M  V30 6710 C 624.191 1.61039 0.547751 0
M  V30 6711 O 625.376 1.8864 0.461353 0
M  V30 6712 C 622.506 3.44808 0.415275 0
M  V30 6713 C 621.46 4.26024 -0.41085 0
M  V30 6714 C 620.786 5.32347 0.501128 0
M  V30 6715 C 622.086 4.95433 -1.65359 0
M  V30 6716 H 623.78 2.73969 -1.20754 0
M  V30 6717 H 621.326 1.3171 -0.582097 0
M  V30 6718 H 623.279 4.13986 0.78699 0
M  V30 6719 H 622.003 3.00197 1.28644 0
M  V30 6720 H 620.662 3.58535 -0.764719 0
M  V30 6721 H 620.31 4.83982 1.37004 0
M  V30 6722 H 620.01 5.87581 -0.0478356 0
M  V30 6723 H 621.534 6.0438 0.869333 0
M  V30 6724 H 622.948 5.5712 -1.35239 0
M  V30 6725 H 621.345 5.60537 -2.14284 0
M  V30 6726 H 622.415 4.21493 -2.39733 0
M  V30 6727 N 623.758 0.647228 1.43697 0
M  V30 6728 C 624.691 -0.097646 2.27991 0
M  V30 6729 C 625.669 -0.83571 1.3948 0
M  V30 6730 O 626.853 -0.836509 1.68922 0
M  V30 6731 C 623.98 -1.14484 3.18765 0
M  V30 6732 C 623.026 -0.505503 4.23494 0
M  V30 6733 S 623.859 0.716471 5.30685 0
M  V30 6734 C 625.015 -0.330339 6.25028 0
M  V30 6735 H 625.248 0.617417 2.90818 0
M  V30 6736 H 622.781 0.435881 1.4812 0
M  V30 6737 H 624.739 -1.74403 3.7161 0
M  V30 6738 H 623.4 -1.83219 2.55127 0
M  V30 6739 H 622.593 -1.29473 4.87086 0
M  V30 6740 H 622.195 0.0194377 3.73995 0
M  V30 6741 H 624.487 -1.19828 6.66819 0
M  V30 6742 H 625.43 0.270409 7.07583 0
M  V30 6743 H 625.838 -0.663459 5.60588 0
M  V30 6744 N 625.236 -1.5273 0.388769 0
M  V30 6745 C 626.183 -2.26437 -0.446639 0
M  V30 6746 C 627.153 -1.28025 -1.05824 0
M  V30 6747 O 628.338 -1.56852 -1.08637 0
M  V30 6748 C 625.478 -3.07407 -1.56828 0
M  V30 6749 C 624.591 -4.20747 -0.979589 0
M  V30 6750 C 623.726 -4.89113 -2.07224 0
M  V30 6751 C 622.765 -5.94447 -1.45942 0
M  V30 6752 N 621.902 -6.56411 -2.49135 0
M  V30 6753 H 626.742 -2.97404 0.18837 0
M  V30 6754 H 624.279 -1.46727 0.104725 0
M  V30 6755 H 626.237 -3.52642 -2.22934 0
M  V30 6756 H 624.867 -2.3865 -2.17361 0
M  V30 6757 H 623.919 -3.7983 -0.208151 0
M  V30 6758 H 625.231 -4.9637 -0.491747 0
M  V30 6759 H 624.385 -5.3765 -2.81101 0
M  V30 6760 H 623.124 -4.13013 -2.59368 0
M  V30 6761 H 622.129 -5.4525 -0.705894 0
M  V30 6762 H 623.354 -6.7248 -0.945932 0
M  V30 6763 H 621.3 -5.83152 -3.00449 0
M  V30 6764 H 621.217 -7.27645 -2.05105 0
M  V30 6765 H 622.485 -7.09592 -3.22644 0
M  V30 6766 N 626.714 -0.118576 -1.57153 0
M  V30 6767 C 627.96 0.540326 -1.95469 0
M  V30 6768 C 628.293 1.66356 -1.00196 0
M  V30 6769 O 627.568 1.94461 -0.039104 0
M  V30 6770 C 627.851 1.07342 -3.43729 0
M  V30 6771 C 627.704 -0.0463732 -4.49776 0
M  V30 6772 C 629.023 1.96442 -3.93826 0
M  V30 6773 H 626.142 0.19494 -0.710751 0
M  V30 6774 H 628.784 -0.19405 -1.89006 0
M  V30 6775 H 626.934 1.69925 -3.49368 0
M  V30 6776 H 628.606 -0.681648 -4.56236 0
M  V30 6777 H 626.849 -0.709574 -4.27957 0
M  V30 6778 H 627.52 0.367856 -5.50773 0
M  V30 6779 H 629.996 1.43731 -3.90488 0
M  V30 6780 H 628.872 2.3066 -4.98084 0
M  V30 6781 H 629.133 2.89077 -3.34495 0
M  V30 6782 N 628.193 1.56834 0.155195 0
M  V30 6783 C 629.421 1.87049 0.884326 0
M  V30 6784 C 629.836 0.705839 1.7511 0
M  V30 6785 O 629.193 -0.324641 1.79589 0
M  V30 6786 C 629.244 3.1644 1.74781 0
M  V30 6787 O 628.965 4.28417 0.915978 0
M  V30 6788 C 630.466 3.60113 2.58522 0
M  V30 6789 H 627.686 0.620196 0.25612 0
M  V30 6790 H 630.23 2.03946 0.150445 0
M  V30 6791 H 628.385 3.01321 2.43484 0
M  V30 6792 H 628.799 5.02353 1.50803 0
M  V30 6793 H 630.273 4.53508 3.14698 0
M  V30 6794 H 630.75 2.85005 3.34169 0
M  V30 6795 H 631.356 3.77898 1.95124 0
M  V30 6796 N 629.671 -0.424282 1.51781 0
M  V30 6797 C 630.948 -1.18464 1.55646 0
M  V30 6798 C 631.328 -2.08529 0.328438 0
M  V30 6799 O 630.676 -2.17969 -0.685693 0
M  V30 6800 C 630.886 -1.97514 2.87731 0
M  V30 6801 C 632.234 -2.54106 3.40169 0
M  V30 6802 O 633.258 -2.07711 2.89369 0
M  V30 6803 O 632.117 -3.38759 4.28841 0
M  V30 6804 H 629.211 -0.540055 0.626314 0
M  V30 6805 H 631.757 -0.432291 1.64102 0
M  V30 6806 H 630.529 -1.31444 3.68562 0
M  V30 6807 H 630.152 -2.79787 2.82498 0
M  V30 6808 N 631.149 -1.42148 -0.680565 0
M  V30 6809 C 632.079 -1.4796 -1.80638 0
M  V30 6810 C 633.06 -0.336728 -1.66734 0
M  V30 6811 O 634.245 -0.550247 -1.86242 0
M  V30 6812 C 631.375 -1.37569 -3.18892 0
M  V30 6813 C 630.329 -2.49823 -3.47524 0
M  V30 6814 C 629.655 -2.24491 -4.85291 0
M  V30 6815 C 630.955 -3.92144 -3.44994 0
M  V30 6816 H 632.649 -2.42184 -1.76032 0
M  V30 6817 H 630.195 -1.16566 -0.845481 0
M  V30 6818 H 632.148 -1.40243 -3.97379 0
M  V30 6819 H 630.872 -0.398357 -3.24162 0
M  V30 6820 H 629.531 -2.46455 -2.71395 0
M  V30 6821 H 629.179 -1.25066 -4.87204 0
M  V30 6822 H 628.879 -2.99722 -5.05411 0
M  V30 6823 H 630.403 -2.28906 -5.66069 0
M  V30 6824 H 631.817 -3.97145 -4.13459 0
M  V30 6825 H 630.214 -4.67179 -3.76648 0
M  V30 6826 H 631.284 -4.19225 -2.43676 0
M  V30 6827 N 632.627 0.916307 -1.28225 0
M  V30 6828 C 634.043 1.19425 -1.05876 0
M  V30 6829 C 634.243 2.005 0.2005 0
M  V30 6830 O 633.299 2.35806 0.902873 0
M  V30 6831 C 634.612 1.93133 -2.30478 0
M  V30 6832 C 636.16 2.06026 -2.35632 0
M  V30 6833 C 636.635 2.83141 -3.59994 0
M  V30 6834 N 638.126 2.90704 -3.60618 0
M  V30 6835 C 638.861 3.50865 -4.53521 0
M  V30 6836 N 638.357 4.12327 -5.56739 0
M  V30 6837 N 640.15 3.48379 -4.41122 0
M  V30 6838 H 632.301 0.37496 -2.09064 0
M  V30 6839 H 634.564 0.228531 -0.920042 0
M  V30 6840 H 634.27 1.40985 -3.22205 0
M  V30 6841 H 634.144 2.93696 -2.36691 0
M  V30 6842 H 636.531 2.57355 -1.44404 0
M  V30 6843 H 636.612 1.04647 -2.33415 0
M  V30 6844 H 636.256 2.32492 -4.51564 0
M  V30 6845 H 636.186 3.84829 -3.59464 0
M  V30 6846 H 638.677 2.47034 -2.85977 0
M  V30 6847 H 638.99 4.56205 -6.23776 0
M  V30 6848 H 637.335 4.10839 -5.60568 0
M  V30 6849 H 640.526 2.99572 -3.59686 0
M  V30 6850 H 640.699 3.94974 -5.13712 0
M  V30 6851 N 634.105 1.10431 1.1244 0
M  V30 6852 C 635.038 0.696987 2.17296 0
M  V30 6853 C 636.016 -0.301673 1.59777 0
M  V30 6854 O 637.2 -0.200583 1.8743 0
M  V30 6855 C 634.327 0.0284094 3.38688 0
M  V30 6856 C 633.373 0.990536 4.14838 0
M  V30 6857 S 634.206 2.50785 4.73146 0
M  V30 6858 C 635.362 1.85198 5.97873 0
M  V30 6859 H 635.595 1.58523 2.51511 0
M  V30 6860 H 633.128 0.921312 1.239 0
M  V30 6861 H 635.086 -0.351009 4.08997 0
M  V30 6862 H 633.747 -0.836629 3.02753 0
M  V30 6863 H 632.94 0.469991 5.01804 0
M  V30 6864 H 632.542 1.31186 3.50237 0
M  V30 6865 H 634.834 1.18217 6.67106 0
M  V30 6866 H 635.777 2.7012 6.54554 0
M  V30 6867 H 636.185 1.31653 5.48933 0
M  V30 6868 N 635.583 -1.29855 0.893053 0
M  V30 6869 C 636.832 -1.95104 0.511597 0
M  V30 6870 C 637.145 -1.71226 -0.945567 0
M  V30 6871 O 638.351 -2.30525 -1.43424 0
M  V30 6872 C 636.807 -3.49374 0.864034 0
M  V30 6873 C 636.415 -3.82061 2.33952 0
M  V30 6874 C 638.159 -4.20894 0.552167 0
M  V30 6875 C 636.066 -5.29546 2.63316 0
M  V30 6876 H 634.996 -0.73029 0.187597 0
M  V30 6877 H 637.647 -1.47682 1.08914 0
M  V30 6878 H 636.029 -3.95413 0.215493 0
M  V30 6879 H 637.203 -3.46904 3.03305 0
M  V30 6880 H 635.518 -3.23665 2.61973 0
M  V30 6881 H 638.115 -5.29435 0.748489 0
M  V30 6882 H 638.458 -4.13178 -0.508924 0
M  V30 6883 H 638.991 -3.80564 1.15825 0
M  V30 6884 H 635.73 -5.4232 3.68197 0
M  V30 6885 H 635.25 -5.65974 1.9858 0
M  V30 6886 H 636.929 -5.97068 2.49236 0
M  V30 6887 N 637.061 -0.65484 -1.43351 0
M  V30 6888 C 638.309 -0.168559 -2.01396 0
M  V30 6889 C 638.63 1.22235 -1.51933 0
M  V30 6890 O 637.9 1.81685 -0.732627 0
M  V30 6891 H 636.48 -0.0593244 -0.744641 0
M  V30 6892 H 639.142 -0.846871 -1.75539 0
M  V30 6893 H 638.238 -0.154428 -3.11718 0
M  V30 6894 N 638.539 1.52521 -0.396863 0
M  V30 6895 C 639.502 2.2527 0.422604 0
M  V30 6896 C 640.502 1.27184 0.983913 0
M  V30 6897 O 641.692 1.51222 0.864723 0
M  V30 6898 C 638.824 3.01356 1.59365 0
M  V30 6899 H 640.017 2.99133 -0.214416 0
M  V30 6900 H 637.57 1.55587 -0.149128 0
M  V30 6901 H 638.305 2.31813 2.26789 0
M  V30 6902 H 638.09 3.73357 1.19779 0
M  V30 6903 H 639.58 3.56571 2.17363 0
M  V30 6904 N 640.017 0.126909 1.57088 0
M  V30 6905 C 641.257 -0.53216 1.97351 0
M  V30 6906 C 641.621 -1.63342 1.00913 0
M  V30 6907 O 642.822 -2.35194 1.30144 0
M  V30 6908 C 641.093 -1.04385 3.41817 0
M  V30 6909 S 642.652 -1.71033 4.04095 0
M  V30 6910 H 639.47 -0.172724 0.689701 0
M  V30 6911 H 642.072 0.213865 1.94327 0
M  V30 6912 H 640.776 -0.231289 4.09748 0
M  V30 6913 H 640.307 -1.82496 3.48509 0
M  V30 6914 H 642.322 -2.99656 3.95501 0
M  V30 6915 N 641.495 -1.56914 -0.146875 0
M  V30 6916 C 642.445 -1.94693 -1.18653 0
M  V30 6917 C 643.429 -0.81821 -1.38543 0
M  V30 6918 O 644.621 -1.08167 -1.40103 0
M  V30 6919 C 641.75 -2.33117 -2.52014 0
M  V30 6920 C 640.836 -3.5256 -2.35717 0
M  V30 6921 N 641.227 -4.69091 -1.89175 0
M  V30 6922 C 639.525 -3.57647 -2.66467 0
M  V30 6923 C 640.226 -5.51187 -1.85924 0
M  V30 6924 N 639.202 -4.92899 -2.29242 0
M  V30 6925 H 643.004 -2.82264 -0.81879 0
M  V30 6926 H 640.518 -1.58474 -0.354929 0
M  V30 6927 H 642.515 -2.58387 -3.27172 0
M  V30 6928 H 641.175 -1.46898 -2.89571 0
M  V30 6929 H 642.186 -4.92844 -1.59139 0
M  V30 6930 H 638.863 -2.81967 -3.07898 0
M  V30 6931 H 640.253 -6.54613 -1.51431 0
M  V30 6932 N 642.974 0.416227 -1.52004 0
M  V30 6933 C 643.937 1.48926 -1.74223 0
M  V30 6934 C 644.937 1.48693 -0.612119 0
M  V30 6935 O 646.127 1.50343 -0.879921 0
M  V30 6936 C 643.259 2.88372 -1.81809 0
M  V30 6937 H 644.452 1.3052 -2.70008 0
M  V30 6938 H 642.005 0.646271 -1.42313 0
M  V30 6939 H 642.74 3.12157 -0.879135 0
M  V30 6940 H 642.525 2.89944 -2.6396 0
M  V30 6941 H 644.015 3.66173 -2.00766 0
M  V30 6942 N 644.452 1.42507 0.673017 0
M  V30 6943 C 645.677 1.4668 1.46627 0
M  V30 6944 C 646.102 0.080066 1.8793 0
M  V30 6945 O 645.46 -0.921879 1.56112 0
M  V30 6946 C 645.508 2.40091 2.69051 0
M  V30 6947 O 644.612 1.8735 3.67387 0
M  V30 6948 H 643.953 0.496908 0.44043 0
M  V30 6949 H 646.483 1.87215 0.825334 0
M  V30 6950 H 646.493 2.56731 3.17101 0
M  V30 6951 H 645.168 3.4084 2.3833 0
M  V30 6952 H 643.745 1.80274 3.26429 0
M  V30 6953 N 645.93 -0.909495 1.28709 0
M  V30 6954 C 647.346 -1.18862 1.06508 0
M  V30 6955 C 647.546 -2.00604 -0.189864 0
M  V30 6956 O 646.602 -2.36281 -0.890355 0
M  V30 6957 C 647.915 -1.91908 2.31499 0
M  V30 6958 C 649.463 -2.04773 2.36721 0
M  V30 6959 C 649.938 -2.81228 3.6149 0
M  V30 6960 N 651.429 -2.88787 3.62155 0
M  V30 6961 C 652.164 -3.48455 4.55375 0
M  V30 6962 N 651.66 -4.09369 5.58918 0
M  V30 6963 N 653.453 -3.46035 4.42963 0
M  V30 6964 H 645.604 -0.363867 2.0926 0
M  V30 6965 H 647.867 -0.223649 0.921241 0
M  V30 6966 H 647.573 -1.39275 3.22948 0
M  V30 6967 H 647.447 -2.92436 2.38245 0
M  V30 6968 H 649.834 -2.56585 1.45767 0
M  V30 6969 H 649.915 -1.03408 2.33967 0
M  V30 6970 H 649.559 -2.30094 4.5279 0
M  V30 6971 H 649.489 -3.82917 3.61499 0
M  V30 6972 H 651.98 -2.45514 2.87283 0
M  V30 6973 H 652.293 -4.52891 6.26187 0
M  V30 6974 H 650.638 -4.0786 5.62739 0
M  V30 6975 H 653.829 -2.9766 3.6127 0
M  V30 6976 H 654.002 -3.92244 5.15799 0
M  V30 6977 N 647.408 -1.11026 -1.11852 0
M  V30 6978 C 648.655 -0.85646 -1.83497 0
M  V30 6979 C 648.983 0.617938 -1.84423 0
M  V30 6980 O 648.238 1.47194 -1.28966 0
M  V30 6981 C 648.537 -1.35777 -3.30604 0
M  V30 6982 C 648.203 -2.84465 -3.49843 0
M  V30 6983 C 646.865 -3.25068 -3.54802 0
M  V30 6984 C 649.217 -3.80251 -3.56453 0
M  V30 6985 C 646.545 -4.60194 -3.63921 0
M  V30 6986 C 648.897 -5.15188 -3.67102 0
M  V30 6987 C 647.561 -5.55356 -3.70319 0
M  V30 6988 H 646.831 -0.313401 -0.671462 0
M  V30 6989 H 649.478 -1.38792 -1.31943 0
M  V30 6990 H 647.783 -0.746455 -3.84624 0
M  V30 6991 H 649.48 -1.13779 -3.8452 0
M  V30 6992 H 646.07 -2.52054 -3.46651 0
M  V30 6993 H 650.254 -3.49986 -3.51886 0
M  V30 6994 H 645.51 -4.90728 -3.64686 0
M  V30 6995 H 649.684 -5.89248 -3.71159 0
M  V30 6996 H 647.311 -6.60054 -3.77138 0
M  V30 6997 N 648.886 1.2938 -0.899927 0
M  V30 6998 C 649.816 2.30144 -0.39446 0
M  V30 6999 C 650.797 1.61611 0.530639 0
M  V30 7000 O 651.982 1.89119 0.441319 0
M  V30 7001 C 649.112 3.45229 0.37868 0
M  V30 7002 C 648.066 4.25564 -0.456012 0
M  V30 7003 C 647.392 5.32848 0.444637 0
M  V30 7004 C 648.692 4.93651 -1.70605 0
M  V30 7005 H 650.386 2.72673 -1.23653 0
M  V30 7006 H 647.932 1.31086 -0.596034 0
M  V30 7007 H 649.885 4.14797 0.743037 0
M  V30 7008 H 648.609 3.01545 1.25453 0
M  V30 7009 H 647.268 3.57704 -0.802704 0
M  V30 7010 H 646.916 4.85408 1.31863 0
M  V30 7011 H 646.616 5.87497 -0.110154 0
M  V30 7012 H 648.14 6.05268 0.805182 0
M  V30 7013 H 649.554 5.55655 -1.41141 0
M  V30 7014 H 647.951 5.58233 -2.20217 0
M  V30 7015 H 649.021 4.18926 -2.4419 0
M  V30 7016 N 650.364 0.662433 1.43002 0
M  V30 7017 C 651.314 -0.0460442 2.27954 0
M  V30 7018 C 652.298 -0.785753 1.40409 0
M  V30 7019 O 653.49 -0.666701 1.63964 0
M  V30 7020 C 650.619 -1.00532 3.2825 0
M  V30 7021 C 649.705 -0.263604 4.2328 0
M  V30 7022 N 650.096 0.724855 5.00579 0
M  V30 7023 C 648.394 -0.503778 4.43146 0
M  V30 7024 C 649.095 1.16594 5.69895 0
M  V30 7025 N 648.071 0.498345 5.41311 0
M  V30 7026 H 651.873 0.712314 2.85137 0
M  V30 7027 H 649.387 0.490469 1.54817 0
M  V30 7028 H 651.384 -1.52775 3.87899 0
M  V30 7029 H 650.044 -1.76364 2.72628 0
M  V30 7030 H 651.055 1.10393 5.05998 0
M  V30 7031 H 647.732 -1.24255 3.98581 0
M  V30 7032 H 649.122 1.98434 6.4193 0
M  V30 7033 N 651.842 -1.52309 0.404946 0
M  V30 7034 C 652.775 -2.23369 -0.467087 0
M  V30 7035 C 653.753 -1.24034 -1.0514 0
M  V30 7036 O 654.937 -1.53071 -1.10006 0
M  V30 7037 C 652.064 -2.95906 -1.64795 0
M  V30 7038 C 651.11 -4.09637 -1.18743 0
M  V30 7039 S 651.943 -5.35273 -0.156022 0
M  V30 7040 C 653.099 -6.11337 -1.34231 0
M  V30 7041 H 653.332 -2.96987 0.136294 0
M  V30 7042 H 650.865 -1.53236 0.189219 0
M  V30 7043 H 652.823 -3.38304 -2.3251 0
M  V30 7044 H 651.484 -2.21937 -2.22267 0
M  V30 7045 H 650.677 -4.59549 -2.06955 0
M  V30 7046 H 650.279 -3.69333 -0.588981 0
M  V30 7047 H 652.571 -6.38458 -2.26665 0
M  V30 7048 H 653.514 -7.02563 -0.883804 0
M  V30 7049 H 653.922 -5.42338 -1.56621 0
M  V30 7050 N 653.32 -0.135238 -1.57019 0
M  V30 7051 C 654.267 0.808908 -2.1616 0
M  V30 7052 C 655.237 1.25234 -1.09113 0
M  V30 7053 O 656.422 1.32697 -1.37099 0
M  V30 7054 C 653.562 2.04729 -2.77813 0
M  V30 7055 C 652.675 1.65074 -3.99218 0
M  V30 7056 C 651.81 2.84002 -4.48906 0
M  V30 7057 C 650.849 2.40663 -5.62803 0
M  V30 7058 N 649.986 3.5256 -6.07162 0
M  V30 7059 H 654.826 0.297751 -2.96509 0
M  V30 7060 H 652.363 0.135264 -1.46477 0
M  V30 7061 H 654.321 2.7731 -3.11697 0
M  V30 7062 H 652.951 2.53275 -2.00128 0
M  V30 7063 H 652.003 0.823029 -3.7139 0
M  V30 7064 H 653.315 1.29236 -4.81767 0
M  V30 7065 H 652.469 3.64788 -4.84783 0
M  V30 7066 H 651.208 3.23076 -3.65339 0
M  V30 7067 H 650.213 1.58314 -5.26514 0
M  V30 7068 H 651.438 2.02687 -6.48147 0
M  V30 7069 H 649.384 3.91278 -5.26534 0
M  V30 7070 H 649.301 3.20699 -6.84608 0
M  V30 7071 H 650.569 4.33738 -6.47682 0
M  V30 7072 N 654.798 1.5699 0.138552 0
M  V30 7073 C 656.044 1.84081 0.85099 0
M  V30 7074 C 656.377 0.718107 1.80435 0
M  V30 7075 O 655.652 -0.277633 1.92508 0
M  V30 7076 C 655.935 3.21699 1.61808 0
M  V30 7077 C 655.788 4.44544 0.685633 0
M  V30 7078 C 657.107 3.5664 2.57868 0
M  V30 7079 H 654.226 0.669592 0.307922 0
M  V30 7080 H 656.868 1.89646 0.11588 0
M  V30 7081 H 655.018 3.17086 2.24474 0
M  V30 7082 H 656.69 4.61248 0.0693179 0
M  V30 7083 H 654.933 4.338 -0.00421993 0
M  V30 7084 H 655.604 5.3746 1.25858 0
M  V30 7085 H 658.08 3.61918 2.05316 0
M  V30 7086 H 656.956 4.53946 3.08584 0
M  V30 7087 H 657.217 2.83036 3.39622 0
M  V30 7088 N 656.276 -0.40816 1.52223 0
M  V30 7089 C 657.186 -1.52202 1.78526 0
M  V30 7090 C 658.202 -1.60546 0.670892 0
M  V30 7091 O 659.378 -1.77242 0.956404 0
M  V30 7092 C 656.443 -2.87928 1.93128 0
M  V30 7093 C 655.504 -2.89463 3.17033 0
M  V30 7094 C 654.737 -4.18715 3.30929 0
M  V30 7095 O 654.96 -5.12662 2.50067 0
M  V30 7096 O 653.894 -4.27125 4.24084 0
M  V30 7097 H 657.72 -1.32911 2.73072 0
M  V30 7098 H 655.305 -0.594112 1.37079 0
M  V30 7099 H 657.187 -3.68426 2.04549 0
M  V30 7100 H 655.862 -3.07285 1.01772 0
M  V30 7101 H 654.769 -2.07815 3.11069 0
M  V30 7102 H 656.102 -2.75055 4.08174 0
M  V30 7103 N 657.755 -1.42862 -0.66545 0
M  V30 7104 C 658.995 -1.45323 -1.43738 0
M  V30 7105 C 659.359 -0.0707969 -1.91869 0
M  V30 7106 O 660.56 0.0298852 -2.68783 0
M  V30 7107 C 658.831 -2.45671 -2.59577 0
M  V30 7108 S 660.39 -2.6691 -3.48288 0
M  V30 7109 H 657.208 -0.51442 -0.490809 0
M  V30 7110 H 659.81 -1.79537 -0.773745 0
M  V30 7111 H 658.514 -3.44869 -2.22471 0
M  V30 7112 H 658.045 -2.12914 -3.30804 0
M  V30 7113 H 660.06 -1.95914 -4.55886 0
M  V30 7114 N 659.233 0.902656 -1.29189 0
M  V30 7115 C 660.644 1.46809 -1.15343 0
M  V30 7116 C 660.995 1.94568 0.252517 0
M  V30 7117 O 660.12 1.83454 1.14777 0
M  V30 7118 C 660.715 2.66829 -2.08776 0
M  V30 7119 C 659.274 3.19518 -1.98961 0
M  V30 7120 C 658.421 1.92212 -1.99874 0
M  V30 7121 H 661.372 0.714282 -1.41717 0
M  V30 7122 H 661.393 3.42465 -1.65826 0
M  V30 7123 H 660.905 2.32039 -3.11094 0
M  V30 7124 H 659.006 3.59008 -0.99721 0
M  V30 7125 H 659.119 3.84016 -2.86477 0
M  V30 7126 H 657.483 2.0979 -1.44431 0
M  V30 7127 H 658.266 1.59702 -3.03891 0
M  V30 7128 N 660.711 1.11618 1.11262 0
M  V30 7129 C 661.939 0.888739 1.8684 0
M  V30 7130 C 662.354 -0.561558 1.80255 0
M  V30 7131 O 661.711 -1.38782 1.18515 0
M  V30 7132 C 661.762 1.34422 3.35579 0
M  V30 7133 O 661.483 2.73766 3.42029 0
M  V30 7134 C 662.984 1.15246 4.28058 0
M  V30 7135 H 660.204 0.318152 0.590779 0
M  V30 7136 H 662.748 1.48398 1.40707 0
M  V30 7137 H 660.903 0.79239 3.7921 0
M  V30 7138 H 661.317 2.9355 4.34659 0
M  V30 7139 H 662.791 1.52015 5.30656 0
M  V30 7140 H 663.268 0.0922007 4.39103 0
M  V30 7141 H 663.874 1.69136 3.90222 0
M  V30 7142 N 662.189 -1.289 0.906776 0
M  V30 7143 C 663.099 -2.31256 0.394707 0
M  V30 7144 C 664.115 -1.66231 -0.514121 0
M  V30 7145 O 665.291 -1.97347 -0.401994 0
M  V30 7146 C 662.356 -3.44792 -0.363191 0
M  V30 7147 C 661.417 -4.25391 0.578012 0
M  V30 7148 C 660.65 -5.33506 -0.143811 0
M  V30 7149 O 660.873 -5.53786 -1.36665 0
M  V30 7150 O 659.807 -5.99673 0.5173 0
M  V30 7151 H 663.633 -2.77051 1.24405 0
M  V30 7152 H 661.218 -1.33466 0.671346 0
M  V30 7153 H 663.1 -4.139 -0.791503 0
M  V30 7154 H 661.775 -3.01093 -1.18848 0
M  V30 7155 H 660.682 -3.58899 1.05558 0
M  V30 7156 H 662.015 -4.72752 1.36992 0
M  V30 7157 N 663.667 -0.670007 -1.42649 0
M  V30 7158 C 664.597 -0.00258501 -2.335 0
M  V30 7159 C 665.578 0.794364 -1.50412 0
M  V30 7160 O 666.763 0.75248 -1.79029 0
M  V30 7161 C 663.893 0.952748 -3.33976 0
M  V30 7162 C 662.847 0.264733 -4.2718 0
M  V30 7163 C 662.173 1.33267 -5.17826 0
M  V30 7164 C 663.473 -0.853289 -5.15283 0
M  V30 7165 H 665.167 -0.761326 -2.89559 0
M  V30 7166 H 662.713 -0.367561 -1.3923 0
M  V30 7167 H 664.666 1.4287 -3.96442 0
M  V30 7168 H 663.39 1.74285 -2.7621 0
M  V30 7169 H 662.049 -0.190938 -3.66102 0
M  V30 7170 H 661.697 2.11464 -4.5639 0
M  V30 7171 H 661.397 0.877476 -5.81011 0
M  V30 7172 H 662.921 1.80965 -5.83167 0
M  V30 7173 H 664.335 -0.458763 -5.71462 0
M  V30 7174 H 662.732 -1.23398 -5.87276 0
M  V30 7175 H 663.802 -1.70412 -4.53969 0
M  V30 7176 N 665.145 1.52092 -0.413018 0
M  V30 7177 C 666.392 2.01855 0.161497 0
M  V30 7178 C 666.72 1.29845 1.44812 0
M  V30 7179 O 665.975 0.394471 1.91683 0
M  V30 7180 C 666.274 3.54529 0.4521 0
M  V30 7181 C 665.94 4.4469 -0.745788 0
M  V30 7182 C 664.602 4.69053 -1.07435 0
M  V30 7183 C 666.954 4.97742 -1.54604 0
M  V30 7184 C 664.282 5.43717 -2.20429 0
M  V30 7185 C 666.634 5.73642 -2.66678 0
M  V30 7186 C 665.298 5.96277 -3.00016 0
M  V30 7187 H 664.568 0.73864 0.0590961 0
M  V30 7188 H 667.215 1.83274 -0.555234 0
M  V30 7189 H 665.52 3.7131 1.25045 0
M  V30 7190 H 667.217 3.90546 0.909647 0
M  V30 7191 H 663.807 4.25907 -0.479725 0
M  V30 7192 H 667.991 4.78824 -1.30543 0
M  V30 7193 H 663.247 5.59462 -2.46602 0
M  V30 7194 H 667.421 6.13746 -3.29072 0
M  V30 7195 H 665.048 6.53913 -3.87688 0
M  V30 7196 N 666.623 0.143563 1.56945 0
M  V30 7197 C 668.034 -0.37783 1.82837 0
M  V30 7198 C 668.385 -1.64967 1.06209 0
M  V30 7199 O 667.51 -2.14221 0.306291 0
M  V30 7200 C 668.105 -0.692274 3.31652 0
M  V30 7201 C 666.664 -1.1582 3.58138 0
M  V30 7202 C 665.811 -0.17951 2.76718 0
M  V30 7203 H 668.762 0.368317 1.54367 0
M  V30 7204 H 668.783 -1.54729 3.47619 0
M  V30 7205 H 668.295 0.233572 3.87397 0
M  V30 7206 H 666.396 -2.10011 3.07776 0
M  V30 7207 H 666.509 -1.08655 4.66616 0
M  V30 7208 H 664.873 -0.671458 2.4569 0
M  V30 7209 H 665.656 0.739865 3.35233 0
M  V30 7210 N 668.101 -1.57061 -0.130224 0
M  V30 7211 C 669.512 -1.73539 -0.68856 0
M  V30 7212 C 669.863 -0.760554 -1.80859 0
M  V30 7213 O 668.988 0.0690796 -2.1629 0
M  V30 7214 C 669.583 -3.14666 -1.25581 0
M  V30 7215 C 668.142 -3.32689 -1.76055 0
M  V30 7216 C 667.289 -2.69436 -0.655712 0
M  V30 7217 H 670.24 -1.58412 0.0956002 0
M  V30 7218 H 670.261 -3.15595 -2.12556 0
M  V30 7219 H 669.773 -3.85593 -0.440412 0
M  V30 7220 H 667.874 -2.66786 -2.60108 0
M  V30 7221 H 667.987 -4.4077 -1.87772 0
M  V30 7222 H 666.351 -2.30362 -1.08654 0
M  V30 7223 H 667.134 -3.42979 0.14852 0
M  V30 7224 N 669.579 0.400081 -1.52437 0
M  V30 7225 C 670.509 1.4947 -1.7939 0
M  V30 7226 C 671.49 1.57383 -0.645329 0
M  V30 7227 O 672.675 1.72511 -0.891826 0
M  V30 7228 C 669.805 2.87201 -1.95276 0
M  V30 7229 C 668.759 2.94134 -3.10917 0
M  V30 7230 C 668.085 4.34207 -3.1204 0
M  V30 7231 C 669.385 2.64791 -4.50203 0
M  V30 7232 H 671.079 1.27165 -2.71052 0
M  V30 7233 H 668.625 0.610312 -1.30427 0
M  V30 7234 H 670.578 3.63772 -2.12715 0
M  V30 7235 H 669.302 3.10819 -1.00294 0
M  V30 7236 H 667.961 2.20009 -2.93243 0
M  V30 7237 H 667.609 4.54848 -2.14761 0
M  V30 7238 H 667.309 4.39768 -3.89715 0
M  V30 7239 H 668.833 5.127 -3.31619 0
M  V30 7240 H 670.247 3.31083 -4.68035 0
M  V30 7241 H 668.644 2.81717 -5.29864 0
M  V30 7242 H 669.714 1.60184 -4.57678 0
M  V30 7243 N 671.057 1.43213 0.657864 0
M  V30 7244 C 672.304 1.44584 1.41781 0
M  V30 7245 C 672.632 0.0684208 1.9438 0
M  V30 7246 O 671.887 -0.925872 1.72413 0
M  V30 7247 C 672.186 2.43143 2.61947 0
M  V30 7248 C 671.852 3.89128 2.27794 0
M  V30 7249 C 670.514 4.28889 2.18191 0
M  V30 7250 C 672.866 4.81144 2.00375 0
M  V30 7251 C 670.194 5.58625 1.79319 0
M  V30 7252 C 672.546 6.11239 1.63003 0
M  V30 7253 C 671.21 6.49981 1.51922 0
M  V30 7254 H 670.48 0.529069 0.518813 0
M  V30 7255 H 673.127 1.76263 0.748577 0
M  V30 7256 H 671.432 2.04851 3.33981 0
M  V30 7257 H 673.129 2.4146 3.20153 0
M  V30 7258 H 669.719 3.57657 2.36176 0
M  V30 7259 H 673.903 4.512 2.06718 0
M  V30 7260 H 669.159 5.87486 1.69323 0
M  V30 7261 H 673.333 6.82014 1.40817 0
M  V30 7262 H 670.96 7.50416 1.21572 0
M  V30 7263 N 672.536 -0.895792 1.29666 0
M  V30 7264 C 673.466 -2.01673 1.17688 0
M  V30 7265 C 674.447 -1.69955 0.0701317 0
M  V30 7266 O 675.632 -1.9258 0.250289 0
M  V30 7267 C 672.762 -3.36568 0.856681 0
M  V30 7268 C 671.716 -3.82509 1.92017 0
M  V30 7269 C 671.042 -5.14574 1.4532 0
M  V30 7270 C 672.342 -4.02409 3.32963 0
M  V30 7271 H 674.036 -2.11953 2.11463 0
M  V30 7272 H 671.582 -1.01839 1.01807 0
M  V30 7273 H 673.535 -4.14498 0.759577 0
M  V30 7274 H 672.259 -3.26391 -0.116763 0
M  V30 7275 H 670.918 -3.068 2.00673 0
M  V30 7276 H 670.566 -5.00815 0.468325 0
M  V30 7277 H 670.266 -5.46283 2.16447 0
M  V30 7278 H 671.79 -5.9504 1.36968 0
M  V30 7279 H 673.204 -4.70808 3.27127 0
M  V30 7280 H 671.601 -4.45478 4.02082 0
M  V30 7281 H 672.671 -3.06616 3.75652 0
M  V30 7282 N 674.014 -1.12206 -1.10668 0
M  V30 7283 C 674.924 -0.800686 -2.20513 0
M  V30 7284 C 675.94 0.209512 -1.72734 0
M  V30 7285 O 677.116 0.043705 -2.01353 0
M  V30 7286 C 674.181 -0.257353 -3.45744 0
M  V30 7287 C 673.242 -1.32718 -4.0827 0
M  V30 7288 C 672.475 -0.809674 -5.27522 0
M  V30 7289 O 672.698 0.35742 -5.69279 0
M  V30 7290 O 671.632 -1.57816 -5.80842 0
M  V30 7291 H 675.458 -1.71807 -2.50432 0
M  V30 7292 H 673.043 -0.898546 -1.19359 0
M  V30 7293 H 674.925 0.0408849 -4.2138 0
M  V30 7294 H 673.6 0.632627 -3.17458 0
M  V30 7295 H 672.507 -1.67855 -3.34329 0
M  V30 7296 H 673.84 -2.19083 -4.40753 0
M  V30 7297 N 675.492 1.28418 -0.913599 0
M  V30 7298 C 676.738 1.9527 -0.547484 0
M  V30 7299 C 677.071 1.71745 0.906486 0
M  V30 7300 O 676.346 1.03834 1.64465 0
M  V30 7301 C 676.629 3.49748 -0.857205 0
M  V30 7302 C 676.482 3.82675 -2.3639 0
M  V30 7303 C 677.801 4.3868 -0.353258 0
M  V30 7304 H 674.92 0.709236 -0.200381 0
M  V30 7305 H 677.562 1.51789 -1.14281 0
M  V30 7306 H 675.712 3.86915 -0.350548 0
M  V30 7307 H 677.384 3.55378 -2.94116 0
M  V30 7308 H 675.627 3.29724 -2.81894 0
M  V30 7309 H 676.298 4.90547 -2.53115 0
M  V30 7310 H 678.774 4.08584 -0.787288 0
M  V30 7311 H 677.65 5.45621 -0.599049 0
M  V30 7312 H 677.911 4.35753 0.746413 0
M  V30 7313 N 676.97 0.677563 1.42291 0
M  V30 7314 C 678.217 0.200975 2.015 0
M  V30 7315 C 678.545 -1.19342 1.53583 0
M  V30 7316 O 677.8 -1.81579 0.7299 0
M  V30 7317 C 678.099 0.187229 3.56909 0
M  V30 7318 C 677.765 1.52667 4.24268 0
M  V30 7319 C 676.427 1.89341 4.42384 0
M  V30 7320 C 678.779 2.40869 4.62203 0
M  V30 7321 C 676.107 3.13836 4.95705 0
M  V30 7322 C 678.459 3.64679 5.16906 0
M  V30 7323 C 677.123 4.01519 5.33234 0
M  V30 7324 H 676.393 0.0735418 0.737342 0
M  V30 7325 H 679.04 0.873095 1.70439 0
M  V30 7326 H 677.345 -0.568407 3.87655 0
M  V30 7327 H 679.042 -0.198773 4.00507 0
M  V30 7328 H 675.632 1.23138 4.1053 0
M  V30 7329 H 679.816 2.1382 4.47878 0
M  V30 7330 H 675.072 3.42396 5.06532 0
M  V30 7331 H 679.246 4.33224 5.45243 0
M  V30 7332 H 676.873 4.98062 5.74316 0
M  V30 7333 N 678.448 -1.51871 0.421078 0
M  V30 7334 C 679.358 -2.31077 -0.405069 0
M  V30 7335 C 680.374 -1.39301 -1.04265 0
M  V30 7336 O 681.55 -1.72376 -1.04157 0
M  V30 7337 C 678.615 -3.12556 -1.50032 0
M  V30 7338 C 677.676 -4.20088 -0.884559 0
M  V30 7339 C 676.909 -4.97673 -1.92762 0
M  V30 7340 O 677.132 -4.75696 -3.14753 0
M  V30 7341 O 676.066 -5.82203 -1.52719 0
M  V30 7342 H 679.892 -3.02742 0.241086 0
M  V30 7343 H 677.477 -1.48263 0.183991 0
M  V30 7344 H 679.359 -3.6326 -2.13589 0
M  V30 7345 H 678.034 -2.43672 -2.13086 0
M  V30 7346 H 676.941 -3.73502 -0.211379 0
M  V30 7347 H 678.274 -4.91298 -0.297763 0
M  V30 7348 N 679.926 -0.151884 -1.56866 0
M  V30 7349 C 681.203 0.543328 -1.87902 0
M  V30 7350 C 681.583 1.82636 -1.05864 0
M  V30 7351 O 680.931 2.28028 -0.146868 0
M  V30 7352 C 681.141 0.804056 -3.39611 0
M  V30 7353 C 682.489 1.14267 -4.08935 0
M  V30 7354 O 683.513 0.893248 -3.44818 0
M  V30 7355 O 682.372 1.61229 -5.22176 0
M  V30 7356 H 679.466 0.277724 -0.778973 0
M  V30 7357 H 682.012 -0.188862 -1.68646 0
M  V30 7358 H 680.784 -0.103772 -3.91162 0
M  V30 7359 H 680.407 1.59025 -3.64413 0
M  V30 7360 O 681.443 1.61494 -0.0134355 0
M  V30 7361 H 682.134 1.84128 0.601368 0
M  V30 END ATOM
M  V30 BEGIN BOND
M  V30 END BOND
M  V30 END CTAB
M  END
$$$$
