drugbank_target|P10943 Hut operon positive regulatory protein (DB01938)
 OpenBabel12092119513D

  0  0  0     0  0            999 V3000
M  V30 BEGIN CTAB
M  V30 COUNTS 2285 2303 0 0 0
M  V30 BEGIN ATOM
M  V30 1 H -0.908 1.98254 -0.117106 0
M  V30 2 N 0 1.576 0 0
M  V30 3 C 0.933 2.03868 1.02534 0
M  V30 4 C 1.911 0.928543 1.3348 0
M  V30 5 O 3.095 1.19667 1.45644 0
M  V30 6 C 0.222 2.43627 2.35294 0
M  V30 7 C -0.732 3.65373 2.2001 0
M  V30 8 S 0.101 5.13292 1.52614 0
M  V30 9 C 1.257 5.56322 2.86805 0
M  V30 10 H 1.49 2.90518 0.631377 0
M  V30 11 H -0.977 1.52953 0.210867 0
M  V30 12 H 0.981 2.67203 3.11629 0
M  V30 13 H -0.358 1.57376 2.7183 0
M  V30 14 H -1.165 3.90944 3.18086 0
M  V30 15 H -1.563 3.418 1.51819 0
M  V30 16 H 0.729 5.58782 3.83104 0
M  V30 17 H 1.672 6.56266 2.65933 0
M  V30 18 H 2.08 4.83886 2.90714 0
M  V30 19 N 1.4781 -0.272755 1.55222 0
M  V30 20 C 2.7061 -1.02255 1.79865 0
M  V30 21 C 3.1211 -1.79924 0.572088 0
M  V30 22 O 2.4781 -1.76638 -0.458842 0
M  V30 23 C 2.5291 -1.98094 3.02392 0
M  V30 24 O 2.2501 -1.23572 4.20311 0
M  V30 25 C 3.7511 -2.84884 3.39641 0
M  V30 26 H 0.9711 -0.302057 0.599168 0
M  V30 27 H 3.5151 -0.303465 2.02236 0
M  V30 28 H 1.6701 -2.65465 2.82147 0
M  V30 29 H 2.0841 -1.88172 4.89583 0
M  V30 30 H 3.5581 -3.47927 4.28545 0
M  V30 31 H 4.0351 -3.54665 2.59055 0
M  V30 32 H 4.6411 -2.23003 3.62146 0
M  V30 33 N 2.9562 -1.48159 -0.537278 0
M  V30 34 C 3.8862 -1.65029 -1.6519 0
M  V30 35 C 4.8672 -0.499281 -1.62607 0
M  V30 36 O 6.0522 -0.730972 -1.79918 0
M  V30 37 C 3.1822 -1.68303 -3.03795 0
M  V30 38 C 2.1362 -2.8283 -3.21234 0
M  V30 39 C 1.4622 -2.71189 -4.60826 0
M  V30 40 C 2.7622 -4.24211 -3.04701 0
M  V30 41 H 4.4562 -2.58341 -1.51328 0
M  V30 42 H 2.0022 -1.24325 -0.726585 0
M  V30 43 H 3.9552 -1.78693 -3.81637 0
M  V30 44 H 2.6792 -0.715635 -3.18663 0
M  V30 45 H 1.3382 -2.71983 -2.45807 0
M  V30 46 H 0.9862 -1.72435 -4.7252 0
M  V30 47 H 0.6862 -3.48035 -4.7344 0
M  V30 48 H 2.2102 -2.83537 -5.40777 0
M  V30 49 H 3.6242 -4.3593 -3.72341 0
M  V30 50 H 2.0212 -5.01998 -3.28813 0
M  V30 51 H 3.0912 -4.41184 -2.01209 0
M  V30 52 N 4.4343 0.785586 -1.36625 0
M  V30 53 C 5.3843 1.88822 -1.27789 0
M  V30 54 C 6.3683 1.60014 -0.168579 0
M  V30 55 O 7.5603 1.72381 -0.401737 0
M  V30 56 C 4.6893 3.26092 -1.07327 0
M  V30 57 C 3.7753 3.60897 -2.22743 0
M  V30 58 N 4.1663 3.66982 -3.48077 0
M  V30 59 C 2.4643 3.90981 -2.14593 0
M  V30 60 C 3.1653 3.98137 -4.24101 0
M  V30 61 N 2.1413 4.13319 -3.53084 0
M  V30 62 H 5.9433 1.91759 -2.22723 0
M  V30 63 H 3.4573 0.981311 -1.29399 0
M  V30 64 H 5.4543 4.04954 -0.990842 0
M  V30 65 H 4.1143 3.24428 -0.132977 0
M  V30 66 H 5.1253 3.49531 -3.82163 0
M  V30 67 H 1.8023 3.9722 -1.2854 0
M  V30 68 H 3.1923 4.09737 -5.32509 0
M  V30 69 N 5.9124 1.20967 1.01018 0
M  V30 70 C 6.8594 0.964281 2.09691 0
M  V30 71 C 7.8294 -0.107853 1.65749 0
M  V30 72 O 9.0144 0.0381987 1.90762 0
M  V30 73 C 6.1544 0.52943 3.41015 0
M  V30 74 C 5.2674 1.67043 3.98398 0
M  V30 75 C 4.4024 1.18525 5.17808 0
M  V30 76 C 3.4414 2.29892 5.67288 0
M  V30 77 N 2.5784 1.82546 6.77954 0
M  V30 78 H 7.4184 1.89463 2.30017 0
M  V30 79 H 4.9554 0.944289 1.1279 0
M  V30 80 H 6.9134 0.258588 4.16398 0
M  V30 81 H 5.5434 -0.363919 3.20742 0
M  V30 82 H 4.5954 2.05603 3.20049 0
M  V30 83 H 5.9074 2.50877 4.31117 0
M  V30 84 H 5.0614 0.870762 6.00419 0
M  V30 85 H 3.8004 0.316887 4.86669 0
M  V30 86 H 2.8054 2.6215 4.83278 0
M  V30 87 H 4.0304 3.17216 6.00459 0
M  V30 88 H 1.9764 0.980454 6.48632 0
M  V30 89 H 1.8934 2.59956 7.09901 0
M  V30 90 H 3.1614 1.54115 7.64113 0
M  V30 91 N 7.3905 -1.2043 1.01659 0
M  V30 92 C 8.3005 -2.2689 0.596484 0
M  V30 93 C 9.3165 -1.70107 -0.36599 0
M  V30 94 O 10.4925 -2.00117 -0.226942 0
M  V30 95 C 7.5575 -3.4665 -0.0586659 0
M  V30 96 C 6.6185 -4.18662 0.949751 0
M  V30 97 C 5.8515 -5.32705 0.32577 0
M  V30 98 O 6.0745 -5.63656 -0.874509 0
M  V30 99 O 5.0085 -5.92803 1.04249 0
M  V30 100 H 8.8345 -2.65041 1.4828 0
M  V30 101 H 6.4195 -1.27048 0.786082 0
M  V30 102 H 8.3015 -4.19256 -0.424564 0
M  V30 103 H 6.9765 -3.10375 -0.91918 0
M  V30 104 H 5.8835 -3.48229 1.36702 0
M  V30 105 H 7.2165 -4.58878 1.78023 0
M  V30 106 N 8.8686 -0.792821 -1.36206 0
M  V30 107 C 10.2846 -0.474903 -1.52371 0
M  V30 108 C 10.4846 1.00622 -1.74578 0
M  V30 109 O 9.5406 1.79162 -1.77924 0
M  V30 110 C 10.8536 -1.3083 -2.70747 0
M  V30 111 C 12.4016 -1.30234 -2.84619 0
M  V30 112 C 12.8766 -2.11956 -4.06004 0
M  V30 113 N 14.3676 -2.09419 -4.13156 0
M  V30 114 C 15.1026 -2.69419 -5.06163 0
M  V30 115 N 14.5986 -3.3829 -6.04592 0
M  V30 116 N 16.3916 -2.59134 -4.98804 0
M  V30 117 H 8.5426 -1.75222 -1.20046 0
M  V30 118 H 10.8056 -0.745024 -0.586211 0
M  V30 119 H 10.5116 -2.35881 -2.6087 0
M  V30 120 H 10.3856 -0.95196 -3.6499 0
M  V30 121 H 12.7726 -0.259748 -2.93955 0
M  V30 122 H 12.8536 -1.69847 -1.91274 0
M  V30 123 H 12.4976 -3.16248 -3.97429 0
M  V30 124 H 12.4276 -1.69711 -4.98503 0
M  V30 125 H 14.9186 -1.59297 -3.42685 0
M  V30 126 H 15.2316 -3.81394 -6.7213 0
M  V30 127 H 13.5766 -3.42393 -6.04807 0
M  V30 128 H 16.7676 -2.04927 -4.20859 0
M  V30 129 H 16.9406 -3.06185 -5.711 0
M  V30 130 N 10.3467 1.47872 -0.545128 0
M  V30 131 C 11.7627 1.5829 -0.204032 0
M  V30 132 C 11.9627 1.54529 1.29317 0
M  V30 133 O 11.0187 1.44232 2.07252 0
M  V30 134 C 12.3317 2.89304 -0.819987 0
M  V30 135 C 13.8797 3.02864 -0.790105 0
M  V30 136 C 14.3547 4.3656 -1.38491 0
M  V30 137 N 15.8457 4.43165 -1.34755 0
M  V30 138 C 16.5807 5.45153 -1.77753 0
M  V30 139 N 16.0767 6.54016 -2.2855 0
M  V30 140 N 17.8697 5.36125 -1.68897 0
M  V30 141 H 10.0207 1.4856 -1.51802 0
M  V30 142 H 12.2837 0.706305 -0.632327 0
M  V30 143 H 11.9897 2.97757 -1.87173 0
M  V30 144 H 11.8637 3.75957 -0.305915 0
M  V30 145 H 14.2507 2.94014 0.252913 0
M  V30 146 H 14.3317 2.17782 -1.34181 0
M  V30 147 H 13.9757 4.46164 -2.42693 0
M  V30 148 H 13.9057 5.20353 -0.808754 0
M  V30 149 H 16.3967 3.65083 -0.975855 0
M  V30 150 H 16.7097 7.27994 -2.59314 0
M  V30 151 H 15.0547 6.54938 -2.32553 0
M  V30 152 H 18.2457 4.49975 -1.28998 0
M  V30 153 H 18.4187 6.15472 -2.02726 0
M  V30 154 N 11.8248 0.280983 1.55075 0
M  V30 155 C 13.0738 -0.334784 1.98902 0
M  V30 156 C 13.3868 -1.56534 1.17288 0
M  V30 157 O 14.5928 -2.25443 1.51287 0
M  V30 158 C 13.0488 -0.646994 3.54037 0
M  V30 159 C 12.6568 0.564085 4.44435 0
M  V30 160 C 14.4008 -1.22506 4.06439 0
M  V30 161 C 12.3078 0.226137 5.90967 0
M  V30 162 H 11.2378 -0.128866 0.742906 0
M  V30 163 H 13.8888 0.386556 1.79382 0
M  V30 164 H 12.2708 -1.42739 3.6938 0
M  V30 165 H 13.4448 1.34082 4.40861 0
M  V30 166 H 11.7598 1.0594 4.02698 0
M  V30 167 H 14.3568 -1.49182 5.13468 0
M  V30 168 H 14.6998 -2.16085 3.55827 0
M  V30 169 H 15.2328 -0.50682 3.94558 0
M  V30 170 H 11.9718 1.12996 6.45687 0
M  V30 171 H 11.4918 -0.513717 5.97596 0
M  V30 172 H 13.1708 -0.179539 6.46751 0
M  V30 173 N 13.3029 -1.57598 0.00835791 0
M  V30 174 C 14.5509 -1.90551 -0.6734 0
M  V30 175 C 14.8719 -0.883301 -1.73847 0
M  V30 176 O 14.1419 0.0781442 -1.95744 0
M  V30 177 H 12.7219 -0.703312 -0.251717 0
M  V30 178 H 15.3839 -1.94833 0.0512592 0
M  V30 179 H 14.4799 -2.9056 -1.13935 0
M  V30 180 N 14.781 0.264519 -1.55364 0
M  V30 181 C 16.197 0.61215 -1.47394 0
M  V30 182 C 16.397 1.89134 -0.695018 0
M  V30 183 O 15.453 2.51563 -0.217275 0
M  V30 184 C 16.766 0.731235 -2.91674 0
M  V30 185 C 18.314 0.82473 -3.01939 0
M  V30 186 C 18.789 0.975522 -4.4749 0
M  V30 187 N 20.28 1.04083 -4.51354 0
M  V30 188 C 21.015 1.17646 -5.61201 0
M  V30 189 N 20.511 1.27874 -6.80896 0
M  V30 190 N 22.304 1.20823 -5.48961 0
M  V30 191 H 14.455 -0.575456 -2.04456 0
M  V30 192 H 16.718 -0.196099 -0.927496 0
M  V30 193 H 16.424 -0.138392 -3.51428 0
M  V30 194 H 16.298 1.60883 -3.41169 0
M  V30 195 H 18.685 1.68482 -2.42276 0
M  V30 196 H 18.766 -0.0776479 -2.55682 0
M  V30 197 H 18.41 0.120058 -5.07758 0
M  V30 198 H 18.34 1.89268 -4.91412 0
M  V30 199 H 20.831 0.973846 -3.65136 0
M  V30 200 H 21.144 1.38081 -7.60364 0
M  V30 201 H 19.489 1.24863 -6.83692 0
M  V30 202 H 22.68 1.12469 -4.54388 0
M  V30 203 H 22.853 1.31049 -6.3461 0
M  V30 204 N 16.2591 1.48442 0.529413 0
M  V30 205 C 17.1891 1.65902 1.64313 0
M  V30 206 C 18.1701 0.507897 1.6234 0
M  V30 207 O 19.3551 0.740503 1.79528 0
M  V30 208 C 16.4851 1.69911 3.02898 0
M  V30 209 C 15.4391 2.8453 3.19729 0
M  V30 210 C 14.7651 2.73629 4.59381 0
M  V30 211 C 16.0651 4.25821 3.02447 0
M  V30 212 H 17.7591 2.5914 1.49955 0
M  V30 213 H 15.3051 1.24709 0.719982 0
M  V30 214 H 17.2581 1.80715 3.80684 0
M  V30 215 H 15.9821 0.732524 3.18279 0
M  V30 216 H 14.6411 2.73283 2.44361 0
M  V30 217 H 14.2891 1.74938 4.71599 0
M  V30 218 H 13.9891 3.50541 4.71588 0
M  V30 219 H 15.5131 2.86401 5.39265 0
M  V30 220 H 16.9271 4.37898 3.70024 0
M  V30 221 H 15.3241 5.03735 3.26146 0
M  V30 222 H 16.3941 4.42244 1.98867 0
M  V30 223 N 17.7372 -0.778329 1.37039 0
M  V30 224 C 18.9622 -1.57248 1.35233 0
M  V30 225 C 19.3872 -1.87999 -0.0615568 0
M  V30 226 O 18.7452 -1.48734 -1.03672 0
M  V30 227 C 18.7932 -2.86353 2.19167 0
M  V30 228 O 17.8972 -3.80442 1.59178 0
M  V30 229 H 17.2382 -0.476569 0.462362 0
M  V30 230 H 19.7682 -0.963853 1.80474 0
M  V30 231 H 19.7782 -3.35519 2.32145 0
M  V30 232 H 18.4532 -2.63299 3.21942 0
M  V30 233 H 17.0302 -3.39067 1.55203 0
M  V30 234 N 19.2153 -1.21501 -1.00376 0
M  V30 235 C 20.4613 -1.03452 -1.74429 0
M  V30 236 C 20.7943 0.430764 -1.89362 0
M  V30 237 O 20.0693 1.31962 -1.42886 0
M  V30 238 C 20.3523 -1.73375 -3.15615 0
M  V30 239 C 20.2053 -3.27431 -3.08397 0
M  V30 240 C 21.5243 -1.47732 -4.14564 0
M  V30 241 H 18.6433 -0.377226 -0.633143 0
M  V30 242 H 21.2853 -1.49693 -1.17013 0
M  V30 243 H 19.4353 -1.34064 -3.64636 0
M  V30 244 H 21.1073 -3.76119 -2.67081 0
M  V30 245 H 19.3503 -3.5767 -2.45468 0
M  V30 246 H 20.0213 -3.71524 -4.08258 0
M  V30 247 H 22.4973 -1.8186 -3.74254 0
M  V30 248 H 21.3733 -1.99169 -5.11491 0
M  V30 249 H 21.6343 -0.407589 -4.40217 0
M  V30 250 N 20.6934 1.19889 -1.02296 0
M  V30 251 C 21.6234 2.25141 -0.619174 0
M  V30 252 C 22.6044 1.66051 0.368915 0
M  V30 253 O 23.7894 1.92546 0.252941 0
M  V30 254 C 20.9194 3.4728 0.0368783 0
M  V30 255 C 19.8734 4.19005 -0.872865 0
M  V30 256 C 19.1994 5.34637 -0.0822402 0
M  V30 257 C 20.4994 4.74452 -2.18387 0
M  V30 258 H 22.1934 2.59171 -1.49903 0
M  V30 259 H 19.7394 1.24579 -0.722222 0
M  V30 260 H 21.6924 4.20098 0.330958 0
M  V30 261 H 20.4164 3.12433 0.95149 0
M  V30 262 H 19.0754 3.48061 -1.15105 0
M  V30 263 H 18.7234 4.96034 0.83422 0
M  V30 264 H 18.4234 5.83557 -0.688149 0
M  V30 265 H 19.9474 6.10255 0.205238 0
M  V30 266 H 21.3614 5.39055 -1.95172 0
M  V30 267 H 19.7584 5.33834 -2.74119 0
M  V30 268 H 20.8284 3.92844 -2.84257 0
M  V30 269 N 22.1715 0.800033 1.35784 0
M  V30 270 C 23.1015 0.220184 2.3246 0
M  V30 271 C 24.0825 -0.65073 1.57161 0
M  V30 272 O 25.2675 -0.582359 1.85263 0
M  V30 273 C 22.3975 -0.637353 3.41402 0
M  V30 274 C 21.3515 0.134531 4.27789 0
M  V30 275 C 20.6775 -0.844285 5.27992 0
M  V30 276 C 21.9775 1.32979 5.05088 0
M  V30 277 H 23.6715 1.02787 2.81203 0
M  V30 278 H 21.2175 0.495717 1.35199 0
M  V30 279 H 23.1705 -1.05302 4.08031 0
M  V30 280 H 21.8945 -1.47785 2.91251 0
M  V30 281 H 20.5535 0.531296 3.6273 0
M  V30 282 H 20.2015 -1.68011 4.74111 0
M  V30 283 H 19.9015 -0.332184 5.8666 0
M  V30 284 H 21.4255 -1.2583 5.97494 0
M  V30 285 H 22.8395 0.98934 5.64699 0
M  V30 286 H 21.2365 1.77593 5.7322 0
M  V30 287 H 22.3065 2.11978 4.36111 0
M  V30 288 N 23.6496 -1.47581 0.552962 0
M  V30 289 C 24.5796 -2.32762 -0.185451 0
M  V30 290 C 25.5606 -1.43527 -0.912905 0
M  V30 291 O 26.7456 -1.72388 -0.894201 0
M  V30 292 C 23.8756 -3.25219 -1.21859 0
M  V30 293 C 22.8296 -4.23661 -0.607864 0
M  V30 294 C 22.1556 -5.05413 -1.74533 0
M  V30 295 C 23.4556 -5.20481 0.435582 0
M  V30 296 H 25.1496 -2.94749 0.525684 0
M  V30 297 H 22.6956 -1.41738 0.254251 0
M  V30 298 H 24.6486 -3.8365 -1.7433 0
M  V30 299 H 23.3726 -2.61279 -1.95961 0
M  V30 300 H 22.0316 -3.66451 -0.104489 0
M  V30 301 H 21.6796 -4.3788 -2.47529 0
M  V30 302 H 21.3796 -5.72059 -1.34249 0
M  V30 303 H 22.9036 -5.66701 -2.27338 0
M  V30 304 H 24.3176 -5.733 -0.00290157 0
M  V30 305 H 22.7146 -5.95305 0.757067 0
M  V30 306 H 23.7846 -4.66217 1.33303 0
M  V30 307 N 25.1277 -0.289203 -1.54924 0
M  V30 308 C 26.0577 0.58549 -2.2604 0
M  V30 309 C 27.0387 1.14753 -1.25562 0
M  V30 310 O 28.2237 1.17906 -1.54311 0
M  V30 311 C 25.3537 1.76305 -2.99222 0
M  V30 312 C 24.3077 1.33191 -4.06748 0
M  V30 313 C 23.6337 2.5937 -4.6758 0
M  V30 314 C 24.9337 0.471775 -5.20165 0
M  V30 315 H 26.6277 -0.00763532 -2.99399 0
M  V30 316 H 24.1737 -0.00511229 -1.43999 0
M  V30 317 H 26.1267 2.38097 -3.47689 0
M  V30 318 H 24.8507 2.38223 -2.23422 0
M  V30 319 H 23.5097 0.737121 -3.59113 0
M  V30 320 H 23.1577 3.19576 -3.88433 0
M  V30 321 H 22.8577 2.31228 -5.40192 0
M  V30 322 H 24.3817 3.21985 -5.18804 0
M  V30 323 H 25.7957 0.995056 -5.64599 0
M  V30 324 H 24.1927 0.284639 -5.99425 0
M  V30 325 H 25.2627 -0.506041 -4.82252 0
M  V30 326 N 26.6058 1.57591 -0.0167156 0
M  V30 327 C 27.5538 2.10604 0.987353 0
M  V30 328 C 28.5478 1.02977 1.34507 0
M  V30 329 O 29.7538 1.21425 1.32875 0
M  V30 330 H 26.1288 0.672695 0.336134 0
M  V30 331 H 28.0998 2.93925 0.514817 0
M  V30 332 C 26.8488 2.6382 2.26483 0
M  V30 333 H 26.1718 3.46278 1.99829 0
M  V30 334 H 27.6118 3.04573 2.94977 0
M  V30 335 C 26.0708 1.55992 2.9861 0
M  V30 336 O 26.6008 0.952521 3.90243 0
M  V30 337 N 24.8068 1.28335 2.60727 0
M  V30 338 H 24.3538 1.77914 1.86291 0
M  V30 339 H 24.3118 0.564115 3.09298 0
M  V30 340 N 28.0839 -0.256276 1.55502 0
M  V30 341 C 28.9939 -1.33882 1.92647 0
M  V30 342 C 30.0099 -1.53159 0.825727 0
M  V30 343 O 31.1859 -1.66963 1.12629 0
M  V30 344 C 28.2509 -2.6751 2.20543 0
M  V30 345 C 27.3119 -2.56836 3.43997 0
M  V30 346 C 26.5449 -3.84092 3.70553 0
M  V30 347 O 26.7679 -4.85545 2.99336 0
M  V30 348 O 25.7019 -3.83288 4.64084 0
M  V30 349 H 29.5279 -1.05374 2.84833 0
M  V30 350 H 27.1129 -0.456237 1.42263 0
M  V30 351 H 28.9949 -3.46492 2.39835 0
M  V30 352 H 27.6699 -2.9577 1.31536 0
M  V30 353 H 26.5769 -1.76172 3.30021 0
M  V30 354 H 27.9099 -2.33523 4.33275 0
M  V30 355 N 29.562 -1.4872 -0.521534 0
M  V30 356 C 30.525 -1.63379 -1.60748 0
M  V30 357 C 31.525 -0.50661 -1.52611 0
M  V30 358 O 32.715 -0.772601 -1.5613 0
M  V30 359 C 29.847 -1.61192 -3.00383 0
M  V30 360 H 31.04 -2.60217 -1.49087 0
M  V30 361 H 28.593 -1.37444 -0.744235 0
M  V30 362 H 29.328 -0.65863 -3.17541 0
M  V30 363 H 29.113 -2.43032 -3.07698 0
M  V30 364 H 30.603 -1.7466 -3.7932 0
M  V30 365 N 31.0401 0.771051 -1.3745 0
M  V30 366 C 31.9501 1.91538 -1.35464 0
M  V30 367 C 32.9661 1.72134 -0.254123 0
M  V30 368 O 34.1421 1.95358 -0.489626 0
M  V30 369 C 31.2071 3.26671 -1.16134 0
M  V30 370 C 30.2681 3.58723 -2.35831 0
M  V30 371 C 29.5011 4.87409 -2.17413 0
M  V30 372 O 29.7241 5.58506 -1.15876 0
M  V30 373 O 28.6581 5.18539 -3.05615 0
M  V30 374 H 32.4841 1.96165 -2.31847 0
M  V30 375 H 30.0691 0.9139 -1.18187 0
M  V30 376 H 31.9511 4.07499 -1.07345 0
M  V30 377 H 30.6261 3.22894 -0.228251 0
M  V30 378 H 29.5331 2.78127 -2.50192 0
M  V30 379 H 30.8661 3.67243 -3.27709 0
M  V30 380 N 32.5182 1.22032 0.997298 0
M  V30 381 C 33.4282 1.00271 2.12092 0
M  V30 382 C 34.4442 -0.047621 1.73935 0
M  V30 383 O 35.6202 0.144136 2.00884 0
M  V30 384 C 32.6852 0.578449 3.4184 0
M  V30 385 C 31.7462 1.70189 3.94125 0
M  V30 386 C 30.9792 1.29778 5.17681 0
M  V30 387 O 31.2022 0.174676 5.70132 0
M  V30 388 O 30.1362 2.11261 5.63607 0
M  V30 389 H 33.9622 1.94398 2.3333 0
M  V30 390 H 31.5472 1.00587 1.10465 0
M  V30 391 H 33.4292 0.351998 4.19927 0
M  V30 392 H 32.1042 -0.334019 3.21972 0
M  V30 393 H 31.0112 1.98282 3.1723 0
M  V30 394 H 32.3442 2.59206 4.18417 0
M  V30 395 N 33.9963 -1.19345 1.0293 0
M  V30 396 C 35.2213 -1.93538 0.745511 0
M  V30 397 C 35.6463 -1.75007 -0.689511 0
M  V30 398 O 35.0043 -1.05265 -1.47611 0
M  V30 399 C 35.0523 -3.43336 1.10239 0
M  V30 400 O 34.1563 -4.11806 0.221289 0
M  V30 401 H 33.4973 -0.604193 0.275404 0
M  V30 402 H 36.0273 -1.5141 1.37609 0
M  V30 403 H 36.0373 -3.94004 1.05947 0
M  V30 404 H 34.7123 -3.56146 2.14786 0
M  V30 405 H 33.2893 -3.715 0.322842 0
M  V30 406 N 35.4744 -0.807222 -1.35358 0
M  V30 407 C 36.7024 -0.400377 -2.02989 0
M  V30 408 C 37.1174 0.988859 -1.60832 0
M  V30 409 O 36.4744 1.63729 -0.806175 0
M  V30 410 C 36.5254 -0.474867 -3.58368 0
M  V30 411 O 36.2464 -1.80933 -3.98992 0
M  V30 412 C 37.7474 -0.0609112 -4.43258 0
M  V30 413 H 34.9674 -0.162587 -0.651004 0
M  V30 414 H 37.5114 -1.09102 -1.72965 0
M  V30 415 H 35.6664 0.167534 -3.87038 0
M  V30 416 H 36.0804 -1.77256 -4.9364 0
M  V30 417 H 37.5544 -0.164145 -5.51756 0
M  V30 418 H 38.0314 0.993831 -4.27808 0
M  V30 419 H 38.6374 -0.676492 -4.19885 0
M  V30 420 N 36.9525 1.47285 -0.560781 0
M  V30 421 C 37.8845 2.28118 0.222438 0
M  V30 422 C 38.8975 1.37219 0.876056 0
M  V30 423 O 40.0865 1.62011 0.749307 0
M  V30 424 C 37.1865 3.1159 1.33285 0
M  V30 425 C 36.3595 4.30473 0.77534 0
M  V30 426 C 35.4185 4.95513 1.77069 0
M  V30 427 O 34.4445 5.53792 1.31539 0
M  V30 428 N 35.6465 4.90531 3.10418 0
M  V30 429 H 38.4115 2.95976 -0.470958 0
M  V30 430 H 35.9725 1.56955 -0.39709 0
M  V30 431 H 37.9645 3.51967 1.99752 0
M  V30 432 H 36.5345 2.45951 1.92943 0
M  V30 433 H 35.7545 3.94144 -0.0662113 0
M  V30 434 H 37.0425 5.07362 0.382272 0
M  V30 435 H 36.4405 4.44389 3.5005 0
M  V30 436 H 34.9975 5.34917 3.72434 0
M  V30 437 N 38.4306 0.297415 1.54768 0
M  V30 438 C 39.6766 -0.313376 2.00364 0
M  V30 439 C 40.0096 -1.53815 1.18553 0
M  V30 440 O 39.2846 -1.92739 0.261103 0
M  V30 441 C 39.5676 -0.673525 3.53745 0
M  V30 442 C 39.4206 0.560133 4.46299 0
M  V30 443 C 40.7396 -1.50143 4.13697 0
M  V30 444 H 37.8586 -0.112428 0.728374 0
M  V30 445 H 40.5006 0.4088 1.8555 0
M  V30 446 H 38.6506 -1.28881 3.665 0
M  V30 447 H 40.3226 1.19863 4.45455 0
M  V30 448 H 38.5656 1.19405 4.17043 0
M  V30 449 H 39.2366 0.26405 5.51368 0
M  V30 450 H 41.7126 -0.981588 4.04356 0
M  V30 451 H 40.5886 -1.72221 5.21182 0
M  V30 452 H 40.8496 -2.48952 3.65343 0
M  V30 453 N 39.9087 -1.5758 0.0250728 0
M  V30 454 C 40.8187 -2.1343 -0.973905 0
M  V30 455 C 41.8347 -1.08556 -1.35984 0
M  V30 456 O 43.0107 -1.40592 -1.44207 0
M  V30 457 C 40.0757 -2.64703 -2.23904 0
M  V30 458 C 39.1367 -3.84276 -1.91391 0
M  V30 459 C 38.3697 -4.33095 -3.11873 0
M  V30 460 O 38.5927 -3.81107 -4.24398 0
M  V30 461 O 37.5267 -5.24984 -2.94406 0
M  V30 462 H 41.3527 -2.99057 -0.529036 0
M  V30 463 H 38.9377 -1.48118 -0.195288 0
M  V30 464 H 40.8197 -2.97769 -2.98181 0
M  V30 465 H 39.4947 -1.82161 -2.6758 0
M  V30 466 H 38.4017 -3.56143 -1.14511 0
M  V30 467 H 39.7347 -4.67968 -1.52534 0
M  V30 468 N 41.3868 0.248026 -1.55636 0
M  V30 469 C 42.2968 1.32859 -1.93354 0
M  V30 470 C 43.3128 1.52719 -0.833838 0
M  V30 471 O 44.4888 1.66363 -1.13513 0
M  V30 472 C 41.5538 2.66337 -2.21958 0
M  V30 473 C 40.6148 2.55008 -3.45354 0
M  V30 474 C 39.8478 3.82121 -3.72584 0
M  V30 475 O 40.0708 4.83951 -3.01907 0
M  V30 476 O 39.0048 3.80822 -4.6611 0
M  V30 477 H 42.8308 1.03862 -2.85388 0
M  V30 478 H 40.4158 0.448686 -1.42503 0
M  V30 479 H 42.2978 3.45216 -2.4167 0
M  V30 480 H 40.9728 2.95068 -1.33103 0
M  V30 481 H 39.8798 1.7442 -3.30951 0
M  V30 482 H 41.2128 2.31222 -4.34508 0
M  V30 483 N 42.8649 1.48995 0.513639 0
M  V30 484 C 43.7949 1.67636 1.62544 0
M  V30 485 C 44.7759 0.525087 1.61793 0
M  V30 486 O 45.9609 0.759502 1.78732 0
M  V30 487 C 43.0909 1.73114 3.01079 0
M  V30 488 C 42.0449 2.87905 3.16693 0
M  V30 489 C 41.3709 2.78486 4.56453 0
M  V30 490 C 42.6709 4.29005 2.97913 0
M  V30 491 H 44.3649 2.60716 1.47198 0
M  V30 492 H 41.9109 1.25465 0.706714 0
M  V30 493 H 43.8639 1.84742 3.78746 0
M  V30 494 H 42.5879 0.766241 3.17484 0
M  V30 495 H 41.2469 2.75859 2.41448 0
M  V30 496 H 40.8949 1.7993 4.69717 0
M  V30 497 H 40.5949 3.55523 4.67843 0
M  V30 498 H 42.1189 2.92104 5.36197 0
M  V30 499 H 43.5329 4.41798 3.65359 0
M  V30 500 H 41.9299 5.07166 3.20785 0
M  V30 501 H 42.9999 4.44329 1.94165 0
M  V30 502 N 44.343 -0.763751 1.37857 0
M  V30 503 C 45.253 -1.90817 1.36478 0
M  V30 504 C 46.269 -1.71997 0.263248 0
M  V30 505 O 47.445 -1.95095 0.499979 0
M  V30 506 C 44.51 -3.2605 1.17864 0
M  V30 507 C 43.571 -3.57467 2.3773 0
M  V30 508 C 42.804 -4.86249 2.19995 0
M  V30 509 O 43.027 -5.57884 1.18836 0
M  V30 510 O 41.961 -5.16911 3.08361 0
M  V30 511 H 45.787 -1.94933 2.32884 0
M  V30 512 H 43.372 -0.907619 1.1867 0
M  V30 513 H 45.254 -4.06924 1.09504 0
M  V30 514 H 43.929 -3.22769 0.245372 0
M  V30 515 H 42.836 -2.76796 2.51664 0
M  V30 516 H 44.169 -3.655 3.29652 0
M  V30 517 N 45.8211 -1.22559 -0.990812 0
M  V30 518 C 47.2371 -0.985996 -1.255 0
M  V30 519 C 47.4371 0.319173 -1.98956 0
M  V30 520 O 46.4931 1.04127 -2.3003 0
M  V30 521 C 47.8061 -2.18607 -2.06474 0
M  V30 522 C 49.3541 -2.22985 -2.19651 0
M  V30 523 C 49.8291 -3.4255 -3.04012 0
M  V30 524 N 51.3201 -3.42725 -3.11599 0
M  V30 525 C 52.0551 -4.31892 -3.7717 0
M  V30 526 N 51.5511 -5.31279 -4.44651 0
M  V30 527 N 53.3441 -4.19662 -3.73952 0
M  V30 528 H 45.4951 -2.06469 -0.49841 0
M  V30 529 H 47.7581 -0.904853 -0.282747 0
M  V30 530 H 47.4641 -3.13267 -1.59865 0
M  V30 531 H 47.3381 -2.18838 -3.07229 0
M  V30 532 H 49.7251 -1.28871 -2.65474 0
M  V30 533 H 49.8061 -2.26791 -1.18319 0
M  V30 534 H 49.4501 -4.36965 -2.58889 0
M  V30 535 H 49.3801 -3.35984 -4.0549 0
M  V30 536 H 51.8711 -2.70807 -2.63575 0
M  V30 537 H 52.1841 -5.95593 -4.92431 0
M  V30 538 H 50.5291 -5.3519 -4.43392 0
M  V30 539 H 53.7201 -3.41268 -3.20396 0
M  V30 540 H 53.8931 -4.89358 -4.24774 0
M  V30 541 N 47.2992 1.18797 -1.03562 0
M  V30 542 C 48.5762 1.84469 -0.650434 0
M  V30 543 C 48.9562 1.92319 0.870433 0
M  V30 544 O 48.3042 1.44528 1.76986 0
M  V30 545 C 48.5142 3.2306 -1.32036 0
M  V30 546 C 49.8622 3.9915 -1.44792 0
M  V30 547 O 50.8862 3.32481 -1.27806 0
M  V30 548 O 49.7452 5.18587 -1.72423 0
M  V30 549 H 46.8392 0.795251 -0.226946 0
M  V30 550 H 49.3852 1.26231 -1.13419 0
M  V30 551 H 48.1572 3.1222 -2.3587 0
M  V30 552 H 47.7802 3.88949 -0.8249 0
M  V30 553 N 48.7773 0.814389 1.34928 0
M  V30 554 C 50.0253 0.397636 1.9815 0
M  V30 555 C 50.3463 -1.04069 1.64908 0
M  V30 556 O 49.6163 -1.72121 0.93548 0
M  V30 557 H 48.1963 0.144043 0.732981 0
M  V30 558 H 50.8583 1.04195 1.6471 0
M  V30 559 H 49.9543 0.509688 3.0791 0
M  V30 560 N 50.2554 -1.46986 0.568584 0
M  V30 561 C 51.5014 -2.0332 0.0571487 0
M  V30 562 C 51.8564 -1.43384 -1.28291 0
M  V30 563 O 51.1494 -0.584304 -1.82473 0
M  V30 564 C 51.3434 -3.57306 -0.081836 0
M  V30 565 C 51.1724 -4.32174 1.24321 0
M  V30 566 C 49.9424 -4.71633 1.81358 0
M  V30 567 C 52.1404 -4.66598 2.16312 0
M  V30 568 N 50.1224 -5.31191 3.07748 0
M  V30 569 C 51.4934 -5.26578 3.27285 0
M  V30 570 C 53.5484 -4.48527 2.16166 0
M  V30 571 C 52.2514 -5.70395 4.38226 0
M  V30 572 C 54.2774 -4.93351 3.26127 0
M  V30 573 C 53.6394 -5.5339 4.3582 0
M  V30 574 H 49.7384 -0.77943 0.063351 0
M  V30 575 H 52.3224 -1.79323 0.758378 0
M  V30 576 H 50.4934 -3.81046 -0.752207 0
M  V30 577 H 52.2254 -4.00282 -0.59637 0
M  V30 578 H 48.9804 -4.53946 1.35019 0
M  V30 579 H 49.4044 -5.65505 3.72201 0
M  V30 580 H 54.0464 -4.01456 1.32638 0
M  V30 581 H 51.7644 -6.16452 5.22506 0
M  V30 582 H 55.3504 -4.81131 3.27115 0
M  V30 583 H 54.2304 -5.87441 5.19503 0
M  V30 584 N 51.7335 -0.305618 -1.54608 0
M  V30 585 C 52.6805 0.568421 -2.23691 0
M  V30 586 C 53.6505 1.12592 -1.22116 0
M  V30 587 O 54.8355 1.16959 -1.50749 0
M  V30 588 C 51.9755 1.7322 -2.98477 0
M  V30 589 C 51.0885 1.20566 -4.14835 0
M  V30 590 C 50.2235 2.33368 -4.77193 0
M  V30 591 C 49.2625 1.7787 -5.85686 0
M  V30 592 N 48.3995 2.84263 -6.4198 0
M  V30 593 H 53.2395 -0.0272867 -2.97988 0
M  V30 594 H 50.7765 -0.0252363 -1.47078 0
M  V30 595 H 52.7345 2.41675 -3.40072 0
M  V30 596 H 51.3645 2.29947 -2.26548 0
M  V30 597 H 50.4165 0.413223 -3.78149 0
M  V30 598 H 51.7285 0.759417 -4.92985 0
M  V30 599 H 50.8825 3.09761 -5.21664 0
M  V30 600 H 49.6215 2.8132 -3.98385 0
M  V30 601 H 48.6265 0.99968 -5.40635 0
M  V30 602 H 49.8515 1.30816 -6.66381 0
M  V30 603 H 47.7975 3.31541 -5.66053 0
M  V30 604 H 47.7145 2.44149 -7.15491 0
M  V30 605 H 48.9825 3.6054 -6.91109 0
M  V30 606 N 53.2116 1.57565 -0.0334293 0
M  V30 607 C 54.4576 1.92262 0.645226 0
M  V30 608 C 54.7906 0.910543 1.71531 0
M  V30 609 O 54.0656 -0.066099 1.94388 0
M  V30 610 C 54.3486 3.37422 1.2577 0
M  V30 611 C 54.2016 4.49369 0.196891 0
M  V30 612 C 55.5206 3.82628 2.17449 0
M  V30 613 H 52.6396 0.699171 0.233085 0
M  V30 614 H 55.2816 1.89779 -0.0915694 0
M  V30 615 H 53.4316 3.39669 1.88566 0
M  V30 616 H 55.1036 4.59254 -0.433962 0
M  V30 617 H 53.3466 4.31168 -0.477137 0
M  V30 618 H 54.0176 5.47978 0.665124 0
M  V30 619 H 56.4936 3.82145 1.64634 0
M  V30 620 H 55.3696 4.84883 2.57254 0
M  V30 621 H 55.6306 3.18376 3.0674 0
M  V30 622 N 54.6897 -0.239769 1.55765 0
M  V30 623 C 55.9297 -0.974076 1.79697 0
M  V30 624 C 56.2937 -1.82249 0.604088 0
M  V30 625 O 57.4947 -2.58913 0.722324 0
M  V30 626 C 55.7657 -1.80595 3.08416 0
M  V30 627 S 57.3247 -2.59838 3.53596 0
M  V30 628 H 54.1427 -0.327524 0.63107 0
M  V30 629 H 56.7447 -0.241277 1.94005 0
M  V30 630 H 55.4487 -1.17249 3.93295 0
M  V30 631 H 54.9797 -2.58137 2.96865 0
M  V30 632 H 56.9947 -3.82987 3.15492 0
M  V30 633 N 56.1678 -1.49265 -0.50573 0
M  V30 634 C 57.0978 -1.68495 -1.61653 0
M  V30 635 C 58.0788 -0.53366 -1.61512 0
M  V30 636 O 59.2638 -0.76897 -1.78327 0
M  V30 637 C 56.3938 -1.74709 -3.00157 0
M  V30 638 C 55.3478 -2.89581 -3.15162 0
M  V30 639 C 54.6738 -2.80903 -4.5497 0
M  V30 640 C 55.9738 -4.30578 -2.95634 0
M  V30 641 H 57.6678 -2.61493 -1.45814 0
M  V30 642 H 55.2138 -1.25838 -0.70005 0
M  V30 643 H 57.1668 -1.86748 -3.77761 0
M  V30 644 H 55.8908 -0.783067 -3.17074 0
M  V30 645 H 54.5498 -2.77136 -2.39982 0
M  V30 646 H 54.1978 -1.82419 -4.68756 0
M  V30 647 H 53.8978 -3.57999 -4.65951 0
M  V30 648 H 55.4218 -2.94944 -5.34641 0
M  V30 649 H 56.8358 -4.4373 -3.63011 0
M  V30 650 H 55.2328 -5.0886 -3.18091 0
M  V30 651 H 56.3028 -4.45352 -1.91806 0
M  V30 652 N 57.6459 0.756429 -1.3826 0
M  V30 653 C 58.8939 1.51248 -1.34047 0
M  V30 654 C 59.2149 1.94875 0.0698372 0
M  V30 655 O 58.4849 1.67436 1.01696 0
M  V30 656 H 57.0649 0.561018 -0.493222 0
M  V30 657 H 59.7269 0.899347 -1.7291 0
M  V30 658 H 58.8229 2.40472 -1.98947 0
M  V30 659 N 59.124 1.23083 0.984299 0
M  V30 660 C 60.071 1.00854 2.07598 0
M  V30 661 C 61.041 -0.0726709 1.65941 0
M  V30 662 O 62.226 0.0786535 1.90638 0
M  V30 663 C 59.366 0.601645 3.39815 0
M  V30 664 C 58.479 1.75456 3.94765 0
M  V30 665 C 57.614 1.29482 5.15177 0
M  V30 666 C 56.653 2.41873 5.62284 0
M  V30 667 N 55.79 1.96885 6.73929 0
M  V30 668 H 60.63 1.943 2.25946 0
M  V30 669 H 58.167 0.968001 1.10762 0
M  V30 670 H 60.125 0.346854 4.15756 0
M  V30 671 H 58.755 -0.295803 3.21442 0
M  V30 672 H 57.807 2.12346 3.15616 0
M  V30 673 H 59.119 2.59965 4.25699 0
M  V30 674 H 58.273 0.997923 5.98437 0
M  V30 675 H 57.012 0.420046 4.85888 0
M  V30 676 H 56.017 2.72342 4.77608 0
M  V30 677 H 57.242 3.29881 5.93595 0
M  V30 678 H 55.188 1.11782 6.46406 0
M  V30 679 H 55.105 2.74956 7.04227 0
M  V30 680 H 56.373 1.70289 7.60672 0
M  V30 681 N 60.6021 -1.18246 1.0419 0
M  V30 682 C 61.8481 -1.88536 0.747122 0
M  V30 683 C 62.1811 -1.80223 -0.723409 0
M  V30 684 O 61.4561 -1.20337 -1.52804 0
M  V30 685 C 61.7391 -3.38968 1.21544 0
M  V30 686 C 61.5921 -3.56084 2.74816 0
M  V30 687 C 62.9111 -4.32648 0.806482 0
M  V30 688 H 60.0301 -0.684619 0.272883 0
M  V30 689 H 62.6721 -1.39113 1.29413 0
M  V30 690 H 60.8221 -3.8119 0.750081 0
M  V30 691 H 62.4941 -3.22946 3.29399 0
M  V30 692 H 60.7371 -2.98699 3.14582 0
M  V30 693 H 61.4081 -4.61639 3.02644 0
M  V30 694 H 63.8841 -3.98211 1.20695 0
M  V30 695 H 62.7601 -5.36462 1.1619 0
M  V30 696 H 63.0211 -4.41146 -0.29029 0
M  V30 697 N 62.0802 -0.821533 -1.34494 0
M  V30 698 C 63.3282 -0.408139 -1.97936 0
M  V30 699 C 63.6492 1.03193 -1.65457 0
M  V30 700 O 62.9192 1.71622 -0.944595 0
M  V30 701 H 61.4992 -0.147928 -0.732206 0
M  V30 702 H 64.1612 -1.05067 -1.64155 0
M  V30 703 H 63.2572 -0.52601 -3.07635 0
M  V30 704 N 63.5583 1.46682 -0.576371 0
M  V30 705 C 64.7833 2.07304 -0.0630475 0
M  V30 706 C 65.2083 1.42329 1.2298 0
M  V30 707 O 64.5663 0.504865 1.74129 0
M  V30 708 C 64.6143 3.60472 0.095895 0
M  V30 709 O 63.7183 3.95927 1.15394 0
M  V30 710 H 63.0593 0.661288 -0.0599463 0
M  V30 711 H 65.5893 1.88417 -0.797511 0
M  V30 712 H 65.5993 4.06865 0.304071 0
M  V30 713 H 64.2743 4.07157 -0.84828 0
M  V30 714 H 62.8513 3.61252 0.924724 0
M  V30 715 N 65.0364 0.313813 1.54444 0
M  V30 716 C 65.9694 -0.598866 2.20202 0
M  V30 717 C 66.9474 -1.12318 1.17573 0
M  V30 718 O 68.1314 -1.18899 1.46271 0
M  V30 719 C 65.2584 -1.82071 2.85601 0
M  V30 720 C 64.3044 -1.42851 4.01865 0
M  V30 721 S 65.1374 -0.473512 5.33402 0
M  V30 722 C 66.2934 -1.70286 6.0229 0
M  V30 723 H 66.5264 -0.0402532 2.97273 0
M  V30 724 H 64.0594 0.0979165 1.54089 0
M  V30 725 H 66.0174 -2.52184 3.23904 0
M  V30 726 H 64.6784 -2.3505 2.08351 0
M  V30 727 H 63.8714 -2.33871 4.46453 0
M  V30 728 H 63.4734 -0.807198 3.65185 0
M  V30 729 H 65.7654 -2.64168 6.23876 0
M  V30 730 H 66.7084 -1.29932 6.96077 0
M  V30 731 H 67.1164 -1.88541 5.32083 0
M  V30 732 N 66.5145 -1.57545 0.0417849 0
M  V30 733 C 67.7915 -1.83642 -0.673433 0
M  V30 734 C 68.1715 -0.928298 -1.89594 0
M  V30 735 O 67.5195 0.0129955 -2.28496 0
M  V30 736 C 67.7295 -3.33155 -1.03964 0
M  V30 737 C 69.0775 -3.99941 -1.42592 0
M  V30 738 O 70.1015 -3.37725 -1.13226 0
M  V30 739 O 68.9605 -5.09619 -1.9736 0
M  V30 740 H 66.0545 -0.757638 -0.331533 0
M  V30 741 H 68.6005 -1.69554 0.070433 0
M  V30 742 H 67.3725 -3.9093 -0.170098 0
M  V30 743 H 66.9955 -3.52396 -1.84126 0
M  V30 744 N 67.9926 0.231505 -1.5589 0
M  V30 745 C 68.9556 1.27028 -1.90779 0
M  V30 746 C 69.9556 1.40308 -0.785507 0
M  V30 747 O 71.1456 1.38744 -1.05336 0
M  V30 748 C 68.2776 2.64566 -2.14983 0
M  V30 749 H 69.4706 0.973017 -2.83677 0
M  V30 750 H 67.0236 0.471486 -1.49019 0
M  V30 751 H 67.7586 2.99406 -1.24604 0
M  V30 752 H 67.5436 2.56305 -2.96732 0
M  V30 753 H 69.0336 3.39543 -2.43105 0
M  V30 754 N 69.4707 1.49531 0.497807 0
M  V30 755 C 70.4207 1.62829 1.59596 0
M  V30 756 C 71.4047 0.483824 1.53453 0
M  V30 757 O 72.5967 0.736937 1.60929 0
M  V30 758 C 69.7257 1.7011 2.98191 0
M  V30 759 C 68.8117 2.90144 3.09317 0
M  V30 760 N 69.2027 4.1418 2.90324 0
M  V30 761 C 67.5007 2.88148 3.40422 0
M  V30 762 C 68.2017 4.94886 3.05717 0
M  V30 763 N 67.1777 4.28314 3.34736 0
M  V30 764 H 70.9797 2.56446 1.4357 0
M  V30 765 H 68.4937 1.46347 0.704001 0
M  V30 766 H 70.4907 1.77735 3.77115 0
M  V30 767 H 69.1507 0.776315 3.15283 0
M  V30 768 H 70.1617 4.44109 2.66436 0
M  V30 769 H 66.8387 2.05061 3.63671 0
M  V30 770 H 68.2287 6.03432 2.95499 0
M  V30 771 N 70.9488 -0.749086 1.3866 0
M  V30 772 C 71.8958 -1.86291 1.36251 0
M  V30 773 C 72.8658 -1.64578 0.224347 0
M  V30 774 O 74.0508 -1.86181 0.417279 0
M  V30 775 C 71.1908 -3.23644 1.19786 0
M  V30 776 C 70.3038 -3.57158 2.43027 0
M  V30 777 C 69.4388 -4.83838 2.19258 0
M  V30 778 C 68.4778 -5.10152 3.38247 0
M  V30 779 N 67.6148 -6.28029 3.13884 0
M  V30 780 H 72.4548 -1.87685 2.3147 0
M  V30 781 H 69.9918 -0.917287 1.14997 0
M  V30 782 H 71.9498 -4.0291 1.08254 0
M  V30 783 H 70.5798 -3.21566 0.282031 0
M  V30 784 H 69.6318 -2.72701 2.65214 0
M  V30 785 H 70.9438 -3.7253 3.31697 0
M  V30 786 H 70.0978 -5.71057 2.04888 0
M  V30 787 H 68.8368 -4.70614 1.2796 0
M  V30 788 H 67.8418 -4.21401 3.53131 0
M  V30 789 H 69.0668 -5.25271 4.30427 0
M  V30 790 H 67.0128 -6.1612 2.25238 0
M  V30 791 H 66.9298 -6.43922 3.96106 0
M  V30 792 H 68.1978 -7.18124 3.03179 0
M  V30 793 N 72.4269 -1.23603 -0.977757 0
M  V30 794 C 73.6729 -1.07129 -1.72195 0
M  V30 795 C 74.0059 0.390501 -1.90233 0
M  V30 796 O 73.2809 1.28902 -1.45653 0
M  V30 797 C 73.5639 -1.80031 -3.11867 0
M  V30 798 C 73.4169 -3.33899 -3.01383 0
M  V30 799 C 74.7359 -1.56492 -4.11337 0
M  V30 800 H 71.8549 -0.390571 -0.624999 0
M  V30 801 H 74.4969 -1.52142 -1.13811 0
M  V30 802 H 72.6469 -1.41768 -3.6171 0
M  V30 803 H 74.3189 -3.81699 -2.59043 0
M  V30 804 H 72.5619 -3.62796 -2.37827 0
M  V30 805 H 73.2329 -3.801 -4.00285 0
M  V30 806 H 75.7089 -1.89757 -3.70313 0
M  V30 807 H 74.5849 -2.09973 -5.07151 0
M  V30 808 H 74.8459 -0.500874 -4.39254 0
M  V30 809 N 73.905 1.17692 -1.04816 0
M  V30 810 C 75.151 1.88137 -0.75711 0
M  V30 811 C 75.484 1.80604 0.713841 0
M  V30 812 O 74.759 1.21146 1.52164 0
M  V30 813 C 75.042 3.38318 -1.2334 0
M  V30 814 C 74.895 3.54622 -2.76701 0
M  V30 815 C 76.214 4.32214 -0.829415 0
M  V30 816 H 73.333 0.683163 -0.27651 0
M  V30 817 H 75.975 1.38424 -1.30149 0
M  V30 818 H 74.125 3.80787 -0.770286 0
M  V30 819 H 75.797 3.21194 -3.31107 0
M  V30 820 H 74.04 2.97026 -3.16161 0
M  V30 821 H 74.711 4.60028 -3.05088 0
M  V30 822 H 77.187 3.97565 -1.22805 0
M  V30 823 H 76.063 5.35838 -1.19033 0
M  V30 824 H 76.324 4.41294 0.266891 0
M  V30 825 N 75.3831 0.828654 1.34056 0
M  V30 826 C 76.3461 0.259927 2.27721 0
M  V30 827 C 77.3461 -0.565478 1.50529 0
M  V30 828 O 78.5361 -0.38075 1.69988 0
M  V30 829 C 75.6681 -0.634944 3.34935 0
M  V30 830 H 76.8611 1.0863 2.79534 0
M  V30 831 H 74.4141 0.600951 1.44285 0
M  V30 832 H 75.1491 -1.48416 2.88346 0
M  V30 833 H 74.9341 -0.0444999 3.92075 0
M  V30 834 H 76.4241 -1.02648 4.04788 0
M  V30 835 N 76.8612 -1.46375 0.584142 0
M  V30 836 C 77.8242 -2.28784 -0.138108 0
M  V30 837 C 78.8242 -1.38471 -0.817462 0
M  V30 838 O 80.0142 -1.60833 -0.669199 0
M  V30 839 C 77.1462 -3.18892 -1.20503 0
M  V30 840 H 78.3392 -2.94117 0.586127 0
M  V30 841 H 75.8922 -1.52509 0.342171 0
M  V30 842 H 76.6272 -2.58309 -1.96079 0
M  V30 843 H 76.4122 -3.85388 -0.722384 0
M  V30 844 H 77.9022 -3.80914 -1.71155 0
M  V30 845 N 78.3393 -0.321999 -1.54275 0
M  V30 846 C 79.5883 0.281931 -1.9972 0
M  V30 847 C 79.9013 1.53369 -1.21397 0
M  V30 848 O 81.1073 2.21352 -1.57211 0
M  V30 849 C 79.5633 0.5529 -3.55628 0
M  V30 850 C 79.1713 -0.681721 -4.42783 0
M  V30 851 C 80.9153 1.11687 -4.09544 0
M  V30 852 C 78.8223 -0.382742 -5.9016 0
M  V30 853 H 77.7523 0.109124 -0.746062 0
M  V30 854 H 80.4033 -0.43398 -1.78294 0
M  V30 855 H 78.7853 1.32896 -3.73035 0
M  V30 856 H 79.9593 -1.45723 -4.37151 0
M  V30 857 H 78.2743 -1.1658 -3.99748 0
M  V30 858 H 80.8713 1.35515 -5.17242 0
M  V30 859 H 81.2143 2.06575 -3.61431 0
M  V30 860 H 81.7473 0.402032 -3.95763 0
M  V30 861 H 78.4863 -1.30076 -6.42464 0
M  V30 862 H 78.0063 0.355094 -5.98748 0
M  V30 863 H 79.6853 0.00800157 -6.47 0
M  V30 864 N 79.8174 1.5752 -0.0501392 0
M  V30 865 C 80.7274 2.14952 0.939827 0
M  V30 866 C 81.7434 1.10706 1.34239 0
M  V30 867 O 82.9194 1.42869 1.41952 0
M  V30 868 C 79.9844 2.68232 2.19665 0
M  V30 869 C 79.0454 3.87272 1.85253 0
M  V30 870 C 78.2784 4.38002 3.04943 0
M  V30 871 O 78.5014 3.87811 4.18281 0
M  V30 872 O 77.4354 5.29602 2.86017 0
M  V30 873 H 81.2614 2.9986 0.481392 0
M  V30 874 H 78.8464 1.4841 0.171699 0
M  V30 875 H 80.7284 3.02475 2.93406 0
M  V30 876 H 79.4034 1.86395 2.64648 0
M  V30 877 H 78.3104 3.5792 1.0883 0
M  V30 878 H 79.6434 4.70336 1.4507 0
M  V30 879 N 81.2955 -0.223234 1.56011 0
M  V30 880 C 82.5235 -0.964812 1.83027 0
M  V30 881 C 82.9385 -1.78013 0.62904 0
M  V30 882 O 82.2955 -1.78008 -0.402414 0
M  V30 883 C 82.3465 -1.88373 3.08542 0
M  V30 884 O 82.0675 -1.10137 4.2403 0
M  V30 885 C 83.5685 -2.73934 3.48533 0
M  V30 886 H 80.7885 -0.282842 0.608475 0
M  V30 887 H 83.3325 -0.238971 2.03099 0
M  V30 888 H 81.4875 -2.56354 2.9045 0
M  V30 889 H 81.9015 -1.72501 4.95322 0
M  V30 890 H 83.3755 -3.34117 4.39397 0
M  V30 891 H 83.8525 -3.46244 2.70207 0
M  V30 892 H 84.4585 -2.11369 3.69057 0
M  V30 893 N 82.7736 -1.49793 -0.48987 0
M  V30 894 C 83.7366 -1.66752 -1.57246 0
M  V30 895 C 84.7366 -0.538867 -1.51502 0
M  V30 896 O 85.9266 -0.805545 -1.54456 0
M  V30 897 C 83.0586 -1.67528 -2.96896 0
M  V30 898 H 84.2516 -2.63321 -1.43534 0
M  V30 899 H 81.8046 -1.38992 -0.714914 0
M  V30 900 H 82.5396 -0.725837 -3.16073 0
M  V30 901 H 82.3246 -2.49504 -3.02473 0
M  V30 902 H 83.8146 -1.82667 -3.7553 0
M  V30 903 N 84.2517 0.741722 -1.39055 0
M  V30 904 C 85.4767 1.53607 -1.39354 0
M  V30 905 C 85.9017 1.88096 0.0116905 0
M  V30 906 O 85.2597 1.5143 0.996924 0
M  V30 907 C 85.3077 2.80441 -2.26682 0
M  V30 908 O 84.4117 3.76088 -1.69208 0
M  V30 909 H 83.7527 0.464142 -0.474835 0
M  V30 910 H 86.2827 0.915665 -1.82967 0
M  V30 911 H 86.2927 3.29246 -2.40959 0
M  V30 912 H 84.9677 2.5467 -3.2881 0
M  V30 913 H 83.5447 3.34833 -1.64138 0
M  V30 914 N 85.7298 1.2412 0.971189 0
M  V30 915 C 86.6768 1.0305 2.06517 0
M  V30 916 C 87.6468 -0.0550666 1.66009 0
M  V30 917 O 88.8318 0.0988688 1.90544 0
M  V30 918 C 85.9718 0.637653 3.39158 0
M  V30 919 C 85.0848 1.79633 3.92882 0
M  V30 920 C 84.2198 1.34939 5.13775 0
M  V30 921 C 83.2588 2.47823 5.59687 0
M  V30 922 N 82.3958 2.04022 6.71803 0
M  V30 923 H 87.2358 1.96685 2.23873 0
M  V30 924 H 84.7728 0.979694 1.09729 0
M  V30 925 H 86.7308 0.390931 4.15364 0
M  V30 926 H 85.3608 -0.261693 3.21737 0
M  V30 927 H 84.4128 2.15681 3.13346 0
M  V30 928 H 85.7248 2.64466 4.22918 0
M  V30 929 H 84.8788 1.06134 5.97345 0
M  V30 930 H 83.6178 0.471557 4.85415 0
M  V30 931 H 82.6228 2.77392 4.74693 0
M  V30 932 H 83.8478 3.36158 5.90063 0
M  V30 933 H 81.7938 1.18632 6.45184 0
M  V30 934 H 81.7108 2.82409 7.01271 0
M  V30 935 H 82.9788 1.78347 7.58823 0
M  V30 936 N 87.2079 -1.17134 1.05439 0
M  V30 937 C 88.1549 -2.21235 0.657539 0
M  V30 938 C 89.1249 -1.62551 -0.341543 0
M  V30 939 O 90.3099 -1.89379 -0.232393 0
M  V30 940 C 87.4499 -3.45076 0.0410575 0
M  V30 941 C 86.5629 -4.18042 1.08927 0
M  V30 942 C 85.6979 -5.29376 0.439848 0
M  V30 943 C 84.7369 -5.94132 1.4722 0
M  V30 944 N 83.8739 -6.96975 0.846756 0
M  V30 945 H 88.7139 -2.54534 1.54972 0
M  V30 946 H 86.2509 -1.25028 0.775006 0
M  V30 947 H 88.2089 -4.15862 -0.33383 0
M  V30 948 H 86.8389 -3.12353 -0.814568 0
M  V30 949 H 85.8909 -3.45945 1.58196 0
M  V30 950 H 87.2029 -4.62306 1.87282 0
M  V30 951 H 86.3569 -6.06699 0.0115125 0
M  V30 952 H 85.0959 -4.86251 -0.375656 0
M  V30 953 H 84.1009 -5.15538 1.91052 0
M  V30 954 H 85.3259 -6.39337 2.28965 0
M  V30 955 H 83.2719 -6.5598 0.0518075 0
M  V30 956 H 83.1889 -7.39565 1.5678 0
M  V30 957 H 84.4569 -7.78239 0.443277 0
M  V30 958 N 88.686 -0.835752 -1.33615 0
M  V30 959 C 89.911 -0.442389 -2.02627 0
M  V30 960 C 90.336 0.947735 -1.62479 0
M  V30 961 O 89.694 1.61907 -0.815826 0
M  V30 962 C 89.742 -0.567216 -3.56111 0
M  V30 963 O 88.846 0.407799 -4.10379 0
M  V30 964 H 88.187 -0.180278 -0.639059 0
M  V30 965 H 90.717 -1.12972 -1.70583 0
M  V30 966 H 90.727 -0.447708 -4.05536 0
M  V30 967 H 89.402 -1.58103 -3.84677 0
M  V30 968 H 87.979 0.246107 -3.72087 0
M  V30 969 N 90.1641 1.46063 -0.591896 0
M  V30 970 C 91.4121 2.01938 -0.0808391 0
M  V30 971 C 91.7331 1.46475 1.28725 0
M  V30 972 O 91.0031 0.652944 1.84698 0
M  V30 973 H 89.5831 0.746516 -0.0268938 0
M  V30 974 H 92.2451 1.79055 -0.769752 0
M  V30 975 H 91.3411 3.12094 -0.0187578 0
M  V30 976 N 91.6422 0.330177 1.54103 0
M  V30 977 C 92.8882 -0.270806 2.00984 0
M  V30 978 C 93.2212 -1.51265 1.21789 0
M  V30 979 O 92.4962 -1.92142 0.301927 0
M  V30 980 C 92.7792 -0.598339 3.55094 0
M  V30 981 C 92.6322 0.654674 4.4501 0
M  V30 982 C 93.9512 -1.41334 4.16789 0
M  V30 983 H 91.0702 -0.0969531 0.730595 0
M  V30 984 H 93.7122 0.448066 1.84641 0
M  V30 985 H 91.8622 -1.21078 3.69151 0
M  V30 986 H 93.5342 1.29285 4.42813 0
M  V30 987 H 91.7772 1.28224 4.14416 0
M  V30 988 H 92.4482 0.380944 5.50684 0
M  V30 989 H 94.9242 -0.895597 4.06347 0
M  V30 990 H 93.8002 -1.61127 5.24718 0
M  V30 991 H 94.0612 -2.41146 3.70541 0
M  V30 992 N 93.1203 -1.57491 0.0584922 0
M  V30 993 C 94.3693 -1.92155 -0.613146 0
M  V30 994 C 94.6823 -0.939334 -1.71569 0
M  V30 995 O 95.8883 -1.17829 -2.44599 0
M  V30 996 C 94.3443 -3.41303 -1.14195 0
M  V30 997 C 93.9523 -4.47944 -0.0711265 0
M  V30 998 C 95.6963 -3.84988 -1.78841 0
M  V30 999 C 93.6033 -5.88212 -0.613225 0
M  V30 1000 H 92.5333 -0.717162 -0.232796 0
M  V30 1001 H 95.1843 -1.83049 0.12857 0
M  V30 1002 H 93.5663 -3.45437 -1.93621 0
M  V30 1003 H 94.7403 -4.55408 0.702836 0
M  V30 1004 H 93.0553 -4.13644 0.478313 0
M  V30 1005 H 95.6523 -4.87159 -2.20408 0
M  V30 1006 H 95.9953 -3.21632 -2.64308 0
M  V30 1007 H 96.5283 -3.83401 -1.06059 0
M  V30 1008 H 93.2673 -6.55183 0.203978 0
M  V30 1009 H 92.7873 -5.84294 -1.35501 0
M  V30 1010 H 94.4663 -6.37687 -1.09383 0
M  V30 1011 N 94.5984 0.214957 -1.56127 0
M  V30 1012 C 95.5304 1.29004 -1.89448 0
M  V30 1013 C 96.5434 1.42716 -0.783326 0
M  V30 1014 O 97.7324 1.43496 -1.06166 0
M  V30 1015 C 94.8324 2.66482 -2.09381 0
M  V30 1016 C 94.0054 2.74633 -3.40434 0
M  V30 1017 C 93.0644 3.9317 -3.49719 0
M  V30 1018 O 92.0904 3.812 -4.227 0
M  V30 1019 N 93.2924 5.07765 -2.81346 0
M  V30 1020 H 96.0574 1.00743 -2.82261 0
M  V30 1021 H 93.6184 0.40497 -1.56753 0
M  V30 1022 H 95.6104 3.44173 -2.12901 0
M  V30 1023 H 94.1804 2.87314 -1.23163 0
M  V30 1024 H 93.4004 1.83368 -3.48955 0
M  V30 1025 H 94.6884 2.77054 -4.26754 0
M  V30 1026 H 94.0864 5.20386 -2.21843 0
M  V30 1027 H 92.6434 5.83474 -2.90519 0
M  V30 1028 N 96.0765 1.50051 0.48192 0
M  V30 1029 C 97.3015 1.64508 1.26301 0
M  V30 1030 C 97.7265 0.323851 1.85291 0
M  V30 1031 O 97.0845 -0.710969 1.66778 0
M  V30 1032 C 97.1325 2.7305 2.35533 0
M  V30 1033 O 96.2365 2.3355 3.39895 0
M  V30 1034 H 95.5775 0.549978 0.372048 0
M  V30 1035 H 98.1075 1.9636 0.574786 0
M  V30 1036 H 98.1175 2.95799 2.8101 0
M  V30 1037 H 96.7925 3.68946 1.91967 0
M  V30 1038 H 95.3695 2.21205 3.00204 0
M  V30 1039 N 97.5546 -0.734337 1.39446 0
M  V30 1040 C 98.4646 -1.87879 1.40495 0
M  V30 1041 C 99.4806 -1.714 0.299672 0
M  V30 1042 O 100.657 -1.93991 0.541249 0
M  V30 1043 C 97.7216 -3.23477 1.24754 0
M  V30 1044 C 96.7826 -3.52344 2.45259 0
M  V30 1045 C 96.0156 -4.81473 2.30259 0
M  V30 1046 O 96.2386 -5.55237 1.30643 0
M  V30 1047 O 95.1726 -5.10254 3.19256 0
M  V30 1048 H 98.9986 -1.89949 2.36966 0
M  V30 1049 H 96.5836 -0.882243 1.20569 0
M  V30 1050 H 98.4656 -4.04509 1.18111 0
M  V30 1051 H 97.1406 -3.22176 0.313781 0
M  V30 1052 H 96.0476 -2.71396 2.57478 0
M  V30 1053 H 97.3806 -3.58426 3.37331 0
M  V30 1054 N 99.0327 -1.24633 -0.964593 0
M  V30 1055 C 100.281 -1.08573 -1.70459 0
M  V30 1056 C 100.602 0.375655 -1.91347 0
M  V30 1057 O 99.8717 1.26779 -1.49345 0
M  V30 1058 H 98.4517 -0.398784 -0.631649 0
M  V30 1059 H 101.114 -1.56601 -1.16026 0
M  V30 1060 H 100.21 -1.58623 -2.68785 0
M  V30 1061 N 100.511 1.16574 -1.06058 0
M  V30 1062 C 101.741 1.90675 -0.795397 0
M  V30 1063 C 102.149 1.77547 0.653735 0
M  V30 1064 O 101.492 1.11611 1.45907 0
M  V30 1065 C 101.554 3.42011 -1.10764 0
M  V30 1066 C 101.218 3.78924 -2.55471 0
M  V30 1067 C 102.215 3.81042 -3.53699 0
M  V30 1068 C 99.8998 4.09626 -2.90708 0
M  V30 1069 C 101.894 4.13346 -4.85205 0
M  V30 1070 C 99.5808 4.41597 -4.22416 0
M  V30 1071 C 100.579 4.43436 -5.19474 0
M  V30 1072 O 100.267 4.74649 -6.48817 0
M  V30 1073 H 99.9988 0.611554 -0.288058 0
M  V30 1074 H 102.553 1.48711 -1.41683 0
M  V30 1075 H 100.783 3.84312 -0.429128 0
M  V30 1076 H 102.472 3.97384 -0.827077 0
M  V30 1077 H 103.238 3.57437 -3.27817 0
M  V30 1078 H 99.1168 4.07361 -2.15819 0
M  V30 1079 H 102.661 4.14696 -5.60957 0
M  V30 1080 H 98.5578 4.64667 -4.48056 0
M  V30 1081 H 99.3258 4.9247 -6.5377 0
M  V30 1082 N 101.989 0.842826 1.3317 0
M  V30 1083 C 103.405 0.531128 1.50503 0
M  V30 1084 C 103.605 -0.940734 1.78192 0
M  V30 1085 O 102.661 -1.72436 1.84451 0
M  V30 1086 C 103.974 1.40789 2.65705 0
M  V30 1087 C 105.522 1.40708 2.79589 0
M  V30 1088 C 105.997 2.26878 3.97857 0
M  V30 1089 N 107.488 2.24609 4.05099 0
M  V30 1090 C 108.223 2.88019 4.95815 0
M  V30 1091 N 107.719 3.60496 5.9162 0
M  V30 1092 N 109.512 2.77469 4.88843 0
M  V30 1093 H 101.663 1.79557 1.1346 0
M  V30 1094 H 103.926 0.766267 0.558156 0
M  V30 1095 H 103.632 2.454 2.51936 0
M  V30 1096 H 103.506 1.08677 3.61205 0
M  V30 1097 H 105.893 0.368668 2.92788 0
M  V30 1098 H 105.974 1.76829 1.84838 0
M  V30 1099 H 105.618 3.3078 3.85418 0
M  V30 1100 H 105.548 1.88096 4.91861 0
M  V30 1101 H 108.039 1.71906 3.36536 0
M  V30 1102 H 108.352 4.06076 6.57512 0
M  V30 1103 H 106.697 3.64604 5.91683 0
M  V30 1104 H 109.888 2.20406 4.12963 0
M  V30 1105 H 110.061 3.2717 5.59342 0
M  V30 1106 N 103.467 -1.45747 0.599634 0
M  V30 1107 C 104.377 -2.34262 -0.125888 0
M  V30 1108 C 105.393 -1.50768 -0.868625 0
M  V30 1109 O 106.569 -1.83592 -0.828003 0
M  V30 1110 C 103.634 -3.28252 -1.11587 0
M  V30 1111 C 102.695 -4.27651 -0.375956 0
M  V30 1112 C 101.928 -5.1715 -1.31877 0
M  V30 1113 O 102.151 -5.09916 -2.55621 0
M  V30 1114 O 101.085 -5.96286 -0.820157 0
M  V30 1115 H 104.911 -2.97688 0.601315 0
M  V30 1116 H 102.496 -1.44999 0.359934 0
M  V30 1117 H 104.378 -3.86191 -1.68626 0
M  V30 1118 H 103.053 -2.67401 -1.82424 0
M  V30 1119 H 101.96 -3.7335 0.236698 0
M  V30 1120 H 103.293 -4.91334 0.29177 0
M  V30 1121 N 104.945 -0.338344 -1.53925 0
M  V30 1122 C 106.17 0.263987 -2.05713 0
M  V30 1123 C 106.595 1.43847 -1.21201 0
M  V30 1124 O 105.953 1.79904 -0.224535 0
M  V30 1125 C 106.001 0.662 -3.54471 0
M  V30 1126 O 105.105 1.76265 -3.72833 0
M  V30 1127 H 104.446 0.0448722 -0.662482 0
M  V30 1128 H 106.976 -0.491048 -1.9862 0
M  V30 1129 H 106.986 0.940594 -3.9701 0
M  V30 1130 H 105.661 -0.196937 -4.15433 0
M  V30 1131 H 104.238 1.48173 -3.42198 0
M  V30 1132 N 106.423 1.57458 -0.0668435 0
M  V30 1133 C 107.373 2.0896 0.912119 0
M  V30 1134 C 108.357 0.998186 1.26195 0
M  V30 1135 O 109.549 1.26133 1.24175 0
M  V30 1136 C 106.678 2.6508 2.18145 0
M  V30 1137 C 105.764 3.81218 1.85832 0
M  V30 1138 N 106.155 4.90378 1.23948 0
M  V30 1139 C 104.453 3.9042 2.15612 0
M  V30 1140 C 105.154 5.71279 1.09616 0
M  V30 1141 N 104.13 5.19389 1.60423 0
M  V30 1142 H 107.932 2.90749 0.42924 0
M  V30 1143 H 105.446 1.6182 0.137184 0
M  V30 1144 H 107.443 3.0029 2.89192 0
M  V30 1145 H 106.103 1.84736 2.67025 0
M  V30 1146 H 107.114 5.09847 0.909731 0
M  V30 1147 H 103.791 3.21043 2.66903 0
M  V30 1148 H 105.181 6.69085 0.614425 0
M  V30 1149 N 107.901 -0.206675 1.56239 0
M  V30 1150 C 108.864 -1.23976 1.92776 0
M  V30 1151 C 109.864 -1.39041 0.807729 0
M  V30 1152 O 111.054 -1.37051 1.0753 0
M  V30 1153 C 108.186 -2.61112 2.19165 0
M  V30 1154 H 109.379 -0.927764 2.85189 0
M  V30 1155 H 106.932 -0.447718 1.4975 0
M  V30 1156 H 107.667 -2.97386 1.29352 0
M  V30 1157 H 107.452 -2.51552 3.00772 0
M  V30 1158 H 108.942 -3.35633 2.48476 0
M  V30 1159 N 109.379 -1.50304 -0.473955 0
M  V30 1160 C 110.309 -1.71886 -1.58042 0
M  V30 1161 C 111.29 -0.567799 -1.60344 0
M  V30 1162 O 112.475 -0.806623 -1.76656 0
M  V30 1163 C 109.605 -1.81036 -2.96384 0
M  V30 1164 C 108.559 -2.962 -3.08949 0
M  V30 1165 C 107.885 -2.9049 -4.48909 0
M  V30 1166 C 109.185 -4.36752 -2.86434 0
M  V30 1167 H 110.879 -2.64527 -1.40234 0
M  V30 1168 H 108.425 -1.27295 -0.673201 0
M  V30 1169 H 110.378 -1.94719 -3.73714 0
M  V30 1170 H 109.102 -0.850147 -3.15341 0
M  V30 1171 H 107.761 -2.82164 -2.3405 0
M  V30 1172 H 107.409 -1.92321 -4.64781 0
M  V30 1173 H 107.109 -3.67802 -4.58253 0
M  V30 1174 H 108.633 -3.06218 -5.28264 0
M  V30 1175 H 110.047 -4.5133 -3.53517 0
M  V30 1176 H 108.444 -5.15493 -3.07225 0
M  V30 1177 H 109.514 -4.49321 -1.82316 0
M  V30 1178 N 110.857 0.726932 -1.39834 0
M  V30 1179 C 112.087 1.51393 -1.40583 0
M  V30 1180 C 112.495 1.892 -0.000740625 0
M  V30 1181 O 111.838 1.55189 0.982951 0
M  V30 1182 C 111.9 2.82588 -2.22226 0
M  V30 1183 C 111.564 2.67169 -3.70769 0
M  V30 1184 C 112.561 2.3518 -4.63666 0
M  V30 1185 C 110.246 2.83788 -4.14451 0
M  V30 1186 C 112.24 2.20002 -5.98229 0
M  V30 1187 C 109.927 2.68229 -5.49087 0
M  V30 1188 C 110.925 2.36382 -6.4079 0
M  V30 1189 O 110.613 2.2093 -7.72946 0
M  V30 1190 H 110.345 0.474168 -0.48181 0
M  V30 1191 H 112.899 0.905247 -1.84376 0
M  V30 1192 H 111.129 3.45746 -1.73195 0
M  V30 1193 H 112.818 3.44247 -2.15055 0
M  V30 1194 H 113.584 2.21984 -4.31217 0
M  V30 1195 H 109.463 3.07566 -3.43401 0
M  V30 1196 H 113.007 1.95067 -6.69772 0
M  V30 1197 H 108.904 2.81006 -5.81125 0
M  V30 1198 H 109.672 2.35937 -7.83757 0
M  V30 1199 N 112.336 1.25143 0.95797 0
M  V30 1200 C 113.286 1.01924 2.0395 0
M  V30 1201 C 114.27 -0.0427175 1.60843 0
M  V30 1202 O 115.462 0.17221 1.7616 0
M  V30 1203 C 112.591 0.636373 3.3735 0
M  V30 1204 C 111.677 1.73492 3.8699 0
M  V30 1205 N 112.068 2.96945 4.0946 0
M  V30 1206 C 110.366 1.61467 4.15746 0
M  V30 1207 C 111.067 3.68228 4.50315 0
M  V30 1208 N 110.043 2.95833 4.56053 0
M  V30 1209 H 113.845 1.95653 2.19311 0
M  V30 1210 H 111.359 1.15413 1.14253 0
M  V30 1211 H 113.356 0.451233 4.14451 0
M  V30 1212 H 112.016 -0.293621 3.2337 0
M  V30 1213 H 113.027 3.33025 3.96629 0
M  V30 1214 H 109.704 0.753394 4.10646 0
M  V30 1215 H 111.094 4.74178 4.76031 0
M  V30 1216 N 113.814 -1.1601 1.06675 0
M  V30 1217 C 114.777 -2.18724 0.685001 0
M  V30 1218 C 115.777 -1.58496 -0.271246 0
M  V30 1219 O 116.967 -1.74119 -0.0531156 0
M  V30 1220 C 114.099 -3.40899 0.00853648 0
M  V30 1221 H 115.292 -2.54011 1.59431 0
M  V30 1222 H 112.845 -1.30352 0.862441 0
M  V30 1223 H 113.58 -3.11173 -0.913337 0
M  V30 1224 H 113.365 -3.8587 0.696204 0
M  V30 1225 H 114.855 -4.16886 -0.24414 0
M  V30 1226 N 115.292 -0.849877 -1.32721 0
M  V30 1227 C 116.52 -0.464754 -2.01613 0
M  V30 1228 C 116.935 0.937191 -1.63897 0
M  V30 1229 O 116.292 1.61081 -0.857856 0
M  V30 1230 C 116.343 -0.588638 -3.56675 0
M  V30 1231 O 116.064 -1.93535 -3.93034 0
M  V30 1232 C 117.565 -0.2019 -4.4284 0
M  V30 1233 H 114.785 -0.183215 -0.645502 0
M  V30 1234 H 117.329 -1.1455 -1.69407 0
M  V30 1235 H 115.484 0.0443159 -3.87375 0
M  V30 1236 H 115.898 -1.92871 -4.87751 0
M  V30 1237 H 117.372 -0.339599 -5.50954 0
M  V30 1238 H 117.849 0.857224 -4.30753 0
M  V30 1239 H 118.455 -0.809733 -4.17521 0
M  V30 1240 N 116.77 1.45427 -0.607355 0
M  V30 1241 C 117.703 2.27635 0.160482 0
M  V30 1242 C 118.681 1.37122 0.873857 0
M  V30 1243 O 119.865 1.66551 0.882775 0
M  V30 1244 C 116.992 3.15486 1.23231 0
M  V30 1245 C 116.038 4.21939 0.622097 0
M  V30 1246 S 116.871 5.32459 -0.569852 0
M  V30 1247 C 118.027 6.23879 0.502577 0
M  V30 1248 H 118.26 2.9241 -0.536983 0
M  V30 1249 H 115.793 1.49265 -0.394868 0
M  V30 1250 H 117.751 3.66659 1.84585 0
M  V30 1251 H 116.412 2.49977 1.90185 0
M  V30 1252 H 115.605 4.8333 1.42856 0
M  V30 1253 H 115.207 3.73906 0.0837063 0
M  V30 1254 H 117.499 6.63261 1.38171 0
M  V30 1255 H 118.442 7.0806 -0.0751759 0
M  V30 1256 H 118.85 5.58545 0.8178 0
M  V30 1257 N 118.248 0.346503 1.53744 0
M  V30 1258 C 119.158 -0.517293 2.28826 0
M  V30 1259 C 120.174 -1.10935 1.3405 0
M  V30 1260 O 121.35 -1.1244 1.6709 0
M  V30 1261 C 118.415 -1.65098 3.04866 0
M  V30 1262 C 117.476 -1.0884 4.15274 0
M  V30 1263 C 116.709 -2.16806 4.87679 0
M  V30 1264 O 116.932 -3.3758 4.59778 0
M  V30 1265 O 115.866 -1.80934 5.74061 0
M  V30 1266 H 119.692 0.0931396 3.03557 0
M  V30 1267 H 117.277 0.111458 1.48984 0
M  V30 1268 H 119.159 -2.31053 3.5241 0
M  V30 1269 H 117.834 -2.24717 2.32989 0
M  V30 1270 H 116.741 -0.3933 3.72027 0
M  V30 1271 H 118.074 -0.537036 4.89261 0
M  V30 1272 N 119.726 -1.57421 0.075193 0
M  V30 1273 C 120.689 -2.11791 -0.876203 0
M  V30 1274 C 121.689 -1.04268 -1.22412 0
M  V30 1275 O 122.879 -1.30242 -1.15684 0
M  V30 1276 C 120.011 -2.62207 -2.17854 0
M  V30 1277 H 121.204 -2.9716 -0.40444 0
M  V30 1278 H 118.757 -1.55333 -0.173557 0
M  V30 1279 H 119.492 -1.803 -2.6956 0
M  V30 1280 H 119.277 -3.40802 -1.93897 0
M  V30 1281 H 120.767 -3.04335 -2.85955 0
M  V30 1282 N 121.204 0.198386 -1.56346 0
M  V30 1283 C 122.134 1.24865 -1.9731 0
M  V30 1284 C 123.115 1.47651 -0.844576 0
M  V30 1285 O 124.3 1.59444 -1.10866 0
M  V30 1286 C 121.43 2.59358 -2.30977 0
M  V30 1287 C 120.384 2.5119 -3.46537 0
M  V30 1288 C 119.71 3.89926 -3.65871 0
M  V30 1289 C 121.01 2.03977 -4.80823 0
M  V30 1290 H 122.704 0.908252 -2.85291 0
M  V30 1291 H 120.25 0.435462 -1.37258 0
M  V30 1292 H 122.203 3.33011 -2.58228 0
M  V30 1293 H 120.927 2.95132 -1.39874 0
M  V30 1294 H 119.586 1.79993 -3.19371 0
M  V30 1295 H 119.234 4.23046 -2.72105 0
M  V30 1296 H 118.934 3.85336 -4.4361 0
M  V30 1297 H 120.458 4.65205 -3.95495 0
M  V30 1298 H 121.872 2.67386 -5.07127 0
M  V30 1299 H 120.269 2.10397 -5.62008 0
M  V30 1300 H 121.339 0.992861 -4.74626 0
M  V30 1301 N 122.682 1.50554 0.465978 0
M  V30 1302 C 123.632 1.66177 1.56106 0
M  V30 1303 C 124.616 0.516265 1.52393 0
M  V30 1304 O 125.808 0.770906 1.5933 0
M  V30 1305 C 122.937 1.76396 2.94515 0
M  V30 1306 C 122.023 2.9664 3.03093 0
M  V30 1307 N 122.414 4.20245 2.81474 0
M  V30 1308 C 120.712 2.95304 3.34233 0
M  V30 1309 C 121.413 5.01259 2.95151 0
M  V30 1310 N 120.389 4.35318 3.25576 0
M  V30 1311 H 124.191 2.59434 1.38099 0
M  V30 1312 H 121.705 1.47808 0.6728 0
M  V30 1313 H 123.702 1.85694 3.73261 0
M  V30 1314 H 122.362 0.843017 3.13565 0
M  V30 1315 H 123.373 4.4966 2.56956 0
M  V30 1316 H 120.05 2.12729 3.59239 0
M  V30 1317 H 121.44 6.09564 2.82632 0
M  V30 1318 N 124.16 -0.719506 1.40217 0
M  V30 1319 C 125.408 -1.47641 1.3801 0
M  V30 1320 C 125.729 -1.94992 -0.018145 0
M  V30 1321 O 124.999 -1.70073 -0.972207 0
M  V30 1322 H 123.579 -0.547744 0.507923 0
M  V30 1323 H 126.241 -0.853187 1.75233 0
M  V30 1324 H 125.337 -2.35112 2.05253 0
M  V30 1325 N 125.638 -1.25649 -0.95132 0
M  V30 1326 C 126.884 -1.10757 -1.69884 0
M  V30 1327 C 127.217 0.350061 -1.91019 0
M  V30 1328 O 126.492 1.25783 -1.48354 0
M  V30 1329 C 126.775 -1.86606 -3.07978 0
M  V30 1330 C 126.628 -3.40217 -2.94232 0
M  V30 1331 C 127.947 -1.65182 -4.07925 0
M  V30 1332 H 125.066 -0.40374 -0.616574 0
M  V30 1333 H 127.708 -1.54521 -1.10558 0
M  V30 1334 H 125.858 -1.49409 -3.58621 0
M  V30 1335 H 127.53 -3.87108 -2.50889 0
M  V30 1336 H 125.773 -3.67759 -2.30078 0
M  V30 1337 H 126.444 -3.88505 -3.92133 0
M  V30 1338 H 128.92 -1.9757 -3.66204 0
M  V30 1339 H 127.796 -2.20683 -5.02583 0
M  V30 1340 H 128.057 -0.593933 -4.38092 0
M  V30 1341 N 127.117 1.15442 -1.07289 0
M  V30 1342 C 128.345 1.90096 -0.81676 0
M  V30 1343 C 128.76 1.7798 0.629966 0
M  V30 1344 O 128.117 1.1313 1.43206 0
M  V30 1345 C 128.168 3.40466 -1.21512 0
M  V30 1346 O 127.889 3.52232 -2.60508 0
M  V30 1347 C 129.39 4.32145 -0.988198 0
M  V30 1348 H 126.61 0.602495 -0.295366 0
M  V30 1349 H 129.154 1.4627 -1.42918 0
M  V30 1350 H 127.309 3.81958 -0.647039 0
M  V30 1351 H 127.723 4.45549 -2.76742 0
M  V30 1352 H 129.197 5.36072 -1.31645 0
M  V30 1353 H 129.674 4.39135 0.0755063 0
M  V30 1354 H 130.28 3.96395 -1.54115 0
M  V30 1355 N 128.595 0.856903 1.32268 0
M  V30 1356 C 130.011 0.547061 1.49931 0
M  V30 1357 C 130.211 -0.921781 1.7918 0
M  V30 1358 O 129.267 -1.70469 1.8627 0
M  V30 1359 C 130.58 1.43599 2.64196 0
M  V30 1360 C 132.128 1.43665 2.78081 0
M  V30 1361 C 132.603 2.31085 3.95428 0
M  V30 1362 N 134.094 2.28893 4.02694 0
M  V30 1363 C 134.829 2.93262 4.92732 0
M  V30 1364 N 134.325 3.66751 5.87763 0
M  V30 1365 N 136.118 2.82638 4.85873 0
M  V30 1366 H 128.269 1.8075 1.11549 0
M  V30 1367 H 130.532 0.772144 0.549997 0
M  V30 1368 H 130.238 2.48058 2.49319 0
M  V30 1369 H 130.112 1.12502 3.60032 0
M  V30 1370 H 132.499 0.399701 2.92381 0
M  V30 1371 H 132.58 1.7878 1.82952 0
M  V30 1372 H 132.224 3.34849 3.81888 0
M  V30 1373 H 132.154 1.93302 4.89839 0
M  V30 1374 H 134.645 1.75466 3.34694 0
M  V30 1375 H 134.958 4.13027 6.53168 0
M  V30 1376 H 133.303 3.70859 5.87783 0
M  V30 1377 H 136.494 2.24774 4.10602 0
M  V30 1378 H 136.667 3.33084 5.55841 0
M  V30 1379 N 130.073 -1.45103 0.615059 0
M  V30 1380 C 131.321 -2.01784 0.112955 0
M  V30 1381 C 131.642 -1.48504 -1.26378 0
M  V30 1382 O 130.912 -0.682245 -1.83636 0
M  V30 1383 H 129.492 -0.745993 0.0387668 0
M  V30 1384 H 132.154 -1.77808 0.798141 0
M  V30 1385 H 131.25 -3.12025 0.0684069 0
M  V30 1386 N 131.551 -0.354651 -1.53558 0
M  V30 1387 C 132.461 0.50515 -2.29097 0
M  V30 1388 C 133.477 1.10223 -1.34636 0
M  V30 1389 O 134.653 1.11553 -1.67684 0
M  V30 1390 C 131.718 1.63479 -3.05738 0
M  V30 1391 C 130.779 1.06636 -4.15845 0
M  V30 1392 C 130.012 2.14217 -4.88822 0
M  V30 1393 O 130.235 3.35137 -4.61562 0
M  V30 1394 O 129.169 1.77887 -5.75013 0
M  V30 1395 H 132.995 -0.109237 -3.03503 0
M  V30 1396 H 130.58 -0.119357 -1.48922 0
M  V30 1397 H 132.462 2.2918 -3.5363 0
M  V30 1398 H 131.137 2.23478 -2.34178 0
M  V30 1399 H 130.044 0.373565 -3.7223 0
M  V30 1400 H 131.377 0.511081 -4.89539 0
M  V30 1401 N 133.029 1.57378 -0.0835403 0
M  V30 1402 C 133.962 2.09016 0.915833 0
M  V30 1403 C 134.94 0.997993 1.2837 0
M  V30 1404 O 136.124 1.27219 1.39096 0
M  V30 1405 C 133.251 2.55757 2.22049 0
M  V30 1406 C 132.297 3.76522 2.00333 0
M  V30 1407 S 133.13 5.20661 1.25191 0
M  V30 1408 C 134.286 5.70743 2.56912 0
M  V30 1409 H 134.519 2.93457 0.476492 0
M  V30 1410 H 132.052 1.53856 0.129493 0
M  V30 1411 H 134.01 2.83346 2.97027 0
M  V30 1412 H 132.671 1.71564 2.63106 0
M  V30 1413 H 131.864 4.07256 2.96916 0
M  V30 1414 H 131.466 3.49367 1.33488 0
M  V30 1415 H 133.758 5.78304 3.52946 0
M  V30 1416 H 134.701 6.6944 2.30772 0
M  V30 1417 H 135.109 4.98616 2.64655 0
M  V30 1418 N 134.507 -0.190092 1.56449 0
M  V30 1419 C 135.437 -1.23816 1.97969 0
M  V30 1420 C 136.418 -1.47201 0.852395 0
M  V30 1421 O 137.603 -1.58854 1.1171 0
M  V30 1422 C 134.733 -2.5813 2.3235 0
M  V30 1423 C 133.687 -2.49348 3.47864 0
M  V30 1424 C 133.013 -3.8798 3.67934 0
M  V30 1425 C 134.313 -2.01424 4.81898 0
M  V30 1426 H 136.007 -0.89311 2.85769 0
M  V30 1427 H 133.553 -0.428177 1.37487 0
M  V30 1428 H 135.506 -3.31637 2.59991 0
M  V30 1429 H 134.23 -2.94386 1.41438 0
M  V30 1430 H 132.889 -1.78297 3.20321 0
M  V30 1431 H 132.537 -4.21597 2.74344 0
M  V30 1432 H 132.237 -3.82978 4.45648 0
M  V30 1433 H 133.761 -4.63101 3.97957 0
M  V30 1434 H 135.175 -2.64693 5.08538 0
M  V30 1435 H 133.572 -2.07413 5.63116 0
M  V30 1436 H 134.642 -0.967677 4.75146 0
M  V30 1437 N 135.985 -1.50799 -0.457987 0
M  V30 1438 C 136.915 -1.73553 -1.5621 0
M  V30 1439 C 137.896 -0.584774 -1.59732 0
M  V30 1440 O 139.081 -0.825314 -1.7579 0
M  V30 1441 C 136.211 -1.84169 -2.94447 0
M  V30 1442 C 135.165 -2.99461 -3.0579 0
M  V30 1443 C 134.491 -2.95235 -4.45803 0
M  V30 1444 C 135.791 -4.39766 -2.81786 0
M  V30 1445 H 137.485 -2.66 -1.37421 0
M  V30 1446 H 135.031 -1.28002 -0.659662 0
M  V30 1447 H 136.984 -1.98672 -3.71628 0
M  V30 1448 H 135.708 -0.883545 -3.14422 0
M  V30 1449 H 134.367 -2.8463 -2.31044 0
M  V30 1450 H 134.015 -1.97239 -4.62715 0
M  V30 1451 H 133.715 -3.72642 -4.54326 0
M  V30 1452 H 135.239 -3.11803 -5.24987 0
M  V30 1453 H 136.653 -4.55054 -3.4871 0
M  V30 1454 H 135.05 -5.18722 -3.0174 0
M  V30 1455 H 136.12 -4.51229 -1.7754 0
M  V30 1456 N 137.463 0.71206 -1.40597 0
M  V30 1457 C 138.711 1.46907 -1.38791 0
M  V30 1458 C 139.032 1.94998 0.00780391 0
M  V30 1459 O 138.302 1.70587 0.963174 0
M  V30 1460 H 136.882 0.545043 -0.51082 0
M  V30 1461 H 139.544 0.843882 -1.75683 0
M  V30 1462 H 138.64 2.34021 -2.06496 0
M  V30 1463 N 138.941 1.26152 0.944643 0
M  V30 1464 C 140.166 1.14363 1.7302 0
M  V30 1465 C 140.591 -0.29772 1.85729 0
M  V30 1466 O 139.949 -1.2157 1.34501 0
M  V30 1467 C 139.997 1.81378 3.11664 0
M  V30 1468 O 139.101 1.10022 3.97453 0
M  V30 1469 H 138.442 0.398694 0.53098 0
M  V30 1470 H 140.972 1.66906 1.18337 0
M  V30 1471 H 140.982 1.88064 3.62072 0
M  V30 1472 H 139.657 2.86237 3.0173 0
M  V30 1473 H 138.234 1.11287 3.55907 0
M  V30 1474 N 140.419 -1.14872 1.07899 0
M  V30 1475 C 141.349 -2.2193 0.725887 0
M  V30 1476 C 142.33 -1.67622 -0.28927 0
M  V30 1477 O 143.515 -1.93533 -0.160787 0
M  V30 1478 C 140.645 -3.47061 0.128856 0
M  V30 1479 C 139.599 -4.14363 1.07178 0
M  V30 1480 C 138.925 -5.33636 0.337229 0
M  V30 1481 C 140.225 -4.63492 2.40775 0
M  V30 1482 H 141.919 -2.51724 1.62097 0
M  V30 1483 H 139.465 -1.20991 0.780838 0
M  V30 1484 H 141.418 -4.21199 -0.130147 0
M  V30 1485 H 140.142 -3.16617 -0.80134 0
M  V30 1486 H 138.801 -3.42173 1.3158 0
M  V30 1487 H 138.449 -4.99449 -0.596606 0
M  V30 1488 H 138.149 -5.79609 0.965788 0
M  V30 1489 H 139.673 -6.10539 0.0861567 0
M  V30 1490 H 141.087 -5.2913 2.20669 0
M  V30 1491 H 139.484 -5.20148 2.99276 0
M  V30 1492 H 140.554 -3.78834 3.02676 0
M  V30 1493 N 141.898 -0.863906 -1.31812 0
M  V30 1494 C 142.828 -0.330843 -2.31144 0
M  V30 1495 C 143.809 0.575005 -1.60087 0
M  V30 1496 O 144.994 0.493304 -1.8783 0
M  V30 1497 C 142.124 0.47374 -3.44054 0
M  V30 1498 C 141.078 -0.338481 -4.26659 0
M  V30 1499 C 140.404 0.591412 -5.31419 0
M  V30 1500 C 141.704 -1.56926 -4.98168 0
M  V30 1501 H 143.398 -1.16086 -2.75979 0
M  V30 1502 H 140.944 -0.559657 -1.32679 0
M  V30 1503 H 142.897 0.857143 -4.12591 0
M  V30 1504 H 141.621 1.33721 -2.9797 0
M  V30 1505 H 140.28 -0.703754 -3.59782 0
M  V30 1506 H 139.928 1.45199 -4.81587 0
M  V30 1507 H 139.628 0.0519022 -5.87577 0
M  V30 1508 H 141.152 0.97179 -6.02817 0
M  V30 1509 H 142.566 -1.25764 -5.59336 0
M  V30 1510 H 140.963 -2.04739 -5.64094 0
M  V30 1511 H 142.033 -2.32544 -4.25501 0
M  V30 1512 N 143.376 1.44774 -0.622745 0
M  V30 1513 C 144.792 1.56986 -0.287652 0
M  V30 1514 C 144.992 1.61167 1.20944 0
M  V30 1515 O 144.048 1.55015 1.99315 0
M  V30 1516 C 145.361 2.84551 -0.972188 0
M  V30 1517 C 146.909 2.9825 -0.949536 0
M  V30 1518 C 147.384 4.28605 -1.61437 0
M  V30 1519 N 148.875 4.35399 -1.58057 0
M  V30 1520 C 149.61 5.34964 -2.064 0
M  V30 1521 N 149.106 6.40981 -2.62897 0
M  V30 1522 N 150.899 5.26419 -1.97078 0
M  V30 1523 H 143.05 1.40304 -1.59463 0
M  V30 1524 H 145.313 0.671794 -0.668878 0
M  V30 1525 H 145.019 2.87417 -2.02693 0
M  V30 1526 H 144.893 3.73807 -0.504771 0
M  V30 1527 H 147.28 2.94941 0.0967067 0
M  V30 1528 H 147.361 2.10364 -1.45536 0
M  V30 1529 H 147.005 4.32672 -2.66002 0
M  V30 1530 H 146.935 5.15334 -1.08344 0
M  V30 1531 H 149.426 3.59397 -1.16801 0
M  V30 1532 H 149.739 7.13225 -2.97539 0
M  V30 1533 H 148.084 6.4169 -2.66943 0
M  V30 1534 H 151.275 4.42504 -1.52669 0
M  V30 1535 H 151.448 6.03861 -2.35066 0
M  V30 1536 N 144.854 0.36279 1.53368 0
M  V30 1537 C 146.082 -0.228613 2.05633 0
M  V30 1538 C 146.497 -1.42676 1.23649 0
M  V30 1539 O 145.854 -1.80394 0.27647 0
M  V30 1540 C 145.905 -0.624845 3.56059 0
M  V30 1541 O 145.626 0.525675 4.34935 0
M  V30 1542 C 147.127 -1.27493 4.24571 0
M  V30 1543 H 144.347 -0.0407183 0.669763 0
M  V30 1544 H 146.891 0.520352 1.97769 0
M  V30 1545 H 145.046 -1.32373 3.64083 0
M  V30 1546 H 145.46 0.205969 5.24095 0
M  V30 1547 H 146.934 -1.50277 5.31151 0
M  V30 1548 H 147.411 -2.23439 3.78116 0
M  V30 1549 H 148.017 -0.617558 4.20792 0
M  V30 1550 N 146.332 -1.57332 0.0918853 0
M  V30 1551 C 147.578 -1.94524 -0.573425 0
M  V30 1552 C 147.911 -0.973578 -1.68033 0
M  V30 1553 O 147.186 -0.00609226 -1.94499 0
M  V30 1554 C 147.469 -3.41858 -1.13161 0
M  V30 1555 C 147.322 -4.4979 -0.0299747 0
M  V30 1556 C 148.641 -3.90435 -2.03098 0
M  V30 1557 H 145.76 -0.70734 -0.206975 0
M  V30 1558 H 148.402 -1.89309 0.161942 0
M  V30 1559 H 146.552 -3.46433 -1.7583 0
M  V30 1560 H 148.224 -4.57327 0.604112 0
M  V30 1561 H 146.467 -4.291 0.636833 0
M  V30 1562 H 147.138 -5.50069 -0.461287 0
M  V30 1563 H 149.614 -3.87992 -1.50338 0
M  V30 1564 H 148.49 -4.94097 -2.39081 0
M  V30 1565 H 148.751 -3.29541 -2.94712 0
M  V30 1566 N 147.81 0.181792 -1.56548 0
M  V30 1567 C 149.058 0.89832 -1.81038 0
M  V30 1568 C 149.379 1.83232 -0.667164 0
M  V30 1569 O 148.649 1.93372 0.313673 0
M  V30 1570 H 147.229 0.33471 -0.667816 0
M  V30 1571 H 149.891 0.184116 -1.94028 0
M  V30 1572 H 148.987 1.4815 -2.74696 0
M  V30 1573 N 149.288 1.51039 0.449983 0
M  V30 1574 C 150.218 1.74379 1.55288 0
M  V30 1575 C 151.199 0.593236 1.5942 0
M  V30 1576 O 152.384 0.834625 1.7535 0
M  V30 1577 C 149.514 1.85728 2.93466 0
M  V30 1578 C 148.468 3.01078 3.04197 0
M  V30 1579 C 147.794 2.97595 4.44231 0
M  V30 1580 C 149.094 4.41254 2.7945 0
M  V30 1581 H 150.788 2.66725 1.36008 0
M  V30 1582 H 148.334 1.2835 0.652864 0
M  V30 1583 H 150.287 2.0064 3.70569 0
M  V30 1584 H 149.011 0.900207 3.13949 0
M  V30 1585 H 147.67 2.85851 2.29531 0
M  V30 1586 H 147.318 1.99691 4.61663 0
M  V30 1587 H 147.018 3.75046 4.52343 0
M  V30 1588 H 148.542 3.14583 5.23326 0
M  V30 1589 H 149.956 4.56897 3.46292 0
M  V30 1590 H 148.353 5.20315 2.98985 0
M  V30 1591 H 149.423 4.52164 1.75144 0
M  V30 1592 N 150.766 -0.704594 1.40972 0
M  V30 1593 C 152.182 -1.01406 1.23244 0
M  V30 1594 C 152.382 -2.01169 0.115399 0
M  V30 1595 O 151.438 -2.47021 -0.523147 0
M  V30 1596 C 152.751 -1.54728 2.57836 0
M  V30 1597 C 154.299 -1.66658 2.64942 0
M  V30 1598 C 154.774 -2.23383 3.9983 0
M  V30 1599 N 156.265 -2.30756 4.01629 0
M  V30 1600 C 157 -2.75655 5.02794 0
M  V30 1601 N 156.496 -3.20225 6.14352 0
M  V30 1602 N 158.289 -2.75138 4.90159 0
M  V30 1603 H 150.44 -0.0435285 2.12355 0
M  V30 1604 H 152.703 -0.0818951 0.944456 0
M  V30 1605 H 152.409 -0.888832 3.40283 0
M  V30 1606 H 152.283 -2.53084 2.79693 0
M  V30 1607 H 154.67 -2.31617 1.8286 0
M  V30 1608 H 154.751 -0.668717 2.46904 0
M  V30 1609 H 154.395 -1.59043 4.82357 0
M  V30 1610 H 154.325 -3.23904 4.15203 0
M  V30 1611 H 156.816 -1.99291 3.21079 0
M  V30 1612 H 157.129 -3.53084 6.87424 0
M  V30 1613 H 155.474 -3.18156 6.17901 0
M  V30 1614 H 158.665 -2.39661 4.02095 0
M  V30 1615 H 158.838 -3.09812 5.6914 0
M  V30 1616 N 152.244 -1.26651 -0.937939 0
M  V30 1617 C 153.491 -1.12387 -1.6845 0
M  V30 1618 C 153.819 0.332208 -1.91642 0
M  V30 1619 O 153.074 1.2602 -1.49725 0
M  V30 1620 C 153.373 -1.84168 -3.06295 0
M  V30 1621 C 153.039 -3.34056 -3.02849 0
M  V30 1622 C 151.701 -3.74942 -3.01616 0
M  V30 1623 C 154.053 -4.29741 -2.9491 0
M  V30 1624 C 151.381 -5.09894 -2.90215 0
M  V30 1625 C 153.733 -5.64738 -2.8505 0
M  V30 1626 C 152.397 -6.0493 -2.82162 0
M  V30 1627 H 151.667 -0.411252 -0.616403 0
M  V30 1628 H 154.314 -1.57134 -1.09459 0
M  V30 1629 H 152.619 -1.319 -3.6893 0
M  V30 1630 H 154.316 -1.70569 -3.62915 0
M  V30 1631 H 150.906 -3.01534 -3.0459 0
M  V30 1632 H 155.09 -3.99133 -2.94969 0
M  V30 1633 H 150.346 -5.40194 -2.86358 0
M  V30 1634 H 154.52 -6.38561 -2.77872 0
M  V30 1635 H 152.147 -7.09457 -2.73084 0
M  V30 1636 N 153.722 1.14298 -1.08507 0
M  V30 1637 C 154.685 2.17607 -0.719711 0
M  V30 1638 C 155.685 1.58907 0.245997 0
M  V30 1639 O 156.875 1.74181 0.0254081 0
M  V30 1640 C 154.007 3.40842 -0.0627695 0
M  V30 1641 H 155.2 2.51443 -1.63452 0
M  V30 1642 H 152.753 1.28963 -0.88307 0
M  V30 1643 H 153.488 3.12587 0.863716 0
M  V30 1644 H 153.273 3.84713 -0.757504 0
M  V30 1645 H 154.763 4.17221 0.177786 0
M  V30 1646 N 155.201 0.870884 1.31352 0
M  V30 1647 C 156.447 0.482987 1.96965 0
M  V30 1648 C 156.78 -0.962462 1.68672 0
M  V30 1649 O 156.055 -1.6779 0.98371 0
M  V30 1650 C 156.338 0.741752 3.52378 0
M  V30 1651 C 156.191 2.2368 3.9024 0
M  V30 1652 C 157.51 0.208838 4.39604 0
M  V30 1653 H 154.629 0.176955 0.715441 0
M  V30 1654 H 157.271 1.09229 1.55464 0
M  V30 1655 H 155.421 0.223149 3.87859 0
M  V30 1656 H 157.093 2.82273 3.64856 0
M  V30 1657 H 155.336 2.70901 3.38814 0
M  V30 1658 H 156.007 2.3685 4.98604 0
M  V30 1659 H 158.483 0.652529 4.10952 0
M  V30 1660 H 157.359 0.419336 5.47296 0
M  V30 1661 H 157.62 -0.889275 4.33064 0
M  V30 1662 N 156.679 -1.44442 0.630414 0
M  V30 1663 C 157.609 -2.33418 -0.0618083 0
M  V30 1664 C 158.59 -1.48165 -0.835541 0
M  V30 1665 O 159.775 -1.76886 -0.801564 0
M  V30 1666 C 156.905 -3.31222 -1.04449 0
M  V30 1667 C 155.859 -4.26288 -0.382436 0
M  V30 1668 C 155.185 -5.13954 -1.47497 0
M  V30 1669 C 156.485 -5.1744 0.710865 0
M  V30 1670 H 158.179 -2.91548 0.681184 0
M  V30 1671 H 155.725 -1.40191 0.329026 0
M  V30 1672 H 157.678 -3.92351 -1.53748 0
M  V30 1673 H 156.402 -2.71299 -1.81836 0
M  V30 1674 H 155.061 -3.6649 0.0899054 0
M  V30 1675 H 154.709 -4.50385 -2.2397 0
M  V30 1676 H 154.409 -5.7837 -1.03737 0
M  V30 1677 H 155.933 -5.77955 -1.96979 0
M  V30 1678 H 157.347 -5.72509 0.300996 0
M  V30 1679 H 155.744 -5.90455 1.07156 0
M  V30 1680 H 156.814 -4.58496 1.57829 0
M  V30 1681 N 158.157 -0.370918 -1.53173 0
M  V30 1682 C 159.573 -0.0200818 -1.59587 0
M  V30 1683 C 159.773 1.46279 -1.38581 0
M  V30 1684 O 158.829 2.22506 -1.19363 0
M  V30 1685 C 160.142 -0.4808 -2.96831 0
M  V30 1686 C 161.69 -0.435477 -3.09956 0
M  V30 1687 C 162.165 -0.872092 -4.4962 0
M  V30 1688 N 163.656 -0.827364 -4.55751 0
M  V30 1689 C 164.391 -1.13683 -5.62018 0
M  V30 1690 N 163.887 -1.51584 -6.76014 0
M  V30 1691 N 165.68 -1.05927 -5.52029 0
M  V30 1692 H 157.831 -1.33652 -1.65079 0
M  V30 1693 H 160.094 -0.546634 -0.774529 0
M  V30 1694 H 159.8 -1.51577 -3.1736 0
M  V30 1695 H 159.674 0.129796 -3.76977 0
M  V30 1696 H 162.061 0.590371 -2.89134 0
M  V30 1697 H 162.142 -1.08164 -2.31806 0
M  V30 1698 H 161.786 -1.89608 -4.71181 0
M  V30 1699 H 161.716 -0.203127 -5.26208 0
M  V30 1700 H 164.207 -0.548216 -3.73902 0
M  V30 1701 H 164.52 -1.73609 -7.53047 0
M  V30 1702 H 162.865 -1.55454 -6.77391 0
M  V30 1703 H 166.056 -0.762321 -4.61851 0
M  V30 1704 H 166.229 -1.30378 -6.34749 0
M  V30 1705 N 159.635 1.57281 -0.100228 0
M  V30 1706 C 160.883 1.94153 0.561157 0
M  V30 1707 C 161.204 0.983157 1.68401 0
M  V30 1708 O 160.474 0.0361132 1.95867 0
M  V30 1709 H 159.054 0.716791 0.210283 0
M  V30 1710 H 161.716 1.94202 -0.164765 0
M  V30 1711 H 160.812 2.96709 0.968008 0
M  V30 1712 N 161.113 -0.173488 1.56642 0
M  V30 1713 C 162.061 -1.23417 1.97157 0
M  V30 1714 C 163.055 -1.45946 0.860013 0
M  V30 1715 O 164.261 -1.46551 1.04512 0
M  V30 1716 H 160.636 -0.414818 0.62724 0
M  V30 1717 H 162.607 -0.865582 2.8557 0
M  V30 1718 C 161.356 -2.5665 2.34576 0
M  V30 1719 H 160.679 -2.40137 3.19647 0
M  V30 1720 H 162.119 -3.2956 2.6677 0
M  V30 1721 C 160.578 -3.15245 1.18836 0
M  V30 1722 O 161.108 -3.98883 0.474869 0
M  V30 1723 N 159.314 -2.74303 0.959497 0
M  V30 1724 H 158.861 -2.0639 1.54146 0
M  V30 1725 H 158.819 -3.13844 0.186932 0
M  V30 1726 N 162.591 -1.51276 -0.441967 0
M  V30 1727 C 164.002 -1.56244 -1.02199 0
M  V30 1728 C 164.353 -0.383149 -1.92422 0
M  V30 1729 O 163.478 0.500613 -2.1053 0
M  V30 1730 C 164.073 -2.83162 -1.86024 0
M  V30 1731 C 162.632 -2.90716 -2.39084 0
M  V30 1732 C 161.779 -2.50858 -1.18175 0
M  V30 1733 H 164.73 -1.5712 -0.223416 0
M  V30 1734 H 164.751 -2.66663 -2.71425 0
M  V30 1735 H 164.263 -3.68974 -1.20331 0
M  V30 1736 H 162.364 -2.09323 -3.08244 0
M  V30 1737 H 162.477 -3.94266 -2.72198 0
M  V30 1738 H 160.841 -2.03951 -1.52565 0
M  V30 1739 H 161.624 -3.3901 -0.541001 0
M  V30 1740 N 164.069 0.697108 -1.41344 0
M  V30 1741 C 165.299 1.48377 -1.43763 0
M  V30 1742 C 165.707 1.89156 -0.0408726 0
M  V30 1743 O 165.05 1.57239 0.949812 0
M  V30 1744 C 165.112 2.7781 -2.2817 0
M  V30 1745 C 164.776 2.59244 -3.76353 0
M  V30 1746 C 165.773 2.25292 -4.68551 0
M  V30 1747 C 163.458 2.74933 -4.20378 0
M  V30 1748 C 165.452 2.07264 -6.02761 0
M  V30 1749 C 163.139 2.56521 -5.54653 0
M  V30 1750 C 164.137 2.22737 -6.4566 0
M  V30 1751 O 163.825 2.04485 -7.77458 0
M  V30 1752 H 163.557 0.463842 -0.491759 0
M  V30 1753 H 166.111 0.865934 -1.86255 0
M  V30 1754 H 164.341 3.41995 -1.8049 0
M  V30 1755 H 166.03 3.39608 -2.22309 0
M  V30 1756 H 166.796 2.12787 -4.35829 0
M  V30 1757 H 162.675 3.00213 -3.49848 0
M  V30 1758 H 166.219 1.80817 -6.73759 0
M  V30 1759 H 162.116 2.68616 -5.86955 0
M  V30 1760 H 162.884 2.1926 -7.88586 0
M  V30 1761 N 165.547 1.27147 0.931209 0
M  V30 1762 C 166.457 1.11372 2.06478 0
M  V30 1763 C 167.473 0.044645 1.73943 0
M  V30 1764 O 168.649 0.250417 1.99837 0
M  V30 1765 C 165.714 0.758838 3.38294 0
M  V30 1766 C 164.775 1.90841 3.84549 0
M  V30 1767 C 164.008 1.57036 5.10074 0
M  V30 1768 O 164.231 0.476645 5.68405 0
M  V30 1769 O 163.165 2.40839 5.51616 0
M  V30 1770 H 166.991 2.06493 2.22698 0
M  V30 1771 H 164.576 1.06301 1.04978 0
M  V30 1772 H 166.458 0.574098 4.17471 0
M  V30 1773 H 165.133 -0.162879 3.2329 0
M  V30 1774 H 164.04 2.14819 3.06274 0
M  V30 1775 H 165.373 2.81021 4.04089 0
M  V30 1776 N 167.025 -1.13721 1.09112 0
M  V30 1777 C 168.25 -1.89314 0.847053 0
M  V30 1778 C 168.675 -1.78416 -0.595774 0
M  V30 1779 O 168.033 -1.12942 -1.41823 0
M  V30 1780 C 168.081 -3.3701 1.28284 0
M  V30 1781 O 167.185 -4.10054 0.439267 0
M  V30 1782 H 166.526 -0.588745 0.307044 0
M  V30 1783 H 169.056 -1.43902 1.45442 0
M  V30 1784 H 169.066 -3.87834 1.26683 0
M  V30 1785 H 167.741 -3.4426 2.33363 0
M  V30 1786 H 166.318 -3.69266 0.519312 0
M  V30 1787 N 168.503 -0.877838 -1.30888 0
M  V30 1788 C 169.413 -0.343096 -2.32078 0
M  V30 1789 C 170.429 0.551022 -1.65045 0
M  V30 1790 O 171.605 0.445854 -1.96403 0
M  V30 1791 C 168.67 0.439905 -3.43898 0
M  V30 1792 C 167.731 -0.483111 -4.26573 0
M  V30 1793 C 166.964 0.262616 -5.33053 0
M  V30 1794 O 167.187 1.48967 -5.50604 0
M  V30 1795 O 166.121 -0.383593 -6.00676 0
M  V30 1796 H 169.947 -1.18203 -2.79753 0
M  V30 1797 H 167.532 -0.64145 -1.34929 0
M  V30 1798 H 169.414 0.883504 -4.12034 0
M  V30 1799 H 168.089 1.25526 -2.98371 0
M  V30 1800 H 166.996 -0.975374 -3.61161 0
M  V30 1801 H 168.329 -1.26427 -4.75686 0
M  V30 1802 N 169.982 1.44106 -0.638065 0
M  V30 1803 C 170.945 2.29138 0.0531013 0
M  V30 1804 C 171.945 1.41409 0.765506 0
M  V30 1805 O 173.135 1.63206 0.609046 0
M  V30 1806 C 170.267 3.23144 1.08584 0
M  V30 1807 H 171.46 2.91739 -0.694883 0
M  V30 1808 H 169.013 1.51134 -0.398538 0
M  V30 1809 H 169.748 2.65408 1.86357 0
M  V30 1810 H 169.533 3.87804 0.578852 0
M  V30 1811 H 171.023 3.87004 1.56899 0
M  V30 1812 N 171.46 0.379036 1.52974 0
M  V30 1813 C 172.37 -0.468639 2.29872 0
M  V30 1814 C 173.386 -1.08067 1.36373 0
M  V30 1815 O 174.562 -1.08871 1.69438 0
M  V30 1816 C 171.627 -1.58594 3.083 0
M  V30 1817 C 170.688 -1.00007 4.17489 0
M  V30 1818 C 169.921 -2.06413 4.92168 0
M  V30 1819 O 170.144 -3.27751 4.66835 0
M  V30 1820 O 169.078 -1.68717 5.7777 0
M  V30 1821 H 172.904 0.157508 3.03291 0
M  V30 1822 H 170.489 0.143035 1.48714 0
M  V30 1823 H 172.371 -2.23525 3.57232 0
M  V30 1824 H 171.046 -2.19724 2.37703 0
M  V30 1825 H 169.953 -0.314299 3.72777 0
M  V30 1826 H 171.286 -0.433135 4.90291 0
M  V30 1827 N 172.938 -1.57226 0.108567 0
M  V30 1828 C 174.186 -1.94448 -0.550853 0
M  V30 1829 C 174.507 -0.992074 -1.67878 0
M  V30 1830 O 173.777 -0.0465 -1.95845 0
M  V30 1831 H 172.357 -0.717897 -0.206479 0
M  V30 1832 H 175.019 -1.94112 0.175062 0
M  V30 1833 H 174.115 -2.97218 -0.952259 0
M  V30 1834 N 174.416 0.165178 -1.56732 0
M  V30 1835 C 175.693 0.908443 -1.73224 0
M  V30 1836 C 176.073 2.0013 -0.67165 0
M  V30 1837 O 175.421 2.26353 0.31253 0
M  V30 1838 C 175.631 1.46756 -3.16644 0
M  V30 1839 C 176.979 1.93809 -3.77787 0
M  V30 1840 O 178.003 1.56537 -3.1996 0
M  V30 1841 O 176.862 2.62486 -4.79336 0
M  V30 1842 H 173.956 0.428025 -0.707618 0
M  V30 1843 H 176.502 0.152526 -1.69013 0
M  V30 1844 H 175.274 0.68129 -3.85323 0
M  V30 1845 H 174.897 2.28749 -3.25207 0
M  V30 1846 N 175.894 1.51508 0.433938 0
M  V30 1847 C 177.14 1.65549 1.18173 0
M  V30 1848 C 177.495 0.368751 1.88833 0
M  V30 1849 O 176.788 -0.635616 1.8075 0
M  V30 1850 C 176.982 2.79928 2.22205 0
M  V30 1851 C 176.811 4.19601 1.61756 0
M  V30 1852 C 175.581 4.85489 1.40101 0
M  V30 1853 C 177.779 5.02574 1.09194 0
M  V30 1854 N 175.761 6.09266 0.752859 0
M  V30 1855 C 177.132 6.17381 0.569255 0
M  V30 1856 C 179.187 4.88079 0.984025 0
M  V30 1857 C 177.89 7.19282 -0.0507472 0
M  V30 1858 C 179.916 5.90191 0.377912 0
M  V30 1859 C 179.278 7.04272 -0.134216 0
M  V30 1860 H 175.377 0.659653 0.419979 0
M  V30 1861 H 177.961 1.88746 0.477818 0
M  V30 1862 H 176.132 2.5839 2.89982 0
M  V30 1863 H 177.864 2.83132 2.89168 0
M  V30 1864 H 174.619 4.43417 1.66369 0
M  V30 1865 H 175.043 6.75528 0.446123 0
M  V30 1866 H 179.685 4.00131 1.36583 0
M  V30 1867 H 177.403 8.06876 -0.444676 0
M  V30 1868 H 180.989 5.81045 0.296269 0
M  V30 1869 H 179.869 7.81933 -0.59585 0
M  V30 1870 N 177.372 -0.689602 1.41712 0
M  V30 1871 C 178.621 -1.44534 1.40686 0
M  V30 1872 C 178.934 -1.95588 0.0213352 0
M  V30 1873 O 180.14 -2.71271 -0.111534 0
M  V30 1874 C 178.596 -2.61387 2.47396 0
M  V30 1875 C 178.204 -2.17094 3.91885 0
M  V30 1876 C 179.948 -3.38986 2.55517 0
M  V30 1877 C 177.855 -3.3094 4.90135 0
M  V30 1878 H 176.785 -0.542925 0.52321 0
M  V30 1879 H 179.436 -0.748054 1.6756 0
M  V30 1880 H 177.818 -3.33412 2.13664 0
M  V30 1881 H 178.992 -1.52318 4.34897 0
M  V30 1882 H 177.307 -1.52473 3.8748 0
M  V30 1883 H 179.904 -4.23747 3.26102 0
M  V30 1884 H 180.247 -3.84578 1.59391 0
M  V30 1885 H 180.78 -2.74021 2.8837 0
M  V30 1886 H 177.519 -2.90355 5.87685 0
M  V30 1887 H 177.039 -3.94546 4.51767 0
M  V30 1888 H 178.718 -3.9663 5.11169 0
M  V30 1889 N 178.85 -1.27639 -0.924453 0
M  V30 1890 C 179.813 -1.10681 -2.00705 0
M  V30 1891 C 180.813 -0.0497823 -1.60723 0
M  V30 1892 O 182.003 -0.294654 -1.7169 0
M  V30 1893 C 179.135 -0.687164 -3.33902 0
M  V30 1894 H 180.328 -2.06817 -2.17179 0
M  V30 1895 H 177.881 -1.10473 -1.10569 0
M  V30 1896 H 178.616 0.275439 -3.23128 0
M  V30 1897 H 178.401 -1.45061 -3.6428 0
M  V30 1898 H 179.891 -0.590853 -4.13399 0
M  V30 1899 N 180.328 1.1314 -1.09713 0
M  V30 1900 C 181.574 1.84757 -0.836224 0
M  V30 1901 C 181.907 1.8347 0.636598 0
M  V30 1902 O 181.182 1.27491 1.46889 0
M  V30 1903 C 181.465 3.32782 -1.37578 0
M  V30 1904 C 181.318 3.42567 -2.91493 0
M  V30 1905 C 182.637 4.28307 -1.01198 0
M  V30 1906 H 179.756 0.67082 -0.305236 0
M  V30 1907 H 182.398 1.3278 -1.35903 0
M  V30 1908 H 180.548 3.77177 -0.931097 0
M  V30 1909 H 182.22 3.06862 -3.44432 0
M  V30 1910 H 180.463 2.83349 -3.28475 0
M  V30 1911 H 181.134 4.46674 -3.24324 0
M  V30 1912 H 183.61 3.91999 -1.39556 0
M  V30 1913 H 182.486 5.30307 -1.41653 0
M  V30 1914 H 182.747 4.42029 0.0794833 0
M  V30 1915 N 181.806 0.884767 1.30421 0
M  V30 1916 C 183.031 0.517288 2.00845 0
M  V30 1917 C 183.456 -0.886779 1.65885 0
M  V30 1918 O 182.814 -1.58768 0.875354 0
M  V30 1919 C 182.862 0.698994 3.5376 0
M  V30 1920 O 181.966 -0.255208 4.1161 0
M  V30 1921 H 181.307 0.203872 0.631927 0
M  V30 1922 H 183.837 1.19225 1.66272 0
M  V30 1923 H 183.847 0.597912 4.03595 0
M  V30 1924 H 182.522 1.72271 3.78544 0
M  V30 1925 H 181.099 -0.10784 3.72744 0
M  V30 1926 N 183.284 -1.43765 0.645699 0
M  V30 1927 C 184.214 -2.33471 -0.0370477 0
M  V30 1928 C 185.195 -1.49042 -0.819779 0
M  V30 1929 O 186.38 -1.77726 -0.782758 0
M  V30 1930 C 183.51 -3.32311 -1.0093 0
M  V30 1931 C 182.464 -4.2667 -0.337201 0
M  V30 1932 C 181.79 -5.1549 -1.42037 0
M  V30 1933 C 183.09 -5.16657 0.765706 0
M  V30 1934 H 184.784 -2.90809 0.712069 0
M  V30 1935 H 182.33 -1.39834 0.343876 0
M  V30 1936 H 184.283 -3.9396 -1.49578 0
M  V30 1937 H 183.007 -2.73213 -1.78948 0
M  V30 1938 H 181.666 -3.66374 0.128771 0
M  V30 1939 H 181.314 -4.52735 -2.1918 0
M  V30 1940 H 181.014 -5.79438 -0.975966 0
M  V30 1941 H 182.538 -5.80012 -1.90838 0
M  V30 1942 H 183.952 -5.72158 0.361702 0
M  V30 1943 H 182.349 -5.89286 1.13413 0
M  V30 1944 H 183.419 -4.56796 1.62683 0
M  V30 1945 N 184.763 -0.387143 -1.52771 0
M  V30 1946 C 185.993 0.195585 -2.05672 0
M  V30 1947 C 186.401 1.41241 -1.25887 0
M  V30 1948 O 185.744 1.81265 -0.298081 0
M  V30 1949 C 185.806 0.632327 -3.53895 0
M  V30 1950 C 185.47 -0.470739 -4.54569 0
M  V30 1951 C 186.467 -1.32746 -5.02667 0
M  V30 1952 C 184.152 -0.637151 -4.98243 0
M  V30 1953 C 186.146 -2.33574 -5.93061 0
M  V30 1954 C 183.833 -1.64877 -5.88438 0
M  V30 1955 C 184.831 -2.49649 -6.35739 0
M  V30 1956 O 184.519 -3.49082 -7.24153 0
M  V30 1957 H 184.251 0.033658 -0.675162 0
M  V30 1958 H 186.805 -0.550221 -1.97893 0
M  V30 1959 H 185.035 1.43008 -3.59285 0
M  V30 1960 H 186.724 1.14048 -3.89548 0
M  V30 1961 H 187.49 -1.21019 -4.69659 0
M  V30 1962 H 183.369 0.0129567 -4.60998 0
M  V30 1963 H 186.913 -2.99777 -6.29904 0
M  V30 1964 H 182.81 -1.76643 -6.2086 0
M  V30 1965 H 183.578 -3.45065 -7.42208 0
M  V30 1966 N 186.241 1.57166 -0.116904 0
M  V30 1967 C 187.489 1.94737 0.540533 0
M  V30 1968 C 187.81 1.00096 1.67349 0
M  V30 1969 O 187.08 0.0568854 1.95817 0
M  V30 1970 H 185.66 0.718981 0.202669 0
M  V30 1971 H 188.322 1.94017 -0.185353 0
M  V30 1972 H 187.418 2.97719 0.936483 0
M  V30 1973 N 187.719 -0.156864 1.56817 0
M  V30 1974 C 188.947 -0.886316 1.86955 0
M  V30 1975 C 189.362 -1.75185 0.703975 0
M  V30 1976 O 188.719 -1.79555 -0.326552 0
M  V30 1977 C 188.77 -1.75117 3.16253 0
M  V30 1978 O 188.491 -0.920537 4.2832 0
M  V30 1979 C 189.992 -2.58905 3.59837 0
M  V30 1980 H 187.212 -0.25678 0.619923 0
M  V30 1981 H 189.756 -0.152615 2.0393 0
M  V30 1982 H 187.911 -2.43805 3.01062 0
M  V30 1983 H 188.325 -1.51337 5.02192 0
M  V30 1984 H 189.799 -3.1518 4.53172 0
M  V30 1985 H 190.276 -3.34472 2.84649 0
M  V30 1986 H 190.882 -1.95526 3.7769 0
M  V30 1987 N 189.197 -1.51736 -0.425897 0
M  V30 1988 C 190.446 -1.64201 -1.17136 0
M  V30 1989 C 190.759 -0.369705 -1.92074 0
M  V30 1990 O 191.965 -0.373898 -2.68913 0
M  V30 1991 C 190.421 -2.90035 -2.13091 0
M  V30 1992 C 190.029 -4.24312 -1.43747 0
M  V30 1993 C 191.773 -3.1186 -2.87999 0
M  V30 1994 C 189.68 -5.41285 -2.38253 0
M  V30 1995 H 188.61 -0.611624 -0.440944 0
M  V30 1996 H 191.261 -1.78212 -0.437328 0
M  V30 1997 H 189.643 -2.69684 -2.89977 0
M  V30 1998 H 190.817 -4.55086 -0.723408 0
M  V30 1999 H 189.132 -4.08456 -0.809465 0
M  V30 2000 H 191.729 -3.96427 -3.58817 0
M  V30 2001 H 192.072 -2.25403 -3.49999 0
M  V30 2002 H 192.605 -3.32605 -2.18217 0
M  V30 2003 H 189.344 -6.30037 -1.80925 0
M  V30 2004 H 188.864 -5.14872 -3.0768 0
M  V30 2005 H 190.543 -5.73694 -2.99139 0
M  V30 2006 N 190.675 0.682077 -1.42076 0
M  V30 2007 C 191.923 1.4393 -1.41876 0
M  V30 2008 C 192.244 1.94971 -0.0335599 0
M  V30 2009 O 191.514 1.72591 0.926773 0
M  V30 2010 H 190.094 0.534085 -0.522267 0
M  V30 2011 H 192.756 0.806427 -1.77434 0
M  V30 2012 H 191.852 2.29588 -2.11414 0
M  V30 2013 N 192.153 1.28127 0.917671 0
M  V30 2014 C 193.116 1.11744 2.00115 0
M  V30 2015 C 194.116 0.0583052 1.60694 0
M  V30 2016 O 195.306 0.303755 1.71531 0
M  V30 2017 C 192.438 0.704862 3.33533 0
M  V30 2018 H 193.631 2.07966 2.16079 0
M  V30 2019 H 191.184 1.11058 1.09981 0
M  V30 2020 H 191.919 -0.258299 3.2327 0
M  V30 2021 H 191.704 1.4699 3.63505 0
M  V30 2022 H 193.194 0.612768 4.1308 0
M  V30 2023 N 193.631 -1.12557 1.10312 0
M  V30 2024 C 195.042 -1.65574 0.862678 0
M  V30 2025 C 195.393 -1.86566 -0.607256 0
M  V30 2026 O 194.518 -1.59121 -1.46662 0
M  V30 2027 C 195.113 -3.00776 1.55947 0
M  V30 2028 C 193.672 -3.50748 1.36576 0
M  V30 2029 C 192.819 -2.25797 1.60968 0
M  V30 2030 H 195.77 -0.963552 1.26101 0
M  V30 2031 H 195.791 -3.67185 0.997753 0
M  V30 2032 H 195.303 -2.85465 2.62928 0
M  V30 2033 H 193.404 -3.71245 0.317531 0
M  V30 2034 H 193.517 -4.30289 2.10686 0
M  V30 2035 H 191.881 -2.32841 1.03234 0
M  V30 2036 H 192.664 -2.13043 2.69198 0
M  V30 2037 N 195.109 -0.891671 -1.2995 0
M  V30 2038 C 196.358 -0.509521 -1.95158 0
M  V30 2039 C 196.671 0.947388 -1.71125 0
M  V30 2040 O 197.877 1.43669 -2.30372 0
M  V30 2041 C 196.333 -0.860315 -3.49466 0
M  V30 2042 C 195.941 -2.33545 -3.8231 0
M  V30 2043 C 197.685 -0.547687 -4.20952 0
M  V30 2044 C 195.592 -2.62752 -5.29826 0
M  V30 2045 H 194.522 -0.18682 -0.730489 0
M  V30 2046 H 197.173 -1.08756 -1.47798 0
M  V30 2047 H 195.555 -0.211285 -3.95436 0
M  V30 2048 H 196.729 -3.02936 -3.47227 0
M  V30 2049 H 195.044 -2.61629 -3.23944 0
M  V30 2050 H 197.641 -0.742854 -5.29515 0
M  V30 2051 H 197.984 0.51332 -4.13123 0
M  V30 2052 H 198.517 -1.1542 -3.80688 0
M  V30 2053 H 195.256 -3.6762 -5.42712 0
M  V30 2054 H 194.776 -1.97977 -5.66185 0
M  V30 2055 H 196.455 -2.48601 -5.97333 0
M  V30 2056 N 196.587 1.43421 -0.653314 0
M  V30 2057 C 197.534 2.30768 0.0382271 0
M  V30 2058 C 198.504 1.44755 0.814576 0
M  V30 2059 O 199.689 1.73624 0.791162 0
M  V30 2060 C 196.829 3.30336 0.998599 0
M  V30 2061 C 195.942 4.31448 0.218342 0
M  V30 2062 C 195.077 5.18098 1.17252 0
M  V30 2063 C 194.116 6.10902 0.382702 0
M  V30 2064 N 193.253 6.90176 1.28848 0
M  V30 2065 H 198.093 2.89357 -0.712511 0
M  V30 2066 H 195.63 1.42548 -0.363128 0
M  V30 2067 H 197.588 3.86572 1.56901 0
M  V30 2068 H 196.218 2.73397 1.71621 0
M  V30 2069 H 195.27 3.77506 -0.46836 0
M  V30 2070 H 196.582 4.97227 -0.395812 0
M  V30 2071 H 195.736 5.7896 1.81356 0
M  V30 2072 H 194.475 4.52444 1.82058 0
M  V30 2073 H 193.48 5.49128 -0.27169 0
M  V30 2074 H 194.705 6.78598 -0.260957 0
M  V30 2075 H 192.651 6.27171 1.92334 0
M  V30 2076 H 192.568 7.52478 0.728887 0
M  V30 2077 H 193.836 7.55543 1.91766 0
M  V30 2078 N 198.065 0.39524 1.52563 0
M  V30 2079 C 199.313 -0.184678 2.01254 0
M  V30 2080 C 199.634 -1.46822 1.28329 0
M  V30 2081 O 198.904 -1.91666 0.405094 0
M  V30 2082 H 197.484 -0.0712355 0.743596 0
M  V30 2083 H 200.146 0.528293 1.87603 0
M  V30 2084 H 199.242 -0.390681 3.09645 0
M  V30 2085 N 199.544 -1.57102 0.125237 0
M  V30 2086 C 200.474 -2.18659 -0.819174 0
M  V30 2087 C 201.455 -1.12843 -1.27281 0
M  V30 2088 O 202.64 -1.41104 -1.33429 0
M  V30 2089 C 199.77 -2.79096 -2.06695 0
M  V30 2090 C 198.724 -3.90548 -1.75088 0
M  V30 2091 C 198.05 -4.37821 -3.06948 0
M  V30 2092 C 199.35 -5.12356 -1.01435 0
M  V30 2093 H 201.044 -2.9783 -0.306202 0
M  V30 2094 H 198.59 -1.4326 -0.145839 0
M  V30 2095 H 200.543 -3.2082 -2.73226 0
M  V30 2096 H 199.267 -1.97223 -2.60328 0
M  V30 2097 H 197.926 -3.49409 -1.10944 0
M  V30 2098 H 197.574 -3.52799 -3.58527 0
M  V30 2099 H 197.274 -5.12982 -2.86571 0
M  V30 2100 H 198.798 -4.822 -3.74587 0
M  V30 2101 H 200.212 -5.5106 -1.58132 0
M  V30 2102 H 198.609 -5.9314 -0.911319 0
M  V30 2103 H 199.679 -4.849 -0.00218681 0
M  V30 2104 N 201.022 0.148545 -1.56898 0
M  V30 2105 C 201.932 1.20293 -2.01412 0
M  V30 2106 C 202.948 1.47107 -0.929273 0
M  V30 2107 O 204.124 1.58807 -1.23863 0
M  V30 2108 C 201.189 2.51682 -2.38447 0
M  V30 2109 C 200.25 2.32529 -3.60872 0
M  V30 2110 C 199.483 3.57653 -3.96132 0
M  V30 2111 O 199.706 4.63771 -3.32073 0
M  V30 2112 O 198.64 3.50408 -4.89385 0
M  V30 2113 H 202.466 0.855025 -2.91416 0
M  V30 2114 H 200.051 0.357151 -1.45068 0
M  V30 2115 H 201.933 3.29147 -2.63135 0
M  V30 2116 H 200.608 2.86006 -1.51599 0
M  V30 2117 H 199.515 1.53019 -3.41373 0
M  V30 2118 H 200.848 2.03121 -4.48333 0
M  V30 2119 N 202.5 1.5196 0.417844 0
M  V30 2120 C 203.45 1.7106 1.5074 0
M  V30 2121 C 204.434 0.564487 1.50673 0
M  V30 2122 O 205.626 0.821206 1.56797 0
M  V30 2123 C 202.755 1.85677 2.88754 0
M  V30 2124 C 201.841 3.06133 2.93502 0
M  V30 2125 N 202.232 4.28987 2.67962 0
M  V30 2126 C 200.53 3.05787 3.24669 0
M  V30 2127 C 201.231 5.10395 2.79055 0
M  V30 2128 N 200.207 4.45455 3.11561 0
M  V30 2129 H 204.009 2.63696 1.29775 0
M  V30 2130 H 201.523 1.49873 0.625436 0
M  V30 2131 H 203.52 1.97475 3.67164 0
M  V30 2132 H 202.18 0.942348 3.10725 0
M  V30 2133 H 203.191 4.57607 2.4252 0
M  V30 2134 H 199.868 2.2405 3.52289 0
M  V30 2135 H 201.258 6.18247 2.63097 0
M  V30 2136 N 203.978 -0.674533 1.42435 0
M  V30 2137 C 204.888 -1.81751 1.48337 0
M  V30 2138 C 205.904 -1.69975 0.372099 0
M  V30 2139 O 207.08 -1.91521 0.62304 0
M  V30 2140 C 204.145 -3.17895 1.38361 0
M  V30 2141 C 203.206 -3.41625 2.59982 0
M  V30 2142 C 202.439 -4.71274 2.50473 0
M  V30 2143 O 202.662 -5.49197 1.54075 0
M  V30 2144 O 201.596 -4.96254 3.4061 0
M  V30 2145 H 205.422 -1.79728 2.44809 0
M  V30 2146 H 203.007 -0.830312 1.24202 0
M  V30 2147 H 204.889 -3.99136 1.35161 0
M  V30 2148 H 203.564 -3.20555 0.450144 0
M  V30 2149 H 202.471 -2.60231 2.68757 0
M  V30 2150 H 203.804 -3.43796 3.52229 0
M  V30 2151 N 205.456 -1.28612 -0.910864 0
M  V30 2152 C 206.684 -1.18792 -1.69399 0
M  V30 2153 C 207.099 0.253039 -1.87097 0
M  V30 2154 O 206.456 1.17071 -1.40003 0
M  V30 2155 C 206.507 -1.88511 -3.08457 0
M  V30 2156 O 206.228 -3.26979 -2.91576 0
M  V30 2157 C 207.729 -1.85029 -4.02839 0
M  V30 2158 H 204.949 -0.412233 -0.529438 0
M  V30 2159 H 207.493 -1.69788 -1.13984 0
M  V30 2160 H 205.648 -1.41379 -3.60681 0
M  V30 2161 H 206.062 -3.61936 -3.79608 0
M  V30 2162 H 207.536 -2.38395 -4.97867 0
M  V30 2163 H 208.013 -0.823303 -4.31414 0
M  V30 2164 H 208.619 -2.31853 -3.56545 0
M  V30 2165 N 206.934 1.1197 -1.10907 0
M  V30 2166 C 208.181 1.83588 -0.854507 0
M  V30 2167 C 208.509 1.84357 0.6199 0
M  V30 2168 O 207.764 1.28809 1.47332 0
M  V30 2169 C 208.063 3.30749 -1.35425 0
M  V30 2170 C 207.729 3.50146 -2.84093 0
M  V30 2171 C 206.391 3.55148 -3.2469 0
M  V30 2172 C 208.743 3.56857 -3.79872 0
M  V30 2173 C 206.071 3.6441 -4.59806 0
M  V30 2174 C 208.423 3.6765 -5.14797 0
M  V30 2175 C 207.087 3.7091 -5.54961 0
M  V30 2176 H 206.357 0.671795 -0.312686 0
M  V30 2177 H 209.004 1.32091 -1.38652 0
M  V30 2178 H 207.309 3.84703 -0.742361 0
M  V30 2179 H 209.006 3.8464 -1.1337 0
M  V30 2180 H 205.596 3.46919 -2.51685 0
M  V30 2181 H 209.78 3.52258 -3.49611 0
M  V30 2182 H 205.036 3.65208 -4.9034 0
M  V30 2183 H 209.21 3.71786 -5.88853 0
M  V30 2184 H 206.837 3.7784 -6.59652 0
M  V30 2185 N 208.412 0.89855 1.29475 0
M  V30 2186 C 209.66 0.522847 1.9522 0
M  V30 2187 C 209.981 -0.93371 1.71192 0
M  V30 2188 O 209.251 -1.65823 1.04305 0
M  V30 2189 H 207.831 0.190366 0.722336 0
M  V30 2190 H 210.493 1.14459 1.5775 0
M  V30 2191 H 209.589 0.704476 3.04045 0
M  V30 2192 N 209.89 -1.43072 0.660911 0
M  V30 2193 C 211.136 -2.0202 0.177708 0
M  V30 2194 C 211.469 -1.52066 -1.20787 0
M  V30 2195 O 210.744 -0.716987 -1.80802 0
M  V30 2196 C 211.027 -3.59561 0.197019 0
M  V30 2197 C 210.88 -4.19727 1.61706 0
M  V30 2198 C 212.199 -4.37664 -0.462396 0
M  V30 2199 H 209.318 -0.734034 0.0660494 0
M  V30 2200 H 211.96 -1.70272 0.843058 0
M  V30 2201 H 210.11 -3.86739 -0.369527 0
M  V30 2202 H 211.782 -4.03553 2.23479 0
M  V30 2203 H 210.025 -3.76084 2.16201 0
M  V30 2204 H 210.696 -5.28834 1.58237 0
M  V30 2205 H 213.172 -4.16095 0.0197215 0
M  V30 2206 H 212.048 -5.47305 -0.418188 0
M  V30 2207 H 212.309 -4.14493 -1.53778 0
M  V30 2208 N 211.368 -0.403325 -1.52352 0
M  V30 2209 C 212.616 0.174003 -2.0135 0
M  V30 2210 C 212.937 1.46139 -1.29106 0
M  V30 2211 O 212.207 1.91448 -0.415253 0
M  V30 2212 H 210.787 0.0672911 -0.743963 0
M  V30 2213 H 213.449 -0.538235 -1.87321 0
M  V30 2214 H 212.545 0.374254 -3.09848 0
M  V30 2215 N 212.846 1.57033 -0.133567 0
M  V30 2216 C 214.095 1.94861 0.520768 0
M  V30 2217 C 214.408 1.02012 1.66892 0
M  V30 2218 O 215.614 1.29365 2.38699 0
M  V30 2219 C 214.07 3.46362 0.977809 0
M  V30 2220 C 213.678 4.47773 -0.142674 0
M  V30 2221 C 215.422 3.93083 1.60269 0
M  V30 2222 C 213.329 5.90468 0.331883 0
M  V30 2223 H 212.259 0.727453 0.198315 0
M  V30 2224 H 214.91 1.82227 -0.215759 0
M  V30 2225 H 213.292 3.54282 1.7692 0
M  V30 2226 H 214.466 4.51536 -0.919317 0
M  V30 2227 H 212.781 4.10891 -0.675124 0
M  V30 2228 H 215.378 4.97121 1.96914 0
M  V30 2229 H 215.721 3.33876 2.48662 0
M  V30 2230 H 216.254 3.88025 0.876453 0
M  V30 2231 H 212.993 6.53463 -0.516341 0
M  V30 2232 H 212.513 5.90094 1.07469 0
M  V30 2233 H 214.192 6.42179 0.788332 0
M  V30 2234 N 214.325 -0.140222 1.56975 0
M  V30 2235 C 215.273 -1.19207 1.99731 0
M  V30 2236 C 216.267 -1.44089 0.890777 0
M  V30 2237 O 217.473 -1.44301 1.07597 0
M  V30 2238 H 213.848 -0.40142 0.635898 0
M  V30 2239 H 215.819 -0.804813 2.87342 0
M  V30 2240 C 214.568 -2.51617 2.39967 0
M  V30 2241 H 213.891 -2.33303 3.24669 0
M  V30 2242 H 215.331 -3.23827 2.73701 0
M  V30 2243 C 213.79 -3.12654 1.25496 0
M  V30 2244 O 214.32 -3.97786 0.559371 0
M  V30 2245 N 212.526 -2.72206 1.01746 0
M  V30 2246 H 212.073 -2.03074 1.58489 0
M  V30 2247 H 212.031 -3.13377 0.253461 0
M  V30 2248 N 215.803 -1.52179 -0.40978 0
M  V30 2249 C 216.753 -1.71857 -1.49831 0
M  V30 2250 C 217.737 -0.572469 -1.50372 0
M  V30 2251 O 218.929 -0.829509 -1.56359 0
M  V30 2252 C 216.058 -1.87206 -2.87765 0
M  V30 2253 C 215.144 -3.07685 -2.91875 0
M  V30 2254 N 215.535 -4.30403 -2.65683 0
M  V30 2255 C 213.833 -3.07505 -3.23043 0
M  V30 2256 C 214.534 -5.11868 -2.76344 0
M  V30 2257 N 213.51 -4.47101 -3.09195 0
M  V30 2258 H 217.312 -2.64381 -1.28375 0
M  V30 2259 H 214.826 -1.50203 -0.617479 0
M  V30 2260 H 216.823 -1.99419 -3.66111 0
M  V30 2261 H 215.483 -0.958814 -3.10221 0
M  V30 2262 H 216.494 -4.58887 -2.4009 0
M  V30 2263 H 213.171 -2.25915 -3.51096 0
M  V30 2264 H 214.561 -6.19634 -2.59814 0
M  V30 2265 N 217.281 0.66697 -1.42791 0
M  V30 2266 C 218.53 1.42278 -1.42968 0
M  V30 2267 C 218.843 1.9553 -0.0524489 0
M  V30 2268 O 220.049 2.71414 0.068363 0
M  V30 2269 C 218.505 2.57418 -2.51524 0
M  V30 2270 C 218.113 2.10832 -3.9529 0
M  V30 2271 C 219.857 3.34878 -2.60877 0
M  V30 2272 C 217.764 3.23101 -4.95338 0
M  V30 2273 H 216.694 0.534533 -0.531781 0
M  V30 2274 H 219.345 0.721302 -1.68729 0
M  V30 2275 H 217.727 3.29971 -2.18941 0
M  V30 2276 H 218.901 1.4538 -4.37266 0
M  V30 2277 H 217.216 1.46289 -3.89857 0
M  V30 2278 H 219.813 4.18505 -3.32802 0
M  V30 2279 H 220.156 3.81993 -1.6549 0
M  V30 2280 H 220.689 2.69398 -2.92693 0
M  V30 2281 H 217.428 2.80969 -5.9223 0
M  V30 2282 H 216.948 3.87309 -4.57987 0
M  V30 2283 H 218.627 3.88447 -5.17415 0
M  V30 2284 O 218.798 1.39735 0.809714 0
M  V30 2285 H 219.489 1.27958 1.45418 0
M  V30 END ATOM
M  V30 BEGIN BOND
M  V30 END BOND
M  V30 END CTAB
M  END
$$$$
