drugbank_target|P10915 Hyaluronan and proteoglycan link protein 1 (DB08818)
 OpenBabel12092121013D

  0  0  0     0  0            999 V3000
M  V30 BEGIN CTAB
M  V30 COUNTS 5583 5662 0 0 0
M  V30 BEGIN ATOM
M  V30 1 H -0.908 1.98254 -0.117106 0
M  V30 2 N 0 1.576 0 0
M  V30 3 C 0.933 2.03868 1.02534 0
M  V30 4 C 1.911 0.928543 1.3348 0
M  V30 5 O 3.095 1.19667 1.45644 0
M  V30 6 C 0.222 2.43627 2.35294 0
M  V30 7 C -0.732 3.65373 2.2001 0
M  V30 8 S 0.101 5.13292 1.52614 0
M  V30 9 C 1.257 5.56322 2.86805 0
M  V30 10 H 1.49 2.90518 0.631377 0
M  V30 11 H -0.977 1.52953 0.210867 0
M  V30 12 H 0.981 2.67203 3.11629 0
M  V30 13 H -0.358 1.57376 2.7183 0
M  V30 14 H -1.165 3.90944 3.18086 0
M  V30 15 H -1.563 3.418 1.51819 0
M  V30 16 H 0.729 5.58782 3.83104 0
M  V30 17 H 1.672 6.56266 2.65933 0
M  V30 18 H 2.08 4.83886 2.90714 0
M  V30 19 N 1.4781 -0.272755 1.55222 0
M  V30 20 C 2.4251 -1.33716 1.88119 0
M  V30 21 C 3.3951 -1.49066 0.73271 0
M  V30 22 O 4.5801 -1.63469 0.984002 0
M  V30 23 C 1.7201 -2.69238 2.15882 0
M  V30 24 C 0.8331 -2.62108 3.43399 0
M  V30 25 C -0.0319 -3.89811 3.60861 0
M  V30 26 C -0.9929 -3.77193 4.8207 0
M  V30 27 N -1.8559 -4.9673 4.96189 0
M  V30 28 H 2.9841 -1.04962 2.78903 0
M  V30 29 H 0.5211 -0.507088 1.38083 0
M  V30 30 H 2.4791 -3.48089 2.29978 0
M  V30 31 H 1.1091 -2.96194 1.28331 0
M  V30 32 H 0.1611 -1.74967 3.37773 0
M  V30 33 H 1.4731 -2.48685 4.32386 0
M  V30 34 H 0.6271 -4.77103 3.74777 0
M  V30 35 H -0.6339 -4.06102 2.7006 0
M  V30 36 H -1.6289 -2.88284 4.68159 0
M  V30 37 H -0.4039 -3.62421 5.74307 0
M  V30 38 H -2.4579 -5.13431 4.08319 0
M  V30 39 H -2.5409 -4.85839 5.79221 0
M  V30 40 H -1.2729 -5.85594 5.1449 0
M  V30 41 N 2.9562 -1.48159 -0.537278 0
M  V30 42 C 4.1812 -1.59707 -1.32319 0
M  V30 43 C 4.6062 -0.254859 -1.86365 0
M  V30 44 O 3.9642 0.772378 -1.64024 0
M  V30 45 C 4.0122 -2.6412 -2.45505 0
M  V30 46 O 3.1162 -2.20774 -3.48328 0
M  V30 47 H 2.4572 -0.535791 -0.392204 0
M  V30 48 H 4.9872 -1.94092 -0.647268 0
M  V30 49 H 4.9972 -2.85166 -2.91795 0
M  V30 50 H 3.6722 -3.61567 -2.05528 0
M  V30 51 H 2.2492 -2.09911 -3.08207 0
M  V30 52 N 4.4343 0.785586 -1.36625 0
M  V30 53 C 5.3643 1.91259 -1.33949 0
M  V30 54 C 6.3453 1.68795 -0.210325 0
M  V30 55 O 7.5303 1.89854 -0.408561 0
M  V30 56 C 4.6603 3.28339 -1.13186 0
M  V30 57 C 3.6143 3.65335 -2.22967 0
M  V30 58 C 2.9403 5.00806 -1.87342 0
M  V30 59 C 4.2403 3.7352 -3.65075 0
M  V30 60 H 5.9343 1.93755 -2.28253 0
M  V30 61 H 3.4803 0.930788 -1.09874 0
M  V30 62 H 5.4333 4.06804 -1.09948 0
M  V30 63 H 4.1573 3.2624 -0.153332 0
M  V30 64 H 2.8163 2.89169 -2.25337 0
M  V30 65 H 2.4643 4.95233 -0.880545 0
M  V30 66 H 2.1643 5.26529 -2.60846 0
M  V30 67 H 3.6883 5.81687 -1.85667 0
M  V30 68 H 5.1023 4.42168 -3.64911 0
M  V30 69 H 3.4993 4.10731 -4.37516 0
M  V30 70 H 4.5693 2.74527 -3.99703 0
M  V30 71 N 5.9124 1.20967 1.01018 0
M  V30 72 C 6.8424 0.988272 2.11555 0
M  V30 73 C 7.8234 -0.0849778 1.69888 0
M  V30 74 O 9.0084 0.0738202 1.9406 0
M  V30 75 C 6.1384 0.546528 3.42973 0
M  V30 76 C 5.0924 1.56375 3.9841 0
M  V30 77 C 4.4184 0.97842 5.25672 0
M  V30 78 C 5.7184 2.94922 4.31066 0
M  V30 79 H 7.4124 1.91276 2.30334 0
M  V30 80 H 4.9584 0.921073 1.1069 0
M  V30 81 H 6.9114 0.378839 4.19694 0
M  V30 82 H 5.6354 -0.413598 3.23971 0
M  V30 83 H 4.2944 1.71891 3.23804 0
M  V30 84 H 3.9424 0.0101688 5.02999 0
M  V30 85 H 3.6424 1.65784 5.63728 0
M  V30 86 H 5.1664 0.821939 6.05043 0
M  V30 87 H 6.5804 2.8288 4.9865 0
M  V30 88 H 4.9774 3.5983 4.80253 0
M  V30 89 H 6.0474 3.4616 3.39561 0
M  V30 90 N 7.3905 -1.2043 1.01659 0
M  V30 91 C 8.3205 -2.25466 0.607226 0
M  V30 92 C 9.3015 -1.65853 -0.377716 0
M  V30 93 O 10.4865 -1.92409 -0.263149 0
M  V30 94 C 7.6165 -3.47256 -0.0552949 0
M  V30 95 C 6.5705 -4.19462 0.850632 0
M  V30 96 C 5.8965 -5.34673 0.0538859 0
M  V30 97 C 7.1965 -4.75603 2.15868 0
M  V30 98 H 8.8905 -2.59962 1.48526 0
M  V30 99 H 6.4365 -1.2496 0.715605 0
M  V30 100 H 8.3895 -4.19917 -0.353233 0
M  V30 101 H 7.1135 -3.11924 -0.968045 0
M  V30 102 H 5.7725 -3.48667 1.13257 0
M  V30 103 H 5.4205 -4.95585 -0.860514 0
M  V30 104 H 5.1205 -5.83913 0.657192 0
M  V30 105 H 6.6445 -6.10138 -0.237598 0
M  V30 106 H 8.0585 -5.40083 1.92311 0
M  V30 107 H 6.4555 -5.3528 2.71284 0
M  V30 108 H 7.5255 -3.94346 2.82169 0
M  V30 109 N 8.8686 -0.792821 -1.36206 0
M  V30 110 C 9.7986 -0.207853 -2.32573 0
M  V30 111 C 10.7796 0.659055 -1.56813 0
M  V30 112 O 11.9646 0.592176 -1.84951 0
M  V30 113 C 9.0946 0.655449 -3.41059 0
M  V30 114 C 8.0486 -0.111842 -4.27854 0
M  V30 115 C 7.3746 0.872274 -5.27537 0
M  V30 116 C 8.6746 -1.30299 -5.05786 0
M  V30 117 H 10.3686 -1.01294 -2.81744 0
M  V30 118 H 7.9146 -0.48854 -1.3546 0
M  V30 119 H 9.8676 1.07464 -4.07467 0
M  V30 120 H 8.5916 1.49328 -2.90463 0
M  V30 121 H 7.2506 -0.512053 -3.63006 0
M  V30 122 H 6.8986 1.70523 -4.73214 0
M  V30 123 H 6.5986 0.363291 -5.86476 0
M  V30 124 H 8.1226 1.28996 -5.96818 0
M  V30 125 H 9.5366 -0.959379 -5.65216 0
M  V30 126 H 7.9336 -1.7455 -5.74154 0
M  V30 127 H 9.0036 -2.09663 -4.37229 0
M  V30 128 N 10.3467 1.47872 -0.545128 0
M  V30 129 C 11.5927 2.02793 -0.0166104 0
M  V30 130 C 11.9257 1.41987 1.32489 0
M  V30 131 O 11.2007 0.571045 1.85928 0
M  V30 132 C 11.4837 3.59989 0.0893294 0
M  V30 133 C 11.3367 4.3125 -1.27841 0
M  V30 134 C 12.6557 4.32606 0.808724 0
M  V30 135 H 9.7747 0.736962 -0.00751035 0
M  V30 136 H 12.4167 1.76433 -0.705085 0
M  V30 137 H 10.5667 3.82579 0.675681 0
M  V30 138 H 12.2387 4.20035 -1.90704 0
M  V30 139 H 10.4817 3.92076 -1.85632 0
M  V30 140 H 11.1527 5.39736 -1.15713 0
M  V30 141 H 13.6287 4.14936 0.310992 0
M  V30 142 H 12.5047 5.42251 0.851782 0
M  V30 143 H 12.7657 4.00963 1.86229 0
M  V30 144 N 11.8248 0.280983 1.55075 0
M  V30 145 C 12.7548 -0.597469 2.25727 0
M  V30 146 C 13.7358 -1.15417 1.24952 0
M  V30 147 O 14.9208 -1.18722 1.53684 0
M  V30 148 C 12.0508 -1.7789 2.98283 0
M  V30 149 C 11.0048 -1.35347 4.06036 0
M  V30 150 C 10.3308 -2.61846 4.66198 0
M  V30 151 C 11.6308 -0.499354 5.19907 0
M  V30 152 H 13.3248 -0.00824265 2.99399 0
M  V30 153 H 10.8708 -0.0025244 1.44 0
M  V30 154 H 12.8238 -2.39937 3.46422 0
M  V30 155 H 11.5478 -2.39405 2.22155 0
M  V30 156 H 10.2068 -0.756156 3.58717 0
M  V30 157 H 9.8548 -3.21632 3.86732 0
M  V30 158 H 9.5548 -2.3409 5.38958 0
M  V30 159 H 11.0788 -3.24732 5.1709 0
M  V30 160 H 12.4928 -1.02498 5.64063 0
M  V30 161 H 10.8898 -0.316424 5.99265 0
M  V30 162 H 11.9598 0.480459 4.82514 0
M  V30 163 N 13.3029 -1.57598 0.00835791 0
M  V30 164 C 14.5519 -1.90107 -0.673968 0
M  V30 165 C 14.8649 -0.884275 -1.7447 0
M  V30 166 O 16.0709 -1.09987 -2.48224 0
M  V30 167 C 14.5269 -3.37497 -1.24995 0
M  V30 168 C 14.1349 -4.47491 -0.2136 0
M  V30 169 C 15.8789 -3.79104 -1.90999 0
M  V30 170 C 13.7859 -5.85963 -0.80005 0
M  V30 171 H 12.7159 -0.709393 -0.255495 0
M  V30 172 H 15.3669 -1.83365 0.0702693 0
M  V30 173 H 13.7489 -3.39102 -2.04513 0
M  V30 174 H 14.9229 -4.57414 0.557596 0
M  V30 175 H 13.2379 -4.14956 0.346474 0
M  V30 176 H 15.8349 -4.79901 -2.35795 0
M  V30 177 H 16.1779 -3.1306 -2.74407 0
M  V30 178 H 16.7109 -3.79833 -1.18203 0
M  V30 179 H 13.4499 -6.555 -0.00456708 0
M  V30 180 H 12.9699 -5.79687 -1.54021 0
M  V30 181 H 14.6489 -6.33884 -1.29615 0
M  V30 182 N 14.781 0.264519 -1.55364 0
M  V30 183 C 16.006 1.01726 -1.80739 0
M  V30 184 C 16.431 1.78836 -0.583044 0
M  V30 185 O 15.789 1.75167 0.467566 0
M  V30 186 C 15.837 1.94482 -3.03659 0
M  V30 187 O 14.941 3.03386 -2.7934 0
M  V30 188 H 14.282 0.290395 -0.597132 0
M  V30 189 H 16.812 0.290854 -2.02522 0
M  V30 190 H 16.822 2.36278 -3.32621 0
M  V30 191 H 15.497 1.37772 -3.92418 0
M  V30 192 H 14.074 2.65844 -2.61498 0
M  V30 193 N 16.2591 1.48442 0.529413 0
M  V30 194 C 17.5081 1.55742 1.28169 0
M  V30 195 C 17.8211 0.236511 1.94165 0
M  V30 196 O 19.0271 0.187761 2.7085 0
M  V30 197 C 17.4831 2.74667 2.32564 0
M  V30 198 C 17.0911 4.13402 1.72636 0
M  V30 199 C 18.8351 2.9128 3.08798 0
M  V30 200 C 16.7421 5.23587 2.74975 0
M  V30 201 H 15.6721 0.579796 0.48203 0
M  V30 202 H 18.3231 1.74776 0.559056 0
M  V30 203 H 16.7051 2.49067 3.07866 0
M  V30 204 H 17.8791 4.49022 1.03519 0
M  V30 205 H 16.1941 4.0191 1.08892 0
M  V30 206 H 18.7911 3.70767 3.85274 0
M  V30 207 H 19.1341 2.00757 3.64695 0
M  V30 208 H 19.6671 3.16782 2.40611 0
M  V30 209 H 16.4061 6.16076 2.23897 0
M  V30 210 H 15.9261 4.92454 3.42417 0
M  V30 211 H 17.6051 5.51724 3.37949 0
M  V30 212 N 17.7372 -0.778329 1.37039 0
M  V30 213 C 18.9772 -1.54973 1.33276 0
M  V30 214 C 19.3412 -1.91816 -0.0839376 0
M  V30 215 O 20.5422 -2.6767 -0.246228 0
M  V30 216 C 18.8132 -2.78517 2.23971 0
M  V30 217 S 20.3722 -3.6865 2.37997 0
M  V30 218 H 17.1902 -0.530639 0.473226 0
M  V30 219 H 19.7922 -0.915806 1.72723 0
M  V30 220 H 18.4962 -2.4952 3.25835 0
M  V30 221 H 18.0272 -3.46875 1.85584 0
M  V30 222 H 20.0422 -4.70182 1.58567 0
M  V30 223 N 19.2153 -1.21501 -1.00376 0
M  V30 224 C 20.4613 -1.04457 -1.74529 0
M  V30 225 C 20.8163 0.417386 -1.87818 0
M  V30 226 O 20.1093 1.30556 -1.40234 0
M  V30 227 C 20.3033 -1.67673 -3.15627 0
M  V30 228 C 20.1323 -3.19865 -3.16096 0
M  V30 229 C 18.9023 -3.88915 -3.22604 0
M  V30 230 C 21.1003 -4.16936 -3.01112 0
M  V30 231 N 19.0823 -5.28284 -3.12712 0
M  V30 232 C 20.4533 -5.43066 -2.99131 0
M  V30 233 C 22.5083 -4.07968 -2.85423 0
M  V30 234 C 21.2113 -6.6126 -2.83068 0
M  V30 235 C 23.2373 -5.258 -2.70718 0
M  V30 236 C 22.5993 -6.50842 -2.69414 0
M  V30 237 H 18.6983 -0.436584 -0.648782 0
M  V30 238 H 21.2823 -1.53875 -1.19293 0
M  V30 239 H 19.4533 -1.20822 -3.6913 0
M  V30 240 H 21.1853 -1.43824 -3.78281 0
M  V30 241 H 17.9403 -3.39847 -3.2985 0
M  V30 242 H 18.3643 -6.01284 -3.11105 0
M  V30 243 H 23.0063 -3.1209 -2.85236 0
M  V30 244 H 20.7243 -7.57298 -2.82002 0
M  V30 245 H 24.3103 -5.20683 -2.59577 0
M  V30 246 H 23.1903 -7.40485 -2.5817 0
M  V30 247 N 20.6934 1.19889 -1.02296 0
M  V30 248 C 21.6564 2.21116 -0.603351 0
M  V30 249 C 22.6564 1.5738 0.329884 0
M  V30 250 O 23.8464 1.73802 0.117702 0
M  V30 251 C 20.9784 3.40696 0.117992 0
M  V30 252 H 22.1714 2.59754 -1.49893 0
M  V30 253 H 19.7244 1.33463 -0.813468 0
M  V30 254 H 20.4594 3.07569 1.0282 0
M  V30 255 H 20.2444 3.88188 -0.552511 0
M  V30 256 H 21.7344 4.15692 0.398696 0
M  V30 257 N 22.1715 0.800033 1.35784 0
M  V30 258 C 23.4485 0.30088 1.93272 0
M  V30 259 C 23.8285 -1.20857 1.73081 0
M  V30 260 O 23.1765 -2.00502 1.09596 0
M  V30 261 C 23.3865 0.70511 3.41803 0
M  V30 262 C 24.7345 0.690871 4.18942 0
M  V30 263 O 25.7585 0.646244 3.50289 0
M  V30 264 O 24.6175 0.74332 5.41421 0
M  V30 265 H 21.7115 0.0771605 0.823393 0
M  V30 266 H 24.2575 0.88329 1.449 0
M  V30 267 H 23.0295 1.74571 3.50201 0
M  V30 268 H 22.6525 0.0971541 3.97481 0
M  V30 269 N 23.6496 -1.47581 0.552962 0
M  V30 270 C 24.5996 -2.26961 -0.217423 0
M  V30 271 C 25.5836 -1.34099 -0.889168 0
M  V30 272 O 26.7756 -1.58483 -0.788176 0
M  V30 273 C 23.9046 -3.19756 -1.24944 0
M  V30 274 C 22.9906 -4.20097 -0.581327 0
M  V30 275 N 23.3816 -5.04614 0.346171 0
M  V30 276 C 21.6796 -4.38099 -0.835767 0
M  V30 277 C 22.3806 -5.77052 0.733854 0
M  V30 278 N 21.3566 -5.43526 0.0896567 0
M  V30 279 H 25.1586 -2.89688 0.495761 0
M  V30 280 H 22.6726 -1.58068 0.372597 0
M  V30 281 H 24.6696 -3.75305 -1.81527 0
M  V30 282 H 23.3296 -2.58585 -1.96376 0
M  V30 283 H 24.3406 -5.12869 0.720098 0
M  V30 284 H 21.0176 -3.88102 -1.53892 0
M  V30 285 H 22.4076 -6.5504 1.49574 0
M  V30 286 N 25.1277 -0.289203 -1.54924 0
M  V30 287 C 26.0577 0.58549 -2.2604 0
M  V30 288 C 27.0387 1.14753 -1.25562 0
M  V30 289 O 28.2237 1.17906 -1.54311 0
M  V30 290 C 25.3537 1.76305 -2.99222 0
M  V30 291 C 24.3077 1.33191 -4.06748 0
M  V30 292 C 23.6337 2.5937 -4.6758 0
M  V30 293 C 24.9337 0.471775 -5.20165 0
M  V30 294 H 26.6277 -0.00763532 -2.99399 0
M  V30 295 H 24.1737 -0.00511229 -1.43999 0
M  V30 296 H 26.1267 2.38097 -3.47689 0
M  V30 297 H 24.8507 2.38223 -2.23422 0
M  V30 298 H 23.5097 0.737121 -3.59113 0
M  V30 299 H 23.1577 3.19576 -3.88433 0
M  V30 300 H 22.8577 2.31228 -5.40192 0
M  V30 301 H 24.3817 3.21985 -5.18804 0
M  V30 302 H 25.7957 0.995056 -5.64599 0
M  V30 303 H 24.1927 0.284639 -5.99425 0
M  V30 304 H 25.2627 -0.506041 -4.82252 0
M  V30 305 N 26.6058 1.57591 -0.0167156 0
M  V30 306 C 27.8308 1.9598 0.67872 0
M  V30 307 C 28.2558 0.892546 1.65575 0
M  V30 308 O 27.6138 -0.147772 1.80697 0
M  V30 309 C 27.6618 3.33468 1.37227 0
M  V30 310 O 26.7658 3.28954 2.48722 0
M  V30 311 H 26.1068 0.639339 0.17928 0
M  V30 312 H 28.6368 2.04463 -0.0748802 0
M  V30 313 H 28.6468 3.69417 1.7319 0
M  V30 314 H 27.3218 4.10694 0.656007 0
M  V30 315 H 25.8988 3.04705 2.14963 0
M  V30 316 N 28.0839 -0.256276 1.55502 0
M  V30 317 C 29.3609 -1.00789 1.67633 0
M  V30 318 C 29.7409 -2.03706 0.553826 0
M  V30 319 O 29.0889 -2.24145 -0.443969 0
M  V30 320 C 29.2989 -1.64968 3.07549 0
M  V30 321 C 30.6469 -2.15505 3.65845 0
M  V30 322 O 31.6709 -1.74925 3.1029 0
M  V30 323 O 30.5299 -2.89986 4.63217 0
M  V30 324 H 27.6239 -0.468553 0.681459 0
M  V30 325 H 30.1699 -0.250806 1.67836 0
M  V30 326 H 28.9419 -0.904785 3.80696 0
M  V30 327 H 28.5649 -2.47321 3.11317 0
M  V30 328 N 29.562 -1.4872 -0.521534 0
M  V30 329 C 30.51 -1.64328 -1.64618 0
M  V30 330 C 31.504 -0.50953 -1.61555 0
M  V30 331 O 32.71 -0.688525 -1.66311 0
M  V30 332 H 29.085 -0.517805 -0.545328 0
M  V30 333 H 31.056 -2.58767 -1.48601 0
M  V30 334 C 29.805 -1.70805 -3.02855 0
M  V30 335 H 29.128 -2.5741 -3.05909 0
M  V30 336 H 30.568 -1.85766 -3.81139 0
M  V30 337 C 29.027 -0.448479 -3.33902 0
M  V30 338 O 29.557 0.434928 -3.99339 0
M  V30 339 N 27.763 -0.317616 -2.88859 0
M  V30 340 H 27.31 -1.03748 -2.35784 0
M  V30 341 H 27.268 0.524113 -3.10001 0
M  V30 342 N 31.0401 0.771051 -1.3745 0
M  V30 343 C 32.2701 1.55789 -1.35696 0
M  V30 344 C 32.6781 1.89107 0.0594523 0
M  V30 345 O 32.0211 1.51984 1.03183 0
M  V30 346 C 32.0831 2.89515 -2.13123 0
M  V30 347 C 31.7471 2.78829 -3.62082 0
M  V30 348 C 32.7441 2.49812 -4.5595 0
M  V30 349 C 30.4291 2.9683 -4.05213 0
M  V30 350 C 32.4231 2.38923 -5.90927 0
M  V30 351 C 30.1101 2.85562 -5.40276 0
M  V30 352 C 31.1081 2.56649 -6.32946 0
M  V30 353 O 30.7961 2.45408 -7.65526 0
M  V30 354 H 30.5281 0.489257 -0.466481 0
M  V30 355 H 33.0821 0.963446 -1.81403 0
M  V30 356 H 31.3121 3.51081 -1.62107 0
M  V30 357 H 33.0011 3.50915 -2.03994 0
M  V30 358 H 33.7671 2.3559 -4.23937 0
M  V30 359 H 29.6461 3.18335 -3.33442 0
M  V30 360 H 33.1901 2.16277 -6.63227 0
M  V30 361 H 29.0871 2.99351 -5.71891 0
M  V30 362 H 29.8551 2.60753 -7.75855 0
M  V30 363 N 32.5182 1.22032 0.997298 0
M  V30 364 C 33.7462 1.06841 1.7718 0
M  V30 365 C 34.1612 -0.381325 1.84909 0
M  V30 366 O 33.5182 -1.26437 1.31605 0
M  V30 367 C 33.5692 1.66814 3.20711 0
M  V30 368 O 33.2902 3.06116 3.13408 0
M  V30 369 C 34.7912 1.56838 4.14628 0
M  V30 370 H 32.0112 0.374782 0.556578 0
M  V30 371 H 34.5552 1.61532 1.2541 0
M  V30 372 H 32.7102 1.16196 3.69564 0
M  V30 373 H 33.1242 3.34926 4.0364 0
M  V30 374 H 34.5982 2.03532 5.13107 0
M  V30 375 H 35.0752 0.524155 4.36061 0
M  V30 376 H 35.6812 2.06741 3.7167 0
M  V30 377 N 33.9963 -1.19345 1.0293 0
M  V30 378 C 34.9263 -2.2481 0.631105 0
M  V30 379 C 35.9073 -1.66245 -0.360104 0
M  V30 380 O 37.0923 -1.92677 -0.242726 0
M  V30 381 C 34.2223 -3.47295 -0.0184607 0
M  V30 382 C 33.1763 -4.18536 0.895073 0
M  V30 383 C 32.5023 -5.34586 0.110592 0
M  V30 384 C 33.8023 -4.73287 2.209 0
M  V30 385 H 35.4963 -2.58372 1.51275 0
M  V30 386 H 33.0423 -1.24194 0.728818 0
M  V30 387 H 34.9953 -4.20268 -0.308675 0
M  V30 388 H 33.7193 -3.12933 -0.934907 0
M  V30 389 H 32.3783 -3.47446 1.16949 0
M  V30 390 H 32.0263 -4.96469 -0.807902 0
M  V30 391 H 31.7263 -5.83183 0.719087 0
M  V30 392 H 33.2503 -6.10355 -0.172871 0
M  V30 393 H 34.6643 -5.38013 1.98028 0
M  V30 394 H 33.0613 -5.32373 2.76946 0
M  V30 395 H 34.1313 -3.91331 2.86336 0
M  V30 396 N 35.4744 -0.807222 -1.35358 0
M  V30 397 C 36.7514 -0.311126 -1.9311 0
M  V30 398 C 37.1314 1.19937 -1.73719 0
M  V30 399 O 36.4794 1.99918 -1.10657 0
M  V30 400 C 36.6894 -0.723226 -3.41424 0
M  V30 401 C 38.0374 -0.713078 -4.18569 0
M  V30 402 O 39.0614 -0.664811 -3.49941 0
M  V30 403 O 37.9204 -0.772022 -5.41019 0
M  V30 404 H 35.0144 -0.081526 -0.822972 0
M  V30 405 H 37.5604 -0.890962 -1.4443 0
M  V30 406 H 36.3324 -1.76426 -3.4927 0
M  V30 407 H 35.9554 -0.118232 -3.97424 0
M  V30 408 N 36.9525 1.47285 -0.560781 0
M  V30 409 C 37.9025 2.27073 0.205384 0
M  V30 410 C 38.8865 1.34569 0.882044 0
M  V30 411 O 40.0785 1.58899 0.77976 0
M  V30 412 C 37.2075 3.20414 1.23247 0
M  V30 413 C 36.2935 4.20399 0.559041 0
M  V30 414 N 36.6845 5.04423 -0.372927 0
M  V30 415 C 34.9825 4.38536 0.812522 0
M  V30 416 C 35.6835 5.76655 -0.764446 0
M  V30 417 N 34.6595 5.43471 -0.11848 0
M  V30 418 H 38.4615 2.89422 -0.511117 0
M  V30 419 H 35.9755 1.57868 -0.380975 0
M  V30 420 H 37.9725 3.76262 1.79534 0
M  V30 421 H 36.6325 2.59623 1.95002 0
M  V30 422 H 37.6435 5.1248 -0.747287 0
M  V30 423 H 34.3205 3.88913 1.51832 0
M  V30 424 H 35.7105 6.54238 -1.53045 0
M  V30 425 N 38.4306 0.297415 1.54768 0
M  V30 426 C 39.7076 -0.365847 1.92148 0
M  V30 427 C 40.0876 -1.71975 1.22424 0
M  V30 428 O 39.4356 -2.25666 0.358739 0
M  V30 429 C 39.6456 -0.484056 3.45627 0
M  V30 430 C 40.9936 -0.756594 4.17805 0
M  V30 431 O 42.0176 -0.568007 3.51642 0
M  V30 432 O 40.8766 -1.11863 5.34929 0
M  V30 433 H 37.9706 -0.203919 0.801465 0
M  V30 434 H 40.5166 0.34521 1.66152 0
M  V30 435 H 39.2886 0.467865 3.88493 0
M  V30 436 H 38.9116 -1.24372 3.77647 0
M  V30 437 N 39.9087 -1.5758 0.0250728 0
M  V30 438 C 41.3247 -1.56124 -0.331282 0
M  V30 439 C 41.5247 -1.03029 -1.73169 0
M  V30 440 O 40.5807 -0.675215 -2.43305 0
M  V30 441 C 41.8937 -3.00139 -0.183584 0
M  V30 442 C 43.4417 -3.11946 -0.256654 0
M  V30 443 C 43.9167 -4.57793 -0.137792 0
M  V30 444 N 45.4077 -4.6279 -0.194904 0
M  V30 445 C 46.1427 -5.7326 -0.126655 0
M  V30 446 N 45.6387 -6.928 -0.00755288 0
M  V30 447 N 47.4317 -5.61811 -0.180348 0
M  V30 448 H 39.5827 -1.90424 0.94087 0
M  V30 449 H 41.8457 -0.875761 0.362968 0
M  V30 450 H 41.5517 -3.4292 0.780927 0
M  V30 451 H 41.4257 -3.64899 -0.955448 0
M  V30 452 H 43.8127 -2.69079 -1.21162 0
M  V30 453 H 43.8937 -2.49915 0.545517 0
M  V30 454 H 43.5377 -5.01339 0.813739 0
M  V30 455 H 43.4677 -5.17798 -0.958775 0
M  V30 456 H 45.9587 -3.76807 -0.287267 0
M  V30 457 H 46.2717 -7.72791 0.0379428 0
M  V30 458 H 44.6167 -6.94995 0.0271731 0
M  V30 459 H 47.8077 -4.6731 -0.271767 0
M  V30 460 H 47.9807 -6.47882 -0.123697 0
M  V30 461 N 41.3868 0.248026 -1.55636 0
M  V30 462 C 42.3498 1.29044 -1.89421 0
M  V30 463 C 43.3498 1.41134 -0.770581 0
M  V30 464 O 44.5398 1.39854 -1.03858 0
M  V30 465 C 41.6718 2.66831 -2.12165 0
M  V30 466 H 42.8648 1.00305 -2.82629 0
M  V30 467 H 40.4178 0.487265 -1.48511 0
M  V30 468 H 41.1528 3.00711 -1.21422 0
M  V30 469 H 40.9378 2.59438 -2.93997 0
M  V30 470 H 42.4278 3.42103 -2.3949 0
M  V30 471 N 42.8649 1.48995 0.513639 0
M  V30 472 C 44.1139 1.57093 1.2651 0
M  V30 473 C 44.4269 0.257091 1.93903 0
M  V30 474 O 45.6329 0.216478 2.70636 0
M  V30 475 C 44.0889 2.77118 2.29638 0
M  V30 476 C 43.6969 4.15209 1.68241 0
M  V30 477 C 45.4409 2.94538 3.05692 0
M  V30 478 C 43.3479 5.26474 2.69406 0
M  V30 479 H 42.2779 0.584876 0.475854 0
M  V30 480 H 44.9289 1.7536 0.540487 0
M  V30 481 H 43.3109 2.52319 3.05207 0
M  V30 482 H 44.4849 4.50094 0.987505 0
M  V30 483 H 42.7999 4.03042 1.04623 0
M  V30 484 H 45.3969 3.74832 3.8132 0
M  V30 485 H 45.7399 2.04614 3.62545 0
M  V30 486 H 46.2729 3.19316 2.37238 0
M  V30 487 H 43.0119 6.18417 2.17351 0
M  V30 488 H 42.5319 4.96058 3.37175 0
M  V30 489 H 44.2109 5.55277 3.32078 0
M  V30 490 N 44.343 -0.763751 1.37857 0
M  V30 491 C 45.293 -1.86765 1.30777 0
M  V30 492 C 46.277 -1.59726 0.194015 0
M  V30 493 O 47.469 -1.7172 0.42911 0
M  V30 494 C 44.598 -3.24343 1.12502 0
M  V30 495 C 43.684 -3.57307 2.28456 0
M  V30 496 N 44.075 -3.61398 3.53871 0
M  V30 497 C 42.373 -3.87517 2.20786 0
M  V30 498 C 43.074 -3.91339 4.30382 0
M  V30 499 N 42.05 -4.07649 3.59615 0
M  V30 500 H 45.852 -1.88191 2.25746 0
M  V30 501 H 43.366 -0.9606 1.30944 0
M  V30 502 H 45.363 -4.03327 1.05514 0
M  V30 503 H 44.023 -3.24175 0.184574 0
M  V30 504 H 45.034 -3.43407 3.87675 0
M  V30 505 H 41.711 -3.95125 1.34844 0
M  V30 506 H 43.101 -4.01213 5.3896 0
M  V30 507 N 45.8211 -1.22559 -0.990812 0
M  V30 508 C 47.0701 -1.04553 -1.72486 0
M  V30 509 C 47.3831 0.419349 -1.91052 0
M  V30 510 O 48.5891 0.719121 -2.61803 0
M  V30 511 C 47.0451 -1.82231 -3.10355 0
M  V30 512 C 46.6531 -3.32981 -2.99713 0
M  V30 513 C 48.3971 -1.7268 -3.87791 0
M  V30 514 C 46.3041 -4.03091 -4.32748 0
M  V30 515 H 45.2341 -0.387614 -0.646739 0
M  V30 516 H 47.8851 -1.46429 -1.10593 0
M  V30 517 H 46.2671 -1.33155 -3.72942 0
M  V30 518 H 47.4411 -3.89466 -2.46278 0
M  V30 519 H 45.7561 -3.43231 -2.35758 0
M  V30 520 H 48.3531 -2.22381 -4.86262 0
M  V30 521 H 48.6961 -0.687607 -4.10582 0
M  V30 522 H 49.2291 -2.1931 -3.31885 0
M  V30 523 H 45.9681 -5.07273 -4.15156 0
M  V30 524 H 45.4881 -3.51394 -4.86089 0
M  V30 525 H 47.1671 -4.08804 -5.01486 0
M  V30 526 N 47.2992 1.18797 -1.03562 0
M  V30 527 C 48.2312 2.21731 -0.580337 0
M  V30 528 C 49.2442 1.59051 0.347349 0
M  V30 529 O 50.4332 1.77929 0.142669 0
M  V30 530 C 47.5332 3.38459 0.172805 0
M  V30 531 C 46.7062 4.3072 -0.761496 0
M  V30 532 C 45.7652 5.26174 -0.0525547 0
M  V30 533 O 44.7912 5.65108 -0.681333 0
M  V30 534 N 45.9932 5.67624 1.21586 0
M  V30 535 H 48.7582 2.61417 -1.46565 0
M  V30 536 H 46.3192 1.33531 -0.915476 0
M  V30 537 H 48.3112 3.99335 0.656793 0
M  V30 538 H 46.8812 2.97507 0.959602 0
M  V30 539 H 46.1012 3.67525 -1.42544 0
M  V30 540 H 47.3892 4.89267 -1.39626 0
M  V30 541 H 46.7872 5.38038 1.74732 0
M  V30 542 H 45.3442 6.30721 1.64421 0
M  V30 543 N 48.7773 0.814389 1.34928 0
M  V30 544 C 49.7403 0.235759 2.27984 0
M  V30 545 C 50.7403 -0.581412 1.49921 0
M  V30 546 O 51.9303 -0.398758 1.69575 0
M  V30 547 C 49.0623 -0.670433 3.34242 0
M  V30 548 H 50.2553 1.05659 2.80671 0
M  V30 549 H 47.8083 0.585614 1.44915 0
M  V30 550 H 48.5433 -1.51466 2.86755 0
M  V30 551 H 48.3283 -0.0860822 3.92005 0
M  V30 552 H 49.8183 -1.06935 4.03676 0
M  V30 553 N 50.2554 -1.46986 0.568584 0
M  V30 554 C 51.1654 -2.33942 -0.17555 0
M  V30 555 C 52.1814 -1.48891 -0.90041 0
M  V30 556 O 53.3574 -1.81794 -0.86676 0
M  V30 557 C 50.4224 -3.25811 -1.18524 0
M  V30 558 C 49.4834 -4.26757 -0.466582 0
M  V30 559 C 48.7164 -5.14236 -1.42817 0
M  V30 560 O 48.9394 -5.04379 -2.66379 0
M  V30 561 O 47.8734 -5.94412 -0.946453 0
M  V30 562 H 51.6994 -2.98896 0.538036 0
M  V30 563 H 49.2844 -1.4573 0.329097 0
M  V30 564 H 51.1664 -3.82527 -1.76779 0
M  V30 565 H 49.8414 -2.63471 -1.88055 0
M  V30 566 H 48.7484 -3.73769 0.157451 0
M  V30 567 H 50.0814 -4.91843 0.187485 0
M  V30 568 N 51.7335 -0.305618 -1.54608 0
M  V30 569 C 52.6815 0.584119 -2.25146 0
M  V30 570 C 53.6755 1.13326 -1.25911 0
M  V30 571 O 54.8815 1.08337 -1.43747 0
M  V30 572 H 51.2565 0.206983 -0.722954 0
M  V30 573 H 53.2275 -0.033291 -2.98381 0
M  V30 574 C 51.9765 1.74225 -3.009 0
M  V30 575 H 51.2995 1.32892 -3.77067 0
M  V30 576 H 52.7395 2.34077 -3.53531 0
M  V30 577 C 51.1985 2.64914 -2.0814 0
M  V30 578 O 51.7285 3.66137 -1.65246 0
M  V30 579 N 49.9345 2.3275 -1.74 0
M  V30 580 H 49.4815 1.50479 -2.09078 0
M  V30 581 H 49.4395 2.93694 -1.12211 0
M  V30 582 N 53.2116 1.57565 -0.0334293 0
M  V30 583 C 54.4596 1.91598 0.642999 0
M  V30 584 C 54.7806 0.910847 1.7242 0
M  V30 585 O 54.0506 -0.0469931 1.95844 0
M  V30 586 H 52.6306 0.707228 0.240496 0
M  V30 587 H 55.2926 1.94726 -0.0822488 0
M  V30 588 H 54.3886 2.92336 1.09298 0
M  V30 589 N 54.6897 -0.239769 1.55765 0
M  V30 590 C 56.1007 -0.808263 1.68297 0
M  V30 591 C 56.4517 -1.85736 0.632181 0
M  V30 592 O 55.5767 -2.15277 -0.220204 0
M  V30 593 C 56.1717 -1.47284 3.05111 0
M  V30 594 C 54.7307 -1.98895 3.19559 0
M  V30 595 C 53.8777 -0.842575 2.64189 0
M  V30 596 H 56.8287 -0.0154422 1.58692 0
M  V30 597 H 56.8497 -2.34111 2.99954 0
M  V30 598 H 56.3617 -0.709053 3.81568 0
M  V30 599 H 54.4627 -2.78132 2.47938 0
M  V30 600 H 54.5757 -2.18143 4.26556 0
M  V30 601 H 52.9397 -1.24501 2.22197 0
M  V30 602 H 53.7227 -0.0917552 3.43177 0
M  V30 603 N 56.1678 -1.49265 -0.50573 0
M  V30 604 C 57.1178 -1.6198 -1.60457 0
M  V30 605 C 58.1018 -0.47568 -1.53708 0
M  V30 606 O 59.2938 -0.728392 -1.61318 0
M  V30 607 C 56.4228 -1.68526 -2.99089 0
M  V30 608 C 55.5088 -2.885 -3.10852 0
M  V30 609 N 55.8998 -4.12635 -2.92517 0
M  V30 610 C 54.1978 -2.86338 -3.41945 0
M  V30 611 C 54.8988 -4.93258 -3.08337 0
M  V30 612 N 53.8748 -4.26533 -3.37003 0
M  V30 613 H 57.6768 -2.55681 -1.44928 0
M  V30 614 H 55.1908 -1.45972 -0.711752 0
M  V30 615 H 57.1878 -1.75732 -3.78053 0
M  V30 616 H 55.8478 -0.759584 -3.1569 0
M  V30 617 H 56.8588 -4.42689 -2.68787 0
M  V30 618 H 53.5358 -2.03129 -3.64753 0
M  V30 619 H 54.9258 -6.01856 -2.98695 0
M  V30 620 N 57.6459 0.756429 -1.3826 0
M  V30 621 C 58.5759 1.88374 -1.37976 0
M  V30 622 C 59.5569 1.68311 -0.246082 0
M  V30 623 O 60.7419 1.88944 -0.44874 0
M  V30 624 C 57.8719 3.25864 -1.20125 0
M  V30 625 C 56.8259 3.60523 -2.30666 0
M  V30 626 C 56.1519 4.9672 -1.97923 0
M  V30 627 C 57.4519 3.65692 -3.72916 0
M  V30 628 H 59.1459 1.88869 -2.32312 0
M  V30 629 H 56.6919 0.907272 -1.11824 0
M  V30 630 H 58.6449 4.0438 -1.18552 0
M  V30 631 H 57.3689 3.25841 -0.222498 0
M  V30 632 H 56.0279 2.84324 -2.3142 0
M  V30 633 H 55.6759 4.93253 -0.985393 0
M  V30 634 H 55.3759 5.20878 -2.71955 0
M  V30 635 H 56.8999 5.77618 -1.97964 0
M  V30 636 H 58.3139 4.34328 -3.74208 0
M  V30 637 H 56.7109 4.01358 -4.4613 0
M  V30 638 H 57.7809 2.65987 -4.05436 0
M  V30 639 N 59.124 1.23083 0.984299 0
M  V30 640 C 60.054 1.03292 2.09411 0
M  V30 641 C 61.035 -0.048923 1.7003 0
M  V30 642 O 62.22 0.114967 1.93859 0
M  V30 643 C 59.35 0.619155 3.41736 0
M  V30 644 C 58.304 1.64791 3.95004 0
M  V30 645 C 57.63 1.0897 5.23478 0
M  V30 646 C 58.93 3.03999 4.24714 0
M  V30 647 H 60.624 1.96119 2.26225 0
M  V30 648 H 58.17 0.944344 1.08711 0
M  V30 649 H 60.123 0.467777 4.18796 0
M  V30 650 H 58.847 -0.344786 3.24775 0
M  V30 651 H 57.506 1.78721 3.20085 0
M  V30 652 H 57.154 0.11686 5.02864 0
M  V30 653 H 56.854 1.77704 5.60085 0
M  V30 654 H 58.378 0.950093 6.03163 0
M  V30 655 H 59.792 2.93393 4.92538 0
M  V30 656 H 58.189 3.69936 4.72512 0
M  V30 657 H 59.259 3.53285 3.32142 0
M  V30 658 N 60.6021 -1.18246 1.0419 0
M  V30 659 C 61.8481 -1.88536 0.747122 0
M  V30 660 C 62.1811 -1.80223 -0.723409 0
M  V30 661 O 61.4561 -1.20337 -1.52804 0
M  V30 662 C 61.7391 -3.38968 1.21544 0
M  V30 663 C 61.5921 -3.56084 2.74816 0
M  V30 664 C 62.9111 -4.32648 0.806482 0
M  V30 665 H 60.0301 -0.684619 0.272883 0
M  V30 666 H 62.6721 -1.39113 1.29413 0
M  V30 667 H 60.8221 -3.8119 0.750081 0
M  V30 668 H 62.4941 -3.22946 3.29399 0
M  V30 669 H 60.7371 -2.98699 3.14582 0
M  V30 670 H 61.4081 -4.61639 3.02644 0
M  V30 671 H 63.8841 -3.98211 1.20695 0
M  V30 672 H 62.7601 -5.36462 1.1619 0
M  V30 673 H 63.0211 -4.41146 -0.29029 0
M  V30 674 N 62.0802 -0.821533 -1.34494 0
M  V30 675 C 62.9902 -0.244355 -2.33324 0
M  V30 676 C 64.0062 0.620527 -1.62559 0
M  V30 677 O 65.1822 0.528754 -1.94335 0
M  V30 678 C 62.2472 0.585368 -3.41723 0
M  V30 679 C 61.3082 -0.301752 -4.28238 0
M  V30 680 C 60.5412 0.488466 -5.3146 0
M  V30 681 O 60.7642 1.72186 -5.4379 0
M  V30 682 O 59.6982 -0.12848 -6.01763 0
M  V30 683 H 63.5242 -1.06231 -2.84515 0
M  V30 684 H 61.1092 -0.583645 -1.37528 0
M  V30 685 H 62.9912 1.05747 -4.07916 0
M  V30 686 H 61.6662 1.38068 -2.92778 0
M  V30 687 H 60.5732 -0.821315 -3.64973 0
M  V30 688 H 61.9062 -1.06138 -4.8062 0
M  V30 689 N 63.5583 1.46682 -0.576371 0
M  V30 690 C 64.5213 2.28707 0.150239 0
M  V30 691 C 65.5213 1.38035 0.824794 0
M  V30 692 O 66.7113 1.60476 0.677719 0
M  V30 693 C 63.8433 3.18248 1.22192 0
M  V30 694 H 65.0363 2.94423 -0.570521 0
M  V30 695 H 62.5893 1.52688 -0.334078 0
M  V30 696 H 63.3243 2.57265 1.97447 0
M  V30 697 H 63.1093 3.85 0.742812 0
M  V30 698 H 64.5993 3.80001 1.73172 0
M  V30 699 N 65.0364 0.313813 1.54444 0
M  V30 700 C 65.9464 -0.565714 2.27677 0
M  V30 701 C 66.9624 -1.13754 1.31666 0
M  V30 702 O 68.1384 -1.15959 1.64668 0
M  V30 703 C 65.2034 -1.71528 3.01296 0
M  V30 704 C 64.2644 -1.17624 4.12872 0
M  V30 705 C 63.4974 -2.27102 4.8297 0
M  V30 706 O 63.7204 -3.47256 4.52514 0
M  V30 707 O 62.6544 -1.9307 5.70094 0
M  V30 708 H 66.4804 0.0287296 3.03686 0
M  V30 709 H 64.0654 0.0798312 1.49187 0
M  V30 710 H 65.9474 -2.38476 3.4743 0
M  V30 711 H 64.6224 -2.29608 2.2817 0
M  V30 712 H 63.5294 -0.472124 3.71109 0
M  V30 713 H 64.8624 -0.640695 4.88012 0
M  V30 714 N 66.5145 -1.57545 0.0417849 0
M  V30 715 C 67.4465 -2.07904 -0.964799 0
M  V30 716 C 68.4595 -1.00497 -1.28079 0
M  V30 717 O 69.6485 -1.28087 -1.24322 0
M  V30 718 C 66.7485 -2.49928 -2.28887 0
M  V30 719 C 65.9215 -3.80562 -2.15619 0
M  V30 720 C 64.9805 -4.08999 -3.31069 0
M  V30 721 O 64.0065 -4.79061 -3.0739 0
M  V30 722 N 65.2085 -3.6017 -4.55256 0
M  V30 723 H 67.9735 -2.94886 -0.535029 0
M  V30 724 H 65.5345 -1.61252 -0.144681 0
M  V30 725 H 67.5265 -2.66034 -3.04972 0
M  V30 726 H 66.0965 -1.68245 -2.63463 0
M  V30 727 H 65.3165 -3.74129 -1.24183 0
M  V30 728 H 66.6045 -4.66126 -2.03971 0
M  V30 729 H 66.0025 -3.03512 -4.77386 0
M  V30 730 H 64.5595 -3.81532 -5.28466 0
M  V30 731 N 67.9926 0.231505 -1.5589 0
M  V30 732 C 68.9556 1.27028 -1.90779 0
M  V30 733 C 69.9556 1.40308 -0.785507 0
M  V30 734 O 71.1456 1.38744 -1.05336 0
M  V30 735 C 68.2776 2.64566 -2.14983 0
M  V30 736 H 69.4706 0.973017 -2.83677 0
M  V30 737 H 67.0236 0.471486 -1.49019 0
M  V30 738 H 67.7586 2.99406 -1.24604 0
M  V30 739 H 67.5436 2.56305 -2.96732 0
M  V30 740 H 69.0336 3.39543 -2.43105 0
M  V30 741 N 69.4707 1.49531 0.497807 0
M  V30 742 C 70.4177 1.66436 1.59899 0
M  V30 743 C 71.3877 0.505793 1.58212 0
M  V30 744 O 72.5727 0.733202 1.7615 0
M  V30 745 C 69.7127 1.7399 2.98029 0
M  V30 746 C 68.8257 3.01172 3.09708 0
M  V30 747 C 67.9607 2.99686 4.38591 0
M  V30 748 C 66.9997 4.21434 4.43914 0
M  V30 749 N 66.1367 4.1784 5.64229 0
M  V30 750 H 70.9767 2.60459 1.44793 0
M  V30 751 H 68.5137 1.29137 0.704423 0
M  V30 752 H 70.4717 1.76352 3.78095 0
M  V30 753 H 69.1017 0.834301 3.11832 0
M  V30 754 H 68.1537 3.08408 2.22685 0
M  V30 755 H 69.4657 3.91165 3.09502 0
M  V30 756 H 68.6197 3.00628 5.2698 0
M  V30 757 H 67.3587 2.07477 4.41367 0
M  V30 758 H 66.3637 4.20733 3.53926 0
M  V30 759 H 67.5887 5.14839 4.42851 0
M  V30 760 H 65.5347 3.28469 5.67841 0
M  V30 761 H 65.4517 5.01571 5.65652 0
M  V30 762 H 66.7197 4.22889 6.54817 0
M  V30 763 N 70.9488 -0.749086 1.3866 0
M  V30 764 C 72.1948 -1.51056 1.35314 0
M  V30 765 C 72.5278 -1.94121 -0.0553751 0
M  V30 766 O 71.8028 -1.65763 -1.01749 0
M  V30 767 C 72.0858 -2.76003 2.31288 0
M  V30 768 C 71.9388 -2.39047 3.8102 0
M  V30 769 C 73.2578 -3.78046 2.2532 0
M  V30 770 H 70.3768 -0.547972 0.492844 0
M  V30 771 H 73.0188 -0.857628 1.69543 0
M  V30 772 H 71.1688 -3.31716 2.02229 0
M  V30 773 H 72.8408 -1.89074 4.20771 0
M  V30 774 H 71.0838 -1.71449 3.98482 0
M  V30 775 H 71.7548 -3.28462 4.4364 0
M  V30 776 H 74.2308 -3.31884 2.50983 0
M  V30 777 H 73.1068 -4.63159 2.94576 0
M  V30 778 H 73.3678 -4.23957 1.25352 0
M  V30 779 N 72.4269 -1.23603 -0.977757 0
M  V30 780 C 73.6739 -1.06971 -1.71941 0
M  V30 781 C 74.0019 0.393009 -1.90488 0
M  V30 782 O 73.2569 1.30719 -1.4564 0
M  V30 783 C 73.5559 -1.7433 -3.11999 0
M  V30 784 C 73.2219 -3.24252 -3.13323 0
M  V30 785 C 71.8839 -3.65156 -3.13392 0
M  V30 786 C 74.2359 -4.20141 -3.08433 0
M  V30 787 C 71.5639 -5.00403 -3.0629 0
M  V30 788 C 73.9159 -5.55384 -3.02873 0
M  V30 789 C 72.5799 -5.95647 -3.01265 0
M  V30 790 H 71.8499 -0.391433 -0.629175 0
M  V30 791 H 74.4969 -1.53572 -1.14403 0
M  V30 792 H 72.8019 -1.20096 -3.7294 0
M  V30 793 H 74.4989 -1.58936 -3.68158 0
M  V30 794 H 71.0889 -2.91692 -3.14029 0
M  V30 795 H 75.2729 -3.89547 -3.07517 0
M  V30 796 H 70.5289 -5.3081 -3.03399 0
M  V30 797 H 74.7029 -6.29398 -2.98046 0
M  V30 798 H 72.3299 -7.0041 -2.95516 0
M  V30 799 N 73.905 1.17692 -1.04816 0
M  V30 800 C 75.13 1.92327 -0.776207 0
M  V30 801 C 75.555 1.76082 0.661581 0
M  V30 802 O 74.913 1.076 1.45917 0
M  V30 803 C 74.961 3.41539 -1.15687 0
M  V30 804 O 74.065 4.11402 -0.286775 0
M  V30 805 H 73.406 0.599735 -0.284981 0
M  V30 806 H 75.936 1.49201 -1.4 0
M  V30 807 H 75.946 3.92269 -1.12202 0
M  V30 808 H 74.621 3.52684 -2.20425 0
M  V30 809 H 73.198 3.70939 -0.381903 0
M  V30 810 N 75.3831 0.828654 1.34056 0
M  V30 811 C 76.3331 0.226828 2.26869 0
M  V30 812 C 77.3171 -0.612243 1.48796 0
M  V30 813 O 78.5091 -0.465884 1.70759 0
M  V30 814 C 75.6381 -0.605654 3.37915 0
M  V30 815 C 74.7241 0.244361 4.23395 0
M  V30 816 N 75.1151 1.31815 4.88322 0
M  V30 817 C 73.4131 0.0296616 4.4599 0
M  V30 818 C 74.1141 1.83895 5.51867 0
M  V30 819 N 73.0901 1.14196 5.3147 0
M  V30 820 H 76.8921 1.04811 2.74576 0
M  V30 821 H 74.4061 0.67205 1.47842 0
M  V30 822 H 76.4031 -1.05302 4.03382 0
M  V30 823 H 75.0631 -1.42504 2.91758 0
M  V30 824 H 76.0741 1.70099 4.8917 0
M  V30 825 H 72.7511 -0.757097 4.10578 0
M  V30 826 H 74.1411 2.7376 6.136 0
M  V30 827 N 76.8612 -1.46375 0.584142 0
M  V30 828 C 78.2772 -1.57694 0.245929 0
M  V30 829 C 78.4772 -1.57903 -1.25175 0
M  V30 830 O 77.5332 -1.49676 -2.03355 0
M  V30 831 C 78.8462 -2.87028 0.896402 0
M  V30 832 C 80.3942 -3.00662 0.870127 0
M  V30 833 C 80.8692 -4.32734 1.50017 0
M  V30 834 N 82.3602 -4.39436 1.46458 0
M  V30 835 C 83.0952 -5.40248 1.92144 0
M  V30 836 N 82.5912 -6.47726 2.4581 0
M  V30 837 N 84.3842 -5.31459 1.83052 0
M  V30 838 H 76.5352 -1.44483 1.55687 0
M  V30 839 H 78.7982 -0.689291 0.650831 0
M  V30 840 H 78.5042 -2.9269 1.95002 0
M  V30 841 H 78.3782 -3.75014 0.405486 0
M  V30 842 H 80.7652 -2.94581 -0.174871 0
M  V30 843 H 80.8462 -2.14148 1.39908 0
M  V30 844 H 80.4902 -4.39573 2.54437 0
M  V30 845 H 80.4202 -5.18025 0.946432 0
M  V30 846 H 82.9112 -3.62367 1.07231 0
M  V30 847 H 83.2242 -7.20863 2.78525 0
M  V30 848 H 81.5692 -6.48542 2.49836 0
M  V30 849 H 84.7602 -4.46396 1.40883 0
M  V30 850 H 84.9332 -6.09881 2.18973 0
M  V30 851 N 78.3393 -0.321999 -1.54275 0
M  V30 852 C 79.5873 0.280489 -2.00144 0
M  V30 853 C 79.9083 1.52777 -1.21178 0
M  V30 854 O 79.1783 1.9338 -0.313187 0
M  V30 855 H 77.7583 0.106632 -0.73935 0
M  V30 856 H 80.4203 -0.438184 -1.8991 0
M  V30 857 H 79.5163 0.537972 -3.07428 0
M  V30 858 N 79.8174 1.5752 -0.0501392 0
M  V30 859 C 81.0654 1.9227 0.622642 0
M  V30 860 C 81.3864 0.929083 1.71444 0
M  V30 861 O 80.6564 -0.0262186 1.95882 0
M  V30 862 H 79.2364 0.709739 0.232981 0
M  V30 863 H 81.8984 1.94628 -0.102898 0
M  V30 864 H 80.9944 2.93479 1.06191 0
M  V30 865 N 81.2955 -0.223234 1.56011 0
M  V30 866 C 82.2435 -1.29627 1.93131 0
M  V30 867 C 83.2375 -1.48608 0.813146 0
M  V30 868 O 84.4435 -1.49802 0.997966 0
M  V30 869 H 80.8185 -0.434563 0.613726 0
M  V30 870 H 82.7895 -0.955995 2.82672 0
M  V30 871 C 81.5385 -2.63983 2.26292 0
M  V30 872 H 80.8615 -2.50185 3.11846 0
M  V30 873 H 82.3015 -3.3788 2.56151 0
M  V30 874 C 80.7605 -3.18866 1.08747 0
M  V30 875 O 81.2905 -4.00192 0.347727 0
M  V30 876 N 79.4965 -2.77217 0.871743 0
M  V30 877 H 79.0435 -2.1119 1.47501 0
M  V30 878 H 79.0015 -3.1428 0.0869905 0
M  V30 879 N 82.7736 -1.49793 -0.48987 0
M  V30 880 C 84.0196 -1.60078 -1.24511 0
M  V30 881 C 84.3526 -0.291608 -1.91998 0
M  V30 882 O 83.6276 0.705647 -1.81248 0
M  V30 883 C 83.9106 -2.76791 -2.30345 0
M  V30 884 C 83.7636 -4.17535 -1.67286 0
M  V30 885 C 85.0826 -2.89111 -3.31817 0
M  V30 886 H 82.2016 -0.582645 -0.451324 0
M  V30 887 H 84.8436 -1.82117 -0.541612 0
M  V30 888 H 82.9936 -2.5813 -2.90346 0
M  V30 889 H 84.6656 -4.4774 -1.11026 0
M  V30 890 H 82.9086 -4.22665 -0.976577 0
M  V30 891 H 83.5796 -4.95094 -2.44103 0
M  V30 892 H 86.0556 -3.06133 -2.81819 0
M  V30 893 H 84.9316 -3.72433 -4.03219 0
M  V30 894 H 85.1926 -1.9893 -3.94815 0
M  V30 895 N 84.2517 0.741722 -1.39055 0
M  V30 896 C 85.4797 1.53098 -1.39171 0
M  V30 897 C 85.8947 1.88794 0.0155099 0
M  V30 898 O 85.2517 1.53626 0.985159 0
M  V30 899 C 85.3027 2.82274 -2.2584 0
M  V30 900 O 85.0237 2.48097 -3.61081 0
M  V30 901 C 86.5247 3.76343 -2.34266 0
M  V30 902 H 83.7447 0.473335 -0.4756 0
M  V30 903 H 86.2887 0.917045 -1.82785 0
M  V30 904 H 84.4437 3.40015 -1.85656 0
M  V30 905 H 84.8577 3.31029 -4.06842 0
M  V30 906 H 86.3317 4.63898 -2.9917 0
M  V30 907 H 86.8087 4.17619 -1.35982 0
M  V30 908 H 87.4147 3.24523 -2.74891 0
M  V30 909 N 85.7298 1.2412 0.971189 0
M  V30 910 C 86.6598 1.05508 2.08304 0
M  V30 911 C 87.6408 -0.0308864 1.70072 0
M  V30 912 O 88.8258 0.135521 1.93727 0
M  V30 913 C 85.9558 0.655365 3.4106 0
M  V30 914 C 84.9098 1.68971 3.93234 0
M  V30 915 C 84.2358 1.14516 5.22293 0
M  V30 916 C 85.5358 3.08487 4.21465 0
M  V30 917 H 87.2298 1.98507 2.24132 0
M  V30 918 H 84.7758 0.955821 1.07704 0
M  V30 919 H 86.7288 0.51217 4.18276 0
M  V30 920 H 85.4528 -0.31032 3.25122 0
M  V30 921 H 84.1118 1.82106 3.18171 0
M  V30 922 H 83.7598 0.170189 5.02712 0
M  V30 923 H 83.4598 1.83635 5.58168 0
M  V30 924 H 84.9838 1.01401 6.02121 0
M  V30 925 H 86.3978 2.98601 4.89398 0
M  V30 926 H 84.7948 3.74926 4.68562 0
M  V30 927 H 85.8648 3.56787 3.28376 0
M  V30 928 N 87.2079 -1.17134 1.05439 0
M  V30 929 C 88.6189 -1.69084 0.791676 0
M  V30 930 C 88.9699 -1.83822 -0.685839 0
M  V30 931 O 88.0949 -1.52757 -1.53278 0
M  V30 932 C 88.6899 -3.07119 1.4305 0
M  V30 933 C 87.2489 -3.56225 1.21577 0
M  V30 934 C 86.3959 -2.32421 1.51247 0
M  V30 935 H 89.3469 -1.01617 1.219 0
M  V30 936 H 89.3679 -3.71087 0.84112 0
M  V30 937 H 88.8799 -2.9636 2.50584 0
M  V30 938 H 86.9809 -3.72257 0.159787 0
M  V30 939 H 87.0939 -4.38837 1.92246 0
M  V30 940 H 85.4579 -2.3701 0.932653 0
M  V30 941 H 86.2409 -2.24268 2.5992 0
M  V30 942 N 88.686 -0.835752 -1.33615 0
M  V30 943 C 89.926 -0.43599 -1.99696 0
M  V30 944 C 90.29 0.98557 -1.64774 0
M  V30 945 O 91.491 1.48889 -2.23798 0
M  V30 946 C 89.762 -0.646721 -3.515 0
M  V30 947 S 91.321 -0.341715 -4.37467 0
M  V30 948 H 88.139 -0.164136 -0.691795 0
M  V30 949 H 90.741 -1.08436 -1.62671 0
M  V30 950 H 89.445 -1.68077 -3.74404 0
M  V30 951 H 88.976 0.0159173 -3.93397 0
M  V30 952 H 90.991 0.839708 -4.89043 0
M  V30 953 N 90.1641 1.46063 -0.591896 0
M  V30 954 C 91.1111 2.30399 0.136069 0
M  V30 955 C 92.0811 1.41169 0.875238 0
M  V30 956 O 93.2661 1.70112 0.86409 0
M  V30 957 C 90.4061 3.25804 1.13781 0
M  V30 958 C 89.5191 4.30134 0.401137 0
M  V30 959 C 88.6541 5.12659 1.39121 0
M  V30 960 C 87.6931 6.0873 0.641462 0
M  V30 961 N 86.8301 6.8409 1.58004 0
M  V30 962 H 91.6701 2.92118 -0.589144 0
M  V30 963 H 89.2071 1.43959 -0.302342 0
M  V30 964 H 91.1651 3.79569 1.73156 0
M  V30 965 H 89.7951 2.65872 1.83062 0
M  V30 966 H 88.8471 3.79152 -0.307826 0
M  V30 967 H 90.1591 4.98458 -0.184565 0
M  V30 968 H 89.3131 5.70747 2.05749 0
M  V30 969 H 88.0521 4.44316 2.01084 0
M  V30 970 H 87.0571 5.49786 -0.0385419 0
M  V30 971 H 88.2821 6.79095 0.0270945 0
M  V30 972 H 86.2281 6.18449 2.18761 0
M  V30 973 H 86.1451 7.48709 1.04738 0
M  V30 974 H 87.4131 7.4673 2.23639 0
M  V30 975 N 91.6422 0.330177 1.54103 0
M  V30 976 C 92.8892 -0.270405 2.00686 0
M  V30 977 C 93.2172 -1.51621 1.21825 0
M  V30 978 O 92.4722 -1.93536 0.29025 0
M  V30 979 C 92.7712 -0.643134 3.51566 0
M  V30 980 C 92.4372 0.504251 4.48072 0
M  V30 981 C 91.0992 0.819163 4.74176 0
M  V30 982 C 93.4512 1.27465 5.05373 0
M  V30 983 C 90.7792 1.90708 5.5484 0
M  V30 984 C 93.1312 2.35271 5.87223 0
M  V30 985 C 91.7952 2.67336 6.11627 0
M  V30 986 H 91.0652 -0.0989482 0.734364 0
M  V30 987 H 93.7122 0.455324 1.86008 0
M  V30 988 H 92.0172 -1.44938 3.64006 0
M  V30 989 H 93.7142 -1.11949 3.85056 0
M  V30 990 H 90.3042 0.248733 4.27878 0
M  V30 991 H 94.4882 1.04462 4.85182 0
M  V30 992 H 89.7442 2.15991 5.71977 0
M  V30 993 H 93.9182 2.95405 6.30641 0
M  V30 994 H 91.5452 3.51763 6.73919 0
M  V30 995 N 93.1203 -1.57491 0.0584922 0
M  V30 996 C 94.3503 -1.9701 -0.622134 0
M  V30 997 C 94.7583 -0.935034 -1.6448 0
M  V30 998 O 94.1013 0.0882904 -1.83488 0
M  V30 999 C 94.1633 -3.32794 -1.35972 0
M  V30 1000 C 93.8273 -4.54343 -0.492043 0
M  V30 1001 C 94.8243 -5.19323 0.244901 0
M  V30 1002 C 92.5093 -5.00534 -0.420821 0
M  V30 1003 C 94.5033 -6.28835 1.04143 0
M  V30 1004 C 92.1903 -6.09921 0.379389 0
M  V30 1005 C 93.1883 -6.73933 1.10919 0
M  V30 1006 O 92.8763 -7.81216 1.89623 0
M  V30 1007 H 92.6083 -0.653127 -0.174359 0
M  V30 1008 H 95.1623 -2.05029 0.123418 0
M  V30 1009 H 93.3923 -3.21351 -2.15105 0
M  V30 1010 H 95.0813 -3.5701 -1.93129 0
M  V30 1011 H 95.8473 -4.8459 0.19939 0
M  V30 1012 H 91.7263 -4.50496 -0.978474 0
M  V30 1013 H 95.2703 -6.7873 1.61157 0
M  V30 1014 H 91.1673 -6.44089 0.426512 0
M  V30 1015 H 91.9353 -7.98029 1.81913 0
M  V30 1016 N 94.5984 0.214957 -1.56127 0
M  V30 1017 C 96.0144 0.564948 -1.49267 0
M  V30 1018 C 96.2144 1.86827 -0.754838 0
M  V30 1019 O 95.2704 2.50745 -0.297198 0
M  V30 1020 C 96.5834 0.638071 -2.93852 0
M  V30 1021 C 98.1314 0.728253 -3.0441 0
M  V30 1022 C 98.6064 0.832663 -4.50367 0
M  V30 1023 N 100.097 0.896712 -4.54437 0
M  V30 1024 C 100.832 0.997324 -5.6466 0
M  V30 1025 N 100.328 1.06147 -6.8462 0
M  V30 1026 N 102.121 1.03297 -5.52527 0
M  V30 1027 H 94.2724 -0.640211 -2.02522 0
M  V30 1028 H 96.5354 -0.225507 -0.920788 0
M  V30 1029 H 96.2414 -0.250126 -3.50809 0
M  V30 1030 H 96.1154 1.49947 -3.46115 0
M  V30 1031 H 98.5024 1.60689 -2.47514 0
M  V30 1032 H 98.5834 -0.158952 -2.55306 0
M  V30 1033 H 98.2274 -0.0415417 -5.07883 0
M  V30 1034 H 98.1574 1.73538 -4.97184 0
M  V30 1035 H 100.648 0.857188 -3.6805 0
M  V30 1036 H 100.961 1.1382 -7.64372 0
M  V30 1037 H 99.3064 1.03049 -6.87318 0
M  V30 1038 H 102.497 0.979558 -4.57736 0
M  V30 1039 H 102.67 1.10793 -6.38458 0
M  V30 1040 N 96.0765 1.50051 0.48192 0
M  V30 1041 C 97.3535 1.51009 1.2432 0
M  V30 1042 C 97.7335 0.248587 2.09631 0
M  V30 1043 O 97.0815 -0.768409 2.15192 0
M  V30 1044 C 97.2915 2.79981 2.08355 0
M  V30 1045 C 98.6395 3.3022 2.66908 0
M  V30 1046 O 99.6635 2.81228 2.18607 0
M  V30 1047 O 98.5225 4.15595 3.54884 0
M  V30 1048 H 95.6165 0.605239 0.563573 0
M  V30 1049 H 98.1625 1.62332 0.494627 0
M  V30 1050 H 96.9345 3.63275 1.45419 0
M  V30 1051 H 96.5575 2.7161 2.90368 0
M  V30 1052 N 97.5546 -0.734337 1.39446 0
M  V30 1053 C 98.9656 -1.31264 1.32766 0
M  V30 1054 C 99.3166 -1.96198 -0.00767497 0
M  V30 1055 O 98.4416 -1.96346 -0.909796 0
M  V30 1056 C 99.0366 -2.38682 2.4045 0
M  V30 1057 C 97.5956 -2.92184 2.37288 0
M  V30 1058 C 96.7426 -1.6576 2.22304 0
M  V30 1059 H 99.6936 -0.531799 1.49525 0
M  V30 1060 H 99.7146 -3.19087 2.07276 0
M  V30 1061 H 99.2266 -1.91392 3.37625 0
M  V30 1062 H 97.3276 -3.43752 1.43754 0
M  V30 1063 H 97.4406 -3.45253 3.3217 0
M  V30 1064 H 95.8046 -1.9012 1.69489 0
M  V30 1065 H 96.5876 -1.20521 3.21449 0
M  V30 1066 N 99.0327 -1.24633 -0.964593 0
M  V30 1067 C 100.261 -1.11501 -1.74285 0
M  V30 1068 C 100.676 0.332165 -1.85855 0
M  V30 1069 O 100.033 1.22903 -1.34911 0
M  V30 1070 C 100.084 -1.75258 -3.16175 0
M  V30 1071 O 99.8047 -3.14318 -3.05182 0
M  V30 1072 C 101.306 -1.67776 -4.10324 0
M  V30 1073 H 98.5257 -0.389407 -0.546446 0
M  V30 1074 H 101.07 -1.64801 -1.21083 0
M  V30 1075 H 99.2247 -1.25954 -3.66353 0
M  V30 1076 H 99.6387 -3.4551 -3.94618 0
M  V30 1077 H 101.113 -2.17064 -5.0753 0
M  V30 1078 H 101.59 -0.639584 -4.34518 0
M  V30 1079 H 102.196 -2.16522 -3.66058 0
M  V30 1080 N 100.511 1.16574 -1.06058 0
M  V30 1081 C 101.474 2.19085 -0.673392 0
M  V30 1082 C 102.474 1.5835 0.279648 0
M  V30 1083 O 103.664 1.74088 0.0623488 0
M  V30 1084 C 100.796 3.40899 0.00954234 0
M  V30 1085 H 101.989 2.54853 -1.58081 0
M  V30 1086 H 99.5418 1.30808 -0.855516 0
M  V30 1087 H 100.277 3.10684 0.929826 0
M  V30 1088 H 100.062 3.86233 -0.67573 0
M  V30 1089 H 101.552 4.1675 0.266245 0
M  V30 1090 N 101.989 0.842826 1.3317 0
M  V30 1091 C 103.236 0.440447 1.97652 0
M  V30 1092 C 103.564 -1.00123 1.6675 0
M  V30 1093 O 102.819 -1.7155 0.941761 0
M  V30 1094 C 103.118 0.612607 3.52111 0
M  V30 1095 C 102.784 2.02297 4.02972 0
M  V30 1096 C 101.446 2.40874 4.16573 0
M  V30 1097 C 103.798 2.94402 4.30089 0
M  V30 1098 C 101.126 3.70852 4.54627 0
M  V30 1099 C 103.478 4.23865 4.69597 0
M  V30 1100 C 102.142 4.62392 4.81404 0
M  V30 1101 H 101.412 0.161171 0.72326 0
M  V30 1102 H 104.059 1.07061 1.58777 0
M  V30 1103 H 102.364 -0.100849 3.9167 0
M  V30 1104 H 104.061 0.2815 4.00011 0
M  V30 1105 H 100.651 1.71338 3.92863 0
M  V30 1106 H 104.835 2.65835 4.19101 0
M  V30 1107 H 100.091 4.00501 4.61962 0
M  V30 1108 H 104.265 4.95306 4.89536 0
M  V30 1109 H 101.892 5.63154 5.10648 0
M  V30 1110 N 103.467 -1.45747 0.599634 0
M  V30 1111 C 104.715 -2.01893 0.0915472 0
M  V30 1112 C 105.036 -1.47155 -1.27946 0
M  V30 1113 O 104.306 -0.66273 -1.84349 0
M  V30 1114 H 102.886 -0.746363 0.0308524 0
M  V30 1115 H 105.548 -1.78645 0.779237 0
M  V30 1116 H 104.644 -3.1208 0.0353086 0
M  V30 1117 N 104.945 -0.338344 -1.53925 0
M  V30 1118 C 106.17 0.263987 -2.05713 0
M  V30 1119 C 106.595 1.43847 -1.21201 0
M  V30 1120 O 105.953 1.79904 -0.224535 0
M  V30 1121 C 106.001 0.662 -3.54471 0
M  V30 1122 O 105.105 1.76265 -3.72833 0
M  V30 1123 H 104.446 0.0448722 -0.662482 0
M  V30 1124 H 106.976 -0.491048 -1.9862 0
M  V30 1125 H 106.986 0.940594 -3.9701 0
M  V30 1126 H 105.661 -0.196937 -4.15433 0
M  V30 1127 H 104.238 1.48173 -3.42198 0
M  V30 1128 N 106.423 1.57458 -0.0668435 0
M  V30 1129 C 107.671 1.92919 0.602214 0
M  V30 1130 C 107.992 0.947215 1.70449 0
M  V30 1131 O 107.262 -0.00544117 1.95899 0
M  V30 1132 H 105.842 0.71217 0.22544 0
M  V30 1133 H 108.504 1.94508 -0.123535 0
M  V30 1134 H 107.6 2.94589 1.03073 0
M  V30 1135 N 107.901 -0.206675 1.56239 0
M  V30 1136 C 109.15 -0.926964 1.79138 0
M  V30 1137 C 109.463 -1.84901 0.638043 0
M  V30 1138 O 110.669 -2.60906 0.751033 0
M  V30 1139 C 109.125 -1.6986 3.17294 0
M  V30 1140 C 108.733 -0.821956 4.40395 0
M  V30 1141 C 110.477 -2.40922 3.4951 0
M  V30 1142 C 108.384 -1.59179 5.69575 0
M  V30 1143 H 107.314 -0.349864 0.667915 0
M  V30 1144 H 109.965 -0.180487 1.8261 0
M  V30 1145 H 108.347 -2.48853 3.08039 0
M  V30 1146 H 109.521 -0.0715019 4.60745 0
M  V30 1147 H 107.836 -0.222741 4.15804 0
M  V30 1148 H 110.433 -2.99047 4.43255 0
M  V30 1149 H 110.776 -3.14542 2.72707 0
M  V30 1150 H 111.309 -1.68905 3.60161 0
M  V30 1151 H 108.048 -0.898589 6.49312 0
M  V30 1152 H 107.568 -2.31648 5.53262 0
M  V30 1153 H 109.247 -2.14862 6.10281 0
M  V30 1154 N 109.379 -1.50304 -0.473955 0
M  V30 1155 C 110.329 -1.65347 -1.56985 0
M  V30 1156 C 111.313 -0.508176 -1.52664 0
M  V30 1157 O 112.505 -0.762446 -1.59737 0
M  V30 1158 C 109.634 -1.74832 -2.95447 0
M  V30 1159 C 108.72 -2.95028 -3.04662 0
M  V30 1160 N 109.111 -4.18747 -2.83698 0
M  V30 1161 C 107.409 -2.93527 -3.35795 0
M  V30 1162 C 108.11 -4.99687 -2.97805 0
M  V30 1163 N 107.086 -4.33585 -3.2788 0
M  V30 1164 H 110.888 -2.58698 -1.39472 0
M  V30 1165 H 108.402 -1.47449 -0.680629 0
M  V30 1166 H 110.399 -1.83712 -3.7424 0
M  V30 1167 H 109.059 -0.826376 -3.14008 0
M  V30 1168 H 110.07 -4.48291 -2.59337 0
M  V30 1169 H 106.747 -2.10821 -3.60362 0
M  V30 1170 H 108.137 -6.08057 -2.85861 0
M  V30 1171 N 110.857 0.726932 -1.39834 0
M  V30 1172 C 111.804 1.841 -1.39197 0
M  V30 1173 C 112.774 1.642 -0.250502 0
M  V30 1174 O 113.959 1.85494 -0.446846 0
M  V30 1175 C 111.099 3.21697 -1.24919 0
M  V30 1176 C 110.212 3.53247 -2.48678 0
M  V30 1177 C 109.347 4.80289 -2.26928 0
M  V30 1178 C 108.386 5.04707 -3.4632 0
M  V30 1179 N 107.523 6.22956 -3.23836 0
M  V30 1180 H 112.363 1.83979 -2.34427 0
M  V30 1181 H 109.9 0.898876 -1.16442 0
M  V30 1182 H 111.858 4.01137 -1.1465 0
M  V30 1183 H 110.488 3.21076 -0.333153 0
M  V30 1184 H 109.54 2.68447 -2.69519 0
M  V30 1185 H 110.852 3.67205 -3.37582 0
M  V30 1186 H 110.006 5.67725 -2.13947 0
M  V30 1187 H 108.745 4.68519 -1.35431 0
M  V30 1188 H 107.75 4.1573 -3.5979 0
M  V30 1189 H 108.975 5.18357 -4.38729 0
M  V30 1190 H 106.921 6.12459 -2.35011 0
M  V30 1191 H 106.838 6.37539 -4.063 0
M  V30 1192 H 108.106 7.1321 -3.14566 0
M  V30 1193 N 112.336 1.25143 0.95797 0
M  V30 1194 C 113.585 1.0909 1.69654 0
M  V30 1195 C 113.898 -0.368548 1.92097 0
M  V30 1196 O 115.104 -0.649455 2.63618 0
M  V30 1197 C 113.56 1.90395 3.05414 0
M  V30 1198 C 113.168 3.4081 2.90779 0
M  V30 1199 C 114.912 1.82901 3.83076 0
M  V30 1200 C 112.819 4.14423 4.21909 0
M  V30 1201 H 111.749 0.404625 0.636235 0
M  V30 1202 H 114.4 1.4931 1.06672 0
M  V30 1203 H 112.782 1.42996 3.69281 0
M  V30 1204 H 113.956 3.95859 2.35865 0
M  V30 1205 H 112.271 3.49361 2.26575 0
M  V30 1206 H 114.868 2.35196 4.80195 0
M  V30 1207 H 115.211 0.796224 4.08615 0
M  V30 1208 H 115.744 2.28033 3.25954 0
M  V30 1209 H 112.483 5.18102 4.01561 0
M  V30 1210 H 112.003 3.64159 4.76601 0
M  V30 1211 H 113.682 4.21956 4.90471 0
M  V30 1212 N 113.814 -1.1601 1.06675 0
M  V30 1213 C 115.23 -1.38622 0.790948 0
M  V30 1214 C 115.43 -1.92109 -0.607965 0
M  V30 1215 O 114.486 -2.12239 -1.36787 0
M  V30 1216 C 115.799 -2.36347 1.85905 0
M  V30 1217 C 117.347 -2.50023 1.88301 0
M  V30 1218 C 117.822 -3.51033 2.94176 0
M  V30 1219 N 119.313 -3.58563 2.93235 0
M  V30 1220 C 120.048 -4.36521 3.71803 0
M  V30 1221 N 119.544 -5.17869 4.602 0
M  V30 1222 N 121.337 -4.31541 3.60178 0
M  V30 1223 H 113.488 -0.796294 1.96908 0
M  V30 1224 H 115.751 -0.412597 0.853503 0
M  V30 1225 H 115.457 -2.04147 2.86386 0
M  V30 1226 H 115.331 -3.36042 1.71334 0
M  V30 1227 H 117.718 -2.81524 0.884769 0
M  V30 1228 H 117.799 -1.5035 2.06951 0
M  V30 1229 H 117.443 -3.20268 3.94196 0
M  V30 1230 H 117.373 -4.50445 2.72776 0
M  V30 1231 H 119.864 -3.00496 2.29152 0
M  V30 1232 H 120.177 -5.74578 5.16797 0
M  V30 1233 H 118.522 -5.17199 4.64253 0
M  V30 1234 H 121.713 -3.67051 2.90502 0
M  V30 1235 H 121.886 -4.9205 4.21653 0
M  V30 1236 N 115.292 -0.849877 -1.32721 0
M  V30 1237 C 116.541 -0.447175 -1.96681 0
M  V30 1238 C 116.854 1.00135 -1.68025 0
M  V30 1239 O 118.06 1.50926 -2.25685 0
M  V30 1240 C 116.516 -0.7487 -3.52026 0
M  V30 1241 C 116.124 -2.21264 -3.89546 0
M  V30 1242 C 117.868 -0.413487 -4.22481 0
M  V30 1243 C 115.775 -2.45763 -5.37917 0
M  V30 1244 H 114.705 -0.163486 -0.736063 0
M  V30 1245 H 117.356 -1.03999 -1.51183 0
M  V30 1246 H 115.738 -0.0853727 -3.95908 0
M  V30 1247 H 116.912 -2.91736 -3.56689 0
M  V30 1248 H 115.227 -2.5119 -3.32103 0
M  V30 1249 H 117.824 -0.574017 -5.3161 0
M  V30 1250 H 118.167 0.644492 -4.11281 0
M  V30 1251 H 118.7 -1.03251 -3.84167 0
M  V30 1252 H 115.439 -3.50168 -5.54132 0
M  V30 1253 H 114.959 -1.79864 -5.72197 0
M  V30 1254 H 116.638 -2.29471 -6.0494 0
M  V30 1255 N 116.77 1.45427 -0.607355 0
M  V30 1256 C 117.717 2.3053 0.111625 0
M  V30 1257 C 118.687 1.4209 0.860216 0
M  V30 1258 O 119.872 1.71019 0.845998 0
M  V30 1259 C 117.012 3.26992 1.10319 0
M  V30 1260 C 116.125 4.30535 0.355493 0
M  V30 1261 C 115.26 5.14105 1.33676 0
M  V30 1262 C 114.299 6.09376 0.576862 0
M  V30 1263 N 113.436 6.85727 1.5074 0
M  V30 1264 H 118.276 2.91477 -0.620093 0
M  V30 1265 H 115.813 1.43631 -0.317594 0
M  V30 1266 H 117.771 3.81385 1.6912 0
M  V30 1267 H 116.401 2.67799 1.80232 0
M  V30 1268 H 115.453 3.78805 -0.348023 0
M  V30 1269 H 116.765 4.98235 -0.237423 0
M  V30 1270 H 115.919 5.72897 1.99684 0
M  V30 1271 H 114.658 4.46423 1.9636 0
M  V30 1272 H 113.663 5.49715 -0.0968519 0
M  V30 1273 H 114.888 6.79085 -0.0449341 0
M  V30 1274 H 112.834 6.20735 2.12189 0
M  V30 1275 H 112.751 7.49778 0.967913 0
M  V30 1276 H 114.019 7.4906 2.15706 0
M  V30 1277 N 118.248 0.346503 1.53744 0
M  V30 1278 C 119.494 -0.242135 2.01954 0
M  V30 1279 C 119.849 -1.47962 1.22984 0
M  V30 1280 O 119.142 -1.89077 0.309924 0
M  V30 1281 C 119.336 -0.605809 3.52228 0
M  V30 1282 C 119.165 0.594882 4.45748 0
M  V30 1283 C 117.935 1.1011 4.93157 0
M  V30 1284 C 120.133 1.45425 4.93311 0
M  V30 1285 N 118.115 2.26381 5.70636 0
M  V30 1286 C 119.486 2.46383 5.68942 0
M  V30 1287 C 121.541 1.47935 4.75415 0
M  V30 1288 C 120.244 3.49684 6.28581 0
M  V30 1289 C 122.27 2.50119 5.35905 0
M  V30 1290 C 121.632 3.49803 6.11406 0
M  V30 1291 H 117.731 -0.0518296 0.780281 0
M  V30 1292 H 120.315 0.486736 1.88518 0
M  V30 1293 H 118.486 -1.30378 3.65864 0
M  V30 1294 H 120.218 -1.17789 3.87179 0
M  V30 1295 H 116.973 0.668721 4.68855 0
M  V30 1296 H 117.397 2.85094 6.14044 0
M  V30 1297 H 122.039 0.722274 4.16585 0
M  V30 1298 H 119.757 4.26285 6.86518 0
M  V30 1299 H 123.343 2.52892 5.23963 0
M  V30 1300 H 122.223 4.27576 6.5738 0
M  V30 1301 N 119.726 -1.57421 0.075193 0
M  V30 1302 C 120.954 -1.97946 -0.602076 0
M  V30 1303 C 121.369 -0.953674 -1.62943 0
M  V30 1304 O 120.726 0.0592551 -1.82404 0
M  V30 1305 C 120.777 -3.38546 -1.26762 0
M  V30 1306 O 120.498 -4.37195 -0.281376 0
M  V30 1307 C 121.999 -3.93966 -2.03239 0
M  V30 1308 H 119.219 -0.650918 -0.162931 0
M  V30 1309 H 121.763 -2.03959 0.148601 0
M  V30 1310 H 119.918 -3.33609 -1.96936 0
M  V30 1311 H 120.332 -5.18975 -0.759267 0
M  V30 1312 H 121.806 -4.94555 -2.45193 0
M  V30 1313 H 122.283 -3.30693 -2.8903 0
M  V30 1314 H 122.889 -4.02315 -1.37924 0
M  V30 1315 N 121.204 0.198386 -1.56346 0
M  V30 1316 C 122.151 1.24589 -1.94284 0
M  V30 1317 C 123.121 1.454 -0.802997 0
M  V30 1318 O 124.306 1.58588 -1.06087 0
M  V30 1319 C 121.446 2.58631 -2.28482 0
M  V30 1320 C 120.559 2.45426 -3.55514 0
M  V30 1321 C 119.694 3.7215 -3.79049 0
M  V30 1322 C 118.733 3.53763 -4.99518 0
M  V30 1323 N 117.87 4.72491 -5.19323 0
M  V30 1324 H 122.71 0.915356 -2.83593 0
M  V30 1325 H 120.247 0.440629 -1.40346 0
M  V30 1326 H 122.205 3.3672 -2.46324 0
M  V30 1327 H 120.835 2.89734 -1.42317 0
M  V30 1328 H 119.887 1.58652 -3.45737 0
M  V30 1329 H 121.199 2.27772 -4.43758 0
M  V30 1330 H 120.353 4.58679 -3.97113 0
M  V30 1331 H 119.092 3.92754 -2.89129 0
M  V30 1332 H 118.097 2.65619 -4.8138 0
M  V30 1333 H 119.322 3.34607 -5.90944 0
M  V30 1334 H 117.268 4.93365 -4.3235 0
M  V30 1335 H 117.185 4.5765 -6.01741 0
M  V30 1336 H 118.453 5.6038 -5.41843 0
M  V30 1337 N 122.682 1.50554 0.465978 0
M  V30 1338 C 123.612 1.72722 1.57128 0
M  V30 1339 C 124.593 0.576294 1.6004 0
M  V30 1340 O 125.778 0.81598 1.76225 0
M  V30 1341 C 122.908 1.82605 2.95419 0
M  V30 1342 C 121.862 2.97835 3.07373 0
M  V30 1343 C 121.188 2.92867 4.47363 0
M  V30 1344 C 122.488 4.38265 2.84114 0
M  V30 1345 H 124.182 2.65267 1.38829 0
M  V30 1346 H 121.728 1.2765 0.666441 0
M  V30 1347 H 123.681 1.96698 3.72677 0
M  V30 1348 H 122.405 0.866858 3.14886 0
M  V30 1349 H 121.064 2.83401 2.3255 0
M  V30 1350 H 120.712 1.94783 4.63755 0
M  V30 1351 H 120.412 3.70227 4.56296 0
M  V30 1352 H 121.936 3.09015 5.26633 0
M  V30 1353 H 123.35 4.53198 3.51118 0
M  V30 1354 H 121.747 5.17115 3.04487 0
M  V30 1355 H 122.817 4.50281 1.7993 0
M  V30 1356 N 124.16 -0.719506 1.40217 0
M  V30 1357 C 125.388 -1.50864 1.41589 0
M  V30 1358 C 125.803 -1.88794 0.0145275 0
M  V30 1359 O 125.16 -1.55174 -0.960594 0
M  V30 1360 C 125.211 -2.78646 2.30302 0
M  V30 1361 O 124.932 -2.42321 3.64983 0
M  V30 1362 C 126.433 -3.72569 2.40224 0
M  V30 1363 H 123.653 -0.465709 0.48307 0
M  V30 1364 H 126.197 -0.88785 1.84221 0
M  V30 1365 H 124.352 -3.37019 1.91042 0
M  V30 1366 H 124.766 -3.24514 4.12057 0
M  V30 1367 H 126.24 -4.5908 3.06512 0
M  V30 1368 H 126.717 -4.15403 1.42608 0
M  V30 1369 H 127.323 -3.20109 2.80019 0
M  V30 1370 N 125.638 -1.25649 -0.95132 0
M  V30 1371 C 126.863 -1.13443 -1.73624 0
M  V30 1372 C 127.288 0.307565 -1.85568 0
M  V30 1373 O 126.646 1.22282 -1.33854 0
M  V30 1374 C 126.694 -1.79723 -3.12621 0
M  V30 1375 O 125.798 -1.07912 -3.98031 0
M  V30 1376 H 125.139 -0.395872 -0.533086 0
M  V30 1377 H 127.669 -1.66276 -1.1922 0
M  V30 1378 H 127.679 -1.86141 -3.63064 0
M  V30 1379 H 126.354 -2.84633 -3.03244 0
M  V30 1380 H 124.931 -1.09398 -3.56492 0
M  V30 1381 N 127.117 1.15442 -1.07289 0
M  V30 1382 C 128.394 1.82306 -0.708792 0
M  V30 1383 C 128.774 1.94991 0.808807 0
M  V30 1384 O 128.122 1.50085 1.72298 0
M  V30 1385 C 128.332 3.18695 -1.42247 0
M  V30 1386 C 129.68 3.94341 -1.57417 0
M  V30 1387 O 130.704 3.28247 -1.38319 0
M  V30 1388 O 129.563 5.12839 -1.88834 0
M  V30 1389 H 126.657 0.787628 -0.252132 0
M  V30 1390 H 129.203 1.22559 -1.17377 0
M  V30 1391 H 127.975 3.04557 -2.45684 0
M  V30 1392 H 127.598 3.86128 -0.948223 0
M  V30 1393 N 128.595 0.856903 1.32268 0
M  V30 1394 C 129.825 0.47475 2.01071 0
M  V30 1395 C 130.233 -0.933746 1.64553 0
M  V30 1396 O 129.576 -1.62114 0.863989 0
M  V30 1397 C 129.638 0.536746 3.55471 0
M  V30 1398 C 129.302 1.90453 4.15423 0
M  V30 1399 C 130.299 2.87029 4.33486 0
M  V30 1400 C 127.984 2.20229 4.51447 0
M  V30 1401 C 129.978 4.11532 4.86744 0
M  V30 1402 C 127.665 3.44984 5.0441 0
M  V30 1403 C 128.663 4.40452 5.22007 0
M  V30 1404 O 128.351 5.62998 5.73837 0
M  V30 1405 H 128.083 0.184778 0.650256 0
M  V30 1406 H 130.637 1.15615 1.69771 0
M  V30 1407 H 128.867 -0.20152 3.86175 0
M  V30 1408 H 130.556 0.169875 4.05544 0
M  V30 1409 H 131.322 2.6533 4.05986 0
M  V30 1410 H 127.201 1.46705 4.37034 0
M  V30 1411 H 130.745 4.86056 5.00395 0
M  V30 1412 H 126.642 3.66532 5.31342 0
M  V30 1413 H 127.41 5.64987 5.92226 0
M  V30 1414 N 130.073 -1.45103 0.615059 0
M  V30 1415 C 131.003 -2.33339 -0.0865619 0
M  V30 1416 C 131.984 -1.4727 -0.851209 0
M  V30 1417 O 133.169 -1.76026 -0.820281 0
M  V30 1418 C 130.299 -3.30095 -1.07956 0
M  V30 1419 C 129.253 -4.25858 -0.427628 0
M  V30 1420 C 128.579 -5.12361 -1.5294 0
M  V30 1421 C 129.879 -5.18165 0.655944 0
M  V30 1422 H 131.573 -2.92254 0.650224 0
M  V30 1423 H 129.119 -1.40532 0.314138 0
M  V30 1424 H 131.072 -3.90698 -1.57901 0
M  V30 1425 H 129.796 -2.69355 -1.84703 0
M  V30 1426 H 128.455 -3.66564 0.0510292 0
M  V30 1427 H 128.103 -4.47984 -2.28734 0
M  V30 1428 H 127.803 -5.77238 -1.09865 0
M  V30 1429 H 129.327 -5.75833 -2.03098 0
M  V30 1430 H 130.741 -5.72796 0.240257 0
M  V30 1431 H 129.138 -5.91559 1.00888 0
M  V30 1432 H 130.208 -4.60144 1.52957 0
M  V30 1433 N 131.551 -0.354651 -1.53558 0
M  V30 1434 C 132.498 0.496968 -2.25386 0
M  V30 1435 C 133.468 1.0865 -1.25636 0
M  V30 1436 O 134.653 1.12104 -1.54394 0
M  V30 1437 C 131.793 1.63637 -3.03837 0
M  V30 1438 C 130.906 1.07307 -4.18461 0
M  V30 1439 C 130.041 2.18068 -4.84376 0
M  V30 1440 C 129.08 1.59147 -5.91049 0
M  V30 1441 N 128.217 2.63695 -6.50699 0
M  V30 1442 H 133.057 -0.122075 -2.9775 0
M  V30 1443 H 130.594 -0.0720154 -1.46924 0
M  V30 1444 H 132.552 2.30734 -3.47589 0
M  V30 1445 H 131.182 2.22623 -2.33749 0
M  V30 1446 H 130.234 0.292708 -3.79272 0
M  V30 1447 H 131.546 0.602193 -4.95152 0
M  V30 1448 H 130.7 2.93007 -5.31255 0
M  V30 1449 H 129.439 2.68504 -4.07133 0
M  V30 1450 H 128.444 0.827175 -5.43542 0
M  V30 1451 H 129.669 1.09549 -6.70206 0
M  V30 1452 H 127.615 3.13365 -5.76315 0
M  V30 1453 H 127.532 2.21263 -7.22896 0
M  V30 1454 H 128.8 3.3837 -7.02229 0
M  V30 1455 N 133.029 1.57378 -0.0835403 0
M  V30 1456 C 133.939 2.16897 0.894021 0
M  V30 1457 C 134.955 1.13528 1.31861 0
M  V30 1458 O 136.131 1.45848 1.3889 0
M  V30 1459 C 133.196 2.72831 2.13925 0
M  V30 1460 C 132.257 3.91115 1.76997 0
M  V30 1461 C 131.49 4.44371 2.95584 0
M  V30 1462 O 131.713 3.96596 4.09961 0
M  V30 1463 O 130.647 5.35549 2.74719 0
M  V30 1464 H 134.473 3.00814 0.417679 0
M  V30 1465 H 132.058 1.48741 0.140181 0
M  V30 1466 H 133.94 3.0863 2.86924 0
M  V30 1467 H 132.615 1.91967 2.60635 0
M  V30 1468 H 131.522 3.60148 1.01214 0
M  V30 1469 H 132.855 4.73307 1.3506 0
M  V30 1470 N 134.507 -0.190092 1.56449 0
M  V30 1471 C 135.753 -0.911052 1.81184 0
M  V30 1472 C 136.086 -1.82699 0.658396 0
M  V30 1473 O 135.361 -1.91491 -0.340775 0
M  V30 1474 C 135.644 -1.72297 3.16205 0
M  V30 1475 C 135.497 -0.831419 4.42049 0
M  V30 1476 C 136.816 -2.69454 3.47969 0
M  V30 1477 H 133.935 -0.32977 0.659106 0
M  V30 1478 H 136.577 -0.178169 1.89163 0
M  V30 1479 H 134.727 -2.34778 3.09534 0
M  V30 1480 H 136.399 -0.220929 4.60771 0
M  V30 1481 H 134.642 -0.138406 4.33579 0
M  V30 1482 H 135.313 -1.43461 5.33032 0
M  V30 1483 H 137.789 -2.17104 3.54972 0
M  V30 1484 H 136.665 -3.23342 4.43555 0
M  V30 1485 H 136.926 -3.48744 2.71717 0
M  V30 1486 N 135.985 -1.50799 -0.457987 0
M  V30 1487 C 137.262 -1.52968 -1.21902 0
M  V30 1488 C 137.642 -0.281906 -2.09209 0
M  V30 1489 O 136.99 0.734076 -2.16388 0
M  V30 1490 C 137.2 -2.8326 -2.03875 0
M  V30 1491 C 138.548 -3.34425 -2.6162 0
M  V30 1492 O 139.572 -2.8467 -2.14106 0
M  V30 1493 O 138.431 -4.21188 -3.48228 0
M  V30 1494 H 135.525 -0.614129 -0.553873 0
M  V30 1495 H 138.071 -1.63098 -0.468739 0
M  V30 1496 H 136.843 -3.65543 -1.39621 0
M  V30 1497 H 136.466 -2.76195 -2.8601 0
M  V30 1498 N 137.463 0.71206 -1.40597 0
M  V30 1499 C 138.709 1.47416 -1.39271 0
M  V30 1500 C 139.042 1.942 0.00388791 0
M  V30 1501 O 138.317 1.68403 0.973179 0
M  V30 1502 C 138.6 2.69774 -2.38525 0
M  V30 1503 C 138.453 2.28861 -3.87224 0
M  V30 1504 C 139.772 3.71939 -2.35264 0
M  V30 1505 H 136.891 0.534713 -0.5072 0
M  V30 1506 H 139.533 0.812375 -1.71757 0
M  V30 1507 H 137.683 3.26238 -2.10953 0
M  V30 1508 H 139.355 1.77852 -4.25636 0
M  V30 1509 H 137.598 1.60824 -4.02887 0
M  V30 1510 H 138.269 3.16584 -4.52193 0
M  V30 1511 H 140.745 3.25113 -2.59694 0
M  V30 1512 H 139.621 4.55186 -3.06753 0
M  V30 1513 H 139.882 4.20484 -1.36549 0
M  V30 1514 N 138.941 1.26152 0.944643 0
M  V30 1515 C 140.188 1.11492 1.69044 0
M  V30 1516 C 140.516 -0.342366 1.91463 0
M  V30 1517 O 139.771 -1.26812 1.49054 0
M  V30 1518 C 140.07 1.82541 3.07268 0
M  V30 1519 C 139.736 3.32445 3.04616 0
M  V30 1520 C 138.398 3.73337 3.036 0
M  V30 1521 C 140.75 4.28171 2.97185 0
M  V30 1522 C 138.078 5.08348 2.92915 0
M  V30 1523 C 140.43 5.63218 2.88041 0
M  V30 1524 C 139.094 6.03426 2.85366 0
M  V30 1525 H 138.364 0.407977 0.618576 0
M  V30 1526 H 141.011 1.56551 1.10291 0
M  V30 1527 H 139.316 1.29941 3.69625 0
M  V30 1528 H 141.013 1.68642 3.63815 0
M  V30 1529 H 137.603 2.99915 3.06185 0
M  V30 1530 H 141.787 3.97563 2.97081 0
M  V30 1531 H 137.043 5.38667 2.89219 0
M  V30 1532 H 141.217 6.37078 2.81254 0
M  V30 1533 H 138.844 7.07999 2.76842 0
M  V30 1534 N 140.419 -1.14872 1.07899 0
M  V30 1535 C 141.665 -1.86064 0.806725 0
M  V30 1536 C 141.998 -1.82434 -0.665706 0
M  V30 1537 O 141.273 -1.25138 -1.48899 0
M  V30 1538 C 141.556 -3.34929 1.32267 0
M  V30 1539 C 141.409 -3.47161 2.86006 0
M  V30 1540 C 142.728 -4.29863 0.943717 0
M  V30 1541 H 139.847 -0.675591 0.294526 0
M  V30 1542 H 142.489 -1.34925 1.33773 0
M  V30 1543 H 140.639 -3.78611 0.870974 0
M  V30 1544 H 142.311 -3.12302 3.39507 0
M  V30 1545 H 140.554 -2.88539 3.23925 0
M  V30 1546 H 141.225 -4.51777 3.17177 0
M  V30 1547 H 143.701 -3.9417 1.33302 0
M  V30 1548 H 142.577 -5.32494 1.33198 0
M  V30 1549 H 142.838 -4.41846 -0.149796 0
M  V30 1550 N 141.898 -0.863906 -1.31812 0
M  V30 1551 C 143.123 -0.48527 -2.01643 0
M  V30 1552 C 143.548 0.913058 -1.64453 0
M  V30 1553 O 142.906 1.6014 -0.849985 0
M  V30 1554 C 142.954 -0.642625 -3.54828 0
M  V30 1555 O 142.058 0.320659 -4.11151 0
M  V30 1556 H 141.399 -0.193793 -0.635091 0
M  V30 1557 H 143.929 -1.16565 -1.68148 0
M  V30 1558 H 143.939 -0.533628 -4.04495 0
M  V30 1559 H 142.614 -1.66227 -3.81237 0
M  V30 1560 H 141.191 0.167126 -3.72525 0
M  V30 1561 N 143.376 1.44774 -0.622745 0
M  V30 1562 C 144.309 2.27792 0.136329 0
M  V30 1563 C 145.287 1.38041 0.859264 0
M  V30 1564 O 146.471 1.67478 0.86506 0
M  V30 1565 C 143.598 3.16776 1.19878 0
M  V30 1566 C 142.644 4.22575 0.57731 0
M  V30 1567 S 143.477 5.31825 -0.626294 0
M  V30 1568 C 144.633 6.24377 0.436378 0
M  V30 1569 H 144.866 2.91824 -0.567967 0
M  V30 1570 H 142.399 1.48838 -0.410677 0
M  V30 1571 H 144.357 3.68596 1.80686 0
M  V30 1572 H 143.018 2.5198 1.87523 0
M  V30 1573 H 142.211 4.84818 1.37721 0
M  V30 1574 H 141.813 3.73974 0.0440439 0
M  V30 1575 H 144.105 6.64689 1.31128 0
M  V30 1576 H 145.048 7.07941 -0.150271 0
M  V30 1577 H 145.456 5.59381 0.758513 0
M  V30 1578 N 144.854 0.36279 1.53368 0
M  V30 1579 C 146.102 -0.227326 2.00817 0
M  V30 1580 C 146.423 -1.49511 1.25186 0
M  V30 1581 O 145.693 -1.92482 0.364348 0
M  V30 1582 H 144.273 -0.0869923 0.741917 0
M  V30 1583 H 146.935 0.488381 1.88682 0
M  V30 1584 H 146.031 -0.456273 3.08747 0
M  V30 1585 N 146.332 -1.57332 0.0918853 0
M  V30 1586 C 147.562 -1.98286 -0.580205 0
M  V30 1587 C 147.97 -0.969713 -1.6246 0
M  V30 1588 O 147.313 0.0493501 -1.83634 0
M  V30 1589 C 147.375 -3.35603 -1.28882 0
M  V30 1590 C 147.039 -4.55285 -0.395559 0
M  V30 1591 C 148.036 -5.18687 0.355002 0
M  V30 1592 C 145.721 -5.01314 -0.314556 0
M  V30 1593 C 147.715 -6.26484 1.17458 0
M  V30 1594 C 145.402 -6.08979 0.508677 0
M  V30 1595 C 146.4 -6.71429 1.2519 0
M  V30 1596 O 146.088 -7.77018 2.06151 0
M  V30 1597 H 145.82 -0.656678 -0.160466 0
M  V30 1598 H 148.374 -2.04721 0.16688 0
M  V30 1599 H 146.604 -3.25842 -2.08241 0
M  V30 1600 H 148.293 -3.61026 -1.85512 0
M  V30 1601 H 149.059 -4.84058 0.302134 0
M  V30 1602 H 144.938 -4.5247 -0.882697 0
M  V30 1603 H 148.482 -6.75159 1.75518 0
M  V30 1604 H 144.379 -6.4304 0.563037 0
M  V30 1605 H 145.147 -7.93991 1.98799 0
M  V30 1606 N 147.81 0.181792 -1.56548 0
M  V30 1607 C 148.76 1.22961 -1.92002 0
M  V30 1608 C 149.744 1.40331 -0.787146 0
M  V30 1609 O 150.936 1.42478 -1.05019 0
M  V30 1610 C 148.065 2.57144 -2.27446 0
M  V30 1611 C 147.151 2.43512 -3.47222 0
M  V30 1612 N 147.542 1.99577 -4.64761 0
M  V30 1613 C 145.84 2.74368 -3.51622 0
M  V30 1614 C 146.541 1.98156 -5.46909 0
M  V30 1615 N 145.517 2.40164 -4.8767 0
M  V30 1616 H 149.319 0.881462 -2.8037 0
M  V30 1617 H 146.833 0.390141 -1.57644 0
M  V30 1618 H 148.83 3.32847 -2.51035 0
M  V30 1619 H 147.49 2.92771 -1.40411 0
M  V30 1620 H 148.501 1.70078 -4.89177 0
M  V30 1621 H 145.178 3.14102 -2.75038 0
M  V30 1622 H 146.568 1.65975 -6.51077 0
M  V30 1623 N 149.288 1.51039 0.449983 0
M  V30 1624 C 150.235 1.71439 1.54523 0
M  V30 1625 C 151.205 0.555871 1.56522 0
M  V30 1626 O 152.39 0.788871 1.73728 0
M  V30 1627 C 149.53 1.83384 2.92343 0
M  V30 1628 C 148.643 3.10873 2.9997 0
M  V30 1629 C 147.778 3.13488 4.28834 0
M  V30 1630 C 146.817 4.35343 4.30282 0
M  V30 1631 N 145.954 4.35579 5.5065 0
M  V30 1632 H 150.794 2.64934 1.36433 0
M  V30 1633 H 148.331 1.31312 0.662982 0
M  V30 1634 H 150.289 1.88291 3.72293 0
M  V30 1635 H 148.919 0.933086 3.0902 0
M  V30 1636 H 147.971 3.15336 2.12761 0
M  V30 1637 H 149.283 4.00814 2.96901 0
M  V30 1638 H 148.437 3.17241 5.17149 0
M  V30 1639 H 147.176 2.21414 4.34543 0
M  V30 1640 H 146.181 4.3178 3.40362 0
M  V30 1641 H 147.406 5.28668 4.26248 0
M  V30 1642 H 145.352 3.46369 5.57104 0
M  V30 1643 H 145.269 5.19313 5.49409 0
M  V30 1644 H 146.537 4.43507 6.41032 0
M  V30 1645 N 150.766 -0.704594 1.40972 0
M  V30 1646 C 151.713 -1.81862 1.42109 0
M  V30 1647 C 152.683 -1.63781 0.276593 0
M  V30 1648 O 153.868 -1.84759 0.4763 0
M  V30 1649 C 151.008 -3.19669 1.30022 0
M  V30 1650 C 150.121 -3.49246 2.54267 0
M  V30 1651 C 149.256 -4.76618 2.3454 0
M  V30 1652 C 148.295 -4.99133 3.54306 0
M  V30 1653 N 147.432 -6.17726 3.33706 0
M  V30 1654 H 152.272 -1.80226 2.37324 0
M  V30 1655 H 149.809 -0.880238 1.17857 0
M  V30 1656 H 151.767 -3.99263 1.21018 0
M  V30 1657 H 150.397 -3.20506 0.384192 0
M  V30 1658 H 149.449 -2.64125 2.73756 0
M  V30 1659 H 150.761 -3.61788 3.43381 0
M  V30 1660 H 149.915 -5.64249 2.22952 0
M  V30 1661 H 148.654 -4.66305 1.42867 0
M  V30 1662 H 147.659 -4.09953 3.66359 0
M  V30 1663 H 148.884 -5.11311 4.4692 0
M  V30 1664 H 146.83 -6.08642 2.44725 0
M  V30 1665 H 146.747 -6.30995 4.16391 0
M  V30 1666 H 148.015 -7.08115 3.25873 0
M  V30 1667 N 152.244 -1.26651 -0.937939 0
M  V30 1668 C 153.472 -1.15173 -1.7188 0
M  V30 1669 C 153.887 0.292668 -1.86518 0
M  V30 1670 O 153.244 1.20014 -1.37488 0
M  V30 1671 C 153.295 -1.81925 -3.12387 0
M  V30 1672 O 153.016 -3.2072 -2.98446 0
M  V30 1673 C 154.517 -1.76442 -4.06673 0
M  V30 1674 H 151.737 -0.400911 -0.538063 0
M  V30 1675 H 154.281 -1.67332 -1.1756 0
M  V30 1676 H 152.436 -1.33696 -3.63599 0
M  V30 1677 H 152.85 -3.53802 -3.872 0
M  V30 1678 H 154.324 -2.27781 -5.02812 0
M  V30 1679 H 154.801 -0.731608 -4.33064 0
M  V30 1680 H 155.407 -2.24238 -3.61382 0
M  V30 1681 N 153.722 1.14298 -1.08507 0
M  V30 1682 C 154.952 1.88945 -0.835663 0
M  V30 1683 C 155.36 1.78894 0.615928 0
M  V30 1684 O 154.703 1.1468 1.43506 0
M  V30 1685 C 154.765 3.39585 -1.17994 0
M  V30 1686 C 154.429 3.7342 -2.63451 0
M  V30 1687 C 155.426 3.73454 -3.61702 0
M  V30 1688 C 153.111 4.03368 -2.99332 0
M  V30 1689 C 155.105 4.02961 -4.93864 0
M  V30 1690 C 152.792 4.32538 -4.31687 0
M  V30 1691 C 153.79 4.32318 -5.28763 0
M  V30 1692 O 153.478 4.6078 -6.58739 0
M  V30 1693 H 153.21 0.605307 -0.300965 0
M  V30 1694 H 155.764 1.45673 -1.44806 0
M  V30 1695 H 153.994 3.83315 -0.51055 0
M  V30 1696 H 155.683 3.9554 -0.911182 0
M  V30 1697 H 156.449 3.50403 -3.35325 0
M  V30 1698 H 152.328 4.02692 -2.24411 0
M  V30 1699 H 155.872 4.02704 -5.69627 0
M  V30 1700 H 151.769 4.55059 -4.57812 0
M  V30 1701 H 152.537 4.78492 -6.64069 0
M  V30 1702 N 155.201 0.870884 1.31352 0
M  V30 1703 C 156.449 0.48132 1.96285 0
M  V30 1704 C 156.77 -0.969813 1.69173 0
M  V30 1705 O 156.04 -1.67998 1.00764 0
M  V30 1706 H 154.62 0.175002 0.726212 0
M  V30 1707 H 157.282 1.11087 1.60143 0
M  V30 1708 H 156.378 0.639825 3.05471 0
M  V30 1709 N 156.679 -1.44442 0.630414 0
M  V30 1710 C 157.927 -2.01653 0.134351 0
M  V30 1711 C 158.248 -1.49836 -1.24796 0
M  V30 1712 O 157.518 -0.701684 -1.82902 0
M  V30 1713 H 156.098 -0.74554 0.0466769 0
M  V30 1714 H 158.76 -1.76952 0.816955 0
M  V30 1715 H 157.856 -3.11935 0.101498 0
M  V30 1716 N 158.157 -0.370918 -1.53173 0
M  V30 1717 C 159.387 0.217389 -2.05453 0
M  V30 1718 C 159.795 1.42568 -1.24382 0
M  V30 1719 O 159.138 1.81571 -0.278839 0
M  V30 1720 C 159.2 0.669827 -3.53205 0
M  V30 1721 C 158.864 -0.4225 -4.55043 0
M  V30 1722 C 159.861 -1.27407 -5.04047 0
M  V30 1723 C 157.546 -0.58427 -4.9889 0
M  V30 1724 C 159.54 -2.27271 -5.95505 0
M  V30 1725 C 157.227 -1.58627 -5.90153 0
M  V30 1726 C 158.225 -2.42892 -6.38351 0
M  V30 1727 O 157.913 -3.41382 -7.27814 0
M  V30 1728 H 157.645 0.0408171 -0.674767 0
M  V30 1729 H 160.199 -0.5292 -1.98466 0
M  V30 1730 H 158.429 1.4681 -3.57748 0
M  V30 1731 H 160.118 1.18173 -3.88317 0
M  V30 1732 H 160.884 -1.16031 -4.70916 0
M  V30 1733 H 156.763 0.061851 -4.60959 0
M  V30 1734 H 160.307 -2.93079 -6.33049 0
M  V30 1735 H 156.204 -1.70048 -6.22699 0
M  V30 1736 H 156.972 -3.37173 -7.45826 0
M  V30 1737 N 159.635 1.57281 -0.100228 0
M  V30 1738 C 160.567 2.11342 0.886972 0
M  V30 1739 C 161.58 1.05182 1.24261 0
M  V30 1740 O 162.769 1.32613 1.19483 0
M  V30 1741 C 159.869 2.5825 2.19454 0
M  V30 1742 C 159.042 3.88302 2.01346 0
M  V30 1743 C 158.101 4.21004 3.15661 0
M  V30 1744 O 157.127 4.9014 2.89398 0
M  V30 1745 N 158.329 3.76818 4.41575 0
M  V30 1746 H 161.094 2.96668 0.425216 0
M  V30 1747 H 158.655 1.61678 0.0847334 0
M  V30 1748 H 160.647 2.7717 2.94888 0
M  V30 1749 H 159.217 1.77907 2.57037 0
M  V30 1750 H 158.437 3.7848 1.10212 0
M  V30 1751 H 159.725 4.73375 1.8653 0
M  V30 1752 H 159.123 3.2102 4.65792 0
M  V30 1753 H 157.68 4.00882 5.13942 0
M  V30 1754 N 161.113 -0.173488 1.56642 0
M  V30 1755 C 162.361 -0.888706 1.81512 0
M  V30 1756 C 162.682 -1.82875 0.676872 0
M  V30 1757 O 161.952 -1.93536 -0.303414 0
M  V30 1758 H 160.532 -0.331164 0.669582 0
M  V30 1759 H 163.194 -0.173823 1.94123 0
M  V30 1760 H 162.29 -1.46691 2.75478 0
M  V30 1761 N 162.591 -1.51276 -0.441967 0
M  V30 1762 C 164.007 -1.39349 -0.778083 0
M  V30 1763 C 164.207 -0.472212 -1.95889 0
M  V30 1764 O 163.263 0.0743551 -2.5239 0
M  V30 1765 C 164.576 -2.81292 -1.0628 0
M  V30 1766 C 166.124 -2.9041 -1.16751 0
M  V30 1767 C 166.599 -4.33251 -1.48519 0
M  V30 1768 N 168.09 -4.36336 -1.55453 0
M  V30 1769 C 168.825 -5.43885 -1.81596 0
M  V30 1770 N 168.321 -6.61601 -2.05562 0
M  V30 1771 N 170.114 -5.3136 -1.8334 0
M  V30 1772 H 162.265 -2.09729 0.335774 0
M  V30 1773 H 164.528 -0.943925 0.0878028 0
M  V30 1774 H 164.234 -3.50678 -0.267905 0
M  V30 1775 H 164.108 -3.20334 -1.99163 0
M  V30 1776 H 166.495 -2.21225 -1.95304 0
M  V30 1777 H 166.576 -2.54871 -0.217801 0
M  V30 1778 H 166.22 -5.02984 -0.704958 0
M  V30 1779 H 166.15 -4.66299 -2.44689 0
M  V30 1780 H 168.641 -3.51466 -1.38853 0
M  V30 1781 H 168.954 -7.39361 -2.24867 0
M  V30 1782 H 167.299 -6.64725 -2.02894 0
M  V30 1783 H 170.49 -4.38382 -1.64132 0
M  V30 1784 H 170.663 -6.15258 -2.03377 0
M  V30 1785 N 164.069 0.697108 -1.41344 0
M  V30 1786 C 165.315 1.4593 -1.40827 0
M  V30 1787 C 165.648 1.94193 -0.0167098 0
M  V30 1788 O 164.923 1.69425 0.955263 0
M  V30 1789 C 165.206 2.67229 -2.41373 0
M  V30 1790 C 165.059 2.24741 -3.8963 0
M  V30 1791 C 166.378 3.69423 -2.39196 0
M  V30 1792 H 163.497 0.529303 -0.512842 0
M  V30 1793 H 166.139 0.794112 -1.72609 0
M  V30 1794 H 164.289 3.23982 -2.14401 0
M  V30 1795 H 165.961 1.73327 -4.27499 0
M  V30 1796 H 164.204 1.56542 -4.0457 0
M  V30 1797 H 164.875 3.1177 -4.55525 0
M  V30 1798 H 167.351 3.2234 -2.63128 0
M  V30 1799 H 166.227 4.51907 -3.11563 0
M  V30 1800 H 166.488 4.19012 -1.41001 0
M  V30 1801 N 165.547 1.27147 0.931209 0
M  V30 1802 C 166.794 1.13278 1.67852 0
M  V30 1803 C 167.122 -0.32204 1.91815 0
M  V30 1804 O 166.377 -1.25224 1.50391 0
M  V30 1805 C 166.676 1.8579 3.05314 0
M  V30 1806 C 166.342 3.35657 3.01073 0
M  V30 1807 C 165.004 3.76536 2.99623 0
M  V30 1808 C 167.356 4.31299 2.92627 0
M  V30 1809 C 164.684 5.11426 2.87506 0
M  V30 1810 C 167.036 5.66242 2.82051 0
M  V30 1811 C 165.7 6.06418 2.7895 0
M  V30 1812 H 164.97 0.414515 0.614214 0
M  V30 1813 H 167.617 1.57712 1.08624 0
M  V30 1814 H 165.922 1.33854 3.68226 0
M  V30 1815 H 167.619 1.72491 3.62005 0
M  V30 1816 H 164.209 3.03146 3.02986 0
M  V30 1817 H 168.393 4.00692 2.92848 0
M  V30 1818 H 163.649 5.41705 2.83489 0
M  V30 1819 H 167.823 6.40026 2.74481 0
M  V30 1820 H 165.45 7.10895 2.69318 0
M  V30 1821 N 167.025 -1.13721 1.09112 0
M  V30 1822 C 167.955 -2.21148 0.749385 0
M  V30 1823 C 168.936 -1.6792 -0.271475 0
M  V30 1824 O 170.121 -1.93693 -0.140251 0
M  V30 1825 C 167.251 -3.46905 0.165659 0
M  V30 1826 C 166.205 -4.13203 1.11567 0
M  V30 1827 C 165.531 -5.33248 0.393809 0
M  V30 1828 C 166.831 -4.60912 2.45678 0
M  V30 1829 H 168.525 -2.4999 1.64758 0
M  V30 1830 H 166.071 -1.20156 0.793626 0
M  V30 1831 H 168.024 -4.21313 -0.085466 0
M  V30 1832 H 166.748 -3.17449 -0.767714 0
M  V30 1833 H 165.407 -3.40758 1.35202 0
M  V30 1834 H 165.055 -5.00054 -0.543599 0
M  V30 1835 H 164.755 -5.78552 1.02721 0
M  V30 1836 H 166.279 -6.10413 0.150908 0
M  V30 1837 H 167.693 -5.26759 2.26269 0
M  V30 1838 H 166.09 -5.16944 3.04776 0
M  V30 1839 H 167.16 -3.75603 3.06677 0
M  V30 1840 N 168.503 -0.877838 -1.30888 0
M  V30 1841 C 169.45 -0.337538 -2.28318 0
M  V30 1842 C 170.42 0.568346 -1.56074 0
M  V30 1843 O 171.605 0.498298 -1.84178 0
M  V30 1844 C 168.745 0.448142 -3.42178 0
M  V30 1845 C 167.858 -0.48615 -4.29256 0
M  V30 1846 C 166.993 0.314427 -5.30269 0
M  V30 1847 C 166.032 -0.615791 -6.08995 0
M  V30 1848 N 165.169 0.14902 -7.01942 0
M  V30 1849 H 170.009 -1.17356 -2.73919 0
M  V30 1850 H 167.546 -0.590094 -1.34745 0
M  V30 1851 H 169.504 0.919517 -4.06941 0
M  V30 1852 H 168.134 1.24879 -2.97666 0
M  V30 1853 H 167.186 -1.076 -3.64865 0
M  V30 1854 H 168.498 -1.19909 -4.84173 0
M  V30 1855 H 167.652 0.847969 -6.00745 0
M  V30 1856 H 166.391 1.06062 -4.76027 0
M  V30 1857 H 165.396 -1.16102 -5.37401 0
M  V30 1858 H 166.621 -1.36097 -6.65323 0
M  V30 1859 H 164.567 0.877884 -6.50099 0
M  V30 1860 H 164.484 -0.504433 -7.54315 0
M  V30 1861 H 165.752 0.663537 -7.76671 0
M  V30 1862 N 169.982 1.44106 -0.638065 0
M  V30 1863 C 171.23 2.01579 -0.145043 0
M  V30 1864 C 171.551 1.50496 1.24 0
M  V30 1865 O 170.821 0.711374 1.82527 0
M  V30 1866 H 169.401 0.745282 -0.05063 0
M  V30 1867 H 172.063 1.76516 -0.826327 0
M  V30 1868 H 171.159 3.11877 -0.118039 0
M  V30 1869 N 171.46 0.379036 1.52974 0
M  V30 1870 C 172.708 -0.206014 2.01047 0
M  V30 1871 C 173.029 -1.48175 1.26765 0
M  V30 1872 O 172.299 -1.92085 0.384743 0
M  V30 1873 H 170.879 -0.0791184 0.742798 0
M  V30 1874 H 173.541 0.508366 1.88153 0
M  V30 1875 H 172.637 -0.423501 3.09213 0
M  V30 1876 N 172.938 -1.57226 0.108567 0
M  V30 1877 C 174.163 -1.99604 -0.563303 0
M  V30 1878 C 174.588 -0.987563 -1.6009 0
M  V30 1879 O 173.946 0.0421687 -1.81251 0
M  V30 1880 C 173.994 -3.40902 -1.17552 0
M  V30 1881 O 173.098 -3.42896 -2.2912 0
M  V30 1882 H 172.439 -0.648704 -0.1417 0
M  V30 1883 H 174.969 -2.03679 0.193961 0
M  V30 1884 H 174.979 -3.78886 -1.51357 0
M  V30 1885 H 173.654 -4.1382 -0.415445 0
M  V30 1886 H 172.231 -3.1672 -1.96832 0
M  V30 1887 N 174.416 0.165178 -1.56732 0
M  V30 1888 C 175.693 0.908443 -1.73224 0
M  V30 1889 C 176.073 2.0013 -0.67165 0
M  V30 1890 O 175.421 2.26353 0.31253 0
M  V30 1891 C 175.631 1.46756 -3.16644 0
M  V30 1892 C 176.979 1.93809 -3.77787 0
M  V30 1893 O 178.003 1.56537 -3.1996 0
M  V30 1894 O 176.862 2.62486 -4.79336 0
M  V30 1895 H 173.956 0.428025 -0.707618 0
M  V30 1896 H 176.502 0.152526 -1.69013 0
M  V30 1897 H 175.274 0.68129 -3.85323 0
M  V30 1898 H 174.897 2.28749 -3.25207 0
M  V30 1899 N 175.894 1.51508 0.433938 0
M  V30 1900 C 177.119 1.68443 1.21003 0
M  V30 1901 C 177.544 0.382636 1.84167 0
M  V30 1902 O 176.902 -0.65755 1.68956 0
M  V30 1903 C 176.95 2.80405 2.26727 0
M  V30 1904 O 176.054 2.44245 3.32292 0
M  V30 1905 H 175.395 0.561536 0.354363 0
M  V30 1906 H 177.925 1.9809 0.512024 0
M  V30 1907 H 177.935 3.0459 2.71457 0
M  V30 1908 H 176.61 3.74867 1.80132 0
M  V30 1909 H 175.187 2.30644 2.93015 0
M  V30 1910 N 177.372 -0.689602 1.41712 0
M  V30 1911 C 178.649 -1.44457 1.31877 0
M  V30 1912 C 179.029 -2.11039 -0.0508537 0
M  V30 1913 O 178.377 -2.02138 -1.06547 0
M  V30 1914 C 178.587 -2.45913 2.47645 0
M  V30 1915 C 179.935 -3.10991 2.89084 0
M  V30 1916 O 180.959 -2.56238 2.47428 0
M  V30 1917 O 179.818 -4.10174 3.61137 0
M  V30 1918 H 176.912 -0.64362 0.519309 0
M  V30 1919 H 179.458 -0.719576 1.53689 0
M  V30 1920 H 178.23 -1.95409 3.39015 0
M  V30 1921 H 177.853 -3.25913 2.27742 0
M  V30 1922 N 178.85 -1.27639 -0.924453 0
M  V30 1923 C 179.813 -1.10681 -2.00705 0
M  V30 1924 C 180.813 -0.0497823 -1.60723 0
M  V30 1925 O 182.003 -0.294654 -1.7169 0
M  V30 1926 C 179.135 -0.687164 -3.33902 0
M  V30 1927 H 180.328 -2.06817 -2.17179 0
M  V30 1928 H 177.881 -1.10473 -1.10569 0
M  V30 1929 H 178.616 0.275439 -3.23128 0
M  V30 1930 H 178.401 -1.45061 -3.6428 0
M  V30 1931 H 179.891 -0.590853 -4.13399 0
M  V30 1932 N 180.328 1.1314 -1.09713 0
M  V30 1933 C 181.553 1.88862 -0.857081 0
M  V30 1934 C 181.978 1.78729 0.586304 0
M  V30 1935 O 181.336 1.13692 1.41222 0
M  V30 1936 C 181.384 3.36325 -1.30069 0
M  V30 1937 O 180.488 4.09815 -0.461007 0
M  V30 1938 H 179.829 0.587108 -0.310162 0
M  V30 1939 H 182.359 1.43129 -1.46203 0
M  V30 1940 H 182.369 3.87157 -1.28738 0
M  V30 1941 H 181.044 3.43017 -2.35185 0
M  V30 1942 H 179.621 3.68986 -0.538888 0
M  V30 1943 N 181.806 0.884767 1.30421 0
M  V30 1944 C 182.736 0.367574 2.30589 0
M  V30 1945 C 183.717 -0.549464 1.60981 0
M  V30 1946 O 184.902 -0.46336 1.88591 0
M  V30 1947 C 182.032 -0.418944 3.44764 0
M  V30 1948 C 180.986 0.406316 4.26067 0
M  V30 1949 C 180.312 -0.506793 5.32293 0
M  V30 1950 C 181.612 1.64832 4.95608 0
M  V30 1951 H 183.306 1.20462 2.74097 0
M  V30 1952 H 180.852 0.580695 1.31772 0
M  V30 1953 H 182.805 -0.791395 4.13902 0
M  V30 1954 H 181.529 -1.28964 3.0006 0
M  V30 1955 H 180.188 0.760903 3.58617 0
M  V30 1956 H 179.836 -1.37519 4.83836 0
M  V30 1957 H 179.536 0.0415828 5.87585 0
M  V30 1958 H 181.06 -0.875764 6.04287 0
M  V30 1959 H 182.474 1.34646 5.57264 0
M  V30 1960 H 180.871 2.13688 5.60765 0
M  V30 1961 H 181.941 2.39284 4.21748 0
M  V30 1962 N 183.284 -1.43765 0.645699 0
M  V30 1963 C 184.53 -2.02197 0.156271 0
M  V30 1964 C 184.863 -1.50776 -1.22393 0
M  V30 1965 O 184.138 -0.697771 -1.81553 0
M  V30 1966 C 184.421 -3.59749 0.158872 0
M  V30 1967 C 184.274 -4.21419 1.57245 0
M  V30 1968 C 185.593 -4.37149 -0.50879 0
M  V30 1969 H 182.712 -0.734694 0.0582602 0
M  V30 1970 H 185.354 -1.71157 0.824951 0
M  V30 1971 H 183.504 -3.86325 -0.410525 0
M  V30 1972 H 185.176 -4.059 2.19186 0
M  V30 1973 H 183.419 -3.78356 2.122 0
M  V30 1974 H 184.09 -5.30482 1.52619 0
M  V30 1975 H 186.566 -4.16093 -0.024412 0
M  V30 1976 H 185.442 -5.4683 -0.476213 0
M  V30 1977 H 185.703 -4.12839 -1.58165 0
M  V30 1978 N 184.763 -0.387143 -1.52771 0
M  V30 1979 C 186.012 0.19697 -2.00736 0
M  V30 1980 C 186.325 1.48082 -1.27793 0
M  V30 1981 O 187.531 2.14485 -1.66458 0
M  V30 1982 C 185.987 0.401568 -3.57653 0
M  V30 1983 C 185.595 -0.868907 -4.39493 0
M  V30 1984 C 187.339 0.942164 -4.13912 0
M  V30 1985 C 185.246 -0.632705 -5.88006 0
M  V30 1986 H 184.176 0.0773827 -0.750019 0
M  V30 1987 H 186.827 -0.50921 -1.76293 0
M  V30 1988 H 185.209 1.16954 -3.78335 0
M  V30 1989 H 186.383 -1.64133 -4.30577 0
M  V30 1990 H 184.698 -1.33429 -3.94443 0
M  V30 1991 H 187.295 1.13455 -5.22525 0
M  V30 1992 H 187.638 1.9106 -3.69867 0
M  V30 1993 H 188.171 0.233814 -3.97112 0
M  V30 1994 H 184.91 -1.57208 -6.36369 0
M  V30 1995 H 184.43 0.100825 -5.99715 0
M  V30 1996 H 186.109 -0.26642 -6.46451 0
M  V30 1997 N 186.241 1.57166 -0.116904 0
M  V30 1998 C 187.469 1.99473 0.549383 0
M  V30 1999 C 187.884 0.996541 1.60357 0
M  V30 2000 O 187.241 -0.0108731 1.82497 0
M  V30 2001 C 187.292 3.41788 1.17741 0
M  V30 2002 O 187.013 4.37788 0.165362 0
M  V30 2003 C 188.514 3.99216 1.92722 0
M  V30 2004 H 185.734 0.655009 0.145616 0
M  V30 2005 H 188.278 2.03494 -0.202625 0
M  V30 2006 H 186.433 3.38713 1.88021 0
M  V30 2007 H 186.847 5.20806 0.621403 0
M  V30 2008 H 188.321 5.00882 2.31995 0
M  V30 2009 H 188.798 3.3824 2.80161 0
M  V30 2010 H 189.404 4.0583 1.27209 0
M  V30 2011 N 187.719 -0.156864 1.56817 0
M  V30 2012 C 188.996 -0.899244 1.73704 0
M  V30 2013 C 189.376 -1.99771 0.682254 0
M  V30 2014 O 188.724 -2.26515 -0.300522 0
M  V30 2015 C 188.934 -1.45075 3.17418 0
M  V30 2016 C 190.282 -1.91802 3.7881 0
M  V30 2017 O 191.306 -1.54838 3.20786 0
M  V30 2018 O 190.165 -2.5994 4.80722 0
M  V30 2019 H 187.259 -0.424267 0.709878 0
M  V30 2020 H 189.805 -0.143561 1.69092 0
M  V30 2021 H 188.577 -0.660846 3.85679 0
M  V30 2022 H 188.2 -2.27021 3.26416 0
M  V30 2023 N 189.197 -1.51736 -0.425897 0
M  V30 2024 C 190.127 -1.76827 -1.52494 0
M  V30 2025 C 191.108 -0.618524 -1.58456 0
M  V30 2026 O 192.293 -0.862416 -1.74 0
M  V30 2027 C 189.423 -1.90374 -2.90474 0
M  V30 2028 C 188.377 -3.0588 -2.99369 0
M  V30 2029 C 187.703 -3.04625 -4.3944 0
M  V30 2030 C 189.003 -4.45644 -2.72394 0
M  V30 2031 H 190.697 -2.68855 -1.31748 0
M  V30 2032 H 188.243 -1.29372 -0.632362 0
M  V30 2033 H 190.196 -2.0651 -3.6733 0
M  V30 2034 H 188.92 -0.95004 -3.12477 0
M  V30 2035 H 187.579 -2.89467 -2.24954 0
M  V30 2036 H 187.227 -2.0701 -4.58428 0
M  V30 2037 H 186.927 -3.82195 -4.46319 0
M  V30 2038 H 188.451 -3.22869 -5.18255 0
M  V30 2039 H 189.865 -4.62348 -3.38979 0
M  V30 2040 H 188.262 -5.25006 -2.9067 0
M  V30 2041 H 189.332 -4.54893 -1.67929 0
M  V30 2042 N 190.675 0.682077 -1.42076 0
M  V30 2043 C 191.903 1.47057 -1.4554 0
M  V30 2044 C 192.318 1.8869 -0.0645779 0
M  V30 2045 O 191.675 1.57666 0.919115 0
M  V30 2046 C 191.726 2.72442 -2.37609 0
M  V30 2047 O 191.447 2.32559 -3.71279 0
M  V30 2048 C 192.948 3.66069 -2.50017 0
M  V30 2049 H 190.168 0.452737 -0.495248 0
M  V30 2050 H 192.712 0.838695 -1.8651 0
M  V30 2051 H 190.867 3.31835 -1.9991 0
M  V30 2052 H 191.281 3.13475 -4.20516 0
M  V30 2053 H 192.755 4.50792 -3.18576 0
M  V30 2054 H 193.232 4.11476 -1.53572 0
M  V30 2055 H 193.838 3.12572 -2.88407 0
M  V30 2056 N 192.153 1.28127 0.917671 0
M  V30 2057 C 193.083 1.14248 2.03641 0
M  V30 2058 C 194.064 0.0412748 1.7005 0
M  V30 2059 O 195.249 0.217566 1.92977 0
M  V30 2060 C 192.379 0.799431 3.37974 0
M  V30 2061 C 191.333 1.85497 3.85713 0
M  V30 2062 C 190.659 1.36565 5.16966 0
M  V30 2063 C 191.959 3.26085 4.08002 0
M  V30 2064 H 193.653 2.07835 2.15511 0
M  V30 2065 H 191.199 1.00064 1.03553 0
M  V30 2066 H 193.152 0.689114 4.15727 0
M  V30 2067 H 191.876 -0.172145 3.26146 0
M  V30 2068 H 190.535 1.95437 3.10161 0
M  V30 2069 H 190.183 0.383253 5.01538 0
M  V30 2070 H 189.883 2.07143 5.49878 0
M  V30 2071 H 191.407 1.26848 5.97279 0
M  V30 2072 H 192.821 3.19089 4.76293 0
M  V30 2073 H 191.218 3.94462 4.52238 0
M  V30 2074 H 192.288 3.70394 3.12948 0
M  V30 2075 N 193.631 -1.12557 1.10312 0
M  V30 2076 C 194.541 -2.21841 0.763142 0
M  V30 2077 C 195.557 -1.72354 -0.238801 0
M  V30 2078 O 196.733 -2.01249 -0.0778746 0
M  V30 2079 C 193.798 -3.46131 0.198632 0
M  V30 2080 C 192.859 -4.10464 1.25769 0
M  V30 2081 C 192.092 -5.28821 0.72002 0
M  V30 2082 O 192.315 -5.6859 -0.453993 0
M  V30 2083 O 191.249 -5.83437 1.47935 0
M  V30 2084 H 195.075 -2.53312 1.67532 0
M  V30 2085 H 192.66 -1.20867 0.878157 0
M  V30 2086 H 194.542 -4.2125 -0.112401 0
M  V30 2087 H 193.217 -3.16338 -0.686419 0
M  V30 2088 H 192.124 -3.3713 1.62156 0
M  V30 2089 H 193.457 -4.44408 2.11571 0
M  V30 2090 N 195.109 -0.891671 -1.2995 0
M  V30 2091 C 196.386 -0.433307 -1.9074 0
M  V30 2092 C 196.766 1.08646 -1.80995 0
M  V30 2093 O 196.114 1.92476 -1.23147 0
M  V30 2094 C 196.324 -0.938895 -3.36134 0
M  V30 2095 C 197.672 -0.977829 -4.13187 0
M  V30 2096 O 198.696 -0.886015 -3.45005 0
M  V30 2097 O 197.555 -1.11453 -5.35015 0
M  V30 2098 H 194.649 -0.133699 -0.816121 0
M  V30 2099 H 197.195 -0.981011 -1.38471 0
M  V30 2100 H 195.967 -1.98281 -3.37343 0
M  V30 2101 H 195.59 -0.37074 -3.95868 0
M  V30 2102 N 196.587 1.43421 -0.653314 0
M  V30 2103 C 197.817 2.05864 -0.174238 0
M  V30 2104 C 198.225 1.49052 1.16534 0
M  V30 2105 O 197.568 0.616481 1.73047 0
M  V30 2106 C 197.63 3.59499 -0.00875873 0
M  V30 2107 C 197.294 4.38893 -1.27364 0
M  V30 2108 C 198.291 4.70947 -2.20239 0
M  V30 2109 C 195.976 4.789 -1.51525 0
M  V30 2110 C 197.97 5.41916 -3.35568 0
M  V30 2111 C 195.657 5.49614 -2.67147 0
M  V30 2112 C 196.655 5.81044 -3.58994 0
M  V30 2113 O 196.343 6.50313 -4.72597 0
M  V30 2114 H 196.075 0.670345 -0.0872549 0
M  V30 2115 H 198.629 1.84913 -0.894226 0
M  V30 2116 H 196.859 3.79025 0.7666 0
M  V30 2117 H 198.548 4.0364 0.427687 0
M  V30 2118 H 199.314 4.40558 -2.02815 0
M  V30 2119 H 195.193 4.53843 -0.809158 0
M  V30 2120 H 198.737 5.66365 -4.07279 0
M  V30 2121 H 194.634 5.79419 -2.84505 0
M  V30 2122 H 195.402 6.68795 -4.71864 0
M  V30 2123 N 198.065 0.39524 1.52563 0
M  V30 2124 C 199.313 -0.184678 2.01254 0
M  V30 2125 C 199.634 -1.46822 1.28329 0
M  V30 2126 O 198.904 -1.91666 0.405094 0
M  V30 2127 H 197.484 -0.0712355 0.743596 0
M  V30 2128 H 200.146 0.528293 1.87603 0
M  V30 2129 H 199.242 -0.390681 3.09645 0
M  V30 2130 N 199.544 -1.57102 0.125237 0
M  V30 2131 C 200.96 -1.57915 -0.231322 0
M  V30 2132 C 201.16 -1.13833 -1.66266 0
M  V30 2133 O 200.216 -0.828581 -2.38518 0
M  V30 2134 C 201.529 -3.00699 0.00766489 0
M  V30 2135 C 203.077 -3.12947 -0.0577483 0
M  V30 2136 C 203.552 -4.57742 0.153626 0
M  V30 2137 N 205.043 -4.63092 0.0998073 0
M  V30 2138 C 205.778 -5.72905 0.238174 0
M  V30 2139 N 205.274 -6.91445 0.433057 0
M  V30 2140 N 207.067 -5.6182 0.177308 0
M  V30 2141 H 199.218 -1.84055 1.06007 0
M  V30 2142 H 201.481 -0.850905 0.417929 0
M  V30 2143 H 201.187 -3.3726 0.997431 0
M  V30 2144 H 201.061 -3.70236 -0.721452 0
M  V30 2145 H 203.448 -2.7624 -1.03804 0
M  V30 2146 H 203.529 -2.4594 0.70335 0
M  V30 2147 H 203.173 -4.95149 1.13092 0
M  V30 2148 H 203.103 -5.22848 -0.627534 0
M  V30 2149 H 205.594 -3.77871 -0.047051 0
M  V30 2150 H 205.907 -7.70985 0.529332 0
M  V30 2151 H 204.252 -6.93415 0.469109 0
M  V30 2152 H 207.443 -4.68093 0.0259748 0
M  V30 2153 H 207.616 -6.47357 0.288582 0
M  V30 2154 N 201.022 0.148545 -1.56898 0
M  V30 2155 C 202.252 0.875118 -1.8715 0
M  V30 2156 C 202.66 1.75322 -0.711262 0
M  V30 2157 O 202.003 1.80745 0.328151 0
M  V30 2158 C 202.065 1.7844 -3.12089 0
M  V30 2159 C 201.729 1.08361 -4.43967 0
M  V30 2160 C 202.726 0.438247 -5.1805 0
M  V30 2161 C 200.411 1.07358 -4.90693 0
M  V30 2162 C 202.405 -0.20779 -6.37061 0
M  V30 2163 C 200.092 0.42373 -6.09629 0
M  V30 2164 C 201.09 -0.215829 -6.82659 0
M  V30 2165 O 200.778 -0.855378 -7.99336 0
M  V30 2166 H 200.51 0.258504 -0.624621 0
M  V30 2167 H 203.064 0.14652 -2.04877 0
M  V30 2168 H 201.294 2.55389 -2.90367 0
M  V30 2169 H 202.983 2.38279 -3.286 0
M  V30 2170 H 203.749 0.437817 -4.8302 0
M  V30 2171 H 199.628 1.5608 -4.33774 0
M  V30 2172 H 203.172 -0.70758 -6.94002 0
M  V30 2173 H 199.069 0.421822 -6.4412 0
M  V30 2174 H 199.837 -0.756892 -8.14993 0
M  V30 2175 N 202.5 1.5196 0.417844 0
M  V30 2176 C 203.447 1.74678 1.50852 0
M  V30 2177 C 204.417 0.588947 1.55308 0
M  V30 2178 O 205.602 0.825544 1.72016 0
M  V30 2179 C 202.742 1.89544 2.88387 0
M  V30 2180 C 201.855 3.17166 2.93309 0
M  V30 2181 C 200.99 3.22513 4.22088 0
M  V30 2182 C 200.029 4.44372 4.20951 0
M  V30 2183 N 199.166 4.47161 5.41287 0
M  V30 2184 H 204.006 2.67768 1.30783 0
M  V30 2185 H 201.543 1.32689 0.63498 0
M  V30 2186 H 203.501 1.96146 3.68216 0
M  V30 2187 H 202.131 0.998424 3.06971 0
M  V30 2188 H 201.183 3.19778 2.06024 0
M  V30 2189 H 202.495 4.07021 2.88332 0
M  V30 2190 H 201.649 3.28139 5.10303 0
M  V30 2191 H 200.388 2.30581 4.29748 0
M  V30 2192 H 199.393 4.38902 3.31127 0
M  V30 2193 H 200.618 5.3759 4.14938 0
M  V30 2194 H 198.564 3.58108 5.49632 0
M  V30 2195 H 198.481 5.3085 5.3827 0
M  V30 2196 H 199.749 4.57005 6.3148 0
M  V30 2197 N 203.978 -0.674533 1.42435 0
M  V30 2198 C 205.218 -1.4466 1.44405 0
M  V30 2199 C 205.582 -1.91911 0.0585784 0
M  V30 2200 O 206.783 -2.68759 -0.0469991 0
M  V30 2201 C 205.054 -2.61136 2.44013 0
M  V30 2202 S 206.613 -3.49981 2.64687 0
M  V30 2203 H 203.431 -0.494074 0.511284 0
M  V30 2204 H 206.033 -0.785162 1.7904 0
M  V30 2205 H 204.737 -2.24662 3.43446 0
M  V30 2206 H 204.268 -3.32153 2.10803 0
M  V30 2207 H 206.283 -4.57124 1.93007 0
M  V30 2208 N 205.456 -1.28612 -0.910864 0
M  V30 2209 C 206.366 -1.14643 -2.0468 0
M  V30 2210 C 207.382 -0.0723121 -1.7385 0
M  V30 2211 O 208.558 -0.282178 -1.99413 0
M  V30 2212 C 205.623 -0.812561 -3.37044 0
M  V30 2213 C 204.684 -1.96935 -3.81465 0
M  V30 2214 C 203.917 -1.65131 -5.07511 0
M  V30 2215 O 204.14 -0.567013 -5.67575 0
M  V30 2216 O 203.074 -2.49585 -5.47714 0
M  V30 2217 H 206.9 -2.1001 -2.19384 0
M  V30 2218 H 204.485 -1.07958 -1.03274 0
M  V30 2219 H 206.367 -0.640441 -4.16505 0
M  V30 2220 H 205.042 0.111426 -3.23508 0
M  V30 2221 H 203.949 -2.19664 -3.02818 0
M  V30 2222 H 205.282 -2.87414 -3.99567 0
M  V30 2223 N 206.934 1.1197 -1.10907 0
M  V30 2224 C 208.18 1.8386 -0.855773 0
M  V30 2225 C 208.513 1.84134 0.617103 0
M  V30 2226 O 207.788 1.29041 1.45529 0
M  V30 2227 C 208.071 3.31305 -1.411 0
M  V30 2228 C 207.924 3.39456 -2.9511 0
M  V30 2229 C 209.243 4.2721 -1.05736 0
M  V30 2230 H 206.362 0.667545 -0.312334 0
M  V30 2231 H 209.004 1.31331 -1.37303 0
M  V30 2232 H 207.154 3.76169 -0.97105 0
M  V30 2233 H 208.826 3.03191 -3.47668 0
M  V30 2234 H 207.069 2.79849 -3.31462 0
M  V30 2235 H 207.74 4.43209 -3.29044 0
M  V30 2236 H 210.216 3.90497 -1.43706 0
M  V30 2237 H 209.092 5.28775 -1.47269 0
M  V30 2238 H 209.353 4.42088 0.0325958 0
M  V30 2239 N 208.412 0.89855 1.29475 0
M  V30 2240 C 209.661 0.519863 1.94885 0
M  V30 2241 C 209.974 -0.9383 1.71625 0
M  V30 2242 O 211.18 -1.42445 2.31131 0
M  V30 2243 C 209.636 0.878836 3.49005 0
M  V30 2244 C 209.244 2.35569 3.81066 0
M  V30 2245 C 210.988 0.570004 4.20656 0
M  V30 2246 C 208.895 2.65558 5.28425 0
M  V30 2247 H 207.825 0.190692 0.729488 0
M  V30 2248 H 210.476 1.09539 1.47219 0
M  V30 2249 H 208.858 0.232253 3.95318 0
M  V30 2250 H 210.032 3.04773 3.45616 0
M  V30 2251 H 208.347 2.63343 3.22552 0
M  V30 2252 H 210.944 0.770925 5.29113 0
M  V30 2253 H 211.287 -0.491404 4.1339 0
M  V30 2254 H 211.82 1.17438 3.8007 0
M  V30 2255 H 208.559 3.70493 5.40754 0
M  V30 2256 H 208.079 2.00977 5.65127 0
M  V30 2257 H 209.758 2.51765 5.96006 0
M  V30 2258 N 209.89 -1.43072 0.660911 0
M  V30 2259 C 210.8 -2.34585 -0.0264163 0
M  V30 2260 C 211.816 -1.54316 -0.803898 0
M  V30 2261 O 212.992 -1.86939 -0.749391 0
M  V30 2262 C 210.057 -3.32689 -0.975639 0
M  V30 2263 C 209.118 -4.2886 -0.194236 0
M  V30 2264 C 208.351 -5.22278 -1.09825 0
M  V30 2265 O 208.574 -5.20299 -2.33763 0
M  V30 2266 O 207.508 -5.99228 -0.566513 0
M  V30 2267 H 211.334 -2.94869 0.727034 0
M  V30 2268 H 208.919 -1.43342 0.42111 0
M  V30 2269 H 210.801 -3.92995 -1.52094 0
M  V30 2270 H 209.476 -2.74898 -1.70918 0
M  V30 2271 H 208.383 -3.72011 0.394835 0
M  V30 2272 H 209.716 -4.89655 0.499899 0
M  V30 2273 N 211.368 -0.403325 -1.52352 0
M  V30 2274 C 212.616 0.174003 -2.0135 0
M  V30 2275 C 212.937 1.46139 -1.29106 0
M  V30 2276 O 212.207 1.91448 -0.415253 0
M  V30 2277 H 210.787 0.0672911 -0.743963 0
M  V30 2278 H 213.449 -0.538235 -1.87321 0
M  V30 2279 H 212.545 0.374254 -3.09848 0
M  V30 2280 N 212.846 1.57033 -0.133567 0
M  V30 2281 C 213.776 2.1909 0.807567 0
M  V30 2282 C 214.757 1.13517 1.26681 0
M  V30 2283 O 215.942 1.41809 1.32679 0
M  V30 2284 C 213.072 2.80188 2.05212 0
M  V30 2285 C 212.026 3.91471 1.73015 0
M  V30 2286 C 211.352 4.39443 3.04622 0
M  V30 2287 C 212.652 5.12886 0.987168 0
M  V30 2288 H 214.346 2.97988 0.290403 0
M  V30 2289 H 211.892 1.43335 0.138239 0
M  V30 2290 H 213.845 3.22264 2.71521 0
M  V30 2291 H 212.569 1.98601 2.59278 0
M  V30 2292 H 211.228 3.49993 1.0909 0
M  V30 2293 H 210.876 3.54695 3.56651 0
M  V30 2294 H 210.576 5.14495 2.83847 0
M  V30 2295 H 212.1 4.8418 3.72024 0
M  V30 2296 H 213.514 5.51891 1.55208 0
M  V30 2297 H 211.911 5.93615 0.87985 0
M  V30 2298 H 212.981 4.84894 -0.0235286 0
M  V30 2299 N 214.325 -0.140222 1.56975 0
M  V30 2300 C 215.235 -1.19223 2.02047 0
M  V30 2301 C 216.251 -1.46612 0.937062 0
M  V30 2302 O 217.427 -1.58148 1.24704 0
M  V30 2303 C 214.492 -2.50414 2.39778 0
M  V30 2304 C 213.553 -2.30612 3.621 0
M  V30 2305 C 212.786 -3.55547 3.98023 0
M  V30 2306 O 213.009 -4.62004 3.34528 0
M  V30 2307 O 211.943 -3.47808 4.91237 0
M  V30 2308 H 215.769 -0.839559 2.91865 0
M  V30 2309 H 213.354 -0.349453 1.45256 0
M  V30 2310 H 215.236 -3.27747 2.64877 0
M  V30 2311 H 213.911 -2.85198 1.53114 0
M  V30 2312 H 212.818 -1.51207 3.4218 0
M  V30 2313 H 214.151 -2.00741 4.49404 0
M  V30 2314 N 215.803 -1.52179 -0.40978 0
M  V30 2315 C 217.08 -1.56769 -1.16974 0
M  V30 2316 C 217.46 -0.348322 -2.08206 0
M  V30 2317 O 216.808 0.664862 -2.18613 0
M  V30 2318 C 217.018 -2.89603 -1.9476 0
M  V30 2319 C 218.366 -3.42579 -2.50849 0
M  V30 2320 O 219.39 -2.91338 -2.04941 0
M  V30 2321 O 218.249 -4.32054 -3.34652 0
M  V30 2322 H 215.343 -0.631439 -0.534054 0
M  V30 2323 H 217.889 -1.64507 -0.416613 0
M  V30 2324 H 216.661 -3.698 -1.27921 0
M  V30 2325 H 216.284 -2.85155 -2.77079 0
M  V30 2326 N 217.281 0.66697 -1.42791 0
M  V30 2327 C 218.558 1.4234 -1.34159 0
M  V30 2328 C 218.938 2.11093 0.0172729 0
M  V30 2329 O 218.286 2.03808 1.03318 0
M  V30 2330 C 218.496 2.41942 -2.51526 0
M  V30 2331 C 219.844 3.06353 -2.93995 0
M  V30 2332 O 220.868 2.52269 -2.51473 0
M  V30 2333 O 219.727 4.04376 -3.67617 0
M  V30 2334 H 216.821 0.635277 -0.529483 0
M  V30 2335 H 219.367 0.695034 -1.54814 0
M  V30 2336 H 218.139 1.89991 -3.42081 0
M  V30 2337 H 217.762 3.22249 -2.32898 0
M  V30 2338 N 218.759 1.29093 0.90403 0
M  V30 2339 C 219.987 1.19689 1.68766 0
M  V30 2340 C 220.402 -0.243113 1.87228 0
M  V30 2341 O 219.759 -1.16326 1.40621 0
M  V30 2342 C 219.81 1.90144 3.07453 0
M  V30 2343 O 219.531 3.2852 2.89838 0
M  V30 2344 C 221.032 1.87162 4.01852 0
M  V30 2345 H 218.252 0.415035 0.527244 0
M  V30 2346 H 220.796 1.7039 1.13082 0
M  V30 2347 H 218.951 1.43289 3.59926 0
M  V30 2348 H 219.365 3.63944 3.77684 0
M  V30 2349 H 220.839 2.41032 4.96596 0
M  V30 2350 H 221.316 0.84617 4.30972 0
M  V30 2351 H 221.922 2.33741 3.5531 0
M  V30 2352 N 220.237 -1.11381 1.11499 0
M  V30 2353 C 221.483 -1.83403 0.865512 0
M  V30 2354 C 221.816 -1.84459 -0.607329 0
M  V30 2355 O 221.091 -1.29811 -1.44842 0
M  V30 2356 C 221.374 -3.30552 1.42855 0
M  V30 2357 C 221.227 -3.37886 2.96906 0
M  V30 2358 C 222.546 -4.26643 1.08 0
M  V30 2359 H 219.665 -0.665879 0.31587 0
M  V30 2360 H 222.307 -1.30601 1.37998 0
M  V30 2361 H 220.457 -3.75648 0.990985 0
M  V30 2362 H 222.129 -3.01343 3.49271 0
M  V30 2363 H 220.372 -2.78088 3.32941 0
M  V30 2364 H 221.043 -4.41458 3.31389 0
M  V30 2365 H 223.519 -3.89729 1.45775 0
M  V30 2366 H 222.395 -5.27986 1.50072 0
M  V30 2367 H 222.656 -4.42099 -0.00915037 0
M  V30 2368 N 221.715 -0.905404 -1.28997 0
M  V30 2369 C 222.961 -0.535039 -1.95615 0
M  V30 2370 C 223.294 0.917404 -1.71165 0
M  V30 2371 O 222.569 1.65123 -1.02785 0
M  V30 2372 C 222.852 -0.834918 -3.50287 0
M  V30 2373 C 222.705 -2.33948 -3.84172 0
M  V30 2374 C 224.024 -0.325318 -4.38896 0
M  V30 2375 H 221.143 -0.195861 -0.710498 0
M  V30 2376 H 223.785 -1.13313 -1.52513 0
M  V30 2377 H 221.935 -0.325904 -3.87131 0
M  V30 2378 H 223.607 -2.91847 -3.57243 0
M  V30 2379 H 221.85 -2.79789 -3.31513 0
M  V30 2380 H 222.521 -2.49987 -4.92149 0
M  V30 2381 H 224.997 -0.761256 -4.09077 0
M  V30 2382 H 223.873 -0.564295 -5.45992 0
M  V30 2383 H 224.134 0.774144 -4.35269 0
M  V30 2384 N 223.193 1.4272 -0.668489 0
M  V30 2385 C 224.439 2.01923 -0.188419 0
M  V30 2386 C 224.772 1.52704 1.19979 0
M  V30 2387 O 224.047 0.726566 1.8042 0
M  V30 2388 C 224.33 3.59451 -0.216085 0
M  V30 2389 C 224.183 4.18864 -1.6393 0
M  V30 2390 C 225.502 4.37903 0.439179 0
M  V30 2391 H 222.621 0.733674 -0.0699412 0
M  V30 2392 H 225.263 1.69822 -0.852076 0
M  V30 2393 H 223.413 3.86929 0.349012 0
M  V30 2394 H 225.085 4.02362 -2.25616 0
M  V30 2395 H 223.328 3.74933 -2.18193 0
M  V30 2396 H 223.999 5.27987 -1.61039 0
M  V30 2397 H 226.475 4.16079 -0.0417878 0
M  V30 2398 H 225.351 5.47519 0.389157 0
M  V30 2399 H 225.612 4.15303 1.51577 0
M  V30 2400 N 224.671 0.411399 1.52136 0
M  V30 2401 C 225.634 -0.401089 2.25663 0
M  V30 2402 C 226.634 -0.971732 1.28117 0
M  V30 2403 O 227.824 -0.850254 1.52041 0
M  V30 2404 C 224.956 -1.56483 3.02863 0
M  V30 2405 H 226.149 0.24295 2.98914 0
M  V30 2406 H 223.702 0.163968 1.55438 0
M  V30 2407 H 224.437 -2.24567 2.33967 0
M  V30 2408 H 224.222 -1.16211 3.74483 0
M  V30 2409 H 225.712 -2.13951 3.58629 0
M  V30 2410 N 226.149 -1.5696 0.141893 0
M  V30 2411 C 227.079 -2.19516 -0.795936 0
M  V30 2412 C 228.06 -1.14187 -1.26077 0
M  V30 2413 O 229.245 -1.42511 -1.31925 0
M  V30 2414 C 226.375 -2.81272 -2.03723 0
M  V30 2415 C 225.329 -3.92384 -1.70936 0
M  V30 2416 C 224.655 -4.41052 -3.02287 0
M  V30 2417 C 225.955 -5.13403 -0.959954 0
M  V30 2418 H 227.649 -2.98138 -0.274596 0
M  V30 2419 H 225.195 -1.43406 -0.130636 0
M  V30 2420 H 227.148 -3.237 -2.69808 0
M  V30 2421 H 225.872 -1.99973 -2.58221 0
M  V30 2422 H 224.531 -3.50566 -1.07232 0
M  V30 2423 H 224.179 -3.56582 -3.54765 0
M  V30 2424 H 223.879 -5.15993 -2.81114 0
M  V30 2425 H 225.403 -4.86146 -3.69451 0
M  V30 2426 H 226.817 -5.52706 -1.52279 0
M  V30 2427 H 225.214 -5.94073 -0.848357 0
M  V30 2428 H 226.284 -4.84875 0.0492434 0
M  V30 2429 N 227.627 0.131896 -1.57047 0
M  V30 2430 C 228.904 0.871495 -1.75112 0
M  V30 2431 C 229.284 1.9866 -0.713949 0
M  V30 2432 O 228.632 2.26965 0.264447 0
M  V30 2433 C 228.842 1.40007 -3.19686 0
M  V30 2434 C 230.19 1.85752 -3.81813 0
M  V30 2435 O 231.214 1.49715 -3.23209 0
M  V30 2436 O 230.073 2.5226 -4.84796 0
M  V30 2437 H 227.167 0.412919 -0.716538 0
M  V30 2438 H 229.713 0.116641 -1.69299 0
M  V30 2439 H 228.485 0.599404 -3.86682 0
M  V30 2440 H 228.108 2.218 -3.29986 0
M  V30 2441 N 229.106 1.52395 0.401703 0
M  V30 2442 C 230.036 1.79231 1.49661 0
M  V30 2443 C 231.017 0.643654 1.57452 0
M  V30 2444 O 232.202 0.889989 1.72606 0
M  V30 2445 C 229.332 1.94971 2.87409 0
M  V30 2446 C 228.286 3.10604 2.94465 0
M  V30 2447 C 227.612 3.11577 4.34538 0
M  V30 2448 C 228.912 4.49921 2.6527 0
M  V30 2449 H 230.606 2.70917 1.27454 0
M  V30 2450 H 228.152 1.30362 0.6117 0
M  V30 2451 H 230.105 2.12328 3.63999 0
M  V30 2452 H 228.829 0.999632 3.10926 0
M  V30 2453 H 227.488 2.93009 2.20321 0
M  V30 2454 H 227.136 2.14277 4.55076 0
M  V30 2455 H 226.836 3.89247 4.40183 0
M  V30 2456 H 228.36 3.31073 5.13053 0
M  V30 2457 H 229.774 4.67683 3.31581 0
M  V30 2458 H 228.171 5.29564 2.82281 0
M  V30 2459 H 229.241 4.57507 1.60671 0
M  V30 2460 N 230.584 -0.659388 1.43143 0
M  V30 2461 C 231.516 -1.7849 1.43784 0
M  V30 2462 C 232.529 -1.5932 0.334787 0
M  V30 2463 O 233.718 -1.68155 0.598842 0
M  V30 2464 C 230.818 -3.15828 1.22906 0
M  V30 2465 C 229.991 -3.61711 2.45934 0
M  V30 2466 C 229.05 -4.77831 2.20371 0
M  V30 2467 O 228.076 -4.87586 2.93681 0
M  V30 2468 N 229.278 -5.67611 1.21647 0
M  V30 2469 H 232.043 -1.7842 2.40803 0
M  V30 2470 H 229.604 -0.84302 1.3822 0
M  V30 2471 H 231.596 -3.91189 1.03697 0
M  V30 2472 H 230.166 -3.10707 0.343542 0
M  V30 2473 H 229.386 -2.76861 2.80609 0
M  V30 2474 H 230.674 -3.89112 3.27825 0
M  V30 2475 H 230.072 -5.62397 0.610449 0
M  V30 2476 H 228.629 -6.42719 1.08423 0
M  V30 2477 N 232.062 -1.29571 -0.897171 0
M  V30 2478 C 233.31 -1.17456 -1.64464 0
M  V30 2479 C 233.631 0.273698 -1.9307 0
M  V30 2480 O 232.901 1.18684 -1.55855 0
M  V30 2481 H 231.481 -0.431706 -0.609622 0
M  V30 2482 H 234.143 -1.62531 -1.07562 0
M  V30 2483 H 233.239 -1.72648 -2.59998 0
M  V30 2484 N 233.54 1.10788 -1.12088 0
M  V30 2485 C 234.786 1.82942 -0.875226 0
M  V30 2486 C 235.119 1.84779 0.597538 0
M  V30 2487 O 234.394 1.30578 1.44152 0
M  V30 2488 C 234.677 3.29789 -1.44606 0
M  V30 2489 C 234.53 3.36307 -2.98693 0
M  V30 2490 C 235.849 4.26064 -1.10261 0
M  V30 2491 H 232.968 0.664195 -0.319397 0
M  V30 2492 H 235.61 1.29867 -1.38689 0
M  V30 2493 H 233.76 3.75118 -1.01089 0
M  V30 2494 H 235.432 2.99487 -3.50864 0
M  V30 2495 H 233.675 2.76318 -3.34411 0
M  V30 2496 H 234.346 4.39694 -3.33726 0
M  V30 2497 H 236.822 3.88951 -1.4784 0
M  V30 2498 H 235.698 5.27183 -1.52869 0
M  V30 2499 H 235.959 4.42098 -0.0142953 0
M  V30 2500 N 235.018 0.912232 1.28515 0
M  V30 2501 C 236.264 0.545405 1.95328 0
M  V30 2502 C 236.597 -0.908313 1.71649 0
M  V30 2503 O 235.872 -1.64575 1.03659 0
M  V30 2504 C 236.155 0.853483 3.4984 0
M  V30 2505 C 236.008 2.35982 3.82926 0
M  V30 2506 C 237.327 0.348589 4.38717 0
M  V30 2507 H 234.446 0.199626 0.709449 0
M  V30 2508 H 237.088 1.1412 1.5191 0
M  V30 2509 H 235.238 0.34643 3.86952 0
M  V30 2510 H 236.91 2.93738 3.55691 0
M  V30 2511 H 235.153 2.81543 3.30024 0
M  V30 2512 H 235.824 2.52593 4.90816 0
M  V30 2513 H 238.3 0.78294 4.08668 0
M  V30 2514 H 237.176 0.593242 5.45685 0
M  V30 2515 H 237.437 -0.751049 4.35674 0
M  V30 2516 N 236.496 -1.42363 0.676048 0
M  V30 2517 C 237.743 -2.01522 0.19883 0
M  V30 2518 C 238.071 -1.53456 -1.19505 0
M  V30 2519 O 237.326 -0.727967 -1.81657 0
M  V30 2520 C 237.625 -3.56929 0.183431 0
M  V30 2521 C 237.291 -4.24431 1.52215 0
M  V30 2522 C 235.953 -4.42585 1.8887 0
M  V30 2523 C 238.305 -4.62459 2.40377 0
M  V30 2524 C 235.633 -4.96039 3.13309 0
M  V30 2525 C 237.985 -5.17294 3.64129 0
M  V30 2526 C 236.649 -5.33661 4.00951 0
M  V30 2527 H 235.919 -0.737419 0.0727571 0
M  V30 2528 H 238.566 -1.70531 0.871281 0
M  V30 2529 H 236.871 -3.87594 -0.572532 0
M  V30 2530 H 238.568 -4.00486 -0.203035 0
M  V30 2531 H 235.158 -4.10661 1.22701 0
M  V30 2532 H 239.342 -4.48105 2.13343 0
M  V30 2533 H 234.598 -5.06896 3.41857 0
M  V30 2534 H 238.772 -5.45704 4.32644 0
M  V30 2535 H 236.399 -5.74845 4.9745 0
M  V30 2536 N 237.974 -0.419461 -1.51915 0
M  V30 2537 C 239.385 0.0477853 -1.86639 0
M  V30 2538 C 239.736 1.43531 -1.33766 0
M  V30 2539 O 238.861 2.05401 -0.68113 0
M  V30 2540 C 239.456 0.0934885 -3.38671 0
M  V30 2541 C 238.015 0.505097 -3.72996 0
M  V30 2542 C 237.162 -0.313792 -2.75519 0
M  V30 2543 H 240.113 -0.636088 -1.45395 0
M  V30 2544 H 240.134 0.906667 -3.6954 0
M  V30 2545 H 239.646 -0.916501 -3.77123 0
M  V30 2546 H 237.747 1.52135 -3.40126 0
M  V30 2547 H 237.86 0.242309 -4.78487 0
M  V30 2548 H 236.224 0.225363 -2.53701 0
M  V30 2549 H 237.007 -1.32232 -3.16812 0
M  V30 2550 N 239.452 1.56882 -0.150215 0
M  V30 2551 C 240.682 2.00302 0.506213 0
M  V30 2552 C 241.09 1.02934 1.58749 0
M  V30 2553 O 240.433 0.0188384 1.8369 0
M  V30 2554 C 240.495 3.40156 1.16337 0
M  V30 2555 C 240.159 4.56439 0.226311 0
M  V30 2556 C 241.156 5.17012 -0.547265 0
M  V30 2557 C 238.841 5.02136 0.128279 0
M  V30 2558 C 240.835 6.21693 -1.40629 0
M  V30 2559 C 238.522 6.06672 -0.734345 0
M  V30 2560 C 239.52 6.6632 -1.50023 0
M  V30 2561 O 239.208 7.68831 -2.34848 0
M  V30 2562 H 238.94 0.662182 0.135984 0
M  V30 2563 H 241.494 2.03961 -0.242746 0
M  V30 2564 H 239.724 3.33346 1.96004 0
M  V30 2565 H 241.413 3.67663 1.71985 0
M  V30 2566 H 242.179 4.82603 -0.48158 0
M  V30 2567 H 238.058 4.55435 0.714157 0
M  V30 2568 H 241.602 6.68179 -2.00455 0
M  V30 2569 H 237.499 6.40507 -0.801309 0
M  V30 2570 H 238.267 7.86065 -2.28131 0
M  V30 2571 N 240.93 -0.123565 1.57115 0
M  V30 2572 C 242.177 -0.832153 1.84612 0
M  V30 2573 C 242.505 -1.80093 0.734627 0
M  V30 2574 O 241.76 -1.93766 -0.27442 0
M  V30 2575 C 242.059 -1.62016 3.18568 0
M  V30 2576 C 241.725 -0.796084 4.43817 0
M  V30 2577 C 240.387 -0.568816 4.77826 0
M  V30 2578 C 242.739 -0.221364 5.2073 0
M  V30 2579 C 240.067 0.243499 5.86194 0
M  V30 2580 C 242.419 0.578117 6.29953 0
M  V30 2581 C 241.083 0.815744 6.62497 0
M  V30 2582 H 240.353 -0.304507 0.675542 0
M  V30 2583 H 243 -0.0947248 1.91266 0
M  V30 2584 H 241.305 -2.42837 3.0747 0
M  V30 2585 H 243.002 -2.17231 3.37064 0
M  V30 2586 H 239.592 -0.983307 4.17168 0
M  V30 2587 H 243.776 -0.384173 4.94811 0
M  V30 2588 H 239.032 0.436871 6.09837 0
M  V30 2589 H 243.206 1.03046 6.88734 0
M  V30 2590 H 240.833 1.44701 7.46301 0
M  V30 2591 N 242.408 -1.52605 -0.393616 0
M  V30 2592 C 243.819 -1.59417 -0.971761 0
M  V30 2593 C 244.17 -0.444173 -1.91106 0
M  V30 2594 O 243.295 0.433382 -2.12016 0
M  V30 2595 C 243.89 -2.88936 -1.76921 0
M  V30 2596 C 242.449 -2.98175 -2.29714 0
M  V30 2597 C 241.596 -2.54491 -1.10135 0
M  V30 2598 H 244.547 -1.57751 -0.173317 0
M  V30 2599 H 244.568 -2.75163 -2.62804 0
M  V30 2600 H 244.08 -3.72616 -1.08532 0
M  V30 2601 H 242.181 -2.19024 -3.01429 0
M  V30 2602 H 242.294 -4.02726 -2.59517 0
M  V30 2603 H 240.658 -2.08702 -1.45999 0
M  V30 2604 H 241.441 -3.4056 -0.432874 0
M  V30 2605 N 243.887 0.651787 -1.4349 0
M  V30 2606 C 245.303 0.96762 -1.26922 0
M  V30 2607 C 245.503 2.00602 -0.189982 0
M  V30 2608 O 244.559 2.48793 0.431107 0
M  V30 2609 C 245.872 1.45052 -2.63401 0
M  V30 2610 C 247.42 1.5671 -2.70945 0
M  V30 2611 C 247.895 2.0839 -4.07845 0
M  V30 2612 N 249.386 2.1569 -4.09917 0
M  V30 2613 C 250.121 2.56804 -5.12679 0
M  V30 2614 N 249.617 2.97203 -6.25813 0
M  V30 2615 N 251.41 2.56756 -5.00033 0
M  V30 2616 H 243.561 -0.0353158 -2.12371 0
M  V30 2617 H 245.824 0.0467858 -0.946845 0
M  V30 2618 H 245.53 0.761926 -3.43348 0
M  V30 2619 H 245.404 2.42529 -2.88894 0
M  V30 2620 H 247.791 2.2467 -1.9133 0
M  V30 2621 H 247.872 0.57662 -2.49216 0
M  V30 2622 H 247.516 1.41031 -4.87927 0
M  V30 2623 H 247.446 3.08271 -4.26938 0
M  V30 2624 H 249.937 1.87237 -3.28254 0
M  V30 2625 H 250.25 3.27328 -7.00055 0
M  V30 2626 H 248.595 2.95004 -6.29283 0
M  V30 2627 H 251.786 2.24572 -4.10713 0
M  V30 2628 H 251.959 2.88475 -5.80247 0
M  V30 2629 N 245.365 1.30045 0.890287 0
M  V30 2630 C 246.295 1.18541 2.01172 0
M  V30 2631 C 247.276 0.0773356 1.69924 0
M  V30 2632 O 248.461 0.25845 1.92473 0
M  V30 2633 C 245.591 0.870941 3.36202 0
M  V30 2634 C 244.545 1.93637 3.81692 0
M  V30 2635 C 243.871 1.475 5.13953 0
M  V30 2636 C 245.171 3.34666 4.00994 0
M  V30 2637 H 246.865 2.12359 2.11054 0
M  V30 2638 H 244.411 1.02238 1.01407 0
M  V30 2639 H 246.364 0.777141 4.14172 0
M  V30 2640 H 245.088 -0.102926 3.26438 0
M  V30 2641 H 243.747 2.01972 3.05946 0
M  V30 2642 H 243.395 0.489551 5.00612 0
M  V30 2643 H 243.095 2.1876 5.4536 0
M  V30 2644 H 244.619 1.39489 5.94454 0
M  V30 2645 H 246.033 3.2912 4.69417 0
M  V30 2646 H 244.43 4.03966 4.43769 0
M  V30 2647 H 245.5 3.76949 3.05021 0
M  V30 2648 N 246.843 -1.10192 1.12674 0
M  V30 2649 C 248.091 -1.81845 0.881861 0
M  V30 2650 C 248.412 -1.85737 -0.593867 0
M  V30 2651 O 247.682 -1.33724 -1.4316 0
M  V30 2652 H 246.262 -0.673432 0.323261 0
M  V30 2653 H 248.924 -1.33316 1.42172 0
M  V30 2654 H 248.02 -2.85288 1.2656 0
M  V30 2655 N 248.321 -0.919034 -1.28029 0
M  V30 2656 C 249.737 -0.617972 -1.4715 0
M  V30 2657 C 249.937 0.835242 -1.83374 0
M  V30 2658 O 248.993 1.61388 -1.94191 0
M  V30 2659 C 250.306 -1.56041 -2.57044 0
M  V30 2660 C 251.854 -1.56769 -2.7091 0
M  V30 2661 C 252.329 -2.49688 -3.83953 0
M  V30 2662 N 253.82 -2.47845 -3.91314 0
M  V30 2663 C 254.555 -3.16437 -4.78179 0
M  V30 2664 N 254.051 -3.94376 -5.69596 0
M  V30 2665 N 255.844 -3.05498 -4.71834 0
M  V30 2666 H 247.995 -1.85866 -1.02798 0
M  V30 2667 H 250.258 -0.797506 -0.512531 0
M  V30 2668 H 249.964 -2.59671 -2.372 0
M  V30 2669 H 249.838 -1.29551 -3.54255 0
M  V30 2670 H 252.225 -0.538745 -2.90141 0
M  V30 2671 H 252.306 -1.87305 -1.74214 0
M  V30 2672 H 251.95 -3.52688 -3.65477 0
M  V30 2673 H 251.88 -2.16453 -4.80058 0
M  V30 2674 H 254.371 -1.91234 -3.25941 0
M  V30 2675 H 254.684 -4.43721 -6.32718 0
M  V30 2676 H 253.029 -3.98481 -5.69419 0
M  V30 2677 H 256.22 -2.44108 -3.99411 0
M  V30 2678 H 256.393 -3.59225 -5.39316 0
M  V30 2679 N 249.799 1.42003 -0.683588 0
M  V30 2680 C 251.029 2.05448 -0.217866 0
M  V30 2681 C 251.437 1.51491 1.13346 0
M  V30 2682 O 250.78 0.653048 1.717 0
M  V30 2683 C 250.842 3.59399 -0.0850118 0
M  V30 2684 C 250.506 4.36093 -1.36645 0
M  V30 2685 C 251.503 4.66169 -2.30179 0
M  V30 2686 C 249.188 4.75578 -1.61649 0
M  V30 2687 C 251.182 5.34676 -3.46988 0
M  V30 2688 C 248.869 5.43824 -2.78745 0
M  V30 2689 C 249.867 5.73299 -3.71238 0
M  V30 2690 O 249.555 6.40142 -4.86285 0
M  V30 2691 H 249.287 0.668344 -0.101454 0
M  V30 2692 H 251.841 1.82974 -0.933248 0
M  V30 2693 H 250.071 3.80566 0.686031 0
M  V30 2694 H 251.76 4.04457 0.341973 0
M  V30 2695 H 252.526 4.36156 -2.12115 0
M  V30 2696 H 248.405 4.52025 -0.905243 0
M  V30 2697 H 251.949 5.57599 -4.19201 0
M  V30 2698 H 247.846 5.73254 -2.96732 0
M  V30 2699 H 248.614 6.58636 -4.85944 0
M  V30 2700 N 251.277 0.427512 1.51691 0
M  V30 2701 C 252.225 -0.403359 2.29076 0
M  V30 2702 C 253.219 -1.02962 1.34518 0
M  V30 2703 O 254.425 -0.965715 1.51901 0
M  V30 2704 H 250.8 -0.148879 0.737115 0
M  V30 2705 H 252.771 0.270295 2.97173 0
M  V30 2706 C 251.52 -1.49763 3.13794 0
M  V30 2707 H 250.843 -1.02508 3.86435 0
M  V30 2708 H 252.283 -2.05244 3.71014 0
M  V30 2709 C 250.742 -2.47536 2.28533 0
M  V30 2710 O 251.272 -3.51848 1.93819 0
M  V30 2711 N 249.478 -2.18187 1.91945 0
M  V30 2712 H 249.025 -1.33389 2.20375 0
M  V30 2713 H 248.983 -2.83848 1.35195 0
M  V30 2714 N 252.755 -1.56801 0.158532 0
M  V30 2715 C 253.685 -2.20347 -0.772609 0
M  V30 2716 C 254.666 -1.15518 -1.24859 0
M  V30 2717 O 255.851 -1.43902 -1.30406 0
M  V30 2718 C 252.981 -2.83417 -2.00729 0
M  V30 2719 C 251.935 -3.94174 -1.66765 0
M  V30 2720 C 251.261 -4.44233 -2.97592 0
M  V30 2721 C 252.561 -5.14392 -0.905447 0
M  V30 2722 H 254.255 -2.98413 -0.242959 0
M  V30 2723 H 251.801 -1.43537 -0.115419 0
M  V30 2724 H 253.754 -3.26543 -2.6636 0
M  V30 2725 H 252.478 -2.02701 -2.56086 0
M  V30 2726 H 251.137 -3.51684 -1.03508 0
M  V30 2727 H 250.785 -3.60325 -3.50963 0
M  V30 2728 H 250.485 -5.18945 -2.75626 0
M  V30 2729 H 252.009 -4.90037 -3.64274 0
M  V30 2730 H 253.423 -5.5429 -1.46408 0
M  V30 2731 H 251.82 -5.9494 -0.7853 0
M  V30 2732 H 252.89 -4.84795 0.100668 0
M  V30 2733 N 254.233 0.115231 -1.57178 0
M  V30 2734 C 255.181 1.16014 -2.01602 0
M  V30 2735 C 256.175 1.42653 -0.913587 0
M  V30 2736 O 257.381 1.42571 -1.09879 0
M  V30 2737 H 253.756 0.391252 -0.642204 0
M  V30 2738 H 255.727 0.758998 -2.88586 0
M  V30 2739 C 254.476 2.47767 -2.4394 0
M  V30 2740 H 253.799 2.28108 -3.28339 0
M  V30 2741 H 255.239 3.19432 -2.78818 0
M  V30 2742 C 253.698 3.10617 -1.30455 0
M  V30 2743 O 254.228 3.96846 -0.622585 0
M  V30 2744 N 252.434 2.70553 -1.06064 0
M  V30 2745 H 251.981 2.00527 -1.61699 0
M  V30 2746 H 251.939 3.12934 -0.303284 0
M  V30 2747 N 255.711 1.52812 0.385517 0
M  V30 2748 C 256.958 1.68026 1.1302 0
M  V30 2749 C 257.286 0.421934 1.89868 0
M  V30 2750 O 256.541 -0.595749 1.86412 0
M  V30 2751 C 256.84 2.86856 2.13187 0
M  V30 2752 C 256.506 4.24159 1.5297 0
M  V30 2753 C 255.168 4.61501 1.36274 0
M  V30 2754 C 257.52 5.09627 1.09223 0
M  V30 2755 C 254.848 5.81966 0.743837 0
M  V30 2756 C 257.2 6.30719 0.487411 0
M  V30 2757 C 255.864 6.6679 0.307777 0
M  V30 2758 H 255.134 0.614849 0.413571 0
M  V30 2759 H 257.781 1.86962 0.414405 0
M  V30 2760 H 256.086 2.6235 2.90998 0
M  V30 2761 H 257.783 2.95821 2.70722 0
M  V30 2762 H 254.373 3.94746 1.66954 0
M  V30 2763 H 258.557 4.81343 1.20922 0
M  V30 2764 H 253.813 6.08519 0.592891 0
M  V30 2765 H 257.987 6.96259 0.140143 0
M  V30 2766 H 255.614 7.60001 -0.173879 0
M  V30 2767 N 257.189 -0.644168 1.43834 0
M  V30 2768 C 258.139 -1.7501 1.46135 0
M  V30 2769 C 259.123 -1.57507 0.328685 0
M  V30 2770 O 260.315 -1.67465 0.5731 0
M  V30 2771 C 257.444 -3.13641 1.39585 0
M  V30 2772 C 256.53 -3.3666 2.57916 0
M  V30 2773 N 256.921 -3.30107 3.83227 0
M  V30 2774 C 255.219 -3.67411 2.52834 0
M  V30 2775 C 255.92 -3.53456 4.61999 0
M  V30 2776 N 254.896 -3.75705 3.9287 0
M  V30 2777 H 258.698 -1.68382 2.40883 0
M  V30 2778 H 256.212 -0.846169 1.38614 0
M  V30 2779 H 258.209 -3.92933 1.39317 0
M  V30 2780 H 256.869 -3.21444 0.45865 0
M  V30 2781 H 257.88 -3.09316 4.15384 0
M  V30 2782 H 254.557 -3.82275 1.67845 0
M  V30 2783 H 255.947 -3.54093 5.71024 0
M  V30 2784 N 258.668 -1.30515 -0.883378 0
M  V30 2785 C 259.578 -1.18959 -2.02203 0
M  V30 2786 C 260.594 -0.109172 -1.73657 0
M  V30 2787 O 261.77 -0.324413 -1.9877 0
M  V30 2788 C 258.835 -0.883871 -3.35244 0
M  V30 2789 C 257.896 -2.04982 -3.77201 0
M  V30 2790 C 257.129 -1.75859 -5.03894 0
M  V30 2791 O 257.352 -0.687276 -5.66244 0
M  V30 2792 O 256.286 -2.61146 -5.42297 0
M  V30 2793 H 260.112 -2.14616 -2.1488 0
M  V30 2794 H 257.697 -1.10124 -1.0096 0
M  V30 2795 H 259.579 -0.728644 -4.15053 0
M  V30 2796 H 258.254 0.0427798 -3.23672 0
M  V30 2797 H 257.161 -2.26038 -2.9809 0
M  V30 2798 H 258.494 -2.95825 -3.93381 0
M  V30 2799 N 260.146 1.09593 -1.13257 0
M  V30 2800 C 261.109 2.14359 -0.811358 0
M  V30 2801 C 262.109 1.59808 0.178377 0
M  V30 2802 O 263.299 1.74132 -0.0484911 0
M  V30 2803 C 260.431 3.40269 -0.207276 0
M  V30 2804 H 261.624 2.44284 -1.73969 0
M  V30 2805 H 259.177 1.25102 -0.936973 0
M  V30 2806 H 259.912 3.15969 0.73036 0
M  V30 2807 H 259.697 3.81154 -0.919992 0
M  V30 2808 H 261.187 4.176 0.000667944 0
M  V30 2809 N 261.624 0.925811 1.2754 0
M  V30 2810 C 262.556 0.380753 2.26015 0
M  V30 2811 C 263.569 -0.487485 1.5533 0
M  V30 2812 O 264.758 -0.300413 1.75954 0
M  V30 2813 C 261.858 -0.473259 3.35579 0
M  V30 2814 C 261.031 0.375249 4.35787 0
M  V30 2815 C 260.09 -0.415809 5.24555 0
M  V30 2816 O 259.116 0.175834 5.68928 0
M  V30 2817 N 260.318 -1.71607 5.54555 0
M  V30 2818 H 263.083 1.22725 2.73421 0
M  V30 2819 H 260.644 0.793037 1.41147 0
M  V30 2820 H 262.636 -1.00949 3.91907 0
M  V30 2821 H 261.206 -1.2205 2.87789 0
M  V30 2822 H 260.426 1.09279 3.7875 0
M  V30 2823 H 261.714 0.955399 4.99749 0
M  V30 2824 H 261.112 -2.2191 5.20358 0
M  V30 2825 H 259.669 -2.19887 6.1359 0
M  V30 2826 N 263.102 -1.41638 0.69111 0
M  V30 2827 C 264.034 -2.29194 -0.0161523 0
M  V30 2828 C 265.047 -1.44549 -0.748955 0
M  V30 2829 O 266.236 -1.681 -0.6004 0
M  V30 2830 C 263.336 -3.22325 -1.0469 0
M  V30 2831 C 262.509 -4.35706 -0.384621 0
M  V30 2832 C 261.568 -5.09443 -1.31737 0
M  V30 2833 O 260.594 -5.63386 -0.811451 0
M  V30 2834 N 261.796 -5.16487 -2.64993 0
M  V30 2835 H 264.561 -2.90534 0.735523 0
M  V30 2836 H 262.122 -1.52742 0.53679 0
M  V30 2837 H 264.114 -3.68522 -1.67252 0
M  V30 2838 H 262.684 -2.62323 -1.70015 0
M  V30 2839 H 261.904 -3.91948 0.420804 0
M  V30 2840 H 263.192 -5.08743 0.0760765 0
M  V30 2841 H 262.59 -4.741 -3.08619 0
M  V30 2842 H 261.147 -5.66276 -3.22761 0
M  V30 2843 N 264.58 -0.43555 -1.51462 0
M  V30 2844 C 265.543 0.365137 -2.26273 0
M  V30 2845 C 266.543 0.951227 -1.29647 0
M  V30 2846 O 267.733 0.825958 -1.53374 0
M  V30 2847 C 264.865 1.51645 -3.05314 0
M  V30 2848 H 266.058 -0.290474 -2.9849 0
M  V30 2849 H 263.611 -0.188676 -1.55157 0
M  V30 2850 H 264.346 2.20816 -2.3751 0
M  V30 2851 H 264.131 1.10238 -3.76284 0
M  V30 2852 H 265.621 2.08218 -3.61987 0
M  V30 2853 N 266.058 1.56714 -0.166846 0
M  V30 2854 C 267.298 1.98641 0.481763 0
M  V30 2855 C 267.662 1.05038 1.6072 0
M  V30 2856 O 268.863 1.36087 2.31805 0
M  V30 2857 C 267.134 3.44362 0.956517 0
M  V30 2858 S 268.693 4.08317 1.60694 0
M  V30 2859 H 265.511 0.693873 0.155116 0
M  V30 2860 H 268.113 1.93719 -0.263251 0
M  V30 2861 H 266.817 4.10204 0.126936 0
M  V30 2862 H 266.348 3.53041 1.73568 0
M  V30 2863 H 268.363 4.02999 2.89494 0
M  V30 2864 N 267.536 -0.106894 1.57237 0
M  V30 2865 C 268.466 -1.13148 2.04254 0
M  V30 2866 C 269.447 -1.42476 0.929224 0
M  V30 2867 O 270.632 -1.52709 1.19973 0
M  V30 2868 C 267.762 -2.4545 2.45706 0
M  V30 2869 C 266.716 -2.30558 3.60592 0
M  V30 2870 C 266.042 -3.67931 3.87983 0
M  V30 2871 C 267.342 -1.75597 4.91897 0
M  V30 2872 H 269.036 -0.740374 2.90101 0
M  V30 2873 H 266.582 -0.354696 1.39563 0
M  V30 2874 H 268.535 -3.17389 2.77205 0
M  V30 2875 H 267.259 -2.86475 1.56843 0
M  V30 2876 H 265.918 -1.61067 3.29322 0
M  V30 2877 H 265.566 -4.06462 2.96306 0
M  V30 2878 H 265.266 -3.58817 4.65322 0
M  V30 2879 H 266.79 -4.41356 4.21945 0
M  V30 2880 H 268.204 -2.37364 5.21854 0
M  V30 2881 H 266.601 -1.77272 5.73319 0
M  V30 2882 H 267.671 -0.714451 4.79608 0
M  V30 2883 N 269.014 -1.53014 -0.377408 0
M  V30 2884 C 270.291 -1.59215 -1.13622 0
M  V30 2885 C 270.671 -0.392407 -2.07421 0
M  V30 2886 O 270.019 0.618342 -2.19975 0
M  V30 2887 C 270.229 -2.93669 -1.88573 0
M  V30 2888 C 271.577 -3.47822 -2.43526 0
M  V30 2889 O 272.601 -2.9562 -1.98715 0
M  V30 2890 O 271.46 -4.39055 -3.25412 0
M  V30 2891 H 268.554 -0.642625 -0.52054 0
M  V30 2892 H 271.1 -1.65353 -0.381625 0
M  V30 2893 H 269.872 -3.7243 -1.20048 0
M  V30 2894 H 269.495 -2.90968 -2.70968 0
M  V30 2895 N 270.492 0.636531 -1.44174 0
M  V30 2896 C 271.424 1.7618 -1.46606 0
M  V30 2897 C 272.437 1.58768 -0.360091 0
M  V30 2898 O 273.626 1.67181 -0.625518 0
M  V30 2899 C 270.726 3.13833 -1.27915 0
M  V30 2900 C 269.899 3.57753 -2.51658 0
M  V30 2901 C 268.958 4.74265 -2.27945 0
M  V30 2902 O 267.984 4.82852 -3.01401 0
M  V30 2903 N 269.186 5.65604 -1.30662 0
M  V30 2904 H 271.951 1.74567 -2.43612 0
M  V30 2905 H 269.512 0.820924 -1.39544 0
M  V30 2906 H 271.504 3.8949 -1.09907 0
M  V30 2907 H 270.074 3.10121 -0.39293 0
M  V30 2908 H 269.294 2.72362 -2.84978 0
M  V30 2909 H 270.582 3.83847 -3.33974 0
M  V30 2910 H 269.98 5.61354 -0.699844 0
M  V30 2911 H 268.537 6.40913 -1.18634 0
M  V30 2912 N 271.97 1.30982 0.876444 0
M  V30 2913 C 273.247 1.10942 1.61094 0
M  V30 2914 C 273.627 -0.338223 2.08373 0
M  V30 2915 O 272.975 -1.33122 1.85717 0
M  V30 2916 C 273.185 2.11789 2.77392 0
M  V30 2917 C 274.533 2.43965 3.47514 0
M  V30 2918 O 275.557 2.10166 2.87591 0
M  V30 2919 O 274.416 3.01817 4.55597 0
M  V30 2920 H 271.51 0.42667 0.708436 0
M  V30 2921 H 274.056 1.42438 0.922474 0
M  V30 2922 H 272.828 3.09194 2.39823 0
M  V30 2923 H 272.451 1.81161 3.5393 0
M  V30 2924 N 273.449 -1.08991 1.13837 0
M  V30 2925 C 274.412 -2.13925 0.822715 0
M  V30 2926 C 275.412 -1.599 -0.1699 0
M  V30 2927 O 276.602 -1.74104 0.0577251 0
M  V30 2928 C 273.734 -3.40155 0.225318 0
M  V30 2929 H 274.927 -2.43358 1.75262 0
M  V30 2930 H 272.48 -1.24603 0.943594 0
M  V30 2931 H 273.215 -3.16352 -0.713594 0
M  V30 2932 H 273 -3.80661 0.940193 0
M  V30 2933 H 274.49 -4.17594 0.0214784 0
M  V30 2934 N 274.927 -0.932562 -1.27047 0
M  V30 2935 C 276.173 -0.576412 -1.94436 0
M  V30 2936 C 276.506 0.880891 -1.73072 0
M  V30 2937 O 275.781 1.62905 -1.06264 0
M  V30 2938 C 276.064 -0.909031 -3.48437 0
M  V30 2939 C 275.917 -2.42044 -3.79123 0
M  V30 2940 C 277.236 -0.418341 -4.38107 0
M  V30 2941 H 274.355 -0.210888 -0.706184 0
M  V30 2942 H 276.997 -1.16522 -1.50075 0
M  V30 2943 H 275.147 -0.407947 -3.86352 0
M  V30 2944 H 276.819 -2.99359 -3.50973 0
M  V30 2945 H 275.062 -2.86758 -3.25503 0
M  V30 2946 H 275.733 -2.6037 -4.86736 0
M  V30 2947 H 278.209 -0.847856 -4.0737 0
M  V30 2948 H 277.085 -0.679981 -5.44672 0
M  V30 2949 H 277.346 0.681642 -4.36814 0
M  V30 2950 N 276.405 1.4127 -0.698611 0
M  V30 2951 C 277.654 2.00408 -0.227949 0
M  V30 2952 C 277.967 1.55981 1.18023 0
M  V30 2953 O 279.173 2.07699 1.74852 0
M  V30 2954 C 277.629 3.58129 -0.356636 0
M  V30 2955 C 277.237 4.11536 -1.77037 0
M  V30 2956 C 278.981 4.24466 0.0540969 0
M  V30 2957 C 276.888 5.61701 -1.85055 0
M  V30 2958 H 275.818 0.749586 -0.0814657 0
M  V30 2959 H 278.469 1.61713 -0.867249 0
M  V30 2960 H 276.851 3.94442 0.350965 0
M  V30 2961 H 278.025 3.86636 -2.50698 0
M  V30 2962 H 276.34 3.57736 -2.13105 0
M  V30 2963 H 278.937 5.34698 0.0146723 0
M  V30 2964 H 279.28 4.01687 1.09332 0
M  V30 2965 H 279.813 3.93198 -0.603337 0
M  V30 2966 H 276.552 5.89312 -2.8704 0
M  V30 2967 H 276.072 5.88519 -1.15783 0
M  V30 2968 H 277.751 6.26524 -1.61484 0
M  V30 2969 N 277.883 0.443576 1.51229 0
M  V30 2970 C 278.846 -0.353132 2.26463 0
M  V30 2971 C 279.846 -0.944338 1.3015 0
M  V30 2972 O 281.036 -0.817813 1.5381 0
M  V30 2973 C 278.168 -1.50023 3.06114 0
M  V30 2974 H 279.361 0.3063 2.98332 0
M  V30 2975 H 276.914 0.196902 1.55055 0
M  V30 2976 H 277.649 -2.19553 2.38677 0
M  V30 2977 H 277.434 -1.08241 3.76864 0
M  V30 2978 H 278.924 -2.06296 3.63087 0
M  V30 2979 N 279.361 -1.56624 0.175154 0
M  V30 2980 C 280.586 -2.01813 -0.478137 0
M  V30 2981 C 281.011 -1.05457 -1.55757 0
M  V30 2982 O 280.369 -0.0347439 -1.81267 0
M  V30 2983 C 280.417 -3.45581 -1.02987 0
M  V30 2984 O 279.521 -3.52305 -2.14371 0
M  V30 2985 H 278.862 -0.65413 -0.114059 0
M  V30 2986 H 281.392 -2.02673 0.280173 0
M  V30 2987 H 281.402 -3.84965 -1.35151 0
M  V30 2988 H 280.077 -4.1521 -0.239556 0
M  V30 2989 H 278.654 -3.24783 -1.83222 0
M  V30 2990 N 280.839 0.0985539 -1.57292 0
M  V30 2991 C 282.086 0.802678 -1.85912 0
M  V30 2992 C 282.414 1.78901 -0.763186 0
M  V30 2993 O 281.669 1.94178 0.243559 0
M  V30 2994 C 281.968 1.56927 -3.21105 0
M  V30 2995 C 281.634 0.725376 -4.45027 0
M  V30 2996 C 280.296 0.492726 -4.78671 0
M  V30 2997 C 282.648 0.138493 -5.21016 0
M  V30 2998 C 279.976 -0.336727 -5.85733 0
M  V30 2999 C 282.328 -0.678264 -6.28953 0
M  V30 3000 C 280.992 -0.921039 -6.61115 0
M  V30 3001 H 280.262 0.293721 -0.680301 0
M  V30 3002 H 282.909 0.0642841 -1.91392 0
M  V30 3003 H 281.214 2.37914 -3.11294 0
M  V30 3004 H 282.911 2.11841 -3.40477 0
M  V30 3005 H 279.501 0.916815 -4.18679 0
M  V30 3006 H 283.685 0.305404 -4.95359 0
M  V30 3007 H 278.941 -0.533836 -6.09065 0
M  V30 3008 H 283.115 -1.1399 -6.87007 0
M  V30 3009 H 280.742 -1.56556 -7.43905 0
M  V30 3010 N 282.317 1.53212 0.369288 0
M  V30 3011 C 283.594 1.59815 1.12776 0
M  V30 3012 C 283.974 0.403402 2.0721 0
M  V30 3013 O 283.322 -0.606667 2.20299 0
M  V30 3014 C 283.532 2.94664 1.87013 0
M  V30 3015 C 284.88 3.49109 2.41677 0
M  V30 3016 O 285.904 2.96669 1.97144 0
M  V30 3017 O 284.763 4.40775 3.23079 0
M  V30 3018 H 281.857 0.645376 0.517125 0
M  V30 3019 H 284.403 1.65553 0.37285 0
M  V30 3020 H 283.175 3.73061 1.18071 0
M  V30 3021 H 282.798 2.92401 2.69421 0
M  V30 3022 N 283.795 -0.628877 1.44509 0
M  V30 3023 C 284.727 -1.754 1.47538 0
M  V30 3024 C 285.74 -1.58575 0.368506 0
M  V30 3025 O 286.929 -1.66847 0.634376 0
M  V30 3026 C 284.029 -3.1315 1.29577 0
M  V30 3027 C 283.202 -3.56413 2.53551 0
M  V30 3028 C 282.261 -4.7305 2.30457 0
M  V30 3029 O 281.287 -4.81247 3.03957 0
M  V30 3030 N 282.489 -5.64903 1.3366 0
M  V30 3031 H 285.254 -1.73272 2.44534 0
M  V30 3032 H 282.815 -0.813512 1.39977 0
M  V30 3033 H 284.807 -3.88902 1.11971 0
M  V30 3034 H 283.377 -3.09908 0.409371 0
M  V30 3035 H 282.597 -2.70847 2.86419 0
M  V30 3036 H 283.885 -3.82071 3.36005 0
M  V30 3037 H 283.283 -5.60975 0.729604 0
M  V30 3038 H 281.84 -6.40275 1.22032 0
M  V30 3039 N 285.273 -1.31445 -0.869486 0
M  V30 3040 C 286.203 -1.21727 -1.99261 0
M  V30 3041 C 287.184 -0.104359 -1.6978 0
M  V30 3042 O 288.369 -0.289038 -1.92037 0
M  V30 3043 C 285.499 -0.924317 -3.34774 0
M  V30 3044 C 284.453 -1.99685 -3.78563 0
M  V30 3045 C 283.779 -1.55658 -5.11541 0
M  V30 3046 C 285.079 -3.41003 -3.95619 0
M  V30 3047 H 286.773 -2.1569 -2.07649 0
M  V30 3048 H 284.319 -1.03839 -0.997675 0
M  V30 3049 H 286.272 -0.842934 -4.12883 0
M  V30 3050 H 284.996 0.0509793 -3.2656 0
M  V30 3051 H 283.655 -2.06813 -3.02694 0
M  V30 3052 H 283.303 -0.569132 -4.9977 0
M  V30 3053 H 283.003 -2.27409 -5.41811 0
M  V30 3054 H 284.527 -1.48928 -5.92159 0
M  V30 3055 H 285.941 -3.36547 -4.64122 0
M  V30 3056 H 284.338 -4.10975 -4.37286 0
M  V30 3057 H 285.408 -3.81754 -2.98985 0
M  V30 3058 N 286.751 1.08385 -1.14413 0
M  V30 3059 C 287.981 1.8425 -0.934644 0
M  V30 3060 C 288.389 1.81907 0.520234 0
M  V30 3061 O 287.732 1.22126 1.37226 0
M  V30 3062 C 287.794 3.32853 -1.35828 0
M  V30 3063 C 287.458 3.5893 -2.82875 0
M  V30 3064 C 288.455 3.53756 -3.80989 0
M  V30 3065 C 286.14 3.86934 -3.20293 0
M  V30 3066 C 288.134 3.76216 -5.14529 0
M  V30 3067 C 285.821 4.09047 -4.54008 0
M  V30 3068 C 286.819 4.03682 -5.50936 0
M  V30 3069 O 286.507 4.25214 -6.82238 0
M  V30 3070 H 286.239 0.588502 -0.332628 0
M  V30 3071 H 288.793 1.37792 -1.52324 0
M  V30 3072 H 287.023 3.8007 -0.713019 0
M  V30 3073 H 288.712 3.90154 -1.11957 0
M  V30 3074 H 289.478 3.32135 -3.53428 0
M  V30 3075 H 285.357 3.9023 -2.45442 0
M  V30 3076 H 288.901 3.71943 -5.90173 0
M  V30 3077 H 284.798 4.30151 -4.8129 0
M  V30 3078 H 285.566 4.42619 -6.88499 0
M  V30 3079 N 288.23 0.939286 1.26551 0
M  V30 3080 C 289.507 0.5038 1.89001 0
M  V30 3081 C 289.887 -1.01854 1.84903 0
M  V30 3082 O 289.235 -1.87773 1.30206 0
M  V30 3083 C 289.445 1.063 3.32417 0
M  V30 3084 C 290.793 1.13051 4.09273 0
M  V30 3085 O 291.817 1.01345 3.41479 0
M  V30 3086 O 290.676 1.31233 5.30509 0
M  V30 3087 H 287.77 0.163897 0.810597 0
M  V30 3088 H 290.316 1.03173 1.34735 0
M  V30 3089 H 289.088 2.10665 3.29752 0
M  V30 3090 H 288.711 0.517408 3.94219 0
M  V30 3091 N 289.708 -1.40897 0.706093 0
M  V30 3092 C 290.671 -2.29131 0.0562841 0
M  V30 3093 C 291.671 -1.44901 -0.697166 0
M  V30 3094 O 292.861 -1.65926 -0.530484 0
M  V30 3095 C 289.993 -3.27957 -0.93043 0
M  V30 3096 H 291.186 -2.88091 0.833284 0
M  V30 3097 H 288.739 -1.4906 0.470192 0
M  V30 3098 H 289.474 -2.73997 -1.73482 0
M  V30 3099 H 289.259 -3.90124 -0.393166 0
M  V30 3100 H 290.749 -3.94049 -1.38256 0
M  V30 3101 N 291.186 -0.45159 -1.50991 0
M  V30 3102 C 292.432 0.102439 -2.03142 0
M  V30 3103 C 292.787 1.39138 -1.32884 0
M  V30 3104 O 292.08 1.86493 -0.439438 0
M  V30 3105 C 292.274 0.361728 -3.55565 0
M  V30 3106 C 292.103 -0.900535 -4.40591 0
M  V30 3107 C 290.873 -1.43821 -4.844 0
M  V30 3108 C 293.071 -1.79063 -4.82121 0
M  V30 3109 N 291.053 -2.65153 -5.53685 0
M  V30 3110 C 292.424 -2.84991 -5.50618 0
M  V30 3111 C 294.479 -1.80334 -4.64095 0
M  V30 3112 C 293.182 -3.92155 -6.02998 0
M  V30 3113 C 295.208 -2.86442 -5.17402 0
M  V30 3114 C 294.57 -3.9109 -5.85857 0
M  V30 3115 H 290.669 -0.00204537 -0.781997 0
M  V30 3116 H 293.253 -0.615446 -1.84717 0
M  V30 3117 H 291.424 1.04865 -3.73976 0
M  V30 3118 H 293.156 0.908372 -3.94374 0
M  V30 3119 H 289.911 -0.990117 -4.63135 0
M  V30 3120 H 290.335 -3.26717 -5.92946 0
M  V30 3121 H 294.977 -1.00753 -4.1062 0
M  V30 3122 H 292.695 -4.72565 -6.55521 0
M  V30 3123 H 296.281 -2.88386 -5.05297 0
M  V30 3124 H 295.161 -4.71845 -6.26364 0
M  V30 3125 N 292.664 1.56529 -0.183458 0
M  V30 3126 C 294.08 1.58664 0.172554 0
M  V30 3127 C 294.28 1.19925 1.61926 0
M  V30 3128 O 293.336 0.916534 2.35278 0
M  V30 3129 C 294.649 3.00463 -0.119262 0
M  V30 3130 C 296.197 3.12945 -0.0584396 0
M  V30 3131 C 296.672 4.56857 -0.323408 0
M  V30 3132 N 298.163 4.62403 -0.271612 0
M  V30 3133 C 298.898 5.71626 -0.450639 0
M  V30 3134 N 298.394 6.89362 -0.689384 0
M  V30 3135 N 300.187 5.60775 -0.385701 0
M  V30 3136 H 292.338 1.79994 -1.12765 0
M  V30 3137 H 294.601 0.834808 -0.449222 0
M  V30 3138 H 294.307 3.33326 -1.12192 0
M  V30 3139 H 294.181 3.72659 0.583544 0
M  V30 3140 H 296.568 2.79902 0.934805 0
M  V30 3141 H 296.649 2.4316 -0.794144 0
M  V30 3142 H 296.293 4.9061 -1.31392 0
M  V30 3143 H 296.223 5.24816 0.43305 0
M  V30 3144 H 298.714 3.77785 -0.0932256 0
M  V30 3145 H 299.027 7.68489 -0.815113 0
M  V30 3146 H 297.372 6.91196 -0.726142 0
M  V30 3147 H 300.563 4.67674 -0.199687 0
M  V30 3148 H 300.736 6.4584 -0.528646 0
M  V30 3149 N 294.142 -0.090211 1.57342 0
M  V30 3150 C 295.39 -0.791241 1.85967 0
M  V30 3151 C 295.711 -1.7903 0.772859 0
M  V30 3152 O 294.981 -1.94872 -0.200398 0
M  V30 3153 H 293.561 -0.295205 0.686195 0
M  V30 3154 H 296.223 -0.0706782 1.94772 0
M  V30 3155 H 295.319 -1.31882 2.82867 0
M  V30 3156 N 295.62 -1.53406 -0.361157 0
M  V30 3157 C 296.868 -1.69467 -1.10115 0
M  V30 3158 C 297.189 -0.451352 -1.89705 0
M  V30 3159 O 296.459 0.534636 -1.88463 0
M  V30 3160 H 295.039 -0.624749 -0.409508 0
M  V30 3161 H 297.701 -1.90609 -0.406699 0
M  V30 3162 H 296.797 -2.55774 -1.78847 0
M  V30 3163 N 297.098 0.621204 -1.44841 0
M  V30 3164 C 298.028 1.74366 -1.55303 0
M  V30 3165 C 299.009 1.65199 -0.405385 0
M  V30 3166 O 300.194 1.83807 -0.626787 0
M  V30 3167 C 297.324 3.12931 -1.50637 0
M  V30 3168 C 296.278 3.36896 -2.63979 0
M  V30 3169 C 295.604 4.75594 -2.44366 0
M  V30 3170 C 296.904 3.28483 -4.06074 0
M  V30 3171 H 298.598 1.65867 -2.49256 0
M  V30 3172 H 296.144 0.796558 -1.19962 0
M  V30 3173 H 298.097 3.9124 -1.56555 0
M  V30 3174 H 296.821 3.22237 -0.532057 0
M  V30 3175 H 295.48 2.60972 -2.57467 0
M  V30 3176 H 295.128 4.81616 -1.45105 0
M  V30 3177 H 294.828 4.92586 -3.20364 0
M  V30 3178 H 296.352 5.5612 -2.52117 0
M  V30 3179 H 297.766 3.96684 -4.13902 0
M  V30 3180 H 296.163 3.57008 -4.82354 0
M  V30 3181 H 297.233 2.26133 -4.28943 0
M  V30 3182 N 298.576 1.31904 0.862503 0
M  V30 3183 C 299.853 1.12644 1.59908 0
M  V30 3184 C 300.233 -0.316104 2.0872 0
M  V30 3185 O 299.581 -1.31145 1.87118 0
M  V30 3186 C 299.791 2.1472 2.7513 0
M  V30 3187 C 301.139 2.47637 3.44907 0
M  V30 3188 O 302.163 2.13205 2.85346 0
M  V30 3189 O 301.022 3.06632 4.52371 0
M  V30 3190 H 298.116 0.43416 0.703871 0
M  V30 3191 H 300.662 1.43408 0.907314 0
M  V30 3192 H 299.434 3.1172 2.3653 0
M  V30 3193 H 299.057 1.84905 3.51989 0
M  V30 3194 N 300.054 -1.07777 1.14986 0
M  V30 3195 C 301.3 -1.80719 0.93339 0
M  V30 3196 C 301.655 -1.8484 -0.534019 0
M  V30 3197 O 300.948 -1.31795 -1.3907 0
M  V30 3198 C 301.142 -3.25495 1.47608 0
M  V30 3199 C 300.971 -3.3548 2.99472 0
M  V30 3200 C 299.741 -3.46293 3.6798 0
M  V30 3201 C 301.939 -3.26596 3.97291 0
M  V30 3202 N 299.921 -3.45136 5.07695 0
M  V30 3203 C 301.292 -3.32506 5.23297 0
M  V30 3204 C 303.347 -3.10376 3.89321 0
M  V30 3205 C 302.05 -3.23866 6.42264 0
M  V30 3206 C 304.076 -3.03069 5.07842 0
M  V30 3207 C 303.438 -3.09587 6.32721 0
M  V30 3208 H 299.537 -0.674814 0.395158 0
M  V30 3209 H 302.121 -1.28681 1.46114 0
M  V30 3210 H 300.292 -3.75963 0.975022 0
M  V30 3211 H 302.024 -3.86535 1.19887 0
M  V30 3212 H 298.779 -3.50456 3.18555 0
M  V30 3213 H 299.203 -3.48097 5.80653 0
M  V30 3214 H 303.845 -3.04194 2.93642 0
M  V30 3215 H 301.563 -3.28807 7.38181 0
M  V30 3216 H 305.149 -2.91629 5.03432 0
M  V30 3217 H 304.029 -3.0397 7.22891 0
M  V30 3218 N 301.532 -0.945985 -1.26051 0
M  V30 3219 C 302.772 -0.603665 -1.95282 0
M  V30 3220 C 303.136 0.842377 -1.72534 0
M  V30 3221 O 304.337 1.29387 -2.35611 0
M  V30 3222 C 302.608 -0.942292 -3.44754 0
M  V30 3223 S 304.167 -0.711242 -4.32997 0
M  V30 3224 H 300.985 -0.222176 -0.675395 0
M  V30 3225 H 303.587 -1.21832 -1.52896 0
M  V30 3226 H 302.291 -1.99203 -3.58812 0
M  V30 3227 H 301.822 -0.317546 -3.92116 0
M  V30 3228 H 303.837 0.422221 -4.944 0
M  V30 3229 N 303.011 1.40521 -0.713556 0
M  V30 3230 C 303.959 2.32549 -0.0485227 0
M  V30 3231 C 304.953 1.51931 0.74922 0
M  V30 3232 O 306.159 1.67745 0.652816 0
M  V30 3233 H 302.534 0.751994 0.00311138 0
M  V30 3234 H 304.505 2.86291 -0.841443 0
M  V30 3235 C 303.254 3.36879 0.860687 0
M  V30 3236 H 302.577 3.98978 0.256246 0
M  V30 3237 H 304.017 4.03772 1.294 0
M  V30 3238 C 302.476 2.72197 1.9852 0
M  V30 3239 O 303.006 2.5837 3.07584 0
M  V30 3240 N 301.212 2.30612 1.76823 0
M  V30 3241 H 300.759 2.42059 0.881217 0
M  V30 3242 H 300.717 1.87672 2.52243 0
M  V30 3243 N 304.489 0.459591 1.5075 0
M  V30 3244 C 305.452 -0.329093 2.26825 0
M  V30 3245 C 306.452 -0.930481 1.31144 0
M  V30 3246 O 307.642 -0.801453 1.54669 0
M  V30 3247 C 304.774 -1.46768 3.07688 0
M  V30 3248 H 305.967 0.337924 2.9799 0
M  V30 3249 H 303.52 0.213336 1.54837 0
M  V30 3250 H 304.255 -2.17009 2.40993 0
M  V30 3251 H 304.04 -1.04238 3.77991 0
M  V30 3252 H 305.53 -2.02433 3.65254 0
M  V30 3253 N 305.967 -1.56429 0.191757 0
M  V30 3254 C 307.215 -1.97095 -0.447006 0
M  V30 3255 C 307.536 -1.07967 -1.62383 0
M  V30 3256 O 306.806 -0.150248 -1.95323 0
M  V30 3257 H 305.386 -0.727832 -0.168135 0
M  V30 3258 H 308.048 -1.92911 0.27771 0
M  V30 3259 H 307.144 -3.01848 -0.793371 0
M  V30 3260 N 307.445 0.0818655 -1.57387 0
M  V30 3261 C 308.691 0.778884 -1.87896 0
M  V30 3262 C 309.046 1.75692 -0.784229 0
M  V30 3263 O 308.339 1.90417 0.212567 0
M  V30 3264 C 308.533 1.53513 -3.22752 0
M  V30 3265 C 308.362 0.631838 -4.45239 0
M  V30 3266 C 307.132 0.272571 -5.04564 0
M  V30 3267 C 309.33 -0.0670191 -5.14256 0
M  V30 3268 N 307.312 -0.637498 -6.10581 0
M  V30 3269 C 308.683 -0.834653 -6.14356 0
M  V30 3270 C 310.738 -0.139551 -4.97704 0
M  V30 3271 C 309.441 -1.66806 -6.99691 0
M  V30 3272 C 311.467 -0.959903 -5.83558 0
M  V30 3273 C 310.829 -1.71561 -6.83188 0
M  V30 3274 H 306.928 0.260764 -0.737242 0
M  V30 3275 H 309.512 0.0408227 -1.94657 0
M  V30 3276 H 307.683 2.24398 -3.17018 0
M  V30 3277 H 309.415 2.18038 -3.40942 0
M  V30 3278 H 306.17 0.62319 -4.69482 0
M  V30 3279 H 306.594 -1.08548 -6.68241 0
M  V30 3280 H 311.236 0.430376 -4.20604 0
M  V30 3281 H 308.954 -2.249 -7.76174 0
M  V30 3282 H 312.54 -1.01887 -5.72809 0
M  V30 3283 H 311.42 -2.34017 -7.48469 0
M  V30 3284 N 308.923 1.53595 0.353017 0
M  V30 3285 C 309.853 1.83902 1.43883 0
M  V30 3286 C 310.834 0.693421 1.55324 0
M  V30 3287 O 312.019 0.944452 1.69687 0
M  V30 3288 C 309.149 2.04016 2.8106 0
M  V30 3289 C 308.103 3.19814 2.84434 0
M  V30 3290 C 307.429 3.25244 4.24406 0
M  V30 3291 C 308.729 4.58133 2.50822 0
M  V30 3292 H 310.423 2.74835 1.1877 0
M  V30 3293 H 307.969 1.32242 0.569917 0
M  V30 3294 H 309.922 2.238 3.57059 0
M  V30 3295 H 308.646 1.09804 3.07588 0
M  V30 3296 H 307.305 2.9987 2.10887 0
M  V30 3297 H 306.953 2.28646 4.48029 0
M  V30 3298 H 306.653 4.03054 4.27576 0
M  V30 3299 H 308.177 3.47228 5.0226 0
M  V30 3300 H 309.591 4.77995 3.16534 0
M  V30 3301 H 307.988 5.38276 2.6529 0
M  V30 3302 H 309.058 4.62387 1.46034 0
M  V30 3303 N 310.401 -0.613514 1.45168 0
M  V30 3304 C 311.626 -1.40437 1.52618 0
M  V30 3305 C 312.051 -1.87438 0.157707 0
M  V30 3306 O 311.409 -1.59791 -0.856537 0
M  V30 3307 C 311.457 -2.58894 2.51011 0
M  V30 3308 O 310.561 -3.59326 2.02382 0
M  V30 3309 H 309.902 -0.419506 0.514695 0
M  V30 3310 H 312.432 -0.747215 1.90467 0
M  V30 3311 H 312.442 -3.06214 2.69624 0
M  V30 3312 H 311.117 -2.24032 3.50403 0
M  V30 3313 H 309.694 -3.18695 1.93618 0
M  V30 3314 N 311.879 -1.3236 -0.855495 0
M  V30 3315 C 313.156 -1.13491 -1.59309 0
M  V30 3316 C 313.536 0.30503 -2.08885 0
M  V30 3317 O 312.884 1.30151 -1.87811 0
M  V30 3318 C 313.094 -2.16176 -2.73987 0
M  V30 3319 C 314.442 -2.49463 -3.43589 0
M  V30 3320 O 315.466 -2.14715 -2.84211 0
M  V30 3321 O 314.325 -3.09027 -4.50738 0
M  V30 3322 H 311.419 -0.437887 -0.701559 0
M  V30 3323 H 313.965 -1.43887 -0.899696 0
M  V30 3324 H 312.737 -3.1297 -2.34873 0
M  V30 3325 H 312.36 -1.86769 -3.51003 0
M  V30 3326 N 313.357 1.07166 -1.15556 0
M  V30 3327 C 314.605 1.79443 -0.929764 0
M  V30 3328 C 314.926 1.87246 0.544414 0
M  V30 3329 O 314.196 1.37473 1.39564 0
M  V30 3330 H 312.776 0.664625 -0.341003 0
M  V30 3331 H 315.438 1.29499 -1.45657 0
M  V30 3332 H 314.534 2.81832 -1.34079 0
M  V30 3333 N 314.835 0.952656 1.25548 0
M  V30 3334 C 316.06 0.623025 1.97821 0
M  V30 3335 C 316.485 -0.7976 1.70352 0
M  V30 3336 O 315.843 -1.53905 0.958283 0
M  V30 3337 C 315.891 0.885532 3.49558 0
M  V30 3338 O 314.995 -0.0366641 4.12384 0
M  V30 3339 H 314.336 0.237082 0.620232 0
M  V30 3340 H 316.866 1.27871 1.59719 0
M  V30 3341 H 316.876 0.811009 3.99858 0
M  V30 3342 H 315.551 1.92094 3.6888 0
M  V30 3343 H 314.128 0.0898954 3.72792 0
M  V30 3344 N 316.313 -1.40141 0.720998 0
M  V30 3345 C 317.559 -2.01084 0.263231 0
M  V30 3346 C 317.892 -1.57052 -1.14229 0
M  V30 3347 O 317.167 -0.793027 -1.77599 0
M  V30 3348 C 317.45 -3.58401 0.349344 0
M  V30 3349 C 317.303 -4.12491 1.79363 0
M  V30 3350 C 318.622 -4.39231 -0.276351 0
M  V30 3351 H 315.741 -0.730572 0.0971228 0
M  V30 3352 H 318.383 -1.66543 0.914518 0
M  V30 3353 H 316.533 -3.87958 -0.205165 0
M  V30 3354 H 318.205 -3.93711 2.40394 0
M  V30 3355 H 316.448 -3.66576 2.31958 0
M  V30 3356 H 317.119 -5.21646 1.80524 0
M  V30 3357 H 319.595 -4.15637 0.196184 0
M  V30 3358 H 318.471 -5.48586 -0.185681 0
M  V30 3359 H 318.732 -4.20643 -1.36059 0
M  V30 3360 N 317.792 -0.46758 -1.50504 0
M  V30 3361 C 318.724 0.364655 -2.26281 0
M  V30 3362 C 319.737 0.960151 -1.31472 0
M  V30 3363 O 320.926 0.849153 -1.57008 0
M  V30 3364 C 318.026 1.52509 -3.02645 0
M  V30 3365 C 317.199 1.04302 -4.24782 0
M  V30 3366 C 316.258 2.07709 -4.8347 0
M  V30 3367 O 315.284 1.65913 -5.44483 0
M  V30 3368 N 316.486 3.40485 -4.70159 0
M  V30 3369 H 319.251 -0.28495 -2.98342 0
M  V30 3370 H 316.812 -0.298163 -1.59131 0
M  V30 3371 H 318.804 2.21371 -3.38787 0
M  V30 3372 H 317.374 2.07945 -2.33404 0
M  V30 3373 H 316.594 0.180393 -3.93787 0
M  V30 3374 H 317.882 0.698798 -5.03978 0
M  V30 3375 H 317.28 3.77155 -4.21629 0
M  V30 3376 H 315.837 4.05156 -5.1058 0
M  V30 3377 N 319.27 1.56325 -0.20005 0
M  V30 3378 C 320.5 2.01811 0.442232 0
M  V30 3379 C 320.908 1.07932 1.55394 0
M  V30 3380 O 320.251 0.0772685 1.83537 0
M  V30 3381 C 320.313 3.43685 1.05457 0
M  V30 3382 C 319.977 4.56928 0.0809833 0
M  V30 3383 C 320.974 5.15009 -0.711471 0
M  V30 3384 C 318.659 5.0229 -0.0315364 0
M  V30 3385 C 320.653 6.16904 -1.60336 0
M  V30 3386 C 318.34 6.04028 -0.926981 0
M  V30 3387 C 319.338 6.6121 -1.71146 0
M  V30 3388 O 319.026 7.60971 -2.59189 0
M  V30 3389 H 318.758 0.666173 0.114848 0
M  V30 3390 H 321.312 2.03085 -0.307511 0
M  V30 3391 H 319.542 3.39413 1.85299 0
M  V30 3392 H 321.231 3.72948 1.60201 0
M  V30 3393 H 321.997 4.80827 -0.634873 0
M  V30 3394 H 317.876 4.57476 0.568902 0
M  V30 3395 H 321.42 6.61464 -2.21611 0
M  V30 3396 H 317.317 6.37634 -1.00468 0
M  V30 3397 H 318.085 7.7841 -2.53023 0
M  V30 3398 N 320.748 -0.0735177 1.57428 0
M  V30 3399 C 322.159 -0.625551 1.75908 0
M  V30 3400 C 322.51 -1.78 0.825261 0
M  V30 3401 O 321.635 -2.16398 0.00893964 0
M  V30 3402 C 322.23 -1.14155 3.18989 0
M  V30 3403 C 320.789 -1.63946 3.38819 0
M  V30 3404 C 319.936 -0.558151 2.71625 0
M  V30 3405 H 322.887 0.152647 1.57964 0
M  V30 3406 H 322.908 -2.0104 3.23053 0
M  V30 3407 H 322.42 -0.301116 3.8693 0
M  V30 3408 H 320.521 -2.50321 2.7599 0
M  V30 3409 H 320.634 -1.71759 4.47253 0
M  V30 3410 H 318.998 -1.00278 2.34129 0
M  V30 3411 H 319.781 0.272071 3.4222 0
M  V30 3412 N 322.226 -1.5378 -0.344866 0
M  V30 3413 C 323.475 -1.7018 -1.08267 0
M  V30 3414 C 323.788 -0.471 -1.89845 0
M  V30 3415 O 324.994 -0.515917 -2.66553 0
M  V30 3416 C 323.45 -3.00923 -1.97417 0
M  V30 3417 C 323.058 -4.31335 -1.21053 0
M  V30 3418 C 324.802 -3.26688 -2.71063 0
M  V30 3419 C 322.709 -5.53153 -2.09225 0
M  V30 3420 H 321.639 -0.634138 -0.407903 0
M  V30 3421 H 324.29 -1.8028 -0.342246 0
M  V30 3422 H 322.672 -2.84676 -2.75274 0
M  V30 3423 H 323.846 -4.58281 -0.481159 0
M  V30 3424 H 322.161 -4.12173 -0.591813 0
M  V30 3425 H 324.758 -4.1489 -3.37299 0
M  V30 3426 H 325.101 -2.43639 -3.37558 0
M  V30 3427 H 325.634 -3.43705 -2.0028 0
M  V30 3428 H 322.373 -6.38741 -1.47274 0
M  V30 3429 H 321.893 -5.30458 -2.79955 0
M  V30 3430 H 323.572 -5.88744 -2.68308 0
M  V30 3431 N 323.704 0.605807 -1.45491 0
M  V30 3432 C 324.932 1.39136 -1.5313 0
M  V30 3433 C 325.347 1.88082 -0.164507 0
M  V30 3434 O 324.704 1.62316 0.834247 0
M  V30 3435 C 324.755 2.59463 -2.51716 0
M  V30 3436 O 324.476 2.12551 -3.83084 0
M  V30 3437 C 325.977 3.52301 -2.6907 0
M  V30 3438 H 323.197 0.425849 -0.51855 0
M  V30 3439 H 325.741 0.73865 -1.90694 0
M  V30 3440 H 323.896 3.20772 -2.17219 0
M  V30 3441 H 324.31 2.90744 -4.36541 0
M  V30 3442 H 325.784 4.33271 -3.42024 0
M  V30 3443 H 326.261 4.02757 -1.75167 0
M  V30 3444 H 326.867 2.96845 -3.04571 0
M  V30 3445 N 325.182 1.32811 0.848464 0
M  V30 3446 C 326.129 1.22265 1.95755 0
M  V30 3447 C 327.099 0.103413 1.65778 0
M  V30 3448 O 328.284 0.280033 1.88734 0
M  V30 3449 C 325.424 0.958014 3.31536 0
M  V30 3450 C 324.537 2.16262 3.73971 0
M  V30 3451 C 323.672 1.83295 4.98575 0
M  V30 3452 C 322.711 3.00041 5.33518 0
M  V30 3453 N 321.848 2.67125 6.49299 0
M  V30 3454 H 326.688 2.17128 2.04107 0
M  V30 3455 H 324.225 1.07982 0.998913 0
M  V30 3456 H 326.183 0.785052 4.09747 0
M  V30 3457 H 324.813 0.046159 3.22767 0
M  V30 3458 H 323.865 2.44565 2.91362 0
M  V30 3459 H 325.177 3.03572 3.95785 0
M  V30 3460 H 324.331 1.62586 5.84509 0
M  V30 3461 H 323.07 0.932078 4.7871 0
M  V30 3462 H 322.075 3.21374 4.46093 0
M  V30 3463 H 323.3 3.90869 5.55336 0
M  V30 3464 H 321.246 1.79586 6.3094 0
M  V30 3465 H 321.163 3.47965 6.71161 0
M  V30 3466 H 322.431 2.49861 7.3837 0
M  V30 3467 N 326.66 -1.06551 1.16123 0
M  V30 3468 C 328.071 -1.60768 0.949232 0
M  V30 3469 C 328.422 -1.89523 -0.507508 0
M  V30 3470 O 327.547 -1.66671 -1.38021 0
M  V30 3471 C 328.142 -2.92086 1.71671 0
M  V30 3472 C 326.701 -3.43015 1.54977 0
M  V30 3473 C 325.848 -2.16947 1.72711 0
M  V30 3474 H 328.799 -0.895354 1.31031 0
M  V30 3475 H 328.82 -3.6138 1.19099 0
M  V30 3476 H 328.332 -2.71127 2.7769 0
M  V30 3477 H 326.433 -3.69039 0.513873 0
M  V30 3478 H 326.546 -4.18516 2.33198 0
M  V30 3479 H 324.91 -2.27041 1.15431 0
M  V30 3480 H 325.693 -1.98473 2.80113 0
M  V30 3481 N 328.138 -0.959301 -1.25041 0
M  V30 3482 C 329.554 -0.664474 -1.4511 0
M  V30 3483 C 329.754 0.776481 -1.85938 0
M  V30 3484 O 328.81 1.55128 -1.99227 0
M  V30 3485 C 330.123 -1.64139 -2.5195 0
M  V30 3486 C 331.671 -1.65309 -2.65786 0
M  V30 3487 C 332.146 -2.61777 -3.75815 0
M  V30 3488 N 333.637 -2.60169 -3.83231 0
M  V30 3489 C 334.372 -3.31489 -4.6787 0
M  V30 3490 N 333.868 -4.12298 -5.56761 0
M  V30 3491 N 335.661 -3.20354 -4.61876 0
M  V30 3492 H 327.812 -1.89043 -0.968332 0
M  V30 3493 H 330.075 -0.813408 -0.4869 0
M  V30 3494 H 329.781 -2.67086 -2.28819 0
M  V30 3495 H 329.655 -1.40756 -3.49954 0
M  V30 3496 H 332.042 -0.630778 -2.8828 0
M  V30 3497 H 332.123 -1.92753 -1.68167 0
M  V30 3498 H 331.767 -3.64137 -3.54071 0
M  V30 3499 H 331.697 -2.31616 -4.72929 0
M  V30 3500 H 334.188 -2.01507 -3.19692 0
M  V30 3501 H 334.501 -4.63625 -6.18281 0
M  V30 3502 H 332.846 -4.16395 -5.56454 0
M  V30 3503 H 336.037 -2.56692 -3.91442 0
M  V30 3504 H 336.21 -3.76201 -5.27614 0
M  V30 3505 N 329.616 1.39756 -0.72842 0
M  V30 3506 C 330.526 2.34444 -0.0855374 0
M  V30 3507 C 331.542 1.57976 0.729356 0
M  V30 3508 O 332.718 1.90301 0.659346 0
M  V30 3509 C 329.783 3.36965 0.815798 0
M  V30 3510 C 328.844 4.29299 -0.0105996 0
M  V30 3511 C 328.077 5.26923 0.84781 0
M  V30 3512 O 328.3 5.30859 2.08673 0
M  V30 3513 O 327.234 6.01249 0.279969 0
M  V30 3514 H 331.06 2.91065 -0.866892 0
M  V30 3515 H 328.645 1.4117 -0.48902 0
M  V30 3516 H 330.527 3.99804 1.33171 0
M  V30 3517 H 329.202 2.82739 1.57608 0
M  V30 3518 H 328.109 3.69703 -0.571877 0
M  V30 3519 H 329.442 4.86712 -0.73295 0
M  V30 3520 N 331.094 0.475555 1.50254 0
M  V30 3521 C 332.505 0.0215174 1.86688 0
M  V30 3522 C 332.856 -1.38467 1.39001 0
M  V30 3523 O 331.981 -2.02732 0.756894 0
M  V30 3524 C 332.576 0.0322715 3.38785 0
M  V30 3525 C 331.135 -0.366314 3.74613 0
M  V30 3526 C 330.282 0.415832 2.74164 0
M  V30 3527 H 333.233 0.689612 1.42934 0
M  V30 3528 H 333.254 -0.76889 3.7265 0
M  V30 3529 H 332.766 1.05584 3.73462 0
M  V30 3530 H 330.867 -1.39406 3.45538 0
M  V30 3531 H 330.98 -0.064555 4.79057 0
M  V30 3532 H 329.344 -0.131048 2.54363 0
M  V30 3533 H 330.127 1.43899 3.11686 0
M  V30 3534 N 332.573 -1.56217 0.208337 0
M  V30 3535 C 333.813 -1.99849 -0.428927 0
M  V30 3536 C 334.177 -1.09262 -1.57879 0
M  V30 3537 O 335.378 -1.42185 -2.28116 0
M  V30 3538 C 333.649 -3.46777 -0.864879 0
M  V30 3539 S 335.208 -4.12434 -1.49811 0
M  V30 3540 H 332.026 -0.697742 -0.136665 0
M  V30 3541 H 334.628 -1.92953 0.314519 0
M  V30 3542 H 333.332 -4.10396 -0.0181326 0
M  V30 3543 H 332.863 -3.57518 -1.64147 0
M  V30 3544 H 334.878 -4.10532 -2.78707 0
M  V30 3545 N 334.051 0.0651679 -1.57465 0
M  V30 3546 C 335.299 0.761555 -1.87202 0
M  V30 3547 C 335.62 1.77778 -0.801243 0
M  V30 3548 O 334.89 1.95166 0.16937 0
M  V30 3549 H 333.47 0.284251 -0.690804 0
M  V30 3550 H 336.132 0.0396827 -1.9486 0
M  V30 3551 H 335.228 1.27365 -2.84929 0
M  V30 3552 N 335.529 1.53961 0.336706 0
M  V30 3553 C 336.777 1.71197 1.07405 0
M  V30 3554 C 337.098 0.481475 1.88962 0
M  V30 3555 O 336.368 -0.504585 1.8929 0
M  V30 3556 H 334.948 0.631185 0.399517 0
M  V30 3557 H 337.61 1.91232 0.376323 0
M  V30 3558 H 336.706 2.58587 1.74755 0
M  V30 3559 N 337.007 -0.598083 1.45811 0
M  V30 3560 C 337.939 -1.72231 1.51225 0
M  V30 3561 C 338.952 -1.57757 0.402059 0
M  V30 3562 O 340.141 -1.65464 0.669624 0
M  V30 3563 C 337.241 -3.10331 1.3619 0
M  V30 3564 C 336.414 -3.50955 2.61054 0
M  V30 3565 C 335.473 -4.68055 2.40439 0
M  V30 3566 O 334.499 -4.74691 3.14097 0
M  V30 3567 N 335.701 -5.61941 1.45612 0
M  V30 3568 H 338.466 -1.68046 2.48154 0
M  V30 3569 H 336.027 -0.783637 1.41671 0
M  V30 3570 H 338.019 -3.86439 1.20195 0
M  V30 3571 H 336.589 -3.0897 0.475015 0
M  V30 3572 H 335.809 -2.64711 2.92099 0
M  V30 3573 H 337.097 -3.74858 3.44034 0
M  V30 3574 H 336.495 -5.59301 0.848431 0
M  V30 3575 H 335.052 -6.37542 1.35585 0
M  V30 3576 N 338.485 -1.33259 -0.841409 0
M  V30 3577 C 339.433 -1.23279 -1.97244 0
M  V30 3578 C 340.427 -0.134706 -1.68864 0
M  V30 3579 O 341.633 -0.298501 -1.77508 0
M  V30 3580 H 338.008 -0.382497 -0.647457 0
M  V30 3581 H 339.979 -2.18906 -2.02787 0
M  V30 3582 C 338.728 -0.986268 -3.33419 0
M  V30 3583 H 338.051 -1.82347 -3.55794 0
M  V30 3584 H 339.491 -0.956728 -4.13065 0
M  V30 3585 C 337.95 0.310842 -3.35463 0
M  V30 3586 O 338.48 1.31838 -3.79449 0
M  V30 3587 N 336.686 0.337485 -2.88634 0
M  V30 3588 H 336.233 -0.482967 -2.53032 0
M  V30 3589 H 336.191 1.20518 -2.90384 0
M  V30 3590 N 339.963 1.05934 -1.16686 0
M  V30 3591 C 341.191 1.8249 -0.974929 0
M  V30 3592 C 341.606 1.82679 0.476861 0
M  V30 3593 O 340.963 1.2486 1.33103 0
M  V30 3594 C 341.014 3.28943 -1.49929 0
M  V30 3595 O 340.735 3.28886 -2.89423 0
M  V30 3596 C 342.236 4.22215 -1.35089 0
M  V30 3597 H 339.456 0.575295 -0.345365 0
M  V30 3598 H 342 1.33631 -1.548 0
M  V30 3599 H 340.155 3.751 -0.968423 0
M  V30 3600 H 340.569 4.20493 -3.13506 0
M  V30 3601 H 342.043 5.22987 -1.76603 0
M  V30 3602 H 342.52 4.38195 -0.296935 0
M  V30 3603 H 343.126 3.81907 -1.87155 0
M  V30 3604 N 341.441 0.965919 1.2453 0
M  V30 3605 C 342.687 0.62776 1.92839 0
M  V30 3606 C 343.02 -0.834694 1.75347 0
M  V30 3607 O 342.295 -1.60031 1.10546 0
M  V30 3608 C 342.578 1.00109 3.45905 0
M  V30 3609 C 342.431 2.52011 3.72573 0
M  V30 3610 C 343.75 0.53435 4.36844 0
M  V30 3611 H 340.869 0.229537 0.700344 0
M  V30 3612 H 343.511 1.2046 1.46933 0
M  V30 3613 H 341.661 0.510238 3.85135 0
M  V30 3614 H 343.333 3.08559 3.42912 0
M  V30 3615 H 341.576 2.95287 3.17786 0
M  V30 3616 H 342.247 2.73183 4.79661 0
M  V30 3617 H 344.723 0.955565 4.04979 0
M  V30 3618 H 343.599 0.824152 5.42678 0
M  V30 3619 H 343.86 -0.565589 4.38467 0
M  V30 3620 N 342.919 -1.39368 0.735821 0
M  V30 3621 C 344.33 -1.83313 0.354015 0
M  V30 3622 C 344.681 -1.61461 -1.11466 0
M  V30 3623 O 343.806 -1.10621 -1.85989 0
M  V30 3624 C 344.401 -3.32781 0.635769 0
M  V30 3625 C 342.96 -3.75142 0.307448 0
M  V30 3626 C 342.107 -2.62358 0.897974 0
M  V30 3627 H 345.058 -1.28349 0.933398 0
M  V30 3628 H 345.079 -3.80388 -0.0921773 0
M  V30 3629 H 344.591 -3.48654 1.70476 0
M  V30 3630 H 342.692 -3.64857 -0.755674 0
M  V30 3631 H 342.805 -4.72532 0.790583 0
M  V30 3632 H 341.169 -2.52624 0.324551 0
M  V30 3633 H 341.952 -2.81036 1.97164 0
M  V30 3634 N 344.397 -0.483516 -1.5 0
M  V30 3635 C 345.645 0.067027 -2.01989 0
M  V30 3636 C 345.966 1.3909 -1.36671 0
M  V30 3637 O 345.236 1.88978 -0.516152 0
M  V30 3638 H 343.816 0.0277606 -0.746484 0
M  V30 3639 H 346.478 -0.636773 -1.84204 0
M  V30 3640 H 345.574 0.209484 -3.11396 0
M  V30 3641 N 345.875 1.56104 -0.216619 0
M  V30 3642 C 347.121 1.98466 0.417033 0
M  V30 3643 C 347.454 1.10403 1.59765 0
M  V30 3644 O 346.729 0.160632 1.93836 0
M  V30 3645 C 347.012 3.49769 0.85637 0
M  V30 3646 C 346.865 4.48606 -0.327546 0
M  V30 3647 C 348.184 4.05339 1.7143 0
M  V30 3648 H 345.303 0.721551 0.150112 0
M  V30 3649 H 347.945 1.87423 -0.311864 0
M  V30 3650 H 346.095 3.5931 1.47745 0
M  V30 3651 H 347.767 4.5108 -0.965618 0
M  V30 3652 H 346.01 4.22682 -0.975805 0
M  V30 3653 H 346.681 5.51995 0.0227149 0
M  V30 3654 H 349.157 3.98712 1.19031 0
M  V30 3655 H 348.033 5.11533 1.99061 0
M  V30 3656 H 348.294 3.51918 2.67593 0
M  V30 3657 N 347.353 -0.0568162 1.57498 0
M  V30 3658 C 348.769 -0.411933 1.54192 0
M  V30 3659 C 348.969 -1.78287 0.938942 0
M  V30 3660 O 348.025 -2.46483 0.547919 0
M  V30 3661 C 349.338 -0.339244 2.9878 0
M  V30 3662 C 350.886 -0.418348 3.10192 0
M  V30 3663 C 351.361 -0.375407 4.56459 0
M  V30 3664 N 352.852 -0.435038 4.61153 0
M  V30 3665 C 353.587 -0.424265 5.71828 0
M  V30 3666 N 353.083 -0.367418 6.91825 0
M  V30 3667 N 354.876 -0.471938 5.60115 0
M  V30 3668 H 347.027 0.840684 1.95055 0
M  V30 3669 H 349.29 0.316987 0.893433 0
M  V30 3670 H 348.996 0.601742 3.46514 0
M  V30 3671 H 348.87 -1.14371 3.59443 0
M  V30 3672 H 351.257 -1.34976 2.62422 0
M  V30 3673 H 351.338 0.414962 2.52412 0
M  V30 3674 H 350.982 0.552219 5.04889 0
M  V30 3675 H 350.912 -1.22645 5.12119 0
M  V30 3676 H 353.403 -0.482612 3.74806 0
M  V30 3677 H 353.716 -0.363535 7.71944 0
M  V30 3678 H 352.061 -0.333879 6.94198 0
M  V30 3679 H 355.252 -0.514145 4.65268 0
M  V30 3680 H 355.425 -0.460073 6.46365 0
M  V30 3681 N 348.832 -1.54138 -0.328536 0
M  V30 3682 C 349.78 -1.83894 -1.42428 0
M  V30 3683 C 350.774 -0.710478 -1.53781 0
M  V30 3684 O 351.98 -0.894062 -1.56226 0
M  V30 3685 H 348.355 -0.582837 -0.475189 0
M  V30 3686 H 350.326 -2.75537 -1.14552 0
M  V30 3687 C 349.075 -2.07866 -2.78724 0
M  V30 3688 H 348.398 -2.94158 -2.7076 0
M  V30 3689 H 349.838 -2.32644 -3.54476 0
M  V30 3690 C 348.297 -0.868689 -3.25508 0
M  V30 3691 O 348.827 -0.0754908 -4.01629 0
M  V30 3692 N 347.033 -0.681711 -2.82491 0
M  V30 3693 H 346.58 -1.32838 -2.20708 0
M  V30 3694 H 346.538 0.126374 -3.14146 0
M  V30 3695 N 350.31 0.590341 -1.46126 0
M  V30 3696 C 351.54 1.37304 -1.54373 0
M  V30 3697 C 351.948 1.88332 -0.181071 0
M  V30 3698 O 351.291 1.63852 0.830559 0
M  V30 3699 C 351.353 2.6012 -2.48149 0
M  V30 3700 C 351.017 2.30613 -3.94546 0
M  V30 3701 C 352.014 1.89915 -4.83971 0
M  V30 3702 C 349.699 2.42993 -4.39613 0
M  V30 3703 C 351.693 1.61981 -6.16475 0
M  V30 3704 C 349.38 2.14672 -5.72153 0
M  V30 3705 C 350.378 1.7423 -6.60404 0
M  V30 3706 O 350.066 1.46251 -7.90485 0
M  V30 3707 H 349.798 0.426086 -0.524811 0
M  V30 3708 H 352.352 0.72539 -1.92165 0
M  V30 3709 H 350.582 3.27664 -2.05361 0
M  V30 3710 H 352.271 3.22182 -2.46887 0
M  V30 3711 H 353.037 1.79872 -4.50412 0
M  V30 3712 H 348.916 2.73435 -3.71153 0
M  V30 3713 H 352.46 1.30341 -6.85315 0
M  V30 3714 H 348.357 2.24337 -6.05263 0
M  V30 3715 H 349.125 1.6016 -8.02677 0
M  V30 3716 N 351.788 1.33704 0.83433 0
M  V30 3717 C 353.036 1.25169 1.58673 0
M  V30 3718 C 353.357 -0.18127 1.94156 0
M  V30 3719 O 352.627 -1.11113 1.6134 0
M  V30 3720 H 351.207 0.4603 0.58833 0
M  V30 3721 H 353.869 1.67478 0.996847 0
M  V30 3722 H 352.965 1.84856 2.51465 0
M  V30 3723 N 353.266 -1.05314 1.17247 0
M  V30 3724 C 354.513 -1.78293 0.960091 0
M  V30 3725 C 354.841 -1.87658 -0.51136 0
M  V30 3726 O 354.096 -1.3718 -1.39571 0
M  V30 3727 C 354.395 -3.2229 1.54479 0
M  V30 3728 C 354.061 -3.32987 3.04024 0
M  V30 3729 C 352.723 -3.35613 3.44844 0
M  V30 3730 C 355.075 -3.34102 4.00031 0
M  V30 3731 C 352.403 -3.36982 4.8027 0
M  V30 3732 C 354.755 -3.3701 5.35357 0
M  V30 3733 C 353.419 -3.37923 5.75642 0
M  V30 3734 H 352.689 -0.652422 0.351322 0
M  V30 3735 H 355.336 -1.23782 1.46117 0
M  V30 3736 H 353.641 -3.7972 0.965391 0
M  V30 3737 H 355.338 -3.77376 1.35603 0
M  V30 3738 H 351.928 -3.31655 2.71483 0
M  V30 3739 H 356.112 -3.31276 3.69554 0
M  V30 3740 H 351.368 -3.35999 5.10798 0
M  V30 3741 H 355.542 -3.36822 6.09528 0
M  V30 3742 H 353.169 -3.38738 6.80559 0
M  V30 3743 N 354.744 -0.972509 -1.24016 0
M  V30 3744 C 355.99 -0.647583 -1.92816 0
M  V30 3745 C 356.345 0.809015 -1.74564 0
M  V30 3746 O 355.638 1.57502 -1.09103 0
M  V30 3747 C 355.832 -0.963694 -3.44162 0
M  V30 3748 C 355.661 -2.44947 -3.77135 0
M  V30 3749 C 354.431 -3.11012 -3.98246 0
M  V30 3750 C 356.629 -3.42978 -3.83237 0
M  V30 3751 N 354.611 -4.49277 -4.18358 0
M  V30 3752 C 355.982 -4.66619 -4.08248 0
M  V30 3753 C 358.037 -3.37569 -3.65994 0
M  V30 3754 C 356.74 -5.85516 -4.17808 0
M  V30 3755 C 358.766 -4.55822 -3.76802 0
M  V30 3756 C 358.128 -5.78256 -4.02243 0
M  V30 3757 H 354.227 -0.287894 -0.727077 0
M  V30 3758 H 356.811 -1.24835 -1.49413 0
M  V30 3759 H 354.982 -0.391692 -3.8642 0
M  V30 3760 H 356.714 -0.596849 -4.00275 0
M  V30 3761 H 353.469 -2.61529 -3.94841 0
M  V30 3762 H 353.893 -5.20935 -4.32384 0
M  V30 3763 H 358.535 -2.43945 -3.45327 0
M  V30 3764 H 356.253 -6.79564 -4.37285 0
M  V30 3765 H 359.839 -4.53204 -3.64825 0
M  V30 3766 H 358.719 -6.68231 -4.10411 0
M  V30 3767 N 356.222 1.38976 -0.743202 0
M  V30 3768 C 357.499 1.94351 -0.220705 0
M  V30 3769 C 357.879 1.67935 1.2791 0
M  V30 3770 O 357.227 1.01211 2.04862 0
M  V30 3771 C 357.437 3.44426 -0.563171 0
M  V30 3772 C 358.785 4.2144 -0.517046 0
M  V30 3773 O 359.809 3.52661 -0.500846 0
M  V30 3774 O 358.668 5.44032 -0.518806 0
M  V30 3775 H 355.762 0.825879 -0.043047 0
M  V30 3776 H 358.308 1.48429 -0.822618 0
M  V30 3777 H 357.08 3.5712 -1.59941 0
M  V30 3778 H 356.703 3.97543 0.0672883 0
M  V30 3779 N 357.7 0.491464 1.49741 0
M  V30 3780 C 358.647 -0.292027 2.28945 0
M  V30 3781 C 359.617 -0.968973 1.34908 0
M  V30 3782 O 360.802 -0.97748 1.6386 0
M  V30 3783 C 357.942 -1.35617 3.17336 0
M  V30 3784 C 357.055 -0.691957 4.26422 0
M  V30 3785 C 356.19 -1.73572 5.02042 0
M  V30 3786 C 355.229 -1.05286 6.02977 0
M  V30 3787 N 354.366 -2.0404 6.71798 0
M  V30 3788 H 359.206 0.389654 2.95442 0
M  V30 3789 H 356.743 0.204003 1.45679 0
M  V30 3790 H 358.701 -1.98502 3.66951 0
M  V30 3791 H 357.331 -2.00674 2.52844 0
M  V30 3792 H 356.383 0.0499523 3.80367 0
M  V30 3793 H 357.695 -0.153946 4.98562 0
M  V30 3794 H 356.849 -2.43987 5.55478 0
M  V30 3795 H 355.588 -2.30757 4.29654 0
M  V30 3796 H 354.593 -0.334446 5.48782 0
M  V30 3797 H 355.818 -0.487636 6.77347 0
M  V30 3798 H 353.764 -2.60205 6.02187 0
M  V30 3799 H 353.681 -1.55279 7.39881 0
M  V30 3800 H 354.949 -2.73772 7.29842 0
M  V30 3801 N 359.178 -1.55987 0.224894 0
M  V30 3802 C 360.455 -1.90232 -0.455083 0
M  V30 3803 C 360.835 -1.14269 -1.77499 0
M  V30 3804 O 360.183 -0.253079 -2.27094 0
M  V30 3805 C 360.393 -3.42993 -0.644758 0
M  V30 3806 C 361.741 -4.13821 -0.950669 0
M  V30 3807 O 362.765 -3.4861 -0.731423 0
M  V30 3808 O 361.624 -5.29128 -1.36695 0
M  V30 3809 H 358.718 -0.79108 -0.241084 0
M  V30 3810 H 361.264 -1.67581 0.267327 0
M  V30 3811 H 360.036 -3.90252 0.28613 0
M  V30 3812 H 359.659 -3.71434 -1.41853 0
M  V30 3813 N 360.656 0.0484629 -1.57525 0
M  V30 3814 C 361.603 1.05504 -2.05275 0
M  V30 3815 C 362.573 1.37084 -0.937927 0
M  V30 3816 O 363.758 1.47754 -1.2072 0
M  V30 3817 C 360.898 2.35676 -2.52093 0
M  V30 3818 C 360.011 2.10423 -3.77288 0
M  V30 3819 C 359.146 3.34327 -4.12794 0
M  V30 3820 C 358.185 3.04542 -5.30962 0
M  V30 3821 N 357.322 4.20841 -5.61994 0
M  V30 3822 H 362.162 0.640885 -2.91027 0
M  V30 3823 H 359.699 0.304854 -1.43906 0
M  V30 3824 H 361.657 3.11709 -2.77297 0
M  V30 3825 H 360.287 2.7485 -1.69285 0
M  V30 3826 H 359.339 1.24976 -3.59284 0
M  V30 3827 H 360.651 1.84438 -4.63448 0
M  V30 3828 H 359.805 4.1874 -4.39024 0
M  V30 3829 H 358.544 3.63408 -3.25247 0
M  V30 3830 H 357.549 2.18528 -5.04505 0
M  V30 3831 H 358.774 2.76758 -6.20146 0
M  V30 3832 H 356.72 4.4991 -4.77406 0
M  V30 3833 H 356.637 3.98212 -6.42622 0
M  V30 3834 H 357.905 5.06184 -5.92789 0
M  V30 3835 N 362.134 1.5431 0.320358 0
M  V30 3836 C 363.359 1.76954 1.08175 0
M  V30 3837 C 363.784 0.518193 1.80821 0
M  V30 3838 O 363.142 -0.530411 1.73368 0
M  V30 3839 C 363.19 2.96451 2.05303 0
M  V30 3840 O 362.294 2.68221 3.13259 0
M  V30 3841 H 361.635 0.586275 0.311733 0
M  V30 3842 H 364.165 2.01342 0.363676 0
M  V30 3843 H 364.175 3.23887 2.48116 0
M  V30 3844 H 362.85 3.87196 1.51829 0
M  V30 3845 H 361.427 2.51744 2.75099 0
M  V30 3846 N 363.613 -0.582584 1.46437 0
M  V30 3847 C 365.029 -0.905962 1.31394 0
M  V30 3848 C 365.229 -1.99468 0.285476 0
M  V30 3849 O 364.285 -2.50566 -0.311914 0
M  V30 3850 C 365.598 -1.3232 2.70022 0
M  V30 3851 C 367.146 -1.43604 2.78113 0
M  V30 3852 C 367.621 -1.88694 4.17323 0
M  V30 3853 N 369.112 -1.95887 4.19741 0
M  V30 3854 C 369.847 -2.32051 5.24347 0
M  V30 3855 N 369.343 -2.67006 6.39281 0
M  V30 3856 N 371.136 -2.32606 5.11713 0
M  V30 3857 H 363.287 0.1366 2.1196 0
M  V30 3858 H 365.55 -0.00155736 0.947999 0
M  V30 3859 H 365.256 -0.597242 3.46592 0
M  V30 3860 H 365.13 -2.28469 3.00136 0
M  V30 3861 H 367.517 -2.15286 2.01832 0
M  V30 3862 H 367.598 -0.457059 2.51684 0
M  V30 3863 H 367.242 -1.1759 4.941 0
M  V30 3864 H 367.172 -2.8755 4.4116 0
M  V30 3865 H 369.663 -1.71362 3.36814 0
M  V30 3866 H 369.976 -2.93554 7.14875 0
M  V30 3867 H 368.321 -2.64644 6.42642 0
M  V30 3868 H 371.512 -2.04721 4.2096 0
M  V30 3869 H 371.685 -2.60462 5.93349 0
M  V30 3870 N 365.091 -1.34144 -0.827227 0
M  V30 3871 C 366.321 -1.29138 -1.61267 0
M  V30 3872 C 366.729 0.137597 -1.88699 0
M  V30 3873 O 366.072 1.09379 -1.47587 0
M  V30 3874 C 366.134 -2.0097 -2.9808 0
M  V30 3875 C 365.798 -3.50242 -2.93563 0
M  V30 3876 C 366.795 -4.4523 -2.68452 0
M  V30 3877 C 364.48 -3.92592 -3.13331 0
M  V30 3878 C 366.474 -5.80542 -2.63154 0
M  V30 3879 C 364.161 -5.28005 -3.07658 0
M  V30 3880 C 365.159 -6.21792 -2.82602 0
M  V30 3881 O 364.847 -7.54723 -2.76853 0
M  V30 3882 H 364.579 -0.445851 -0.508127 0
M  V30 3883 H 367.133 -1.77263 -1.03763 0
M  V30 3884 H 365.363 -1.47451 -3.57484 0
M  V30 3885 H 367.052 -1.89309 -3.5905 0
M  V30 3886 H 367.818 -4.13832 -2.52919 0
M  V30 3887 H 363.697 -3.19994 -3.31851 0
M  V30 3888 H 367.241 -6.53717 -2.43516 0
M  V30 3889 H 363.138 -5.59023 -3.22743 0
M  V30 3890 H 363.906 -7.64409 -2.92611 0
M  V30 3891 N 366.569 1.04691 -1.17803 0
M  V30 3892 C 367.846 1.7472 -0.879328 0
M  V30 3893 C 368.226 2.01812 0.619271 0
M  V30 3894 O 367.574 1.65824 1.57209 0
M  V30 3895 C 367.784 3.03686 -1.71976 0
M  V30 3896 C 369.132 3.77542 -1.94286 0
M  V30 3897 O 370.156 3.13569 -1.68976 0
M  V30 3898 O 369.015 4.92506 -2.36855 0
M  V30 3899 H 366.109 0.760011 -0.326056 0
M  V30 3900 H 368.655 1.10813 -1.28525 0
M  V30 3901 H 367.427 2.79754 -2.73594 0
M  V30 3902 H 367.05 3.75332 -1.31194 0
M  V30 3903 N 368.047 0.979072 1.23499 0
M  V30 3904 C 369.293 0.648178 1.92163 0
M  V30 3905 C 369.626 -0.816049 1.76222 0
M  V30 3906 O 368.901 -1.58849 1.12237 0
M  V30 3907 C 369.184 1.03773 3.44824 0
M  V30 3908 C 369.037 2.55948 3.69879 0
M  V30 3909 C 370.356 0.580653 4.36253 0
M  V30 3910 H 367.475 0.236952 0.69787 0
M  V30 3911 H 370.117 1.22012 1.45647 0
M  V30 3912 H 368.267 0.551058 3.84572 0
M  V30 3913 H 369.939 3.12179 3.3962 0
M  V30 3914 H 368.182 2.98641 3.14636 0
M  V30 3915 H 368.853 2.78255 4.76737 0
M  V30 3916 H 371.329 0.998465 4.03943 0
M  V30 3917 H 370.205 0.881663 5.41773 0
M  V30 3918 H 370.466 -0.519052 4.39042 0
M  V30 3919 N 369.525 -1.3858 0.750561 0
M  V30 3920 C 370.772 -2.00184 0.305373 0
M  V30 3921 C 371.1 -1.59575 -1.11203 0
M  V30 3922 O 370.355 -0.823236 -1.77542 0
M  V30 3923 C 370.654 -3.55455 0.372373 0
M  V30 3924 C 370.32 -4.15765 1.745 0
M  V30 3925 C 368.982 -4.31951 2.12065 0
M  V30 3926 C 371.334 -4.49067 2.64553 0
M  V30 3927 C 368.662 -4.78734 3.39162 0
M  V30 3928 C 371.014 -4.97265 3.91038 0
M  V30 3929 C 369.678 -5.11658 4.28676 0
M  V30 3930 H 368.948 -0.732526 0.111744 0
M  V30 3931 H 371.595 -1.65673 0.960451 0
M  V30 3932 H 369.9 -3.90084 -0.366272 0
M  V30 3933 H 371.597 -4.00999 0.00953918 0
M  V30 3934 H 368.187 -4.03579 1.44297 0
M  V30 3935 H 372.371 -4.36166 2.36796 0
M  V30 3936 H 367.627 -4.88062 3.68246 0
M  V30 3937 H 371.801 -5.22003 4.60962 0
M  V30 3938 H 369.428 -5.47668 5.27222 0
M  V30 3939 N 371.003 -0.499398 -1.49478 0
M  V30 3940 C 372.243 0.0440751 -2.04352 0
M  V30 3941 C 372.607 1.34423 -1.37093 0
M  V30 3942 O 373.808 1.97184 -1.82679 0
M  V30 3943 C 372.079 0.194918 -3.56868 0
M  V30 3944 S 373.638 0.69287 -4.33295 0
M  V30 3945 H 370.456 0.00253458 -0.710995 0
M  V30 3946 H 373.058 -0.673 -1.83551 0
M  V30 3947 H 371.762 -0.756672 -4.03364 0
M  V30 3948 H 371.293 0.93728 -3.82071 0
M  V30 3949 H 373.308 1.96226 -4.55752 0
M  V30 3950 N 372.481 1.55866 -0.233164 0
M  V30 3951 C 373.728 1.98603 0.395374 0
M  V30 3952 C 374.056 1.12105 1.58942 0
M  V30 3953 O 373.311 0.168656 1.94972 0
M  V30 3954 C 373.61 3.46856 0.861724 0
M  V30 3955 C 373.276 4.50348 -0.223066 0
M  V30 3956 C 371.938 4.78371 -0.521038 0
M  V30 3957 C 374.29 5.12355 -0.956124 0
M  V30 3958 C 371.618 5.6568 -1.55638 0
M  V30 3959 C 373.97 6.00786 -1.98089 0
M  V30 3960 C 372.634 6.27148 -2.28565 0
M  V30 3961 H 371.904 0.726739 0.144677 0
M  V30 3962 H 374.551 1.88491 -0.338114 0
M  V30 3963 H 372.856 3.5423 1.67418 0
M  V30 3964 H 374.553 3.77302 1.35809 0
M  V30 3965 H 371.143 4.28596 0.0193234 0
M  V30 3966 H 375.327 4.90765 -0.739166 0
M  V30 3967 H 370.583 5.84365 -1.798 0
M  V30 3968 H 374.757 6.4788 -2.55391 0
M  V30 3969 H 372.384 6.94597 -3.08932 0
M  V30 3970 N 373.959 -0.0401083 1.57549 0
M  V30 3971 C 375.187 -0.745196 1.93014 0
M  V30 3972 C 375.602 -1.6948 0.831984 0
M  V30 3973 O 374.959 -1.81482 -0.192463 0
M  V30 3974 C 375.01 -1.51176 3.28372 0
M  V30 3975 O 374.731 -0.600284 4.33968 0
M  V30 3976 C 376.232 -2.315 3.78051 0
M  V30 3977 H 373.452 -0.210088 0.637263 0
M  V30 3978 H 375.996 -0.000924689 2.045 0
M  V30 3979 H 374.151 -2.20801 3.18317 0
M  V30 3980 H 374.565 -1.13669 5.12035 0
M  V30 3981 H 376.039 -2.80697 4.75303 0
M  V30 3982 H 376.516 -3.12436 3.08675 0
M  V30 3983 H 377.122 -1.66971 3.91153 0
M  V30 3984 N 375.437 -1.54477 -0.31217 0
M  V30 3985 C 376.662 -1.77526 -1.07235 0
M  V30 3986 C 377.087 -0.527775 -1.80544 0
M  V30 3987 O 376.445 0.52121 -1.73646 0
M  V30 3988 C 376.493 -2.97535 -2.03728 0
M  V30 3989 O 375.597 -2.69878 -3.11833 0
M  V30 3990 H 374.938 -0.58792 -0.30862 0
M  V30 3991 H 377.468 -2.01532 -0.352993 0
M  V30 3992 H 377.478 -3.25198 -2.46395 0
M  V30 3993 H 376.153 -3.87996 -1.49774 0
M  V30 3994 H 374.73 -2.53199 -2.7376 0
M  V30 3995 N 376.915 0.57481 -1.46744 0
M  V30 3996 C 377.863 1.70435 -1.58286 0
M  V30 3997 C 378.857 1.63287 -0.450956 0
M  V30 3998 O 380.063 1.68685 -0.628121 0
M  V30 3999 H 376.438 0.56364 -0.497809 0
M  V30 4000 H 378.409 1.57833 -2.53242 0
M  V30 4001 C 377.158 3.08815 -1.59776 0
M  V30 4002 H 376.481 3.1499 -2.46214 0
M  V30 4003 H 377.921 3.87588 -1.71905 0
M  V30 4004 C 376.38 3.35301 -0.327812 0
M  V30 4005 O 376.91 3.97511 0.57861 0
M  V30 4006 N 375.116 2.89816 -0.213274 0
M  V30 4007 H 374.663 2.39371 -0.951798 0
M  V30 4008 H 374.621 3.0791 0.63553 0
M  V30 4009 N 378.394 1.34581 0.820102 0
M  V30 4010 C 379.641 1.27096 1.57648 0
M  V30 4011 C 379.969 -0.158317 1.93855 0
M  V30 4012 O 379.224 -1.12028 1.60463 0
M  V30 4013 C 379.523 2.10997 2.8847 0
M  V30 4014 C 379.189 3.59966 2.71543 0
M  V30 4015 C 377.851 4.00575 2.66634 0
M  V30 4016 C 380.203 4.54548 2.55021 0
M  V30 4017 C 377.531 5.33953 2.43128 0
M  V30 4018 C 379.883 5.88109 2.33047 0
M  V30 4019 C 378.547 6.27878 2.26552 0
M  V30 4020 H 377.817 0.465078 0.576874 0
M  V30 4021 H 380.464 1.6635 0.948671 0
M  V30 4022 H 378.769 1.6458 3.55557 0
M  V30 4023 H 380.466 2.0255 3.46084 0
M  V30 4024 H 377.056 3.27733 2.76205 0
M  V30 4025 H 381.24 4.24069 2.57835 0
M  V30 4026 H 376.496 5.63781 2.3656 0
M  V30 4027 H 380.67 6.60985 2.19251 0
M  V30 4028 H 378.297 7.31162 2.081 0
M  V30 4029 N 379.872 -1.04064 1.18357 0
M  V30 4030 C 380.82 -2.14187 0.907007 0
M  V30 4031 C 381.814 -1.68879 -0.132725 0
M  V30 4032 O 383.02 -1.79993 0.0154248 0
M  V30 4033 H 379.395 -0.699585 0.275835 0
M  V30 4034 H 381.366 -2.34711 1.84264 0
M  V30 4035 C 380.115 -3.44785 0.449254 0
M  V30 4036 H 379.438 -3.80058 1.24081 0
M  V30 4037 H 380.878 -4.22974 0.294737 0
M  V30 4038 C 379.337 -3.26391 -0.834909 0
M  V30 4039 O 379.867 -3.53973 -1.89911 0
M  V30 4040 N 378.073 -2.79726 -0.787523 0
M  V30 4041 H 377.62 -2.5748 0.0787347 0
M  V30 4042 H 377.578 -2.67798 -1.64716 0
M  V30 4043 N 381.35 -0.985608 -1.22978 0
M  V30 4044 C 382.598 -0.656087 -1.91154 0
M  V30 4045 C 382.919 0.813561 -1.77218 0
M  V30 4046 O 382.189 1.58244 -1.1548 0
M  V30 4047 H 380.769 -0.239674 -0.707506 0
M  V30 4048 H 383.431 -1.25054 -1.49491 0
M  V30 4049 H 382.527 -0.912253 -2.9847 0
M  V30 4050 N 382.828 1.3818 -0.7579 0
M  V30 4051 C 384.244 1.5353 -0.435972 0
M  V30 4052 C 384.444 1.71961 1.05032 0
M  V30 4053 O 383.5 1.73307 1.83633 0
M  V30 4054 C 384.813 2.73989 -1.23898 0
M  V30 4055 C 386.361 2.87841 -1.22949 0
M  V30 4056 C 386.836 4.11266 -2.01554 0
M  V30 4057 N 388.327 4.18352 -1.98837 0
M  V30 4058 C 389.062 5.12856 -2.5645 0
M  V30 4059 N 388.558 6.13005 -3.22794 0
M  V30 4060 N 390.351 5.05238 -2.46356 0
M  V30 4061 H 382.502 1.24467 -1.7211 0
M  V30 4062 H 384.765 0.604982 -0.729864 0
M  V30 4063 H 384.471 2.66789 -2.29165 0
M  V30 4064 H 384.345 3.67294 -0.858764 0
M  V30 4065 H 386.732 2.9452 -0.184854 0
M  V30 4066 H 386.813 1.95534 -1.64924 0
M  V30 4067 H 386.457 4.05349 -3.06031 0
M  V30 4068 H 386.387 5.02661 -1.5697 0
M  V30 4069 H 388.878 3.46628 -1.50524 0
M  V30 4070 H 389.191 6.81619 -3.64165 0
M  V30 4071 H 387.536 6.13325 -3.2689 0
M  V30 4072 H 390.727 4.25938 -1.9415 0
M  V30 4073 H 390.9 5.78707 -2.91552 0
M  V30 4074 N 384.306 0.507319 1.49211 0
M  V30 4075 C 385.553 -0.0349529 2.0247 0
M  V30 4076 C 385.881 -1.36409 1.38647 0
M  V30 4077 O 385.136 -1.88841 0.513566 0
M  V30 4078 C 385.435 -0.229513 3.56662 0
M  V30 4079 C 385.101 1.02241 4.39156 0
M  V30 4080 C 383.763 1.36557 4.61417 0
M  V30 4081 C 386.115 1.85428 4.871 0
M  V30 4082 C 383.443 2.53999 5.28868 0
M  V30 4083 C 385.795 3.02028 5.55843 0
M  V30 4084 C 384.459 3.36717 5.76349 0
M  V30 4085 H 383.729 -0.0127902 0.74089 0
M  V30 4086 H 386.376 0.668756 1.79443 0
M  V30 4087 H 384.681 -1.0158 3.78403 0
M  V30 4088 H 386.378 -0.663641 3.9547 0
M  V30 4089 H 382.968 0.745124 4.22073 0
M  V30 4090 H 387.152 1.6023 4.69723 0
M  V30 4091 H 382.408 2.81105 5.42946 0
M  V30 4092 H 386.582 3.66808 5.91967 0
M  V30 4093 H 384.209 4.27821 6.28389 0
M  V30 4094 N 385.784 -1.5574 0.241426 0
M  V30 4095 C 387.014 -2.02913 -0.38857 0
M  V30 4096 C 387.422 -1.12014 -1.52478 0
M  V30 4097 O 386.765 -0.125903 -1.83268 0
M  V30 4098 C 386.827 -3.4636 -0.963075 0
M  V30 4099 C 386.491 -4.56982 0.0401916 0
M  V30 4100 C 387.488 -5.12941 0.847766 0
M  V30 4101 C 385.173 -5.0203 0.164699 0
M  V30 4102 C 387.167 -6.12437 1.76636 0
M  V30 4103 C 384.854 -6.01358 1.0868 0
M  V30 4104 C 385.852 -6.5644 1.88616 0
M  V30 4105 O 385.54 -7.53831 2.79273 0
M  V30 4106 H 385.272 -0.668983 -0.0971452 0
M  V30 4107 H 387.826 -2.02198 0.361248 0
M  V30 4108 H 386.056 -3.44206 -1.76235 0
M  V30 4109 H 387.745 -3.77065 -1.50257 0
M  V30 4110 H 388.511 -4.78974 0.762133 0
M  V30 4111 H 384.39 -4.58824 -0.447411 0
M  V30 4112 H 387.934 -6.55355 2.39071 0
M  V30 4113 H 383.831 -6.34746 1.17338 0
M  V30 4114 H 384.599 -7.71428 2.73572 0
M  V30 4115 N 387.262 0.0317525 -1.57568 0
M  V30 4116 C 388.492 0.733884 -1.93126 0
M  V30 4117 C 388.9 1.69563 -0.839352 0
M  V30 4118 O 388.243 1.82681 0.193175 0
M  V30 4119 C 388.305 1.54798 -3.24465 0
M  V30 4120 C 387.969 0.751304 -4.50782 0
M  V30 4121 C 388.966 0.0527632 -5.19873 0
M  V30 4122 C 386.651 0.706639 -4.97305 0
M  V30 4123 C 388.645 -0.679774 -6.33765 0
M  V30 4124 C 386.332 -0.0296449 -6.11093 0
M  V30 4125 C 387.33 -0.721614 -6.79177 0
M  V30 4126 O 387.018 -1.44595 -7.90789 0
M  V30 4127 H 386.75 0.211459 -0.642076 0
M  V30 4128 H 389.304 -0.00585615 -2.05399 0
M  V30 4129 H 387.534 2.33147 -3.08512 0
M  V30 4130 H 389.223 2.13247 -3.4537 0
M  V30 4131 H 389.989 0.0783188 -4.84937 0
M  V30 4132 H 385.868 1.23474 -4.44157 0
M  V30 4133 H 389.412 -1.22042 -6.86842 0
M  V30 4134 H 385.309 -0.0571331 -6.45475 0
M  V30 4135 H 386.077 -1.35935 -8.07133 0
M  V30 4136 N 388.74 1.54641 0.303973 0
M  V30 4137 C 389.67 1.88386 1.3796 0
M  V30 4138 C 390.651 0.742485 1.5304 0
M  V30 4139 O 391.836 0.997959 1.66597 0
M  V30 4140 C 388.966 2.12854 2.74427 0
M  V30 4141 C 387.92 3.28702 2.74115 0
M  V30 4142 C 387.246 3.38582 4.13844 0
M  V30 4143 C 388.546 4.65881 2.3612 0
M  V30 4144 H 390.24 2.78474 1.09966 0
M  V30 4145 H 387.786 1.33988 0.527556 0
M  V30 4146 H 389.739 2.35047 3.49758 0
M  V30 4147 H 388.463 1.19535 3.03939 0
M  V30 4148 H 387.122 3.06428 2.0124 0
M  V30 4149 H 386.77 2.42784 4.40528 0
M  V30 4150 H 386.47 4.16453 4.14537 0
M  V30 4151 H 387.994 3.63031 4.90959 0
M  V30 4152 H 389.408 4.87823 3.01167 0
M  V30 4153 H 387.805 5.46444 2.48031 0
M  V30 4154 H 388.875 4.66799 1.3125 0
M  V30 4155 N 390.218 -0.567019 1.47046 0
M  V30 4156 C 391.467 -1.32091 1.5243 0
M  V30 4157 C 391.78 -1.94704 0.187021 0
M  V30 4158 O 392.986 -2.7124 0.118771 0
M  V30 4159 C 391.442 -2.39479 2.68659 0
M  V30 4160 C 391.05 -1.831 4.08874 0
M  V30 4161 C 392.794 -3.16111 2.83327 0
M  V30 4162 C 390.701 -2.8821 5.16419 0
M  V30 4163 H 389.631 -0.496629 0.56734 0
M  V30 4164 H 392.282 -0.603354 1.73297 0
M  V30 4165 H 390.664 -3.14105 2.41152 0
M  V30 4166 H 391.838 -1.14913 4.46242 0
M  V30 4167 H 390.153 -1.19085 3.99008 0
M  V30 4168 H 392.75 -3.94585 3.60842 0
M  V30 4169 H 393.093 -3.69686 1.91411 0
M  V30 4170 H 393.626 -2.48595 3.10556 0
M  V30 4171 H 390.365 -2.39504 6.10179 0
M  V30 4172 H 389.885 -3.54839 4.8358 0
M  V30 4173 H 391.564 -3.51881 5.42945 0
M  V30 4174 N 391.696 -1.35014 -0.812953 0
M  V30 4175 C 392.646 -1.23959 -1.91359 0
M  V30 4176 C 393.63 -0.136306 -1.60322 0
M  V30 4177 O 394.822 -0.366925 -1.73155 0
M  V30 4178 C 391.951 -1.00736 -3.28188 0
M  V30 4179 C 391.037 -2.15426 -3.65311 0
M  V30 4180 N 391.428 -3.40612 -3.73921 0
M  V30 4181 C 389.726 -2.06672 -3.95225 0
M  V30 4182 C 390.427 -4.15994 -4.06601 0
M  V30 4183 N 389.403 -3.44685 -4.20349 0
M  V30 4184 H 393.205 -2.18815 -1.96208 0
M  V30 4185 H 390.719 -1.27395 -1.00718 0
M  V30 4186 H 392.716 -0.909052 -4.06868 0
M  V30 4187 H 391.376 -0.067586 -3.2463 0
M  V30 4188 H 392.387 -3.75043 -3.5716 0
M  V30 4189 H 389.064 -1.20511 -3.99729 0
M  V30 4190 H 390.454 -5.24145 -4.20382 0
M  V30 4191 N 393.175 1.03435 -1.18907 0
M  V30 4192 C 394.586 1.58195 -0.991523 0
M  V30 4193 C 394.937 1.90801 0.457081 0
M  V30 4194 O 394.062 1.70272 1.33553 0
M  V30 4195 C 394.657 2.87432 -1.79355 0
M  V30 4196 C 393.216 3.38785 -1.64017 0
M  V30 4197 C 392.363 2.12292 -1.78402 0
M  V30 4198 H 395.314 0.860299 -1.33359 0
M  V30 4199 H 395.335 3.58096 -1.28638 0
M  V30 4200 H 394.847 2.63669 -2.84781 0
M  V30 4201 H 392.948 3.67547 -0.611536 0
M  V30 4202 H 393.061 4.12186 -2.44212 0
M  V30 4203 H 391.425 2.23901 -1.2141 0
M  V30 4204 H 392.208 1.90977 -2.85277 0
M  V30 4205 N 394.653 0.992116 1.22453 0
M  V30 4206 C 395.881 0.685944 1.95198 0
M  V30 4207 C 396.296 -0.749233 1.73297 0
M  V30 4208 O 395.653 -1.50549 1.03156 0
M  V30 4209 C 395.704 0.981395 3.47924 0
M  V30 4210 O 395.425 2.36018 3.6909 0
M  V30 4211 C 396.926 0.692815 4.37853 0
M  V30 4212 H 394.146 0.253821 0.621141 0
M  V30 4213 H 396.69 1.32668 1.55626 0
M  V30 4214 H 394.845 0.386481 3.85467 0
M  V30 4215 H 395.259 2.45884 4.63294 0
M  V30 4216 H 396.733 0.949818 5.43767 0
M  V30 4217 H 397.21 -0.373181 4.37612 0
M  V30 4218 H 397.816 1.26874 4.05935 0
M  V30 4219 N 396.131 -1.37776 0.765217 0
M  V30 4220 C 397.078 -2.30342 0.145274 0
M  V30 4221 C 398.048 -1.5077 -0.696971 0
M  V30 4222 O 399.233 -1.79362 -0.650689 0
M  V30 4223 C 396.373 -3.37227 -0.732939 0
M  V30 4224 C 395.486 -4.31819 0.125199 0
M  V30 4225 C 394.621 -5.25777 -0.757107 0
M  V30 4226 C 393.66 -6.12012 0.103963 0
M  V30 4227 N 392.797 -6.98232 -0.735953 0
M  V30 4228 H 397.637 -2.8278 0.940195 0
M  V30 4229 H 395.174 -1.39211 0.475255 0
M  V30 4230 H 397.132 -3.97818 -1.25686 0
M  V30 4231 H 395.762 -2.86171 -1.49353 0
M  V30 4232 H 394.814 -3.7259 0.766865 0
M  V30 4233 H 396.126 -4.92509 0.789683 0
M  V30 4234 H 395.28 -5.91541 -1.34776 0
M  V30 4235 H 394.019 -4.65481 -1.45529 0
M  V30 4236 H 393.024 -5.45233 0.707197 0
M  V30 4237 H 394.249 -6.74379 0.799381 0
M  V30 4238 H 392.195 -6.40472 -1.41887 0
M  V30 4239 H 392.112 -7.55891 -0.128624 0
M  V30 4240 H 393.38 -7.68393 -1.31121 0
M  V30 4241 N 397.609 -0.515225 -1.4894 0
M  V30 4242 C 398.539 0.244628 -2.32215 0
M  V30 4243 C 399.52 0.949136 -1.41157 0
M  V30 4244 O 400.705 0.937783 -1.70057 0
M  V30 4245 C 397.835 1.30096 -3.22013 0
M  V30 4246 C 396.789 0.715486 -4.21977 0
M  V30 4247 C 396.115 1.87339 -5.00808 0
M  V30 4248 C 397.415 -0.302982 -5.2142 0
M  V30 4249 H 399.109 -0.450501 -2.95991 0
M  V30 4250 H 396.655 -0.218098 -1.42339 0
M  V30 4251 H 398.608 1.84037 -3.79089 0
M  V30 4252 H 397.332 2.02547 -2.56207 0
M  V30 4253 H 395.991 0.197715 -3.66066 0
M  V30 4254 H 395.639 2.58592 -4.31438 0
M  V30 4255 H 395.339 1.48764 -5.68457 0
M  V30 4256 H 396.863 2.41686 -5.60732 0
M  V30 4257 H 398.277 0.148802 -5.73107 0
M  V30 4258 H 396.674 -0.60532 -5.97039 0
M  V30 4259 H 397.744 -1.21395 -4.69459 0
M  V30 4260 N 399.087 1.5561 -0.249682 0
M  V30 4261 C 400.315 2.03411 0.378352 0
M  V30 4262 C 400.73 1.12886 1.51335 0
M  V30 4263 O 400.087 0.143833 1.81932 0
M  V30 4264 C 400.138 3.50537 0.88351 0
M  V30 4265 O 399.859 4.37614 -0.20626 0
M  V30 4266 C 401.36 4.14113 1.58195 0
M  V30 4267 H 398.58 0.664994 0.08958 0
M  V30 4268 H 401.124 2.01044 -0.374357 0
M  V30 4269 H 399.279 3.5343 1.58639 0
M  V30 4270 H 399.693 5.24199 0.177782 0
M  V30 4271 H 401.167 5.18741 1.8871 0
M  V30 4272 H 401.644 3.60767 2.50487 0
M  V30 4273 H 402.25 4.15151 0.923573 0
M  V30 4274 N 400.565 -0.0233959 1.57583 0
M  V30 4275 C 401.795 -0.723631 1.93513 0
M  V30 4276 C 402.203 -1.69115 0.848333 0
M  V30 4277 O 401.546 -1.82781 -0.183484 0
M  V30 4278 C 401.608 -1.53075 3.25282 0
M  V30 4279 C 401.272 -0.727388 4.51174 0
M  V30 4280 C 402.269 -0.0251924 5.19894 0
M  V30 4281 C 399.954 -0.680256 4.97672 0
M  V30 4282 C 401.948 0.713374 6.33395 0
M  V30 4283 C 399.635 0.0620523 6.11068 0
M  V30 4284 C 400.633 0.757622 6.78785 0
M  V30 4285 O 400.321 1.48787 7.90011 0
M  V30 4286 H 400.053 -0.208051 0.643188 0
M  V30 4287 H 402.607 0.0167489 2.05393 0
M  V30 4288 H 400.837 -2.31508 3.09744 0
M  V30 4289 H 402.526 -2.11413 3.46496 0
M  V30 4290 H 403.292 -0.0526003 4.84971 0
M  V30 4291 H 399.171 -1.21116 4.44805 0
M  V30 4292 H 402.715 1.25683 6.86185 0
M  V30 4293 H 398.612 0.0913634 6.45435 0
M  V30 4294 H 399.38 1.40213 8.06401 0
M  V30 4295 N 402.043 -1.548 -0.295768 0
M  V30 4296 C 403.32 -1.65014 -1.05023 0
M  V30 4297 C 403.7 -0.501805 -2.05049 0
M  V30 4298 O 403.048 0.500869 -2.22943 0
M  V30 4299 C 403.258 -3.03252 -1.72741 0
M  V30 4300 C 404.606 -3.60242 -2.24746 0
M  V30 4301 O 405.63 -3.05737 -1.82765 0
M  V30 4302 O 404.489 -4.55687 -3.01681 0
M  V30 4303 H 401.583 -0.669314 -0.485744 0
M  V30 4304 H 404.129 -1.67144 -0.293438 0
M  V30 4305 H 402.901 -3.7827 -1.00138 0
M  V30 4306 H 402.524 -3.04922 -2.55163 0
M  V30 4307 N 403.521 0.559213 -1.47345 0
M  V30 4308 C 404.431 1.69388 -1.62311 0
M  V30 4309 C 405.447 1.6648 -0.505993 0
M  V30 4310 O 406.623 1.85964 -0.773262 0
M  V30 4311 C 403.688 3.05894 -1.63185 0
M  V30 4312 C 402.749 3.19885 -2.86307 0
M  V30 4313 C 401.982 4.49879 -2.87131 0
M  V30 4314 O 402.205 5.35217 -1.97229 0
M  V30 4315 O 401.139 4.67618 -3.78968 0
M  V30 4316 H 404.965 1.59706 -2.58317 0
M  V30 4317 H 402.55 0.728989 -1.30407 0
M  V30 4318 H 404.432 3.87133 -1.66451 0
M  V30 4319 H 403.107 3.15964 -0.70345 0
M  V30 4320 H 402.014 2.38052 -2.88587 0
M  V30 4321 H 403.347 3.14718 -3.78435 0
M  V30 4322 N 404.999 1.35443 0.805782 0
M  V30 4323 C 405.962 1.28301 1.89925 0
M  V30 4324 C 406.962 0.194285 1.59622 0
M  V30 4325 O 408.152 0.448036 1.6834 0
M  V30 4326 C 405.284 0.984997 3.2636 0
M  V30 4327 H 406.477 2.2553 1.97677 0
M  V30 4328 H 404.03 1.19979 1.00173 0
M  V30 4329 H 404.765 0.016603 3.24296 0
M  V30 4330 H 404.55 1.77269 3.4974 0
M  V30 4331 H 406.04 0.960651 4.064 0
M  V30 4332 N 406.477 -1.02803 1.19454 0
M  V30 4333 C 407.723 -1.76478 0.999171 0
M  V30 4334 C 408.056 -1.88456 -0.468828 0
M  V30 4335 O 407.331 -1.40198 -1.34814 0
M  V30 4336 C 407.614 -3.19044 1.66981 0
M  V30 4337 C 407.467 -3.14932 3.21151 0
M  V30 4338 C 408.786 -4.17456 1.39349 0
M  V30 4339 H 405.905 -0.640614 0.364393 0
M  V30 4340 H 408.547 -1.20005 1.47305 0
M  V30 4341 H 406.697 -3.67263 1.2669 0
M  V30 4342 H 408.369 -2.74605 3.70661 0
M  V30 4343 H 406.612 -2.52625 3.52652 0
M  V30 4344 H 407.283 -4.1566 3.63223 0
M  V30 4345 H 409.759 -3.77842 1.74283 0
M  V30 4346 H 408.635 -5.154 1.88823 0
M  V30 4347 H 408.896 -4.40949 0.318813 0
M  V30 4348 N 407.956 -0.998596 -1.21925 0
M  V30 4349 C 408.888 -0.511879 -2.23411 0
M  V30 4350 C 409.901 0.396094 -1.57908 0
M  V30 4351 O 411.09 0.197316 -1.77406 0
M  V30 4352 C 408.19 0.276802 -3.37768 0
M  V30 4353 C 407.363 -0.628687 -4.32858 0
M  V30 4354 C 406.422 0.109272 -5.26087 0
M  V30 4355 O 405.448 -0.507237 -5.66935 0
M  V30 4356 N 406.65 1.38983 -5.63617 0
M  V30 4357 H 409.415 -1.38457 -2.658 0
M  V30 4358 H 406.976 -0.873981 -1.36283 0
M  V30 4359 H 408.968 0.77928 -3.97126 0
M  V30 4360 H 407.538 1.05063 -2.94415 0
M  V30 4361 H 406.758 -1.31175 -3.71735 0
M  V30 4362 H 408.046 -1.24514 -4.93329 0
M  V30 4363 H 407.444 1.91194 -5.32411 0
M  V30 4364 H 406.001 1.83739 -6.25367 0
M  V30 4365 N 409.434 1.37368 -0.772513 0
M  V30 4366 C 410.397 2.28601 -0.165541 0
M  V30 4367 C 411.397 1.48062 0.627238 0
M  V30 4368 O 412.587 1.68268 0.450715 0
M  V30 4369 C 409.719 3.32023 0.772897 0
M  V30 4370 H 410.912 2.83787 -0.969787 0
M  V30 4371 H 408.465 1.46647 -0.540775 0
M  V30 4372 H 409.2 2.81962 1.60212 0
M  V30 4373 H 408.985 3.91555 0.206585 0
M  V30 4374 H 410.475 4.00197 1.19298 0
M  V30 4375 N 410.912 0.523116 1.48665 0
M  V30 4376 C 412.152 -0.0115588 2.04397 0
M  V30 4377 C 412.516 -1.32225 1.39214 0
M  V30 4378 O 413.717 -1.94253 1.85793 0
M  V30 4379 C 411.988 -0.138119 3.57133 0
M  V30 4380 S 413.547 -0.623849 4.34343 0
M  V30 4381 H 410.365 0.00877706 0.710946 0
M  V30 4382 H 412.967 0.702116 1.82457 0
M  V30 4383 H 411.671 0.820748 4.02109 0
M  V30 4384 H 411.202 -0.876377 3.83514 0
M  V30 4385 H 413.217 -1.8895 4.58816 0
M  V30 4386 N 412.39 -1.55475 0.257931 0
M  V30 4387 C 413.32 -2.24815 -0.630912 0
M  V30 4388 C 414.301 -1.23224 -1.17259 0
M  V30 4389 O 415.486 -1.51904 -1.20991 0
M  V30 4390 C 412.616 -2.95609 -1.82298 0
M  V30 4391 C 411.57 -4.03982 -1.41359 0
M  V30 4392 C 410.896 -4.6226 -2.68738 0
M  V30 4393 C 412.196 -5.19109 -0.57648 0
M  V30 4394 H 413.89 -2.99354 -0.0526878 0
M  V30 4395 H 411.436 -1.4398 -0.023901 0
M  V30 4396 H 413.389 -3.42822 -2.45054 0
M  V30 4397 H 412.113 -2.18577 -2.42676 0
M  V30 4398 H 410.772 -3.57555 -0.809324 0
M  V30 4399 H 410.42 -3.81915 -3.27338 0
M  V30 4400 H 410.12 -5.35424 -2.42065 0
M  V30 4401 H 411.644 -5.12212 -3.32372 0
M  V30 4402 H 413.058 -5.62479 -1.10861 0
M  V30 4403 H 411.455 -5.98729 -0.405351 0
M  V30 4404 H 412.525 -4.83174 0.408776 0
M  V30 4405 N 413.868 0.0150385 -1.57593 0
M  V30 4406 C 414.816 1.02958 -2.08572 0
M  V30 4407 C 415.81 1.36554 -1.00246 0
M  V30 4408 O 417.016 1.35295 -1.18724 0
M  V30 4409 H 413.391 0.349619 -0.665786 0
M  V30 4410 H 415.362 0.573932 -2.92829 0
M  V30 4411 C 414.111 2.31752 -2.59203 0
M  V30 4412 H 413.434 2.06765 -3.42182 0
M  V30 4413 H 414.874 3.01053 -2.98568 0
M  V30 4414 C 413.333 3.01692 -1.49945 0
M  V30 4415 O 413.863 3.92083 -0.873704 0
M  V30 4416 N 412.069 2.6326 -1.23056 0
M  V30 4417 H 411.616 1.89838 -1.74125 0
M  V30 4418 H 411.574 3.10372 -0.501685 0
M  V30 4419 N 415.346 1.54954 0.287554 0
M  V30 4420 C 416.623 1.65569 1.04146 0
M  V30 4421 C 417.003 0.512672 2.0478 0
M  V30 4422 O 416.351 -0.489038 2.23205 0
M  V30 4423 C 416.561 3.04163 1.71131 0
M  V30 4424 C 417.909 3.61429 2.22832 0
M  V30 4425 O 418.933 3.06702 1.81141 0
M  V30 4426 O 417.792 4.57281 2.9926 0
M  V30 4427 H 414.886 0.671881 0.482188 0
M  V30 4428 H 417.432 1.67297 0.28457 0
M  V30 4429 H 416.204 3.78796 0.981303 0
M  V30 4430 H 415.827 3.06271 2.53543 0
M  V30 4431 N 416.824 -0.551391 1.4764 0
M  V30 4432 C 418.072 -1.30572 1.54258 0
M  V30 4433 C 418.393 -1.93877 0.208963 0
M  V30 4434 O 417.663 -1.80234 -0.767619 0
M  V30 4435 H 416.243 -0.484894 0.568231 0
M  V30 4436 H 418.905 -0.643402 1.83974 0
M  V30 4437 H 418.001 -2.09621 2.31226 0
M  V30 4438 N 418.302 -1.35869 -0.798587 0
M  V30 4439 C 419.265 -1.29307 -1.89242 0
M  V30 4440 C 420.265 -0.202747 -1.59517 0
M  V30 4441 O 421.455 -0.456957 -1.681 0
M  V30 4442 C 418.587 -1.00229 -3.25833 0
M  V30 4443 H 419.78 -2.26576 -1.96478 0
M  V30 4444 H 417.333 -1.20509 -0.995358 0
M  V30 4445 H 418.068 -0.033801 -3.24282 0
M  V30 4446 H 417.853 -1.79121 -3.48795 0
M  V30 4447 H 419.343 -0.98219 -4.05885 0
M  V30 4448 N 419.78 1.02168 -1.19998 0
M  V30 4449 C 420.712 2.10705 -0.901994 0
M  V30 4450 C 421.725 1.6244 0.108216 0
M  V30 4451 O 422.914 1.78082 -0.12214 0
M  V30 4452 C 420.014 3.37291 -0.329834 0
M  V30 4453 C 419.187 4.14714 -1.39035 0
M  V30 4454 C 418.246 5.19606 -0.830432 0
M  V30 4455 O 417.272 5.48809 -1.50989 0
M  V30 4456 N 418.474 5.79366 0.362696 0
M  V30 4457 H 421.239 2.36856 -1.83628 0
M  V30 4458 H 418.8 1.18518 -1.10296 0
M  V30 4459 H 420.792 4.04657 0.0587633 0
M  V30 4460 H 419.362 3.0843 0.508891 0
M  V30 4461 H 418.582 3.42392 -1.9535 0
M  V30 4462 H 419.87 4.63226 -2.10474 0
M  V30 4463 H 419.268 5.57968 0.932081 0
M  V30 4464 H 417.825 6.48106 0.69299 0
M  V30 4465 N 421.258 1.00505 1.21394 0
M  V30 4466 C 422.507 0.683159 1.89778 0
M  V30 4467 C 422.82 -0.789471 1.7896 0
M  V30 4468 O 424.026 -1.22344 2.42372 0
M  V30 4469 C 422.482 1.17146 3.40301 0
M  V30 4470 C 422.09 2.67017 3.5973 0
M  V30 4471 C 423.834 0.924461 4.14311 0
M  V30 4472 C 421.741 3.09387 5.04017 0
M  V30 4473 H 420.671 0.25183 0.710702 0
M  V30 4474 H 423.322 1.21622 1.37406 0
M  V30 4475 H 421.704 0.566451 3.91928 0
M  V30 4476 H 422.878 3.32968 3.18542 0
M  V30 4477 H 421.193 2.89732 2.99073 0
M  V30 4478 H 423.79 1.21658 5.20676 0
M  V30 4479 H 424.133 -0.139286 4.16067 0
M  V30 4480 H 424.666 1.49226 3.6875 0
M  V30 4481 H 421.405 4.14989 5.07409 0
M  V30 4482 H 420.925 2.48149 5.46061 0
M  V30 4483 H 422.604 3.01371 5.72525 0
M  V30 4484 N 422.737 -1.36956 0.779787 0
M  V30 4485 C 423.7 -2.2851 0.177662 0
M  V30 4486 C 424.7 -1.48393 -0.619377 0
M  V30 4487 O 425.89 -1.68505 -0.441785 0
M  V30 4488 C 423.022 -3.32428 -0.755279 0
M  V30 4489 H 424.215 -2.83269 0.984823 0
M  V30 4490 H 421.768 -1.46358 0.548544 0
M  V30 4491 H 422.503 -2.82808 -1.58714 0
M  V30 4492 H 422.288 -3.91659 -0.185817 0
M  V30 4493 H 423.778 -4.00824 -1.17174 0
M  V30 4494 N 424.215 -0.530993 -1.48385 0
M  V30 4495 C 425.162 0.231223 -2.29639 0
M  V30 4496 C 426.132 0.932864 -1.37429 0
M  V30 4497 O 427.317 0.933692 -1.66394 0
M  V30 4498 C 424.457 1.27155 -3.2082 0
M  V30 4499 C 423.57 0.578655 -4.28107 0
M  V30 4500 C 422.705 1.602 -5.06467 0
M  V30 4501 C 421.744 0.892625 -6.05556 0
M  V30 4502 N 420.881 1.86157 -6.76971 0
M  V30 4503 H 425.721 -0.467848 -2.94305 0
M  V30 4504 H 423.258 -0.242556 -1.45086 0
M  V30 4505 H 425.216 1.88703 -3.72085 0
M  V30 4506 H 423.846 1.939 -2.58075 0
M  V30 4507 H 422.898 -0.150782 -3.80101 0
M  V30 4508 H 424.21 0.0217065 -4.98795 0
M  V30 4509 H 423.364 2.29173 -5.61751 0
M  V30 4510 H 422.103 2.19285 -4.35621 0
M  V30 4511 H 421.108 0.188829 -5.49476 0
M  V30 4512 H 422.333 0.307878 -6.78402 0
M  V30 4513 H 420.279 2.44147 -6.08875 0
M  V30 4514 H 420.196 1.35608 -7.43738 0
M  V30 4515 H 421.464 2.54325 -7.36844 0
M  V30 4516 N 425.693 1.55336 -0.266172 0
M  V30 4517 C 426.939 1.99692 0.353681 0
M  V30 4518 C 427.272 1.1543 1.56172 0
M  V30 4519 O 426.547 0.222218 1.93226 0
M  V30 4520 C 426.83 3.52316 0.74466 0
M  V30 4521 C 426.683 4.47337 -0.470101 0
M  V30 4522 C 428.002 4.10588 1.58447 0
M  V30 4523 H 425.121 0.725961 0.12708 0
M  V30 4524 H 427.763 1.86336 -0.371333 0
M  V30 4525 H 425.913 3.63829 1.36239 0
M  V30 4526 H 427.585 4.4778 -1.10864 0
M  V30 4527 H 425.828 4.19364 -1.10978 0
M  V30 4528 H 426.499 5.51788 -0.15291 0
M  V30 4529 H 428.975 4.02297 1.06286 0
M  V30 4530 H 427.851 5.17607 1.82686 0
M  V30 4531 H 428.112 3.60253 2.56262 0
M  V30 4532 N 427.171 -0.0066808 1.57599 0
M  V30 4533 C 428.419 -0.691552 1.899 0
M  V30 4534 C 428.74 -1.74682 0.866672 0
M  V30 4535 O 428.01 -1.95661 -0.0968189 0
M  V30 4536 H 426.59 -0.258416 0.700878 0
M  V30 4537 H 429.252 0.0326655 1.94873 0
M  V30 4538 H 428.348 -1.16702 2.8946 0
M  V30 4539 N 428.649 -1.55105 -0.279332 0
M  V30 4540 C 429.581 -1.83952 -1.36727 0
M  V30 4541 C 430.594 -0.723642 -1.45833 0
M  V30 4542 O 431.783 -1.00141 -1.47763 0
M  V30 4543 C 428.883 -1.98183 -2.74912 0
M  V30 4544 C 428.056 -3.28787 -2.88475 0
M  V30 4545 C 427.115 -3.33162 -4.07295 0
M  V30 4546 O 426.141 -4.06576 -3.98353 0
M  V30 4547 N 427.343 -2.60109 -5.18964 0
M  V30 4548 H 430.108 -2.77853 -1.12328 0
M  V30 4549 H 427.669 -1.54945 -0.469442 0
M  V30 4550 H 429.661 -1.98488 -3.52682 0
M  V30 4551 H 428.231 -1.11177 -2.92162 0
M  V30 4552 H 427.451 -3.41075 -1.97641 0
M  V30 4553 H 428.739 -4.14933 -2.94463 0
M  V30 4554 H 428.137 -2.00136 -5.29115 0
M  V30 4555 H 426.694 -2.66143 -5.94988 0
M  V30 4556 N 430.127 0.543554 -1.4793 0
M  V30 4557 C 431.376 1.29649 -1.54512 0
M  V30 4558 C 431.689 1.94382 -0.217973 0
M  V30 4559 O 432.895 2.71017 -0.161908 0
M  V30 4560 C 431.351 2.35175 -2.72435 0
M  V30 4561 C 430.959 1.76572 -4.11736 0
M  V30 4562 C 432.703 3.11564 -2.8832 0
M  V30 4563 C 430.61 2.79958 -5.20939 0
M  V30 4564 H 429.54 0.487541 -0.57517 0
M  V30 4565 H 432.191 0.575708 -1.74235 0
M  V30 4566 H 430.573 3.10229 -2.46118 0
M  V30 4567 H 431.747 1.07799 -4.48013 0
M  V30 4568 H 430.062 1.12722 -4.00852 0
M  V30 4569 H 432.659 3.88794 -3.67074 0
M  V30 4570 H 433.002 3.66594 -1.97268 0
M  V30 4571 H 433.535 2.43623 -3.14472 0
M  V30 4572 H 430.274 2.29766 -6.13912 0
M  V30 4573 H 429.794 3.47101 -4.89164 0
M  V30 4574 H 431.473 3.43198 -5.48474 0
M  V30 4575 N 431.605 1.3629 0.791371 0
M  V30 4576 C 432.852 1.30412 1.54916 0
M  V30 4577 C 433.18 -0.117162 1.94147 0
M  V30 4578 O 432.435 -1.08599 1.62803 0
M  V30 4579 C 432.734 2.17068 2.8393 0
M  V30 4580 C 432.4 3.65645 2.63846 0
M  V30 4581 C 431.062 4.0614 2.58077 0
M  V30 4582 C 433.414 4.59855 2.45322 0
M  V30 4583 C 430.742 5.3899 2.31748 0
M  V30 4584 C 433.094 5.9292 2.2052 0
M  V30 4585 C 431.758 6.32542 2.13183 0
M  V30 4586 H 431.028 0.47721 0.566879 0
M  V30 4587 H 433.675 1.68325 0.913172 0
M  V30 4588 H 431.98 1.72085 3.51986 0
M  V30 4589 H 433.677 2.09846 3.4171 0
M  V30 4590 H 430.267 3.33518 2.69191 0
M  V30 4591 H 434.451 4.29443 2.48782 0
M  V30 4592 H 429.707 5.68672 2.24548 0
M  V30 4593 H 433.881 6.65487 2.05182 0
M  V30 4594 H 431.508 7.35412 1.92544 0
M  V30 4595 N 433.083 -1.0153 1.20538 0
M  V30 4596 C 434.046 -2.0826 0.957098 0
M  V30 4597 C 435.046 -1.60657 -0.0678655 0
M  V30 4598 O 436.236 -1.73385 0.168332 0
M  V30 4599 C 433.368 -3.38033 0.441188 0
M  V30 4600 H 434.561 -2.31719 1.90384 0
M  V30 4601 H 432.114 -1.1835 1.02093 0
M  V30 4602 H 432.849 -3.20249 -0.510961 0
M  V30 4603 H 432.634 -3.73911 1.18038 0
M  V30 4604 H 434.124 -4.16613 0.287009 0
M  V30 4605 N 434.561 -1.01147 -1.20859 0
M  V30 4606 C 435.524 -0.582224 -2.21682 0
M  V30 4607 C 436.524 0.344887 -1.57058 0
M  V30 4608 O 437.714 0.134281 -1.73682 0
M  V30 4609 C 434.846 0.150496 -3.40568 0
M  V30 4610 H 436.039 -1.47408 -2.61172 0
M  V30 4611 H 433.592 -0.800695 -1.34233 0
M  V30 4612 H 434.327 1.0575 -3.06574 0
M  V30 4613 H 434.112 -0.515444 -3.88697 0
M  V30 4614 H 435.602 0.438344 -4.15293 0
M  V30 4615 N 436.039 1.36541 -0.78704 0
M  V30 4616 C 437.285 2.00044 -0.367938 0
M  V30 4617 C 437.64 1.61345 1.04812 0
M  V30 4618 O 436.933 0.856936 1.71368 0
M  V30 4619 C 437.127 3.54343 -0.466485 0
M  V30 4620 C 436.956 4.08029 -1.89058 0
M  V30 4621 C 435.726 4.38284 -2.51466 0
M  V30 4622 C 437.924 4.27954 -2.85236 0
M  V30 4623 N 435.906 4.77778 -3.85488 0
M  V30 4624 C 437.277 4.70227 -4.04088 0
M  V30 4625 C 439.332 4.10119 -2.82324 0
M  V30 4626 C 438.035 4.96532 -5.20432 0
M  V30 4627 C 440.061 4.37569 -3.97854 0
M  V30 4628 C 439.423 4.80095 -5.15449 0
M  V30 4629 H 435.522 0.760525 -0.182004 0
M  V30 4630 H 438.106 1.65589 -1.02413 0
M  V30 4631 H 436.277 3.88072 0.159606 0
M  V30 4632 H 438.009 4.04693 -0.0238577 0
M  V30 4633 H 434.764 4.27905 -2.02965 0
M  V30 4634 H 435.188 5.01813 -4.54437 0
M  V30 4635 H 439.83 3.76399 -1.92571 0
M  V30 4636 H 437.548 5.29134 -6.10773 0
M  V30 4637 H 441.134 4.25341 -3.96958 0
M  V30 4638 H 440.014 5.00925 -6.0336 0
M  V30 4639 N 437.518 0.538854 1.48102 0
M  V30 4640 C 438.465 -0.219042 2.29758 0
M  V30 4641 C 439.435 -0.925562 1.37922 0
M  V30 4642 O 440.62 -0.924855 1.66886 0
M  V30 4643 C 437.76 -1.25452 3.2149 0
M  V30 4644 C 436.873 -0.555943 4.28408 0
M  V30 4645 C 436.008 -1.57512 5.0731 0
M  V30 4646 C 435.047 -0.860498 6.06021 0
M  V30 4647 N 434.184 -1.82564 6.77949 0
M  V30 4648 H 439.024 0.483449 2.94052 0
M  V30 4649 H 436.561 0.250247 1.44956 0
M  V30 4650 H 438.519 -1.86727 3.7308 0
M  V30 4651 H 437.149 -1.92528 2.591 0
M  V30 4652 H 436.201 0.170938 3.80016 0
M  V30 4653 H 437.513 0.00474616 4.988 0
M  V30 4654 H 436.667 -2.26191 5.62959 0
M  V30 4655 H 435.406 -2.16972 4.36778 0
M  V30 4656 H 434.411 -0.159686 5.49568 0
M  V30 4657 H 435.636 -0.271897 6.78555 0
M  V30 4658 H 433.582 -2.40915 6.10161 0
M  V30 4659 H 433.499 -1.31662 7.44447 0
M  V30 4660 H 434.767 -2.50414 7.38182 0
M  V30 4661 N 438.996 -1.55193 0.274407 0
M  V30 4662 C 440.245 -1.98758 -0.343213 0
M  V30 4663 C 440.558 -1.16624 -1.5703 0
M  V30 4664 O 441.764 -1.5033 -2.26082 0
M  V30 4665 C 440.22 -3.53759 -0.661996 0
M  V30 4666 C 439.828 -4.4467 0.54524 0
M  V30 4667 C 441.572 -4.05916 -1.24228 0
M  V30 4668 C 439.479 -5.91058 0.201084 0
M  V30 4669 H 438.409 -0.742353 -0.132014 0
M  V30 4670 H 441.06 -1.79545 0.378948 0
M  V30 4671 H 439.442 -3.68772 -1.44304 0
M  V30 4672 H 440.616 -4.41426 1.32212 0
M  V30 4673 H 438.931 -4.03143 1.04232 0
M  V30 4674 H 441.528 -5.12831 -1.51357 0
M  V30 4675 H 441.871 -3.54908 -2.17592 0
M  V30 4676 H 442.404 -3.9434 -0.523542 0
M  V30 4677 H 439.143 -6.46161 1.10258 0
M  V30 4678 H 438.663 -5.97373 -0.539045 0
M  V30 4679 H 440.342 -6.46669 -0.206954 0
M  V30 4680 N 440.474 -0.00167713 -1.576 0
M  V30 4681 C 441.404 0.988091 -2.11563 0
M  V30 4682 C 442.385 1.35736 -1.02517 0
M  V30 4683 O 443.57 1.44082 -1.30208 0
M  V30 4684 C 440.7 2.27941 -2.62031 0
M  V30 4685 C 439.654 2.0517 -3.75619 0
M  V30 4686 C 438.98 3.4033 -4.12407 0
M  V30 4687 C 440.28 1.41294 -5.02825 0
M  V30 4688 H 441.974 0.538771 -2.94513 0
M  V30 4689 H 439.52 0.257712 -1.41675 0
M  V30 4690 H 441.473 2.97539 -2.9841 0
M  V30 4691 H 440.197 2.74989 -1.76205 0
M  V30 4692 H 438.856 1.37998 -3.39635 0
M  V30 4693 H 438.504 3.85085 -3.23603 0
M  V30 4694 H 438.204 3.25909 -4.88935 0
M  V30 4695 H 439.728 4.1124 -4.51347 0
M  V30 4696 H 441.142 2.00851 -5.36965 0
M  V30 4697 H 439.539 1.37356 -5.84169 0
M  V30 4698 H 440.609 0.382362 -4.8339 0
M  V30 4699 N 441.952 1.55251 0.271103 0
M  V30 4700 C 443.2 1.75599 1.00047 0
M  V30 4701 C 443.521 0.561188 1.8675 0
M  V30 4702 O 442.791 -0.423846 1.9126 0
M  V30 4703 H 441.371 0.647562 0.372387 0
M  V30 4704 H 444.033 1.92656 0.294876 0
M  V30 4705 H 443.129 2.65766 1.6363 0
M  V30 4706 N 443.43 -0.535701 1.48216 0
M  V30 4707 C 444.66 -1.3148 1.59363 0
M  V30 4708 C 445.068 -1.8753 0.250844 0
M  V30 4709 O 444.411 -1.66821 -0.769174 0
M  V30 4710 C 444.473 -2.50731 2.57632 0
M  V30 4711 C 444.137 -2.15811 4.02833 0
M  V30 4712 C 445.134 -1.71822 4.90686 0
M  V30 4713 C 442.819 -2.26509 4.48329 0
M  V30 4714 C 444.813 -1.3899 6.22062 0
M  V30 4715 C 442.5 -1.93289 5.79726 0
M  V30 4716 C 443.498 -1.49599 6.66415 0
M  V30 4717 O 443.186 -1.16812 7.95368 0
M  V30 4718 H 442.918 -0.406315 0.540263 0
M  V30 4719 H 445.472 -0.653569 1.94725 0
M  V30 4720 H 443.702 -3.19817 2.1738 0
M  V30 4721 H 445.391 -3.12797 2.58675 0
M  V30 4722 H 446.157 -1.63031 4.56778 0
M  V30 4723 H 442.036 -2.59471 3.81045 0
M  V30 4724 H 445.58 -1.04816 6.89681 0
M  V30 4725 H 441.477 -2.01718 6.13172 0
M  V30 4726 H 442.245 -1.30259 8.08069 0
M  V30 4727 N 444.908 -1.36708 -0.784132 0
M  V30 4728 C 446.185 -1.21776 -1.53069 0
M  V30 4729 C 446.565 0.193876 -2.10208 0
M  V30 4730 O 445.913 1.20012 -1.94446 0
M  V30 4731 C 446.123 -2.30395 -2.62143 0
M  V30 4732 C 447.471 -2.67325 -3.29882 0
M  V30 4733 O 448.495 -2.29478 -2.7243 0
M  V30 4734 O 447.354 -3.32485 -4.33724 0
M  V30 4735 H 444.448 -0.474459 -0.677361 0
M  V30 4736 H 446.994 -1.48454 -0.82216 0
M  V30 4737 H 445.766 -3.2498 -2.17953 0
M  V30 4738 H 445.389 -2.05112 -3.40609 0
M  V30 4739 N 446.386 1.0089 -1.21074 0
M  V30 4740 C 447.802 1.2695 -0.967257 0
M  V30 4741 C 448.002 1.9846 0.348673 0
M  V30 4742 O 447.058 2.28459 1.0753 0
M  V30 4743 C 448.371 2.09697 -2.15517 0
M  V30 4744 C 449.919 2.22937 -2.197 0
M  V30 4745 C 450.394 3.09064 -3.37999 0
M  V30 4746 N 451.885 3.16653 -3.38061 0
M  V30 4747 C 452.62 3.8354 -4.26245 0
M  V30 4748 N 452.116 4.52488 -5.2462 0
M  V30 4749 N 453.909 3.80141 -4.14064 0
M  V30 4750 H 446.06 0.529005 -2.05707 0
M  V30 4751 H 448.323 0.296148 -0.900556 0
M  V30 4752 H 448.029 1.64497 -3.10859 0
M  V30 4753 H 447.903 3.10444 -2.14253 0
M  V30 4754 H 450.29 2.67357 -1.24916 0
M  V30 4755 H 450.371 1.21673 -2.2501 0
M  V30 4756 H 450.015 2.65347 -4.33074 0
M  V30 4757 H 449.945 4.10433 -3.29928 0
M  V30 4758 H 452.436 2.67566 -2.66865 0
M  V30 4759 H 452.749 5.01219 -5.88217 0
M  V30 4760 H 451.094 4.51288 -5.28549 0
M  V30 4761 H 454.285 3.25427 -3.36474 0
M  V30 4762 H 454.458 4.31992 -4.82998 0
M  V30 4763 N 447.864 1.01787 1.20321 0
M  V30 4764 C 449.104 0.716493 1.91431 0
M  V30 4765 C 449.468 -0.740352 1.77152 0
M  V30 4766 O 450.669 -1.1543 2.42754 0
M  V30 4767 C 448.94 1.14169 3.38674 0
M  V30 4768 S 450.499 0.962482 4.28114 0
M  V30 4769 H 447.317 0.261175 0.661293 0
M  V30 4770 H 449.919 1.30539 1.45533 0
M  V30 4771 H 448.623 2.19784 3.46588 0
M  V30 4772 H 448.154 0.545621 3.89598 0
M  V30 4773 H 450.169 -0.133253 4.96021 0
M  V30 4774 N 449.342 -1.36122 0.79427 0
M  V30 4775 C 450.619 -1.93398 0.292685 0
M  V30 4776 C 450.999 -1.72567 -1.21589 0
M  V30 4777 O 450.347 -1.08745 -2.00965 0
M  V30 4778 C 450.557 -3.42099 0.690614 0
M  V30 4779 C 451.905 -4.19231 0.673105 0
M  V30 4780 O 452.929 -3.50559 0.631389 0
M  V30 4781 O 451.788 -5.41732 0.720362 0
M  V30 4782 H 448.882 -0.823712 0.0736693 0
M  V30 4783 H 451.428 -1.45273 0.87714 0
M  V30 4784 H 450.2 -3.50938 1.73085 0
M  V30 4785 H 449.823 -3.97519 0.0803036 0
M  V30 4786 N 450.82 -0.546701 -1.47814 0
M  V30 4787 C 451.783 0.196287 -2.28358 0
M  V30 4788 C 452.783 0.852437 -1.36346 0
M  V30 4789 O 453.973 0.709913 -1.59078 0
M  V30 4790 C 451.105 1.28579 -3.15722 0
M  V30 4791 H 452.298 -0.511086 -2.95513 0
M  V30 4792 H 449.851 -0.303248 -1.5333 0
M  V30 4793 H 450.586 2.0259 -2.53235 0
M  V30 4794 H 450.371 0.820229 -3.83425 0
M  V30 4795 H 451.861 1.80793 -3.76435 0
M  V30 4796 N 452.299 1.55045 -0.282633 0
M  V30 4797 C 453.547 1.99365 0.331334 0
M  V30 4798 C 453.868 1.1725 1.55812 0
M  V30 4799 O 453.138 0.263871 1.94115 0
M  V30 4800 H 451.718 0.736397 0.125414 0
M  V30 4801 H 454.38 1.90964 -0.389711 0
M  V30 4802 H 453.476 3.0596 0.616036 0
M  V30 4803 N 453.777 0.010035 1.57597 0
M  V30 4804 C 455.023 -0.668011 1.92118 0
M  V30 4805 C 455.378 -1.70821 0.885328 0
M  V30 4806 O 454.671 -1.91333 -0.101187 0
M  V30 4807 C 454.865 -1.34434 3.31153 0
M  V30 4808 C 454.694 -0.371176 4.48166 0
M  V30 4809 C 453.464 0.0220686 5.05295 0
M  V30 4810 C 455.662 0.366731 5.12991 0
M  V30 4811 N 453.644 0.9924 6.05826 0
M  V30 4812 C 455.015 1.19142 6.08445 0
M  V30 4813 C 457.07 0.429489 4.96044 0
M  V30 4814 C 455.773 2.07317 6.88776 0
M  V30 4815 C 457.799 1.2985 5.76969 0
M  V30 4816 C 457.161 2.11101 6.72023 0
M  V30 4817 H 453.26 -0.217337 0.751192 0
M  V30 4818 H 455.844 0.0727375 1.94564 0
M  V30 4819 H 454.015 -2.05533 3.29561 0
M  V30 4820 H 455.747 -1.97789 3.53075 0
M  V30 4821 H 452.502 -0.348409 4.72317 0
M  V30 4822 H 452.926 1.47324 6.60776 0
M  V30 4823 H 457.568 -0.18442 4.22398 0
M  V30 4824 H 455.286 2.69771 7.61741 0
M  V30 4825 H 458.872 1.3511 5.65894 0
M  V30 4826 H 457.752 2.77257 7.33552 0
M  V30 4827 N 455.255 -1.55392 -0.262866 0
M  V30 4828 C 456.185 -1.91978 -1.32917 0
M  V30 4829 C 457.166 -0.7828 -1.51017 0
M  V30 4830 O 458.351 -1.04178 -1.63892 0
M  V30 4831 C 455.481 -2.20055 -2.68687 0
M  V30 4832 C 454.435 -3.35854 -2.65304 0
M  V30 4833 C 453.761 -3.49435 -4.04721 0
M  V30 4834 C 455.061 -4.71977 -2.23685 0
M  V30 4835 H 456.755 -2.81292 -1.02544 0
M  V30 4836 H 454.301 -1.3534 -0.491846 0
M  V30 4837 H 456.254 -2.44237 -3.43404 0
M  V30 4838 H 454.978 -1.27551 -3.00663 0
M  V30 4839 H 453.637 -3.11655 -1.93045 0
M  V30 4840 H 453.285 -2.54379 -4.33936 0
M  V30 4841 H 452.985 -4.27297 -4.0335 0
M  V30 4842 H 454.509 -3.7592 -4.81161 0
M  V30 4843 H 455.923 -4.95637 -2.88127 0
M  V30 4844 H 454.32 -5.52828 -2.33456 0
M  V30 4845 H 455.39 -4.70115 -1.18827 0
M  V30 4846 N 456.733 0.527833 -1.48498 0
M  V30 4847 C 457.696 1.61439 -1.62696 0
M  V30 4848 C 458.696 1.52824 -0.500136 0
M  V30 4849 O 459.886 1.56456 -0.765976 0
M  V30 4850 C 457.018 3.01063 -1.59918 0
M  V30 4851 H 458.211 1.50189 -2.59583 0
M  V30 4852 H 455.764 0.750055 -1.37127 0
M  V30 4853 H 456.499 3.17818 -0.645163 0
M  V30 4854 H 456.284 3.08725 -2.41726 0
M  V30 4855 H 457.774 3.80057 -1.73051 0
M  V30 4856 N 458.211 1.37122 0.776871 0
M  V30 4857 C 459.488 1.22586 1.52421 0
M  V30 4858 C 459.868 -0.182726 2.10308 0
M  V30 4859 O 459.216 -1.18979 1.9508 0
M  V30 4860 C 459.426 2.31782 2.60918 0
M  V30 4861 C 460.774 2.69071 3.2846 0
M  V30 4862 O 461.798 2.3092 2.71209 0
M  V30 4863 O 460.657 3.3478 4.31954 0
M  V30 4864 H 457.751 0.478045 0.674835 0
M  V30 4865 H 460.297 1.48888 0.814275 0
M  V30 4866 H 459.069 3.26131 2.16227 0
M  V30 4867 H 458.692 2.06916 3.39517 0
M  V30 4868 N 459.689 -1.00246 1.21608 0
M  V30 4869 C 460.937 -1.73717 1.0328 0
M  V30 4870 C 461.258 -1.90102 -0.434318 0
M  V30 4871 O 460.528 -1.45376 -1.31311 0
M  V30 4872 H 459.108 -0.643613 0.379172 0
M  V30 4873 H 461.77 -1.20787 1.52959 0
M  V30 4874 H 460.866 -2.73535 1.50283 0
M  V30 4875 N 461.167 -1.02423 -1.1978 0
M  V30 4876 C 462.392 -0.7373 -1.93852 0
M  V30 4877 C 462.817 0.696923 -1.74713 0
M  V30 4878 O 462.175 1.48056 -1.04638 0
M  V30 4879 C 462.223 -1.08783 -3.438 0
M  V30 4880 O 461.327 -0.20383 -4.11896 0
M  V30 4881 H 460.668 -0.27284 -0.605355 0
M  V30 4882 H 463.198 -1.36966 -1.51992 0
M  V30 4883 H 463.208 -1.04276 -3.9445 0
M  V30 4884 H 461.883 -2.13274 -3.57053 0
M  V30 4885 H 460.46 -0.307091 -3.71633 0
M  V30 4886 N 462.645 1.35699 -0.801477 0
M  V30 4887 C 463.891 1.99208 -0.380022 0
M  V30 4888 C 464.224 1.63445 1.04878 0
M  V30 4889 O 463.499 0.895223 1.72673 0
M  V30 4890 C 463.782 3.55755 -0.557708 0
M  V30 4891 C 463.635 4.01332 -2.03107 0
M  V30 4892 C 464.954 4.40096 0.0197968 0
M  V30 4893 H 462.073 0.723667 -0.139552 0
M  V30 4894 H 464.715 1.60928 -1.01006 0
M  V30 4895 H 462.865 3.88494 -0.0213741 0
M  V30 4896 H 464.537 3.79026 -2.62939 0
M  V30 4897 H 462.78 3.52429 -2.52936 0
M  V30 4898 H 463.451 5.10234 -2.1063 0
M  V30 4899 H 465.927 4.13786 -0.438179 0
M  V30 4900 H 464.803 5.48735 -0.134477 0
M  V30 4901 H 465.064 4.2786 1.11303 0
M  V30 4902 N 464.123 0.554532 1.47522 0
M  V30 4903 C 465.539 0.214107 1.58157 0
M  V30 4904 C 465.739 -1.28331 1.55349 0
M  V30 4905 O 464.795 -2.06329 1.45549 0
M  V30 4906 C 466.108 0.838391 2.88776 0
M  V30 4907 C 467.656 0.809374 3.02354 0
M  V30 4908 C 468.131 1.41268 4.35669 0
M  V30 4909 N 469.622 1.37574 4.42298 0
M  V30 4910 C 470.357 1.8122 5.4401 0
M  V30 4911 N 469.853 2.3271 6.52547 0
M  V30 4912 N 471.646 1.72307 5.35039 0
M  V30 4913 H 463.797 1.52744 1.4759 0
M  V30 4914 H 466.06 0.636812 0.702264 0
M  V30 4915 H 465.766 1.89065 2.96559 0
M  V30 4916 H 465.64 0.329847 3.75755 0
M  V30 4917 H 468.027 -0.234187 2.94169 0
M  V30 4918 H 468.108 1.35565 2.16924 0
M  V30 4919 H 467.752 2.45529 4.4461 0
M  V30 4920 H 467.682 0.841871 5.19827 0
M  V30 4921 H 470.173 0.999081 3.64454 0
M  V30 4922 H 470.486 2.63944 7.26329 0
M  V30 4923 H 468.831 2.36719 6.53444 0
M  V30 4924 H 472.022 1.3186 4.49144 0
M  V30 4925 H 472.195 2.06641 6.14169 0
M  V30 4926 N 465.601 -1.54893 0.290851 0
M  V30 4927 C 466.831 -2.04047 -0.323818 0
M  V30 4928 C 467.239 -1.16809 -1.48837 0
M  V30 4929 O 466.582 -0.184145 -1.82775 0
M  V30 4930 C 466.644 -3.49248 -0.852395 0
M  V30 4931 C 466.308 -4.56623 0.185557 0
M  V30 4932 C 467.305 -5.09985 1.01053 0
M  V30 4933 C 464.99 -5.01252 0.324332 0
M  V30 4934 C 466.984 -6.06507 1.96031 0
M  V30 4935 C 464.671 -5.97596 1.27757 0
M  V30 4936 C 465.669 -6.50107 2.09405 0
M  V30 4937 O 465.357 -7.44565 3.03114 0
M  V30 4938 H 465.089 -0.671735 -0.0758129 0
M  V30 4939 H 467.643 -2.00947 0.425393 0
M  V30 4940 H 465.873 -3.49639 -1.65195 0
M  V30 4941 H 467.562 -3.81654 -1.38185 0
M  V30 4942 H 468.328 -4.76307 0.914129 0
M  V30 4943 H 464.207 -4.60015 -0.301213 0
M  V30 4944 H 467.751 -6.47418 2.598 0
M  V30 4945 H 463.648 -6.30691 1.37473 0
M  V30 4946 H 464.416 -7.62334 2.97976 0
M  V30 4947 N 467.08 -0.0183926 -1.57589 0
M  V30 4948 C 468.491 0.521927 -1.79256 0
M  V30 4949 C 468.842 1.72885 -0.927636 0
M  V30 4950 O 467.967 2.15978 -0.135091 0
M  V30 4951 C 468.562 0.953632 -3.25102 0
M  V30 4952 C 467.121 1.43913 -3.47801 0
M  V30 4953 C 466.268 0.398837 -2.74417 0
M  V30 4954 H 469.219 -0.244485 -1.56805 0
M  V30 4955 H 469.24 1.81863 -3.34224 0
M  V30 4956 H 468.752 0.0750123 -3.88028 0
M  V30 4957 H 466.853 2.33804 -2.90115 0
M  V30 4958 H 466.966 1.45391 -4.56507 0
M  V30 4959 H 465.33 0.864572 -2.39577 0
M  V30 4960 H 466.113 -0.471132 -3.40052 0
M  V30 4961 N 468.558 1.5553 0.254621 0
M  V30 4962 C 469.807 1.76202 0.981612 0
M  V30 4963 C 470.12 0.580883 1.86776 0
M  V30 4964 O 471.326 0.670448 2.63092 0
M  V30 4965 C 469.782 3.11921 1.79537 0
M  V30 4966 C 469.39 4.37659 0.956991 0
M  V30 4967 C 471.134 3.41936 2.51555 0
M  V30 4968 C 469.041 5.64411 1.76619 0
M  V30 4969 H 467.971 0.656841 0.370237 0
M  V30 4970 H 470.622 1.81969 0.236556 0
M  V30 4971 H 469.004 3.00241 2.58208 0
M  V30 4972 H 470.178 4.60307 0.21315 0
M  V30 4973 H 468.493 4.14922 0.350497 0
M  V30 4974 H 471.09 4.33849 3.12536 0
M  V30 4975 H 471.433 2.62905 3.22779 0
M  V30 4976 H 471.966 3.54797 1.799 0
M  V30 4977 H 468.705 6.46241 1.09783 0
M  V30 4978 H 468.225 5.45877 2.48551 0
M  V30 4979 H 469.904 6.03386 2.33527 0
M  V30 4980 N 470.036 -0.519951 1.48776 0
M  V30 4981 C 471.261 -1.30447 1.6124 0
M  V30 4982 C 471.686 -1.86055 0.276591 0
M  V30 4983 O 471.044 -1.64915 -0.753183 0
M  V30 4984 C 471.092 -2.42406 2.66967 0
M  V30 4985 O 470.196 -3.45728 2.24824 0
M  V30 4986 H 469.537 -0.385924 0.540332 0
M  V30 4987 H 472.067 -0.624572 1.94834 0
M  V30 4988 H 472.077 -2.88447 2.88552 0
M  V30 4989 H 470.752 -2.01294 3.63941 0
M  V30 4990 H 469.329 -3.05737 2.13494 0
M  V30 4991 N 471.514 -1.37532 -0.769588 0
M  V30 4992 C 472.93 -1.18379 -1.07045 0
M  V30 4993 C 473.13 -0.0214312 -2.01489 0
M  V30 4994 O 472.186 0.637809 -2.44312 0
M  V30 4995 C 473.499 -2.50338 -1.66588 0
M  V30 4996 C 475.047 -2.56879 -1.78835 0
M  V30 4997 C 475.522 -3.88974 -2.41792 0
M  V30 4998 N 477.013 -3.90428 -2.4924 0
M  V30 4999 C 477.748 -4.89388 -2.98809 0
M  V30 5000 N 477.244 -5.98745 -3.48535 0
M  V30 5001 N 479.037 -4.76791 -2.97703 0
M  V30 5002 H 471.188 -2.11921 -0.142541 0
M  V30 5003 H 473.451 -0.939608 -0.125863 0
M  V30 5004 H 473.157 -3.35767 -1.0466 0
M  V30 5005 H 473.031 -2.67583 -2.65856 0
M  V30 5006 H 475.418 -1.71856 -2.39895 0
M  V30 5007 H 475.499 -2.43516 -0.783166 0
M  V30 5008 H 475.143 -4.74412 -1.81371 0
M  V30 5009 H 475.073 -3.99641 -3.4292 0
M  V30 5010 H 477.564 -3.11433 -2.14052 0
M  V30 5011 H 477.877 -6.70205 -3.84767 0
M  V30 5012 H 476.222 -6.02387 -3.46634 0
M  V30 5013 H 479.413 -3.90478 -2.58157 0
M  V30 5014 H 479.586 -5.54069 -3.36024 0
M  V30 5015 N 472.992 0.995999 -1.22138 0
M  V30 5016 C 474.403 1.54961 -1.04135 0
M  V30 5017 C 474.754 1.92159 0.396147 0
M  V30 5018 O 473.879 1.74435 1.28069 0
M  V30 5019 C 474.474 2.81581 -1.88408 0
M  V30 5020 C 473.033 3.33396 -1.74712 0
M  V30 5021 C 472.18 2.06509 -1.85066 0
M  V30 5022 H 475.131 0.817436 -1.36028 0
M  V30 5023 H 475.152 3.53822 -1.39966 0
M  V30 5024 H 474.664 2.54476 -2.93025 0
M  V30 5025 H 472.765 3.65416 -0.728159 0
M  V30 5026 H 472.878 4.04208 -2.57202 0
M  V30 5027 H 471.242 2.19925 -1.28472 0
M  V30 5028 H 472.025 1.81804 -2.91208 0
M  V30 5029 N 474.47 1.03057 1.19235 0
M  V30 5030 C 475.886 0.747947 1.40989 0
M  V30 5031 C 476.086 -0.666752 1.90149 0
M  V30 5032 O 475.142 -1.43249 2.07933 0
M  V30 5033 C 476.455 1.7855 2.41951 0
M  V30 5034 C 478.003 1.80524 2.55695 0
M  V30 5035 C 478.478 2.83243 3.59913 0
M  V30 5036 N 479.969 2.8207 3.67411 0
M  V30 5037 C 480.704 3.58204 4.47747 0
M  V30 5038 N 480.2 4.44057 5.31775 0
M  V30 5039 N 481.993 3.46738 4.42413 0
M  V30 5040 H 474.144 1.94367 0.856468 0
M  V30 5041 H 476.407 0.840412 0.438647 0
M  V30 5042 H 476.113 2.79973 2.12857 0
M  V30 5043 H 475.987 1.6092 3.41152 0
M  V30 5044 H 478.374 0.79778 2.84112 0
M  V30 5045 H 478.455 2.02229 1.56643 0
M  V30 5046 H 478.099 3.84161 3.32239 0
M  V30 5047 H 478.029 2.58795 4.5862 0
M  V30 5048 H 480.52 2.19803 3.074 0
M  V30 5049 H 480.833 4.98884 5.90199 0
M  V30 5050 H 479.178 4.48129 5.3123 0
M  V30 5051 H 482.369 2.79077 3.75811 0
M  V30 5052 H 482.542 4.06322 5.04783 0
M  V30 5053 N 475.948 -1.35272 0.808662 0
M  V30 5054 C 477.364 -1.51806 0.492653 0
M  V30 5055 C 477.564 -1.7574 -0.985778 0
M  V30 5056 O 476.62 -1.80003 -1.77074 0
M  V30 5057 C 477.933 -2.69202 1.33981 0
M  V30 5058 C 479.481 -2.8308 1.33547 0
M  V30 5059 C 479.956 -4.03502 2.16679 0
M  V30 5060 N 481.447 -4.10684 2.14227 0
M  V30 5061 C 482.182 -5.02984 2.75308 0
M  V30 5062 N 481.678 -6.00603 3.45323 0
M  V30 5063 N 483.471 -4.95746 2.64938 0
M  V30 5064 H 475.622 -1.17993 1.76611 0
M  V30 5065 H 477.885 -0.577476 0.751814 0
M  V30 5066 H 477.591 -2.581 2.38909 0
M  V30 5067 H 477.465 -3.63854 0.994491 0
M  V30 5068 H 479.852 -2.93631 0.294036 0
M  V30 5069 H 479.933 -1.89278 1.72068 0
M  V30 5070 H 479.577 -3.93711 3.20864 0
M  V30 5071 H 479.507 -4.96489 1.75517 0
M  V30 5072 H 481.998 -3.40802 1.63285 0
M  V30 5073 H 482.311 -6.67633 3.89212 0
M  V30 5074 H 480.656 -6.0077 3.49428 0
M  V30 5075 H 483.847 -4.18439 2.09825 0
M  V30 5076 H 484.02 -5.67487 3.12829 0
M  V30 5077 N 477.426 -0.562348 -1.47226 0
M  V30 5078 C 478.842 -0.222492 -1.58042 0
M  V30 5079 C 479.042 1.27505 -1.56028 0
M  V30 5080 O 478.098 2.05555 -1.46641 0
M  V30 5081 C 479.411 -0.853694 -2.88327 0
M  V30 5082 C 480.959 -0.825397 -3.01921 0
M  V30 5083 C 481.434 -1.43576 -4.34914 0
M  V30 5084 N 482.925 -1.39918 -4.41562 0
M  V30 5085 C 483.66 -1.84103 -5.43041 0
M  V30 5086 N 483.156 -2.36167 -6.51304 0
M  V30 5087 N 484.949 -1.75142 -5.34118 0
M  V30 5088 H 477.1 -1.53525 -1.46778 0
M  V30 5089 H 479.363 -0.640527 -0.698877 0
M  V30 5090 H 479.069 -1.90635 -2.95552 0
M  V30 5091 H 478.943 -0.34977 -3.75575 0
M  V30 5092 H 481.33 0.218583 -2.94289 0
M  V30 5093 H 481.411 -1.36713 -2.16202 0
M  V30 5094 H 481.055 -2.47884 -4.43301 0
M  V30 5095 H 480.985 -0.869427 -5.19373 0
M  V30 5096 H 483.476 -1.0184 -3.63919 0
M  V30 5097 H 483.789 -2.67793 -7.24919 0
M  V30 5098 H 482.134 -2.40181 -6.52179 0
M  V30 5099 H 485.325 -1.34241 -4.48439 0
M  V30 5100 H 485.498 -2.09895 -6.13065 0
M  V30 5101 N 478.904 1.54736 -0.299062 0
M  V30 5102 C 480.144 2.0201 0.31168 0
M  V30 5103 C 480.508 1.18281 1.5124 0
M  V30 5104 O 481.709 1.55243 2.19438 0
M  V30 5105 C 479.98 3.5123 0.661227 0
M  V30 5106 S 481.539 4.20467 1.2551 0
M  V30 5107 H 478.357 0.704523 0.0957517 0
M  V30 5108 H 480.959 1.90791 -0.426482 0
M  V30 5109 H 479.663 4.09804 -0.221171 0
M  V30 5110 H 479.194 3.66481 1.43023 0
M  V30 5111 H 481.209 4.26083 2.54298 0
M  V30 5112 N 480.382 0.0267497 1.57577 0
M  V30 5113 C 481.607 -0.666227 1.96408 0
M  V30 5114 C 482.032 -1.65004 0.903071 0
M  V30 5115 O 481.39 -1.80787 -0.136263 0
M  V30 5116 C 481.438 -1.35101 3.34335 0
M  V30 5117 O 480.542 -2.46623 3.30531 0
M  V30 5118 H 479.883 -0.175206 0.640468 0
M  V30 5119 H 482.413 0.0878977 2.04411 0
M  V30 5120 H 482.423 -1.70834 3.70513 0
M  V30 5121 H 481.098 -0.629844 4.11103 0
M  V30 5122 H 479.675 -2.13019 3.06068 0
M  V30 5123 N 481.861 -1.55662 -0.24637 0
M  V30 5124 C 483.272 -1.67953 -0.81539 0
M  V30 5125 C 483.623 -0.624302 -1.86002 0
M  V30 5126 O 482.748 0.229328 -2.15181 0
M  V30 5127 C 483.343 -3.04484 -1.48576 0
M  V30 5128 C 481.902 -3.18713 -2.00248 0
M  V30 5129 C 481.049 -2.6383 -0.853766 0
M  V30 5130 H 484 -1.58685 -0.0221692 0
M  V30 5131 H 484.021 -2.98959 -2.3538 0
M  V30 5132 H 483.533 -3.81264 -0.725222 0
M  V30 5133 H 481.634 -2.46757 -2.79181 0
M  V30 5134 H 481.747 -4.25628 -2.1995 0
M  V30 5135 H 480.111 -2.21667 -1.25442 0
M  V30 5136 H 480.894 -3.43135 -0.106302 0
M  V30 5137 N 483.339 0.512053 -1.4905 0
M  V30 5138 C 484.567 1.29116 -1.61669 0
M  V30 5139 C 484.982 1.86655 -0.283787 0
M  V30 5140 O 484.339 1.67293 0.729331 0
M  V30 5141 C 484.39 2.4293 -2.67707 0
M  V30 5142 O 484.111 1.87758 -3.95826 0
M  V30 5143 C 485.612 3.34476 -2.90931 0
M  V30 5144 H 482.832 0.392009 -0.544583 0
M  V30 5145 H 485.376 0.615881 -1.95006 0
M  V30 5146 H 483.531 3.06308 -2.37179 0
M  V30 5147 H 483.945 2.62393 -4.54148 0
M  V30 5148 H 485.419 4.10642 -3.68886 0
M  V30 5149 H 485.896 3.90801 -2.00427 0
M  V30 5150 H 486.502 2.76874 -3.22832 0
M  V30 5151 N 484.817 1.37938 0.762283 0
M  V30 5152 C 485.727 1.36681 1.90671 0
M  V30 5153 C 486.743 0.265078 1.71969 0
M  V30 5154 O 487.919 0.502055 1.95042 0
M  V30 5155 C 484.984 1.18211 3.25925 0
M  V30 5156 C 484.045 2.3811 3.57214 0
M  V30 5157 C 483.278 2.20512 4.86014 0
M  V30 5158 O 483.501 1.19429 5.57757 0
M  V30 5159 O 482.435 3.08911 5.16583 0
M  V30 5160 H 486.261 2.33091 1.94685 0
M  V30 5161 H 483.846 1.18767 0.906356 0
M  V30 5162 H 485.728 1.09937 4.06807 0
M  V30 5163 H 484.403 0.248807 3.22742 0
M  V30 5164 H 483.31 2.51958 2.76529 0
M  V30 5165 H 484.643 3.30041 3.65149 0
M  V30 5166 N 486.295 -0.989507 1.22664 0
M  V30 5167 C 487.258 -2.06183 1.00106 0
M  V30 5168 C 488.258 -1.60765 -0.0337726 0
M  V30 5169 O 489.448 -1.72989 0.205072 0
M  V30 5170 C 486.58 -3.37021 0.51279 0
M  V30 5171 H 487.773 -2.27629 1.95256 0
M  V30 5172 H 485.326 -1.16158 1.0458 0
M  V30 5173 H 486.061 -3.21261 -0.442917 0
M  V30 5174 H 485.846 -3.71323 1.25942 0
M  V30 5175 H 487.336 -4.1591 0.375315 0
M  V30 5176 N 487.773 -1.03688 -1.18687 0
M  V30 5177 C 488.736 -0.629115 -2.20397 0
M  V30 5178 C 489.736 0.311495 -1.57754 0
M  V30 5179 O 490.926 0.0974107 -1.73927 0
M  V30 5180 C 488.058 0.0782231 -3.4081 0
M  V30 5181 H 489.251 -1.52915 -2.57987 0
M  V30 5182 H 486.804 -0.828988 -1.32505 0
M  V30 5183 H 487.539 0.992233 -3.08748 0
M  V30 5184 H 487.324 -0.597776 -3.87517 0
M  V30 5185 H 488.814 0.350156 -4.16129 0
M  V30 5186 N 489.251 1.34841 -0.815825 0
M  V30 5187 C 490.497 1.98793 -0.401129 0
M  V30 5188 C 490.83 1.64548 1.03139 0
M  V30 5189 O 490.105 0.913487 1.71714 0
M  V30 5190 C 490.388 3.55143 -0.595409 0
M  V30 5191 C 490.241 3.99155 -2.07352 0
M  V30 5192 C 491.56 4.40092 -0.0268823 0
M  V30 5193 H 488.679 0.722146 -0.14722 0
M  V30 5194 H 491.321 1.59847 -1.02707 0
M  V30 5195 H 489.471 3.8845 -0.0625779 0
M  V30 5196 H 491.143 3.76216 -2.66945 0
M  V30 5197 H 489.386 3.49726 -2.56659 0
M  V30 5198 H 490.057 5.07971 -2.1603 0
M  V30 5199 H 492.533 4.13298 -0.482042 0
M  V30 5200 H 491.409 5.48562 -0.19267 0
M  V30 5201 H 491.67 4.29016 1.06759 0
M  V30 5202 N 490.729 0.570148 1.46925 0
M  V30 5203 C 492.145 0.23087 1.57921 0
M  V30 5204 C 492.345 -1.26676 1.56702 0
M  V30 5205 O 491.401 -2.04774 1.47729 0
M  V30 5206 C 492.714 0.868973 2.8787 0
M  V30 5207 C 494.262 0.841397 3.01479 0
M  V30 5208 C 494.737 1.45881 4.34146 0
M  V30 5209 N 496.228 1.42258 4.40814 0
M  V30 5210 C 496.963 1.8698 5.42057 0
M  V30 5211 N 496.459 2.39618 6.50042 0
M  V30 5212 N 498.252 1.77972 5.33181 0
M  V30 5213 H 490.403 1.54301 1.45962 0
M  V30 5214 H 492.666 0.644224 0.69547 0
M  V30 5215 H 492.372 1.922 2.94537 0
M  V30 5216 H 492.246 0.369682 3.75384 0
M  V30 5217 H 494.633 -0.202973 2.94401 0
M  V30 5218 H 494.714 1.37858 2.15474 0
M  V30 5219 H 494.358 2.50231 4.4198 0
M  V30 5220 H 494.288 0.896958 5.18905 0
M  V30 5221 H 496.779 1.03768 3.63374 0
M  V30 5222 H 497.092 2.71633 7.23488 0
M  V30 5223 H 495.437 2.43636 6.50897 0
M  V30 5224 H 498.628 1.36617 4.4772 0
M  V30 5225 H 498.801 2.13143 6.11943 0
M  V30 5226 N 492.207 -1.54576 0.307264 0
M  V30 5227 C 493.454 -2.00263 -0.300167 0
M  V30 5228 C 493.782 -1.19561 -1.53413 0
M  V30 5229 O 493.037 -0.261487 -1.93945 0
M  V30 5230 C 493.336 -3.50572 -0.695253 0
M  V30 5231 C 493.002 -4.48771 0.437679 0
M  V30 5232 C 491.664 -4.7534 0.748681 0
M  V30 5233 C 494.016 -5.0721 1.19949 0
M  V30 5234 C 491.344 -5.5761 1.8245 0
M  V30 5235 C 493.696 -5.90651 2.26527 0
M  V30 5236 C 492.36 -6.15528 2.58227 0
M  V30 5237 H 491.63 -0.732814 -0.109839 0
M  V30 5238 H 494.277 -1.86664 0.427661 0
M  V30 5239 H 492.582 -3.61814 -1.50326 0
M  V30 5240 H 494.279 -3.83352 -1.17653 0
M  V30 5241 H 490.869 -4.282 0.185187 0
M  V30 5242 H 495.053 -4.86679 0.972474 0
M  V30 5243 H 490.309 -5.75121 2.07476 0
M  V30 5244 H 494.483 -6.34957 2.86011 0
M  V30 5245 H 492.11 -6.79066 3.4172 0
M  V30 5246 N 493.685 -0.035106 -1.57561 0
M  V30 5247 C 494.931 0.64318 -1.92331 0
M  V30 5248 C 495.264 1.71434 -0.912368 0
M  V30 5249 O 494.539 1.94395 0.0640303 0
M  V30 5250 C 494.822 1.25411 -3.37556 0
M  V30 5251 C 494.675 0.192109 -4.4939 0
M  V30 5252 C 495.994 2.17041 -3.82859 0
M  V30 5253 H 493.113 0.232341 -0.699419 0
M  V30 5254 H 495.755 -0.0935889 -1.89769 0
M  V30 5255 H 493.905 1.88205 -3.39869 0
M  V30 5256 H 495.577 -0.438849 -4.59208 0
M  V30 5257 H 493.82 -0.481725 -4.31117 0
M  V30 5258 H 494.491 0.659292 -5.48049 0
M  V30 5259 H 496.967 1.64228 -3.8232 0
M  V30 5260 H 495.843 2.56738 -4.85157 0
M  V30 5261 H 496.104 3.06401 -3.18702 0
M  V30 5262 N 495.163 1.55791 0.238111 0
M  V30 5263 C 496.411 1.77681 0.963001 0
M  V30 5264 C 496.732 0.600674 1.85518 0
M  V30 5265 O 496.002 -0.383182 1.92116 0
M  V30 5266 H 494.582 0.655315 0.358568 0
M  V30 5267 H 497.244 1.93239 0.253945 0
M  V30 5268 H 496.34 2.69177 1.57956 0
M  V30 5269 N 496.642 -0.504142 1.49319 0
M  V30 5270 C 497.889 -1.25846 1.58647 0
M  V30 5271 C 498.217 -1.92592 0.27177 0
M  V30 5272 O 497.472 -1.81167 -0.74007 0
M  V30 5273 C 497.771 -2.35021 2.69258 0
M  V30 5274 C 497.437 -1.85755 4.1086 0
M  V30 5275 C 496.099 -1.72038 4.49395 0
M  V30 5276 C 498.451 -1.48844 4.99495 0
M  V30 5277 C 495.779 -1.19783 5.74342 0
M  V30 5278 C 498.131 -0.980422 6.24956 0
M  V30 5279 C 496.795 -0.829622 6.62324 0
M  V30 5280 H 496.065 -0.460505 0.580531 0
M  V30 5281 H 498.712 -0.559716 1.83138 0
M  V30 5282 H 497.017 -3.10672 2.38726 0
M  V30 5283 H 498.714 -2.93083 2.73685 0
M  V30 5284 H 495.304 -1.9739 3.80441 0
M  V30 5285 H 499.488 -1.5829 4.70381 0
M  V30 5286 H 494.744 -1.06817 6.01997 0
M  V30 5287 H 498.918 -0.685608 6.93017 0
M  V30 5288 H 496.545 -0.42253 7.59025 0
M  V30 5289 N 498.12 -1.38341 -0.754957 0
M  V30 5290 C 499.531 -1.30803 -1.3322 0
M  V30 5291 C 499.882 0.0368 -1.96165 0
M  V30 5292 O 499.007 0.938844 -1.94974 0
M  V30 5293 C 499.602 -2.3688 -2.42225 0
M  V30 5294 C 498.161 -2.32925 -2.95674 0
M  V30 5295 C 497.308 -2.19819 -1.69042 0
M  V30 5296 H 500.259 -1.48719 -0.553937 0
M  V30 5297 H 500.28 -2.02517 -3.22129 0
M  V30 5298 H 499.792 -3.34747 -1.96383 0
M  V30 5299 H 497.893 -1.38635 -3.45848 0
M  V30 5300 H 498.006 -3.27008 -3.50146 0
M  V30 5301 H 496.37 -1.66648 -1.92615 0
M  V30 5302 H 497.153 -3.19625 -1.25279 0
M  V30 5303 N 499.598 0.982988 -1.23187 0
M  V30 5304 C 500.875 1.69814 -0.970707 0
M  V30 5305 C 501.255 2.04811 0.511424 0
M  V30 5306 O 500.603 1.73924 1.48198 0
M  V30 5307 C 500.813 2.94143 -1.87831 0
M  V30 5308 C 502.161 3.66712 -2.14026 0
M  V30 5309 O 503.185 3.04171 -1.8536 0
M  V30 5310 O 502.044 4.79258 -2.62629 0
M  V30 5311 H 499.138 0.741659 -0.365884 0
M  V30 5312 H 501.684 1.03844 -1.34218 0
M  V30 5313 H 500.456 2.64858 -2.88038 0
M  V30 5314 H 500.079 3.6785 -1.50905 0
M  V30 5315 N 501.076 1.04316 1.18135 0
M  V30 5316 C 502.023 0.636398 2.21853 0
M  V30 5317 C 502.993 -0.357039 1.62217 0
M  V30 5318 O 504.178 -0.250453 1.89149 0
M  V30 5319 C 501.318 0.00812779 3.45099 0
M  V30 5320 C 500.431 1.04933 4.19062 0
M  V30 5321 C 499.566 0.389313 5.29771 0
M  V30 5322 C 498.605 1.41544 5.9551 0
M  V30 5323 N 497.742 0.78021 6.97751 0
M  V30 5324 H 502.582 1.52536 2.56002 0
M  V30 5325 H 500.119 0.76304 1.25762 0
M  V30 5326 H 502.077 -0.373497 4.15525 0
M  V30 5327 H 500.707 -0.844336 3.11562 0
M  V30 5328 H 499.759 1.54888 3.47439 0
M  V30 5329 H 501.071 1.82862 4.64072 0
M  V30 5330 H 500.225 -0.0463805 6.06682 0
M  V30 5331 H 498.964 -0.422038 4.8587 0
M  V30 5332 H 497.969 1.86124 5.17337 0
M  V30 5333 H 499.194 2.22854 6.41493 0
M  V30 5334 H 497.14 -0.0107899 6.55999 0
M  V30 5335 H 497.057 1.49716 7.41027 0
M  V30 5336 H 498.325 0.368996 7.78626 0
M  V30 5337 N 502.554 -1.34406 0.822964 0
M  V30 5338 C 503.501 -2.29519 0.24284 0
M  V30 5339 C 504.471 -1.5359 -0.632397 0
M  V30 5340 O 505.656 -1.8196 -0.57403 0
M  V30 5341 C 502.796 -3.40032 -0.58925 0
M  V30 5342 C 501.909 -4.30899 0.308236 0
M  V30 5343 C 501.044 -5.28515 -0.533425 0
M  V30 5344 C 500.083 -6.1102 0.363444 0
M  V30 5345 N 499.22 -7.00725 -0.439147 0
M  V30 5346 H 504.06 -2.78537 1.05929 0
M  V30 5347 H 501.597 -1.3707 0.533872 0
M  V30 5348 H 503.555 -4.0279 -1.087 0
M  V30 5349 H 502.185 -2.92248 -1.37081 0
M  V30 5350 H 501.237 -3.69002 0.924203 0
M  V30 5351 H 502.549 -4.88717 0.997862 0
M  V30 5352 H 501.703 -5.96725 -1.09565 0
M  V30 5353 H 500.442 -4.71235 -1.25656 0
M  V30 5354 H 499.447 -5.41743 0.937812 0
M  V30 5355 H 500.672 -6.70381 1.08469 0
M  V30 5356 H 498.618 -6.45913 -1.14595 0
M  V30 5357 H 498.535 -7.55756 0.19209 0
M  V30 5358 H 499.803 -7.73263 -0.984124 0
M  V30 5359 N 504.032 -0.577932 -1.46621 0
M  V30 5360 C 504.982 0.178869 -2.27297 0
M  V30 5361 C 505.966 0.866279 -1.35589 0
M  V30 5362 O 507.158 0.761163 -1.59798 0
M  V30 5363 C 504.287 1.19499 -3.2183 0
M  V30 5364 C 503.373 0.50994 -4.21023 0
M  V30 5365 N 503.764 -0.43177 -5.03954 0
M  V30 5366 C 502.062 0.761287 -4.39455 0
M  V30 5367 C 502.763 -0.831693 -5.75724 0
M  V30 5368 N 501.739 -0.181897 -5.43296 0
M  V30 5369 H 505.541 -0.544859 -2.88805 0
M  V30 5370 H 503.055 -0.399373 -1.57413 0
M  V30 5371 H 505.052 1.75131 -3.78332 0
M  V30 5372 H 503.712 1.91959 -2.61881 0
M  V30 5373 H 504.723 -0.807045 -5.11573 0
M  V30 5374 H 501.4 1.47282 -3.90659 0
M  V30 5375 H 502.79 -1.6067 -6.52407 0
M  V30 5376 N 505.51 1.54411 -0.315457 0
M  V30 5377 C 506.457 2.24048 0.554166 0
M  V30 5378 C 507.427 1.2283 1.11812 0
M  V30 5379 O 508.612 1.51491 1.15997 0
M  V30 5380 C 505.752 2.99574 1.71316 0
M  V30 5381 C 504.865 4.15594 1.17922 0
M  V30 5382 C 504 4.78669 2.30324 0
M  V30 5383 C 503.039 5.86807 1.74137 0
M  V30 5384 N 502.176 6.43777 2.8017 0
M  V30 5385 H 507.016 2.97964 -0.0462602 0
M  V30 5386 H 504.553 1.47059 -0.0346009 0
M  V30 5387 H 506.511 3.41604 2.39505 0
M  V30 5388 H 505.141 2.28008 2.285 0
M  V30 5389 H 504.193 3.78404 0.389136 0
M  V30 5390 H 505.505 4.93459 0.728012 0
M  V30 5391 H 504.659 5.23626 3.06433 0
M  V30 5392 H 503.398 4.00168 2.78778 0
M  V30 5393 H 502.403 5.41261 0.965236 0
M  V30 5394 H 503.628 6.67201 1.2657 0
M  V30 5395 H 501.574 5.68153 3.2793 0
M  V30 5396 H 501.491 7.17031 2.39588 0
M  V30 5397 H 502.759 6.9339 3.56132 0
M  V30 5398 N 506.988 0.0434614 1.5754 0
M  V30 5399 C 507.918 -0.931651 2.14109 0
M  V30 5400 C 508.899 -1.32971 1.06079 0
M  V30 5401 O 510.084 -1.40579 1.33982 0
M  V30 5402 C 507.214 -2.20914 2.67982 0
M  V30 5403 C 506.168 -1.95139 3.80926 0
M  V30 5404 C 505.494 -3.29276 4.21285 0
M  V30 5405 C 506.794 -1.27913 5.06395 0
M  V30 5406 H 508.488 -0.460497 2.95837 0
M  V30 5407 H 506.034 -0.220058 1.42309 0
M  V30 5408 H 507.987 -2.89522 3.06194 0
M  V30 5409 H 506.711 -2.70221 1.83434 0
M  V30 5410 H 505.37 -1.28945 3.43175 0
M  V30 5411 H 505.018 -3.76369 3.33699 0
M  V30 5412 H 504.718 -3.12831 4.97404 0
M  V30 5413 H 506.242 -3.99129 4.62091 0
M  V30 5414 H 507.656 -1.86544 5.42102 0
M  V30 5415 H 506.053 -1.2182 5.87605 0
M  V30 5416 H 507.123 -0.254066 4.84234 0
M  V30 5417 N 508.466 -1.55915 -0.229846 0
M  V30 5418 C 509.696 -1.82352 -0.971152 0
M  V30 5419 C 510.104 -0.619231 -1.7878 0
M  V30 5420 O 509.447 0.421597 -1.78797 0
M  V30 5421 C 509.509 -3.02399 -1.9441 0
M  V30 5422 C 509.173 -4.37739 -1.31277 0
M  V30 5423 C 510.17 -5.15074 -0.706757 0
M  V30 5424 C 507.855 -4.84454 -1.32702 0
M  V30 5425 C 509.849 -6.37281 -0.123413 0
M  V30 5426 C 507.536 -6.06605 -0.739831 0
M  V30 5427 C 508.534 -6.82858 -0.139071 0
M  V30 5428 O 508.222 -8.027 0.439007 0
M  V30 5429 H 507.954 -0.61035 -0.290601 0
M  V30 5430 H 510.508 -2.03839 -0.252746 0
M  V30 5431 H 508.738 -2.76709 -2.70128 0
M  V30 5432 H 510.427 -3.15779 -2.55026 0
M  V30 5433 H 511.193 -4.80093 -0.688131 0
M  V30 5434 H 507.072 -4.25081 -1.78402 0
M  V30 5435 H 510.616 -6.96741 0.346124 0
M  V30 5436 H 506.513 -6.4106 -0.755841 0
M  V30 5437 H 507.281 -8.17824 0.332521 0
M  V30 5438 N 509.944 0.496216 -1.49584 0
M  V30 5439 C 511.192 1.24756 -1.58998 0
M  V30 5440 C 511.513 1.92968 -0.280775 0
M  V30 5441 O 510.783 1.82959 0.700198 0
M  V30 5442 H 509.363 0.463471 -0.585836 0
M  V30 5443 H 512.025 0.574678 -1.86235 0
M  V30 5444 H 511.121 2.00895 -2.38847 0
M  V30 5445 N 511.423 1.38739 0.74761 0
M  V30 5446 C 512.669 1.35475 1.50912 0
M  V30 5447 C 513.002 -0.0533093 1.94127 0
M  V30 5448 O 512.277 -1.01572 1.65871 0
M  V30 5449 C 512.56 2.31582 2.75757 0
M  V30 5450 C 512.413 3.81274 2.38642 0
M  V30 5451 C 513.732 2.25722 3.77806 0
M  V30 5452 H 510.851 0.493427 0.547447 0
M  V30 5453 H 513.493 1.69634 0.855823 0
M  V30 5454 H 511.643 2.02582 3.31501 0
M  V30 5455 H 513.315 4.20972 1.88626 0
M  V30 5456 H 511.558 3.98664 1.71025 0
M  V30 5457 H 512.229 4.4399 3.27989 0
M  V30 5458 H 514.705 2.51336 3.31616 0
M  V30 5459 H 513.581 2.95069 4.62845 0
M  V30 5460 H 513.842 1.25803 4.23823 0
M  V30 5461 N 512.901 -0.976442 1.23707 0
M  V30 5462 C 514.131 -1.75087 1.09673 0
M  V30 5463 C 514.539 -1.85852 -0.354344 0
M  V30 5464 O 513.882 -1.33985 -1.25673 0
M  V30 5465 C 513.944 -3.19272 1.65245 0
M  V30 5466 C 513.608 -3.32004 3.14042 0
M  V30 5467 C 514.605 -3.18017 4.11292 0
M  V30 5468 C 512.29 -3.56525 3.53829 0
M  V30 5469 C 514.284 -3.28363 5.46312 0
M  V30 5470 C 511.971 -3.6651 4.88993 0
M  V30 5471 C 512.969 -3.52439 5.85043 0
M  V30 5472 O 512.657 -3.62063 7.1775 0
M  V30 5473 H 512.389 -0.556164 0.384262 0
M  V30 5474 H 514.943 -1.23518 1.64111 0
M  V30 5475 H 513.173 -3.72107 1.05231 0
M  V30 5476 H 514.862 -3.7849 1.46629 0
M  V30 5477 H 515.628 -2.98966 3.81896 0
M  V30 5478 H 511.507 -3.66547 2.79579 0
M  V30 5479 H 515.051 -3.17297 6.21263 0
M  V30 5480 H 510.948 -3.85072 5.18063 0
M  V30 5481 H 511.716 -3.78833 7.25553 0
M  V30 5482 N 514.379 -1.04941 -1.1758 0
M  V30 5483 C 515.619 -0.766996 -1.89464 0
M  V30 5484 C 515.983 0.693123 -1.79053 0
M  V30 5485 O 517.184 1.08953 -2.45729 0
M  V30 5486 C 515.455 -1.23108 -3.35528 0
M  V30 5487 S 517.014 -1.07565 -4.25412 0
M  V30 5488 H 513.832 -0.278616 -0.654136 0
M  V30 5489 H 516.434 -1.34352 -1.4202 0
M  V30 5490 H 515.138 -2.28896 -3.40639 0
M  V30 5491 H 514.669 -0.648724 -3.88014 0
M  V30 5492 H 516.684 0.00169467 -4.962 0
M  V30 5493 N 515.857 1.33968 -0.830081 0
M  V30 5494 C 517.104 1.98063 -0.421566 0
M  V30 5495 C 517.432 1.65787 1.0171 0
M  V30 5496 O 516.687 0.925348 1.72441 0
M  V30 5497 C 516.986 3.52679 -0.57898 0
M  V30 5498 C 516.652 4.04884 -1.98443 0
M  V30 5499 C 515.314 4.18852 -2.36888 0
M  V30 5500 C 517.666 4.32879 -2.90285 0
M  V30 5501 C 514.994 4.58145 -3.66497 0
M  V30 5502 C 517.346 4.7362 -4.19364 0
M  V30 5503 C 516.01 4.85794 -4.57778 0
M  V30 5504 H 515.28 0.724765 -0.154262 0
M  V30 5505 H 517.927 1.59792 -1.05541 0
M  V30 5506 H 516.232 3.91556 0.138219 0
M  V30 5507 H 517.929 4.00261 -0.243317 0
M  V30 5508 H 514.519 3.9448 -1.67581 0
M  V30 5509 H 518.703 4.21619 -2.61823 0
M  V30 5510 H 513.959 4.65762 -3.96075 0
M  V30 5511 H 518.133 4.9424 -4.90612 0
M  V30 5512 H 515.76 5.15998 -5.58256 0
M  V30 5513 N 517.335 0.585699 1.46312 0
M  V30 5514 C 518.751 0.247607 1.57668 0
M  V30 5515 C 518.951 -1.25007 1.58037 0
M  V30 5516 O 518.007 -2.03196 1.49893 0
M  V30 5517 C 519.32 0.899456 2.86933 0
M  V30 5518 C 520.868 0.873326 3.00569 0
M  V30 5519 C 521.343 1.50477 4.32574 0
M  V30 5520 N 522.834 1.46925 4.3928 0
M  V30 5521 C 523.569 1.92719 5.40044 0
M  V30 5522 N 523.065 2.46499 6.47464 0
M  V30 5523 N 524.858 1.83617 5.31264 0
M  V30 5524 H 517.009 1.55841 1.44317 0
M  V30 5525 H 519.272 0.651564 0.688599 0
M  V30 5526 H 518.978 1.95313 2.92482 0
M  V30 5527 H 518.852 0.409476 3.74971 0
M  V30 5528 H 521.239 -0.171736 2.946 0
M  V30 5529 H 521.32 1.40136 2.13999 0
M  V30 5530 H 520.964 2.54905 4.39302 0
M  V30 5531 H 520.894 0.951944 5.17924 0
M  V30 5532 H 523.385 1.07616 3.62253 0
M  V30 5533 H 523.698 2.79291 7.20567 0
M  V30 5534 H 522.043 2.50526 6.48276 0
M  V30 5535 H 525.234 1.41358 4.46246 0
M  V30 5536 H 525.407 2.19622 6.09648 0
M  V30 5537 N 518.813 -1.54241 0.323641 0
M  V30 5538 C 519.776 -2.22997 -0.529602 0
M  V30 5539 C 520.776 -1.22345 -1.04347 0
M  V30 5540 O 521.966 -1.46924 -0.935889 0
M  V30 5541 C 519.098 -2.93409 -1.73562 0
M  V30 5542 H 520.291 -2.99815 0.0714518 0
M  V30 5543 H 517.844 -1.56121 0.0747258 0
M  V30 5544 H 518.579 -2.20729 -2.37591 0
M  V30 5545 H 518.364 -3.67217 -1.37456 0
M  V30 5546 H 519.854 -3.45794 -2.34128 0
M  V30 5547 N 520.291 -0.0518155 -1.57515 0
M  V30 5548 C 521.521 0.63048 -1.96745 0
M  V30 5549 C 521.929 1.64875 -0.928054 0
M  V30 5550 O 521.272 1.83449 0.0960678 0
M  V30 5551 C 521.334 1.37381 -3.32215 0
M  V30 5552 C 520.998 0.511298 -4.54131 0
M  V30 5553 C 521.995 -0.222884 -5.19422 0
M  V30 5554 C 519.68 0.442035 -5.00351 0
M  V30 5555 C 521.674 -1.01476 -6.2927 0
M  V30 5556 C 519.361 -0.35353 -6.10077 0
M  V30 5557 C 520.359 -1.08062 -6.74397 0
M  V30 5558 O 520.047 -1.8631 -7.82013 0
M  V30 5559 H 519.779 0.177126 -0.652382 0
M  V30 5560 H 522.333 -0.114726 -2.05079 0
M  V30 5561 H 520.563 2.16466 -3.20436 0
M  V30 5562 H 522.252 1.9464 -3.56188 0
M  V30 5563 H 523.018 -0.178846 -4.8467 0
M  V30 5564 H 518.897 0.997562 -4.50077 0
M  V30 5565 H 522.441 -1.58279 -6.79407 0
M  V30 5566 H 518.338 -0.399205 -6.44264 0
M  V30 5567 H 519.106 -1.78528 -7.98793 0
M  V30 5568 N 521.769 1.56035 0.221574 0
M  V30 5569 C 522.717 1.93269 1.29421 0
M  V30 5570 C 523.711 0.814727 1.48521 0
M  V30 5571 O 524.917 0.999559 1.49696 0
M  V30 5572 H 521.292 0.614188 0.43391 0
M  V30 5573 H 523.263 2.82773 0.952987 0
M  V30 5574 C 522.012 2.26573 2.63742 0
M  V30 5575 H 521.335 3.12112 2.49853 0
M  V30 5576 H 522.775 2.5651 3.37607 0
M  V30 5577 C 521.234 1.09086 3.1875 0
M  V30 5578 O 521.764 0.351985 4.00155 0
M  V30 5579 N 519.97 0.874693 2.77124 0
M  V30 5580 H 519.517 1.47726 2.11033 0
M  V30 5581 H 519.475 0.0903349 3.1427 0
M  V30 5582 O 523.286 -0.367026 1.57274 0
M  V30 5583 H 523.977 -1.01783 1.64803 0
M  V30 END ATOM
M  V30 BEGIN BOND
M  V30 END BOND
M  V30 END CTAB
M  END
$$$$
