drugbank_target|P10909 Clusterin (DB01593; DB09130; DB14487; DB14533; DB14548)
 OpenBabel12092121073D

  0  0  0     0  0            999 V3000
M  V30 BEGIN CTAB
M  V30 COUNTS 7294 7370 0 0 0
M  V30 BEGIN ATOM
M  V30 1 H -0.908 1.98254 -0.117106 0
M  V30 2 N 0 1.576 0 0
M  V30 3 C 0.933 2.03868 1.02534 0
M  V30 4 C 1.911 0.928543 1.3348 0
M  V30 5 O 3.095 1.19667 1.45644 0
M  V30 6 C 0.222 2.43627 2.35294 0
M  V30 7 C -0.732 3.65373 2.2001 0
M  V30 8 S 0.101 5.13292 1.52614 0
M  V30 9 C 1.257 5.56322 2.86805 0
M  V30 10 H 1.49 2.90518 0.631377 0
M  V30 11 H -0.977 1.52953 0.210867 0
M  V30 12 H 0.981 2.67203 3.11629 0
M  V30 13 H -0.358 1.57376 2.7183 0
M  V30 14 H -1.165 3.90944 3.18086 0
M  V30 15 H -1.563 3.418 1.51819 0
M  V30 16 H 0.729 5.58782 3.83104 0
M  V30 17 H 1.672 6.56266 2.65933 0
M  V30 18 H 2.08 4.83886 2.90714 0
M  V30 19 N 1.4781 -0.272755 1.55222 0
M  V30 20 C 2.4111 -1.3627 1.83046 0
M  V30 21 C 3.3891 -1.47536 0.683521 0
M  V30 22 O 4.5731 -1.64157 0.926545 0
M  V30 23 C 1.7001 -2.73908 1.99229 0
M  V30 24 C 0.7461 -2.79925 3.21783 0
M  V30 25 S 1.5791 -2.39146 4.79134 0
M  V30 26 C 2.7351 -3.78758 4.9829 0
M  V30 27 H 2.9681 -1.12464 2.75207 0
M  V30 28 H 0.5011 -0.472398 1.46996 0
M  V30 29 H 2.4591 -3.53171 2.09238 0
M  V30 30 H 1.1201 -2.94965 1.07956 0
M  V30 31 H 0.3131 -3.80946 3.29994 0
M  V30 32 H -0.0849 -2.08683 3.10367 0
M  V30 33 H 2.2071 -4.7403 4.84047 0
M  V30 34 H 3.1501 -3.75499 6.00338 0
M  V30 35 H 3.5581 -3.70072 4.26271 0
M  V30 36 N 2.9562 -1.48159 -0.537278 0
M  V30 37 C 3.9032 -1.62138 -1.64256 0
M  V30 38 C 4.8732 -0.463668 -1.59497 0
M  V30 39 O 6.0582 -0.686241 -1.78032 0
M  V30 40 C 3.1982 -1.66028 -3.02537 0
M  V30 41 C 2.3112 -2.92855 -3.17585 0
M  V30 42 C 1.4462 -2.87952 -4.46382 0
M  V30 43 C 0.4852 -4.09516 -4.54932 0
M  V30 44 N -0.3778 -4.02733 -5.75109 0
M  V30 45 H 4.4622 -2.56529 -1.51647 0
M  V30 46 H 1.9992 -1.27224 -0.738414 0
M  V30 47 H 3.9572 -1.66265 -3.82638 0
M  V30 48 H 2.5872 -0.751331 -3.13934 0
M  V30 49 H 1.6392 -3.02395 -2.30784 0
M  V30 50 H 2.9512 -3.82822 -3.19764 0
M  V30 51 H 2.1052 -2.8655 -5.34765 0
M  V30 52 H 0.8442 -1.95702 -4.46712 0
M  V30 53 H -0.1508 -4.11201 -3.64957 0
M  V30 54 H 1.0742 -5.02917 -4.56346 0
M  V30 55 H -0.9798 -3.13299 -5.76351 0
M  V30 56 H -1.0628 -4.86397 -5.78752 0
M  V30 57 H 0.2052 -4.05379 -6.65799 0
M  V30 58 N 4.4343 0.785586 -1.36625 0
M  V30 59 C 5.6623 1.57448 -1.3423 0
M  V30 60 C 6.0773 1.88649 0.0755653 0
M  V30 61 O 5.4343 1.50414 1.03354 0
M  V30 62 C 5.4853 2.89316 -2.16745 0
M  V30 63 O 5.2063 2.59459 -3.53005 0
M  V30 64 C 6.7073 3.83606 -2.22174 0
M  V30 65 H 3.9273 0.488226 -0.4603 0
M  V30 66 H 6.4713 0.974733 -1.79775 0
M  V30 67 H 4.6263 3.4575 -1.74745 0
M  V30 68 H 5.0403 3.43804 -3.96105 0
M  V30 69 H 6.5143 4.73181 -2.8426 0
M  V30 70 H 6.9913 4.21734 -1.22627 0
M  V30 71 H 7.5973 3.33104 -2.64427 0
M  V30 72 N 5.9124 1.20967 1.01018 0
M  V30 73 C 6.8424 0.988272 2.11555 0
M  V30 74 C 7.8234 -0.0849778 1.69888 0
M  V30 75 O 9.0084 0.0738202 1.9406 0
M  V30 76 C 6.1384 0.546528 3.42973 0
M  V30 77 C 5.0924 1.56375 3.9841 0
M  V30 78 C 4.4184 0.97842 5.25672 0
M  V30 79 C 5.7184 2.94922 4.31066 0
M  V30 80 H 7.4124 1.91276 2.30334 0
M  V30 81 H 4.9584 0.921073 1.1069 0
M  V30 82 H 6.9114 0.378839 4.19694 0
M  V30 83 H 5.6354 -0.413598 3.23971 0
M  V30 84 H 4.2944 1.71891 3.23804 0
M  V30 85 H 3.9424 0.0101688 5.02999 0
M  V30 86 H 3.6424 1.65784 5.63728 0
M  V30 87 H 5.1664 0.821939 6.05043 0
M  V30 88 H 6.5804 2.8288 4.9865 0
M  V30 89 H 4.9774 3.5983 4.80253 0
M  V30 90 H 6.0474 3.4616 3.39561 0
M  V30 91 N 7.3905 -1.2043 1.01659 0
M  V30 92 C 8.3205 -2.25466 0.607226 0
M  V30 93 C 9.3015 -1.65853 -0.377716 0
M  V30 94 O 10.4865 -1.92409 -0.263149 0
M  V30 95 C 7.6165 -3.47256 -0.0552949 0
M  V30 96 C 6.5705 -4.19462 0.850632 0
M  V30 97 C 5.8965 -5.34673 0.0538859 0
M  V30 98 C 7.1965 -4.75603 2.15868 0
M  V30 99 H 8.8905 -2.59962 1.48526 0
M  V30 100 H 6.4365 -1.2496 0.715605 0
M  V30 101 H 8.3895 -4.19917 -0.353233 0
M  V30 102 H 7.1135 -3.11924 -0.968045 0
M  V30 103 H 5.7725 -3.48667 1.13257 0
M  V30 104 H 5.4205 -4.95585 -0.860514 0
M  V30 105 H 5.1205 -5.83913 0.657192 0
M  V30 106 H 6.6445 -6.10138 -0.237598 0
M  V30 107 H 8.0585 -5.40083 1.92311 0
M  V30 108 H 6.4555 -5.3528 2.71284 0
M  V30 109 H 7.5255 -3.94346 2.82169 0
M  V30 110 N 8.8686 -0.792821 -1.36206 0
M  V30 111 C 9.7986 -0.207853 -2.32573 0
M  V30 112 C 10.7796 0.659055 -1.56813 0
M  V30 113 O 11.9646 0.592176 -1.84951 0
M  V30 114 C 9.0946 0.655449 -3.41059 0
M  V30 115 C 8.0486 -0.111842 -4.27854 0
M  V30 116 C 7.3746 0.872274 -5.27537 0
M  V30 117 C 8.6746 -1.30299 -5.05786 0
M  V30 118 H 10.3686 -1.01294 -2.81744 0
M  V30 119 H 7.9146 -0.48854 -1.3546 0
M  V30 120 H 9.8676 1.07464 -4.07467 0
M  V30 121 H 8.5916 1.49328 -2.90463 0
M  V30 122 H 7.2506 -0.512053 -3.63006 0
M  V30 123 H 6.8986 1.70523 -4.73214 0
M  V30 124 H 6.5986 0.363291 -5.86476 0
M  V30 125 H 8.1226 1.28996 -5.96818 0
M  V30 126 H 9.5366 -0.959379 -5.65216 0
M  V30 127 H 7.9336 -1.7455 -5.74154 0
M  V30 128 H 9.0036 -2.09663 -4.37229 0
M  V30 129 N 10.3467 1.47872 -0.545128 0
M  V30 130 C 11.5937 2.02493 -0.0165858 0
M  V30 131 C 11.9217 1.42073 1.32836 0
M  V30 132 O 11.1767 0.561459 1.87473 0
M  V30 133 C 11.4757 3.57131 0.13867 0
M  V30 134 C 11.1417 4.36411 -1.13384 0
M  V30 135 C 9.8037 4.57792 -1.48256 0
M  V30 136 C 12.1557 4.82223 -1.97764 0
M  V30 137 C 9.4837 5.22233 -2.67376 0
M  V30 138 C 11.8357 5.47977 -3.16076 0
M  V30 139 C 10.4997 5.67593 -3.51275 0
M  V30 140 H 9.7697 0.740975 -0.00606918 0
M  V30 141 H 12.4167 1.77683 -0.714207 0
M  V30 142 H 10.7217 3.80865 0.919172 0
M  V30 143 H 12.4187 3.97031 0.562782 0
M  V30 144 H 9.0087 4.2004 -0.852297 0
M  V30 145 H 13.1927 4.65493 -1.72132 0
M  V30 146 H 8.4487 5.35616 -2.94831 0
M  V30 147 H 12.6227 5.8244 -3.81755 0
M  V30 148 H 10.2497 6.17298 -4.43675 0
M  V30 149 N 11.8248 0.280983 1.55075 0
M  V30 150 C 13.0708 -0.33461 2.00021 0
M  V30 151 C 13.4038 -1.55063 1.16915 0
M  V30 152 O 12.6788 -1.93006 0.240646 0
M  V30 153 C 12.9618 -0.711007 3.53011 0
M  V30 154 C 12.8148 0.512766 4.46868 0
M  V30 155 C 14.1338 -1.54522 4.12081 0
M  V30 156 H 11.2528 -0.120147 0.727141 0
M  V30 157 H 13.8948 0.389097 1.85973 0
M  V30 158 H 12.0448 -1.32761 3.65112 0
M  V30 159 H 13.7168 1.15131 4.46702 0
M  V30 160 H 11.9598 1.14975 4.18286 0
M  V30 161 H 12.6308 0.205556 5.51617 0
M  V30 162 H 15.1068 -1.02442 4.03293 0
M  V30 163 H 13.9828 -1.77739 5.19327 0
M  V30 164 H 14.2438 -2.52813 3.62682 0
M  V30 165 N 13.3029 -1.57598 0.00835791 0
M  V30 166 C 14.5509 -1.90551 -0.6734 0
M  V30 167 C 14.8719 -0.883301 -1.73847 0
M  V30 168 O 14.1419 0.0781442 -1.95744 0
M  V30 169 H 12.7219 -0.703312 -0.251717 0
M  V30 170 H 15.3839 -1.94833 0.0512592 0
M  V30 171 H 14.4799 -2.9056 -1.13935 0
M  V30 172 N 14.781 0.264519 -1.55364 0
M  V30 173 C 15.711 1.33121 -1.91836 0
M  V30 174 C 16.692 1.51101 -0.781192 0
M  V30 175 O 17.877 1.64003 -1.04003 0
M  V30 176 C 15.007 2.68921 -2.19769 0
M  V30 177 C 13.961 2.65661 -3.35571 0
M  V30 178 C 13.287 4.05093 -3.49004 0
M  V30 179 C 14.587 2.24187 -4.71739 0
M  V30 180 H 16.281 1.02844 -2.81182 0
M  V30 181 H 13.827 0.493286 -1.35287 0
M  V30 182 H 15.78 3.43663 -2.43872 0
M  V30 183 H 14.504 3.00799 -1.27231 0
M  V30 184 H 13.163 1.93377 -3.1145 0
M  V30 185 H 12.811 4.34206 -2.53917 0
M  V30 186 H 12.511 4.03804 -4.26868 0
M  V30 187 H 14.035 4.81561 -3.75408 0
M  V30 188 H 15.449 2.88654 -4.9533 0
M  V30 189 H 13.846 2.34044 -5.52579 0
M  V30 190 H 14.916 1.19327 -4.69988 0
M  V30 191 N 16.2591 1.48442 0.529413 0
M  V30 192 C 17.1891 1.65902 1.64313 0
M  V30 193 C 18.1701 0.507897 1.6234 0
M  V30 194 O 19.3551 0.740503 1.79528 0
M  V30 195 C 16.4851 1.69911 3.02898 0
M  V30 196 C 15.4391 2.8453 3.19729 0
M  V30 197 C 14.7651 2.73629 4.59381 0
M  V30 198 C 16.0651 4.25821 3.02447 0
M  V30 199 H 17.7591 2.5914 1.49955 0
M  V30 200 H 15.3051 1.24709 0.719982 0
M  V30 201 H 17.2581 1.80715 3.80684 0
M  V30 202 H 15.9821 0.732524 3.18279 0
M  V30 203 H 14.6411 2.73283 2.44361 0
M  V30 204 H 14.2891 1.74938 4.71599 0
M  V30 205 H 13.9891 3.50541 4.71588 0
M  V30 206 H 15.5131 2.86401 5.39265 0
M  V30 207 H 16.9271 4.37898 3.70024 0
M  V30 208 H 15.3241 5.03735 3.26146 0
M  V30 209 H 16.3941 4.42244 1.98867 0
M  V30 210 N 17.7372 -0.778329 1.37039 0
M  V30 211 C 18.6672 -1.90546 1.34962 0
M  V30 212 C 19.6482 -1.68681 0.219274 0
M  V30 213 O 20.8332 -1.89634 0.418624 0
M  V30 214 C 17.9632 -3.27734 1.14925 0
M  V30 215 C 16.9172 -3.64147 2.24902 0
M  V30 216 C 16.2432 -4.99806 1.89996 0
M  V30 217 C 17.5432 -3.71579 3.67051 0
M  V30 218 H 19.2372 -1.92541 2.29277 0
M  V30 219 H 16.7832 -0.924948 1.10366 0
M  V30 220 H 18.7362 -4.06215 1.12104 0
M  V30 221 H 17.4602 -3.26154 0.170631 0
M  V30 222 H 16.1192 -2.8797 2.26868 0
M  V30 223 H 15.7672 -4.94759 0.906796 0
M  V30 224 H 15.4672 -5.25139 2.63634 0
M  V30 225 H 16.9912 -5.80694 1.88749 0
M  V30 226 H 18.4052 -4.40227 3.67251 0
M  V30 227 H 16.8022 -4.08405 4.39688 0
M  V30 228 H 17.8722 -2.72404 4.01154 0
M  V30 229 N 19.2153 -1.21501 -1.00376 0
M  V30 230 C 20.4433 -1.059 -1.77744 0
M  V30 231 C 20.8583 0.391125 -1.84704 0
M  V30 232 O 20.2153 1.27133 -1.30933 0
M  V30 233 C 20.2663 -1.65111 -3.21591 0
M  V30 234 O 19.9873 -3.0445 -3.15027 0
M  V30 235 C 21.4883 -1.54637 -4.15454 0
M  V30 236 H 18.7083 -0.371825 -0.558558 0
M  V30 237 H 21.2523 -1.60865 -1.26264 0
M  V30 238 H 19.4073 -1.14235 -3.70175 0
M  V30 239 H 19.8213 -3.3278 -4.0541 0
M  V30 240 H 21.2953 -2.00808 -5.14179 0
M  V30 241 H 21.7723 -0.501022 -4.36333 0
M  V30 242 H 22.3783 -2.04767 -3.72761 0
M  V30 243 N 20.6934 1.19889 -1.02296 0
M  V30 244 C 21.9394 1.89973 -0.726759 0
M  V30 245 C 22.2944 1.7776 0.73614 0
M  V30 246 O 21.5874 1.15523 1.52856 0
M  V30 247 C 21.7814 3.39883 -1.10518 0
M  V30 248 C 21.6104 3.66684 -2.60332 0
M  V30 249 C 20.3804 3.85045 -3.27213 0
M  V30 250 C 22.5784 3.68727 -3.58532 0
M  V30 251 N 20.5604 3.99422 -4.66192 0
M  V30 252 C 21.9314 3.88604 -4.83101 0
M  V30 253 C 23.9864 3.51722 -3.52414 0
M  V30 254 C 22.6894 3.9324 -6.02292 0
M  V30 255 C 24.7154 3.57632 -4.71013 0
M  V30 256 C 24.0774 3.77988 -5.94394 0
M  V30 257 H 20.1764 0.714551 -0.317712 0
M  V30 258 H 22.7604 1.44123 -1.30907 0
M  V30 259 H 20.9314 3.8447 -0.551142 0
M  V30 260 H 22.6634 3.97464 -0.761853 0
M  V30 261 H 19.4184 3.83689 -2.77632 0
M  V30 262 H 19.8424 4.10473 -5.38368 0
M  V30 263 H 24.4844 3.34945 -2.58015 0
M  V30 264 H 22.2024 4.08811 -6.97065 0
M  V30 265 H 25.7884 3.45773 -4.67902 0
M  V30 266 H 24.6684 3.82428 -6.8463 0
M  V30 267 N 22.1715 0.800033 1.35784 0
M  V30 268 C 23.0815 0.207204 2.33683 0
M  V30 269 C 24.0975 -0.64631 1.61551 0
M  V30 270 O 25.2735 -0.559604 1.93469 0
M  V30 271 C 22.3385 -0.639659 3.40748 0
M  V30 272 C 21.3995 0.233585 4.28664 0
M  V30 273 C 20.6325 -0.572954 5.30616 0
M  V30 274 O 20.8555 -1.80816 5.40982 0
M  V30 275 O 19.7895 0.0327285 6.01891 0
M  V30 276 H 23.6155 1.01692 2.86169 0
M  V30 277 H 21.2005 0.561691 1.38439 0
M  V30 278 H 23.0825 -1.12223 4.06182 0
M  V30 279 H 21.7575 -1.42708 2.90544 0
M  V30 280 H 20.6645 0.763147 3.66233 0
M  V30 281 H 21.9975 0.984784 4.82248 0
M  V30 282 N 23.6496 -1.47581 0.552962 0
M  V30 283 C 24.8746 -2.07378 0.0300593 0
M  V30 284 C 25.2996 -1.40355 -1.25229 0
M  V30 285 O 24.6576 -0.477099 -1.7491 0
M  V30 286 C 24.7056 -3.60274 -0.153231 0
M  V30 287 O 23.8096 -3.94041 -1.21678 0
M  V30 288 H 23.1506 -0.662158 0.0494182 0
M  V30 289 H 25.6806 -1.89662 0.767434 0
M  V30 290 H 25.6906 -4.0633 -0.368761 0
M  V30 291 H 24.3656 -4.08455 0.783397 0
M  V30 292 H 22.9426 -3.59735 -0.982079 0
M  V30 293 N 25.1277 -0.289203 -1.54924 0
M  V30 294 C 26.3757 0.322879 -1.99504 0
M  V30 295 C 26.6967 1.55313 -1.1791 0
M  V30 296 O 25.9667 1.94001 -0.272097 0
M  V30 297 H 24.5467 0.122291 -0.736922 0
M  V30 298 H 27.2087 -0.397802 -1.90797 0
M  V30 299 H 26.3047 0.603061 -3.06218 0
M  V30 300 N 26.6058 1.57591 -0.0167156 0
M  V30 301 C 27.5378 2.06343 0.997753 0
M  V30 302 C 28.5508 0.984469 1.29661 0
M  V30 303 O 29.7398 1.26093 1.26344 0
M  V30 304 C 26.8398 2.46255 2.32834 0
M  V30 305 C 26.0128 3.77083 2.21646 0
M  V30 306 C 25.0718 4.0368 3.37534 0
M  V30 307 O 24.0978 4.7411 3.14973 0
M  V30 308 N 25.2998 3.52881 4.60929 0
M  V30 309 H 28.0648 2.93997 0.581875 0
M  V30 310 H 25.6258 1.61002 0.170316 0
M  V30 311 H 27.6178 2.61149 3.09166 0
M  V30 312 H 26.1878 1.64032 2.66106 0
M  V30 313 H 25.4078 3.72106 1.30119 0
M  V30 314 H 26.6958 4.62822 2.11361 0
M  V30 315 H 26.0938 2.95878 4.82154 0
M  V30 316 H 24.6508 3.73076 5.34469 0
M  V30 317 N 28.0839 -0.256276 1.55502 0
M  V30 318 C 29.3299 -0.987079 1.77157 0
M  V30 319 C 29.6629 -1.85327 0.580315 0
M  V30 320 O 28.9379 -1.89874 -0.421686 0
M  V30 321 C 29.2209 -1.85553 3.08613 0
M  V30 322 C 29.0739 -1.01816 4.38125 0
M  V30 323 C 30.3929 -2.8397 3.36228 0
M  V30 324 H 27.5119 -0.357428 0.644526 0
M  V30 325 H 30.1539 -0.258239 1.88237 0
M  V30 326 H 28.3039 -2.47695 2.99298 0
M  V30 327 H 29.9759 -0.416159 4.59419 0
M  V30 328 H 28.2189 -0.322178 4.32602 0
M  V30 329 H 28.8899 -1.65939 5.26468 0
M  V30 330 H 31.3659 -2.31964 3.45445 0
M  V30 331 H 30.2419 -3.41864 4.29442 0
M  V30 332 H 30.5029 -3.59955 2.56681 0
M  V30 333 N 29.562 -1.4872 -0.521534 0
M  V30 334 C 30.492 -1.66771 -1.63431 0
M  V30 335 C 31.473 -0.516499 -1.62069 0
M  V30 336 O 32.658 -0.750013 -1.79132 0
M  V30 337 C 29.788 -1.71515 -3.01993 0
M  V30 338 C 28.742 -2.86222 -3.18216 0
M  V30 339 C 28.068 -2.76061 -4.57924 0
M  V30 340 C 29.368 -4.27419 -3.00184 0
M  V30 341 H 31.062 -2.59932 -1.48579 0
M  V30 342 H 28.608 -1.25089 -0.713358 0
M  V30 343 H 30.561 -1.82731 -3.7972 0
M  V30 344 H 29.285 -0.749393 -3.17886 0
M  V30 345 H 27.944 -2.74575 -2.42908 0
M  V30 346 H 27.592 -1.77437 -4.70665 0
M  V30 347 H 27.292 -3.53037 -4.69722 0
M  V30 348 H 28.816 -2.89256 -5.37739 0
M  V30 349 H 30.23 -4.39855 -3.67697 0
M  V30 350 H 28.627 -5.05458 -3.2347 0
M  V30 351 H 29.697 -4.43293 -1.96518 0
M  V30 352 N 31.0401 0.771051 -1.3745 0
M  V30 353 C 32.2881 1.52661 -1.32435 0
M  V30 354 C 32.6091 1.9479 0.0905024 0
M  V30 355 O 31.8791 1.66348 1.03466 0
M  V30 356 H 30.4591 0.566218 -0.487244 0
M  V30 357 H 33.1211 0.917636 -1.71946 0
M  V30 358 H 32.2171 2.42568 -1.96385 0
M  V30 359 N 32.5182 1.22032 0.997298 0
M  V30 360 C 33.7952 0.950823 1.70935 0
M  V30 361 C 34.1752 -0.535292 2.042 0
M  V30 362 O 33.5232 -1.50217 1.72183 0
M  V30 363 C 33.7332 1.84386 2.96315 0
M  V30 364 C 35.0812 2.09732 3.69185 0
M  V30 365 O 36.1052 1.81798 3.06314 0
M  V30 366 O 34.9642 2.57018 4.82291 0
M  V30 367 H 32.0582 0.357204 0.745878 0
M  V30 368 H 34.6042 1.32997 1.05404 0
M  V30 369 H 33.3762 2.84928 2.68201 0
M  V30 370 H 32.9992 1.46602 3.69586 0
M  V30 371 N 33.9963 -1.19345 1.0293 0
M  V30 372 C 34.9283 -2.22036 0.56857 0
M  V30 373 C 35.9413 -1.58865 -0.355779 0
M  V30 374 O 37.1303 -1.77851 -0.152103 0
M  V30 375 C 34.2303 -3.38363 -0.190752 0
M  V30 376 C 33.4033 -4.31118 0.738643 0
M  V30 377 C 32.4623 -5.26194 0.0246497 0
M  V30 378 O 31.4883 -5.65461 0.651354 0
M  V30 379 N 32.6903 -5.66971 -1.24594 0
M  V30 380 H 35.4553 -2.6219 1.45177 0
M  V30 381 H 33.0163 -1.34015 0.908381 0
M  V30 382 H 35.0083 -3.98981 -0.677961 0
M  V30 383 H 33.5783 -2.96994 -0.975366 0
M  V30 384 H 32.7983 -3.68276 1.40593 0
M  V30 385 H 34.0863 -4.90001 1.37029 0
M  V30 386 H 33.4843 -5.37104 -1.77583 0
M  V30 387 H 32.0413 -6.2984 -1.67764 0
M  V30 388 N 35.4744 -0.807222 -1.35358 0
M  V30 389 C 36.7024 -0.400377 -2.02989 0
M  V30 390 C 37.1174 0.988859 -1.60832 0
M  V30 391 O 36.4744 1.63729 -0.806175 0
M  V30 392 C 36.5254 -0.474867 -3.58368 0
M  V30 393 O 36.2464 -1.80933 -3.98992 0
M  V30 394 C 37.7474 -0.0609112 -4.43258 0
M  V30 395 H 34.9674 -0.162587 -0.651004 0
M  V30 396 H 37.5114 -1.09102 -1.72965 0
M  V30 397 H 35.6664 0.167534 -3.87038 0
M  V30 398 H 36.0804 -1.77256 -4.9364 0
M  V30 399 H 37.5544 -0.164145 -5.51756 0
M  V30 400 H 38.0314 0.993831 -4.27808 0
M  V30 401 H 38.6374 -0.676492 -4.19885 0
M  V30 402 N 36.9525 1.47285 -0.560781 0
M  V30 403 C 38.1985 2.02764 -0.0381184 0
M  V30 404 C 38.5315 1.43384 1.30976 0
M  V30 405 O 37.8065 0.590733 1.85312 0
M  V30 406 C 38.0895 3.60064 0.0511427 0
M  V30 407 C 37.9425 4.2987 -1.32408 0
M  V30 408 C 39.2615 4.33439 0.762795 0
M  V30 409 H 36.3805 0.736841 -0.0153264 0
M  V30 410 H 39.0225 1.75675 -0.723759 0
M  V30 411 H 37.1725 3.83274 0.635065 0
M  V30 412 H 38.8445 4.17989 -1.95148 0
M  V30 413 H 37.0875 3.90085 -1.8978 0
M  V30 414 H 37.7585 5.38478 -1.21431 0
M  V30 415 H 40.2345 4.15243 0.266965 0
M  V30 416 H 39.1105 5.43124 0.794221 0
M  V30 417 H 39.3715 4.02915 1.81966 0
M  V30 418 N 38.4306 0.297415 1.54768 0
M  V30 419 C 39.6556 -0.318435 2.04941 0
M  V30 420 C 40.0806 -1.4701 1.17345 0
M  V30 421 O 39.4386 -1.80436 0.176758 0
M  V30 422 C 39.4866 -0.755749 3.52592 0
M  V30 423 O 38.5906 -1.86088 3.68028 0
M  V30 424 H 37.9316 -0.062421 0.661059 0
M  V30 425 H 40.4616 0.438215 1.99852 0
M  V30 426 H 40.4716 -1.04552 3.94376 0
M  V30 427 H 39.1466 0.0867233 4.1581 0
M  V30 428 H 37.7236 -1.57193 3.38149 0
M  V30 429 N 39.9087 -1.5758 0.0250728 0
M  V30 430 C 41.1857 -1.82917 -0.692873 0
M  V30 431 C 41.5657 -0.908137 -1.90568 0
M  V30 432 O 40.9137 0.0372298 -2.2847 0
M  V30 433 C 41.1237 -3.32034 -1.07492 0
M  V30 434 C 42.4717 -3.98406 -1.46826 0
M  V30 435 O 43.4957 -3.36505 -1.16801 0
M  V30 436 O 42.3547 -5.07497 -2.02754 0
M  V30 437 H 39.4487 -0.754079 -0.33955 0
M  V30 438 H 41.9947 -1.69619 0.0524456 0
M  V30 439 H 40.7667 -3.90728 -0.211552 0
M  V30 440 H 40.3897 -3.50424 -1.87854 0
M  V30 441 N 41.3868 0.248026 -1.55636 0
M  V30 442 C 42.3348 1.32683 -1.91045 0
M  V30 443 C 43.3288 1.49883 -0.789401 0
M  V30 444 O 44.5348 1.51371 -0.974007 0
M  V30 445 H 40.9098 0.444272 -0.606734 0
M  V30 446 H 42.8808 1.00085 -2.81115 0
M  V30 447 C 41.6298 2.6755 -2.22064 0
M  V30 448 H 40.9528 2.55114 -3.07826 0
M  V30 449 H 42.3928 3.41912 -2.50743 0
M  V30 450 C 40.8518 3.20556 -1.0366 0
M  V30 451 O 41.3818 4.00695 -0.284016 0
M  V30 452 N 39.5878 2.78568 -0.82753 0
M  V30 453 H 39.1348 2.1351 -1.44123 0
M  V30 454 H 39.0928 3.14378 -0.0369803 0
M  V30 455 N 42.8649 1.48995 0.513639 0
M  V30 456 C 43.7749 1.67443 1.64317 0
M  V30 457 C 44.7909 0.556947 1.64846 0
M  V30 458 O 45.9669 0.830082 1.83498 0
M  V30 459 C 43.0319 1.72515 3.00732 0
M  V30 460 C 42.0929 2.96009 3.1093 0
M  V30 461 C 41.3259 3.00829 4.40837 0
M  V30 462 O 41.5489 2.13594 5.28898 0
M  V30 463 O 40.4829 3.93168 4.55744 0
M  V30 464 H 44.3089 2.63106 1.51687 0
M  V30 465 H 41.8939 1.32588 0.688543 0
M  V30 466 H 43.7759 1.78277 3.81831 0
M  V30 467 H 42.4509 0.800278 3.13651 0
M  V30 468 H 41.3579 2.9577 2.29065 0
M  V30 469 H 42.6909 3.87934 3.02933 0
M  V30 470 N 44.343 -0.763751 1.37857 0
M  V30 471 C 45.273 -1.89103 1.36975 0
M  V30 472 C 46.254 -1.68439 0.237152 0
M  V30 473 O 47.439 -1.8918 0.438713 0
M  V30 474 C 44.569 -3.26496 1.18395 0
M  V30 475 C 43.523 -3.61741 2.28751 0
M  V30 476 C 42.849 -4.97762 1.95286 0
M  V30 477 C 44.149 -3.67665 3.70972 0
M  V30 478 H 45.843 -1.90099 2.31307 0
M  V30 479 H 43.389 -0.91319 1.11341 0
M  V30 480 H 45.342 -4.05003 1.16406 0
M  V30 481 H 44.066 -3.25955 0.205215 0
M  V30 482 H 42.725 -2.85547 2.29909 0
M  V30 483 H 42.373 -4.93769 0.959221 0
M  V30 484 H 42.073 -5.22313 2.69189 0
M  V30 485 H 43.597 -5.7866 1.94898 0
M  V30 486 H 45.011 -4.36307 3.719 0
M  V30 487 H 43.408 -4.03718 4.43995 0
M  V30 488 H 44.478 -2.68134 4.0402 0
M  V30 489 N 45.8211 -1.22559 -0.990812 0
M  V30 490 C 46.7531 -0.955325 -2.08342 0
M  V30 491 C 47.7661 0.0668408 -1.62663 0
M  V30 492 O 48.9551 -0.167421 -1.77713 0
M  V30 493 C 46.0551 -0.415566 -3.36342 0
M  V30 494 C 45.2281 -1.49544 -4.11042 0
M  V30 495 C 44.2871 -0.962399 -5.17324 0
M  V30 496 O 43.3131 -1.64907 -5.44788 0
M  V30 497 N 44.5151 0.215134 -5.80101 0
M  V30 498 H 47.2801 -1.89596 -2.32106 0
M  V30 499 H 44.8411 -1.13276 -1.15673 0
M  V30 500 H 46.8331 -0.0442386 -4.04676 0
M  V30 501 H 45.4031 0.430232 -3.09625 0
M  V30 502 H 44.6231 -2.04 -3.37309 0
M  V30 503 H 45.9111 -2.22195 -4.57719 0
M  V30 504 H 45.3091 0.789779 -5.6016 0
M  V30 505 H 43.8661 0.527826 -6.49659 0
M  V30 506 N 47.2992 1.18797 -1.03562 0
M  V30 507 C 48.2092 2.25913 -0.632505 0
M  V30 508 C 49.2252 1.70668 0.338882 0
M  V30 509 O 50.4012 2.00453 0.195076 0
M  V30 510 C 47.4662 3.467 0.00350942 0
M  V30 511 C 46.5272 4.17098 -1.01624 0
M  V30 512 C 45.7602 5.32119 -0.410478 0
M  V30 513 O 45.9832 5.64976 0.784725 0
M  V30 514 O 44.9172 5.9107 -1.13667 0
M  V30 515 H 48.7432 2.62648 -1.52478 0
M  V30 516 H 46.3282 1.25781 -0.806195 0
M  V30 517 H 48.2102 4.19878 0.35781 0
M  V30 518 H 46.8852 3.11798 0.869686 0
M  V30 519 H 45.7922 3.4601 -1.42224 0
M  V30 520 H 47.1252 4.55987 -1.85301 0
M  V30 521 N 48.7773 0.814389 1.34928 0
M  V30 522 C 49.7103 0.175641 2.27523 0
M  V30 523 C 50.6883 -0.662953 1.48471 0
M  V30 524 O 51.8723 -0.628545 1.77712 0
M  V30 525 C 48.9993 -0.755516 3.30166 0
M  V30 526 C 48.0453 0.00445305 4.265 0
M  V30 527 S 48.8783 1.34582 5.18313 0
M  V30 528 C 50.0343 0.419315 6.24494 0
M  V30 529 H 50.2673 0.960691 2.8135 0
M  V30 530 H 47.8003 0.609846 1.41846 0
M  V30 531 H 49.7583 -1.28723 3.89796 0
M  V30 532 H 48.4193 -1.51402 2.75202 0
M  V30 533 H 47.6123 -0.703077 4.99072 0
M  V30 534 H 47.2143 0.466447 3.7108 0
M  V30 535 H 49.5063 -0.392432 6.76362 0
M  V30 536 H 50.4493 1.11446 6.99275 0
M  V30 537 H 50.8573 0.0115389 5.64499 0
M  V30 538 N 50.2554 -1.46986 0.568584 0
M  V30 539 C 51.4804 -2.07335 0.0520528 0
M  V30 540 C 51.9054 -1.41675 -1.23733 0
M  V30 541 O 51.2634 -0.495623 -1.74394 0
M  V30 542 C 51.3114 -3.60417 -0.11501 0
M  V30 543 O 50.4154 -3.95309 -1.17492 0
M  V30 544 H 49.7564 -0.661597 0.0564385 0
M  V30 545 H 52.2864 -1.88837 0.787507 0
M  V30 546 H 52.2964 -4.06698 -0.325644 0
M  V30 547 H 50.9714 -4.07601 0.826675 0
M  V30 548 H 49.5484 -3.60757 -0.943869 0
M  V30 549 N 51.7335 -0.305618 -1.54608 0
M  V30 550 C 52.6815 0.584119 -2.25146 0
M  V30 551 C 53.6755 1.13326 -1.25911 0
M  V30 552 O 54.8815 1.08337 -1.43747 0
M  V30 553 H 51.2565 0.206983 -0.722954 0
M  V30 554 H 53.2275 -0.033291 -2.98381 0
M  V30 555 C 51.9765 1.74225 -3.009 0
M  V30 556 H 51.2995 1.32892 -3.77067 0
M  V30 557 H 52.7395 2.34077 -3.53531 0
M  V30 558 C 51.1985 2.64914 -2.0814 0
M  V30 559 O 51.7285 3.66137 -1.65246 0
M  V30 560 N 49.9345 2.3275 -1.74 0
M  V30 561 H 49.4815 1.50479 -2.09078 0
M  V30 562 H 49.4395 2.93694 -1.12211 0
M  V30 563 N 53.2116 1.57565 -0.0334293 0
M  V30 564 C 54.1436 2.0739 0.975811 0
M  V30 565 C 55.1566 0.998166 1.2861 0
M  V30 566 O 56.3456 1.27426 1.25 0
M  V30 567 C 53.4456 2.4871 2.30209 0
M  V30 568 C 52.6186 3.79413 2.17634 0
M  V30 569 C 51.6776 4.07237 3.33233 0
M  V30 570 O 50.7036 4.77425 3.09927 0
M  V30 571 N 51.9056 3.5775 4.5716 0
M  V30 572 H 54.6706 2.94598 0.55066 0
M  V30 573 H 52.2316 1.61173 0.15323 0
M  V30 574 H 54.2236 2.64413 3.06378 0
M  V30 575 H 52.7936 1.66845 2.64351 0
M  V30 576 H 52.0136 3.73465 1.26165 0
M  V30 577 H 53.3016 4.65038 2.0644 0
M  V30 578 H 52.6996 3.00976 4.78989 0
M  V30 579 H 51.2566 3.78724 5.30482 0
M  V30 580 N 54.6897 -0.239769 1.55765 0
M  V30 581 C 55.9377 -0.964892 1.77579 0
M  V30 582 C 56.2587 -1.85582 0.598699 0
M  V30 583 O 55.5287 -1.92075 -0.385226 0
M  V30 584 H 54.1087 -0.359265 0.654933 0
M  V30 585 H 56.7707 -0.256001 1.93211 0
M  V30 586 H 55.8667 -1.58243 2.69009 0
M  V30 587 N 56.1678 -1.49265 -0.50573 0
M  V30 588 C 57.3928 -1.62478 -1.28902 0
M  V30 589 C 57.8178 -0.294332 -1.85783 0
M  V30 590 O 57.1758 0.737412 -1.65626 0
M  V30 591 C 57.2238 -2.69268 -2.39848 0
M  V30 592 O 56.3278 -2.28113 -3.43567 0
M  V30 593 H 55.6688 -0.54399 -0.380751 0
M  V30 594 H 58.1988 -1.95421 -0.605952 0
M  V30 595 H 58.2088 -2.91291 -2.85681 0
M  V30 596 H 56.8838 -3.65846 -1.97812 0
M  V30 597 H 55.4608 -2.16401 -3.03685 0
M  V30 598 N 57.6459 0.756429 -1.3826 0
M  V30 599 C 58.5929 1.87011 -1.35261 0
M  V30 600 C 59.5629 1.64695 -0.215616 0
M  V30 601 O 60.7479 1.864 -0.407399 0
M  V30 602 C 57.8879 3.24275 -1.18068 0
M  V30 603 C 57.0009 3.58442 -2.41129 0
M  V30 604 C 56.1359 4.84994 -2.16689 0
M  V30 605 C 55.1749 5.11939 -3.35537 0
M  V30 606 N 54.3119 6.29685 -3.10549 0
M  V30 607 H 59.1519 1.8891 -2.30472 0
M  V30 608 H 56.6889 0.923373 -1.14509 0
M  V30 609 H 58.6469 4.03479 -1.06116 0
M  V30 610 H 57.2769 3.21711 -0.264973 0
M  V30 611 H 56.3289 2.74103 -2.63764 0
M  V30 612 H 57.6409 3.74283 -3.29717 0
M  V30 613 H 56.7949 5.72135 -2.01857 0
M  V30 614 H 55.5339 4.71286 -1.25462 0
M  V30 615 H 54.5389 4.23268 -3.50891 0
M  V30 616 H 55.7639 5.27546 -4.27635 0
M  V30 617 H 53.7099 6.17306 -2.21967 0
M  V30 618 H 53.6269 6.46014 -3.92686 0
M  V30 619 H 54.8949 7.19722 -2.99367 0
M  V30 620 N 59.124 1.23083 0.984299 0
M  V30 621 C 60.354 1.08556 1.75781 0
M  V30 622 C 60.762 -0.366171 1.85623 0
M  V30 623 O 60.105 -1.26524 1.33182 0
M  V30 624 C 60.167 1.63208 3.20318 0
M  V30 625 C 59.831 3.11922 3.33997 0
M  V30 626 C 60.828 4.09259 3.2063 0
M  V30 627 C 58.513 3.51552 3.58771 0
M  V30 628 C 60.507 5.4421 3.31835 0
M  V30 629 C 58.194 4.86649 3.69616 0
M  V30 630 C 59.192 5.82787 3.56157 0
M  V30 631 O 58.88 7.15431 3.66626 0
M  V30 632 H 58.612 0.380713 0.5586 0
M  V30 633 H 61.166 1.63321 1.2456 0
M  V30 634 H 59.396 1.0286 3.72769 0
M  V30 635 H 61.085 1.44216 3.79416 0
M  V30 636 H 61.851 3.79984 3.01392 0
M  V30 637 H 57.73 2.77239 3.6832 0
M  V30 638 H 61.274 6.1923 3.21247 0
M  V30 639 H 57.171 5.15601 3.88363 0
M  V30 640 H 57.939 7.23127 3.83445 0
M  V30 641 N 60.6021 -1.18246 1.0419 0
M  V30 642 C 61.8481 -1.88536 0.747122 0
M  V30 643 C 62.1811 -1.80223 -0.723409 0
M  V30 644 O 61.4561 -1.20337 -1.52804 0
M  V30 645 C 61.7391 -3.38968 1.21544 0
M  V30 646 C 61.5921 -3.56084 2.74816 0
M  V30 647 C 62.9111 -4.32648 0.806482 0
M  V30 648 H 60.0301 -0.684619 0.272883 0
M  V30 649 H 62.6721 -1.39113 1.29413 0
M  V30 650 H 60.8221 -3.8119 0.750081 0
M  V30 651 H 62.4941 -3.22946 3.29399 0
M  V30 652 H 60.7371 -2.98699 3.14582 0
M  V30 653 H 61.4081 -4.61639 3.02644 0
M  V30 654 H 63.8841 -3.98211 1.20695 0
M  V30 655 H 62.7601 -5.36462 1.1619 0
M  V30 656 H 63.0211 -4.41146 -0.29029 0
M  V30 657 N 62.0802 -0.821533 -1.34494 0
M  V30 658 C 63.0282 -0.230702 -2.31453 0
M  V30 659 C 64.0222 0.627793 -1.57338 0
M  V30 660 O 65.2282 0.519288 -1.72347 0
M  V30 661 H 61.6032 -0.0558577 -0.749923 0
M  V30 662 H 63.5742 -1.06332 -2.78812 0
M  V30 663 C 62.3232 0.59391 -3.4259 0
M  V30 664 H 61.6462 -0.0573588 -3.99759 0
M  V30 665 H 63.0862 0.973446 -4.12674 0
M  V30 666 C 61.5452 1.76568 -2.86924 0
M  V30 667 O 62.0752 2.8638 -2.81691 0
M  V30 668 N 60.2812 1.58198 -2.43766 0
M  V30 669 H 59.8282 0.68872 -2.48222 0
M  V30 670 H 59.7862 2.36752 -2.06871 0
M  V30 671 N 63.5583 1.46682 -0.576371 0
M  V30 672 C 64.5053 2.30241 0.160499 0
M  V30 673 C 65.4753 1.40233 0.890162 0
M  V30 674 O 66.6603 1.69186 0.882084 0
M  V30 675 C 63.8003 3.24578 1.1723 0
M  V30 676 C 62.9133 4.29684 0.446736 0
M  V30 677 C 62.0483 5.11154 1.44551 0
M  V30 678 C 61.0873 6.08015 0.70599 0
M  V30 679 N 60.2243 6.82376 1.65251 0
M  V30 680 H 65.0643 2.92727 -0.558127 0
M  V30 681 H 62.6013 1.44272 -0.287056 0
M  V30 682 H 64.5593 3.77711 1.77172 0
M  V30 683 H 63.1893 2.63916 1.85872 0
M  V30 684 H 62.2413 3.79458 -0.267594 0
M  V30 685 H 63.5533 4.98626 -0.131686 0
M  V30 686 H 62.7073 5.68533 2.11791 0
M  V30 687 H 61.4463 4.42158 2.05786 0
M  V30 688 H 60.4513 5.49796 0.0197725 0
M  V30 689 H 61.6763 6.79028 0.09912 0
M  V30 690 H 59.6223 6.16094 2.25308 0
M  V30 691 H 59.5393 7.47556 1.12673 0
M  V30 692 H 60.8073 7.44316 2.31546 0
M  V30 693 N 65.0364 0.313813 1.54444 0
M  V30 694 C 65.9464 -0.565714 2.27677 0
M  V30 695 C 66.9624 -1.13754 1.31666 0
M  V30 696 O 68.1384 -1.15959 1.64668 0
M  V30 697 C 65.2034 -1.71528 3.01296 0
M  V30 698 C 64.2644 -1.17624 4.12872 0
M  V30 699 C 63.4974 -2.27102 4.8297 0
M  V30 700 O 63.7204 -3.47256 4.52514 0
M  V30 701 O 62.6544 -1.9307 5.70094 0
M  V30 702 H 66.4804 0.0287296 3.03686 0
M  V30 703 H 64.0654 0.0798312 1.49187 0
M  V30 704 H 65.9474 -2.38476 3.4743 0
M  V30 705 H 64.6224 -2.29608 2.2817 0
M  V30 706 H 63.5294 -0.472124 3.71109 0
M  V30 707 H 64.8624 -0.640695 4.88012 0
M  V30 708 N 66.5145 -1.57545 0.0417849 0
M  V30 709 C 67.7635 -1.91494 -0.633492 0
M  V30 710 C 68.0765 -0.921084 -1.72556 0
M  V30 711 O 69.2825 -1.15228 -2.45835 0
M  V30 712 C 67.7385 -3.40072 -1.17808 0
M  V30 713 C 67.3465 -4.47843 -0.118633 0
M  V30 714 C 69.0905 -3.8307 -1.82915 0
M  V30 715 C 66.9975 -5.87529 -0.675578 0
M  V30 716 H 65.9275 -0.714653 -0.24039 0
M  V30 717 H 68.5785 -1.83175 0.109148 0
M  V30 718 H 66.9605 -3.43364 -1.97274 0
M  V30 719 H 68.1345 -4.56128 0.654494 0
M  V30 720 H 66.4495 -4.14128 0.434414 0
M  V30 721 H 69.0465 -4.84794 -2.25563 0
M  V30 722 H 69.3895 -3.1881 -2.67705 0
M  V30 723 H 69.9225 -3.82255 -1.10119 0
M  V30 724 H 66.6615 -6.55362 0.134475 0
M  V30 725 H 66.1815 -5.82824 -1.4169 0
M  V30 726 H 67.8605 -6.36491 -1.1614 0
M  V30 727 N 67.9926 0.231505 -1.5589 0
M  V30 728 C 68.9246 1.31006 -1.8807 0
M  V30 729 C 69.9376 1.43539 -0.768145 0
M  V30 730 O 71.1266 1.44614 -1.04638 0
M  V30 731 C 68.2266 2.68688 -2.06543 0
M  V30 732 C 67.3996 2.78228 -3.37502 0
M  V30 733 C 66.4586 3.96857 -3.4553 0
M  V30 734 O 65.4846 3.85662 -4.18633 0
M  V30 735 N 66.6866 5.1072 -2.75944 0
M  V30 736 H 69.4516 1.03731 -2.81176 0
M  V30 737 H 67.0126 0.421573 -1.56315 0
M  V30 738 H 69.0046 3.46412 -2.09239 0
M  V30 739 H 67.5746 2.88605 -1.20109 0
M  V30 740 H 66.7946 1.87059 -3.46991 0
M  V30 741 H 68.0826 2.81564 -4.23791 0
M  V30 742 H 67.4806 5.2271 -2.16311 0
M  V30 743 H 66.0376 5.86523 -2.84314 0
M  V30 744 N 69.4707 1.49531 0.497807 0
M  V30 745 C 70.4187 1.66926 1.61983 0
M  V30 746 C 71.4127 0.535167 1.60724 0
M  V30 747 O 72.6187 0.714896 1.65195 0
M  V30 748 H 68.9937 0.526415 0.537021 0
M  V30 749 H 70.9647 2.61098 1.44465 0
M  V30 750 C 69.7137 1.75602 3.00099 0
M  V30 751 H 69.0367 2.62244 3.01775 0
M  V30 752 H 70.4767 1.91807 3.78135 0
M  V30 753 C 68.9357 0.501543 3.33146 0
M  V30 754 O 69.4657 -0.371342 3.9998 0
M  V30 755 N 67.6717 0.363531 2.88317 0
M  V30 756 H 67.2187 1.07485 2.34104 0
M  V30 757 H 67.1767 -0.474728 3.10795 0
M  V30 758 N 70.9488 -0.749086 1.3866 0
M  V30 759 C 71.9118 -1.84457 1.36045 0
M  V30 760 C 72.9118 -1.58682 0.260122 0
M  V30 761 O 74.1018 -1.66343 0.517261 0
M  V30 762 C 71.2338 -3.22008 1.11911 0
M  V30 763 H 72.4268 -1.88182 2.33512 0
M  V30 764 H 69.9798 -0.951266 1.24019 0
M  V30 765 H 70.7148 -3.2395 0.150686 0
M  V30 766 H 70.4998 -3.42111 1.91579 0
M  V30 767 H 71.9898 -4.0208 1.12788 0
M  V30 768 N 72.4269 -1.23603 -0.977757 0
M  V30 769 C 73.6729 -1.07129 -1.72195 0
M  V30 770 C 74.0059 0.390501 -1.90233 0
M  V30 771 O 73.2809 1.28902 -1.45653 0
M  V30 772 C 73.5639 -1.80031 -3.11867 0
M  V30 773 C 73.4169 -3.33899 -3.01383 0
M  V30 774 C 74.7359 -1.56492 -4.11337 0
M  V30 775 H 71.8549 -0.390571 -0.624999 0
M  V30 776 H 74.4969 -1.52142 -1.13811 0
M  V30 777 H 72.6469 -1.41768 -3.6171 0
M  V30 778 H 74.3189 -3.81699 -2.59043 0
M  V30 779 H 72.5619 -3.62796 -2.37827 0
M  V30 780 H 73.2329 -3.801 -4.00285 0
M  V30 781 H 75.7089 -1.89757 -3.70313 0
M  V30 782 H 74.5849 -2.09973 -5.07151 0
M  V30 783 H 74.8459 -0.500874 -4.39254 0
M  V30 784 N 73.905 1.17692 -1.04816 0
M  V30 785 C 74.853 2.23632 -0.63966 0
M  V30 786 C 75.847 1.6601 0.337219 0
M  V30 787 O 77.053 1.78844 0.203693 0
M  V30 788 H 73.428 0.727949 -0.188665 0
M  V30 789 H 75.399 2.55387 -1.54337 0
M  V30 790 C 74.148 3.4769 -0.0264051 0
M  V30 791 H 73.471 3.92331 -0.769164 0
M  V30 792 H 74.911 4.23418 0.222098 0
M  V30 793 C 73.37 3.13807 1.22584 0
M  V30 794 O 73.9 3.28236 2.31569 0
M  V30 795 N 72.106 2.68065 1.12202 0
M  V30 796 H 71.653 2.56525 0.235133 0
M  V30 797 H 71.611 2.45767 1.96076 0
M  V30 798 N 75.3831 0.828654 1.34056 0
M  V30 799 C 76.6311 0.41863 1.97717 0
M  V30 800 C 76.9521 -1.02314 1.66002 0
M  V30 801 O 76.2221 -1.71119 0.953683 0
M  V30 802 H 74.8021 0.151809 0.731412 0
M  V30 803 H 77.4641 1.05936 1.63596 0
M  V30 804 H 76.5601 0.542318 3.07352 0
M  V30 805 N 76.8612 -1.46375 0.584142 0
M  V30 806 C 78.1072 -2.02678 0.0703716 0
M  V30 807 C 78.4402 -1.4545 -1.28678 0
M  V30 808 O 77.7152 -0.62014 -1.84349 0
M  V30 809 C 77.9982 -3.60099 0.00614674 0
M  V30 810 C 77.8512 -4.27709 1.3923 0
M  V30 811 C 79.1702 -4.34598 -0.693742 0
M  V30 812 H 76.2892 -0.736504 0.027047 0
M  V30 813 H 78.9312 -1.74501 0.751615 0
M  V30 814 H 77.0812 -3.84236 -0.574009 0
M  V30 815 H 78.7532 -4.14832 2.01773 0
M  V30 816 H 76.9962 -3.87016 1.95962 0
M  V30 817 H 77.6672 -5.36478 1.29982 0
M  V30 818 H 80.1432 -4.15615 -0.200869 0
M  V30 819 H 79.0192 -5.44318 -0.707714 0
M  V30 820 H 79.2802 -4.05759 -1.75533 0
M  V30 821 N 78.3393 -0.321999 -1.54275 0
M  V30 822 C 79.2863 0.544664 -2.24281 0
M  V30 823 C 80.2563 1.1129 -1.23303 0
M  V30 824 O 81.4413 1.15354 -1.51981 0
M  V30 825 C 78.5813 1.70045 -3.00298 0
M  V30 826 C 77.6943 1.16159 -4.1609 0
M  V30 827 C 76.8293 2.28293 -4.79641 0
M  V30 828 C 75.8683 1.71648 -5.8754 0
M  V30 829 N 75.0053 2.77438 -6.44959 0
M  V30 830 H 79.8453 -0.0588907 -2.97942 0
M  V30 831 H 77.3823 -0.0408345 -1.47043 0
M  V30 832 H 79.3403 2.38054 -3.42616 0
M  V30 833 H 77.9703 2.27531 -2.28975 0
M  V30 834 H 77.0223 0.373092 -3.78566 0
M  V30 835 H 78.3343 0.707087 -4.93763 0
M  V30 836 H 77.4883 3.0421 -5.2492 0
M  V30 837 H 76.2273 2.77079 -4.01346 0
M  V30 838 H 75.2323 0.942282 -5.41665 0
M  V30 839 H 76.4573 1.23741 -6.67731 0
M  V30 840 H 74.4033 3.25519 -5.69538 0
M  V30 841 H 74.3203 2.36547 -7.1804 0
M  V30 842 H 75.5883 3.53189 -6.94894 0
M  V30 843 N 79.8174 1.5752 -0.0501392 0
M  V30 844 C 80.7494 2.08413 0.95376 0
M  V30 845 C 81.7624 1.01175 1.27544 0
M  V30 846 O 82.9514 1.28744 1.23641 0
M  V30 847 C 80.0514 2.51138 2.27559 0
M  V30 848 C 79.2244 3.817 2.13598 0
M  V30 849 C 78.2834 4.10749 3.28895 0
M  V30 850 O 77.3094 4.80685 3.04845 0
M  V30 851 N 78.5114 3.62579 4.5334 0
M  V30 852 H 81.2764 2.95165 0.519383 0
M  V30 853 H 78.8374 1.61327 0.136127 0
M  V30 854 H 80.8294 2.67648 3.03557 0
M  V30 855 H 79.3994 1.6964 2.62567 0
M  V30 856 H 78.6194 3.74782 1.22197 0
M  V30 857 H 79.9074 4.67201 2.01496 0
M  V30 858 H 79.3054 3.06039 4.75769 0
M  V30 859 H 77.8624 3.84329 5.26436 0
M  V30 860 N 81.2955 -0.223234 1.56011 0
M  V30 861 C 82.5445 -0.945912 1.78144 0
M  V30 862 C 82.8575 -1.85567 0.618396 0
M  V30 863 O 84.0635 -2.61688 0.723318 0
M  V30 864 C 82.5195 -1.73216 3.15475 0
M  V30 865 C 82.1275 -0.868619 4.39499 0
M  V30 866 C 83.8715 -2.44615 3.46935 0
M  V30 867 C 81.7785 -1.65212 5.67855 0
M  V30 868 H 80.7085 -0.356929 0.664167 0
M  V30 869 H 83.3595 -0.199845 1.82409 0
M  V30 870 H 81.7415 -2.52107 3.05382 0
M  V30 871 H 82.9155 -0.120366 4.60643 0
M  V30 872 H 81.2305 -0.26683 4.15544 0
M  V30 873 H 83.8275 -3.03732 4.40058 0
M  V30 874 H 84.1705 -3.17417 2.69355 0
M  V30 875 H 84.7035 -1.72715 3.58349 0
M  V30 876 H 81.4425 -0.967407 6.48322 0
M  V30 877 H 80.9625 -2.37503 5.50774 0
M  V30 878 H 82.6415 -2.21322 6.07968 0
M  V30 879 N 82.7736 -1.49793 -0.48987 0
M  V30 880 C 83.7206 -1.67281 -1.59014 0
M  V30 881 C 84.6906 -0.514177 -1.57941 0
M  V30 882 O 85.8756 -0.742533 -1.75759 0
M  V30 883 C 83.0156 -1.75569 -2.97102 0
M  V30 884 C 82.1286 -3.0281 -3.08107 0
M  V30 885 C 81.2636 -3.02008 -4.36995 0
M  V30 886 C 80.3026 -4.23782 -4.41673 0
M  V30 887 N 79.4396 -4.20826 -5.62005 0
M  V30 888 H 84.2796 -2.61224 -1.43409 0
M  V30 889 H 81.8166 -1.29508 -0.697565 0
M  V30 890 H 83.7746 -1.78354 -3.77155 0
M  V30 891 H 82.4046 -0.850827 -3.11385 0
M  V30 892 H 81.4566 -3.09584 -2.21047 0
M  V30 893 H 82.7686 -3.92801 -3.07423 0
M  V30 894 H 81.9226 -3.03418 -5.25378 0
M  V30 895 H 80.6616 -2.09815 -4.4026 0
M  V30 896 H 79.6666 -4.22604 -3.5169 0
M  V30 897 H 80.8916 -5.17181 -4.40115 0
M  V30 898 H 78.8376 -3.31476 -5.66091 0
M  V30 899 H 78.7546 -5.04564 -5.62984 0
M  V30 900 H 80.0226 -4.26355 -6.52565 0
M  V30 901 N 84.2517 0.741722 -1.39055 0
M  V30 902 C 85.4797 1.53098 -1.39171 0
M  V30 903 C 85.8947 1.88794 0.0155099 0
M  V30 904 O 85.2517 1.53626 0.985159 0
M  V30 905 C 85.3027 2.82274 -2.2584 0
M  V30 906 O 85.0237 2.48097 -3.61081 0
M  V30 907 C 86.5247 3.76343 -2.34266 0
M  V30 908 H 83.7447 0.473335 -0.4756 0
M  V30 909 H 86.2887 0.917045 -1.82785 0
M  V30 910 H 84.4437 3.40015 -1.85656 0
M  V30 911 H 84.8577 3.31029 -4.06842 0
M  V30 912 H 86.3317 4.63898 -2.9917 0
M  V30 913 H 86.8087 4.17619 -1.35982 0
M  V30 914 H 87.4147 3.24523 -2.74891 0
M  V30 915 N 85.7298 1.2412 0.971189 0
M  V30 916 C 86.6598 1.05508 2.08304 0
M  V30 917 C 87.6408 -0.0308864 1.70072 0
M  V30 918 O 88.8258 0.135521 1.93727 0
M  V30 919 C 85.9558 0.655365 3.4106 0
M  V30 920 C 84.9098 1.68971 3.93234 0
M  V30 921 C 84.2358 1.14516 5.22293 0
M  V30 922 C 85.5358 3.08487 4.21465 0
M  V30 923 H 87.2298 1.98507 2.24132 0
M  V30 924 H 84.7758 0.955821 1.07704 0
M  V30 925 H 86.7288 0.51217 4.18276 0
M  V30 926 H 85.4528 -0.31032 3.25122 0
M  V30 927 H 84.1118 1.82106 3.18171 0
M  V30 928 H 83.7598 0.170189 5.02712 0
M  V30 929 H 83.4598 1.83635 5.58168 0
M  V30 930 H 84.9838 1.01401 6.02121 0
M  V30 931 H 86.3978 2.98601 4.89398 0
M  V30 932 H 84.7948 3.74926 4.68562 0
M  V30 933 H 85.8648 3.56787 3.28376 0
M  V30 934 N 87.2079 -1.17134 1.05439 0
M  V30 935 C 88.4569 -1.86791 0.761049 0
M  V30 936 C 88.7699 -1.82072 -0.714795 0
M  V30 937 O 89.9759 -2.47223 -1.12218 0
M  V30 938 C 88.4319 -3.35166 1.31117 0
M  V30 939 C 88.0399 -3.48381 2.81664 0
M  V30 940 C 89.7839 -4.10134 1.09499 0
M  V30 941 C 87.6909 -4.90793 3.29964 0
M  V30 942 H 86.6209 -0.699681 0.281002 0
M  V30 943 H 89.2719 -1.3226 1.27199 0
M  V30 944 H 87.6539 -3.8925 0.72803 0
M  V30 945 H 88.8279 -3.04502 3.45855 0
M  V30 946 H 87.1429 -2.86836 3.01851 0
M  V30 947 H 89.7399 -5.152 1.43084 0
M  V30 948 H 90.0829 -4.16287 0.0328772 0
M  V30 949 H 90.6159 -3.62264 1.64346 0
M  V30 950 H 87.3549 -4.89816 4.35616 0
M  V30 951 H 86.8749 -5.35333 2.70516 0
M  V30 952 H 88.5539 -5.59573 3.24787 0
M  V30 953 N 88.686 -0.835752 -1.33615 0
M  V30 954 C 89.596 -0.269088 -2.33052 0
M  V30 955 C 90.612 0.603251 -1.63208 0
M  V30 956 O 91.788 0.508112 -1.94885 0
M  V30 957 C 88.853 0.549091 -3.42324 0
M  V30 958 C 87.914 -0.347156 -4.27894 0
M  V30 959 C 87.147 0.43207 -5.31948 0
M  V30 960 O 87.37 1.66409 -5.45586 0
M  V30 961 O 86.304 -0.192298 -6.01593 0
M  V30 962 H 90.13 -1.09243 -2.83372 0
M  V30 963 H 87.715 -0.598198 -1.36901 0
M  V30 964 H 89.597 1.01414 -4.09015 0
M  V30 965 H 88.272 1.34955 -2.94226 0
M  V30 966 H 87.179 -0.859979 -3.64081 0
M  V30 967 H 88.512 -1.1123 -4.79467 0
M  V30 968 N 90.1641 1.46063 -0.591896 0
M  V30 969 C 91.1111 2.30399 0.136069 0
M  V30 970 C 92.0811 1.41169 0.875238 0
M  V30 971 O 93.2661 1.70112 0.86409 0
M  V30 972 C 90.4061 3.25804 1.13781 0
M  V30 973 C 89.5191 4.30134 0.401137 0
M  V30 974 C 88.6541 5.12659 1.39121 0
M  V30 975 C 87.6931 6.0873 0.641462 0
M  V30 976 N 86.8301 6.8409 1.58004 0
M  V30 977 H 91.6701 2.92118 -0.589144 0
M  V30 978 H 89.2071 1.43959 -0.302342 0
M  V30 979 H 91.1651 3.79569 1.73156 0
M  V30 980 H 89.7951 2.65872 1.83062 0
M  V30 981 H 88.8471 3.79152 -0.307826 0
M  V30 982 H 90.1591 4.98458 -0.184565 0
M  V30 983 H 89.3131 5.70747 2.05749 0
M  V30 984 H 88.0521 4.44316 2.01084 0
M  V30 985 H 87.0571 5.49786 -0.0385419 0
M  V30 986 H 88.2821 6.79095 0.0270945 0
M  V30 987 H 86.2281 6.18449 2.18761 0
M  V30 988 H 86.1451 7.48709 1.04738 0
M  V30 989 H 87.4131 7.4673 2.23639 0
M  V30 990 N 91.6422 0.330177 1.54103 0
M  V30 991 C 92.8702 -0.272179 2.05102 0
M  V30 992 C 93.2852 -1.45267 1.20595 0
M  V30 993 O 92.6422 -1.8094 0.238144 0
M  V30 994 C 92.6932 -0.70023 3.54653 0
M  V30 995 O 92.4142 0.433301 4.35952 0
M  V30 996 C 93.9152 -1.3647 4.21771 0
M  V30 997 H 91.1352 -0.0549159 0.668749 0
M  V30 998 H 93.6792 0.478285 1.98828 0
M  V30 999 H 91.8342 -1.40066 3.61193 0
M  V30 1000 H 92.2482 0.0947539 5.24414 0
M  V30 1001 H 93.7222 -1.61509 5.27843 0
M  V30 1002 H 94.1992 -2.31409 3.73292 0
M  V30 1003 H 94.8052 -0.706675 4.19388 0
M  V30 1004 N 93.1203 -1.57491 0.0584922 0
M  V30 1005 C 94.0683 -2.13148 -0.931168 0
M  V30 1006 C 95.0623 -1.06507 -1.31729 0
M  V30 1007 O 96.2683 -1.24906 -1.29609 0
M  V30 1008 H 92.6433 -0.68137 -0.31818 0
M  V30 1009 H 94.6143 -2.95187 -0.436707 0
M  V30 1010 C 93.3633 -2.69732 -2.19408 0
M  V30 1011 H 92.6863 -3.51454 -1.90578 0
M  V30 1012 H 94.1263 -3.12287 -2.86798 0
M  V30 1013 C 92.5853 -1.63855 -2.94369 0
M  V30 1014 O 93.1153 -1.05565 -3.87581 0
M  V30 1015 N 91.3213 -1.35202 -2.57233 0
M  V30 1016 H 90.8683 -1.82791 -1.81508 0
M  V30 1017 H 90.8263 -0.645922 -3.07693 0
M  V30 1018 N 94.5984 0.214957 -1.56127 0
M  V30 1019 C 95.5084 1.28727 -1.96129 0
M  V30 1020 C 96.5244 1.50916 -0.866044 0
M  V30 1021 O 97.7004 1.63918 -1.17016 0
M  V30 1022 C 94.7654 2.61569 -2.27558 0
M  V30 1023 C 93.8264 2.47625 -3.50685 0
M  V30 1024 C 93.0594 3.74132 -3.80606 0
M  V30 1025 O 93.2824 4.77438 -3.12104 0
M  V30 1026 O 92.2164 3.70849 -4.74083 0
M  V30 1027 H 96.0424 0.977855 -2.87527 0
M  V30 1028 H 93.6274 0.418358 -1.43423 0
M  V30 1029 H 95.5094 3.40012 -2.48938 0
M  V30 1030 H 94.1844 2.92178 -1.39332 0
M  V30 1031 H 93.0914 1.67361 -3.34576 0
M  V30 1032 H 94.4244 2.21954 -4.39315 0
M  V30 1033 N 96.0765 1.50051 0.48192 0
M  V30 1034 C 96.9865 1.7089 1.60728 0
M  V30 1035 C 98.0025 0.591788 1.63627 0
M  V30 1036 O 99.1785 0.868817 1.81696 0
M  V30 1037 C 96.2435 1.78855 2.97005 0
M  V30 1038 C 95.3045 3.02537 3.04581 0
M  V30 1039 C 94.5375 3.10112 4.34357 0
M  V30 1040 O 94.7605 2.24765 5.24249 0
M  V30 1041 O 93.6945 4.02747 4.47301 0
M  V30 1042 H 97.5205 2.66264 1.46072 0
M  V30 1043 H 95.1055 1.34018 0.660264 0
M  V30 1044 H 96.9875 1.86336 3.77964 0
M  V30 1045 H 95.6625 0.866628 3.11883 0
M  V30 1046 H 94.5695 3.00563 2.22739 0
M  V30 1047 H 95.9025 3.94272 2.94636 0
M  V30 1048 N 97.5546 -0.734337 1.39446 0
M  V30 1049 C 98.9706 -1.03997 1.21065 0
M  V30 1050 C 99.1706 -2.01369 0.0727019 0
M  V30 1051 O 98.2266 -2.45856 -0.575426 0
M  V30 1052 C 99.5396 -1.60163 2.54496 0
M  V30 1053 C 101.088 -1.7224 2.61347 0
M  V30 1054 C 101.563 -2.31814 3.95002 0
M  V30 1055 N 103.054 -2.39223 3.96644 0
M  V30 1056 C 103.789 -2.86258 4.96834 0
M  V30 1057 N 103.285 -3.33184 6.07421 0
M  V30 1058 N 105.078 -2.85473 4.84213 0
M  V30 1059 H 97.2286 -0.0885624 2.12215 0
M  V30 1060 H 99.4916 -0.10191 0.942506 0
M  V30 1061 H 99.1976 -0.960811 3.38321 0
M  V30 1062 H 99.0716 -2.5896 2.74262 0
M  V30 1063 H 101.459 -2.35443 1.77906 0
M  V30 1064 H 101.54 -0.720939 2.4543 0
M  V30 1065 H 101.184 -1.69238 4.78875 0
M  V30 1066 H 101.114 -3.32638 4.08239 0
M  V30 1067 H 103.605 -2.06057 3.16779 0
M  V30 1068 H 103.918 -3.67586 6.7978 0
M  V30 1069 H 102.263 -3.31191 6.11013 0
M  V30 1070 H 105.454 -2.48136 3.96921 0
M  V30 1071 H 105.627 -3.21814 5.62441 0
M  V30 1072 N 99.0327 -1.24633 -0.964593 0
M  V30 1073 C 99.9797 -1.04144 -2.05968 0
M  V30 1074 C 100.95 0.046262 -1.66036 0
M  V30 1075 O 102.135 -0.108972 -1.90489 0
M  V30 1076 C 99.2747 -0.65563 -3.38815 0
M  V30 1077 C 98.3877 -1.81714 -3.91923 0
M  V30 1078 C 97.5227 -1.37662 -5.13052 0
M  V30 1079 C 96.5617 -2.50788 -5.58365 0
M  V30 1080 N 95.6987 -2.07582 -6.70712 0
M  V30 1081 H 100.539 -1.9787 -2.22827 0
M  V30 1082 H 98.0757 -0.9855 -1.09208 0
M  V30 1083 H 100.034 -0.412954 -4.15151 0
M  V30 1084 H 98.6637 0.244627 -3.21872 0
M  V30 1085 H 97.7157 -2.1734 -3.12198 0
M  V30 1086 H 99.0277 -2.66705 -4.21509 0
M  V30 1087 H 98.1817 -1.093 -5.96773 0
M  V30 1088 H 96.9207 -0.497293 -4.85158 0
M  V30 1089 H 95.9257 -2.79906 -4.73215 0
M  V30 1090 H 97.1507 -3.39283 -5.88272 0
M  V30 1091 H 95.0967 -1.22051 -6.44546 0
M  V30 1092 H 95.0137 -2.86125 -6.99763 0
M  V30 1093 H 96.2817 -1.82369 -7.57867 0
M  V30 1094 N 100.511 1.16574 -1.06058 0
M  V30 1095 C 101.739 1.90952 -0.796552 0
M  V30 1096 C 102.154 1.77302 0.648808 0
M  V30 1097 O 101.511 1.11605 1.44397 0
M  V30 1098 C 101.562 3.41736 -1.17894 0
M  V30 1099 O 101.283 3.54975 -2.56758 0
M  V30 1100 C 102.784 4.33169 -0.942308 0
M  V30 1101 H 100.004 0.605594 -0.288959 0
M  V30 1102 H 102.548 1.47777 -1.41358 0
M  V30 1103 H 100.703 3.82623 -0.606491 0
M  V30 1104 H 101.117 4.4846 -2.72 0
M  V30 1105 H 102.591 5.37439 -1.25952 0
M  V30 1106 H 103.068 4.3903 0.122078 0
M  V30 1107 H 103.674 3.98007 -1.49902 0
M  V30 1108 N 101.989 0.842826 1.3317 0
M  V30 1109 C 102.919 0.294028 2.31641 0
M  V30 1110 C 103.9 -0.600401 1.59151 0
M  V30 1111 O 105.085 -0.523124 1.87022 0
M  V30 1112 C 102.215 -0.528416 3.43257 0
M  V30 1113 C 101.169 0.27056 4.27144 0
M  V30 1114 C 100.495 -0.675881 5.30411 0
M  V30 1115 C 101.795 1.48981 5.00602 0
M  V30 1116 H 103.489 1.11681 2.77791 0
M  V30 1117 H 101.035 0.538478 1.33553 0
M  V30 1118 H 102.988 -0.922674 4.11175 0
M  V30 1119 H 101.712 -1.38445 2.95805 0
M  V30 1120 H 100.371 0.646427 3.60856 0
M  V30 1121 H 100.019 -1.52842 4.79216 0
M  V30 1122 H 99.7189 -0.145374 5.8742 0
M  V30 1123 H 101.243 -1.06757 6.01195 0
M  V30 1124 H 102.657 1.16849 5.61266 0
M  V30 1125 H 101.054 1.95739 5.6728 0
M  V30 1126 H 102.124 2.25746 4.29147 0
M  V30 1127 N 103.467 -1.45747 0.599634 0
M  V30 1128 C 104.397 -2.33235 -0.111306 0
M  V30 1129 C 105.378 -1.46359 -0.866781 0
M  V30 1130 O 106.563 -1.75146 -0.838904 0
M  V30 1131 C 103.693 -3.28932 -1.11451 0
M  V30 1132 C 102.647 -4.25381 -0.472772 0
M  V30 1133 C 101.973 -5.1071 -1.58365 0
M  V30 1134 C 103.273 -5.18831 0.600948 0
M  V30 1135 H 104.967 -2.92927 0.61919 0
M  V30 1136 H 102.513 -1.40857 0.299215 0
M  V30 1137 H 104.466 -3.89002 -1.62036 0
M  V30 1138 H 103.19 -2.67381 -1.8755 0
M  V30 1139 H 101.849 -3.66598 0.0121472 0
M  V30 1140 H 101.497 -4.45533 -2.33473 0
M  V30 1141 H 101.197 -5.7604 -1.15982 0
M  V30 1142 H 102.721 -5.73647 -2.09194 0
M  V30 1143 H 104.135 -5.73019 0.179491 0
M  V30 1144 H 102.532 -5.92595 0.946076 0
M  V30 1145 H 103.602 -4.6174 1.48068 0
M  V30 1146 N 104.945 -0.338344 -1.53925 0
M  V30 1147 C 106.17 0.263987 -2.05713 0
M  V30 1148 C 106.595 1.43847 -1.21201 0
M  V30 1149 O 105.953 1.79904 -0.224535 0
M  V30 1150 C 106.001 0.662 -3.54471 0
M  V30 1151 O 105.105 1.76265 -3.72833 0
M  V30 1152 H 104.446 0.0448722 -0.662482 0
M  V30 1153 H 106.976 -0.491048 -1.9862 0
M  V30 1154 H 106.986 0.940594 -3.9701 0
M  V30 1155 H 105.661 -0.196937 -4.15433 0
M  V30 1156 H 104.238 1.48173 -3.42198 0
M  V30 1157 N 106.423 1.57458 -0.0668435 0
M  V30 1158 C 107.371 2.13639 0.919851 0
M  V30 1159 C 108.365 1.07204 1.31163 0
M  V30 1160 O 109.571 1.25591 1.28945 0
M  V30 1161 H 105.946 0.683048 0.314562 0
M  V30 1162 H 107.917 2.95415 0.421047 0
M  V30 1163 C 106.666 2.70892 2.17975 0
M  V30 1164 H 105.989 3.5246 1.88711 0
M  V30 1165 H 107.429 3.13803 2.85138 0
M  V30 1166 C 105.888 1.65414 2.93496 0
M  V30 1167 O 106.418 1.07619 3.87015 0
M  V30 1168 N 104.624 1.36564 2.56512 0
M  V30 1169 H 104.171 1.83751 1.80536 0
M  V30 1170 H 104.129 0.66223 3.07347 0
M  V30 1171 N 107.901 -0.206675 1.56239 0
M  V30 1172 C 108.831 -1.25909 1.96645 0
M  V30 1173 C 109.812 -1.48097 0.836734 0
M  V30 1174 O 110.997 -1.6003 1.10019 0
M  V30 1175 C 108.127 -2.6058 2.29599 0
M  V30 1176 C 107.081 -2.53024 3.452 0
M  V30 1177 C 106.407 -3.91861 3.63798 0
M  V30 1178 C 107.707 -2.06524 4.79734 0
M  V30 1179 H 109.401 -0.923369 2.84806 0
M  V30 1180 H 106.947 -0.442735 1.37025 0
M  V30 1181 H 108.9 -3.34375 2.56459 0
M  V30 1182 H 107.624 -2.95869 1.38307 0
M  V30 1183 H 106.283 -1.81684 3.18412 0
M  V30 1184 H 105.931 -4.24483 2.69857 0
M  V30 1185 H 105.631 -3.87683 4.4156 0
M  V30 1186 H 107.155 -4.67296 3.93022 0
M  V30 1187 H 108.569 -2.70072 5.05702 0
M  V30 1188 H 106.966 -2.13374 5.60885 0
M  V30 1189 H 108.036 -1.01802 4.74093 0
M  V30 1190 N 109.379 -1.50304 -0.473955 0
M  V30 1191 C 110.289 -1.7174 -1.5982 0
M  V30 1192 C 111.305 -0.600457 -1.63311 0
M  V30 1193 O 112.481 -0.878441 -1.81233 0
M  V30 1194 C 109.546 -1.80427 -2.96052 0
M  V30 1195 C 108.607 -3.04148 -3.02972 0
M  V30 1196 C 107.84 -3.12411 -4.32706 0
M  V30 1197 O 108.063 -2.27542 -5.23049 0
M  V30 1198 O 106.997 -4.05113 -4.45159 0
M  V30 1199 H 110.823 -2.67035 -1.44657 0
M  V30 1200 H 108.408 -1.34366 -0.653148 0
M  V30 1201 H 110.29 -1.88338 -3.7697 0
M  V30 1202 H 108.965 -0.883156 -3.11419 0
M  V30 1203 H 107.872 -3.0174 -2.21142 0
M  V30 1204 H 109.205 -3.95829 -2.92541 0
M  V30 1205 N 110.857 0.726932 -1.39834 0
M  V30 1206 C 111.767 1.87131 -1.41489 0
M  V30 1207 C 112.783 1.71239 -0.308757 0
M  V30 1208 O 113.959 1.93701 -0.551529 0
M  V30 1209 C 111.024 3.22811 -1.26468 0
M  V30 1210 C 110.085 3.51039 -2.47124 0
M  V30 1211 C 109.318 4.80245 -2.3281 0
M  V30 1212 O 109.541 5.54537 -1.33585 0
M  V30 1213 O 108.475 5.08554 -3.21957 0
M  V30 1214 H 112.301 1.8869 -2.3797 0
M  V30 1215 H 109.886 0.875837 -1.21035 0
M  V30 1216 H 111.768 4.03877 -1.20255 0
M  V30 1217 H 110.443 3.22005 -0.330862 0
M  V30 1218 H 109.35 2.70027 -2.58914 0
M  V30 1219 H 110.683 3.56632 -3.39227 0
M  V30 1220 N 112.336 1.25143 0.95797 0
M  V30 1221 C 113.299 1.05321 2.03569 0
M  V30 1222 C 114.299 0.007152 1.60798 0
M  V30 1223 O 115.489 0.24903 1.72411 0
M  V30 1224 C 112.621 0.598394 3.35607 0
M  V30 1225 H 113.814 2.00986 2.22586 0
M  V30 1226 H 111.367 1.07502 1.13459 0
M  V30 1227 H 112.102 -0.361014 3.22284 0
M  V30 1228 H 111.887 1.35351 3.67998 0
M  V30 1229 H 113.377 0.48104 4.1482 0
M  V30 1230 N 113.814 -1.1601 1.06675 0
M  V30 1231 C 114.761 -2.20525 0.680967 0
M  V30 1232 C 115.731 -1.62904 -0.324283 0
M  V30 1233 O 116.916 -1.89615 -0.212294 0
M  V30 1234 C 114.056 -3.45013 0.0776551 0
M  V30 1235 C 113.169 -4.16863 1.13355 0
M  V30 1236 C 112.304 -5.2888 0.49597 0
M  V30 1237 C 111.343 -5.92537 1.53513 0
M  V30 1238 N 110.48 -6.96038 0.920631 0
M  V30 1239 H 115.32 -2.52876 1.57663 0
M  V30 1240 H 112.857 -1.24199 0.788223 0
M  V30 1241 H 114.815 -4.16193 -0.289704 0
M  V30 1242 H 113.445 -3.132 -0.781393 0
M  V30 1243 H 112.497 -3.44248 1.61857 0
M  V30 1244 H 113.809 -4.60294 1.92174 0
M  V30 1245 H 112.963 -6.06653 0.0758604 0
M  V30 1246 H 111.702 -4.86622 -0.324062 0
M  V30 1247 H 110.707 -5.13482 1.9651 0
M  V30 1248 H 111.932 -6.36873 2.35733 0
M  V30 1249 H 109.878 -6.55888 0.12138 0
M  V30 1250 H 109.795 -7.3786 1.64616 0
M  V30 1251 H 111.063 -7.77725 0.525795 0
M  V30 1252 N 115.292 -0.849877 -1.32721 0
M  V30 1253 C 116.239 -0.289033 -2.28983 0
M  V30 1254 C 117.209 0.601324 -1.54833 0
M  V30 1255 O 118.394 0.537253 -1.8308 0
M  V30 1256 C 115.534 0.520623 -3.4115 0
M  V30 1257 C 114.647 -0.394989 -4.3019 0
M  V30 1258 C 113.782 0.426834 -5.29482 0
M  V30 1259 C 112.821 -0.486476 -6.10164 0
M  V30 1260 N 111.958 0.297879 -7.01468 0
M  V30 1261 H 116.798 -1.11519 -2.76347 0
M  V30 1262 H 114.335 -0.56138 -1.35967 0
M  V30 1263 H 116.293 1.00563 -4.04899 0
M  V30 1264 H 114.923 1.31165 -2.9495 0
M  V30 1265 H 113.975 -0.99836 -3.67065 0
M  V30 1266 H 115.287 -1.09612 -4.86607 0
M  V30 1267 H 114.441 0.975205 -5.98811 0
M  V30 1268 H 113.18 1.16136 -4.73671 0
M  V30 1269 H 112.185 -1.04677 -5.39743 0
M  V30 1270 H 113.41 -1.21953 -6.6806 0
M  V30 1271 H 111.356 1.01558 -6.48091 0
M  V30 1272 H 111.273 -0.344318 -7.55216 0
M  V30 1273 H 112.541 0.828131 -7.75089 0
M  V30 1274 N 116.77 1.45427 -0.607355 0
M  V30 1275 C 117.717 2.3053 0.111625 0
M  V30 1276 C 118.687 1.4209 0.860216 0
M  V30 1277 O 119.872 1.71019 0.845998 0
M  V30 1278 C 117.012 3.26992 1.10319 0
M  V30 1279 C 116.125 4.30535 0.355493 0
M  V30 1280 C 115.26 5.14105 1.33676 0
M  V30 1281 C 114.299 6.09376 0.576862 0
M  V30 1282 N 113.436 6.85727 1.5074 0
M  V30 1283 H 118.276 2.91477 -0.620093 0
M  V30 1284 H 115.813 1.43631 -0.317594 0
M  V30 1285 H 117.771 3.81385 1.6912 0
M  V30 1286 H 116.401 2.67799 1.80232 0
M  V30 1287 H 115.453 3.78805 -0.348023 0
M  V30 1288 H 116.765 4.98235 -0.237423 0
M  V30 1289 H 115.919 5.72897 1.99684 0
M  V30 1290 H 114.658 4.46423 1.9636 0
M  V30 1291 H 113.663 5.49715 -0.0968519 0
M  V30 1292 H 114.888 6.79085 -0.0449341 0
M  V30 1293 H 112.834 6.20735 2.12189 0
M  V30 1294 H 112.751 7.49778 0.967913 0
M  V30 1295 H 114.019 7.4906 2.15706 0
M  V30 1296 N 118.248 0.346503 1.53744 0
M  V30 1297 C 119.195 -0.508914 2.25119 0
M  V30 1298 C 120.165 -1.09315 1.25058 0
M  V30 1299 O 121.35 -1.12921 1.53797 0
M  V30 1300 C 118.49 -1.65246 3.02965 0
M  V30 1301 C 117.603 -1.09525 4.17886 0
M  V30 1302 C 116.738 -2.20634 4.83212 0
M  V30 1303 C 115.777 -1.62279 5.90196 0
M  V30 1304 N 114.914 -2.67143 6.49291 0
M  V30 1305 H 119.754 0.106283 2.9781 0
M  V30 1306 H 117.291 0.0642227 1.4696 0
M  V30 1307 H 119.249 -2.32574 3.4636 0
M  V30 1308 H 117.879 -2.2386 2.32565 0
M  V30 1309 H 116.931 -0.312818 3.79112 0
M  V30 1310 H 118.243 -0.628444 4.94825 0
M  V30 1311 H 117.397 -2.95821 5.29693 0
M  V30 1312 H 116.136 -2.70659 4.05703 0
M  V30 1313 H 115.141 -0.855989 5.43096 0
M  V30 1314 H 116.366 -1.13102 6.69615 0
M  V30 1315 H 114.312 -3.16417 5.74645 0
M  V30 1316 H 114.229 -2.25093 7.21713 0
M  V30 1317 H 115.497 -3.4209 7.00425 0
M  V30 1318 N 119.726 -1.57421 0.075193 0
M  V30 1319 C 120.636 -2.1642 -0.905511 0
M  V30 1320 C 121.652 -1.12828 -1.32461 0
M  V30 1321 O 122.828 -1.45109 -1.39661 0
M  V30 1322 C 119.893 -2.71693 -2.15369 0
M  V30 1323 C 118.954 -3.90171 -1.79068 0
M  V30 1324 C 118.187 -4.42798 -2.97936 0
M  V30 1325 O 118.41 -3.94416 -4.12058 0
M  V30 1326 O 117.344 -5.34085 -2.77555 0
M  V30 1327 H 121.17 -3.00588 -0.433626 0
M  V30 1328 H 118.755 -1.48664 -0.148067 0
M  V30 1329 H 120.637 -3.07104 -2.88557 0
M  V30 1330 H 119.312 -1.90582 -2.61649 0
M  V30 1331 H 118.219 -3.59606 -1.03122 0
M  V30 1332 H 119.552 -4.72584 -1.37569 0
M  V30 1333 N 121.204 0.198386 -1.56346 0
M  V30 1334 C 122.481 0.944982 -1.71258 0
M  V30 1335 C 122.861 2.0151 -0.629048 0
M  V30 1336 O 122.209 2.25639 0.360473 0
M  V30 1337 C 122.419 1.5344 -3.1346 0
M  V30 1338 C 123.767 2.01778 -3.73591 0
M  V30 1339 O 124.791 1.63288 -3.16568 0
M  V30 1340 O 123.65 2.72594 -4.73661 0
M  V30 1341 H 120.744 0.442939 -0.69838 0
M  V30 1342 H 123.29 0.188342 -1.68652 0
M  V30 1343 H 122.062 0.762869 -3.83792 0
M  V30 1344 H 121.685 2.35596 -3.20282 0
M  V30 1345 N 122.682 1.50554 0.465978 0
M  V30 1346 C 123.645 1.69233 1.54574 0
M  V30 1347 C 124.645 0.562901 1.50626 0
M  V30 1348 O 125.835 0.830016 1.53155 0
M  V30 1349 C 122.967 1.7223 2.94193 0
M  V30 1350 H 124.16 2.65571 1.39327 0
M  V30 1351 H 121.713 1.40111 0.692711 0
M  V30 1352 H 122.448 0.77603 3.14878 0
M  V30 1353 H 122.233 2.54285 2.98466 0
M  V30 1354 H 123.723 1.88618 3.72576 0
M  V30 1355 N 124.16 -0.719506 1.40217 0
M  V30 1356 C 125.09 -1.8465 1.42922 0
M  V30 1357 C 126.071 -1.67599 0.29062 0
M  V30 1358 O 127.256 -1.87688 0.498677 0
M  V30 1359 C 124.386 -3.22565 1.28722 0
M  V30 1360 C 123.34 -3.54281 2.40144 0
M  V30 1361 C 122.666 -4.91298 2.11023 0
M  V30 1362 C 123.966 -3.55676 3.82481 0
M  V30 1363 H 125.66 -1.82644 2.37237 0
M  V30 1364 H 123.206 -0.877305 1.1419 0
M  V30 1365 H 125.159 -4.01095 1.29232 0
M  V30 1366 H 123.883 -3.25137 0.308811 0
M  V30 1367 H 122.542 -2.78088 2.38877 0
M  V30 1368 H 122.19 -4.90468 1.11582 0
M  V30 1369 H 121.89 -5.13485 2.8567 0
M  V30 1370 H 123.414 -5.72166 2.13209 0
M  V30 1371 H 124.828 -4.24254 3.85592 0
M  V30 1372 H 123.225 -3.89388 4.56614 0
M  V30 1373 H 124.295 -2.55144 4.12346 0
M  V30 1374 N 125.638 -1.25649 -0.95132 0
M  V30 1375 C 126.586 -1.06118 -2.06982 0
M  V30 1376 C 127.58 0.00889169 -1.69398 0
M  V30 1377 O 128.786 -0.146988 -1.79399 0
M  V30 1378 H 125.161 -0.326248 -0.677544 0
M  V30 1379 H 127.132 -2.00932 -2.2061 0
M  V30 1380 C 125.881 -0.700145 -3.40578 0
M  V30 1381 H 125.204 -1.51537 -3.69968 0
M  V30 1382 H 126.644 -0.603211 -4.19687 0
M  V30 1383 C 125.103 0.59403 -3.31622 0
M  V30 1384 O 125.633 1.63522 -3.66911 0
M  V30 1385 N 123.839 0.58089 -2.84735 0
M  V30 1386 H 123.386 -0.266783 -2.56215 0
M  V30 1387 H 123.344 1.44695 -2.79125 0
M  V30 1388 N 127.117 1.15442 -1.07289 0
M  V30 1389 C 128.027 2.23786 -0.704057 0
M  V30 1390 C 129.043 1.7166 0.284413 0
M  V30 1391 O 130.219 2.00972 0.131205 0
M  V30 1392 C 127.284 3.46535 -0.106792 0
M  V30 1393 C 126.345 4.13654 -1.14842 0
M  V30 1394 C 125.578 5.30544 -0.57956 0
M  V30 1395 O 125.801 5.67187 0.604585 0
M  V30 1396 O 124.735 5.87154 -1.32414 0
M  V30 1397 H 128.561 2.57664 -1.60757 0
M  V30 1398 H 126.146 1.23152 -0.845803 0
M  V30 1399 H 128.028 4.20804 0.224048 0
M  V30 1400 H 126.703 3.14407 0.770049 0
M  V30 1401 H 125.61 3.4131 -1.5316 0
M  V30 1402 H 126.943 4.49861 -1.99714 0
M  V30 1403 N 128.595 0.856903 1.32268 0
M  V30 1404 C 129.823 0.475439 2.01363 0
M  V30 1405 C 130.238 -0.928486 1.64392 0
M  V30 1406 O 129.595 -1.60624 0.866387 0
M  V30 1407 C 129.646 0.607545 3.56358 0
M  V30 1408 O 129.367 1.95617 3.92002 0
M  V30 1409 C 130.868 0.225382 4.42727 0
M  V30 1410 H 128.088 0.186636 0.644521 0
M  V30 1411 H 130.632 1.15446 1.68797 0
M  V30 1412 H 128.787 -0.0237719 3.87393 0
M  V30 1413 H 129.201 1.95455 4.86721 0
M  V30 1414 H 130.675 0.368813 5.50767 0
M  V30 1415 H 131.152 -0.834369 4.31202 0
M  V30 1416 H 131.758 0.831864 4.17085 0
M  V30 1417 N 130.073 -1.45103 0.615059 0
M  V30 1418 C 131.489 -1.57137 0.279322 0
M  V30 1419 C 131.689 -1.60523 -1.21797 0
M  V30 1420 O 130.745 -1.53956 -2.00134 0
M  V30 1421 C 132.058 -2.85062 0.957083 0
M  V30 1422 C 133.606 -2.98749 0.933706 0
M  V30 1423 C 134.081 -4.29455 1.59162 0
M  V30 1424 N 135.572 -4.36231 1.55746 0
M  V30 1425 C 136.307 -5.36051 2.0356 0
M  V30 1426 N 135.803 -6.42367 2.59494 0
M  V30 1427 N 137.596 -5.27456 1.94284 0
M  V30 1428 H 129.747 -1.41148 1.58717 0
M  V30 1429 H 132.01 -0.675331 0.665306 0
M  V30 1430 H 131.716 -2.88488 2.01166 0
M  V30 1431 H 131.59 -3.7407 0.48494 0
M  V30 1432 H 133.977 -2.94886 -0.112347 0
M  V30 1433 H 134.058 -2.11132 1.44419 0
M  V30 1434 H 133.702 -4.34077 2.63704 0
M  V30 1435 H 133.632 -5.15901 1.0561 0
M  V30 1436 H 136.123 -3.60011 1.14893 0
M  V30 1437 H 136.436 -7.14793 2.93752 0
M  V30 1438 H 134.781 -6.43097 2.63537 0
M  V30 1439 H 137.972 -4.43308 1.5032 0
M  V30 1440 H 138.145 -6.05099 2.3186 0
M  V30 1441 N 131.551 -0.354651 -1.53558 0
M  V30 1442 C 132.461 0.50515 -2.29097 0
M  V30 1443 C 133.477 1.10223 -1.34636 0
M  V30 1444 O 134.653 1.11553 -1.67684 0
M  V30 1445 C 131.718 1.63479 -3.05738 0
M  V30 1446 C 130.779 1.06636 -4.15845 0
M  V30 1447 C 130.012 2.14217 -4.88822 0
M  V30 1448 O 130.235 3.35137 -4.61562 0
M  V30 1449 O 129.169 1.77887 -5.75013 0
M  V30 1450 H 132.995 -0.109237 -3.03503 0
M  V30 1451 H 130.58 -0.119357 -1.48922 0
M  V30 1452 H 132.462 2.2918 -3.5363 0
M  V30 1453 H 131.137 2.23478 -2.34178 0
M  V30 1454 H 130.044 0.373565 -3.7223 0
M  V30 1455 H 131.377 0.511081 -4.89539 0
M  V30 1456 N 133.029 1.57378 -0.0835403 0
M  V30 1457 C 134.254 1.98682 0.594987 0
M  V30 1458 C 134.679 0.961969 1.61641 0
M  V30 1459 O 134.037 -0.0709989 1.81161 0
M  V30 1460 C 134.085 3.38988 1.2296 0
M  V30 1461 O 133.189 3.39208 2.34546 0
M  V30 1462 H 132.53 0.646368 0.152002 0
M  V30 1463 H 135.06 2.03961 -0.161533 0
M  V30 1464 H 135.07 3.76431 1.57366 0
M  V30 1465 H 133.745 4.13107 0.481228 0
M  V30 1466 H 132.322 3.13548 2.01846 0
M  V30 1467 N 134.507 -0.190092 1.56449 0
M  V30 1468 C 135.417 -1.25591 1.98152 0
M  V30 1469 C 136.433 -1.49519 0.889944 0
M  V30 1470 O 137.609 -1.62036 1.19609 0
M  V30 1471 C 134.674 -2.57916 2.3169 0
M  V30 1472 C 133.735 -2.42015 3.5458 0
M  V30 1473 C 132.968 -3.6803 3.8651 0
M  V30 1474 O 133.191 -4.72413 3.1966 0
M  V30 1475 O 132.125 -3.6326 4.79923 0
M  V30 1476 H 135.951 -0.931988 2.89046 0
M  V30 1477 H 133.536 -0.395488 1.4407 0
M  V30 1478 H 135.418 -3.36008 2.54316 0
M  V30 1479 H 134.093 -2.89925 1.43963 0
M  V30 1480 H 133 -1.62017 3.37196 0
M  V30 1481 H 134.333 -2.14937 4.4279 0
M  V30 1482 N 135.985 -1.50799 -0.457987 0
M  V30 1483 C 137.213 -1.66218 -1.23203 0
M  V30 1484 C 137.628 -0.350894 -1.85511 0
M  V30 1485 O 136.985 0.668546 -1.69814 0
M  V30 1486 C 137.036 -2.76291 -2.33121 0
M  V30 1487 O 136.757 -4.02338 -1.73366 0
M  V30 1488 C 138.258 -3.028 -3.2377 0
M  V30 1489 H 135.478 -0.558361 -0.372121 0
M  V30 1490 H 138.022 -1.97099 -0.545179 0
M  V30 1491 H 136.177 -2.48068 -2.97558 0
M  V30 1492 H 136.591 -4.63312 -2.4585 0
M  V30 1493 H 138.065 -3.8345 -3.97077 0
M  V30 1494 H 138.542 -2.14385 -3.83322 0
M  V30 1495 H 139.148 -3.32604 -2.65056 0
M  V30 1496 N 137.463 0.71206 -1.40597 0
M  V30 1497 C 138.41 1.82613 -1.41142 0
M  V30 1498 C 139.38 1.63925 -0.267903 0
M  V30 1499 O 140.565 1.85009 -0.466495 0
M  V30 1500 C 137.705 3.20354 -1.28324 0
M  V30 1501 C 136.818 3.50589 -2.52411 0
M  V30 1502 C 135.953 4.77855 -2.32009 0
M  V30 1503 C 134.992 5.01005 -3.51654 0
M  V30 1504 N 134.129 6.19487 -3.30425 0
M  V30 1505 H 138.969 1.81482 -2.36365 0
M  V30 1506 H 136.506 0.886475 -1.17388 0
M  V30 1507 H 138.464 3.99899 -1.18899 0
M  V30 1508 H 137.094 3.20705 -0.367189 0
M  V30 1509 H 136.146 2.65573 -2.72351 0
M  V30 1510 H 137.458 3.63604 -3.41458 0
M  V30 1511 H 136.612 5.65424 -2.19956 0
M  V30 1512 H 135.351 4.67056 -1.40392 0
M  V30 1513 H 134.356 4.1189 -3.64179 0
M  V30 1514 H 135.581 5.13674 -4.44202 0
M  V30 1515 H 133.527 6.09932 -2.41494 0
M  V30 1516 H 133.444 6.33194 -4.13039 0
M  V30 1517 H 134.712 7.09834 -3.22113 0
M  V30 1518 N 138.941 1.26152 0.944643 0
M  V30 1519 C 139.871 1.09902 2.06019 0
M  V30 1520 C 140.852 0.00519538 1.70099 0
M  V30 1521 O 142.037 0.176583 1.93396 0
M  V30 1522 C 139.167 0.727562 3.39594 0
M  V30 1523 C 138.121 1.77274 3.89561 0
M  V30 1524 C 137.447 1.25569 5.19747 0
M  V30 1525 C 138.747 3.17357 4.14827 0
M  V30 1526 H 140.441 2.03217 2.19871 0
M  V30 1527 H 137.987 0.978452 1.05652 0
M  V30 1528 H 139.94 0.600777 4.17095 0
M  V30 1529 H 138.664 -0.241287 3.25707 0
M  V30 1530 H 137.323 1.88814 3.14237 0
M  V30 1531 H 136.971 0.276783 5.02238 0
M  V30 1532 H 136.671 1.95433 5.54148 0
M  V30 1533 H 138.195 1.1415 5.99835 0
M  V30 1534 H 139.609 3.08914 4.82954 0
M  V30 1535 H 138.006 3.84781 4.60504 0
M  V30 1536 H 139.076 3.63673 3.20734 0
M  V30 1537 N 140.419 -1.14872 1.07899 0
M  V30 1538 C 141.366 -2.19791 0.704319 0
M  V30 1539 C 142.336 -1.63238 -0.306987 0
M  V30 1540 O 143.521 -1.8983 -0.192171 0
M  V30 1541 C 140.661 -3.44911 0.114244 0
M  V30 1542 C 139.774 -4.15637 1.1777 0
M  V30 1543 C 138.909 -5.28324 0.552037 0
M  V30 1544 C 137.948 -5.90875 1.59789 0
M  V30 1545 N 137.085 -6.95022 0.994404 0
M  V30 1546 H 141.925 -2.5119 1.60336 0
M  V30 1547 H 139.462 -1.23356 0.801352 0
M  V30 1548 H 141.42 -4.16477 -0.245544 0
M  V30 1549 H 140.05 -3.14011 -0.74813 0
M  V30 1550 H 139.102 -3.42512 1.65499 0
M  V30 1551 H 140.414 -4.5823 1.97046 0
M  V30 1552 H 139.568 -6.06538 0.1402 0
M  V30 1553 H 138.307 -4.86939 -0.272431 0
M  V30 1554 H 137.312 -5.11369 2.01945 0
M  V30 1555 H 138.537 -6.34337 2.42474 0
M  V30 1556 H 136.483 -6.55722 0.190939 0
M  V30 1557 H 136.4 -7.36073 1.72432 0
M  V30 1558 H 137.668 -7.77123 0.608253 0
M  V30 1559 N 141.898 -0.863906 -1.31812 0
M  V30 1560 C 142.808 -0.318461 -2.32428 0
M  V30 1561 C 143.824 0.568496 -1.64451 0
M  V30 1562 O 145 0.46666 -1.95919 0
M  V30 1563 C 142.065 0.476355 -3.43412 0
M  V30 1564 C 141.126 -0.43784 -4.27061 0
M  V30 1565 C 140.359 0.319138 -5.32745 0
M  V30 1566 O 140.582 1.54799 -5.48993 0
M  V30 1567 O 139.516 -0.319861 -6.01049 0
M  V30 1568 H 143.342 -1.15229 -2.80991 0
M  V30 1569 H 140.927 -0.627103 -1.35602 0
M  V30 1570 H 142.809 0.927156 -4.11074 0
M  V30 1571 H 141.484 1.28683 -2.97022 0
M  V30 1572 H 140.391 -0.937013 -3.62175 0
M  V30 1573 H 141.724 -1.21375 -4.77 0
M  V30 1574 N 143.376 1.44774 -0.622745 0
M  V30 1575 C 144.306 2.33382 0.0741861 0
M  V30 1576 C 145.287 1.47719 0.843387 0
M  V30 1577 O 146.472 1.76458 0.810934 0
M  V30 1578 C 143.602 3.30663 1.06204 0
M  V30 1579 C 142.556 4.26079 0.405037 0
M  V30 1580 C 141.882 5.13165 1.5022 0
M  V30 1581 C 143.182 5.1781 -0.683414 0
M  V30 1582 H 144.876 2.91905 -0.665713 0
M  V30 1583 H 142.422 1.40363 -0.321587 0
M  V30 1584 H 144.375 3.9153 1.55827 0
M  V30 1585 H 143.099 2.70331 1.83272 0
M  V30 1586 H 141.758 3.66532 -0.0704683 0
M  V30 1587 H 141.406 4.49191 2.26355 0
M  V30 1588 H 141.106 5.77812 1.06803 0
M  V30 1589 H 142.63 5.76902 2.00041 0
M  V30 1590 H 144.044 5.72661 -0.270631 0
M  V30 1591 H 142.441 5.91015 -1.04023 0
M  V30 1592 H 143.511 4.59326 -1.55395 0
M  V30 1593 N 144.854 0.36279 1.53368 0
M  V30 1594 C 146.265 -0.117022 1.86333 0
M  V30 1595 C 146.616 -1.48397 1.28347 0
M  V30 1596 O 145.741 -2.07787 0.604428 0
M  V30 1597 C 146.336 -0.21912 3.38091 0
M  V30 1598 C 144.895 -0.643184 3.70864 0
M  V30 1599 C 144.042 0.211318 2.76494 0
M  V30 1600 H 146.993 0.581687 1.47655 0
M  V30 1601 H 147.014 -1.04319 3.6592 0
M  V30 1602 H 146.526 0.775902 3.80265 0
M  V30 1603 H 144.627 -1.64654 3.34245 0
M  V30 1604 H 144.74 -0.41973 4.77258 0
M  V30 1605 H 143.104 -0.319367 2.5269 0
M  V30 1606 H 143.887 1.20383 3.21501 0
M  V30 1607 N 146.332 -1.57332 0.0918853 0
M  V30 1608 C 147.58 -1.93853 -0.571446 0
M  V30 1609 C 147.901 -0.974212 -1.6892 0
M  V30 1610 O 147.171 -0.0257254 -1.95883 0
M  V30 1611 H 145.751 -0.715666 -0.214082 0
M  V30 1612 H 148.413 -1.94287 0.154464 0
M  V30 1613 H 147.509 -2.96191 -0.983729 0
M  V30 1614 N 147.81 0.181792 -1.56548 0
M  V30 1615 C 149.056 0.901431 -1.81665 0
M  V30 1616 C 149.389 1.82347 -0.668075 0
M  V30 1617 O 148.664 1.91669 0.330615 0
M  V30 1618 C 148.947 1.70618 -3.17115 0
M  V30 1619 C 148.8 0.807964 -4.42484 0
M  V30 1620 C 150.119 2.67605 -3.49393 0
M  V30 1621 H 147.238 0.32627 -0.660846 0
M  V30 1622 H 149.88 0.168134 -1.89255 0
M  V30 1623 H 148.03 2.33133 -3.10775 0
M  V30 1624 H 149.702 0.19649 -4.60881 0
M  V30 1625 H 147.945 0.115411 -4.33646 0
M  V30 1626 H 148.616 1.40632 -5.33785 0
M  V30 1627 H 151.092 2.15218 -3.56118 0
M  V30 1628 H 149.968 3.20985 -4.45264 0
M  V30 1629 H 150.229 3.47298 -2.73563 0
M  V30 1630 N 149.288 1.51039 0.449983 0
M  V30 1631 C 150.528 1.64732 1.21007 0
M  V30 1632 C 150.892 0.349865 1.88785 0
M  V30 1633 O 152.093 0.362431 2.66345 0
M  V30 1634 C 150.364 2.80902 2.20973 0
M  V30 1635 S 151.923 3.14851 3.05638 0
M  V30 1636 H 148.741 0.5805 0.410538 0
M  V30 1637 H 151.343 1.88901 0.503634 0
M  V30 1638 H 150.047 3.73627 1.69796 0
M  V30 1639 H 149.578 2.58882 2.96215 0
M  V30 1640 H 151.593 2.60306 4.22439 0
M  V30 1641 N 150.766 -0.704594 1.40972 0
M  V30 1642 C 151.714 -1.83994 1.42299 0
M  V30 1643 C 152.708 -1.66684 0.302111 0
M  V30 1644 O 153.914 -1.73655 0.473697 0
M  V30 1645 H 150.289 -0.606171 0.44504 0
M  V30 1646 H 152.26 -1.79992 2.38003 0
M  V30 1647 C 151.009 -3.21946 1.31323 0
M  V30 1648 H 150.332 -3.35878 2.16855 0
M  V30 1649 H 151.772 -4.01491 1.36311 0
M  V30 1650 C 150.231 -3.36891 0.0245977 0
M  V30 1651 O 150.761 -3.90687 -0.934153 0
M  V30 1652 N 148.967 -2.90559 -0.0485243 0
M  V30 1653 H 148.514 -2.46968 0.732419 0
M  V30 1654 H 148.472 -3.00937 -0.910171 0
M  V30 1655 N 152.244 -1.26651 -0.937939 0
M  V30 1656 C 153.154 -1.10276 -2.07066 0
M  V30 1657 C 154.17 -0.0354197 -1.73964 0
M  V30 1658 O 155.346 -0.239816 -1.99967 0
M  V30 1659 C 152.411 -0.740887 -3.38691 0
M  V30 1660 C 151.472 -1.88799 -3.85556 0
M  V30 1661 C 150.705 -1.54329 -5.10899 0
M  V30 1662 O 150.928 -0.446494 -5.6865 0
M  V30 1663 O 149.862 -2.37911 -5.52885 0
M  V30 1664 H 153.688 -2.05309 -2.23789 0
M  V30 1665 H 151.273 -1.05743 -1.0554 0
M  V30 1666 H 153.155 -0.55195 -4.1777 0
M  V30 1667 H 151.83 0.180022 -3.23199 0
M  V30 1668 H 150.737 -2.13191 -3.07409 0
M  V30 1669 H 152.07 -2.78874 -4.05574 0
M  V30 1670 N 153.722 1.14298 -1.08507 0
M  V30 1671 C 154.95 1.89219 -0.836876 0
M  V30 1672 C 155.365 1.78638 0.611054 0
M  V30 1673 O 154.722 1.14643 1.41998 0
M  V30 1674 C 154.773 3.39158 -1.25116 0
M  V30 1675 O 154.494 3.49449 -2.64229 0
M  V30 1676 C 155.995 4.31073 -1.03398 0
M  V30 1677 H 153.215 0.599328 -0.301739 0
M  V30 1678 H 155.759 1.44746 -1.44461 0
M  V30 1679 H 153.914 3.81251 -0.687514 0
M  V30 1680 H 154.328 4.42589 -2.81452 0
M  V30 1681 H 155.802 5.34646 -1.37323 0
M  V30 1682 H 156.279 4.3919 0.0289259 0
M  V30 1683 H 156.885 3.94738 -1.58311 0
M  V30 1684 N 155.201 0.870884 1.31352 0
M  V30 1685 C 156.134 0.271983 2.26573 0
M  V30 1686 C 157.112 -0.599385 1.51149 0
M  V30 1687 O 158.296 -0.552605 1.80218 0
M  V30 1688 C 155.423 -0.614801 3.33073 0
M  V30 1689 C 154.469 0.185342 4.26097 0
M  V30 1690 S 155.302 1.56444 5.12138 0
M  V30 1691 C 156.458 0.683807 6.22153 0
M  V30 1692 H 156.691 1.07916 2.77023 0
M  V30 1693 H 154.224 0.669459 1.39132 0
M  V30 1694 H 156.182 -1.12074 3.94905 0
M  V30 1695 H 154.843 -1.39593 2.81376 0
M  V30 1696 H 154.036 -0.490771 5.01605 0
M  V30 1697 H 153.638 0.623415 3.68768 0
M  V30 1698 H 155.93 -0.10521 6.77418 0
M  V30 1699 H 156.873 1.41004 6.93919 0
M  V30 1700 H 157.281 0.250952 5.63942 0
M  V30 1701 N 156.679 -1.44442 0.630414 0
M  V30 1702 C 157.612 -2.27862 -0.124247 0
M  V30 1703 C 158.59 -1.38495 -0.851931 0
M  V30 1704 O 159.774 -1.67935 -0.856166 0
M  V30 1705 C 156.901 -3.17407 -1.18197 0
M  V30 1706 C 155.947 -4.22875 -0.554892 0
M  V30 1707 S 156.78 -5.31485 0.654489 0
M  V30 1708 C 157.936 -6.246 -0.40326 0
M  V30 1709 H 158.169 -2.91519 0.583435 0
M  V30 1710 H 155.702 -1.48618 0.418565 0
M  V30 1711 H 157.66 -3.69549 -1.78728 0
M  V30 1712 H 156.321 -2.52971 -1.86184 0
M  V30 1713 H 155.514 -4.85542 -1.35148 0
M  V30 1714 H 155.116 -3.73992 -0.0242105 0
M  V30 1715 H 157.408 -6.65375 -1.27602 0
M  V30 1716 H 158.351 -7.07851 0.187813 0
M  V30 1717 H 158.759 -5.59775 -0.728837 0
M  V30 1718 N 158.157 -0.370918 -1.53173 0
M  V30 1719 C 159.12 0.460778 -2.24521 0
M  V30 1720 C 160.12 1.00536 -1.25496 0
M  V30 1721 O 161.31 0.890266 -1.49733 0
M  V30 1722 C 158.442 1.64457 -2.98608 0
M  V30 1723 H 159.635 -0.163613 -2.99453 0
M  V30 1724 H 157.188 -0.122699 -1.55818 0
M  V30 1725 H 157.923 2.30691 -2.2793 0
M  V30 1726 H 157.708 1.26099 -3.7127 0
M  V30 1727 H 159.198 2.23384 -3.5283 0
M  V30 1728 N 159.635 1.57281 -0.100228 0
M  V30 1729 C 160.565 2.17328 0.853857 0
M  V30 1730 C 161.546 1.10804 1.2906 0
M  V30 1731 O 162.731 1.38963 1.35657 0
M  V30 1732 C 159.861 2.75772 2.11109 0
M  V30 1733 C 158.815 3.87713 1.81279 0
M  V30 1734 C 158.141 4.32882 3.13874 0
M  V30 1735 C 159.441 5.10677 1.09574 0
M  V30 1736 H 161.135 2.97305 0.353545 0
M  V30 1737 H 158.681 1.43009 0.168612 0
M  V30 1738 H 160.634 3.16433 2.78296 0
M  V30 1739 H 159.358 1.93057 2.63432 0
M  V30 1740 H 158.017 3.476 1.16489 0
M  V30 1741 H 157.665 3.47051 3.64095 0
M  V30 1742 H 157.365 5.08358 2.94696 0
M  V30 1743 H 158.889 4.7618 3.82211 0
M  V30 1744 H 160.303 5.48474 1.66879 0
M  V30 1745 H 158.7 5.91615 1.00557 0
M  V30 1746 H 159.77 4.84835 0.0793299 0
M  V30 1747 N 161.113 -0.173488 1.56642 0
M  V30 1748 C 162.359 -0.887108 1.83035 0
M  V30 1749 C 162.714 -1.79965 0.680461 0
M  V30 1750 O 162.007 -1.88854 -0.323225 0
M  V30 1751 C 162.201 -1.72069 3.13252 0
M  V30 1752 C 162.03 -0.89035 4.40798 0
M  V30 1753 C 160.8 -0.566282 5.02117 0
M  V30 1754 C 162.998 -0.232921 5.13772 0
M  V30 1755 N 160.98 0.280427 6.13259 0
M  V30 1756 C 162.351 0.475046 6.18177 0
M  V30 1757 C 164.406 -0.150863 4.97671 0
M  V30 1758 C 163.109 1.25729 7.08227 0
M  V30 1759 C 165.135 0.618039 5.88162 0
M  V30 1760 C 164.497 1.31438 6.92029 0
M  V30 1761 H 160.596 -0.303303 0.720785 0
M  V30 1762 H 163.18 -0.154244 1.94088 0
M  V30 1763 H 161.351 -2.42499 3.03395 0
M  V30 1764 H 163.083 -2.37545 3.2765 0
M  V30 1765 H 159.838 -0.895852 4.6505 0
M  V30 1766 H 160.262 0.694027 6.73433 0
M  V30 1767 H 164.904 -0.674868 4.17379 0
M  V30 1768 H 162.622 1.79265 7.87966 0
M  V30 1769 H 166.208 0.683173 5.77775 0
M  V30 1770 H 165.088 1.89981 7.6084 0
M  V30 1771 N 162.591 -1.51276 -0.441967 0
M  V30 1772 C 163.501 -1.75092 -1.56141 0
M  V30 1773 C 164.517 -0.634963 -1.62001 0
M  V30 1774 O 165.693 -0.916686 -1.79329 0
M  V30 1775 C 162.758 -1.86666 -2.92158 0
M  V30 1776 C 161.819 -3.10506 -2.96453 0
M  V30 1777 C 161.052 -3.21519 -4.25982 0
M  V30 1778 O 161.275 -2.38586 -5.18105 0
M  V30 1779 O 160.209 -4.14465 -4.36466 0
M  V30 1780 H 164.035 -2.70044 -1.38961 0
M  V30 1781 H 161.62 -1.35722 -0.624499 0
M  V30 1782 H 163.502 -1.96292 -3.72891 0
M  V30 1783 H 162.177 -0.949014 -3.09476 0
M  V30 1784 H 161.084 -3.06363 -2.14692 0
M  V30 1785 H 162.417 -4.01945 -2.84079 0
M  V30 1786 N 164.069 0.697108 -1.41344 0
M  V30 1787 C 164.979 1.84088 -1.45427 0
M  V30 1788 C 165.995 1.70545 -0.34501 0
M  V30 1789 O 167.171 1.92488 -0.592492 0
M  V30 1790 C 164.236 3.20056 -1.33286 0
M  V30 1791 C 163.297 3.45718 -2.54514 0
M  V30 1792 C 162.53 4.75199 -2.42944 0
M  V30 1793 O 162.753 5.51579 -1.45318 0
M  V30 1794 O 161.687 5.0161 -3.32672 0
M  V30 1795 H 165.513 1.836 -2.41919 0
M  V30 1796 H 163.098 0.849966 -1.22866 0
M  V30 1797 H 164.98 4.01236 -1.28794 0
M  V30 1798 H 163.655 3.2123 -0.39909 0
M  V30 1799 H 162.562 2.64474 -2.64583 0
M  V30 1800 H 163.895 3.49356 -3.46715 0
M  V30 1801 N 165.547 1.27147 0.931209 0
M  V30 1802 C 166.787 1.14511 1.69312 0
M  V30 1803 C 167.151 -0.304638 1.89568 0
M  V30 1804 O 168.352 -0.553343 2.63043 0
M  V30 1805 C 166.623 1.90349 3.02493 0
M  V30 1806 S 168.182 1.93884 3.93642 0
M  V30 1807 H 165 0.408858 0.581684 0
M  V30 1808 H 167.602 1.61006 1.10893 0
M  V30 1809 H 166.306 2.94877 2.85439 0
M  V30 1810 H 165.837 1.44333 3.65966 0
M  V30 1811 H 167.852 1.03273 4.85334 0
M  V30 1812 N 167.025 -1.13721 1.09112 0
M  V30 1813 C 167.972 -2.19031 0.727591 0
M  V30 1814 C 168.942 -1.63555 -0.289656 0
M  V30 1815 O 170.127 -1.90023 -0.172026 0
M  V30 1816 C 167.267 -3.4477 0.15082 0
M  V30 1817 C 166.38 -4.14365 1.22172 0
M  V30 1818 C 165.515 -5.27709 0.608042 0
M  V30 1819 C 164.554 -5.89147 1.66047 0
M  V30 1820 N 163.691 -6.93929 1.06806 0
M  V30 1821 H 168.531 -2.49475 1.62991 0
M  V30 1822 H 166.068 -1.22499 0.81439 0
M  V30 1823 H 168.026 -4.16714 -0.201358 0
M  V30 1824 H 166.656 -3.14787 -0.714783 0
M  V30 1825 H 165.708 -3.40737 1.69122 0
M  V30 1826 H 167.02 -4.56114 2.01895 0
M  V30 1827 H 166.174 -6.06355 0.204523 0
M  V30 1828 H 164.913 -4.872 -0.220769 0
M  V30 1829 H 163.918 -5.09198 2.07357 0
M  V30 1830 H 165.143 -6.31729 2.49189 0
M  V30 1831 H 163.089 -6.55483 0.260476 0
M  V30 1832 H 163.006 -7.34202 1.8023 0
M  V30 1833 H 164.274 -7.76434 0.690644 0
M  V30 1834 N 168.503 -0.877838 -1.30888 0
M  V30 1835 C 169.914 -0.544193 -1.78593 0
M  V30 1836 C 170.265 0.939301 -1.72254 0
M  V30 1837 O 169.39 1.7337 -1.29505 0
M  V30 1838 C 169.985 -0.98105 -3.24285 0
M  V30 1839 C 168.544 -0.698935 -3.69854 0
M  V30 1840 C 167.691 -1.168 -2.51502 0
M  V30 1841 H 170.642 -1.06278 -1.17859 0
M  V30 1842 H 170.663 -0.307009 -3.79259 0
M  V30 1843 H 170.175 -2.06079 -3.28866 0
M  V30 1844 H 168.276 0.369112 -3.70767 0
M  V30 1845 H 168.389 -1.28148 -4.61644 0
M  V30 1846 H 166.753 -0.587535 -2.47831 0
M  V30 1847 H 167.536 -2.25533 -2.58824 0
M  V30 1848 N 169.982 1.44106 -0.638065 0
M  V30 1849 C 171.222 2.03858 -0.148733 0
M  V30 1850 C 171.586 1.49153 1.20903 0
M  V30 1851 O 172.787 2.00452 1.79088 0
M  V30 1852 C 171.058 3.57117 -0.142314 0
M  V30 1853 S 172.617 4.37897 0.281385 0
M  V30 1854 H 169.435 0.708069 -0.0644912 0
M  V30 1855 H 172.037 1.7639 -0.843009 0
M  V30 1856 H 170.741 3.94436 -1.13349 0
M  V30 1857 H 170.272 3.89205 0.572988 0
M  V30 1858 H 172.287 4.72218 1.52395 0
M  V30 1859 N 171.46 0.379036 1.52974 0
M  V30 1860 C 172.39 -0.452706 2.29069 0
M  V30 1861 C 173.371 -1.07237 1.32039 0
M  V30 1862 O 174.556 -1.08708 1.60923 0
M  V30 1863 C 171.686 -1.5856 3.08992 0
M  V30 1864 C 170.64 -1.0925 4.13822 0
M  V30 1865 C 169.966 -2.31668 4.81907 0
M  V30 1866 C 171.266 -0.167702 5.22031 0
M  V30 1867 H 172.96 0.182181 2.98845 0
M  V30 1868 H 170.506 0.0890592 1.43724 0
M  V30 1869 H 172.459 -2.1742 3.6098 0
M  V30 1870 H 171.183 -2.24792 2.36931 0
M  V30 1871 H 169.842 -0.526494 3.628 0
M  V30 1872 H 169.49 -2.96386 4.06404 0
M  V30 1873 H 169.19 -1.9934 5.52754 0
M  V30 1874 H 170.714 -2.91189 5.36695 0
M  V30 1875 H 172.128 -0.664186 5.6944 0
M  V30 1876 H 170.525 0.0653265 6.00064 0
M  V30 1877 H 171.595 0.786347 4.78482 0
M  V30 1878 N 172.938 -1.57226 0.108567 0
M  V30 1879 C 173.885 -2.14756 -0.845481 0
M  V30 1880 C 174.855 -1.06971 -1.27068 0
M  V30 1881 O 176.04 -1.34827 -1.35005 0
M  V30 1882 C 173.18 -2.74298 -2.09415 0
M  V30 1883 C 172.293 -3.96358 -1.71826 0
M  V30 1884 C 171.428 -4.44021 -2.9158 0
M  V30 1885 C 170.467 -5.58637 -2.50181 0
M  V30 1886 N 169.604 -6.01091 -3.62814 0
M  V30 1887 H 174.444 -2.95961 -0.348035 0
M  V30 1888 H 171.981 -1.46226 -0.160106 0
M  V30 1889 H 173.939 -3.06945 -2.82561 0
M  V30 1890 H 172.569 -1.95801 -2.56636 0
M  V30 1891 H 171.621 -3.69939 -0.885947 0
M  V30 1892 H 172.933 -4.79504 -1.37394 0
M  V30 1893 H 172.087 -4.78522 -3.72963 0
M  V30 1894 H 170.826 -3.59803 -3.29231 0
M  V30 1895 H 169.831 -5.23751 -1.67228 0
M  V30 1896 H 171.056 -6.44613 -2.13659 0
M  V30 1897 H 169.002 -5.19817 -4.00158 0
M  V30 1898 H 168.919 -6.79066 -3.32273 0
M  V30 1899 H 170.187 -6.40227 -4.44668 0
M  V30 1900 N 174.416 0.165178 -1.56732 0
M  V30 1901 C 175.348 1.22911 -1.93457 0
M  V30 1902 C 176.361 1.40152 -0.828333 0
M  V30 1903 O 177.55 1.40046 -1.10677 0
M  V30 1904 C 174.65 2.59686 -2.17753 0
M  V30 1905 C 173.823 2.63663 -3.48999 0
M  V30 1906 C 172.882 3.81845 -3.62051 0
M  V30 1907 O 171.908 3.67559 -4.34613 0
M  V30 1908 N 173.11 4.98557 -2.97357 0
M  V30 1909 H 175.875 0.917118 -2.85323 0
M  V30 1910 H 173.436 0.354895 -1.57962 0
M  V30 1911 H 175.428 3.37225 -2.23743 0
M  V30 1912 H 173.998 2.83251 -1.32242 0
M  V30 1913 H 173.218 1.72173 -3.54612 0
M  V30 1914 H 174.506 2.63336 -4.35352 0
M  V30 1915 H 173.904 5.13065 -2.38287 0
M  V30 1916 H 172.461 5.73936 -3.08934 0
M  V30 1917 N 175.894 1.51508 0.433938 0
M  V30 1918 C 177.122 1.68157 1.20543 0
M  V30 1919 C 177.537 0.380362 1.84929 0
M  V30 1920 O 176.894 -0.641446 1.70856 0
M  V30 1921 C 176.945 2.79965 2.28696 0
M  V30 1922 O 176.666 4.05045 1.66943 0
M  V30 1923 C 178.167 3.07912 3.18912 0
M  V30 1924 H 175.387 0.56421 0.363191 0
M  V30 1925 H 177.931 1.97941 0.513754 0
M  V30 1926 H 176.086 2.5277 2.93574 0
M  V30 1927 H 176.5 4.67165 2.38448 0
M  V30 1928 H 177.974 3.89719 3.90926 0
M  V30 1929 H 178.451 2.20456 3.79863 0
M  V30 1930 H 179.057 3.36779 2.59731 0
M  V30 1931 N 177.372 -0.689602 1.41712 0
M  V30 1932 C 178.612 -1.46184 1.42862 0
M  V30 1933 C 178.976 -1.91962 0.0382204 0
M  V30 1934 O 180.177 -2.68694 -0.0755019 0
M  V30 1935 C 178.448 -2.6371 2.4123 0
M  V30 1936 S 180.007 -3.52768 2.6096 0
M  V30 1937 H 176.825 -0.49947 0.506015 0
M  V30 1938 H 179.427 -0.804107 1.78198 0
M  V30 1939 H 178.131 -2.28293 3.41044 0
M  V30 1940 H 177.662 -3.3437 2.07269 0
M  V30 1941 H 179.677 -4.59146 1.88148 0
M  V30 1942 N 178.85 -1.27639 -0.924453 0
M  V30 1943 C 179.783 -1.04966 -2.02626 0
M  V30 1944 C 180.761 0.0309505 -1.62571 0
M  V30 1945 O 181.945 -0.114846 -1.8815 0
M  V30 1946 C 179.072 -0.59292 -3.3347 0
M  V30 1947 C 178.118 -1.66858 -3.92506 0
M  V30 1948 S 178.951 -3.2619 -4.24689 0
M  V30 1949 C 180.107 -2.82325 -5.58609 0
M  V30 1950 H 180.34 -1.98252 -2.21547 0
M  V30 1951 H 177.873 -1.11506 -1.06798 0
M  V30 1952 H 179.831 -0.336086 -4.09122 0
M  V30 1953 H 178.492 0.319939 -3.12466 0
M  V30 1954 H 177.685 -1.30038 -4.86935 0
M  V30 1955 H 177.287 -1.87766 -3.2345 0
M  V30 1956 H 179.579 -2.2783 -6.38044 0
M  V30 1957 H 180.522 -3.75511 -6.00331 0
M  V30 1958 H 180.93 -2.21367 -5.19285 0
M  V30 1959 N 180.328 1.1314 -1.09713 0
M  V30 1960 C 181.275 2.18642 -0.739196 0
M  V30 1961 C 182.245 1.63706 0.280978 0
M  V30 1962 O 183.43 1.90111 0.161946 0
M  V30 1963 C 180.57 3.44685 -0.169102 0
M  V30 1964 C 179.683 4.13711 -1.24367 0
M  V30 1965 C 178.818 5.27379 -0.636019 0
M  V30 1966 C 177.857 5.88259 -1.69169 0
M  V30 1967 N 176.994 6.93352 -1.10485 0
M  V30 1968 H 181.834 2.48607 -1.64312 0
M  V30 1969 H 179.371 1.22066 -0.820875 0
M  V30 1970 H 181.329 4.16815 0.179256 0
M  V30 1971 H 179.959 3.15161 0.698079 0
M  V30 1972 H 179.011 3.39835 -1.70927 0
M  V30 1973 H 180.323 4.55037 -2.04311 0
M  V30 1974 H 179.477 6.06238 -0.236677 0
M  V30 1975 H 178.216 4.8731 0.194928 0
M  V30 1976 H 177.221 5.08092 -2.10055 0
M  V30 1977 H 178.446 6.30399 -2.52536 0
M  V30 1978 H 176.392 6.55335 -0.295234 0
M  V30 1979 H 176.309 7.33236 -1.84121 0
M  V30 1980 H 177.577 7.76057 -0.73181 0
M  V30 1981 N 181.806 0.884767 1.30421 0
M  V30 1982 C 183.053 0.503105 1.96151 0
M  V30 1983 C 183.381 -0.947676 1.69851 0
M  V30 1984 O 182.636 -1.68467 0.995861 0
M  V30 1985 C 182.935 0.724318 3.49983 0
M  V30 1986 C 182.601 2.15015 3.96332 0
M  V30 1987 C 181.263 2.54005 4.08699 0
M  V30 1988 C 183.615 3.07936 4.20505 0
M  V30 1989 C 180.943 3.85128 4.42599 0
M  V30 1990 C 183.295 4.3859 4.55874 0
M  V30 1991 C 181.959 4.77474 4.66449 0
M  V30 1992 H 181.229 0.184099 0.717766 0
M  V30 1993 H 183.876 1.12058 1.55291 0
M  V30 1994 H 182.181 0.0238086 3.91793 0
M  V30 1995 H 183.878 0.408617 3.98913 0
M  V30 1996 H 180.468 1.8375 3.87213 0
M  V30 1997 H 184.652 2.79033 4.10431 0
M  V30 1998 H 179.908 4.14996 4.48986 0
M  V30 1999 H 184.082 5.10629 4.7353 0
M  V30 2000 H 181.709 5.79115 4.92473 0
M  V30 2001 N 183.284 -1.43765 0.645699 0
M  V30 2002 C 184.514 -2.05953 0.163318 0
M  V30 2003 C 184.922 -1.48432 -1.17322 0
M  V30 2004 O 184.265 -0.607295 -1.73371 0
M  V30 2005 C 184.327 -3.59499 -0.0103065 0
M  V30 2006 C 183.991 -4.39563 1.25035 0
M  V30 2007 C 184.988 -4.72108 2.17739 0
M  V30 2008 C 182.673 -4.79697 1.48983 0
M  V30 2009 C 184.667 -5.43688 3.3269 0
M  V30 2010 C 182.354 -5.51023 2.64229 0
M  V30 2011 C 183.352 -5.8294 3.55908 0
M  V30 2012 O 183.04 -6.5281 4.69142 0
M  V30 2013 H 182.772 -0.670798 0.0836986 0
M  V30 2014 H 185.326 -1.85384 0.884407 0
M  V30 2015 H 183.556 -3.78613 -0.78669 0
M  V30 2016 H 185.245 -4.03408 -0.449087 0
M  V30 2017 H 186.011 -4.41627 2.00476 0
M  V30 2018 H 181.89 -4.54266 0.785078 0
M  V30 2019 H 185.434 -5.68517 4.04269 0
M  V30 2020 H 181.331 -5.8092 2.81429 0
M  V30 2021 H 182.099 -6.71288 4.6831 0
M  V30 2022 N 184.763 -0.387143 -1.52771 0
M  V30 2023 C 185.726 0.436939 -2.24997 0
M  V30 2024 C 186.726 0.991991 -1.26555 0
M  V30 2025 O 187.916 0.874335 -1.50669 0
M  V30 2026 C 185.048 1.61281 -3.00335 0
M  V30 2027 H 186.241 -0.195365 -2.99263 0
M  V30 2028 H 183.794 -0.139218 -1.55679 0
M  V30 2029 H 184.529 2.2826 -2.30364 0
M  V30 2030 H 184.314 1.22154 -3.72587 0
M  V30 2031 H 185.804 2.19629 -3.5518 0
M  V30 2032 N 186.241 1.57166 -0.116904 0
M  V30 2033 C 187.657 1.5779 0.239693 0
M  V30 2034 C 187.857 1.1295 1.66867 0
M  V30 2035 O 186.913 0.81592 2.38954 0
M  V30 2036 C 188.226 3.00699 0.00828202 0
M  V30 2037 C 189.774 3.12912 0.0743438 0
M  V30 2038 C 190.249 4.57817 -0.129348 0
M  V30 2039 N 191.74 4.63139 -0.075247 0
M  V30 2040 C 192.475 5.73023 -0.207788 0
M  V30 2041 N 191.971 6.91665 -0.396382 0
M  V30 2042 N 193.764 5.61906 -0.14751 0
M  V30 2043 H 185.915 1.84615 -1.05029 0
M  V30 2044 H 188.178 0.85311 -0.41341 0
M  V30 2045 H 187.884 3.37784 -0.979531 0
M  V30 2046 H 187.758 3.69848 0.741077 0
M  V30 2047 H 190.145 2.75686 1.05268 0
M  V30 2048 H 190.226 2.4631 -0.690297 0
M  V30 2049 H 189.87 4.95742 -1.10465 0
M  V30 2050 H 189.8 5.22507 0.655253 0
M  V30 2051 H 192.291 3.7784 0.0670898 0
M  V30 2052 H 192.604 7.71255 -0.488437 0
M  V30 2053 H 190.949 6.93654 -0.432329 0
M  V30 2054 H 194.14 4.681 -0.00115036 0
M  V30 2055 H 194.313 6.47501 -0.254247 0
M  V30 2056 N 187.719 -0.156864 1.56817 0
M  V30 2057 C 188.965 -0.872416 1.83076 0
M  V30 2058 C 189.298 -1.81261 0.697001 0
M  V30 2059 O 188.573 -1.92171 -0.30008 0
M  V30 2060 C 188.856 -1.65551 3.19789 0
M  V30 2061 C 188.709 -0.737467 4.43713 0
M  V30 2062 C 190.028 -2.62012 3.53606 0
M  V30 2063 H 187.147 -0.315715 0.665953 0
M  V30 2064 H 189.789 -0.138004 1.89498 0
M  V30 2065 H 187.939 -2.28159 3.14445 0
M  V30 2066 H 189.611 -0.123143 4.61136 0
M  V30 2067 H 187.854 -0.0464067 4.33775 0
M  V30 2068 H 188.525 -1.32122 5.35955 0
M  V30 2069 H 191.001 -2.09525 3.59497 0
M  V30 2070 H 189.877 -3.13861 4.50314 0
M  V30 2071 H 190.138 -3.42902 2.79053 0
M  V30 2072 N 189.197 -1.51736 -0.425897 0
M  V30 2073 C 190.437 -1.66636 -1.18371 0
M  V30 2074 C 190.801 -0.379854 -1.88205 0
M  V30 2075 O 192.002 -0.404758 -2.65735 0
M  V30 2076 C 190.273 -2.84382 -2.16476 0
M  V30 2077 S 191.832 -3.19673 -3.0059 0
M  V30 2078 H 188.65 -0.586957 -0.40125 0
M  V30 2079 H 191.252 -1.89679 -0.473518 0
M  V30 2080 H 189.956 -3.76281 -1.63831 0
M  V30 2081 H 189.487 -2.63562 -2.92059 0
M  V30 2082 H 191.502 -2.66994 -4.18245 0
M  V30 2083 N 190.675 0.682077 -1.42076 0
M  V30 2084 C 192.091 0.994324 -1.24841 0
M  V30 2085 C 192.291 2.0096 -0.147389 0
M  V30 2086 O 191.347 2.47822 0.483782 0
M  V30 2087 C 192.66 1.50607 -2.60265 0
M  V30 2088 C 194.208 1.62421 -2.6756 0
M  V30 2089 C 194.683 2.16994 -4.03333 0
M  V30 2090 N 196.174 2.24337 -4.0525 0
M  V30 2091 C 196.909 2.67621 -5.07116 0
M  V30 2092 N 196.405 3.1041 -6.19368 0
M  V30 2093 N 198.198 2.67305 -4.94474 0
M  V30 2094 H 190.349 0.00973908 -2.12398 0
M  V30 2095 H 192.612 0.0668593 -0.945639 0
M  V30 2096 H 192.318 0.834583 -3.41654 0
M  V30 2097 H 192.192 2.48602 -2.83684 0
M  V30 2098 H 194.579 2.28678 -1.86521 0
M  V30 2099 H 194.66 0.629352 -2.47937 0
M  V30 2100 H 194.304 1.51349 -4.84826 0
M  V30 2101 H 194.234 3.17258 -4.20304 0
M  V30 2102 H 196.725 1.94158 -3.24209 0
M  V30 2103 H 197.038 3.42103 -6.92954 0
M  V30 2104 H 195.383 3.08286 -6.22884 0
M  V30 2105 H 198.574 2.33233 -4.05857 0
M  V30 2106 H 198.747 3.00718 -5.73997 0
M  V30 2107 N 192.153 1.28127 0.917671 0
M  V30 2108 C 193.378 1.18007 1.70555 0
M  V30 2109 C 193.803 -0.258257 1.86319 0
M  V30 2110 O 193.161 -1.1869 1.37049 0
M  V30 2111 C 193.209 1.87948 3.07746 0
M  V30 2112 O 192.313 1.18427 3.9503 0
M  V30 2113 H 191.654 0.409867 0.522403 0
M  V30 2114 H 194.184 1.69379 1.1477 0
M  V30 2115 H 194.194 1.95701 3.58001 0
M  V30 2116 H 192.869 2.92573 2.95591 0
M  V30 2117 H 191.446 1.18811 3.53466 0
M  V30 2118 N 193.631 -1.12557 1.10312 0
M  V30 2119 C 194.879 -1.83675 0.843091 0
M  V30 2120 C 195.2 -1.84435 -0.633131 0
M  V30 2121 O 194.47 -1.30657 -1.45964 0
M  V30 2122 H 193.05 -0.680138 0.308904 0
M  V30 2123 H 195.712 -1.36301 1.39313 0
M  V30 2124 H 194.808 -2.87908 1.2048 0
M  V30 2125 N 195.109 -0.891671 -1.2995 0
M  V30 2126 C 196.334 -0.527932 -2.00568 0
M  V30 2127 C 196.759 0.877969 -1.66353 0
M  V30 2128 O 196.117 1.58301 -0.883762 0
M  V30 2129 C 196.165 -0.717745 -3.53385 0
M  V30 2130 O 195.269 0.233376 -4.11739 0
M  V30 2131 H 194.61 -0.20722 -0.630837 0
M  V30 2132 H 197.14 -1.20105 -1.65638 0
M  V30 2133 H 197.15 -0.619307 -4.03272 0
M  V30 2134 H 195.825 -1.74276 -3.77625 0
M  V30 2135 H 194.402 0.0880706 -3.72796 0
M  V30 2136 N 196.587 1.43421 -0.653314 0
M  V30 2137 C 197.835 2.01414 -0.166415 0
M  V30 2138 C 198.156 1.51803 1.22397 0
M  V30 2139 O 197.426 0.730693 1.81763 0
M  V30 2140 H 196.006 0.744703 -0.0585319 0
M  V30 2141 H 198.668 1.75629 -0.845003 0
M  V30 2142 H 197.764 3.11734 -0.151111 0
M  V30 2143 N 198.065 0.39524 1.52563 0
M  V30 2144 C 198.995 -0.428384 2.29537 0
M  V30 2145 C 199.976 -1.05831 1.33169 0
M  V30 2146 O 201.161 -1.06995 1.62067 0
M  V30 2147 C 198.291 -1.55274 3.10656 0
M  V30 2148 C 197.245 -1.04855 4.14957 0
M  V30 2149 C 196.571 -2.26543 4.84337 0
M  V30 2150 C 197.871 -0.112324 5.22179 0
M  V30 2151 H 199.565 0.213867 2.98635 0
M  V30 2152 H 197.111 0.104298 1.43622 0
M  V30 2153 H 199.064 -2.1358 3.63265 0
M  V30 2154 H 197.788 -2.22266 2.39302 0
M  V30 2155 H 196.447 -0.487985 3.63338 0
M  V30 2156 H 196.095 -2.92059 4.09525 0
M  V30 2157 H 195.795 -1.93466 5.54837 0
M  V30 2158 H 197.319 -2.85481 5.39753 0
M  V30 2159 H 198.733 -0.603752 5.70112 0
M  V30 2160 H 197.13 0.128968 5.99961 0
M  V30 2161 H 198.2 0.837052 4.77621 0
M  V30 2162 N 199.544 -1.57102 0.125237 0
M  V30 2163 C 200.79 -1.95697 -0.532035 0
M  V30 2164 C 201.123 -1.009 -1.6593 0
M  V30 2165 O 200.398 -0.047347 -1.94442 0
M  V30 2166 C 200.681 -3.44181 -1.05884 0
M  V30 2167 C 200.534 -4.49752 0.0654392 0
M  V30 2168 C 201.853 -3.94655 -1.9477 0
M  V30 2169 H 198.972 -0.711571 -0.191925 0
M  V30 2170 H 201.614 -1.88923 0.20206 0
M  V30 2171 H 199.764 -3.50085 -1.68442 0
M  V30 2172 H 201.436 -4.55943 0.700982 0
M  V30 2173 H 199.679 -4.27653 0.727709 0
M  V30 2174 H 200.35 -5.50924 -0.344505 0
M  V30 2175 H 202.826 -3.91094 -1.42074 0
M  V30 2176 H 201.702 -4.99057 -2.28546 0
M  V30 2177 H 201.963 -3.35718 -2.87656 0
M  V30 2178 N 201.022 0.148545 -1.56898 0
M  V30 2179 C 202.27 0.859717 -1.82902 0
M  V30 2180 C 202.591 1.81775 -0.70588 0
M  V30 2181 O 201.861 1.93994 0.272586 0
M  V30 2182 H 200.441 0.320469 -0.674766 0
M  V30 2183 H 203.103 0.142918 -1.94375 0
M  V30 2184 H 202.199 1.4229 -2.77777 0
M  V30 2185 N 202.5 1.5196 0.417844 0
M  V30 2186 C 203.916 1.40569 0.755816 0
M  V30 2187 C 204.116 0.503316 1.95113 0
M  V30 2188 O 203.172 -0.0341925 2.52477 0
M  V30 2189 C 204.485 2.82947 1.01791 0
M  V30 2190 C 206.033 2.92231 1.12116 0
M  V30 2191 C 206.508 4.35559 1.41608 0
M  V30 2192 N 207.999 4.38753 1.48491 0
M  V30 2193 C 208.734 5.46705 1.7292 0
M  V30 2194 N 208.23 6.64788 1.95011 0
M  V30 2195 N 210.023 5.34209 1.74863 0
M  V30 2196 H 202.174 2.09168 -0.369098 0
M  V30 2197 H 204.437 0.942409 -0.102809 0
M  V30 2198 H 204.143 3.5106 0.212081 0
M  V30 2199 H 204.017 3.23462 1.94042 0
M  V30 2200 H 206.404 2.24304 1.9176 0
M  V30 2201 H 206.485 2.55185 0.177225 0
M  V30 2202 H 206.129 5.04042 0.624848 0
M  V30 2203 H 206.059 4.70133 2.37239 0
M  V30 2204 H 208.55 3.5363 1.33244 0
M  V30 2205 H 208.863 7.42845 2.13076 0
M  V30 2206 H 207.208 6.67869 1.92293 0
M  V30 2207 H 210.399 4.40937 1.57137 0
M  V30 2208 H 210.572 6.18415 1.93563 0
M  V30 2209 N 203.978 -0.674533 1.42435 0
M  V30 2210 C 204.91 -1.80005 1.41883 0
M  V30 2211 C 205.923 -1.59667 0.31787 0
M  V30 2212 O 207.112 -1.68781 0.580973 0
M  V30 2213 C 204.212 -3.17114 1.19549 0
M  V30 2214 C 203.385 -3.64299 2.42084 0
M  V30 2215 C 202.444 -4.80142 2.15291 0
M  V30 2216 O 201.47 -4.90673 2.88493 0
M  V30 2217 N 202.672 -5.68869 1.1562 0
M  V30 2218 H 205.437 -1.80964 2.38898 0
M  V30 2219 H 202.998 -0.857633 1.37318 0
M  V30 2220 H 204.99 -3.92267 0.995417 0
M  V30 2221 H 203.56 -3.11053 0.310569 0
M  V30 2222 H 202.78 -2.79822 2.77657 0
M  V30 2223 H 204.068 -3.92567 3.23679 0
M  V30 2224 H 203.466 -5.63012 0.550765 0
M  V30 2225 H 202.023 -6.43833 1.016 0
M  V30 2226 N 205.456 -1.28612 -0.910864 0
M  V30 2227 C 206.386 -1.15326 -2.03032 0
M  V30 2228 C 207.367 -0.0502924 -1.70026 0
M  V30 2229 O 208.552 -0.227797 -1.92859 0
M  V30 2230 C 205.682 -0.817343 -3.37545 0
M  V30 2231 C 204.636 -1.8754 -3.84724 0
M  V30 2232 C 203.962 -1.39305 -5.16235 0
M  V30 2233 C 205.262 -3.28244 -4.06267 0
M  V30 2234 H 206.956 -2.08975 -2.14406 0
M  V30 2235 H 204.502 -1.00612 -1.03021 0
M  V30 2236 H 206.455 -0.711151 -4.15356 0
M  V30 2237 H 205.179 0.154846 -3.26233 0
M  V30 2238 H 203.838 -1.97079 -3.09121 0
M  V30 2239 H 203.486 -0.409846 -5.01328 0
M  V30 2240 H 203.186 -2.10057 -5.48771 0
M  V30 2241 H 204.71 -1.30014 -5.96598 0
M  V30 2242 H 206.124 -3.21611 -4.74594 0
M  V30 2243 H 204.521 -3.96855 -4.5014 0
M  V30 2244 H 205.591 -3.72048 -3.10979 0
M  V30 2245 N 206.934 1.1197 -1.10907 0
M  V30 2246 C 207.844 2.21433 -0.774896 0
M  V30 2247 C 208.86 1.72478 0.229657 0
M  V30 2248 O 210.036 2.01288 0.0672008 0
M  V30 2249 C 207.101 3.4602 -0.216986 0
M  V30 2250 C 206.162 4.09791 -1.27944 0
M  V30 2251 C 205.395 5.28431 -0.748055 0
M  V30 2252 O 205.618 5.68823 0.423833 0
M  V30 2253 O 204.552 5.82644 -1.51027 0
M  V30 2254 H 208.378 2.5242 -1.68873 0
M  V30 2255 H 205.963 1.20399 -0.884555 0
M  V30 2256 H 207.845 4.21304 0.090059 0
M  V30 2257 H 206.52 3.16698 0.669633 0
M  V30 2258 H 205.427 3.36265 -1.63941 0
M  V30 2259 H 206.76 4.4328 -2.13925 0
M  V30 2260 N 208.412 0.89855 1.29475 0
M  V30 2261 C 209.322 0.379974 2.31502 0
M  V30 2262 C 210.338 -0.524695 1.659 0
M  V30 2263 O 211.514 -0.414551 1.97087 0
M  V30 2264 C 208.579 -0.385138 3.44554 0
M  V30 2265 C 207.64 0.550914 4.2575 0
M  V30 2266 C 206.873 -0.177778 5.33404 0
M  V30 2267 O 207.096 -1.40189 5.52904 0
M  V30 2268 O 206.03 0.479106 5.9999 0
M  V30 2269 H 209.856 1.22639 2.77837 0
M  V30 2270 H 207.441 0.662834 1.33891 0
M  V30 2271 H 209.323 -0.817841 4.13388 0
M  V30 2272 H 207.998 -1.20763 3.0033 0
M  V30 2273 H 206.905 1.03271 3.59564 0
M  V30 2274 H 208.238 1.33979 4.73614 0
M  V30 2275 N 209.89 -1.43072 0.660911 0
M  V30 2276 C 211.137 -2.01721 0.177445 0
M  V30 2277 C 211.465 -1.5218 -1.21126 0
M  V30 2278 O 210.72 -0.708659 -1.82419 0
M  V30 2279 C 211.019 -3.57103 0.145563 0
M  V30 2280 C 210.685 -4.26021 1.47705 0
M  V30 2281 C 209.347 -4.44563 1.84165 0
M  V30 2282 C 211.699 -4.64983 2.35458 0
M  V30 2283 C 209.027 -4.99334 3.0803 0
M  V30 2284 C 211.379 -5.21127 3.58622 0
M  V30 2285 C 210.043 -5.37884 3.95268 0
M  V30 2286 H 209.313 -0.73815 0.0649317 0
M  V30 2287 H 211.96 -1.71446 0.853144 0
M  V30 2288 H 210.265 -3.86965 -0.61361 0
M  V30 2289 H 211.962 -4.00248 -0.2455 0
M  V30 2290 H 208.552 -4.11939 1.18339 0
M  V30 2291 H 212.736 -4.50343 2.08579 0
M  V30 2292 H 207.992 -5.10493 3.36462 0
M  V30 2293 H 212.166 -5.50262 4.26831 0
M  V30 2294 H 209.793 -5.80089 4.91325 0
M  V30 2295 N 211.368 -0.403325 -1.52352 0
M  V30 2296 C 212.298 0.416205 -2.29761 0
M  V30 2297 C 213.279 1.05123 -1.33728 0
M  V30 2298 O 214.464 1.06134 -1.62632 0
M  V30 2299 C 211.594 1.53624 -3.11475 0
M  V30 2300 C 210.548 1.02653 -4.15507 0
M  V30 2301 C 209.874 2.23971 -4.85532 0
M  V30 2302 C 211.174 0.08463 -5.22231 0
M  V30 2303 H 212.868 -0.229701 -2.98518 0
M  V30 2304 H 210.414 -0.111913 -1.43564 0
M  V30 2305 H 212.367 2.1165 -3.64393 0
M  V30 2306 H 211.091 2.20994 -2.40477 0
M  V30 2307 H 209.75 0.46871 -3.63591 0
M  V30 2308 H 209.398 2.89883 -4.11068 0
M  V30 2309 H 209.098 1.90521 -5.55856 0
M  V30 2310 H 210.622 2.82614 -5.41259 0
M  V30 2311 H 212.036 0.573509 -5.70424 0
M  V30 2312 H 210.433 -0.160783 -5.99885 0
M  V30 2313 H 211.503 -0.86237 -4.7717 0
M  V30 2314 N 212.846 1.57033 -0.133567 0
M  V30 2315 C 213.794 2.17348 0.828412 0
M  V30 2316 C 214.788 1.12671 1.26498 0
M  V30 2317 O 215.994 1.30947 1.23502 0
M  V30 2318 H 212.369 0.695775 0.285309 0
M  V30 2319 H 214.34 2.96935 0.295372 0
M  V30 2320 C 213.089 2.79893 2.06289 0
M  V30 2321 H 212.412 3.60147 1.73592 0
M  V30 2322 H 213.852 3.25615 2.71572 0
M  V30 2323 C 212.311 1.77713 2.86216 0
M  V30 2324 O 212.841 1.23937 3.82103 0
M  V30 2325 N 211.047 1.47321 2.50489 0
M  V30 2326 H 210.594 1.91243 1.7258 0
M  V30 2327 H 210.552 0.79199 3.04261 0
M  V30 2328 N 214.325 -0.140222 1.56975 0
M  V30 2329 C 215.257 -1.19818 1.95388 0
M  V30 2330 C 216.27 -1.38816 0.850525 0
M  V30 2331 O 217.459 -1.38267 1.12891 0
M  V30 2332 C 214.559 -2.56189 2.21857 0
M  V30 2333 C 213.732 -2.58077 3.5315 0
M  V30 2334 C 212.791 -3.76037 3.6808 0
M  V30 2335 O 211.817 -3.60598 4.40406 0
M  V30 2336 N 213.019 -4.93763 3.05251 0
M  V30 2337 H 215.784 -0.871609 2.86746 0
M  V30 2338 H 213.345 -0.32972 1.58507 0
M  V30 2339 H 215.337 -3.33623 2.2908 0
M  V30 2340 H 213.907 -2.81111 1.36731 0
M  V30 2341 H 213.127 -1.6651 3.57307 0
M  V30 2342 H 214.415 -2.56377 4.39486 0
M  V30 2343 H 213.813 -5.09209 2.46419 0
M  V30 2344 H 212.37 -5.68949 3.18026 0
M  V30 2345 N 215.803 -1.52179 -0.40978 0
M  V30 2346 C 217.028 -1.70347 -1.18308 0
M  V30 2347 C 217.453 -0.411887 -1.83535 0
M  V30 2348 O 216.811 0.630587 -1.6998 0
M  V30 2349 C 216.859 -2.83977 -2.22238 0
M  V30 2350 O 215.963 -2.495 -3.28365 0
M  V30 2351 H 215.304 -0.567103 -0.345384 0
M  V30 2352 H 217.834 -1.98879 -0.480445 0
M  V30 2353 H 217.844 -3.0887 -2.66577 0
M  V30 2354 H 216.519 -3.77685 -1.74146 0
M  V30 2355 H 215.096 -2.35277 -2.89308 0
M  V30 2356 N 217.281 0.66697 -1.42791 0
M  V30 2357 C 218.506 1.46004 -1.47301 0
M  V30 2358 C 218.931 1.87894 -0.0880317 0
M  V30 2359 O 218.289 1.56502 0.915253 0
M  V30 2360 C 218.337 2.68031 -2.41229 0
M  V30 2361 O 217.441 3.6659 -1.88906 0
M  V30 2362 H 216.782 0.43832 -0.49877 0
M  V30 2363 H 219.312 0.817391 -1.87563 0
M  V30 2364 H 219.322 3.1601 -2.58073 0
M  V30 2365 H 217.997 2.36883 -3.41847 0
M  V30 2366 H 216.574 3.25661 -1.81656 0
M  V30 2367 N 218.759 1.29093 0.90403 0
M  V30 2368 C 220.17 1.15186 1.46932 0
M  V30 2369 C 220.521 -0.254587 1.94541 0
M  V30 2370 O 219.646 -1.14972 1.83332 0
M  V30 2371 C 220.241 2.08492 2.67051 0
M  V30 2372 C 218.8 1.98621 3.19729 0
M  V30 2373 C 217.947 1.9967 1.92425 0
M  V30 2374 H 220.898 1.41641 0.715789 0
M  V30 2375 H 220.919 1.65461 3.42641 0
M  V30 2376 H 220.431 3.10847 2.3237 0
M  V30 2377 H 218.532 0.993389 3.59114 0
M  V30 2378 H 218.645 2.86068 3.8432 0
M  V30 2379 H 217.009 1.44208 2.09943 0
M  V30 2380 H 217.792 3.03721 1.60026 0
M  V30 2381 N 220.237 -1.11381 1.11499 0
M  V30 2382 C 221.484 -1.83132 0.864231 0
M  V30 2383 C 221.812 -1.84683 -0.610114 0
M  V30 2384 O 221.067 -1.29589 -1.46646 0
M  V30 2385 C 221.366 -3.30026 1.37177 0
M  V30 2386 C 221.032 -3.48634 2.85946 0
M  V30 2387 C 219.694 -3.53421 3.26569 0
M  V30 2388 C 222.046 -3.54837 3.81759 0
M  V30 2389 C 219.374 -3.61967 4.61733 0
M  V30 2390 C 221.726 -3.64915 5.1674 0
M  V30 2391 C 220.39 -3.67962 5.5692 0
M  V30 2392 H 219.66 -0.670127 0.316245 0
M  V30 2393 H 222.307 -1.31354 1.3935 0
M  V30 2394 H 220.612 -3.84304 0.762753 0
M  V30 2395 H 222.309 -3.84034 1.15408 0
M  V30 2396 H 218.899 -3.45579 2.53521 0
M  V30 2397 H 223.083 -3.50399 3.51474 0
M  V30 2398 H 218.339 -3.62603 4.92269 0
M  V30 2399 H 222.513 -3.68658 5.90816 0
M  V30 2400 H 220.14 -3.74336 6.61647 0
M  V30 2401 N 221.715 -0.905404 -1.28997 0
M  V30 2402 C 222.945 -0.549049 -1.99171 0
M  V30 2403 C 223.353 0.87203 -1.67906 0
M  V30 2404 O 222.696 1.58796 -0.923561 0
M  V30 2405 C 222.758 -0.668306 -3.53234 0
M  V30 2406 C 222.422 -2.0574 -4.08069 0
M  V30 2407 C 223.419 -3.0292 -4.22534 0
M  V30 2408 C 221.104 -2.36833 -4.42962 0
M  V30 2409 C 223.098 -4.29314 -4.71135 0
M  V30 2410 C 220.785 -3.63467 -4.91258 0
M  V30 2411 C 221.783 -4.59522 -5.053 0
M  V30 2412 O 221.471 -5.83907 -5.52546 0
M  V30 2413 H 221.203 -0.208784 -0.64295 0
M  V30 2414 H 223.757 -1.21836 -1.65363 0
M  V30 2415 H 221.987 0.0580547 -3.86656 0
M  V30 2416 H 223.676 -0.320273 -4.04634 0
M  V30 2417 H 224.442 -2.80216 -3.95859 0
M  V30 2418 H 220.321 -1.62824 -4.31288 0
M  V30 2419 H 223.865 -5.04293 -4.8201 0
M  V30 2420 H 219.762 -3.86 -5.17372 0
M  V30 2421 H 220.53 -5.86578 -5.70849 0
M  V30 2422 N 223.193 1.4272 -0.668489 0
M  V30 2423 C 224.44 2.01624 -0.18814 0
M  V30 2424 C 224.768 1.5282 1.20317 0
M  V30 2425 O 224.023 0.718323 1.8204 0
M  V30 2426 C 224.322 3.57021 -0.164499 0
M  V30 2427 C 223.988 4.25232 -1.49962 0
M  V30 2428 C 222.65 4.4358 -1.8652 0
M  V30 2429 C 225.002 4.63727 -2.37921 0
M  V30 2430 C 222.33 4.97694 -3.10674 0
M  V30 2431 C 224.682 5.19218 -3.6138 0
M  V30 2432 C 223.346 5.3578 -3.98115 0
M  V30 2433 H 222.616 0.737795 -0.0688454 0
M  V30 2434 H 225.263 1.70991 -0.862225 0
M  V30 2435 H 223.568 3.87285 0.593079 0
M  V30 2436 H 225.265 4.00372 0.224271 0
M  V30 2437 H 221.855 4.11306 -1.20522 0
M  V30 2438 H 226.039 4.4923 -2.10964 0
M  V30 2439 H 221.295 5.08702 -3.39164 0
M  V30 2440 H 225.469 5.4799 -4.29743 0
M  V30 2441 H 223.096 5.77475 -4.94395 0
M  V30 2442 N 224.671 0.411399 1.52136 0
M  V30 2443 C 225.917 -0.156262 2.02799 0
M  V30 2444 C 226.272 -1.42613 1.29149 0
M  V30 2445 O 225.565 -1.87592 0.389839 0
M  V30 2446 C 225.759 -0.455872 3.54481 0
M  V30 2447 C 225.588 0.783404 4.42824 0
M  V30 2448 C 224.358 1.30928 4.88043 0
M  V30 2449 C 226.556 1.66217 4.86699 0
M  V30 2450 N 224.538 2.5038 5.6052 0
M  V30 2451 C 225.909 2.70292 5.5798 0
M  V30 2452 C 227.964 1.67966 4.68713 0
M  V30 2453 C 226.667 3.7603 6.13184 0
M  V30 2454 C 228.693 2.72624 5.24815 0
M  V30 2455 C 228.055 3.7542 5.9602 0
M  V30 2456 H 224.154 -0.0186886 0.781777 0
M  V30 2457 H 226.738 0.566255 1.86284 0
M  V30 2458 H 224.909 -1.14743 3.71064 0
M  V30 2459 H 226.641 -1.01261 3.91827 0
M  V30 2460 H 223.396 0.866977 4.65597 0
M  V30 2461 H 223.82 3.10881 6.014 0
M  V30 2462 H 228.462 0.898312 4.13147 0
M  V30 2463 H 226.18 4.55019 6.6782 0
M  V30 2464 H 229.766 2.74887 5.12765 0
M  V30 2465 H 228.646 4.55073 6.38654 0
M  V30 2466 N 226.149 -1.5696 0.141893 0
M  V30 2467 C 227.082 -2.12271 -0.837627 0
M  V30 2468 C 228.06 -1.04495 -1.24578 0
M  V30 2469 O 229.244 -1.32293 -1.34278 0
M  V30 2470 C 226.371 -2.63822 -2.12404 0
M  V30 2471 C 225.417 -3.83698 -1.86221 0
M  V30 2472 S 226.25 -5.24948 -1.05781 0
M  V30 2473 C 227.406 -5.79884 -2.35552 0
M  V30 2474 H 227.639 -2.95023 -0.367249 0
M  V30 2475 H 225.172 -1.54231 -0.0723014 0
M  V30 2476 H 227.13 -2.94175 -2.86307 0
M  V30 2477 H 225.791 -1.8121 -2.56557 0
M  V30 2478 H 224.984 -4.17995 -2.81596 0
M  V30 2479 H 224.586 -3.5408 -1.20429 0
M  V30 2480 H 226.878 -5.91005 -3.31239 0
M  V30 2481 H 227.821 -6.77544 -2.05767 0
M  V30 2482 H 228.229 -5.08095 -2.45967 0
M  V30 2483 N 227.627 0.131896 -1.57047 0
M  V30 2484 C 228.575 1.18146 -2.0036 0
M  V30 2485 C 229.569 1.43614 -0.898406 0
M  V30 2486 O 230.775 1.43729 -1.08361 0
M  V30 2487 H 227.15 0.398042 -0.638018 0
M  V30 2488 H 229.121 0.789564 -2.87765 0
M  V30 2489 C 227.87 2.50341 -2.41298 0
M  V30 2490 H 227.193 2.31578 -3.25902 0
M  V30 2491 H 228.633 3.22371 -2.75414 0
M  V30 2492 C 227.092 3.11984 -1.27153 0
M  V30 2493 O 227.622 3.97484 -0.580459 0
M  V30 2494 N 225.828 2.71662 -1.03189 0
M  V30 2495 H 225.375 2.02231 -1.59564 0
M  V30 2496 H 225.333 3.13238 -0.270077 0
M  V30 2497 N 229.106 1.52395 0.401703 0
M  V30 2498 C 230.354 1.66488 1.14569 0
M  V30 2499 C 230.675 0.400897 1.90835 0
M  V30 2500 O 229.945 -0.584415 1.8698 0
M  V30 2501 H 228.525 0.613672 0.425929 0
M  V30 2502 H 231.187 1.89464 0.457093 0
M  V30 2503 H 230.283 2.50942 1.85566 0
M  V30 2504 N 230.584 -0.659388 1.43143 0
M  V30 2505 C 231.861 -1.41627 1.34912 0
M  V30 2506 C 232.241 -2.11099 -0.00607785 0
M  V30 2507 O 231.589 -2.04353 -1.02236 0
M  V30 2508 C 231.799 -2.40604 2.52805 0
M  V30 2509 C 233.147 -3.04789 2.95616 0
M  V30 2510 O 234.171 -2.50932 2.52807 0
M  V30 2511 O 233.03 -4.02421 3.69756 0
M  V30 2512 H 230.124 -0.63246 0.532844 0
M  V30 2513 H 232.67 -0.686814 1.5518 0
M  V30 2514 H 231.442 -1.88174 3.43083 0
M  V30 2515 H 231.065 -3.21009 2.34604 0
M  V30 2516 N 232.062 -1.29571 -0.897171 0
M  V30 2517 C 233.478 -1.07637 -1.17841 0
M  V30 2518 C 233.678 0.170713 -2.00776 0
M  V30 2519 O 232.734 0.867768 -2.3712 0
M  V30 2520 C 234.047 -2.3332 -1.8969 0
M  V30 2521 C 235.595 -2.38664 -2.02505 0
M  V30 2522 C 236.07 -3.64157 -2.77765 0
M  V30 2523 N 237.561 -3.64894 -2.85318 0
M  V30 2524 C 238.296 -4.58679 -3.44094 0
M  V30 2525 N 237.792 -5.62799 -4.04017 0
M  V30 2526 N 239.585 -4.46245 -3.41793 0
M  V30 2527 H 231.736 -2.09598 -0.343883 0
M  V30 2528 H 233.999 -0.923333 -0.214848 0
M  V30 2529 H 233.705 -3.24262 -1.36187 0
M  V30 2530 H 233.579 -2.41025 -2.9015 0
M  V30 2531 H 235.966 -1.48208 -2.55183 0
M  V30 2532 H 236.047 -2.34943 -1.01171 0
M  V30 2533 H 235.691 -4.54965 -2.25763 0
M  V30 2534 H 235.621 -3.65137 -3.7945 0
M  V30 2535 H 238.112 -2.89613 -2.42761 0
M  V30 2536 H 238.425 -6.3048 -4.46895 0
M  V30 2537 H 236.77 -5.66605 -4.02472 0
M  V30 2538 H 239.961 -3.64094 -2.94199 0
M  V30 2539 H 240.134 -5.19518 -3.87304 0
M  V30 2540 N 233.54 1.10788 -1.12088 0
M  V30 2541 C 234.789 1.82036 -0.868659 0
M  V30 2542 C 235.102 1.85929 0.607426 0
M  V30 2543 O 236.308 2.53346 0.97613 0
M  V30 2544 C 234.764 3.26951 -1.50435 0
M  V30 2545 C 234.372 3.31367 -3.01496 0
M  V30 2546 C 236.116 4.03053 -1.33225 0
M  V30 2547 C 234.023 4.7072 -3.58017 0
M  V30 2548 H 232.953 0.682108 -0.321318 0
M  V30 2549 H 235.604 1.24618 -1.34694 0
M  V30 2550 H 233.986 3.84343 -0.953735 0
M  V30 2551 H 235.16 2.83819 -3.6302 0
M  V30 2552 H 233.475 2.6875 -3.18061 0
M  V30 2553 H 236.072 5.05981 -1.72878 0
M  V30 2554 H 236.415 4.15387 -0.275529 0
M  V30 2555 H 236.948 3.52066 -1.85188 0
M  V30 2556 H 233.687 4.63585 -4.63432 0
M  V30 2557 H 233.207 5.1865 -3.01268 0
M  V30 2558 H 234.886 5.39685 -3.56859 0
M  V30 2559 N 235.018 0.912232 1.28515 0
M  V30 2560 C 236.295 0.463597 1.90027 0
M  V30 2561 C 236.675 -1.05753 1.82701 0
M  V30 2562 O 236.023 -1.90492 1.26194 0
M  V30 2563 C 236.233 0.992253 3.34597 0
M  V30 2564 C 237.581 1.04344 4.11579 0
M  V30 2565 O 238.605 0.94079 3.43551 0
M  V30 2566 O 237.464 1.1995 5.33174 0
M  V30 2567 H 234.558 0.146666 0.813891 0
M  V30 2568 H 237.104 1.00292 1.36893 0
M  V30 2569 H 235.876 2.03623 3.34146 0
M  V30 2570 H 235.499 0.433672 3.95228 0
M  V30 2571 N 236.496 -1.42363 0.676048 0
M  V30 2572 C 237.721 -2.06377 0.205705 0
M  V30 2573 C 238.146 -1.50463 -1.12883 0
M  V30 2574 O 237.504 -0.623619 -1.70237 0
M  V30 2575 C 237.552 -3.60277 0.152655 0
M  V30 2576 O 236.656 -4.02935 -0.87845 0
M  V30 2577 H 235.997 -0.655588 0.105359 0
M  V30 2578 H 238.527 -1.82475 0.925412 0
M  V30 2579 H 238.537 -4.07993 -0.0230675 0
M  V30 2580 H 237.212 -4.00346 1.12675 0
M  V30 2581 H 235.789 -3.66764 -0.673668 0
M  V30 2582 N 237.974 -0.419461 -1.51915 0
M  V30 2583 C 238.904 0.391813 -2.30189 0
M  V30 2584 C 239.885 1.03699 -1.34836 0
M  V30 2585 O 241.07 1.04403 -1.63748 0
M  V30 2586 C 238.2 1.50312 -3.13087 0
M  V30 2587 C 237.154 0.9824 -4.16573 0
M  V30 2588 C 236.48 2.18809 -4.8788 0
M  V30 2589 C 237.78 0.0292356 -5.22292 0
M  V30 2590 H 239.474 -0.26135 -2.98257 0
M  V30 2591 H 237.02 -0.127134 -1.43438 0
M  V30 2592 H 238.973 2.07773 -3.66617 0
M  V30 2593 H 237.697 2.18431 -2.42807 0
M  V30 2594 H 236.356 0.430119 -3.64068 0
M  V30 2595 H 236.004 2.85507 -4.14119 0
M  V30 2596 H 235.704 1.84615 -5.57845 0
M  V30 2597 H 237.228 2.76858 -5.44226 0
M  V30 2598 H 238.642 0.512976 -5.71 0
M  V30 2599 H 237.039 -0.2244 -5.9968 0
M  V30 2600 H 238.109 -0.912931 -4.76228 0
M  V30 2601 N 239.452 1.56882 -0.150215 0
M  V30 2602 C 240.382 2.19935 0.784284 0
M  V30 2603 C 241.363 1.14854 1.25469 0
M  V30 2604 O 242.548 1.43209 1.31168 0
M  V30 2605 C 239.678 2.82349 2.02229 0
M  V30 2606 C 238.632 3.93285 1.68853 0
M  V30 2607 C 237.958 4.42649 2.99944 0
M  V30 2608 C 239.258 5.13904 0.932714 0
M  V30 2609 H 240.952 2.9828 0.258781 0
M  V30 2610 H 238.498 1.43473 0.123029 0
M  V30 2611 H 240.451 3.25126 2.68088 0
M  V30 2612 H 239.175 2.0134 2.57157 0
M  V30 2613 H 237.834 3.5113 1.05371 0
M  V30 2614 H 237.482 3.58458 3.52869 0
M  V30 2615 H 237.182 5.17476 2.78374 0
M  V30 2616 H 238.706 4.88099 3.66868 0
M  V30 2617 H 240.12 5.53506 1.49345 0
M  V30 2618 H 238.517 5.94515 0.81684 0
M  V30 2619 H 239.587 4.84842 -0.0749568 0
M  V30 2620 N 240.93 -0.123565 1.57115 0
M  V30 2621 C 241.84 -1.17074 2.033 0
M  V30 2622 C 242.856 -1.4561 0.952559 0
M  V30 2623 O 244.032 -1.56817 1.26374 0
M  V30 2624 C 241.097 -2.47857 2.42421 0
M  V30 2625 C 240.158 -2.26758 3.64526 0
M  V30 2626 C 239.391 -3.51305 4.01771 0
M  V30 2627 O 239.614 -4.5843 3.39409 0
M  V30 2628 O 238.548 -3.42578 4.94898 0
M  V30 2629 H 242.374 -0.808555 2.92739 0
M  V30 2630 H 239.959 -0.334027 1.45618 0
M  V30 2631 H 241.841 -3.2492 2.68338 0
M  V30 2632 H 240.516 -2.83558 1.5613 0
M  V30 2633 H 239.423 -1.47569 3.43765 0
M  V30 2634 H 240.756 -1.95963 4.51508 0
M  V30 2635 N 242.408 -1.52605 -0.393616 0
M  V30 2636 C 243.356 -1.77688 -1.50099 0
M  V30 2637 C 244.35 -0.644615 -1.56656 0
M  V30 2638 O 245.556 -0.826997 -1.59877 0
M  V30 2639 H 241.931 -0.562159 -0.499481 0
M  V30 2640 H 243.902 -2.7043 -1.26135 0
M  V30 2641 C 242.651 -1.95858 -2.87289 0
M  V30 2642 H 241.974 -2.8241 -2.82992 0
M  V30 2643 H 243.414 -2.174 -3.64024 0
M  V30 2644 C 241.873 -0.729848 -3.28899 0
M  V30 2645 O 242.403 0.0949217 -4.01588 0
M  V30 2646 N 240.609 -0.561283 -2.85128 0
M  V30 2647 H 240.156 -1.23357 -2.26143 0
M  V30 2648 H 240.114 0.2595 -3.13327 0
M  V30 2649 N 243.887 0.651787 -1.4349 0
M  V30 2650 C 245.164 1.40909 -1.35661 0
M  V30 2651 C 245.544 2.11099 -0.00511733 0
M  V30 2652 O 244.892 2.04892 1.0115 0
M  V30 2653 C 245.102 2.3926 -2.54078 0
M  V30 2654 C 246.45 3.03217 -2.97228 0
M  V30 2655 O 247.474 2.49588 -2.54135 0
M  V30 2656 O 246.333 4.00455 -3.71885 0
M  V30 2657 H 243.427 0.629625 -0.536191 0
M  V30 2658 H 245.973 0.678575 -1.55542 0
M  V30 2659 H 244.745 1.86352 -3.44076 0
M  V30 2660 H 244.368 3.1976 -2.36303 0
M  V30 2661 N 245.365 1.30045 0.890287 0
M  V30 2662 C 246.781 1.08261 1.17268 0
M  V30 2663 C 246.981 -0.160063 2.00863 0
M  V30 2664 O 246.037 -0.855181 2.37577 0
M  V30 2665 C 247.35 2.34323 1.8845 0
M  V30 2666 C 248.898 2.39735 2.01237 0
M  V30 2667 C 249.373 3.65625 2.7583 0
M  V30 2668 N 250.864 3.66402 2.83379 0
M  V30 2669 C 251.599 4.60498 3.41657 0
M  V30 2670 N 251.095 5.64933 4.01026 0
M  V30 2671 N 252.888 4.48051 3.39421 0
M  V30 2672 H 245.039 2.09777 0.332762 0
M  V30 2673 H 247.302 0.92446 0.209948 0
M  V30 2674 H 247.008 3.2498 1.34465 0
M  V30 2675 H 246.882 2.4256 2.88867 0
M  V30 2676 H 249.269 1.4956 2.54393 0
M  V30 2677 H 249.35 2.35476 0.999232 0
M  V30 2678 H 248.994 4.56156 2.23347 0
M  V30 2679 H 248.924 3.67144 3.77509 0
M  V30 2680 H 251.415 2.90896 2.41222 0
M  V30 2681 H 251.728 6.32841 4.43545 0
M  V30 2682 H 250.073 5.68732 3.99461 0
M  V30 2683 H 253.264 3.65649 2.92264 0
M  V30 2684 H 253.437 5.21565 3.84544 0
M  V30 2685 N 246.843 -1.10192 1.12674 0
M  V30 2686 C 247.775 -2.16418 0.754701 0
M  V30 2687 C 248.788 -1.61309 -0.21986 0
M  V30 2688 O 249.977 -1.785 -0.000826841 0
M  V30 2689 C 247.077 -3.38762 0.096698 0
M  V30 2690 C 246.25 -4.23307 1.10136 0
M  V30 2691 C 245.309 -5.24092 0.470513 0
M  V30 2692 O 244.335 -5.57906 1.12824 0
M  V30 2693 N 245.537 -5.75491 -0.760948 0
M  V30 2694 H 248.302 -2.48943 1.66875 0
M  V30 2695 H 245.863 -1.25834 1.01869 0
M  V30 2696 H 247.855 -4.03291 -0.337384 0
M  V30 2697 H 246.425 -3.04192 -0.720153 0
M  V30 2698 H 245.645 -3.55036 1.71299 0
M  V30 2699 H 246.933 -4.76624 1.78064 0
M  V30 2700 H 246.331 -5.50222 -1.31424 0
M  V30 2701 H 244.888 -6.41792 -1.13781 0
M  V30 2702 N 248.321 -0.919034 -1.28029 0
M  V30 2703 C 249.253 -0.368762 -2.26214 0
M  V30 2704 C 250.266 0.495716 -1.55069 0
M  V30 2705 O 251.455 0.30974 -1.75792 0
M  V30 2706 C 248.555 0.491049 -3.35324 0
M  V30 2707 C 247.728 -0.352133 -4.3598 0
M  V30 2708 C 246.787 0.443622 -5.24327 0
M  V30 2709 O 245.813 -0.14566 -5.69014 0
M  V30 2710 N 247.015 1.74545 -5.53637 0
M  V30 2711 H 249.78 -1.21273 -2.74068 0
M  V30 2712 H 247.341 -0.785541 -1.41566 0
M  V30 2713 H 249.333 1.03026 -3.91366 0
M  V30 2714 H 247.903 1.23574 -2.87138 0
M  V30 2715 H 247.123 -1.07269 -3.79324 0
M  V30 2716 H 248.411 -0.928883 -5.00249 0
M  V30 2717 H 247.809 2.24666 -5.19174 0
M  V30 2718 H 246.366 2.23138 -6.12416 0
M  V30 2719 N 249.799 1.42003 -0.683588 0
M  V30 2720 C 251.027 2.05746 -0.218182 0
M  V30 2721 C 251.442 1.51396 1.12804 0
M  V30 2722 O 250.799 0.657303 1.70252 0
M  V30 2723 C 250.85 3.61171 -0.154131 0
M  V30 2724 O 250.571 4.13508 -1.44716 0
M  V30 2725 C 252.072 4.42042 0.333713 0
M  V30 2726 H 249.292 0.662888 -0.10402 0
M  V30 2727 H 251.836 1.81987 -0.9328 0
M  V30 2728 H 249.991 3.84012 0.511231 0
M  V30 2729 H 250.405 5.07453 -1.32632 0
M  V30 2730 H 251.879 5.51028 0.327423 0
M  V30 2731 H 252.356 4.17269 1.37053 0
M  V30 2732 H 252.962 4.24239 -0.300222 0
M  V30 2733 N 251.277 0.427512 1.51691 0
M  V30 2734 C 252.227 -0.406604 2.24345 0
M  V30 2735 C 253.211 -0.998276 1.26187 0
M  V30 2736 O 254.403 -0.918045 1.51331 0
M  V30 2737 C 251.532 -1.51266 3.08177 0
M  V30 2738 C 250.618 -0.930868 4.13758 0
M  V30 2739 N 251.009 -0.0773552 5.05741 0
M  V30 2740 C 249.307 -1.19948 4.29568 0
M  V30 2741 C 250.008 0.248344 5.8117 0
M  V30 2742 N 248.984 -0.365535 5.4237 0
M  V30 2743 H 252.786 0.251581 2.92821 0
M  V30 2744 H 250.3 0.239003 1.60632 0
M  V30 2745 H 252.297 -2.123 3.58796 0
M  V30 2746 H 250.957 -2.17328 2.41244 0
M  V30 2747 H 251.968 0.288351 5.17097 0
M  V30 2748 H 248.645 -1.85832 3.73862 0
M  V30 2749 H 250.035 0.942286 6.6526 0
M  V30 2750 N 252.755 -1.56801 0.158532 0
M  V30 2751 C 253.688 -2.13148 -0.815065 0
M  V30 2752 C 254.666 -1.0581 -1.23462 0
M  V30 2753 O 255.85 -1.3371 -1.32868 0
M  V30 2754 C 252.977 -2.6606 -2.09594 0
M  V30 2755 C 252.023 -3.85651 -1.82141 0
M  V30 2756 S 252.856 -5.26041 -1.00207 0
M  V30 2757 C 254.012 -5.8235 -2.29389 0
M  V30 2758 H 254.245 -2.95396 -0.335937 0
M  V30 2759 H 251.778 -1.54299 -0.0559391 0
M  V30 2760 H 253.736 -2.97195 -2.8317 0
M  V30 2761 H 252.397 -1.83921 -2.54621 0
M  V30 2762 H 251.59 -4.20958 -2.77147 0
M  V30 2763 H 251.192 -3.55338 -1.16667 0
M  V30 2764 H 253.484 -5.94485 -3.24952 0
M  V30 2765 H 254.427 -6.79688 -1.9857 0
M  V30 2766 H 254.835 -5.10675 -2.40564 0
M  V30 2767 N 254.233 0.115231 -1.57178 0
M  V30 2768 C 255.163 1.1423 -2.03651 0
M  V30 2769 C 256.144 1.42967 -0.921655 0
M  V30 2770 O 257.329 1.53343 -1.19162 0
M  V30 2771 C 254.459 2.4675 -2.44401 0
M  V30 2772 C 253.413 2.32467 -3.59365 0
M  V30 2773 C 252.739 3.69984 -3.86026 0
M  V30 2774 C 254.039 1.78203 -4.90959 0
M  V30 2775 H 255.733 0.755749 -2.89705 0
M  V30 2776 H 253.279 0.362093 -1.39373 0
M  V30 2777 H 255.232 3.18854 -2.75517 0
M  V30 2778 H 253.956 2.87302 -1.55322 0
M  V30 2779 H 252.615 1.62811 -3.28463 0
M  V30 2780 H 252.263 4.08028 -2.94147 0
M  V30 2781 H 251.963 3.61279 -4.63412 0
M  V30 2782 H 253.487 4.43587 -4.19599 0
M  V30 2783 H 254.901 2.40128 -5.20587 0
M  V30 2784 H 253.298 1.8031 -5.72371 0
M  V30 2785 H 254.368 0.739876 -4.79222 0
M  V30 2786 N 255.711 1.52812 0.385517 0
M  V30 2787 C 256.988 1.5861 1.14465 0
M  V30 2788 C 257.368 0.381402 2.07626 0
M  V30 2789 O 256.716 -0.629999 2.19643 0
M  V30 2790 C 256.926 2.92664 1.90128 0
M  V30 2791 C 258.274 3.46526 2.45367 0
M  V30 2792 O 259.298 2.94562 2.0028 0
M  V30 2793 O 258.157 4.37323 3.27736 0
M  V30 2794 H 255.251 0.639855 0.523941 0
M  V30 2795 H 257.797 1.65149 0.390389 0
M  V30 2796 H 256.569 3.71788 1.22022 0
M  V30 2797 H 256.192 2.89527 2.72507 0
M  V30 2798 N 257.189 -0.644168 1.43834 0
M  V30 2799 C 258.435 -1.40603 1.46146 0
M  V30 2800 C 258.768 -1.93997 0.0887717 0
M  V30 2801 O 258.043 -1.72854 -0.891724 0
M  V30 2802 C 258.326 -2.58086 2.51124 0
M  V30 2803 C 258.179 -2.10126 3.97702 0
M  V30 2804 C 259.498 -3.60291 2.52742 0
M  V30 2805 H 256.617 -0.509905 0.532134 0
M  V30 2806 H 259.259 -0.729502 1.75437 0
M  V30 2807 H 257.409 -3.15801 2.26278 0
M  V30 2808 H 259.081 -1.57342 4.33637 0
M  V30 2809 H 257.324 -1.41419 4.10101 0
M  V30 2810 H 257.995 -2.94649 4.66783 0
M  V30 2811 H 260.471 -3.12352 2.7491 0
M  V30 2812 H 259.347 -4.40032 3.28121 0
M  V30 2813 H 259.608 -4.1349 1.56455 0
M  V30 2814 N 258.668 -1.30515 -0.883378 0
M  V30 2815 C 259.601 -1.11359 -1.99184 0
M  V30 2816 C 260.579 -0.0207858 -1.62587 0
M  V30 2817 O 261.763 -0.174646 -1.87689 0
M  V30 2818 C 258.89 -0.69871 -3.31415 0
M  V30 2819 C 257.936 -1.79261 -3.86998 0
M  V30 2820 S 258.769 -3.39536 -4.14096 0
M  V30 2821 C 259.925 -2.99954 -5.49344 0
M  V30 2822 H 260.158 -2.052 -2.15128 0
M  V30 2823 H 257.691 -1.14847 -1.03196 0
M  V30 2824 H 259.649 -0.466075 -4.07846 0
M  V30 2825 H 258.31 0.220368 -3.13326 0
M  V30 2826 H 257.503 -1.45464 -4.82552 0
M  V30 2827 H 257.105 -1.97961 -3.17313 0
M  V30 2828 H 259.397 -2.48013 -6.30473 0
M  V30 2829 H 260.34 -3.9442 -5.8808 0
M  V30 2830 H 260.748 -2.37775 -5.1198 0
M  V30 2831 N 260.146 1.09593 -1.13257 0
M  V30 2832 C 261.078 2.16015 -0.766167 0
M  V30 2833 C 262.091 1.61423 0.211303 0
M  V30 2834 O 263.28 1.78498 -0.00863946 0
M  V30 2835 C 260.38 3.38706 -0.114662 0
M  V30 2836 C 259.553 4.22717 -1.12379 0
M  V30 2837 C 258.612 5.23835 -0.498301 0
M  V30 2838 O 257.638 5.573 -1.15781 0
M  V30 2839 N 258.84 5.75886 0.730417 0
M  V30 2840 H 261.605 2.48055 -1.68193 0
M  V30 2841 H 259.166 1.25292 -1.02535 0
M  V30 2842 H 261.158 4.03464 0.315991 0
M  V30 2843 H 259.728 3.04569 0.704011 0
M  V30 2844 H 258.948 3.54122 -1.73179 0
M  V30 2845 H 260.236 4.75673 -1.80589 0
M  V30 2846 H 259.634 5.50911 1.28504 0
M  V30 2847 H 258.191 6.42387 1.10376 0
M  V30 2848 N 261.624 0.925811 1.2754 0
M  V30 2849 C 262.901 0.483726 1.89524 0
M  V30 2850 C 263.281 -1.03809 1.83812 0
M  V30 2851 O 262.629 -1.89143 1.28207 0
M  V30 2852 C 262.839 1.02769 3.33526 0
M  V30 2853 C 264.187 1.08703 4.10449 0
M  V30 2854 O 265.211 0.977175 3.42534 0
M  V30 2855 O 264.07 1.25599 5.31871 0
M  V30 2856 H 261.164 0.15529 0.812289 0
M  V30 2857 H 263.71 1.01738 1.35822 0
M  V30 2858 H 262.482 2.07155 3.31967 0
M  V30 2859 H 262.105 0.475567 3.94746 0
M  V30 2860 N 263.102 -1.41638 0.69111 0
M  V30 2861 C 264.052 -2.28 -0.000107832 0
M  V30 2862 C 265.036 -1.41964 -0.757304 0
M  V30 2863 O 266.228 -1.65274 -0.633532 0
M  V30 2864 C 263.357 -3.30209 -0.938983 0
M  V30 2865 C 262.443 -4.23725 -0.17827 0
M  V30 2866 N 262.834 -4.99017 0.825563 0
M  V30 2867 C 261.132 -4.44071 -0.414392 0
M  V30 2868 C 261.833 -5.67431 1.28052 0
M  V30 2869 N 260.809 -5.40197 0.607304 0
M  V30 2870 H 264.611 -2.83644 0.769617 0
M  V30 2871 H 262.125 -1.53797 0.521562 0
M  V30 2872 H 264.122 -3.90898 -1.44929 0
M  V30 2873 H 262.782 -2.76126 -1.70836 0
M  V30 2874 H 263.793 -5.03671 1.20566 0
M  V30 2875 H 260.47 -4.01004 -1.162 0
M  V30 2876 H 261.86 -6.37801 2.11327 0
M  V30 2877 N 264.58 -0.43555 -1.51462 0
M  V30 2878 C 265.827 0.131514 -2.02072 0
M  V30 2879 C 266.155 1.42868 -1.31981 0
M  V30 2880 O 265.41 1.91076 -0.422883 0
M  V30 2881 C 265.709 0.39942 -3.55161 0
M  V30 2882 C 265.375 -0.81172 -4.43533 0
M  V30 2883 C 264.037 -1.14387 -4.67407 0
M  V30 2884 C 266.389 -1.61976 -4.95392 0
M  V30 2885 C 263.717 -2.28477 -5.40384 0
M  V30 2886 C 266.069 -2.75164 -5.6962 0
M  V30 2887 C 264.733 -3.08835 -5.91758 0
M  V30 2888 H 264.003 0.0481244 -0.739436 0
M  V30 2889 H 266.65 -0.58238 -1.8243 0
M  V30 2890 H 264.955 1.19519 -3.73125 0
M  V30 2891 H 266.652 0.85157 -3.91854 0
M  V30 2892 H 263.242 -0.542898 -4.25148 0
M  V30 2893 H 267.426 -1.37637 -4.76833 0
M  V30 2894 H 262.682 -2.5488 -5.55739 0
M  V30 2895 H 266.856 -3.38147 -6.08793 0
M  V30 2896 H 264.483 -3.97353 -6.48086 0
M  V30 2897 N 266.058 1.56714 -0.166846 0
M  V30 2898 C 267.283 2.01557 0.488833 0
M  V30 2899 C 267.708 1.0463 1.56314 0
M  V30 2900 O 267.066 0.0251304 1.81283 0
M  V30 2901 C 267.114 3.4503 1.04818 0
M  V30 2902 O 266.218 3.51163 2.16236 0
M  V30 2903 H 265.559 0.653516 0.117526 0
M  V30 2904 H 268.089 2.02818 -0.269421 0
M  V30 2905 H 268.099 3.84243 1.37191 0
M  V30 2906 H 266.774 4.15077 0.261572 0
M  V30 2907 H 265.351 3.23807 1.84942 0
M  V30 2908 N 267.536 -0.106894 1.57237 0
M  V30 2909 C 268.952 -0.46078 1.52804 0
M  V30 2910 C 269.152 -1.81184 0.881746 0
M  V30 2911 O 268.208 -2.48102 0.469224 0
M  V30 2912 C 269.521 -0.434127 2.9755 0
M  V30 2913 C 271.069 -0.516821 3.08704 0
M  V30 2914 C 271.544 -0.520436 4.55033 0
M  V30 2915 N 273.035 -0.58153 4.59535 0
M  V30 2916 C 273.77 -0.605973 5.70189 0
M  V30 2917 N 273.266 -0.587331 6.90306 0
M  V30 2918 N 275.059 -0.649895 5.5833 0
M  V30 2919 H 267.21 0.778203 1.9763 0
M  V30 2920 H 269.473 0.288403 0.903066 0
M  V30 2921 H 269.179 0.491197 3.48253 0
M  V30 2922 H 269.053 -1.25748 3.55622 0
M  V30 2923 H 271.44 -1.43256 2.57995 0
M  V30 2924 H 271.521 0.334449 2.53604 0
M  V30 2925 H 271.165 0.391313 5.0639 0
M  V30 2926 H 271.095 -1.38876 5.07958 0
M  V30 2927 H 273.586 -0.60161 3.73081 0
M  V30 2928 H 273.899 -0.60894 7.70397 0
M  V30 2929 H 272.244 -0.554564 6.92784 0
M  V30 2930 H 275.435 -0.661907 4.63397 0
M  V30 2931 H 275.608 -0.665476 6.44574 0
M  V30 2932 N 269.014 -1.53014 -0.377408 0
M  V30 2933 C 269.977 -1.77957 -1.44444 0
M  V30 2934 C 270.977 -0.649763 -1.47087 0
M  V30 2935 O 272.167 -0.917897 -1.48055 0
M  V30 2936 C 269.299 -1.89089 -2.83651 0
M  V30 2937 H 270.492 -2.73243 -1.23606 0
M  V30 2938 H 268.045 -1.43912 -0.609844 0
M  V30 2939 H 268.78 -0.958293 -3.09818 0
M  V30 2940 H 268.565 -2.71254 -2.83132 0
M  V30 2941 H 270.055 -2.1002 -3.60945 0
M  V30 2942 N 270.492 0.636531 -1.44174 0
M  V30 2943 C 271.717 1.42847 -1.50364 0
M  V30 2944 C 272.142 1.87665 -0.127867 0
M  V30 2945 O 271.5 1.58408 0.88185 0
M  V30 2946 C 271.548 2.62854 -2.4686 0
M  V30 2947 O 270.652 3.62501 -1.9664 0
M  V30 2948 H 269.993 0.427642 -0.507955 0
M  V30 2949 H 272.523 0.777422 -1.89255 0
M  V30 2950 H 272.533 3.10465 -2.64718 0
M  V30 2951 H 271.208 2.29578 -3.46795 0
M  V30 2952 H 269.785 3.21735 -1.88523 0
M  V30 2953 N 271.97 1.30982 0.876444 0
M  V30 2954 C 273.195 1.23373 1.66715 0
M  V30 2955 C 273.62 -0.19885 1.87046 0
M  V30 2956 O 272.978 -1.1427 1.40756 0
M  V30 2957 C 273.026 1.97644 3.01611 0
M  V30 2958 O 272.13 1.30935 3.91062 0
M  V30 2959 H 271.471 0.426279 0.509099 0
M  V30 2960 H 274.001 1.72944 1.09323 0
M  V30 2961 H 274.011 2.06992 3.51594 0
M  V30 2962 H 272.686 3.01829 2.86133 0
M  V30 2963 H 271.263 1.29996 3.49507 0
M  V30 2964 N 273.449 -1.08991 1.13837 0
M  V30 2965 C 274.698 -1.80631 0.897509 0
M  V30 2966 C 275.011 -1.86872 -0.57777 0
M  V30 2967 O 276.217 -2.54866 -0.935701 0
M  V30 2968 C 274.673 -3.24517 1.55618 0
M  V30 2969 C 274.281 -3.26529 3.0673 0
M  V30 2970 C 276.025 -4.00882 1.3962 0
M  V30 2971 C 273.932 -4.64965 3.65461 0
M  V30 2972 H 272.862 -0.67691 0.332129 0
M  V30 2973 H 275.513 -1.2246 1.3666 0
M  V30 2974 H 273.895 -3.82778 1.01476 0
M  V30 2975 H 275.069 -2.78008 3.67489 0
M  V30 2976 H 273.384 -2.63656 3.22296 0
M  V30 2977 H 275.981 -5.03167 1.80906 0
M  V30 2978 H 276.324 -4.14896 0.341578 0
M  V30 2979 H 276.857 -3.49075 1.90766 0
M  V30 2980 H 273.596 -4.56153 4.70749 0
M  V30 2981 H 273.116 -5.13792 3.09481 0
M  V30 2982 H 274.795 -5.3394 3.654 0
M  V30 2983 N 274.927 -0.932562 -1.27047 0
M  V30 2984 C 276.176 -0.571351 -1.93439 0
M  V30 2985 C 276.489 0.892467 -1.74053 0
M  V30 2986 O 277.695 1.36267 -2.34826 0
M  V30 2987 C 276.151 -0.97106 -3.46552 0
M  V30 2988 C 275.759 -2.4559 -3.74686 0
M  V30 2989 C 277.503 -0.681333 -4.18997 0
M  V30 2990 C 275.41 -2.79475 -5.21198 0
M  V30 2991 H 274.34 -0.209966 -0.724176 0
M  V30 2992 H 276.991 -1.13403 -1.44263 0
M  V30 2993 H 275.373 -0.336983 -3.94564 0
M  V30 2994 H 276.547 -3.13829 -3.37414 0
M  V30 2995 H 274.862 -2.71802 -3.15456 0
M  V30 2996 H 277.459 -0.910939 -5.26883 0
M  V30 2997 H 277.802 0.381628 -4.14547 0
M  V30 2998 H 278.335 -1.27473 -3.76823 0
M  V30 2999 H 275.074 -3.847 -5.30741 0
M  V30 3000 H 274.594 -2.1589 -5.596 0
M  V30 3001 H 276.273 -2.67478 -5.89122 0
M  V30 3002 N 276.405 1.4127 -0.698611 0
M  V30 3003 C 277.682 1.94955 -0.158762 0
M  V30 3004 C 278.062 1.63781 1.33188 0
M  V30 3005 O 277.41 0.946423 2.07979 0
M  V30 3006 C 277.62 3.46044 -0.453309 0
M  V30 3007 C 278.968 4.22872 -0.382707 0
M  V30 3008 O 279.992 3.54076 -0.388396 0
M  V30 3009 O 278.851 5.45407 -0.345463 0
M  V30 3010 H 275.945 0.82683 -0.0167505 0
M  V30 3011 H 278.491 1.50971 -0.77498 0
M  V30 3012 H 277.263 3.62028 -1.48498 0
M  V30 3013 H 276.886 3.97128 0.19373 0
M  V30 3014 N 277.883 0.443576 1.51229 0
M  V30 3015 C 278.793 -0.370721 2.31652 0
M  V30 3016 C 279.809 -1.02186 1.40833 0
M  V30 3017 O 280.985 -1.01586 1.73903 0
M  V30 3018 C 278.05 -1.45376 3.14749 0
M  V30 3019 C 277.111 -0.822099 4.21355 0
M  V30 3020 C 276.344 -1.85353 5.0048 0
M  V30 3021 O 276.567 -3.07656 4.80316 0
M  V30 3022 O 275.501 -1.4406 5.84406 0
M  V30 3023 H 279.327 0.286002 3.0235 0
M  V30 3024 H 276.912 0.20598 1.47973 0
M  V30 3025 H 278.794 -2.08173 3.66391 0
M  V30 3026 H 277.469 -2.09445 2.46809 0
M  V30 3027 H 276.376 -0.155909 3.73775 0
M  V30 3028 H 277.709 -0.224797 4.91686 0
M  V30 3029 N 279.361 -1.56624 0.175154 0
M  V30 3030 C 280.291 -2.21155 -0.749195 0
M  V30 3031 C 281.272 -1.16836 -1.23626 0
M  V30 3032 O 282.457 -1.45277 -1.28873 0
M  V30 3033 C 279.587 -2.8553 -1.97711 0
M  V30 3034 C 278.541 -3.95921 -1.62575 0
M  V30 3035 C 277.867 -4.47365 -2.92864 0
M  V30 3036 C 279.167 -5.15323 -0.850838 0
M  V30 3037 H 280.861 -2.98653 -0.211295 0
M  V30 3038 H 278.407 -1.43651 -0.100188 0
M  V30 3039 H 280.36 -3.2935 -2.62881 0
M  V30 3040 H 279.084 -2.05406 -2.53921 0
M  V30 3041 H 277.743 -3.52762 -0.997719 0
M  V30 3042 H 277.391 -3.64027 -3.47122 0
M  V30 3043 H 277.091 -5.21839 -2.70106 0
M  V30 3044 H 278.615 -4.93873 -3.59056 0
M  V30 3045 H 280.029 -5.55812 -1.40521 0
M  V30 3046 H 278.426 -5.95739 -0.722154 0
M  V30 3047 H 279.496 -4.84661 0.152082 0
M  V30 3048 N 280.839 0.0985539 -1.57292 0
M  V30 3049 C 282.086 0.802678 -1.85912 0
M  V30 3050 C 282.414 1.78901 -0.763186 0
M  V30 3051 O 281.669 1.94178 0.243559 0
M  V30 3052 C 281.968 1.56927 -3.21105 0
M  V30 3053 C 281.634 0.725376 -4.45027 0
M  V30 3054 C 280.296 0.492726 -4.78671 0
M  V30 3055 C 282.648 0.138493 -5.21016 0
M  V30 3056 C 279.976 -0.336727 -5.85733 0
M  V30 3057 C 282.328 -0.678264 -6.28953 0
M  V30 3058 C 280.992 -0.921039 -6.61115 0
M  V30 3059 H 280.262 0.293721 -0.680301 0
M  V30 3060 H 282.909 0.0642841 -1.91392 0
M  V30 3061 H 281.214 2.37914 -3.11294 0
M  V30 3062 H 282.911 2.11841 -3.40477 0
M  V30 3063 H 279.501 0.916815 -4.18679 0
M  V30 3064 H 283.685 0.305404 -4.95359 0
M  V30 3065 H 278.941 -0.533836 -6.09065 0
M  V30 3066 H 283.115 -1.1399 -6.87007 0
M  V30 3067 H 280.742 -1.56556 -7.43905 0
M  V30 3068 N 282.317 1.53212 0.369288 0
M  V30 3069 C 283.249 1.75668 1.47219 0
M  V30 3070 C 284.262 0.637387 1.49804 0
M  V30 3071 O 285.451 0.913561 1.5335 0
M  V30 3072 C 282.551 1.81818 2.85999 0
M  V30 3073 C 281.724 3.11409 3.07153 0
M  V30 3074 C 280.783 3.08849 4.26026 0
M  V30 3075 O 279.809 3.82659 4.2138 0
M  V30 3076 N 281.011 2.29409 5.33246 0
M  V30 3077 H 283.776 2.70832 1.28337 0
M  V30 3078 H 281.337 1.51944 0.55898 0
M  V30 3079 H 283.329 1.77588 3.63655 0
M  V30 3080 H 281.899 0.939544 2.98146 0
M  V30 3081 H 281.119 3.28971 2.1719 0
M  V30 3082 H 282.407 3.97059 3.18154 0
M  V30 3083 H 281.805 1.68946 5.39883 0
M  V30 3084 H 280.362 2.31001 6.09493 0
M  V30 3085 N 283.795 -0.628877 1.44509 0
M  V30 3086 C 285.072 -1.38733 1.37886 0
M  V30 3087 C 285.452 -2.11065 0.0387008 0
M  V30 3088 O 284.8 -2.06476 -0.97878 0
M  V30 3089 C 285.01 -2.35188 2.57852 0
M  V30 3090 C 286.358 -2.9845 3.02014 0
M  V30 3091 O 287.382 -2.45513 2.58073 0
M  V30 3092 O 286.241 -3.94487 3.78209 0
M  V30 3093 H 283.335 -0.621015 0.54614 0
M  V30 3094 H 285.881 -0.653744 1.56602 0
M  V30 3095 H 284.653 -1.80855 3.46998 0
M  V30 3096 H 284.276 -3.1596 2.4136 0
M  V30 3097 N 285.273 -1.31445 -0.869486 0
M  V30 3098 C 286.689 -1.10113 -1.15531 0
M  V30 3099 C 286.889 0.128087 -2.01092 0
M  V30 3100 O 285.945 0.817276 -2.38908 0
M  V30 3101 C 287.258 -2.37291 -1.84698 0
M  V30 3102 C 288.806 -2.42906 -1.97397 0
M  V30 3103 C 289.281 -3.69967 -2.69979 0
M  V30 3104 N 290.772 -3.70864 -2.77514 0
M  V30 3105 C 291.507 -4.65875 -3.34287 0
M  V30 3106 N 291.003 -5.71242 -3.91988 0
M  V30 3107 N 292.796 -4.53394 -3.3225 0
M  V30 3108 H 284.947 -2.1028 -0.299347 0
M  V30 3109 H 287.21 -0.927683 -0.195214 0
M  V30 3110 H 286.916 -3.27078 -1.29278 0
M  V30 3111 H 286.79 -2.47125 -2.84972 0
M  V30 3112 H 289.177 -1.53588 -2.51982 0
M  V30 3113 H 289.258 -2.37036 -0.961643 0
M  V30 3114 H 288.902 -4.59652 -2.16062 0
M  V30 3115 H 288.832 -3.73103 -3.7162 0
M  V30 3116 H 291.323 -2.94697 -2.36563 0
M  V30 3117 H 291.636 -6.39817 -4.33421 0
M  V30 3118 H 289.981 -5.75015 -3.90362 0
M  V30 3119 H 293.172 -3.70252 -2.8641 0
M  V30 3120 H 293.345 -5.27617 -3.76197 0
M  V30 3121 N 286.751 1.08385 -1.14413 0
M  V30 3122 C 287.998 1.80776 -0.912482 0
M  V30 3123 C 288.326 1.86236 0.560934 0
M  V30 3124 O 287.581 1.33431 1.43159 0
M  V30 3125 C 287.88 3.26273 -1.45879 0
M  V30 3126 C 287.546 3.4093 -2.95089 0
M  V30 3127 C 286.208 3.44638 -3.35824 0
M  V30 3128 C 288.56 3.44591 -3.91033 0
M  V30 3129 C 285.888 3.49597 -4.71167 0
M  V30 3130 C 288.24 3.51086 -5.26233 0
M  V30 3131 C 286.904 3.53067 -5.6648 0
M  V30 3132 H 286.174 0.661507 -0.333901 0
M  V30 3133 H 288.821 1.27613 -1.42784 0
M  V30 3134 H 287.126 3.82146 -0.864376 0
M  V30 3135 H 288.823 3.80839 -1.2555 0
M  V30 3136 H 285.413 3.38736 -2.62594 0
M  V30 3137 H 289.597 3.40957 -3.60641 0
M  V30 3138 H 284.853 3.49424 -5.0171 0
M  V30 3139 H 289.027 3.52864 -6.00383 0
M  V30 3140 H 286.654 3.56662 -6.71339 0
M  V30 3141 N 288.23 0.939286 1.26551 0
M  V30 3142 C 289.477 0.585847 1.9384 0
M  V30 3143 C 289.805 -0.874784 1.73718 0
M  V30 3144 O 289.06 -1.64092 1.06642 0
M  V30 3145 C 289.359 0.872106 3.46596 0
M  V30 3146 C 289.025 2.31632 3.86856 0
M  V30 3147 C 287.687 2.71111 3.97558 0
M  V30 3148 C 290.039 3.25494 4.07066 0
M  V30 3149 C 287.367 4.03553 4.25866 0
M  V30 3150 C 289.719 4.57531 4.36862 0
M  V30 3151 C 288.383 4.96828 4.45778 0
M  V30 3152 H 287.653 0.214377 0.709312 0
M  V30 3153 H 290.3 1.18544 1.50398 0
M  V30 3154 H 288.605 0.18996 3.91339 0
M  V30 3155 H 290.302 0.577442 3.96821 0
M  V30 3156 H 286.892 2.00008 3.79071 0
M  V30 3157 H 291.076 2.9619 3.98227 0
M  V30 3158 H 286.332 4.33665 4.30981 0
M  V30 3159 H 290.506 5.30254 4.51446 0
M  V30 3160 H 288.133 5.99482 4.67468 0
M  V30 3161 N 289.708 -1.40897 0.706093 0
M  V30 3162 C 290.936 -2.05373 0.250887 0
M  V30 3163 C 291.351 -1.53172 -1.10381 0
M  V30 3164 O 290.708 -0.684305 -1.69185 0
M  V30 3165 C 290.759 -3.6088 0.211571 0
M  V30 3166 O 290.48 -4.11153 1.51276 0
M  V30 3167 C 291.981 -4.42517 -0.263346 0
M  V30 3168 H 289.201 -0.66115 0.114552 0
M  V30 3169 H 291.745 -1.80479 0.961635 0
M  V30 3170 H 289.9 -3.84777 -0.450073 0
M  V30 3171 H 290.314 -5.05279 1.40689 0
M  V30 3172 H 291.788 -5.51479 -0.239718 0
M  V30 3173 H 292.265 -4.19396 -1.30397 0
M  V30 3174 H 292.871 -4.23708 0.367677 0
M  V30 3175 N 291.186 -0.45159 -1.50991 0
M  V30 3176 C 292.602 -0.104647 -1.59257 0
M  V30 3177 C 292.802 1.38728 -1.4614 0
M  V30 3178 O 291.858 2.15866 -1.30989 0
M  V30 3179 C 293.171 -0.637468 -2.93865 0
M  V30 3180 C 294.719 -0.599166 -3.07212 0
M  V30 3181 C 295.194 -1.1092 -4.44366 0
M  V30 3182 N 296.685 -1.06778 -4.50725 0
M  V30 3183 C 297.42 -1.43314 -5.55201 0
M  V30 3184 N 296.916 -1.87204 -6.67028 0
M  V30 3185 N 298.709 -1.3504 -5.45638 0
M  V30 3186 H 290.86 -1.42214 -1.57762 0
M  V30 3187 H 293.123 -0.586921 -0.744465 0
M  V30 3188 H 292.829 -1.68187 -3.08879 0
M  V30 3189 H 292.703 -0.0702139 -3.77135 0
M  V30 3190 H 295.09 0.436277 -2.91857 0
M  V30 3191 H 295.171 -1.20299 -2.25747 0
M  V30 3192 H 294.815 -2.14318 -4.60467 0
M  V30 3193 H 294.745 -0.481773 -5.24392 0
M  V30 3194 H 297.236 -0.745643 -3.70471 0
M  V30 3195 H 297.549 -2.13282 -7.42786 0
M  V30 3196 H 295.894 -1.91142 -6.68199 0
M  V30 3197 H 299.085 -1.00607 -4.57161 0
M  V30 3198 H 299.258 -1.63841 -6.26945 0
M  V30 3199 N 292.664 1.56529 -0.183458 0
M  V30 3200 C 293.574 2.22144 0.754272 0
M  V30 3201 C 294.59 1.21684 1.24374 0
M  V30 3202 O 295.766 1.54385 1.29333 0
M  V30 3203 C 292.831 2.85884 1.96141 0
M  V30 3204 C 291.892 4.01579 1.51765 0
M  V30 3205 C 291.125 4.6227 2.66725 0
M  V30 3206 O 291.348 4.21865 3.83909 0
M  V30 3207 O 290.282 5.51936 2.40104 0
M  V30 3208 H 294.108 3.02861 0.225527 0
M  V30 3209 H 291.693 1.49331 0.0453032 0
M  V30 3210 H 293.575 3.26253 2.66715 0
M  V30 3211 H 292.25 2.08154 2.47899 0
M  V30 3212 H 291.157 3.65856 0.781049 0
M  V30 3213 H 292.49 4.80938 1.04686 0
M  V30 3214 N 294.142 -0.090211 1.57342 0
M  V30 3215 C 295.553 -0.644173 1.75235 0
M  V30 3216 C 295.904 -1.78865 0.806335 0
M  V30 3217 O 295.029 -2.16395 -0.0140128 0
M  V30 3218 C 295.624 -1.17532 3.1776 0
M  V30 3219 C 294.183 -1.67531 3.37061 0
M  V30 3220 C 293.33 -0.58693 2.71017 0
M  V30 3221 H 296.281 0.135884 1.58117 0
M  V30 3222 H 296.302 -2.04455 3.20902 0
M  V30 3223 H 295.814 -0.342138 3.86589 0
M  V30 3224 H 293.915 -2.53234 2.73319 0
M  V30 3225 H 294.028 -1.76493 4.45406 0
M  V30 3226 H 292.392 -1.02756 2.33052 0
M  V30 3227 H 293.175 0.235758 3.4249 0
M  V30 3228 N 295.62 -1.53406 -0.361157 0
M  V30 3229 C 296.552 -1.76446 -1.46286 0
M  V30 3230 C 297.565 -0.645322 -1.49464 0
M  V30 3231 O 298.754 -0.921681 -1.52864 0
M  V30 3232 C 295.854 -1.83332 -2.85031 0
M  V30 3233 C 295.027 -3.13033 -3.05498 0
M  V30 3234 C 294.086 -3.11104 -4.24383 0
M  V30 3235 O 293.112 -3.84888 -4.19344 0
M  V30 3236 N 294.314 -2.32234 -5.32022 0
M  V30 3237 H 297.079 -2.71508 -1.26899 0
M  V30 3238 H 294.64 -1.52238 -0.550915 0
M  V30 3239 H 296.632 -1.79514 -3.62708 0
M  V30 3240 H 295.202 -0.955342 -2.97644 0
M  V30 3241 H 294.422 -3.30119 -2.15442 0
M  V30 3242 H 295.71 -3.9874 -3.16044 0
M  V30 3243 H 295.108 -1.71807 -5.38979 0
M  V30 3244 H 293.665 -2.3423 -6.08259 0
M  V30 3245 N 297.098 0.621204 -1.44841 0
M  V30 3246 C 298.375 1.38 -1.38619 0
M  V30 3247 C 298.755 2.11041 -0.0498935 0
M  V30 3248 O 298.103 2.06992 0.967816 0
M  V30 3249 C 298.313 2.33817 -2.59096 0
M  V30 3250 C 299.661 2.96844 -3.03593 0
M  V30 3251 O 300.685 2.44141 -2.59371 0
M  V30 3252 O 299.544 3.92476 -3.80296 0
M  V30 3253 H 296.638 0.61811 -0.549426 0
M  V30 3254 H 299.184 0.645429 -1.56947 0
M  V30 3255 H 297.956 1.79012 -3.47952 0
M  V30 3256 H 297.579 3.14676 -2.43032 0
M  V30 3257 N 298.576 1.31904 0.862503 0
M  V30 3258 C 299.804 1.24998 1.64873 0
M  V30 3259 C 300.219 -0.183425 1.87907 0
M  V30 3260 O 299.576 -1.11794 1.44251 0
M  V30 3261 C 299.627 1.99829 3.01248 0
M  V30 3262 O 299.348 3.37575 2.79239 0
M  V30 3263 C 300.849 1.99852 3.95694 0
M  V30 3264 H 298.069 0.431599 0.513773 0
M  V30 3265 H 300.613 1.73901 1.07604 0
M  V30 3266 H 298.768 1.54668 3.55185 0
M  V30 3267 H 299.182 3.75776 3.65914 0
M  V30 3268 H 300.656 2.56709 4.88676 0
M  V30 3269 H 301.133 0.982852 4.28062 0
M  V30 3270 H 301.739 2.44926 3.47694 0
M  V30 3271 N 300.054 -1.07777 1.14986 0
M  V30 3272 C 301.284 -1.83752 0.944402 0
M  V30 3273 C 301.692 -1.8218 -0.51058 0
M  V30 3274 O 301.035 -1.22852 -1.36576 0
M  V30 3275 C 301.097 -3.32128 1.37592 0
M  V30 3276 C 300.761 -3.57425 2.84775 0
M  V30 3277 C 301.758 -3.5173 3.8286 0
M  V30 3278 C 299.443 -3.8523 3.2234 0
M  V30 3279 C 301.437 -3.73482 5.16517 0
M  V30 3280 C 299.124 -4.06634 4.56171 0
M  V30 3281 C 300.122 -4.00754 5.53069 0
M  V30 3282 O 299.81 -4.2159 6.84483 0
M  V30 3283 H 299.542 -0.58673 0.335744 0
M  V30 3284 H 302.096 -1.36982 1.53052 0
M  V30 3285 H 300.326 -3.79686 0.733165 0
M  V30 3286 H 302.015 -3.89555 1.14024 0
M  V30 3287 H 302.781 -3.30256 3.55184 0
M  V30 3288 H 298.66 -3.88923 2.47508 0
M  V30 3289 H 302.204 -3.68808 5.92137 0
M  V30 3290 H 298.101 -4.27593 4.83564 0
M  V30 3291 H 298.869 -4.38961 6.90837 0
M  V30 3292 N 301.532 -0.945985 -1.26051 0
M  V30 3293 C 302.482 -0.430164 -2.23905 0
M  V30 3294 C 303.466 0.47579 -1.53704 0
M  V30 3295 O 304.658 0.310252 -1.7426 0
M  V30 3296 C 301.787 0.298957 -3.41996 0
M  V30 3297 C 300.873 -0.624566 -4.19476 0
M  V30 3298 N 301.264 -1.75245 -4.74471 0
M  V30 3299 C 299.562 -0.431082 -4.43912 0
M  V30 3300 C 300.263 -2.32834 -5.3307 0
M  V30 3301 N 299.239 -1.61583 -5.1903 0
M  V30 3302 H 303.041 -1.29107 -2.64024 0
M  V30 3303 H 300.555 -0.802428 -1.41191 0
M  V30 3304 H 302.552 0.685565 -4.11225 0
M  V30 3305 H 301.212 1.15657 -3.03403 0
M  V30 3306 H 302.223 -2.13449 -4.71868 0
M  V30 3307 H 298.9 0.384364 -4.15727 0
M  V30 3308 H 300.29 -3.27893 -5.86461 0
M  V30 3309 N 303.011 1.40521 -0.713556 0
M  V30 3310 C 304.241 2.0494 -0.261395 0
M  V30 3311 C 304.649 1.53861 1.10107 0
M  V30 3312 O 303.992 0.689321 1.70276 0
M  V30 3313 C 304.054 3.59138 -0.161227 0
M  V30 3314 C 303.718 4.33096 -1.45865 0
M  V30 3315 C 304.715 4.61182 -2.40016 0
M  V30 3316 C 302.4 4.72043 -1.71701 0
M  V30 3317 C 304.394 5.27196 -3.58251 0
M  V30 3318 C 302.081 5.37789 -2.90218 0
M  V30 3319 C 303.079 5.65295 -3.83315 0
M  V30 3320 O 302.767 6.29683 -4.99754 0
M  V30 3321 H 302.499 0.666041 -0.115608 0
M  V30 3322 H 305.053 1.80954 -0.971849 0
M  V30 3323 H 303.283 3.81936 0.605153 0
M  V30 3324 H 304.972 4.05091 0.256105 0
M  V30 3325 H 305.738 4.31559 -2.21318 0
M  V30 3326 H 301.617 4.50003 -1.00092 0
M  V30 3327 H 305.161 5.48582 -4.30934 0
M  V30 3328 H 301.058 5.66831 -3.08825 0
M  V30 3329 H 301.826 6.4818 -4.99805 0
M  V30 3330 N 304.489 0.459591 1.5075 0
M  V30 3331 C 305.419 -0.330644 2.31147 0
M  V30 3332 C 306.4 -1.00087 1.37538 0
M  V30 3333 O 307.585 -1.00025 1.66459 0
M  V30 3334 C 304.715 -1.41958 3.16962 0
M  V30 3335 C 303.669 -0.871608 4.19031 0
M  V30 3336 C 302.995 -2.05797 4.9351 0
M  V30 3337 C 304.295 0.109251 5.22186 0
M  V30 3338 H 305.989 0.340336 2.97459 0
M  V30 3339 H 303.535 0.165119 1.4305 0
M  V30 3340 H 305.488 -1.9798 3.71997 0
M  V30 3341 H 304.212 -2.11917 2.48513 0
M  V30 3342 H 302.871 -0.333442 3.6508 0
M  V30 3343 H 302.519 -2.74427 4.21544 0
M  V30 3344 H 302.219 -1.6976 5.62544 0
M  V30 3345 H 303.743 -2.62331 5.51375 0
M  V30 3346 H 305.157 -0.361405 5.7216 0
M  V30 3347 H 303.554 0.383316 5.98875 0
M  V30 3348 H 304.624 1.03887 4.73641 0
M  V30 3349 N 305.967 -1.56429 0.191757 0
M  V30 3350 C 307.378 -1.83912 -0.321428 0
M  V30 3351 C 307.729 -1.11231 -1.61623 0
M  V30 3352 O 306.854 -0.37202 -2.13178 0
M  V30 3353 C 307.449 -3.33624 -0.589961 0
M  V30 3354 C 306.008 -3.6153 -1.04753 0
M  V30 3355 C 305.155 -2.7714 -0.0943327 0
M  V30 3356 H 308.106 -1.53161 0.415612 0
M  V30 3357 H 308.127 -3.52213 -1.43966 0
M  V30 3358 H 307.639 -3.86495 0.352588 0
M  V30 3359 H 305.74 -3.14089 -2.00447 0
M  V30 3360 H 305.853 -4.69737 -0.942549 0
M  V30 3361 H 304.217 -2.47638 -0.595589 0
M  V30 3362 H 305 -3.32799 0.842601 0
M  V30 3363 N 307.445 0.0818655 -1.57387 0
M  V30 3364 C 308.692 0.782914 -1.86753 0
M  V30 3365 C 309.02 1.78082 -0.782118 0
M  V30 3366 O 308.275 1.94426 0.22295 0
M  V30 3367 C 308.574 1.53513 -3.22752 0
M  V30 3368 C 308.24 0.678134 -4.45771 0
M  V30 3369 C 306.902 0.441929 -4.79166 0
M  V30 3370 C 309.254 0.0832243 -5.21134 0
M  V30 3371 C 306.582 -0.398833 -5.85343 0
M  V30 3372 C 308.934 -0.744935 -6.28199 0
M  V30 3373 C 307.598 -0.991107 -6.60101 0
M  V30 3374 H 306.868 0.286489 -0.683378 0
M  V30 3375 H 309.515 0.0439808 -1.91449 0
M  V30 3376 H 307.82 2.34599 -3.138 0
M  V30 3377 H 309.517 2.08218 -3.42705 0
M  V30 3378 H 306.107 0.872357 -4.19628 0
M  V30 3379 H 310.291 0.252847 -4.95655 0
M  V30 3380 H 305.547 -0.598405 -6.08465 0
M  V30 3381 H 309.721 -1.21271 -6.8576 0
M  V30 3382 H 307.348 -1.64437 -7.42202 0
M  V30 3383 N 308.923 1.53595 0.353017 0
M  V30 3384 C 310.148 1.7462 1.11904 0
M  V30 3385 C 310.573 0.479721 1.8188 0
M  V30 3386 O 309.931 -0.567066 1.72204 0
M  V30 3387 C 309.979 2.92029 2.11545 0
M  V30 3388 O 309.083 2.61516 3.18878 0
M  V30 3389 H 308.424 0.579531 0.324099 0
M  V30 3390 H 310.954 2.00525 0.406301 0
M  V30 3391 H 310.964 3.18551 2.5493 0
M  V30 3392 H 309.639 3.83888 1.60008 0
M  V30 3393 H 308.216 2.45852 2.80377 0
M  V30 3394 N 310.401 -0.613514 1.45168 0
M  V30 3395 C 311.331 -1.7354 1.56225 0
M  V30 3396 C 312.312 -1.64981 0.41414 0
M  V30 3397 O 313.497 -1.83472 0.636526 0
M  V30 3398 C 310.627 -3.12128 1.52295 0
M  V30 3399 C 309.581 -3.35491 2.65762 0
M  V30 3400 C 308.907 -4.74291 2.46885 0
M  V30 3401 C 310.207 -3.26325 4.0781 0
M  V30 3402 H 311.901 -1.64543 2.50132 0
M  V30 3403 H 309.447 -0.790185 1.20383 0
M  V30 3404 H 311.4 -3.90404 1.58628 0
M  V30 3405 H 310.124 -3.2195 0.549139 0
M  V30 3406 H 308.783 -2.59603 2.58847 0
M  V30 3407 H 308.431 -4.80839 1.47657 0
M  V30 3408 H 308.131 -4.9088 3.22972 0
M  V30 3409 H 309.655 -5.54775 2.55063 0
M  V30 3410 H 311.069 -3.94483 4.16 0
M  V30 3411 H 309.466 -3.54445 4.8424 0
M  V30 3412 H 310.536 -2.23855 4.30136 0
M  V30 3413 N 311.879 -1.3236 -0.855495 0
M  V30 3414 C 313.29 -1.2056 -1.42556 0
M  V30 3415 C 313.641 0.182209 -1.95352 0
M  V30 3416 O 312.766 1.08088 -1.87472 0
M  V30 3417 C 313.361 -2.1826 -2.59129 0
M  V30 3418 C 311.92 -2.10351 -3.12137 0
M  V30 3419 C 311.067 -2.06674 -1.84882 0
M  V30 3420 H 314.018 -1.442 -0.662727 0
M  V30 3421 H 314.039 -1.78064 -3.36264 0
M  V30 3422 H 313.551 -3.19257 -2.20673 0
M  V30 3423 H 311.652 -1.12599 -3.55179 0
M  V30 3424 H 311.765 -3.00135 -3.73438 0
M  V30 3425 H 310.129 -1.51901 -2.04446 0
M  V30 3426 H 310.912 -3.09451 -1.48643 0
M  V30 3427 N 313.357 1.07166 -1.15556 0
M  V30 3428 C 314.307 2.12649 -0.82247 0
M  V30 3429 C 315.291 1.59725 0.194129 0
M  V30 3430 O 316.483 1.76999 -0.00540402 0
M  V30 3431 C 313.612 3.41847 -0.315572 0
M  V30 3432 C 312.698 4.0162 -1.36244 0
M  V30 3433 N 313.089 4.35625 -2.5703 0
M  V30 3434 C 311.387 4.29114 -1.21562 0
M  V30 3435 C 312.088 4.83017 -3.24144 0
M  V30 3436 N 311.064 4.81906 -2.51531 0
M  V30 3437 H 314.866 2.36776 -1.74111 0
M  V30 3438 H 312.38 1.24622 -1.0413 0
M  V30 3439 H 314.377 4.16859 -0.0585855 0
M  V30 3440 H 313.037 3.19163 0.597105 0
M  V30 3441 H 314.048 4.26253 -2.94158 0
M  V30 3442 H 310.725 4.15919 -0.362988 0
M  V30 3443 H 312.115 5.18605 -4.27198 0
M  V30 3444 N 314.835 0.952656 1.25548 0
M  V30 3445 C 316.251 0.656769 1.4546 0
M  V30 3446 C 316.451 -0.78633 1.85524 0
M  V30 3447 O 315.507 -1.56183 1.98402 0
M  V30 3448 C 316.82 1.62801 2.52817 0
M  V30 3449 C 318.368 1.63897 2.66659 0
M  V30 3450 C 318.843 2.5978 3.77198 0
M  V30 3451 N 320.334 2.58133 3.84606 0
M  V30 3452 C 321.069 3.29003 4.69621 0
M  V30 3453 N 320.565 4.09339 5.58939 0
M  V30 3454 N 322.358 3.179 4.63569 0
M  V30 3455 H 314.509 1.88526 0.978344 0
M  V30 3456 H 316.772 0.810815 0.491206 0
M  V30 3457 H 316.478 2.65869 2.30232 0
M  V30 3458 H 316.352 1.38898 3.50695 0
M  V30 3459 H 318.739 0.615481 2.8861 0
M  V30 3460 H 318.82 1.91858 1.69187 0
M  V30 3461 H 318.464 3.62254 3.55997 0
M  V30 3462 H 318.394 2.29105 4.7415 0
M  V30 3463 H 320.885 1.99809 3.20757 0
M  V30 3464 H 321.198 4.6034 6.20731 0
M  V30 3465 H 319.543 4.13438 5.58654 0
M  V30 3466 H 322.734 2.54612 3.92798 0
M  V30 3467 H 322.907 3.73398 5.29602 0
M  V30 3468 N 316.313 -1.40141 0.720998 0
M  V30 3469 C 317.729 -1.54632 0.395113 0
M  V30 3470 C 317.929 -1.69115 -1.09555 0
M  V30 3471 O 316.985 -1.68377 -1.88163 0
M  V30 3472 C 318.298 -2.77177 1.1659 0
M  V30 3473 C 319.846 -2.91 1.15274 0
M  V30 3474 C 320.321 -4.16465 1.90579 0
M  V30 3475 N 321.812 -4.23476 1.87675 0
M  V30 3476 C 322.547 -5.19475 2.42762 0
M  V30 3477 N 322.043 -6.21348 3.06428 0
M  V30 3478 N 323.836 -5.11592 2.32874 0
M  V30 3479 H 315.987 -1.28986 1.68749 0
M  V30 3480 H 318.25 -0.62412 0.713567 0
M  V30 3481 H 317.956 -2.72771 2.22011 0
M  V30 3482 H 317.83 -3.69442 0.76108 0
M  V30 3483 H 320.217 -2.94907 0.106702 0
M  V30 3484 H 320.298 -1.99838 1.59682 0
M  V30 3485 H 319.942 -4.1332 2.95176 0
M  V30 3486 H 319.872 -5.06646 1.43587 0
M  V30 3487 H 322.363 -3.50497 1.41281 0
M  V30 3488 H 322.676 -6.91034 3.45965 0
M  V30 3489 H 321.021 -6.21777 3.10514 0
M  V30 3490 H 324.212 -4.30936 1.82789 0
M  V30 3491 H 324.385 -5.86233 2.76106 0
M  V30 3492 N 317.792 -0.46758 -1.50504 0
M  V30 3493 C 319.203 -0.0116166 -1.86696 0
M  V30 3494 C 319.554 1.39202 -1.38265 0
M  V30 3495 O 318.679 2.0313 -0.746132 0
M  V30 3496 C 319.274 -0.0143044 -3.38797 0
M  V30 3497 C 317.833 0.386175 -3.74414 0
M  V30 3498 C 316.98 -0.401287 -2.74381 0
M  V30 3499 H 319.931 -0.682022 -1.43297 0
M  V30 3500 H 319.952 0.788641 -3.72237 0
M  V30 3501 H 319.464 -1.03602 -3.74016 0
M  V30 3502 H 317.565 1.41237 -3.44794 0
M  V30 3503 H 317.678 0.0899596 -4.79016 0
M  V30 3504 H 316.042 0.144536 -2.5429 0
M  V30 3505 H 316.825 -1.42244 -3.12444 0
M  V30 3506 N 319.27 1.56325 -0.20005 0
M  V30 3507 C 320.22 2.15939 0.731743 0
M  V30 3508 C 321.204 1.10154 1.17281 0
M  V30 3509 O 322.396 1.36203 1.13038 0
M  V30 3510 C 319.525 2.82614 1.94895 0
M  V30 3511 C 318.611 3.95596 1.52855 0
M  V30 3512 N 319.002 4.99118 0.819418 0
M  V30 3513 C 317.3 4.07288 1.81748 0
M  V30 3514 C 318.001 5.78513 0.608053 0
M  V30 3515 N 316.977 5.31117 1.15828 0
M  V30 3516 H 320.779 2.9334 0.181285 0
M  V30 3517 H 318.293 1.624 -0.000452172 0
M  V30 3518 H 320.29 3.23718 2.62702 0
M  V30 3519 H 318.95 2.06702 2.50408 0
M  V30 3520 H 319.961 5.15723 0.47436 0
M  V30 3521 H 316.638 3.42509 2.38734 0
M  V30 3522 H 318.028 6.71885 0.0451619 0
M  V30 3523 N 320.748 -0.0735177 1.57428 0
M  V30 3524 C 321.995 -0.772999 1.87166 0
M  V30 3525 C 322.323 -1.77665 0.791551 0
M  V30 3526 O 321.578 -1.94541 -0.212636 0
M  V30 3527 C 321.877 -1.51799 3.23561 0
M  V30 3528 C 321.543 -0.654484 4.46125 0
M  V30 3529 C 320.205 -0.416511 4.79394 0
M  V30 3530 C 322.557 -0.0555862 5.2117 0
M  V30 3531 C 319.885 0.429869 5.85123 0
M  V30 3532 C 322.237 0.778239 6.27795 0
M  V30 3533 C 320.901 1.0261 6.59566 0
M  V30 3534 H 320.171 -0.282861 0.684888 0
M  V30 3535 H 322.818 -0.0338272 1.9147 0
M  V30 3536 H 321.123 -2.32932 3.1504 0
M  V30 3537 H 322.82 -2.06397 3.43804 0
M  V30 3538 H 319.41 -0.850091 4.20085 0
M  V30 3539 H 323.594 -0.226558 4.95783 0
M  V30 3540 H 318.85 0.630665 6.08139 0
M  V30 3541 H 323.024 1.24906 6.85107 0
M  V30 3542 H 320.651 1.68371 7.4132 0
M  V30 3543 N 322.226 -1.5378 -0.344866 0
M  V30 3544 C 323.473 -1.70963 -1.08526 0
M  V30 3545 C 323.801 -0.472126 -1.88683 0
M  V30 3546 O 323.056 0.546116 -1.87926 0
M  V30 3547 C 323.355 -2.92407 -2.05506 0
M  V30 3548 C 323.021 -4.28066 -1.41671 0
M  V30 3549 C 321.683 -4.64951 -1.2399 0
M  V30 3550 C 324.035 -5.12344 -0.956726 0
M  V30 3551 C 321.363 -5.83733 -0.589277 0
M  V30 3552 C 323.715 -6.3179 -0.320015 0
M  V30 3553 C 322.379 -6.67372 -0.130881 0
M  V30 3554 H 321.649 -0.625598 -0.397124 0
M  V30 3555 H 324.296 -1.87995 -0.36469 0
M  V30 3556 H 322.601 -2.69973 -2.8394 0
M  V30 3557 H 324.298 -3.02895 -2.62784 0
M  V30 3558 H 320.888 -3.99034 -1.56429 0
M  V30 3559 H 325.072 -4.8438 -1.08118 0
M  V30 3560 H 320.328 -6.09877 -0.431344 0
M  V30 3561 H 324.502 -6.96386 0.0445072 0
M  V30 3562 H 322.129 -7.59273 0.375318 0
M  V30 3563 N 323.704 0.605807 -1.45491 0
M  V30 3564 C 324.951 1.36476 -1.49601 0
M  V30 3565 C 325.279 1.94007 -0.138452 0
M  V30 3566 O 324.534 1.75638 0.863114 0
M  V30 3567 C 324.833 2.53012 -2.52428 0
M  V30 3568 C 324.499 2.13617 -3.97087 0
M  V30 3569 C 323.161 2.02587 -4.36477 0
M  V30 3570 C 325.513 1.82899 -4.88055 0
M  V30 3571 C 322.841 1.59064 -5.64726 0
M  V30 3572 C 325.193 1.40861 -6.16718 0
M  V30 3573 C 323.857 1.28391 -6.55036 0
M  V30 3574 H 323.127 0.499402 -0.547429 0
M  V30 3575 H 325.774 0.684546 -1.78847 0
M  V30 3576 H 324.079 3.26379 -2.16758 0
M  V30 3577 H 325.776 3.1124 -2.52845 0
M  V30 3578 H 322.366 2.23129 -3.65939 0
M  V30 3579 H 326.55 1.90317 -4.58359 0
M  V30 3580 H 321.806 1.48034 -5.93208 0
M  V30 3581 H 325.98 1.16138 -6.86648 0
M  V30 3582 H 323.607 0.944403 -7.54311 0
M  V30 3583 N 325.182 1.32811 0.848464 0
M  V30 3584 C 326.593 1.21315 1.41914 0
M  V30 3585 C 326.944 -0.171847 1.95446 0
M  V30 3586 O 326.069 -1.07093 1.88043 0
M  V30 3587 C 326.664 2.19631 2.57968 0
M  V30 3588 C 325.223 2.12003 3.11017 0
M  V30 3589 C 324.37 2.07651 1.83783 0
M  V30 3590 H 327.321 1.44549 0.655071 0
M  V30 3591 H 327.342 1.79845 3.35315 0
M  V30 3592 H 326.854 3.20423 2.18976 0
M  V30 3593 H 324.955 1.14481 3.54577 0
M  V30 3594 H 325.068 3.02111 3.71841 0
M  V30 3595 H 323.432 1.52983 2.03638 0
M  V30 3596 H 324.215 3.10235 1.47 0
M  V30 3597 N 326.66 -1.06551 1.16123 0
M  V30 3598 C 327.607 -2.13961 0.865414 0
M  V30 3599 C 328.577 -1.65066 -0.185055 0
M  V30 3600 O 329.762 -1.90732 -0.05083 0
M  V30 3601 C 326.902 -3.43113 0.369776 0
M  V30 3602 C 326.015 -4.05756 1.48276 0
M  V30 3603 C 325.15 -5.22773 0.942414 0
M  V30 3604 C 324.189 -5.77395 2.03179 0
M  V30 3605 N 323.326 -6.85731 1.50721 0
M  V30 3606 H 328.166 -2.38605 1.78527 0
M  V30 3607 H 325.703 -1.17072 0.890646 0
M  V30 3608 H 327.661 -4.17151 0.0640643 0
M  V30 3609 H 326.291 -3.18695 -0.513143 0
M  V30 3610 H 325.343 -3.29292 1.9045 0
M  V30 3611 H 326.655 -4.42351 2.30493 0
M  V30 3612 H 325.809 -6.03827 0.589729 0
M  V30 3613 H 324.548 -4.87618 0.0895191 0
M  V30 3614 H 323.553 -4.94981 2.3932 0
M  V30 3615 H 324.778 -6.14603 2.8886 0
M  V30 3616 H 322.724 -6.52499 0.676811 0
M  V30 3617 H 322.641 -7.21254 2.26557 0
M  V30 3618 H 323.909 -7.7047 1.18303 0
M  V30 3619 N 328.138 -0.959301 -1.25041 0
M  V30 3620 C 329.363 -0.633507 -1.97488 0
M  V30 3621 C 329.788 0.788555 -1.70773 0
M  V30 3622 O 329.146 1.53394 -0.966431 0
M  V30 3623 C 329.194 -0.904057 -3.49083 0
M  V30 3624 O 328.298 0.0147939 -4.12397 0
M  V30 3625 H 327.639 -0.240368 -0.618966 0
M  V30 3626 H 330.169 -1.28717 -1.59038 0
M  V30 3627 H 330.179 -0.832203 -3.99423 0
M  V30 3628 H 328.854 -1.94048 -3.67856 0
M  V30 3629 H 327.431 -0.109664 -3.72739 0
M  V30 3630 N 329.616 1.39756 -0.72842 0
M  V30 3631 C 331.032 1.5442 -0.403308 0
M  V30 3632 C 331.232 1.69694 1.08656 0
M  V30 3633 O 330.288 1.69373 1.87267 0
M  V30 3634 C 331.601 2.76555 -1.18058 0
M  V30 3635 C 333.149 2.90384 -1.16815 0
M  V30 3636 C 333.624 4.15449 -1.92785 0
M  V30 3637 N 335.115 4.22475 -1.89918 0
M  V30 3638 C 335.85 5.1818 -2.45514 0
M  V30 3639 N 335.346 6.19714 -3.09719 0
M  V30 3640 N 337.139 5.1035 -2.35584 0
M  V30 3641 H 329.29 1.28089 -1.69431 0
M  V30 3642 H 331.553 0.620327 -0.716867 0
M  V30 3643 H 331.259 2.7159 -2.23455 0
M  V30 3644 H 331.133 3.69033 -0.780662 0
M  V30 3645 H 333.52 2.94846 -0.12234 0
M  V30 3646 H 333.601 1.98988 -1.6074 0
M  V30 3647 H 333.245 4.11749 -2.97364 0
M  V30 3648 H 333.175 5.05877 -1.46272 0
M  V30 3649 H 335.666 3.49743 -1.43138 0
M  V30 3650 H 335.979 6.8919 -3.49625 0
M  V30 3651 H 334.324 6.20121 -3.13807 0
M  V30 3652 H 337.515 4.2996 -1.85072 0
M  V30 3653 H 337.688 5.84761 -2.79211 0
M  V30 3654 N 331.094 0.475555 1.50254 0
M  V30 3655 C 332.343 -0.0795996 2.01543 0
M  V30 3656 C 332.656 -1.4038 1.36209 0
M  V30 3657 O 333.862 -2.04415 1.7868 0
M  V30 3658 C 332.318 -0.192363 3.59386 0
M  V30 3659 C 331.926 1.12367 4.33679 0
M  V30 3660 C 333.67 -0.699238 4.18701 0
M  V30 3661 C 331.577 0.974453 5.83317 0
M  V30 3662 H 330.507 -0.0335228 0.753254 0
M  V30 3663 H 333.158 0.611128 1.73025 0
M  V30 3664 H 331.54 -0.946974 3.84511 0
M  V30 3665 H 332.714 1.88958 4.20276 0
M  V30 3666 H 331.029 1.562 3.85993 0
M  V30 3667 H 333.626 -0.827978 5.28251 0
M  V30 3668 H 333.969 -1.69171 3.80377 0
M  V30 3669 H 334.502 -0.00188807 3.978 0
M  V30 3670 H 331.241 1.94042 6.26121 0
M  V30 3671 H 330.761 0.248998 5.99283 0
M  V30 3672 H 332.44 0.642867 6.43798 0
M  V30 3673 N 332.573 -1.56217 0.208337 0
M  V30 3674 C 333.819 -1.98242 -0.427552 0
M  V30 3675 C 334.152 -1.09554 -1.60348 0
M  V30 3676 O 333.427 -0.15035 -1.93918 0
M  V30 3677 C 333.71 -3.4931 -0.874907 0
M  V30 3678 C 333.563 -4.48773 0.303751 0
M  V30 3679 C 334.882 -4.04424 -1.73577 0
M  V30 3680 H 332.001 -0.720744 -0.153936 0
M  V30 3681 H 334.643 -1.87586 0.30192 0
M  V30 3682 H 332.793 -3.58522 -1.49648 0
M  V30 3683 H 334.465 -4.51586 0.941682 0
M  V30 3684 H 332.708 -4.23194 0.953375 0
M  V30 3685 H 333.379 -5.51976 -0.0519883 0
M  V30 3686 H 335.855 -3.98075 -1.21143 0
M  V30 3687 H 334.731 -5.1047 -2.01771 0
M  V30 3688 H 334.992 -3.50494 -2.69456 0
M  V30 3689 N 334.051 0.0651679 -1.57465 0
M  V30 3690 C 335.467 0.420105 -1.53972 0
M  V30 3691 C 335.667 1.78782 -0.929474 0
M  V30 3692 O 334.723 2.46771 -0.534839 0
M  V30 3693 C 336.036 0.355084 -2.98596 0
M  V30 3694 C 337.584 0.434792 -3.09965 0
M  V30 3695 C 338.059 0.399609 -4.56253 0
M  V30 3696 N 339.55 0.459488 -4.60915 0
M  V30 3697 C 340.285 0.454584 -5.71595 0
M  V30 3698 N 339.781 0.404102 -6.9162 0
M  V30 3699 N 341.574 0.501635 -5.59857 0
M  V30 3700 H 333.725 -0.830328 -1.95498 0
M  V30 3701 H 335.988 -0.312244 -0.895102 0
M  V30 3702 H 335.694 -0.583357 -3.46828 0
M  V30 3703 H 335.568 1.16275 -3.58831 0
M  V30 3704 H 337.955 1.36366 -2.61703 0
M  V30 3705 H 338.036 -0.40157 -2.52628 0
M  V30 3706 H 337.68 -0.525436 -5.05175 0
M  V30 3707 H 337.61 1.25359 -5.11461 0
M  V30 3708 H 340.101 0.502482 -3.74544 0
M  V30 3709 H 340.414 0.404468 -7.71741 0
M  V30 3710 H 338.759 0.37069 -6.94011 0
M  V30 3711 H 341.95 0.538812 -4.64989 0
M  V30 3712 H 342.123 0.494345 -6.46112 0
M  V30 3713 N 335.529 1.53961 0.336706 0
M  V30 3714 C 336.754 1.75797 1.10046 0
M  V30 3715 C 337.179 0.498985 1.81361 0
M  V30 3716 O 336.537 -0.548769 1.72795 0
M  V30 3717 C 336.585 2.94257 2.08436 0
M  V30 3718 O 335.689 2.64883 3.16087 0
M  V30 3719 H 335.03 0.582936 0.317934 0
M  V30 3720 H 337.56 2.00945 0.38501 0
M  V30 3721 H 337.57 3.21237 2.51537 0
M  V30 3722 H 336.245 3.85564 1.55927 0
M  V30 3723 H 334.822 2.48812 2.77753 0
M  V30 3724 N 337.007 -0.598083 1.45811 0
M  V30 3725 C 337.937 -1.71873 1.58057 0
M  V30 3726 C 338.918 -1.64533 0.431615 0
M  V30 3727 O 340.103 -1.82787 0.65595 0
M  V30 3728 C 337.233 -3.10495 1.55597 0
M  V30 3729 C 336.187 -3.32654 2.69305 0
M  V30 3730 C 335.513 -4.71646 2.51902 0
M  V30 3731 C 336.813 -3.21981 4.11248 0
M  V30 3732 H 338.507 -1.61881 2.51863 0
M  V30 3733 H 336.053 -0.777372 1.21214 0
M  V30 3734 H 338.006 -3.88699 1.6276 0
M  V30 3735 H 336.73 -3.2135 0.583255 0
M  V30 3736 H 335.389 -2.56843 2.61586 0
M  V30 3737 H 335.037 -4.79246 1.52748 0
M  V30 3738 H 334.737 -4.87426 3.2816 0
M  V30 3739 H 336.261 -5.52038 2.60933 0
M  V30 3740 H 337.675 -3.90049 4.20161 0
M  V30 3741 H 336.072 -3.49289 4.87972 0
M  V30 3742 H 337.142 -2.1928 4.32486 0
M  V30 3743 N 338.485 -1.33259 -0.841409 0
M  V30 3744 C 339.418 -1.1764 -1.95541 0
M  V30 3745 C 340.396 -0.072501 -1.62438 0
M  V30 3746 O 341.58 -0.23427 -1.87039 0
M  V30 3747 C 338.707 -0.803794 -3.29024 0
M  V30 3748 C 337.753 -1.91482 -3.81099 0
M  V30 3749 S 338.586 -3.52538 -4.03085 0
M  V30 3750 C 339.742 -3.17279 -5.39523 0
M  V30 3751 H 339.975 -2.11941 -2.08491 0
M  V30 3752 H 337.508 -1.18072 -0.9949 0
M  V30 3753 H 339.466 -0.595592 -4.06156 0
M  V30 3754 H 338.127 0.120574 -3.13868 0
M  V30 3755 H 337.32 -1.60742 -4.7768 0
M  V30 3756 H 336.922 -2.07956 -3.10854 0
M  V30 3757 H 339.214 -2.67946 -6.22263 0
M  V30 3758 H 340.157 -4.1293 -5.75234 0
M  V30 3759 H 340.565 -2.53943 -5.04156 0
M  V30 3760 N 339.963 1.05934 -1.16686 0
M  V30 3761 C 341.374 1.60263 -0.957745 0
M  V30 3762 C 341.725 1.89789 0.49745 0
M  V30 3763 O 340.85 1.67401 1.37135 0
M  V30 3764 C 341.445 2.91172 -1.73218 0
M  V30 3765 C 340.004 3.42188 -1.56794 0
M  V30 3766 C 339.151 2.16028 -1.73859 0
M  V30 3767 H 342.102 0.888392 -1.31504 0
M  V30 3768 H 342.123 3.60744 -1.21014 0
M  V30 3769 H 341.635 2.6965 -2.79124 0
M  V30 3770 H 339.736 3.68762 -0.533437 0
M  V30 3771 H 339.849 4.17273 -2.35414 0
M  V30 3772 H 338.213 2.26426 -1.16633 0
M  V30 3773 H 338.996 1.96985 -2.81161 0
M  V30 3774 N 341.441 0.965919 1.2453 0
M  V30 3775 C 342.688 0.626831 1.92554 0
M  V30 3776 C 343.016 -0.837739 1.75534 0
M  V30 3777 O 342.271 -1.61793 1.10098 0
M  V30 3778 C 342.57 0.945428 3.44669 0
M  V30 3779 C 342.236 2.39785 3.81856 0
M  V30 3780 C 340.898 2.79483 3.91718 0
M  V30 3781 C 343.25 3.34055 4.00071 0
M  V30 3782 C 340.578 4.12496 4.1721 0
M  V30 3783 C 342.93 4.66694 4.27059 0
M  V30 3784 C 341.594 5.06172 4.3514 0
M  V30 3785 H 340.864 0.229374 0.704605 0
M  V30 3786 H 343.511 1.21707 1.4785 0
M  V30 3787 H 341.816 0.272926 3.90848 0
M  V30 3788 H 343.513 0.661484 3.95507 0
M  V30 3789 H 340.103 2.08003 3.74743 0
M  V30 3790 H 344.287 3.04571 3.91855 0
M  V30 3791 H 339.543 4.42709 4.21685 0
M  V30 3792 H 343.717 5.3971 4.40097 0
M  V30 3793 H 341.344 6.09262 4.54646 0
M  V30 3794 N 342.919 -1.39368 0.735821 0
M  V30 3795 C 344.144 -2.05319 0.293052 0
M  V30 3796 C 344.569 -1.55115 -1.064 0
M  V30 3797 O 343.927 -0.695261 -1.67439 0
M  V30 3798 C 343.975 -3.59305 0.305323 0
M  V30 3799 O 343.079 -4.06299 -0.706761 0
M  V30 3800 H 342.42 -0.650529 0.13307 0
M  V30 3801 H 344.95 -1.78386 1.00197 0
M  V30 3802 H 344.96 -4.07724 0.149997 0
M  V30 3803 H 343.635 -3.95207 1.29553 0
M  V30 3804 H 342.212 -3.69292 -0.517504 0
M  V30 3805 N 344.397 -0.483516 -1.5 0
M  V30 3806 C 345.808 -0.0314176 -1.86674 0
M  V30 3807 C 346.159 1.37728 -1.39733 0
M  V30 3808 O 345.284 2.02327 -0.767635 0
M  V30 3809 C 345.879 -0.0502376 -3.38763 0
M  V30 3810 C 344.438 0.346442 -3.74802 0
M  V30 3811 C 343.585 -0.430366 -2.7394 0
M  V30 3812 H 346.536 -0.697182 -1.42566 0
M  V30 3813 H 346.557 0.749116 -3.73053 0
M  V30 3814 H 346.069 -1.07563 -3.72897 0
M  V30 3815 H 344.17 1.37572 -3.46273 0
M  V30 3816 H 344.283 0.0391486 -4.79084 0
M  V30 3817 H 342.647 0.117557 -2.54429 0
M  V30 3818 H 343.43 -1.4555 -3.10918 0
M  V30 3819 N 345.875 1.56104 -0.216619 0
M  V30 3820 C 347.105 2.02269 0.420802 0
M  V30 3821 C 347.513 1.09575 1.5424 0
M  V30 3822 O 346.856 0.0967308 1.83445 0
M  V30 3823 C 346.918 3.44784 1.01806 0
M  V30 3824 C 346.582 4.56988 0.0325154 0
M  V30 3825 C 347.579 5.14225 -0.766055 0
M  V30 3826 C 345.264 5.02228 -0.0848092 0
M  V30 3827 C 347.258 6.15169 -1.6687 0
M  V30 3828 C 344.945 6.03011 -0.990994 0
M  V30 3829 C 345.943 6.59357 -1.78149 0
M  V30 3830 O 345.631 7.58179 -2.67245 0
M  V30 3831 H 345.363 0.667353 0.107776 0
M  V30 3832 H 347.917 2.02747 -0.329034 0
M  V30 3833 H 346.147 3.41359 1.81689 0
M  V30 3834 H 347.836 3.74626 1.56237 0
M  V30 3835 H 348.602 4.80126 -0.685836 0
M  V30 3836 H 344.481 4.58054 0.520349 0
M  V30 3837 H 348.025 6.59076 -2.28615 0
M  V30 3838 H 343.922 6.36532 -1.07225 0
M  V30 3839 H 344.69 7.75682 -2.61265 0
M  V30 3840 N 347.353 -0.0568162 1.57498 0
M  V30 3841 C 348.263 -1.08346 2.08083 0
M  V30 3842 C 349.279 -1.41439 1.01346 0
M  V30 3843 O 350.455 -1.51316 1.32912 0
M  V30 3844 C 347.52 -2.37352 2.52715 0
M  V30 3845 C 346.581 -2.11093 3.73816 0
M  V30 3846 C 345.814 -3.33949 4.1631 0
M  V30 3847 O 346.037 -4.43622 3.58547 0
M  V30 3848 O 344.971 -3.21279 5.08983 0
M  V30 3849 H 348.797 -0.683667 2.95905 0
M  V30 3850 H 346.382 -0.271965 1.46904 0
M  V30 3851 H 348.264 -3.13246 2.81877 0
M  V30 3852 H 346.939 -2.76681 1.68016 0
M  V30 3853 H 345.846 -1.32856 3.49714 0
M  V30 3854 H 347.179 -1.76637 4.59413 0
M  V30 3855 N 348.832 -1.54138 -0.328536 0
M  V30 3856 C 350.243 -1.63395 -0.903272 0
M  V30 3857 C 350.594 -0.524828 -1.8905 0
M  V30 3858 O 349.719 0.343068 -2.13663 0
M  V30 3859 C 350.314 -2.9618 -1.64507 0
M  V30 3860 C 348.873 -3.0765 -2.1686 0
M  V30 3861 C 348.02 -2.58933 -0.992416 0
M  V30 3862 H 350.971 -1.58344 -0.106253 0
M  V30 3863 H 350.992 -2.86061 -2.50897 0
M  V30 3864 H 350.504 -3.76884 -0.926302 0
M  V30 3865 H 348.605 -2.31611 -2.91868 0
M  V30 3866 H 348.718 -4.1337 -2.42202 0
M  V30 3867 H 347.082 -2.14706 -1.37016 0
M  V30 3868 H 347.865 -3.42089 -0.288041 0
M  V30 3869 N 350.31 0.590341 -1.46126 0
M  V30 3870 C 351.24 1.71032 -1.58966 0
M  V30 3871 C 352.221 1.64302 -0.440335 0
M  V30 3872 O 353.406 1.82436 -0.665634 0
M  V30 3873 C 350.536 3.09665 -1.57241 0
M  V30 3874 C 349.49 3.31221 -2.71066 0
M  V30 3875 C 348.816 4.70303 -2.54399 0
M  V30 3876 C 350.116 3.19796 -4.1295 0
M  V30 3877 H 351.81 1.60543 -2.52718 0
M  V30 3878 H 349.356 0.770933 -1.21625 0
M  V30 3879 H 351.309 3.87831 -1.64819 0
M  V30 3880 H 350.033 3.21036 -0.600289 0
M  V30 3881 H 348.692 2.55452 -2.62944 0
M  V30 3882 H 348.34 4.78429 -1.55288 0
M  V30 3883 H 348.04 4.85679 -3.30741 0
M  V30 3884 H 349.564 5.50647 -2.63857 0
M  V30 3885 H 350.978 3.87815 -4.22223 0
M  V30 3886 H 349.375 3.46696 -4.89818 0
M  V30 3887 H 350.445 2.16983 -4.33643 0
M  V30 3888 N 351.788 1.33704 0.83433 0
M  V30 3889 C 352.736 1.24323 1.96587 0
M  V30 3890 C 353.73 0.143659 1.6879 0
M  V30 3891 O 354.936 0.30791 1.77347 0
M  V30 3892 H 351.311 0.385925 0.645419 0
M  V30 3893 H 353.282 2.19978 2.01624 0
M  V30 3894 C 352.031 1.00394 3.32891 0
M  V30 3895 H 351.354 1.84231 3.54822 0
M  V30 3896 H 352.794 0.97862 4.12552 0
M  V30 3897 C 351.253 -0.293047 3.35623 0
M  V30 3898 O 351.783 -1.29823 3.80143 0
M  V30 3899 N 349.989 -0.322174 2.88809 0
M  V30 3900 H 349.536 0.496379 2.52772 0
M  V30 3901 H 349.494 -1.18977 2.91019 0
M  V30 3902 N 353.266 -1.05314 1.17247 0
M  V30 3903 C 354.513 -1.78293 0.960091 0
M  V30 3904 C 354.841 -1.87658 -0.51136 0
M  V30 3905 O 354.096 -1.3718 -1.39571 0
M  V30 3906 C 354.395 -3.2229 1.54479 0
M  V30 3907 C 354.061 -3.32987 3.04024 0
M  V30 3908 C 352.723 -3.35613 3.44844 0
M  V30 3909 C 355.075 -3.34102 4.00031 0
M  V30 3910 C 352.403 -3.36982 4.8027 0
M  V30 3911 C 354.755 -3.3701 5.35357 0
M  V30 3912 C 353.419 -3.37923 5.75642 0
M  V30 3913 H 352.689 -0.652422 0.351322 0
M  V30 3914 H 355.336 -1.23782 1.46117 0
M  V30 3915 H 353.641 -3.7972 0.965391 0
M  V30 3916 H 355.338 -3.77376 1.35603 0
M  V30 3917 H 351.928 -3.31655 2.71483 0
M  V30 3918 H 356.112 -3.31276 3.69554 0
M  V30 3919 H 351.368 -3.35999 5.10798 0
M  V30 3920 H 355.542 -3.36822 6.09528 0
M  V30 3921 H 353.169 -3.38738 6.80559 0
M  V30 3922 N 354.744 -0.972509 -1.24016 0
M  V30 3923 C 355.694 -0.477561 -2.22942 0
M  V30 3924 C 356.678 0.44308 -1.54679 0
M  V30 3925 O 357.87 0.273219 -1.74879 0
M  V30 3926 C 354.999 0.226348 -3.42553 0
M  V30 3927 C 354.085 -0.713403 -4.18057 0
M  V30 3928 N 354.476 -1.8527 -4.70647 0
M  V30 3929 C 352.774 -0.525145 -4.42898 0
M  V30 3930 C 353.475 -2.44089 -5.28011 0
M  V30 3931 N 352.451 -1.72556 -5.15486 0
M  V30 3932 H 356.253 -1.34678 -2.61226 0
M  V30 3933 H 353.767 -0.832196 -1.39457 0
M  V30 3934 H 355.764 0.598184 -4.12586 0
M  V30 3935 H 354.424 1.09195 -3.05788 0
M  V30 3936 H 355.435 -2.2341 -4.67235 0
M  V30 3937 H 352.112 0.296096 -4.16449 0
M  V30 3938 H 353.502 -3.40259 -5.79374 0
M  V30 3939 N 356.222 1.38976 -0.743202 0
M  V30 3940 C 357.185 2.28901 -0.117014 0
M  V30 3941 C 358.185 1.46698 0.658503 0
M  V30 3942 O 359.375 1.67274 0.486305 0
M  V30 3943 C 356.507 3.30309 0.84315 0
M  V30 3944 H 357.7 2.8578 -0.909373 0
M  V30 3945 H 355.253 1.47761 -0.509547 0
M  V30 3946 H 355.988 2.785 1.66157 0
M  V30 3947 H 355.773 3.91029 0.289594 0
M  V30 3948 H 357.263 3.97577 1.2776 0
M  V30 3949 N 357.7 0.491464 1.49741 0
M  V30 3950 C 358.633 -0.338464 2.25676 0
M  V30 3951 C 359.611 -0.978676 1.29849 0
M  V30 3952 O 360.795 -1.01064 1.59117 0
M  V30 3953 C 357.922 -1.47588 3.04853 0
M  V30 3954 C 356.968 -0.951 4.15762 0
M  V30 3955 S 357.801 0.150626 5.35288 0
M  V30 3956 C 358.957 -0.990178 6.18018 0
M  V30 3957 H 359.19 0.306068 2.9572 0
M  V30 3958 H 356.723 0.276622 1.51902 0
M  V30 3959 H 358.681 -2.12764 3.51058 0
M  V30 3960 H 357.342 -2.09199 2.34296 0
M  V30 3961 H 356.535 -1.80311 4.70642 0
M  V30 3962 H 356.137 -0.376607 3.72099 0
M  V30 3963 H 358.429 -1.89748 6.50386 0
M  V30 3964 H 359.372 -0.480205 7.0647 0
M  V30 3965 H 359.78 -1.25321 5.50413 0
M  V30 3966 N 359.178 -1.55987 0.224894 0
M  V30 3967 C 360.425 -1.9839 -0.4059 0
M  V30 3968 C 360.753 -1.11261 -1.59535 0
M  V30 3969 O 360.008 -0.158314 -1.95059 0
M  V30 3970 C 360.307 -3.46394 -0.880106 0
M  V30 3971 C 359.973 -4.5046 0.19918 0
M  V30 3972 C 358.635 -4.7864 0.495661 0
M  V30 3973 C 360.987 -5.12855 0.928939 0
M  V30 3974 C 358.315 -5.66497 1.52636 0
M  V30 3975 C 360.667 -6.01828 1.949 0
M  V30 3976 C 359.331 -6.28351 2.25236 0
M  V30 3977 H 358.601 -0.725961 -0.148529 0
M  V30 3978 H 361.248 -1.88668 0.328113 0
M  V30 3979 H 359.553 -3.53337 -1.69294 0
M  V30 3980 H 361.25 -3.76577 -1.37808 0
M  V30 3981 H 357.84 -4.28579 -0.0420526 0
M  V30 3982 H 362.024 -4.9115 0.713129 0
M  V30 3983 H 357.28 -5.8531 1.76698 0
M  V30 3984 H 361.454 -6.49225 2.51951 0
M  V30 3985 H 359.081 -6.96226 3.05244 0
M  V30 3986 N 360.656 0.0484629 -1.57525 0
M  V30 3987 C 361.588 1.08222 -2.02041 0
M  V30 3988 C 362.601 1.33621 -0.930012 0
M  V30 3989 O 363.79 1.3145 -1.20761 0
M  V30 3990 C 360.89 2.42818 -2.36416 0
M  V30 3991 C 360.063 2.37049 -3.67596 0
M  V30 3992 C 359.122 3.53937 -3.89378 0
M  V30 3993 O 358.148 3.34308 -4.60681 0
M  V30 3994 N 359.35 4.75126 -3.3352 0
M  V30 3995 H 362.115 0.702946 -2.9134 0
M  V30 3996 H 359.676 0.236745 -1.6016 0
M  V30 3997 H 361.668 3.197 -2.48141 0
M  V30 3998 H 360.238 2.72661 -1.52888 0
M  V30 3999 H 359.458 1.45395 -3.66407 0
M  V30 4000 H 360.746 2.30318 -4.53686 0
M  V30 4001 H 360.144 4.93976 -2.75688 0
M  V30 4002 H 358.701 5.49439 -3.50656 0
M  V30 4003 N 362.134 1.5431 0.320358 0
M  V30 4004 C 363.545 1.63872 0.894594 0
M  V30 4005 C 363.896 0.534847 1.88769 0
M  V30 4006 O 363.021 -0.331732 2.13842 0
M  V30 4007 C 363.616 2.97049 1.62934 0
M  V30 4008 C 362.175 3.08796 2.15226 0
M  V30 4009 C 361.322 2.59456 0.978671 0
M  V30 4010 H 364.273 1.58398 0.0978544 0
M  V30 4011 H 364.294 2.87388 2.49376 0
M  V30 4012 H 363.806 3.7737 0.906302 0
M  V30 4013 H 361.907 2.33156 2.90636 0
M  V30 4014 H 362.02 4.14649 2.40006 0
M  V30 4015 H 360.384 2.1543 1.35875 0
M  V30 4016 H 361.167 3.42237 0.269895 0
M  V30 4017 N 363.613 -0.582584 1.46437 0
M  V30 4018 C 364.86 -1.34079 1.51753 0
M  V30 4019 C 365.188 -1.93762 0.169299 0
M  V30 4020 O 364.443 -1.76989 -0.835062 0
M  V30 4021 C 364.742 -2.48964 2.56421 0
M  V30 4022 C 364.408 -2.07273 4.00436 0
M  V30 4023 C 363.07 -1.95618 4.39644 0
M  V30 4024 C 365.422 -1.75111 4.90903 0
M  V30 4025 C 362.75 -1.5006 5.67185 0
M  V30 4026 C 365.102 -1.31032 6.18881 0
M  V30 4027 C 363.766 -1.17954 6.56996 0
M  V30 4028 H 363.036 -0.49063 0.555304 0
M  V30 4029 H 365.683 -0.656007 1.79913 0
M  V30 4030 H 363.988 -3.22889 2.21923 0
M  V30 4031 H 365.685 -3.07178 2.57765 0
M  V30 4032 H 362.275 -2.17279 3.69443 0
M  V30 4033 H 366.459 -1.83001 4.61329 0
M  V30 4034 H 361.715 -1.38577 5.95488 0
M  V30 4035 H 365.889 -1.052 6.88408 0
M  V30 4036 H 363.516 -0.824279 7.55718 0
M  V30 4037 N 365.091 -1.34144 -0.827227 0
M  V30 4038 C 366.021 -1.28005 -1.95287 0
M  V30 4039 C 367.002 -0.158321 -1.69362 0
M  V30 4040 O 368.187 -0.349987 -1.9102 0
M  V30 4041 C 365.317 -1.03036 -3.31664 0
M  V30 4042 C 364.271 -2.11628 -3.72019 0
M  V30 4043 C 363.597 -1.71854 -5.0633 0
M  V30 4044 C 364.897 -3.53417 -3.8457 0
M  V30 4045 H 366.591 -2.22187 -2.00682 0
M  V30 4046 H 364.137 -1.0696 -0.964135 0
M  V30 4047 H 366.09 -0.973863 -4.09993 0
M  V30 4048 H 364.814 -0.0529391 -3.26557 0
M  V30 4049 H 363.473 -2.16339 -2.95961 0
M  V30 4050 H 363.121 -0.727841 -4.97706 0
M  V30 4051 H 362.821 -2.44531 -5.34302 0
M  V30 4052 H 364.345 -1.67692 -5.87122 0
M  V30 4053 H 365.759 -3.51142 -4.5318 0
M  V30 4054 H 364.156 -4.24679 -4.2399 0
M  V30 4055 H 365.226 -3.91072 -2.86689 0
M  V30 4056 N 366.569 1.04691 -1.17803 0
M  V30 4057 C 367.479 2.16057 -0.914151 0
M  V30 4058 C 368.495 1.73589 0.119503 0
M  V30 4059 O 369.671 2.01308 -0.0609468 0
M  V30 4060 C 366.736 3.4394 -0.436603 0
M  V30 4061 C 365.797 4.00825 -1.53746 0
M  V30 4062 C 365.03 5.22604 -1.0826 0
M  V30 4063 O 365.253 5.70367 0.0612244 0
M  V30 4064 O 364.187 5.7186 -1.87775 0
M  V30 4065 H 368.013 2.41169 -1.84584 0
M  V30 4066 H 365.598 1.1453 -0.959334 0
M  V30 4067 H 367.48 4.21024 -0.178057 0
M  V30 4068 H 366.155 3.20316 0.466869 0
M  V30 4069 H 365.062 3.25158 -1.84995 0
M  V30 4070 H 366.395 4.28778 -2.41683 0
M  V30 4071 N 368.047 0.979072 1.23499 0
M  V30 4072 C 368.98 0.463027 2.23453 0
M  V30 4073 C 369.958 -0.469128 1.55685 0
M  V30 4074 O 371.142 -0.397882 1.84253 0
M  V30 4075 C 368.269 -0.330308 3.37086 0
M  V30 4076 C 367.315 0.545795 4.22993 0
M  V30 4077 S 368.148 1.99285 4.97037 0
M  V30 4078 C 369.304 1.20862 6.1412 0
M  V30 4079 H 369.537 1.31005 2.6688 0
M  V30 4080 H 367.07 0.784965 1.32957 0
M  V30 4081 H 369.028 -0.782027 4.02982 0
M  V30 4082 H 367.689 -1.15244 2.92194 0
M  V30 4083 H 366.882 -0.0638928 5.03959 0
M  V30 4084 H 366.484 0.933705 3.62157 0
M  V30 4085 H 368.776 0.469284 6.75873 0
M  V30 4086 H 369.719 1.99307 6.79472 0
M  V30 4087 H 370.127 0.727992 5.59786 0
M  V30 4088 N 369.525 -1.3858 0.750561 0
M  V30 4089 C 370.774 -1.99424 0.302172 0
M  V30 4090 C 371.087 -1.60254 -1.12152 0
M  V30 4091 O 372.293 -2.14046 -1.67023 0
M  V30 4092 C 370.749 -3.56558 0.489307 0
M  V30 4093 C 370.357 -4.04682 1.92189 0
M  V30 4094 C 372.101 -4.24374 0.103478 0
M  V30 4095 C 370.008 -5.54446 2.05775 0
M  V30 4096 H 368.938 -0.746046 0.10923 0
M  V30 4097 H 371.589 -1.58383 0.92667 0
M  V30 4098 H 369.971 -3.95472 -0.204329 0
M  V30 4099 H 371.145 -3.77065 2.64875 0
M  V30 4100 H 369.46 -3.4958 2.26236 0
M  V30 4101 H 372.057 -5.34384 0.183787 0
M  V30 4102 H 372.4 -4.05468 -0.943481 0
M  V30 4103 H 372.933 -3.90688 0.748854 0
M  V30 4104 H 369.672 -5.78252 3.08714 0
M  V30 4105 H 369.192 -5.83816 1.37546 0
M  V30 4106 H 370.871 -6.20099 1.84626 0
M  V30 4107 N 371.003 -0.499398 -1.49478 0
M  V30 4108 C 371.953 0.299103 -2.2603 0
M  V30 4109 C 372.937 0.936934 -1.30807 0
M  V30 4110 O 374.129 0.844798 -1.55538 0
M  V30 4111 C 371.258 1.36391 -3.15044 0
M  V30 4112 C 370.344 0.732398 -4.17728 0
M  V30 4113 N 370.735 -0.164028 -5.05534 0
M  V30 4114 C 369.033 0.993162 -4.34801 0
M  V30 4115 C 369.734 -0.525345 -5.79323 0
M  V30 4116 N 368.71 0.106348 -5.43496 0
M  V30 4117 H 372.512 -0.391003 -2.91287 0
M  V30 4118 H 370.026 -0.31537 -1.59308 0
M  V30 4119 H 372.023 1.94939 -3.68516 0
M  V30 4120 H 370.683 2.05571 -2.51338 0
M  V30 4121 H 371.694 -0.534736 -5.15132 0
M  V30 4122 H 368.371 1.67783 -3.82302 0
M  V30 4123 H 369.761 -1.25862 -6.60006 0
M  V30 4124 N 372.481 1.55866 -0.233164 0
M  V30 4125 C 373.391 2.24431 0.683217 0
M  V30 4126 C 374.407 1.2558 1.2044 0
M  V30 4127 O 375.583 1.58422 1.24356 0
M  V30 4128 C 372.648 2.91979 1.86947 0
M  V30 4129 C 371.709 4.06204 1.38912 0
M  V30 4130 C 370.942 4.70522 2.51883 0
M  V30 4131 O 371.165 4.33865 3.70293 0
M  V30 4132 O 370.099 5.59296 2.22423 0
M  V30 4133 H 373.925 3.03426 0.129059 0
M  V30 4134 H 371.51 1.494 -0.0022283 0
M  V30 4135 H 373.392 3.34573 2.56201 0
M  V30 4136 H 372.067 2.15935 2.41151 0
M  V30 4137 H 370.974 3.68155 0.664259 0
M  V30 4138 H 372.307 4.84025 0.893328 0
M  V30 4139 N 373.959 -0.0401083 1.57549 0
M  V30 4140 C 374.922 -1.02871 2.04817 0
M  V30 4141 C 375.922 -1.29708 0.950388 0
M  V30 4142 O 377.112 -1.24897 1.21435 0
M  V30 4143 C 374.244 -2.36443 2.45576 0
M  V30 4144 H 375.437 -0.620631 2.93408 0
M  V30 4145 H 372.99 -0.286667 1.53649 0
M  V30 4146 H 373.725 -2.82021 1.60108 0
M  V30 4147 H 373.51 -2.18296 3.25713 0
M  V30 4148 H 375 -3.07441 2.82612 0
M  V30 4149 N 375.437 -1.54477 -0.31217 0
M  V30 4150 C 376.369 -1.81011 -1.40598 0
M  V30 4151 C 377.382 -0.692546 -1.47335 0
M  V30 4152 O 378.571 -0.969847 -1.49854 0
M  V30 4153 C 375.671 -1.92307 -2.79054 0
M  V30 4154 C 374.844 -3.22594 -2.95384 0
M  V30 4155 C 373.903 -3.24448 -4.1427 0
M  V30 4156 O 372.929 -3.98035 -4.06887 0
M  V30 4157 N 374.131 -2.49042 -5.24365 0
M  V30 4158 H 376.896 -2.75408 -1.18196 0
M  V30 4159 H 374.457 -1.53914 -0.502202 0
M  V30 4160 H 376.449 -1.90962 -3.56813 0
M  V30 4161 H 375.019 -1.04955 -2.94454 0
M  V30 4162 H 374.239 -3.36806 -2.04831 0
M  V30 4163 H 375.527 -4.08593 -3.03198 0
M  V30 4164 H 374.925 -1.88867 -5.33241 0
M  V30 4165 H 373.482 -2.53463 -6.005 0
M  V30 4166 N 376.915 0.57481 -1.46744 0
M  V30 4167 C 377.847 1.69804 -1.53946 0
M  V30 4168 C 378.86 1.57098 -0.427106 0
M  V30 4169 O 380.049 1.64378 -0.695863 0
M  V30 4170 C 377.149 3.08125 -1.4111 0
M  V30 4171 C 376.322 3.46757 -2.66605 0
M  V30 4172 C 375.381 4.6417 -2.47855 0
M  V30 4173 O 374.407 4.69634 -3.21609 0
M  V30 4174 N 375.609 5.59553 -1.54534 0
M  V30 4175 H 378.374 1.64077 -2.50796 0
M  V30 4176 H 375.935 0.761 -1.429 0
M  V30 4177 H 377.927 3.84478 -1.26328 0
M  V30 4178 H 376.497 3.08175 -0.524109 0
M  V30 4179 H 375.717 2.6003 -2.96274 0
M  V30 4180 H 377.005 3.69337 -3.49954 0
M  V30 4181 H 376.403 5.57881 -0.937304 0
M  V30 4182 H 374.96 6.35304 -1.45711 0
M  V30 4183 N 378.394 1.34581 0.820102 0
M  V30 4184 C 379.357 1.2628 1.91275 0
M  V30 4185 C 380.357 0.177344 1.59819 0
M  V30 4186 O 381.547 0.430156 1.68806 0
M  V30 4187 C 378.679 0.950327 3.27386 0
M  V30 4188 H 379.872 2.23421 2.00057 0
M  V30 4189 H 377.425 1.1891 1.0144 0
M  V30 4190 H 378.16 -0.0177938 3.24295 0
M  V30 4191 H 377.945 1.73549 3.51601 0
M  V30 4192 H 379.435 0.917492 4.07396 0
M  V30 4193 N 379.872 -1.04064 1.18357 0
M  V30 4194 C 380.805 -2.11618 0.854 0
M  V30 4195 C 381.783 -1.61555 -0.184043 0
M  V30 4196 O 382.967 -1.88395 -0.0630048 0
M  V30 4197 C 380.094 -3.37574 0.27597 0
M  V30 4198 C 379.14 -4.06485 1.2912 0
M  V30 4199 S 379.973 -4.53543 2.84709 0
M  V30 4200 C 381.129 -5.82732 2.28417 0
M  V30 4201 H 381.362 -2.39247 1.76488 0
M  V30 4202 H 378.895 -1.16832 1.00944 0
M  V30 4203 H 380.853 -4.10468 -0.051026 0
M  V30 4204 H 379.514 -3.0806 -0.613028 0
M  V30 4205 H 378.707 -4.97024 0.835633 0
M  V30 4206 H 378.309 -3.39708 1.56443 0
M  V30 4207 H 380.601 -6.56677 1.66677 0
M  V30 4208 H 381.544 -6.33052 3.17256 0
M  V30 4209 H 381.952 -5.37838 1.71436 0
M  V30 4210 N 381.35 -0.985608 -1.22978 0
M  V30 4211 C 382.627 -0.573599 -1.87001 0
M  V30 4212 C 383.007 0.949213 -1.88555 0
M  V30 4213 O 382.355 1.82811 -1.37086 0
M  V30 4214 C 382.565 -1.18564 -3.28243 0
M  V30 4215 C 383.913 -1.28163 -4.04796 0
M  V30 4216 O 384.937 -1.13949 -3.37482 0
M  V30 4217 O 383.796 -1.50832 -5.25273 0
M  V30 4218 H 380.89 -0.193868 -0.803955 0
M  V30 4219 H 383.436 -1.08102 -1.30813 0
M  V30 4220 H 382.208 -2.22758 -3.21706 0
M  V30 4221 H 381.831 -0.663363 -3.92027 0
M  V30 4222 N 382.828 1.3818 -0.7579 0
M  V30 4223 C 384.077 1.99261 -0.312744 0
M  V30 4224 C 384.39 1.60846 1.11301 0
M  V30 4225 O 385.596 2.14929 1.65885 0
M  V30 4226 C 384.052 3.56294 -0.50821 0
M  V30 4227 C 383.66 4.03657 -1.94333 0
M  V30 4228 C 385.404 4.24313 -0.125982 0
M  V30 4229 C 383.311 5.53347 -2.08712 0
M  V30 4230 H 382.241 0.745456 -0.113185 0
M  V30 4231 H 384.892 1.57889 -0.935056 0
M  V30 4232 H 383.274 3.95575 0.183353 0
M  V30 4233 H 384.448 3.75655 -2.66871 0
M  V30 4234 H 382.763 3.48376 -2.28086 0
M  V30 4235 H 385.36 5.34279 -0.212125 0
M  V30 4236 H 385.703 4.05962 0.921964 0
M  V30 4237 H 386.236 3.90285 -0.769563 0
M  V30 4238 H 382.975 5.76607 -3.11777 0
M  V30 4239 H 382.495 5.83078 -1.4064 0
M  V30 4240 H 384.174 6.19111 -1.87912 0
M  V30 4241 N 384.306 0.507319 1.49211 0
M  V30 4242 C 385.256 -0.287112 2.26185 0
M  V30 4243 C 386.24 -0.929983 1.31302 0
M  V30 4244 O 387.432 -0.836538 1.55984 0
M  V30 4245 C 384.561 -1.34718 3.15763 0
M  V30 4246 C 383.647 -0.710235 4.18111 0
M  V30 4247 N 384.038 0.190836 5.0544 0
M  V30 4248 C 382.336 -0.97009 4.35322 0
M  V30 4249 C 383.037 0.55606 5.79036 0
M  V30 4250 N 382.013 -0.0775232 5.43545 0
M  V30 4251 H 385.815 0.406445 2.91076 0
M  V30 4252 H 383.329 0.323814 1.59139 0
M  V30 4253 H 385.326 -1.92982 3.69545 0
M  V30 4254 H 383.986 -2.04235 2.52424 0
M  V30 4255 H 384.997 0.562047 5.14841 0
M  V30 4256 H 381.674 -1.65753 3.83187 0
M  V30 4257 H 383.064 1.2936 6.5933 0
M  V30 4258 N 385.784 -1.5574 0.241426 0
M  V30 4259 C 387.031 -1.9881 -0.384836 0
M  V30 4260 C 387.359 -1.12947 -1.58346 0
M  V30 4261 O 386.614 -0.178993 -1.9488 0
M  V30 4262 C 386.913 -3.47308 -0.843317 0
M  V30 4263 C 386.579 -4.50223 0.246946 0
M  V30 4264 C 385.241 -4.78088 0.546399 0
M  V30 4265 C 387.593 -5.11841 0.983282 0
M  V30 4266 C 384.921 -5.64846 1.58636 0
M  V30 4267 C 387.273 -5.99727 2.01272 0
M  V30 4268 C 385.937 -6.25927 2.31888 0
M  V30 4269 H 385.207 -0.727496 -0.140821 0
M  V30 4270 H 387.854 -1.8831 0.348106 0
M  V30 4271 H 386.159 -3.55112 -1.65537 0
M  V30 4272 H 387.856 -3.78017 -1.33806 0
M  V30 4273 H 384.446 -4.286 0.00340639 0
M  V30 4274 H 388.63 -4.90366 0.765182 0
M  V30 4275 H 383.886 -5.83403 1.82896 0
M  V30 4276 H 388.06 -6.46517 2.58823 0
M  V30 4277 H 385.687 -6.92949 3.12611 0
M  V30 4278 N 387.262 0.0317525 -1.57568 0
M  V30 4279 C 388.212 1.04101 -2.02847 0
M  V30 4280 C 389.196 1.3219 -0.917317 0
M  V30 4281 O 390.388 1.31819 -1.18121 0
M  V30 4282 C 387.517 2.34295 -2.5092 0
M  V30 4283 C 386.603 2.09308 -3.68851 0
M  V30 4284 N 386.994 1.5437 -4.81667 0
M  V30 4285 C 385.292 2.39604 -3.76172 0
M  V30 4286 C 385.993 1.45126 -5.63306 0
M  V30 4287 N 384.969 1.92589 -5.08341 0
M  V30 4288 H 388.771 0.610217 -2.87495 0
M  V30 4289 H 386.285 0.238108 -1.60645 0
M  V30 4290 H 388.282 3.07404 -2.81617 0
M  V30 4291 H 386.942 2.78055 -1.67677 0
M  V30 4292 H 387.953 1.22678 -5.03161 0
M  V30 4293 H 384.63 2.86457 -3.03724 0
M  V30 4294 H 386.02 1.03163 -6.63933 0
M  V30 4295 N 388.74 1.54641 0.303973 0
M  V30 4296 C 389.965 1.78092 1.06292 0
M  V30 4297 C 390.39 0.537342 1.80262 0
M  V30 4298 O 389.748 -0.511993 1.7392 0
M  V30 4299 C 389.796 2.98612 2.02147 0
M  V30 4300 O 388.9 2.71528 3.10397 0
M  V30 4301 H 388.241 0.589548 0.305497 0
M  V30 4302 H 390.771 2.01716 0.3423 0
M  V30 4303 H 390.781 3.265 2.44667 0
M  V30 4304 H 389.456 3.88785 1.47714 0
M  V30 4305 H 388.033 2.54648 2.72413 0
M  V30 4306 N 390.218 -0.567019 1.47046 0
M  V30 4307 C 391.629 -1.14916 1.47143 0
M  V30 4308 C 391.98 -1.94954 0.220767 0
M  V30 4309 O 391.105 -2.05602 -0.67505 0
M  V30 4310 C 391.7 -2.09069 2.666 0
M  V30 4311 C 390.259 -2.62575 2.69687 0
M  V30 4312 C 389.406 -1.38755 2.40088 0
M  V30 4313 H 392.357 -0.354126 1.54699 0
M  V30 4314 H 392.378 -2.92789 2.43011 0
M  V30 4315 H 391.89 -1.50789 3.57609 0
M  V30 4316 H 389.991 -3.24681 1.82792 0
M  V30 4317 H 390.104 -3.04239 3.70102 0
M  V30 4318 H 388.468 -1.69098 1.90468 0
M  V30 4319 H 389.251 -0.822822 3.33293 0
M  V30 4320 N 391.696 -1.35014 -0.812953 0
M  V30 4321 C 392.659 -1.27292 -1.90602 0
M  V30 4322 C 393.659 -0.185817 -1.59723 0
M  V30 4323 O 394.849 -0.439102 -1.68575 0
M  V30 4324 C 391.981 -0.967676 -3.26877 0
M  V30 4325 H 393.174 -2.24479 -1.9887 0
M  V30 4326 H 390.727 -1.19446 -1.00808 0
M  V30 4327 H 391.462 0.0005954 -3.243 0
M  V30 4328 H 391.247 -1.75412 -3.50675 0
M  V30 4329 H 392.737 -0.939085 -4.06904 0
M  V30 4330 N 393.175 1.03435 -1.18907 0
M  V30 4331 C 394.422 1.76743 -0.988334 0
M  V30 4332 C 394.75 1.88447 0.481441 0
M  V30 4333 O 394.005 1.39383 1.37371 0
M  V30 4334 C 394.304 3.19792 -1.59586 0
M  V30 4335 C 393.97 3.28108 -3.09283 0
M  V30 4336 C 392.632 3.30084 -3.5014 0
M  V30 4337 C 394.984 3.27696 -4.05296 0
M  V30 4338 C 392.312 3.29299 -4.85571 0
M  V30 4339 C 394.664 3.28451 -5.4065 0
M  V30 4340 C 393.328 3.28723 -5.80946 0
M  V30 4341 H 392.598 0.64675 -0.361657 0
M  V30 4342 H 395.245 1.21442 -1.48068 0
M  V30 4343 H 393.55 3.78136 -1.02568 0
M  V30 4344 H 395.247 3.75171 -1.41589 0
M  V30 4345 H 391.837 3.27294 -2.76725 0
M  V30 4346 H 396.021 3.25354 -3.74778 0
M  V30 4347 H 391.277 3.2783 -5.16079 0
M  V30 4348 H 395.451 3.27082 -6.14809 0
M  V30 4349 H 393.078 3.27868 -6.85862 0
M  V30 4350 N 394.653 0.992116 1.22453 0
M  V30 4351 C 395.585 0.500024 2.23679 0
M  V30 4352 C 396.598 -0.404463 1.57696 0
M  V30 4353 O 397.787 -0.206722 1.77299 0
M  V30 4354 C 394.887 -0.294711 3.37616 0
M  V30 4355 C 394.06 0.605723 4.33186 0
M  V30 4356 C 393.119 -0.13717 5.26021 0
M  V30 4357 O 392.145 0.477164 5.67196 0
M  V30 4358 N 393.347 -1.4197 5.62872 0
M  V30 4359 H 396.112 1.37045 2.66531 0
M  V30 4360 H 393.673 0.866741 1.36745 0
M  V30 4361 H 395.665 -0.800329 3.96707 0
M  V30 4362 H 394.235 -1.06623 2.93854 0
M  V30 4363 H 393.455 1.29202 3.72425 0
M  V30 4364 H 394.743 1.21896 4.93983 0
M  V30 4365 H 394.141 -1.94015 5.31389 0
M  V30 4366 H 392.698 -1.87052 6.24383 0
M  V30 4367 N 396.131 -1.37776 0.765217 0
M  V30 4368 C 397.081 -2.2768 0.12075 0
M  V30 4369 C 398.065 -1.45778 -0.680988 0
M  V30 4370 O 399.257 -1.684 -0.545033 0
M  V30 4371 C 396.386 -3.34722 -0.762626 0
M  V30 4372 C 395.472 -4.24074 0.0465881 0
M  V30 4373 N 395.863 -4.93939 1.08892 0
M  V30 4374 C 394.161 -4.45643 -0.178418 0
M  V30 4375 C 394.862 -5.59845 1.57951 0
M  V30 4376 N 393.838 -5.36218 0.892797 0
M  V30 4377 H 397.64 -2.79166 0.918889 0
M  V30 4378 H 395.154 -1.50816 0.602353 0
M  V30 4379 H 397.151 -3.98031 -1.24005 0
M  V30 4380 H 395.811 -2.84793 -1.55959 0
M  V30 4381 H 396.822 -4.96572 1.47095 0
M  V30 4382 H 393.499 -4.06599 -0.9478 0
M  V30 4383 H 394.889 -6.25703 2.44838 0
M  V30 4384 N 397.609 -0.515225 -1.4894 0
M  V30 4385 C 399.02 -0.0710067 -1.86565 0
M  V30 4386 C 399.371 1.34733 -1.42623 0
M  V30 4387 O 398.496 2.00653 -0.810379 0
M  V30 4388 C 399.091 -0.122083 -3.3858 0
M  V30 4389 C 397.65 0.266863 -3.75453 0
M  V30 4390 C 396.797 -0.488376 -2.72966 0
M  V30 4391 H 399.748 -0.727266 -1.41055 0
M  V30 4392 H 399.769 0.669818 -3.74558 0
M  V30 4393 H 399.281 -1.15448 -3.70531 0
M  V30 4394 H 397.382 1.30196 -3.49113 0
M  V30 4395 H 397.495 -0.0624811 -4.79059 0
M  V30 4396 H 395.859 0.0635622 -2.54621 0
M  V30 4397 H 396.642 -1.52113 -3.07761 0
M  V30 4398 N 399.087 1.5561 -0.249682 0
M  V30 4399 C 400.498 1.84979 0.252949 0
M  V30 4400 C 400.849 1.17153 1.57384 0
M  V30 4401 O 399.974 0.450884 2.11651 0
M  V30 4402 C 400.569 3.35584 0.465732 0
M  V30 4403 C 399.128 3.65169 0.912624 0
M  V30 4404 C 398.275 2.77299 -0.00859085 0
M  V30 4405 H 401.226 1.51513 -0.47217 0
M  V30 4406 H 401.247 3.57313 1.30795 0
M  V30 4407 H 400.759 3.8492 -0.49579 0
M  V30 4408 H 398.86 3.21312 1.88652 0
M  V30 4409 H 398.973 4.72912 0.767559 0
M  V30 4410 H 397.337 2.49678 0.50327 0
M  V30 4411 H 398.12 3.29442 -0.965537 0
M  V30 4412 N 400.565 -0.0233959 1.57583 0
M  V30 4413 C 401.793 -0.724682 1.93794 0
M  V30 4414 C 402.208 -1.68588 0.849912 0
M  V30 4415 O 401.565 -1.81676 -0.173204 0
M  V30 4416 C 401.616 -1.47684 3.29957 0
M  V30 4417 O 401.337 -0.554222 4.3458 0
M  V30 4418 C 402.838 -2.27477 3.80485 0
M  V30 4419 H 400.058 -0.203317 0.639455 0
M  V30 4420 H 402.602 0.0207653 2.04489 0
M  V30 4421 H 400.757 -2.17412 3.20641 0
M  V30 4422 H 401.171 -1.08232 5.13212 0
M  V30 4423 H 402.645 -2.7564 4.78254 0
M  V30 4424 H 403.122 -3.09144 3.11972 0
M  V30 4425 H 403.728 -1.62813 3.92902 0
M  V30 4426 N 402.043 -1.548 -0.295768 0
M  V30 4427 C 402.953 -1.89177 -1.38742 0
M  V30 4428 C 403.969 -0.786481 -1.55211 0
M  V30 4429 O 405.145 -1.08344 -1.69775 0
M  V30 4430 C 402.21 -2.13663 -2.73036 0
M  V30 4431 C 401.271 -3.37349 -2.65508 0
M  V30 4432 C 400.504 -3.60658 -3.93398 0
M  V30 4433 O 400.727 -2.86882 -4.93006 0
M  V30 4434 O 399.661 -4.54179 -3.94975 0
M  V30 4435 H 403.487 -2.82059 -1.12589 0
M  V30 4436 H 401.072 -1.41056 -0.492295 0
M  V30 4437 H 402.954 -2.3094 -3.52484 0
M  V30 4438 H 401.629 -1.23967 -2.99022 0
M  V30 4439 H 400.536 -3.25431 -1.84514 0
M  V30 4440 H 401.869 -4.27192 -2.44474 0
M  V30 4441 N 403.521 0.559213 -1.47345 0
M  V30 4442 C 404.768 1.31648 -1.53867 0
M  V30 4443 C 405.096 1.93468 -0.200104 0
M  V30 4444 O 404.351 1.78295 0.806799 0
M  V30 4445 C 404.65 2.44853 -2.6035 0
M  V30 4446 C 404.316 2.00876 -4.03683 0
M  V30 4447 C 402.978 1.88599 -4.42701 0
M  V30 4448 C 405.33 1.67279 -4.93626 0
M  V30 4449 C 402.658 1.41017 -5.69501 0
M  V30 4450 C 405.01 1.21169 -6.20887 0
M  V30 4451 C 403.674 1.07487 -6.58789 0
M  V30 4452 H 402.944 0.481734 -0.56304 0
M  V30 4453 H 405.591 0.627301 -1.80934 0
M  V30 4454 H 403.896 3.19318 -2.27032 0
M  V30 4455 H 405.593 3.03039 -2.62619 0
M  V30 4456 H 402.183 2.11374 -3.72853 0
M  V30 4457 H 406.367 1.75638 -4.64182 0
M  V30 4458 H 401.623 1.29086 -5.97618 0
M  V30 4459 H 405.797 0.942345 -6.89995 0
M  V30 4460 H 403.424 0.703946 -7.56934 0
M  V30 4461 N 404.999 1.35443 0.805782 0
M  V30 4462 C 406.248 1.28097 1.55801 0
M  V30 4463 C 406.561 -0.142428 1.95081 0
M  V30 4464 O 407.767 -0.33817 2.69386 0
M  V30 4465 C 406.223 2.24653 2.81174 0
M  V30 4466 C 405.831 3.72342 2.49129 0
M  V30 4467 C 407.575 2.2625 3.59181 0
M  V30 4468 C 405.482 4.60719 3.70799 0
M  V30 4469 H 404.412 0.475937 0.584808 0
M  V30 4470 H 407.063 1.60712 0.885661 0
M  V30 4471 H 405.445 1.85011 3.50124 0
M  V30 4472 H 406.619 4.20624 1.88181 0
M  V30 4473 H 404.934 3.73361 1.84366 0
M  V30 4474 H 407.531 2.89495 4.49552 0
M  V30 4475 H 407.874 1.26647 3.96568 0
M  V30 4476 H 408.407 2.64426 2.97193 0
M  V30 4477 H 405.146 5.61324 3.3852 0
M  V30 4478 H 404.666 4.17163 4.3097 0
M  V30 4479 H 406.345 4.76182 4.38018 0
M  V30 4480 N 406.477 -1.02803 1.19454 0
M  V30 4481 C 407.893 -1.28473 0.946937 0
M  V30 4482 C 408.093 -1.97881 -0.380202 0
M  V30 4483 O 407.149 -2.26719 -1.11151 0
M  V30 4484 C 408.462 -2.13099 2.12154 0
M  V30 4485 C 410.01 -2.26404 2.16126 0
M  V30 4486 C 410.485 -3.14402 3.33039 0
M  V30 4487 N 411.976 -3.21991 3.32981 0
M  V30 4488 C 412.711 -3.90272 4.20089 0
M  V30 4489 N 412.207 -4.60777 5.17355 0
M  V30 4490 N 414 -3.8668 4.07964 0
M  V30 4491 H 406.151 -0.561665 2.04839 0
M  V30 4492 H 408.414 -0.310438 0.89573 0
M  V30 4493 H 408.12 -1.69422 3.08203 0
M  V30 4494 H 407.994 -3.13813 2.09287 0
M  V30 4495 H 410.381 -2.69311 1.20647 0
M  V30 4496 H 410.462 -1.25237 2.23045 0
M  V30 4497 H 410.106 -2.72204 4.28798 0
M  V30 4498 H 410.036 -4.1563 3.23356 0
M  V30 4499 H 412.527 -2.71778 2.62574 0
M  V30 4500 H 412.84 -5.10513 5.80169 0
M  V30 4501 H 411.185 -4.5964 5.21302 0
M  V30 4502 H 414.376 -3.30739 3.31254 0
M  V30 4503 H 414.549 -4.39621 4.76064 0
M  V30 4504 N 407.956 -0.998596 -1.21925 0
M  V30 4505 C 408.866 -0.562736 -2.27751 0
M  V30 4506 C 409.882 0.391203 -1.69545 0
M  V30 4507 O 411.058 0.256625 -1.99758 0
M  V30 4508 C 408.123 0.11012 -3.46525 0
M  V30 4509 C 407.184 -0.887495 -4.20026 0
M  V30 4510 C 406.417 -0.246654 -5.3313 0
M  V30 4511 O 406.64 0.958088 -5.62296 0
M  V30 4512 O 405.574 -0.954374 -5.94286 0
M  V30 4513 H 409.4 -1.44329 -2.67213 0
M  V30 4514 H 406.985 -0.767135 -1.28201 0
M  V30 4515 H 408.867 0.486756 -4.18579 0
M  V30 4516 H 407.542 0.965154 -3.08976 0
M  V30 4517 H 406.449 -1.31517 -3.5022 0
M  V30 4518 H 407.782 -1.71191 -4.6147 0
M  V30 4519 N 409.434 1.37368 -0.772513 0
M  V30 4520 C 410.682 1.99279 -0.336516 0
M  V30 4521 C 411.003 1.6163 1.09091 0
M  V30 4522 O 410.273 0.882109 1.74916 0
M  V30 4523 H 408.853 0.737063 -0.121435 0
M  V30 4524 H 411.515 1.67836 -0.990809 0
M  V30 4525 H 410.611 3.09332 -0.414763 0
M  V30 4526 N 410.912 0.523116 1.48665 0
M  V30 4527 C 412.189 -0.0775449 1.95446 0
M  V30 4528 C 412.569 -1.5197 1.4652 0
M  V30 4529 O 411.917 -2.17876 0.688657 0
M  V30 4530 C 412.127 0.0326135 3.48985 0
M  V30 4531 C 413.475 -0.130141 4.24401 0
M  V30 4532 O 414.499 -0.0415142 3.56176 0
M  V30 4533 O 413.358 -0.31491 5.45592 0
M  V30 4534 H 410.452 -0.0831012 0.822814 0
M  V30 4535 H 412.998 0.587227 1.59216 0
M  V30 4536 H 411.77 1.03748 3.77296 0
M  V30 4537 H 411.393 -0.671317 3.91892 0
M  V30 4538 N 412.39 -1.55475 0.257931 0
M  V30 4539 C 413.667 -1.91155 -0.414629 0
M  V30 4540 C 414.047 -1.18008 -1.75035 0
M  V30 4541 O 413.395 -0.301193 -2.26506 0
M  V30 4542 C 413.605 -3.44283 -0.571859 0
M  V30 4543 C 414.953 -4.15744 -0.862678 0
M  V30 4544 O 415.977 -3.50083 -0.657314 0
M  V30 4545 O 414.836 -5.31909 -1.2544 0
M  V30 4546 H 411.93 -0.796016 -0.22425 0
M  V30 4547 H 414.476 -1.66976 0.302814 0
M  V30 4548 H 413.248 -3.89558 0.368844 0
M  V30 4549 H 412.871 -3.7436 -1.33943 0
M  V30 4550 N 413.868 0.0150385 -1.57593 0
M  V30 4551 C 415.145 0.7392 -1.81094 0
M  V30 4552 C 415.525 1.92817 -0.859344 0
M  V30 4553 O 414.873 2.28301 0.095362 0
M  V30 4554 C 415.083 1.15907 -3.29191 0
M  V30 4555 C 416.431 1.56918 -3.9454 0
M  V30 4556 O 417.455 1.25328 -3.33424 0
M  V30 4557 O 416.314 2.15604 -5.02173 0
M  V30 4558 H 413.408 0.358631 -0.745193 0
M  V30 4559 H 415.954 -0.00926156 -1.69697 0
M  V30 4560 H 414.726 0.310921 -3.90063 0
M  V30 4561 H 414.349 1.96711 -3.45529 0
M  V30 4562 N 415.346 1.54954 0.287554 0
M  V30 4563 C 416.762 1.46469 0.633964 0
M  V30 4564 C 416.962 0.666865 1.90145 0
M  V30 4565 O 416.018 0.179906 2.51858 0
M  V30 4566 C 417.331 2.90556 0.774454 0
M  V30 4567 C 418.879 3.00681 0.869462 0
M  V30 4568 C 419.354 4.45993 1.04184 0
M  V30 4569 N 420.845 4.4976 1.10772 0
M  V30 4570 C 421.58 5.59393 1.25964 0
M  V30 4571 N 421.076 6.78923 1.37968 0
M  V30 4572 N 422.869 5.47107 1.28959 0
M  V30 4573 H 415.02 2.05288 -0.545041 0
M  V30 4574 H 417.283 0.930305 -0.182308 0
M  V30 4575 H 416.989 3.51594 -0.086207 0
M  V30 4576 H 416.863 3.38743 1.6593 0
M  V30 4577 H 419.25 2.39749 1.7206 0
M  V30 4578 H 419.331 2.55769 -0.0396831 0
M  V30 4579 H 418.975 5.07524 0.195422 0
M  V30 4580 H 418.905 4.88548 1.96542 0
M  V30 4581 H 421.396 3.63651 1.02794 0
M  V30 4582 H 421.709 7.58231 1.49353 0
M  V30 4583 H 420.054 6.81763 1.34999 0
M  V30 4584 H 423.245 4.52668 1.19202 0
M  V30 4585 H 423.418 6.32595 1.40455 0
M  V30 4586 N 416.824 -0.551391 1.4764 0
M  V30 4587 C 418.052 -1.33357 1.58189 0
M  V30 4588 C 418.467 -1.87342 0.234199 0
M  V30 4589 O 417.824 -1.65301 -0.77343 0
M  V30 4590 C 417.875 -2.49942 2.61173 0
M  V30 4591 O 417.596 -1.98187 3.90709 0
M  V30 4592 C 419.097 -3.42072 2.8196 0
M  V30 4593 H 416.317 -0.40631 0.533998 0
M  V30 4594 H 418.861 -0.667367 1.93304 0
M  V30 4595 H 417.016 -3.12489 2.28975 0
M  V30 4596 H 417.43 -2.74342 4.47031 0
M  V30 4597 H 418.904 -4.20278 3.57869 0
M  V30 4598 H 419.381 -3.95978 1.89995 0
M  V30 4599 H 419.987 -2.85336 3.15378 0
M  V30 4600 N 418.302 -1.35869 -0.798587 0
M  V30 4601 C 419.548 -1.2978 -1.55836 0
M  V30 4602 C 419.881 0.125322 -1.93795 0
M  V30 4603 O 419.156 1.07658 -1.61987 0
M  V30 4604 C 419.439 -2.21188 -2.84162 0
M  V30 4605 C 419.292 -3.72155 -2.52628 0
M  V30 4606 C 420.611 -2.11545 -3.85923 0
M  V30 4607 H 417.73 -0.472769 -0.565383 0
M  V30 4608 H 420.372 -1.66341 -0.918192 0
M  V30 4609 H 418.522 -1.90139 -3.38791 0
M  V30 4610 H 420.194 -4.13682 -2.04121 0
M  V30 4611 H 418.437 -3.92042 -1.85704 0
M  V30 4612 H 419.108 -4.31511 -3.44242 0
M  V30 4613 H 421.584 -2.38855 -3.40716 0
M  V30 4614 H 420.46 -2.77688 -4.73477 0
M  V30 4615 H 420.721 -1.09987 -4.282 0
M  V30 4616 N 419.78 1.02168 -1.19998 0
M  V30 4617 C 421.02 1.77232 -1.01825 0
M  V30 4618 C 421.384 1.86833 0.442428 0
M  V30 4619 O 422.585 2.58293 0.744189 0
M  V30 4620 C 420.856 3.15601 -1.67722 0
M  V30 4621 S 422.415 4.06765 -1.64584 0
M  V30 4622 H 419.233 0.610021 -0.365233 0
M  V30 4623 H 421.835 1.22368 -1.52467 0
M  V30 4624 H 420.539 3.06235 -2.73218 0
M  V30 4625 H 420.07 3.7554 -1.17189 0
M  V30 4626 H 422.085 4.91586 -0.67511 0
M  V30 4627 N 421.258 1.00505 1.21394 0
M  V30 4628 C 422.674 0.717873 1.42544 0
M  V30 4629 C 422.874 -0.706936 1.88692 0
M  V30 4630 O 421.93 -1.47627 2.04847 0
M  V30 4631 C 423.243 1.73377 2.45684 0
M  V30 4632 C 424.791 1.75059 2.59467 0
M  V30 4633 C 425.266 2.75545 3.6584 0
M  V30 4634 N 426.757 2.74213 3.73311 0
M  V30 4635 C 427.492 3.48626 4.55245 0
M  V30 4636 N 426.988 4.32678 5.41075 0
M  V30 4637 N 428.781 3.37276 4.49668 0
M  V30 4638 H 420.932 1.92506 0.897503 0
M  V30 4639 H 423.195 0.830919 0.456375 0
M  V30 4640 H 422.901 2.75395 2.18748 0
M  V30 4641 H 422.775 1.53647 3.44489 0
M  V30 4642 H 425.162 0.737337 2.8574 0
M  V30 4643 H 425.243 1.98861 1.60897 0
M  V30 4644 H 424.887 3.77028 3.40313 0
M  V30 4645 H 424.817 2.49009 4.64007 0
M  V30 4646 H 427.308 2.13234 3.11993 0
M  V30 4647 H 427.621 4.86253 6.00648 0
M  V30 4648 H 425.966 4.3676 5.40616 0
M  V30 4649 H 429.157 2.71043 3.81646 0
M  V30 4650 H 429.33 3.95524 5.13288 0
M  V30 4651 N 422.737 -1.36956 0.779787 0
M  V30 4652 C 423.647 -2.33965 0.172491 0
M  V30 4653 C 424.663 -1.60574 -0.670222 0
M  V30 4654 O 425.839 -1.92617 -0.588263 0
M  V30 4655 C 422.904 -3.39761 -0.690173 0
M  V30 4656 C 421.965 -4.28964 0.169924 0
M  V30 4657 C 421.198 -5.29707 -0.651662 0
M  V30 4658 O 421.421 -5.38238 -1.88827 0
M  V30 4659 O 420.355 -6.01873 -0.0566264 0
M  V30 4660 H 424.181 -2.87647 0.974321 0
M  V30 4661 H 421.766 -1.39258 0.541078 0
M  V30 4662 H 423.648 -4.04471 -1.1824 0
M  V30 4663 H 422.323 -2.88394 -1.47006 0
M  V30 4664 H 421.23 -3.67326 0.708696 0
M  V30 4665 H 422.563 -4.83656 0.913085 0
M  V30 4666 N 424.215 -0.530993 -1.48385 0
M  V30 4667 C 425.464 0.00474348 -2.01699 0
M  V30 4668 C 425.777 1.35227 -1.41325 0
M  V30 4669 O 426.983 1.97643 -1.86144 0
M  V30 4670 C 425.439 0.0588473 -3.59852 0
M  V30 4671 C 425.047 -1.28385 -4.2921 0
M  V30 4672 C 426.791 0.543358 -4.21008 0
M  V30 4673 C 424.698 -1.19028 -5.79298 0
M  V30 4674 H 423.628 0.00554317 -0.75398 0
M  V30 4675 H 426.279 -0.674924 -1.70637 0
M  V30 4676 H 424.661 0.803612 -3.8776 0
M  V30 4677 H 425.835 -2.04426 -4.12973 0
M  V30 4678 H 424.15 -1.70418 -3.7993 0
M  V30 4679 H 426.747 0.631351 -5.3096 0
M  V30 4680 H 427.09 1.54937 -3.86394 0
M  V30 4681 H 427.623 -0.145754 -3.97533 0
M  V30 4682 H 424.362 -2.17147 -6.18488 0
M  V30 4683 H 423.882 -0.471246 -5.97946 0
M  V30 4684 H 425.561 -0.881365 -6.40969 0
M  V30 4685 N 425.693 1.55336 -0.266172 0
M  V30 4686 C 427.109 1.59356 0.0882065 0
M  V30 4687 C 427.309 1.2834 1.55342 0
M  V30 4688 O 426.365 1.03996 2.30089 0
M  V30 4689 C 427.678 2.99409 -0.278364 0
M  V30 4690 C 429.226 3.12196 -0.224243 0
M  V30 4691 C 429.701 4.545 -0.565123 0
M  V30 4692 N 431.192 4.60313 -0.51634 0
M  V30 4693 C 431.927 5.68434 -0.753013 0
M  V30 4694 N 431.423 6.84738 -1.05383 0
M  V30 4695 N 433.216 5.57942 -0.682414 0
M  V30 4696 H 425.367 1.73764 -1.22147 0
M  V30 4697 H 427.63 0.809822 -0.492841 0
M  V30 4698 H 427.336 3.2691 -1.29703 0
M  V30 4699 H 427.21 3.75228 0.385186 0
M  V30 4700 H 429.597 2.84464 0.78512 0
M  V30 4701 H 429.678 2.38609 -0.921922 0
M  V30 4702 H 429.322 4.82956 -1.57213 0
M  V30 4703 H 429.252 5.26374 0.154248 0
M  V30 4704 H 431.743 3.7676 -0.29335 0
M  V30 4705 H 432.056 7.63088 -1.22133 0
M  V30 4706 H 430.401 6.86375 -1.09151 0
M  V30 4707 H 433.592 4.65958 -0.44731 0
M  V30 4708 H 433.765 6.4213 -0.870248 0
M  V30 4709 N 427.171 -0.0066808 1.57599 0
M  V30 4710 C 428.121 -1.0086 2.04478 0
M  V30 4711 C 429.105 -1.30714 0.938231 0
M  V30 4712 O 430.297 -1.29924 1.20203 0
M  V30 4713 C 427.426 -2.30273 2.54615 0
M  V30 4714 C 426.512 -2.03413 3.72134 0
M  V30 4715 N 426.903 -1.46688 4.84062 0
M  V30 4716 C 425.201 -2.33589 3.79937 0
M  V30 4717 C 425.902 -1.36146 5.65543 0
M  V30 4718 N 424.878 -1.84477 5.1134 0
M  V30 4719 H 428.68 -0.564402 2.8843 0
M  V30 4720 H 426.194 -0.212521 1.61003 0
M  V30 4721 H 428.191 -3.02885 2.86472 0
M  V30 4722 H 426.851 -2.75352 1.72079 0
M  V30 4723 H 427.862 -1.14658 5.05049 0
M  V30 4724 H 424.539 -2.81589 3.08243 0
M  V30 4725 H 425.929 -0.925873 6.6549 0
M  V30 4726 N 428.649 -1.55105 -0.279332 0
M  V30 4727 C 429.597 -1.88333 -1.36505 0
M  V30 4728 C 430.591 -0.759043 -1.51443 0
M  V30 4729 O 431.797 -0.943312 -1.53302 0
M  V30 4730 H 428.172 -0.59766 -0.456406 0
M  V30 4731 H 430.143 -2.79041 -1.05728 0
M  V30 4732 C 428.892 -2.16628 -2.7197 0
M  V30 4733 H 428.215 -3.02624 -2.61264 0
M  V30 4734 H 429.655 -2.43803 -3.46895 0
M  V30 4735 C 428.114 -0.971807 -3.22579 0
M  V30 4736 O 428.644 -0.203228 -4.01186 0
M  V30 4737 N 426.85 -0.771238 -2.80179 0
M  V30 4738 H 426.397 -1.39792 -2.1637 0
M  V30 4739 H 426.355 0.0263667 -3.14389 0
M  V30 4740 N 430.127 0.543554 -1.4793 0
M  V30 4741 C 431.352 1.32995 -1.59145 0
M  V30 4742 C 431.777 1.86472 -0.246956 0
M  V30 4743 O 431.135 1.63696 0.779324 0
M  V30 4744 C 431.183 2.46623 -2.63077 0
M  V30 4745 O 430.287 3.49261 -2.19295 0
M  V30 4746 H 429.628 0.394472 -0.534124 0
M  V30 4747 H 432.158 0.655489 -1.93816 0
M  V30 4748 H 432.168 2.93001 -2.83926 0
M  V30 4749 H 430.843 2.07059 -3.60693 0
M  V30 4750 H 429.42 3.09094 -2.08603 0
M  V30 4751 N 431.605 1.3629 0.791371 0
M  V30 4752 C 432.833 1.33562 1.58016 0
M  V30 4753 C 433.248 -0.0835616 1.88615 0
M  V30 4754 O 432.605 -1.0399 1.49974 0
M  V30 4755 C 432.656 2.15517 2.90232 0
M  V30 4756 O 432.377 3.51902 2.60953 0
M  V30 4757 C 433.878 2.20546 3.84544 0
M  V30 4758 H 431.098 0.458226 0.490173 0
M  V30 4759 H 433.642 1.79361 0.982345 0
M  V30 4760 H 431.797 1.73278 3.46487 0
M  V30 4761 H 432.211 3.94644 3.4548 0
M  V30 4762 H 433.685 2.82252 4.74382 0
M  V30 4763 H 434.162 1.20838 4.2225 0
M  V30 4764 H 434.768 2.63013 3.34222 0
M  V30 4765 N 433.083 -1.0153 1.20538 0
M  V30 4766 C 434.331 -1.74803 1.01432 0
M  V30 4767 C 434.652 -1.8963 -0.454456 0
M  V30 4768 O 433.922 -1.43975 -1.32846 0
M  V30 4769 H 432.502 -0.647598 0.372324 0
M  V30 4770 H 435.164 -1.22402 1.5167 0
M  V30 4771 H 434.26 -2.75114 1.47373 0
M  V30 4772 N 434.561 -1.01147 -1.20859 0
M  V30 4773 C 435.801 -0.706331 -1.91808 0
M  V30 4774 C 436.165 0.749736 -1.76757 0
M  V30 4775 O 437.366 1.16716 -2.42138 0
M  V30 4776 C 435.637 -1.12371 -3.39275 0
M  V30 4777 S 437.196 -0.939764 -4.28619 0
M  V30 4778 H 434.014 -0.257665 -0.662669 0
M  V30 4779 H 436.616 -1.29766 -1.46223 0
M  V30 4780 H 435.32 -2.17943 -3.47749 0
M  V30 4781 H 434.851 -0.524952 -3.89882 0
M  V30 4782 H 436.866 0.159556 -4.95943 0
M  V30 4783 N 436.039 1.36541 -0.78704 0
M  V30 4784 C 436.969 2.32659 -0.197992 0
M  V30 4785 C 437.95 1.56533 0.665697 0
M  V30 4786 O 439.135 1.84698 0.60001 0
M  V30 4787 C 436.265 3.40778 0.669901 0
M  V30 4788 C 435.219 4.27897 -0.0937039 0
M  V30 4789 C 434.545 5.27163 0.894629 0
M  V30 4790 C 435.845 5.06334 -1.28154 0
M  V30 4791 H 437.539 2.82171 -1.00099 0
M  V30 4792 H 435.085 1.35665 -0.482793 0
M  V30 4793 H 437.038 4.07008 1.09191 0
M  V30 4794 H 435.762 2.89827 1.50558 0
M  V30 4795 H 434.421 3.6322 -0.49666 0
M  V30 4796 H 434.069 4.72486 1.72527 0
M  V30 4797 H 433.769 5.86317 0.388149 0
M  V30 4798 H 435.293 5.96266 1.31525 0
M  V30 4799 H 436.707 5.65617 -0.93541 0
M  V30 4800 H 435.104 5.74888 -1.72115 0
M  V30 4801 H 436.174 4.38114 -2.07807 0
M  V30 4802 N 437.518 0.538854 1.48102 0
M  V30 4803 C 438.934 0.19732 1.58376 0
M  V30 4804 C 439.134 -1.29971 1.5398 0
M  V30 4805 O 438.19 -2.07861 1.43352 0
M  V30 4806 C 439.503 0.807716 2.89649 0
M  V30 4807 C 441.051 0.77726 3.03196 0
M  V30 4808 C 441.526 1.36639 4.37143 0
M  V30 4809 N 443.017 1.32875 4.43732 0
M  V30 4810 C 443.752 1.7544 5.45901 0
M  V30 4811 N 443.248 2.25776 6.54979 0
M  V30 4812 N 445.041 1.66623 5.36836 0
M  V30 4813 H 437.192 1.5117 1.49202 0
M  V30 4814 H 439.455 0.629327 0.708979 0
M  V30 4815 H 439.161 1.85909 2.98548 0
M  V30 4816 H 439.035 0.289975 3.76084 0
M  V30 4817 H 441.422 -0.265374 2.93904 0
M  V30 4818 H 441.503 1.33256 2.18349 0
M  V30 4819 H 441.147 2.408 4.47189 0
M  V30 4820 H 441.077 0.786689 5.20691 0
M  V30 4821 H 443.568 0.96037 3.65493 0
M  V30 4822 H 443.881 2.56226 7.29087 0
M  V30 4823 H 442.226 2.29775 6.55918 0
M  V30 4824 H 445.417 1.27089 4.50517 0
M  V30 4825 H 445.59 2.00115 6.16326 0
M  V30 4826 N 438.996 -1.55193 0.274407 0
M  V30 4827 C 439.929 -2.18606 -0.654712 0
M  V30 4828 C 440.907 -1.14677 -1.15273 0
M  V30 4829 O 442.091 -1.43198 -1.22583 0
M  V30 4830 C 439.218 -2.80875 -1.89281 0
M  V30 4831 C 438.264 -3.981 -1.53032 0
M  V30 4832 S 439.097 -5.32025 -0.609107 0
M  V30 4833 C 440.253 -5.97761 -1.85559 0
M  V30 4834 H 440.486 -2.97074 -0.115894 0
M  V30 4835 H 438.019 -1.54288 0.05867 0
M  V30 4836 H 439.977 -3.17381 -2.60345 0
M  V30 4837 H 438.638 -2.02302 -2.40277 0
M  V30 4838 H 437.831 -4.40356 -2.45158 0
M  V30 4839 H 437.433 -3.63013 -0.899874 0
M  V30 4840 H 439.725 -6.16951 -2.7996 0
M  V30 4841 H 440.668 -6.92545 -1.47605 0
M  V30 4842 H 441.076 -5.27113 -2.02021 0
M  V30 4843 N 440.474 -0.00167713 -1.576 0
M  V30 4844 C 441.421 0.989195 -2.08527 0
M  V30 4845 C 442.391 1.34031 -0.981065 0
M  V30 4846 O 443.576 1.43839 -1.2536 0
M  V30 4847 C 440.716 2.27537 -2.59463 0
M  V30 4848 C 439.829 1.98314 -3.83791 0
M  V30 4849 C 438.964 3.21025 -4.23222 0
M  V30 4850 C 438.003 2.87495 -5.40382 0
M  V30 4851 N 437.14 4.02749 -5.75098 0
M  V30 4852 H 441.98 0.547973 -2.92919 0
M  V30 4853 H 439.517 0.258917 -1.44803 0
M  V30 4854 H 441.475 3.02729 -2.87073 0
M  V30 4855 H 440.105 2.69325 -1.77943 0
M  V30 4856 H 439.157 1.13482 -3.63078 0
M  V30 4857 H 440.469 1.69601 -4.69081 0
M  V30 4858 H 439.623 4.04561 -4.52123 0
M  V30 4859 H 438.362 3.52877 -3.36644 0
M  V30 4860 H 437.367 2.02367 -5.11202 0
M  V30 4861 H 438.592 2.56889 -6.28637 0
M  V30 4862 H 436.538 4.34494 -4.91478 0
M  V30 4863 H 436.455 3.77566 -6.54966 0
M  V30 4864 H 437.723 4.87068 -6.08592 0
M  V30 4865 N 441.952 1.55251 0.271103 0
M  V30 4866 C 443.229 1.66664 1.02384 0
M  V30 4867 C 443.609 0.534363 2.04225 0
M  V30 4868 O 442.957 -0.465337 2.23712 0
M  V30 4869 C 443.167 3.05961 1.67895 0
M  V30 4870 C 444.515 3.63772 2.18986 0
M  V30 4871 O 445.539 3.08606 1.77878 0
M  V30 4872 O 444.398 4.60429 2.94393 0
M  V30 4873 H 441.492 0.676957 0.475035 0
M  V30 4874 H 444.038 1.67589 0.26681 0
M  V30 4875 H 442.81 3.79815 0.941071 0
M  V30 4876 H 442.433 3.08943 2.5028 0
M  V30 4877 N 443.43 -0.535701 1.48216 0
M  V30 4878 C 444.362 -1.65662 1.58394 0
M  V30 4879 C 445.375 -1.5591 0.468607 0
M  V30 4880 O 446.564 -1.62475 0.7392 0
M  V30 4881 C 443.664 -3.04276 1.4923 0
M  V30 4882 C 442.837 -3.39567 2.75705 0
M  V30 4883 C 441.896 -4.57436 2.60075 0
M  V30 4884 O 440.922 -4.60942 3.33948 0
M  V30 4885 N 442.124 -5.55259 1.69315 0
M  V30 4886 H 444.889 -1.5737 2.55058 0
M  V30 4887 H 442.45 -0.722845 1.44867 0
M  V30 4888 H 444.442 -3.80994 1.36477 0
M  V30 4889 H 443.012 -3.06677 0.605632 0
M  V30 4890 H 442.232 -2.52083 3.03064 0
M  V30 4891 H 443.52 -3.59929 3.59623 0
M  V30 4892 H 442.918 -5.552 1.08489 0
M  V30 4893 H 441.475 -6.31218 1.62504 0
M  V30 4894 N 444.908 -1.36708 -0.784132 0
M  V30 4895 C 446.148 -1.32618 -1.55537 0
M  V30 4896 C 446.512 0.0920681 -1.91779 0
M  V30 4897 O 447.713 0.257573 -2.67563 0
M  V30 4898 C 445.984 -2.22788 -2.79464 0
M  V30 4899 S 447.543 -2.36432 -3.69656 0
M  V30 4900 H 444.361 -0.470973 -0.53264 0
M  V30 4901 H 446.963 -1.72333 -0.92312 0
M  V30 4902 H 445.667 -3.24774 -2.50899 0
M  V30 4903 H 445.198 -1.84112 -3.47658 0
M  V30 4904 H 447.213 -1.56573 -4.7085 0
M  V30 4905 N 446.386 1.0089 -1.21074 0
M  V30 4906 C 447.663 1.71834 -0.934469 0
M  V30 4907 C 448.043 2.0368 0.554753 0
M  V30 4908 O 447.391 1.70742 1.51854 0
M  V30 4909 C 447.601 2.98061 -1.8155 0
M  V30 4910 C 448.949 3.7117 -2.06199 0
M  V30 4911 O 449.973 3.08034 -1.78867 0
M  V30 4912 O 448.832 4.84721 -2.52404 0
M  V30 4913 H 445.926 0.749253 -0.35007 0
M  V30 4914 H 448.472 1.06668 -1.31985 0
M  V30 4915 H 447.244 2.70908 -2.82355 0
M  V30 4916 H 446.867 3.70968 -1.43068 0
M  V30 4917 N 447.864 1.01787 1.20321 0
M  V30 4918 C 448.811 0.589197 2.23153 0
M  V30 4919 C 449.781 -0.391367 1.61423 0
M  V30 4920 O 450.966 -0.290518 1.88575 0
M  V30 4921 C 448.106 -0.0650747 3.45039 0
M  V30 4922 C 447.219 0.960207 4.21194 0
M  V30 4923 C 446.354 0.276854 5.30478 0
M  V30 4924 C 445.393 1.2888 5.98378 0
M  V30 4925 N 444.53 0.632031 6.99249 0
M  V30 4926 H 449.37 1.47071 2.59179 0
M  V30 4927 H 446.907 0.736192 1.27352 0
M  V30 4928 H 448.865 -0.461552 4.14639 0
M  V30 4929 H 447.495 -0.910233 3.09701 0
M  V30 4930 H 446.547 1.47484 3.50646 0
M  V30 4931 H 447.859 1.72977 4.67847 0
M  V30 4932 H 447.013 -0.175056 6.06447 0
M  V30 4933 H 445.752 -0.525004 4.84866 0
M  V30 4934 H 444.757 1.75109 5.21169 0
M  V30 4935 H 445.982 2.09196 6.46076 0
M  V30 4936 H 443.928 -0.149935 6.55829 0
M  V30 4937 H 443.845 1.33964 7.44036 0
M  V30 4938 H 445.113 0.203755 7.79234 0
M  V30 4939 N 449.342 -1.36122 0.79427 0
M  V30 4940 C 450.582 -2.00942 0.374376 0
M  V30 4941 C 450.946 -1.61666 -1.03577 0
M  V30 4942 O 452.147 -2.19113 -1.55701 0
M  V30 4943 C 450.418 -3.53323 0.538327 0
M  V30 4944 S 451.977 -4.38311 0.20703 0
M  V30 4945 H 448.795 -0.696515 0.142785 0
M  V30 4946 H 451.397 -1.65929 1.03382 0
M  V30 4947 H 450.101 -3.79395 1.56484 0
M  V30 4948 H 449.632 -3.93162 -0.136882 0
M  V30 4949 H 451.647 -4.8623 -0.989695 0
M  V30 4950 N 450.82 -0.546701 -1.47814 0
M  V30 4951 C 452.236 -0.205717 -1.58269 0
M  V30 4952 C 452.436 1.29153 -1.54667 0
M  V30 4953 O 451.492 2.07098 -1.44453 0
M  V30 4954 C 452.805 -0.823065 -2.89216 0
M  V30 4955 C 454.353 -0.793328 -3.02779 0
M  V30 4956 C 454.828 -1.38955 -4.36412 0
M  V30 4957 N 456.319 -1.35227 -4.43021 0
M  V30 4958 C 457.054 -1.78333 -5.44963 0
M  V30 4959 N 456.55 -2.29246 -6.53772 0
M  V30 4960 N 458.343 -1.69467 -5.35945 0
M  V30 4961 H 450.494 -1.5196 -1.48398 0
M  V30 4962 H 452.757 -0.633078 -0.705632 0
M  V30 4963 H 452.463 -1.8749 -2.97558 0
M  V30 4964 H 452.337 -0.309915 -3.75925 0
M  V30 4965 H 454.724 0.249784 -2.94041 0
M  V30 4966 H 454.805 -1.34412 -2.17639 0
M  V30 4967 H 454.449 -2.43168 -4.45906 0
M  V30 4968 H 454.379 -0.814291 -5.20266 0
M  V30 4969 H 456.87 -0.979739 -3.64979 0
M  V30 4970 H 457.183 -2.60089 -7.27718 0
M  V30 4971 H 455.528 -2.3325 -6.5469 0
M  V30 4972 H 458.719 -1.29477 -4.49837 0
M  V30 4973 H 458.892 -2.03381 -6.15256 0
M  V30 4974 N 452.299 1.55045 -0.282633 0
M  V30 4975 C 453.209 2.26491 0.61147 0
M  V30 4976 C 454.225 1.29348 1.16384 0
M  V30 4977 O 455.401 1.62298 1.19253 0
M  V30 4978 C 452.466 2.97779 1.77563 0
M  V30 4979 C 451.527 4.10418 1.25919 0
M  V30 4980 C 450.76 4.78297 2.36786 0
M  V30 4981 O 450.983 4.45426 3.56303 0
M  V30 4982 O 449.917 5.66089 2.04517 0
M  V30 4983 H 453.743 3.03683 0.0324615 0
M  V30 4984 H 451.328 1.49317 -0.0497576 0
M  V30 4985 H 453.21 3.42554 2.45427 0
M  V30 4986 H 451.885 2.23498 2.34159 0
M  V30 4987 H 450.792 3.70082 0.546797 0
M  V30 4988 H 452.125 4.86622 0.738887 0
M  V30 4989 N 453.777 0.010035 1.57597 0
M  V30 4990 C 455.026 -0.671945 1.90178 0
M  V30 4991 C 455.339 -1.74376 0.886131 0
M  V30 4992 O 456.545 -2.48107 1.10252 0
M  V30 4993 C 455.001 -1.24636 3.3763 0
M  V30 4994 C 454.609 -0.208838 4.47513 0
M  V30 4995 C 456.353 -1.90595 3.79307 0
M  V30 4996 C 454.26 -0.793814 5.86048 0
M  V30 4997 H 453.19 -0.25474 0.709665 0
M  V30 4998 H 455.841 0.0722206 1.83358 0
M  V30 4999 H 454.223 -2.04152 3.3932 0
M  V30 5000 H 455.397 0.562463 4.57354 0
M  V30 5001 H 453.712 0.350889 4.14919 0
M  V30 5002 H 456.309 -2.35284 4.80151 0
M  V30 5003 H 456.652 -2.74074 3.13352 0
M  V30 5004 H 457.185 -1.17798 3.79958 0
M  V30 5005 H 453.924 0.00240855 6.555 0
M  V30 5006 H 453.444 -1.53404 5.79851 0
M  V30 5007 H 455.123 -1.2894 6.34022 0
M  V30 5008 N 455.255 -1.55392 -0.262866 0
M  V30 5009 C 456.185 -1.91978 -1.32917 0
M  V30 5010 C 457.166 -0.7828 -1.51017 0
M  V30 5011 O 458.351 -1.04178 -1.63892 0
M  V30 5012 C 455.481 -2.20055 -2.68687 0
M  V30 5013 C 454.435 -3.35854 -2.65304 0
M  V30 5014 C 453.761 -3.49435 -4.04721 0
M  V30 5015 C 455.061 -4.71977 -2.23685 0
M  V30 5016 H 456.755 -2.81292 -1.02544 0
M  V30 5017 H 454.301 -1.3534 -0.491846 0
M  V30 5018 H 456.254 -2.44237 -3.43404 0
M  V30 5019 H 454.978 -1.27551 -3.00663 0
M  V30 5020 H 453.637 -3.11655 -1.93045 0
M  V30 5021 H 453.285 -2.54379 -4.33936 0
M  V30 5022 H 452.985 -4.27297 -4.0335 0
M  V30 5023 H 454.509 -3.7592 -4.81161 0
M  V30 5024 H 455.923 -4.95637 -2.88127 0
M  V30 5025 H 454.32 -5.52828 -2.33456 0
M  V30 5026 H 455.39 -4.70115 -1.18827 0
M  V30 5027 N 456.733 0.527833 -1.48498 0
M  V30 5028 C 457.958 1.313 -1.60546 0
M  V30 5029 C 458.383 1.86199 -0.26672 0
M  V30 5030 O 457.741 1.64513 0.761918 0
M  V30 5031 C 457.789 2.43818 -2.65678 0
M  V30 5032 O 456.893 3.46916 -2.22987 0
M  V30 5033 H 456.234 0.388784 -0.538277 0
M  V30 5034 H 458.764 0.634896 -1.945 0
M  V30 5035 H 458.774 2.89973 -2.87018 0
M  V30 5036 H 457.449 2.03222 -3.62869 0
M  V30 5037 H 456.026 3.06864 -2.11869 0
M  V30 5038 N 458.211 1.37122 0.776871 0
M  V30 5039 C 459.457 1.32243 1.53752 0
M  V30 5040 C 459.79 -0.0944745 1.9397 0
M  V30 5041 O 459.065 -1.05068 1.6368 0
M  V30 5042 C 459.348 2.25681 2.80607 0
M  V30 5043 C 459.201 3.76127 2.46676 0
M  V30 5044 C 460.52 2.17657 3.82509 0
M  V30 5045 H 457.639 0.481704 0.557791 0
M  V30 5046 H 460.281 1.6778 0.891612 0
M  V30 5047 H 458.431 1.95505 3.35723 0
M  V30 5048 H 460.103 4.16877 1.97513 0
M  V30 5049 H 458.346 3.94946 1.79443 0
M  V30 5050 H 459.017 4.36933 3.37333 0
M  V30 5051 H 461.493 2.44245 3.36873 0
M  V30 5052 H 460.369 2.85185 4.69 0
M  V30 5053 H 460.63 1.16785 4.26396 0
M  V30 5054 N 459.689 -1.00246 1.21608 0
M  V30 5055 C 460.966 -1.71336 0.943568 0
M  V30 5056 C 461.346 -2.03972 -0.543943 0
M  V30 5057 O 460.694 -1.71545 -1.50946 0
M  V30 5058 C 460.904 -2.97094 1.83128 0
M  V30 5059 C 462.252 -3.70071 2.08165 0
M  V30 5060 O 463.276 -3.07081 1.80498 0
M  V30 5061 O 462.135 -4.83376 2.54971 0
M  V30 5062 H 459.229 -0.747386 0.354039 0
M  V30 5063 H 461.775 -1.05967 1.32549 0
M  V30 5064 H 460.547 -2.69407 2.83788 0
M  V30 5065 H 460.17 -3.70204 1.45034 0
M  V30 5066 N 461.167 -1.02423 -1.1978 0
M  V30 5067 C 462.407 -0.726635 -1.91048 0
M  V30 5068 C 462.771 0.730947 -1.77542 0
M  V30 5069 O 463.972 1.14141 -2.43362 0
M  V30 5070 C 462.243 -1.15964 -3.38064 0
M  V30 5071 S 463.802 -0.985172 -4.27598 0
M  V30 5072 H 460.62 -0.264679 -0.659899 0
M  V30 5073 H 463.222 -1.31309 -1.44838 0
M  V30 5074 H 461.926 -2.21619 -3.45417 0
M  V30 5075 H 461.457 -0.566274 -3.89303 0
M  V30 5076 H 463.472 0.106946 -4.96085 0
M  V30 5077 N 462.645 1.35699 -0.801477 0
M  V30 5078 C 463.87 2.03687 -0.390678 0
M  V30 5079 C 464.295 1.60015 0.988778 0
M  V30 5080 O 463.653 0.774357 1.63931 0
M  V30 5081 C 463.701 3.57439 -0.476404 0
M  V30 5082 O 462.805 4.09208 0.512106 0
M  V30 5083 H 462.146 0.64344 -0.163956 0
M  V30 5084 H 464.676 1.73403 -1.08594 0
M  V30 5085 H 464.686 4.06544 -0.344357 0
M  V30 5086 H 463.361 3.88576 -1.48262 0
M  V30 5087 H 461.938 3.7134 0.340721 0
M  V30 5088 N 464.123 0.554532 1.47522 0
M  V30 5089 C 465.351 0.034257 2.06872 0
M  V30 5090 C 465.766 -1.25826 1.40759 0
M  V30 5091 O 465.123 -1.75425 0.503217 0
M  V30 5092 C 465.174 -0.167827 3.6111 0
M  V30 5093 O 464.895 1.07351 4.24744 0
M  V30 5094 C 466.396 -0.72569 4.3732 0
M  V30 5095 H 463.616 0.0446275 0.669514 0
M  V30 5096 H 466.16 0.767181 1.89564 0
M  V30 5097 H 464.315 -0.850872 3.7794 0
M  V30 5098 H 464.729 0.869563 5.17242 0
M  V30 5099 H 466.203 -0.816394 5.45929 0
M  V30 5100 H 466.68 -1.73635 4.0342 0
M  V30 5101 H 467.286 -0.0784292 4.25228 0
M  V30 5102 N 465.601 -1.54893 0.290851 0
M  V30 5103 C 466.549 -2.24579 -0.605576 0
M  V30 5104 C 467.543 -1.24824 -1.14522 0
M  V30 5105 O 468.749 -1.42706 -1.09704 0
M  V30 5106 H 465.124 -0.720946 -0.213872 0
M  V30 5107 H 467.095 -2.984 0.0048173 0
M  V30 5108 C 465.844 -2.99224 -1.77088 0
M  V30 5109 H 465.167 -3.75782 -1.36484 0
M  V30 5110 H 466.607 -3.51281 -2.3744 0
M  V30 5111 C 465.066 -2.05602 -2.66888 0
M  V30 5112 O 465.596 -1.61745 -3.67698 0
M  V30 5113 N 463.802 -1.71771 -2.34399 0
M  V30 5114 H 463.349 -2.07633 -1.52468 0
M  V30 5115 H 463.307 -1.09403 -2.94751 0
M  V30 5116 N 467.08 -0.0183926 -1.57589 0
M  V30 5117 C 468.028 0.985111 -2.10709 0
M  V30 5118 C 469.022 1.34397 -1.0312 0
M  V30 5119 O 470.228 1.32746 -1.21567 0
M  V30 5120 H 466.603 0.335418 -0.673052 0
M  V30 5121 H 468.574 0.511689 -2.9398 0
M  V30 5122 C 467.323 2.26202 -2.64061 0
M  V30 5123 H 466.646 1.9946 -3.4649 0
M  V30 5124 H 468.086 2.94652 -3.04887 0
M  V30 5125 C 466.545 2.98444 -1.5631 0
M  V30 5126 O 467.075 3.90142 -0.956674 0
M  V30 5127 N 465.281 2.6059 -1.28612 0
M  V30 5128 H 464.828 1.86101 -1.78112 0
M  V30 5129 H 464.786 3.09238 -0.567406 0
M  V30 5130 N 468.558 1.5553 0.254621 0
M  V30 5131 C 469.969 1.67518 0.824286 0
M  V30 5132 C 470.32 0.614429 1.86331 0
M  V30 5133 O 469.445 -0.240736 2.15057 0
M  V30 5134 C 470.04 3.03692 1.50189 0
M  V30 5135 C 468.599 3.17646 2.01935 0
M  V30 5136 C 467.746 2.63373 0.867746 0
M  V30 5137 H 470.697 1.58671 0.0305843 0
M  V30 5138 H 470.718 2.97706 2.36962 0
M  V30 5139 H 470.23 3.80874 0.745431 0
M  V30 5140 H 468.331 2.45273 2.80485 0
M  V30 5141 H 468.444 4.24455 2.22204 0
M  V30 5142 H 466.808 2.20999 1.26616 0
M  V30 5143 H 467.591 3.43074 0.124498 0
M  V30 5144 N 470.036 -0.519951 1.48776 0
M  V30 5145 C 471.261 -1.30447 1.6124 0
M  V30 5146 C 471.686 -1.86055 0.276591 0
M  V30 5147 O 471.044 -1.64915 -0.753183 0
M  V30 5148 C 471.092 -2.42406 2.66967 0
M  V30 5149 O 470.196 -3.45728 2.24824 0
M  V30 5150 H 469.537 -0.385924 0.540332 0
M  V30 5151 H 472.067 -0.624572 1.94834 0
M  V30 5152 H 472.077 -2.88447 2.88552 0
M  V30 5153 H 470.752 -2.01294 3.63941 0
M  V30 5154 H 469.329 -3.05737 2.13494 0
M  V30 5155 N 471.514 -1.37532 -0.769588 0
M  V30 5156 C 472.446 -1.29347 -1.89214 0
M  V30 5157 C 473.459 -0.208842 -1.61455 0
M  V30 5158 O 474.648 -0.465158 -1.72333 0
M  V30 5159 C 471.748 -0.977649 -3.24492 0
M  V30 5160 C 470.921 -2.16817 -3.7988 0
M  V30 5161 C 469.98 -1.82229 -4.93639 0
M  V30 5162 O 469.006 -2.54548 -5.09111 0
M  V30 5163 N 470.208 -0.767696 -5.75401 0
M  V30 5164 H 472.973 -2.26073 -1.96751 0
M  V30 5165 H 470.534 -1.31185 -0.948795 0
M  V30 5166 H 472.526 -0.727065 -3.98115 0
M  V30 5167 H 471.096 -0.0988777 -3.12444 0
M  V30 5168 H 470.316 -2.58038 -2.9801 0
M  V30 5169 H 471.604 -2.96308 -4.13617 0
M  V30 5170 H 471.002 -0.167626 -5.65452 0
M  V30 5171 H 469.559 -0.576973 -6.49241 0
M  V30 5172 N 472.992 0.995999 -1.22138 0
M  V30 5173 C 473.955 2.06711 -0.990109 0
M  V30 5174 C 474.955 1.60744 0.0422978 0
M  V30 5175 O 476.145 1.73095 -0.195895 0
M  V30 5176 C 473.277 3.37288 -0.49491 0
M  V30 5177 H 474.47 2.28661 -1.94047 0
M  V30 5178 H 472.023 1.16711 -1.03963 0
M  V30 5179 H 472.758 3.21022 0.459948 0
M  V30 5180 H 472.543 3.71986 -1.23971 0
M  V30 5181 H 474.033 4.16103 -0.353253 0
M  V30 5182 N 474.47 1.03057 1.19235 0
M  V30 5183 C 475.417 0.612832 2.22515 0
M  V30 5184 C 476.387 -0.374224 1.61829 0
M  V30 5185 O 477.572 -0.270501 1.88873 0
M  V30 5186 C 474.712 -0.028475 3.45088 0
M  V30 5187 C 473.825 1.00483 4.20151 0
M  V30 5188 C 472.96 0.333102 5.30155 0
M  V30 5189 C 471.999 1.3522 5.96977 0
M  V30 5190 N 471.136 0.70616 6.9854 0
M  V30 5191 H 475.976 1.49812 2.57605 0
M  V30 5192 H 473.513 0.749658 1.26564 0
M  V30 5193 H 475.471 -0.417548 4.15105 0
M  V30 5194 H 474.101 -0.877334 3.10649 0
M  V30 5195 H 473.153 1.51194 3.49062 0
M  V30 5196 H 474.465 1.77929 4.65986 0
M  V30 5197 H 473.619 -0.110725 6.06599 0
M  V30 5198 H 472.358 -0.473547 4.85396 0
M  V30 5199 H 471.363 1.80627 5.19282 0
M  V30 5200 H 472.588 2.16037 6.4382 0
M  V30 5201 H 470.534 -0.0803667 6.55951 0
M  V30 5202 H 470.451 1.41848 7.42573 0
M  V30 5203 H 471.719 0.286391 7.78974 0
M  V30 5204 N 475.948 -1.35272 0.808662 0
M  V30 5205 C 476.878 -2.32315 0.234981 0
M  V30 5206 C 477.859 -1.57572 -0.64071 0
M  V30 5207 O 479.044 -1.8563 -0.570551 0
M  V30 5208 C 476.174 -3.41801 -0.615601 0
M  V30 5209 C 475.128 -4.27694 0.161767 0
M  V30 5210 C 474.454 -5.28519 -0.810649 0
M  V30 5211 C 475.754 -5.04231 1.36193 0
M  V30 5212 H 477.448 -2.80543 1.04575 0
M  V30 5213 H 474.994 -1.3488 0.504315 0
M  V30 5214 H 476.947 -4.08693 -1.02702 0
M  V30 5215 H 475.671 -2.92186 -1.45928 0
M  V30 5216 H 474.33 -3.62384 0.554382 0
M  V30 5217 H 473.978 -4.75171 -1.64988 0
M  V30 5218 H 473.678 -5.8686 -0.294822 0
M  V30 5219 H 475.202 -5.98283 -1.22023 0
M  V30 5220 H 476.616 -5.64058 1.02528 0
M  V30 5221 H 475.013 -5.72077 1.81239 0
M  V30 5222 H 476.083 -4.34753 2.14751 0
M  V30 5223 N 477.426 -0.562348 -1.47226 0
M  V30 5224 C 478.842 -0.222492 -1.58042 0
M  V30 5225 C 479.042 1.27505 -1.56028 0
M  V30 5226 O 478.098 2.05555 -1.46641 0
M  V30 5227 C 479.411 -0.853694 -2.88327 0
M  V30 5228 C 480.959 -0.825397 -3.01921 0
M  V30 5229 C 481.434 -1.43576 -4.34914 0
M  V30 5230 N 482.925 -1.39918 -4.41562 0
M  V30 5231 C 483.66 -1.84103 -5.43041 0
M  V30 5232 N 483.156 -2.36167 -6.51304 0
M  V30 5233 N 484.949 -1.75142 -5.34118 0
M  V30 5234 H 477.1 -1.53525 -1.46778 0
M  V30 5235 H 479.363 -0.640527 -0.698877 0
M  V30 5236 H 479.069 -1.90635 -2.95552 0
M  V30 5237 H 478.943 -0.34977 -3.75575 0
M  V30 5238 H 481.33 0.218583 -2.94289 0
M  V30 5239 H 481.411 -1.36713 -2.16202 0
M  V30 5240 H 481.055 -2.47884 -4.43301 0
M  V30 5241 H 480.985 -0.869427 -5.19373 0
M  V30 5242 H 483.476 -1.0184 -3.63919 0
M  V30 5243 H 483.789 -2.67793 -7.24919 0
M  V30 5244 H 482.134 -2.40181 -6.52179 0
M  V30 5245 H 485.325 -1.34241 -4.48439 0
M  V30 5246 H 485.498 -2.09895 -6.13065 0
M  V30 5247 N 478.904 1.54736 -0.299062 0
M  V30 5248 C 480.32 1.59507 0.0543849 0
M  V30 5249 C 480.52 1.31606 1.52585 0
M  V30 5250 O 479.576 1.08853 2.27832 0
M  V30 5251 C 480.889 2.98751 -0.34181 0
M  V30 5252 C 482.437 3.1165 -0.290414 0
M  V30 5253 C 482.912 4.53199 -0.661402 0
M  V30 5254 N 484.403 4.59114 -0.613863 0
M  V30 5255 C 485.138 5.66709 -0.873417 0
M  V30 5256 N 484.634 6.82349 -1.19884 0
M  V30 5257 N 486.427 5.56369 -0.800608 0
M  V30 5258 H 478.578 1.71133 -1.25806 0
M  V30 5259 H 480.841 0.799186 -0.509908 0
M  V30 5260 H 480.547 3.24085 -1.36608 0
M  V30 5261 H 480.421 3.75961 0.305508 0
M  V30 5262 H 482.808 2.86066 0.724605 0
M  V30 5263 H 482.889 2.366 -0.972327 0
M  V30 5264 H 482.533 4.79513 -1.67422 0
M  V30 5265 H 482.463 5.26583 0.0425612 0
M  V30 5266 H 484.954 3.76053 -0.3732 0
M  V30 5267 H 485.267 7.60326 -1.38291 0
M  V30 5268 H 483.612 6.83906 -1.23685 0
M  V30 5269 H 486.803 4.64904 -0.546045 0
M  V30 5270 H 486.976 6.40139 -1.00626 0
M  V30 5271 N 480.382 0.0267497 1.57577 0
M  V30 5272 C 481.292 -0.971633 2.13533 0
M  V30 5273 C 482.308 -1.35868 1.08701 0
M  V30 5274 O 483.484 -1.44058 1.40746 0
M  V30 5275 C 480.549 -2.23622 2.64941 0
M  V30 5276 C 479.61 -1.90982 3.8448 0
M  V30 5277 C 478.843 -3.11411 4.33427 0
M  V30 5278 O 479.066 -4.23992 3.81558 0
M  V30 5279 O 478 -2.93848 5.25297 0
M  V30 5280 H 481.826 -0.525853 2.99113 0
M  V30 5281 H 479.411 -0.193712 1.48139 0
M  V30 5282 H 481.293 -2.97864 2.98086 0
M  V30 5283 H 479.968 -2.67386 1.82446 0
M  V30 5284 H 478.875 -1.14132 3.56265 0
M  V30 5285 H 480.208 -1.52036 4.6813 0
M  V30 5286 N 481.861 -1.55662 -0.24637 0
M  V30 5287 C 482.791 -1.93377 -1.30873 0
M  V30 5288 C 483.772 -0.798773 -1.50179 0
M  V30 5289 O 484.957 -1.0591 -1.62778 0
M  V30 5290 C 482.087 -2.22893 -2.66338 0
M  V30 5291 C 481.041 -3.38649 -2.61727 0
M  V30 5292 C 480.367 -3.53708 -4.00992 0
M  V30 5293 C 481.667 -4.74323 -2.18666 0
M  V30 5294 H 483.361 -2.82363 -0.995552 0
M  V30 5295 H 480.907 -1.35854 -0.477464 0
M  V30 5296 H 482.86 -2.47866 -3.40794 0
M  V30 5297 H 481.584 -1.30733 -2.99293 0
M  V30 5298 H 480.243 -3.13685 -1.89729 0
M  V30 5299 H 479.891 -2.58967 -4.31214 0
M  V30 5300 H 479.591 -4.31551 -3.98795 0
M  V30 5301 H 481.115 -3.81003 -4.77147 0
M  V30 5302 H 482.529 -4.98665 -2.82854 0
M  V30 5303 H 480.926 -5.55273 -2.27579 0
M  V30 5304 H 481.996 -4.71349 -1.13834 0
M  V30 5305 N 483.339 0.512053 -1.4905 0
M  V30 5306 C 484.616 1.27337 -1.48474 0
M  V30 5307 C 484.996 2.1009 -0.206301 0
M  V30 5308 O 484.344 2.136 0.811609 0
M  V30 5309 C 484.554 2.13954 -2.75726 0
M  V30 5310 C 485.902 2.73507 -3.24776 0
M  V30 5311 O 486.926 2.24229 -2.76767 0
M  V30 5312 O 485.785 3.63186 -4.08361 0
M  V30 5313 H 482.879 0.575652 -0.593762 0
M  V30 5314 H 485.425 0.527232 -1.61302 0
M  V30 5315 H 484.197 1.52709 -3.60272 0
M  V30 5316 H 483.82 2.95782 -2.65705 0
M  V30 5317 N 484.817 1.37938 0.762283 0
M  V30 5318 C 485.727 1.36681 1.90671 0
M  V30 5319 C 486.743 0.265078 1.71969 0
M  V30 5320 O 487.919 0.502055 1.95042 0
M  V30 5321 C 484.984 1.18211 3.25925 0
M  V30 5322 C 484.045 2.3811 3.57214 0
M  V30 5323 C 483.278 2.20512 4.86014 0
M  V30 5324 O 483.501 1.19429 5.57757 0
M  V30 5325 O 482.435 3.08911 5.16583 0
M  V30 5326 H 486.261 2.33091 1.94685 0
M  V30 5327 H 483.846 1.18767 0.906356 0
M  V30 5328 H 485.728 1.09937 4.06807 0
M  V30 5329 H 484.403 0.248807 3.22742 0
M  V30 5330 H 483.31 2.51958 2.76529 0
M  V30 5331 H 484.643 3.30041 3.65149 0
M  V30 5332 N 486.295 -0.989507 1.22664 0
M  V30 5333 C 487.52 -1.77031 1.08051 0
M  V30 5334 C 487.945 -1.84535 -0.364483 0
M  V30 5335 O 487.303 -1.3003 -1.2634 0
M  V30 5336 C 487.351 -3.18 1.70024 0
M  V30 5337 O 486.455 -4.01161 0.956216 0
M  V30 5338 H 485.796 -0.545008 0.379292 0
M  V30 5339 H 488.326 -1.24277 1.62531 0
M  V30 5340 H 488.336 -3.68616 1.74888 0
M  V30 5341 H 487.011 -3.11853 2.75174 0
M  V30 5342 H 485.588 -3.59687 0.98384 0
M  V30 5343 N 487.773 -1.03688 -1.18687 0
M  V30 5344 C 488.703 -0.645407 -2.24403 0
M  V30 5345 C 489.684 0.349511 -1.66471 0
M  V30 5346 O 490.869 0.230453 -1.92828 0
M  V30 5347 C 487.999 -0.00365337 -3.473 0
M  V30 5348 C 486.953 -0.921705 -4.17958 0
M  V30 5349 C 486.279 -0.144629 -5.34504 0
M  V30 5350 C 487.579 -2.23909 -4.71871 0
M  V30 5351 H 489.273 -1.52917 -2.57404 0
M  V30 5352 H 486.819 -0.736711 -1.23728 0
M  V30 5353 H 488.772 0.281908 -4.20456 0
M  V30 5354 H 487.496 0.914963 -3.13522 0
M  V30 5355 H 486.155 -1.19159 -3.46694 0
M  V30 5356 H 485.803 0.776274 -4.96974 0
M  V30 5357 H 485.503 -0.756206 -5.82714 0
M  V30 5358 H 487.027 0.134004 -6.10453 0
M  V30 5359 H 488.441 -2.0145 -5.36741 0
M  V30 5360 H 486.838 -2.8033 -5.30599 0
M  V30 5361 H 487.908 -2.88822 -3.895 0
M  V30 5362 N 489.251 1.34841 -0.815825 0
M  V30 5363 C 490.183 2.28409 -0.190265 0
M  V30 5364 C 491.196 1.50705 0.615771 0
M  V30 5365 O 492.385 1.72822 0.446616 0
M  V30 5366 C 489.485 3.30441 0.752446 0
M  V30 5367 C 488.658 4.37399 -0.00922152 0
M  V30 5368 C 487.717 5.19234 0.853351 0
M  V30 5369 O 486.743 5.68404 0.300919 0
M  V30 5370 N 487.945 5.38248 2.17416 0
M  V30 5371 H 490.71 2.82732 -0.994114 0
M  V30 5372 H 488.271 1.47289 -0.672129 0
M  V30 5373 H 490.263 3.82084 1.33394 0
M  V30 5374 H 488.833 2.76565 1.45707 0
M  V30 5375 H 488.053 3.86567 -0.771979 0
M  V30 5376 H 489.341 5.05992 -0.533807 0
M  V30 5377 H 488.739 4.99961 2.6468 0
M  V30 5378 H 487.296 5.93035 2.70467 0
M  V30 5379 N 490.729 0.570148 1.46925 0
M  V30 5380 C 491.975 0.0510284 2.02736 0
M  V30 5381 C 492.308 -1.3006 1.44215 0
M  V30 5382 O 491.583 -1.84932 0.602521 0
M  V30 5383 C 491.866 -0.028215 3.60089 0
M  V30 5384 C 491.719 1.35142 4.29018 0
M  V30 5385 C 493.038 -0.735181 4.33916 0
M  V30 5386 H 490.157 0.0200178 0.736728 0
M  V30 5387 H 492.799 0.73493 1.75211 0
M  V30 5388 H 490.949 -0.610648 3.83671 0
M  V30 5389 H 492.621 1.97806 4.16738 0
M  V30 5390 H 490.864 1.9226 3.88868 0
M  V30 5391 H 491.535 1.24857 5.37694 0
M  V30 5392 H 494.011 -0.240519 4.15404 0
M  V30 5393 H 492.887 -0.759622 5.43618 0
M  V30 5394 H 493.148 -1.79397 4.04066 0
M  V30 5395 N 492.207 -1.54576 0.307264 0
M  V30 5396 C 493.17 -2.22423 -0.553224 0
M  V30 5397 C 494.17 -1.21231 -1.05639 0
M  V30 5398 O 495.36 -1.45923 -0.951419 0
M  V30 5399 C 492.492 -2.91552 -1.76664 0
M  V30 5400 H 493.685 -2.99874 0.0396484 0
M  V30 5401 H 491.238 -1.56192 0.0581629 0
M  V30 5402 H 491.973 -2.18196 -2.39918 0
M  V30 5403 H 491.758 -3.65738 -1.41343 0
M  V30 5404 H 493.248 -3.43292 -2.37783 0
M  V30 5405 N 493.685 -0.035106 -1.57561 0
M  V30 5406 C 494.595 0.960295 -2.14046 0
M  V30 5407 C 495.611 1.3529 -1.0942 0
M  V30 5408 O 496.787 1.43309 -1.41508 0
M  V30 5409 C 493.852 2.22214 -2.66124 0
M  V30 5410 C 492.913 1.8894 -3.85487 0
M  V30 5411 C 492.146 3.09109 -4.35072 0
M  V30 5412 O 492.369 4.21963 -3.83802 0
M  V30 5413 O 491.303 2.91058 -5.26848 0
M  V30 5414 H 495.129 0.509983 -2.99387 0
M  V30 5415 H 492.714 0.185853 -1.48239 0
M  V30 5416 H 494.596 2.96279 -2.99661 0
M  V30 5417 H 493.271 2.66414 -1.83862 0
M  V30 5418 H 492.178 1.12241 -3.56865 0
M  V30 5419 H 493.511 1.49551 -4.6893 0
M  V30 5420 N 495.163 1.55791 0.238111 0
M  V30 5421 C 496.579 1.48411 0.587045 0
M  V30 5422 C 496.779 0.72702 1.87927 0
M  V30 5423 O 495.835 0.259942 2.51158 0
M  V30 5424 C 497.148 2.92873 0.681623 0
M  V30 5425 C 498.696 3.03295 0.773363 0
M  V30 5426 C 499.171 4.49082 0.899428 0
M  V30 5427 N 500.662 4.53056 0.964075 0
M  V30 5428 C 501.397 5.63117 1.08104 0
M  V30 5429 N 500.893 6.82969 1.16299 0
M  V30 5430 N 502.686 5.50933 1.11488 0
M  V30 5431 H 494.837 2.0345 -0.610076 0
M  V30 5432 H 497.1 0.924034 -0.211813 0
M  V30 5433 H 496.806 3.51142 -0.19802 0
M  V30 5434 H 496.68 3.43851 1.55069 0
M  V30 5435 H 499.067 2.45101 1.64346 0
M  V30 5436 H 499.148 2.55513 -0.121034 0
M  V30 5437 H 498.792 5.07889 0.0338586 0
M  V30 5438 H 498.722 4.94553 1.809 0
M  V30 5439 H 501.213 3.66737 0.91173 0
M  V30 5440 H 501.526 7.62598 1.25155 0
M  V30 5441 H 499.871 6.85712 1.13241 0
M  V30 5442 H 503.062 4.56231 1.0474 0
M  V30 5443 H 503.235 6.36743 1.20259 0
M  V30 5444 N 496.642 -0.504142 1.49319 0
M  V30 5445 C 497.572 -1.61473 1.68667 0
M  V30 5446 C 498.553 -1.61455 0.535378 0
M  V30 5447 O 499.738 -1.78245 0.770868 0
M  V30 5448 C 496.868 -2.99971 1.75028 0
M  V30 5449 C 495.822 -3.14854 2.89916 0
M  V30 5450 C 495.148 -4.54671 2.81387 0
M  V30 5451 C 496.448 -2.95176 4.30893 0
M  V30 5452 H 498.142 -1.45535 2.61648 0
M  V30 5453 H 495.688 -0.698711 1.25913 0
M  V30 5454 H 497.641 -3.77562 1.8715 0
M  V30 5455 H 496.365 -3.1699 0.786441 0
M  V30 5456 H 495.024 -2.39687 2.77391 0
M  V30 5457 H 494.672 -4.68562 1.82917 0
M  V30 5458 H 494.372 -4.6557 3.58494 0
M  V30 5459 H 495.896 -5.34327 2.95512 0
M  V30 5460 H 497.31 -3.62538 4.44116 0
M  V30 5461 H 495.707 -3.17549 5.09198 0
M  V30 5462 H 496.777 -1.91332 4.45556 0
M  V30 5463 N 498.12 -1.38341 -0.754957 0
M  V30 5464 C 499.348 -1.37704 -1.54419 0
M  V30 5465 C 499.763 0.0335243 -1.8877 0
M  V30 5466 O 499.12 0.999773 -1.52679 0
M  V30 5467 C 499.171 -2.23136 -2.84416 0
M  V30 5468 O 498.892 -3.58697 -2.51531 0
M  V30 5469 C 500.393 -2.30664 -3.78562 0
M  V30 5470 H 497.613 -0.471061 -0.477852 0
M  V30 5471 H 500.157 -1.81902 -0.934446 0
M  V30 5472 H 498.312 -1.82403 -3.41772 0
M  V30 5473 H 498.726 -4.03665 -3.34896 0
M  V30 5474 H 500.2 -2.9473 -4.66732 0
M  V30 5475 H 500.677 -1.3199 -4.18898 0
M  V30 5476 H 501.283 -2.71781 -3.27131 0
M  V30 5477 N 499.598 0.982988 -1.23187 0
M  V30 5478 C 501.014 1.2487 -0.993967 0
M  V30 5479 C 501.214 1.99155 0.306498 0
M  V30 5480 O 500.27 2.30688 1.0266 0
M  V30 5481 C 501.583 2.05078 -2.19917 0
M  V30 5482 C 503.131 2.18227 -2.2438 0
M  V30 5483 C 503.606 3.01825 -3.44479 0
M  V30 5484 N 505.097 3.09411 -3.44702 0
M  V30 5485 C 505.832 3.74412 -4.34285 0
M  V30 5486 N 505.328 4.41259 -5.341 0
M  V30 5487 N 507.121 3.71273 -4.22035 0
M  V30 5488 H 499.272 0.485253 -2.06783 0
M  V30 5489 H 501.535 0.276979 -0.906635 0
M  V30 5490 H 501.241 1.57867 -3.14279 0
M  V30 5491 H 501.115 3.05829 -2.2079 0
M  V30 5492 H 503.502 2.64648 -1.30559 0
M  V30 5493 H 503.583 1.16873 -2.2754 0
M  V30 5494 H 503.227 2.56102 -4.38605 0
M  V30 5495 H 503.157 4.03342 -3.38559 0
M  V30 5496 H 505.648 2.61845 -2.7248 0
M  V30 5497 H 505.961 4.88629 -5.98717 0
M  V30 5498 H 504.306 4.39975 -5.38002 0
M  V30 5499 H 507.497 3.18217 -3.43301 0
M  V30 5500 H 507.67 4.21649 -4.92053 0
M  V30 5501 N 501.076 1.04316 1.18135 0
M  V30 5502 C 502.023 0.636398 2.21853 0
M  V30 5503 C 502.993 -0.357039 1.62217 0
M  V30 5504 O 504.178 -0.250453 1.89149 0
M  V30 5505 C 501.318 0.00812779 3.45099 0
M  V30 5506 C 500.431 1.04933 4.19062 0
M  V30 5507 C 499.566 0.389313 5.29771 0
M  V30 5508 C 498.605 1.41544 5.9551 0
M  V30 5509 N 497.742 0.78021 6.97751 0
M  V30 5510 H 502.582 1.52536 2.56002 0
M  V30 5511 H 500.119 0.76304 1.25762 0
M  V30 5512 H 502.077 -0.373497 4.15525 0
M  V30 5513 H 500.707 -0.844336 3.11562 0
M  V30 5514 H 499.759 1.54888 3.47439 0
M  V30 5515 H 501.071 1.82862 4.64072 0
M  V30 5516 H 500.225 -0.0463805 6.06682 0
M  V30 5517 H 498.964 -0.422038 4.8587 0
M  V30 5518 H 497.969 1.86124 5.17337 0
M  V30 5519 H 499.194 2.22854 6.41493 0
M  V30 5520 H 497.14 -0.0107899 6.55999 0
M  V30 5521 H 497.057 1.49716 7.41027 0
M  V30 5522 H 498.325 0.368996 7.78626 0
M  V30 5523 N 502.554 -1.34406 0.822964 0
M  V30 5524 C 503.784 -2.02214 0.423424 0
M  V30 5525 C 504.192 -1.62124 -0.975322 0
M  V30 5526 O 503.535 -0.822452 -1.6426 0
M  V30 5527 C 503.597 -3.56721 0.446107 0
M  V30 5528 C 503.261 -4.20136 1.79819 0
M  V30 5529 C 504.258 -4.4065 2.75904 0
M  V30 5530 C 501.943 -4.56906 2.08669 0
M  V30 5531 C 503.937 -4.9706 3.99012 0
M  V30 5532 C 501.624 -5.13026 3.32036 0
M  V30 5533 C 502.622 -5.33047 4.27024 0
M  V30 5534 O 502.31 -5.87979 5.48211 0
M  V30 5535 H 502.042 -0.654748 0.168169 0
M  V30 5536 H 504.596 -1.72659 1.11257 0
M  V30 5537 H 502.826 -3.85537 -0.299734 0
M  V30 5538 H 504.515 -4.05845 0.0666114 0
M  V30 5539 H 505.281 -4.12607 2.54912 0
M  V30 5540 H 501.16 -4.40626 1.35535 0
M  V30 5541 H 504.704 -5.12603 4.73164 0
M  V30 5542 H 500.601 -5.40498 3.52891 0
M  V30 5543 H 501.369 -6.06413 5.49732 0
M  V30 5544 N 504.032 -0.577932 -1.46621 0
M  V30 5545 C 504.98 0.170882 -2.31971 0
M  V30 5546 C 505.974 0.889086 -1.44193 0
M  V30 5547 O 507.18 0.808017 -1.60845 0
M  V30 5548 H 503.555 0.0739763 -0.748353 0
M  V30 5549 H 505.526 -0.567856 -2.92947 0
M  V30 5550 C 504.275 1.17438 -3.27267 0
M  V30 5551 H 503.598 0.63116 -3.94787 0
M  V30 5552 H 505.038 1.66882 -3.89778 0
M  V30 5553 C 503.497 2.23292 -2.52274 0
M  V30 5554 O 504.027 3.30567 -2.28229 0
M  V30 5555 N 502.233 1.97772 -2.12919 0
M  V30 5556 H 501.78 1.10545 -2.32675 0
M  V30 5557 H 501.738 2.68809 -1.63062 0
M  V30 5558 N 505.51 1.54411 -0.315457 0
M  V30 5559 C 506.42 2.27737 0.56329 0
M  V30 5560 C 507.436 1.31787 1.13614 0
M  V30 5561 O 508.612 1.64791 1.15784 0
M  V30 5562 C 505.677 3.01478 1.71207 0
M  V30 5563 C 504.738 4.12997 1.17185 0
M  V30 5564 C 503.971 4.83212 2.26588 0
M  V30 5565 O 504.194 4.52884 3.46775 0
M  V30 5566 O 503.128 5.70299 1.92463 0
M  V30 5567 H 506.954 3.03683 -0.0319614 0
M  V30 5568 H 504.539 1.49178 -0.0814188 0
M  V30 5569 H 506.421 3.47683 2.38106 0
M  V30 5570 H 505.096 2.28414 2.29366 0
M  V30 5571 H 504.003 3.71159 0.468174 0
M  V30 5572 H 505.336 4.8808 0.635501 0
M  V30 5573 N 506.988 0.0434614 1.5754 0
M  V30 5574 C 507.918 -0.931651 2.14109 0
M  V30 5575 C 508.899 -1.32971 1.06079 0
M  V30 5576 O 510.084 -1.40579 1.33982 0
M  V30 5577 C 507.214 -2.20914 2.67982 0
M  V30 5578 C 506.168 -1.95139 3.80926 0
M  V30 5579 C 505.494 -3.29276 4.21285 0
M  V30 5580 C 506.794 -1.27913 5.06395 0
M  V30 5581 H 508.488 -0.460497 2.95837 0
M  V30 5582 H 506.034 -0.220058 1.42309 0
M  V30 5583 H 507.987 -2.89522 3.06194 0
M  V30 5584 H 506.711 -2.70221 1.83434 0
M  V30 5585 H 505.37 -1.28945 3.43175 0
M  V30 5586 H 505.018 -3.76369 3.33699 0
M  V30 5587 H 504.718 -3.12831 4.97404 0
M  V30 5588 H 506.242 -3.99129 4.62091 0
M  V30 5589 H 507.656 -1.86544 5.42102 0
M  V30 5590 H 506.053 -1.2182 5.87605 0
M  V30 5591 H 507.123 -0.254066 4.84234 0
M  V30 5592 N 508.466 -1.55915 -0.229846 0
M  V30 5593 C 509.396 -1.94754 -1.28815 0
M  V30 5594 C 510.377 -0.814657 -1.49323 0
M  V30 5595 O 511.562 -1.07631 -1.61645 0
M  V30 5596 C 508.692 -2.25705 -2.63959 0
M  V30 5597 C 507.646 -3.41406 -2.5812 0
M  V30 5598 C 506.972 -3.57941 -3.97218 0
M  V30 5599 C 508.272 -4.76616 -2.13623 0
M  V30 5600 H 509.966 -2.83404 -0.965547 0
M  V30 5601 H 507.512 -1.36353 -0.463028 0
M  V30 5602 H 509.465 -2.51467 -3.38146 0
M  V30 5603 H 508.189 -1.339 -2.9789 0
M  V30 5604 H 506.848 -3.1568 -1.86391 0
M  V30 5605 H 506.496 -2.63526 -4.28443 0
M  V30 5606 H 506.196 -4.35757 -3.94195 0
M  V30 5607 H 507.72 -3.86042 -4.73079 0
M  V30 5608 H 509.134 -5.01637 -2.77549 0
M  V30 5609 H 507.531 -5.57655 -2.21677 0
M  V30 5610 H 508.601 -4.7253 -1.08829 0
M  V30 5611 N 509.944 0.496216 -1.49584 0
M  V30 5612 C 510.891 1.59722 -1.66606 0
M  V30 5613 C 511.861 1.58158 -0.507477 0
M  V30 5614 O 513.046 1.76072 -0.735076 0
M  V30 5615 C 510.186 2.97844 -1.74308 0
M  V30 5616 C 509.299 3.09388 -3.01502 0
M  V30 5617 C 508.434 4.38271 -3.00153 0
M  V30 5618 C 507.473 4.43466 -4.21906 0
M  V30 5619 N 506.61 5.63784 -4.1844 0
M  V30 5620 H 511.45 1.44515 -2.60613 0
M  V30 5621 H 508.987 0.703048 -1.29212 0
M  V30 5622 H 510.945 3.77907 -1.76754 0
M  V30 5623 H 509.575 3.11743 -0.837619 0
M  V30 5624 H 508.627 2.22357 -3.08645 0
M  V30 5625 H 509.939 3.09085 -3.91494 0
M  V30 5626 H 509.093 5.2666 -3.01188 0
M  V30 5627 H 507.832 4.41146 -2.07947 0
M  V30 5628 H 506.837 3.53478 -4.21109 0
M  V30 5629 H 508.062 4.42303 -5.1531 0
M  V30 5630 H 506.008 5.67491 -3.29074 0
M  V30 5631 H 505.925 5.65118 -5.02173 0
M  V30 5632 H 507.193 6.54367 -4.23585 0
M  V30 5633 N 511.423 1.38739 0.74761 0
M  V30 5634 C 512.648 1.38702 1.54197 0
M  V30 5635 C 513.073 -0.019664 1.8809 0
M  V30 5636 O 512.431 -1.00333 1.51006 0
M  V30 5637 C 512.479 2.25492 2.814 0
M  V30 5638 O 511.583 1.67613 3.76802 0
M  V30 5639 H 510.924 0.472863 0.466151 0
M  V30 5640 H 513.454 1.82577 0.923413 0
M  V30 5641 H 513.464 2.39561 3.30264 0
M  V30 5642 H 512.139 3.27727 2.56062 0
M  V30 5643 H 510.716 1.62718 3.35526 0
M  V30 5644 N 512.901 -0.976442 1.23707 0
M  V30 5645 C 514.131 -1.75087 1.09673 0
M  V30 5646 C 514.539 -1.85852 -0.354344 0
M  V30 5647 O 513.882 -1.33985 -1.25673 0
M  V30 5648 C 513.944 -3.19272 1.65245 0
M  V30 5649 C 513.608 -3.32004 3.14042 0
M  V30 5650 C 514.605 -3.18017 4.11292 0
M  V30 5651 C 512.29 -3.56525 3.53829 0
M  V30 5652 C 514.284 -3.28363 5.46312 0
M  V30 5653 C 511.971 -3.6651 4.88993 0
M  V30 5654 C 512.969 -3.52439 5.85043 0
M  V30 5655 O 512.657 -3.62063 7.1775 0
M  V30 5656 H 512.389 -0.556164 0.384262 0
M  V30 5657 H 514.943 -1.23518 1.64111 0
M  V30 5658 H 513.173 -3.72107 1.05231 0
M  V30 5659 H 514.862 -3.7849 1.46629 0
M  V30 5660 H 515.628 -2.98966 3.81896 0
M  V30 5661 H 511.507 -3.66547 2.79579 0
M  V30 5662 H 515.051 -3.17297 6.21263 0
M  V30 5663 H 510.948 -3.85072 5.18063 0
M  V30 5664 H 511.716 -3.78833 7.25553 0
M  V30 5665 N 514.379 -1.04941 -1.1758 0
M  V30 5666 C 515.311 -0.606174 -2.21039 0
M  V30 5667 C 516.324 0.328763 -1.59446 0
M  V30 5668 O 517.513 0.121895 -1.78083 0
M  V30 5669 C 514.613 0.133294 -3.38638 0
M  V30 5670 C 513.786 -0.811711 -4.29802 0
M  V30 5671 C 512.845 -0.113958 -5.26077 0
M  V30 5672 O 511.871 -0.747237 -5.64274 0
M  V30 5673 N 513.073 1.14953 -5.69004 0
M  V30 5674 H 515.838 -1.49606 -2.59689 0
M  V30 5675 H 513.399 -0.930997 -1.32454 0
M  V30 5676 H 515.391 0.610144 -4.00074 0
M  V30 5677 H 513.961 0.924816 -2.98607 0
M  V30 5678 H 513.181 -1.46824 -3.65837 0
M  V30 5679 H 514.469 -1.45326 -4.87604 0
M  V30 5680 H 513.867 1.68441 -5.40041 0
M  V30 5681 H 512.424 1.57049 -6.32597 0
M  V30 5682 N 515.857 1.33968 -0.830081 0
M  V30 5683 C 517.103 1.98773 -0.431394 0
M  V30 5684 C 517.458 1.64598 0.99626 0
M  V30 5685 O 516.751 0.911022 1.68555 0
M  V30 5686 C 516.945 3.52679 -0.57898 0
M  V30 5687 C 516.774 4.01807 -2.01943 0
M  V30 5688 C 515.544 4.30062 -2.65282 0
M  V30 5689 C 517.742 4.18663 -2.98707 0
M  V30 5690 N 515.724 4.65272 -4.00493 0
M  V30 5691 C 517.095 4.57133 -4.18843 0
M  V30 5692 C 519.15 4.00929 -2.95229 0
M  V30 5693 C 517.853 4.79723 -5.35965 0
M  V30 5694 C 519.879 4.2469 -4.11573 0
M  V30 5695 C 519.241 4.63454 -5.30462 0
M  V30 5696 H 515.34 0.75435 -0.206107 0
M  V30 5697 H 517.924 1.62247 -1.07629 0
M  V30 5698 H 516.095 3.88383 0.0360632 0
M  V30 5699 H 517.827 4.04412 -0.152596 0
M  V30 5700 H 514.582 4.21231 -2.16475 0
M  V30 5701 H 515.006 4.87101 -4.70172 0
M  V30 5702 H 519.648 3.70082 -2.04448 0
M  V30 5703 H 517.366 5.09434 -6.27297 0
M  V30 5704 H 520.952 4.12497 -4.10289 0
M  V30 5705 H 519.832 4.81476 -6.18992 0
M  V30 5706 N 517.335 0.585699 1.46312 0
M  V30 5707 C 518.282 -0.145835 2.30339 0
M  V30 5708 C 519.252 -0.881215 1.40797 0
M  V30 5709 O 520.437 -0.871293 1.69744 0
M  V30 5710 C 517.577 -1.15161 3.25318 0
M  V30 5711 C 516.69 -0.419367 4.2996 0
M  V30 5712 C 515.825 -1.41293 5.12064 0
M  V30 5713 C 514.864 -0.667261 6.08452 0
M  V30 5714 N 514.001 -1.60903 6.83414 0
M  V30 5715 H 518.841 0.576755 2.92365 0
M  V30 5716 H 516.378 0.296237 1.44086 0
M  V30 5717 H 518.336 -1.74763 3.78832 0
M  V30 5718 H 516.966 -1.84188 2.65094 0
M  V30 5719 H 516.018 0.291751 3.7928 0
M  V30 5720 H 517.33 0.163433 4.98532 0
M  V30 5721 H 516.484 -2.08167 5.6987 0
M  V30 5722 H 515.223 -2.02966 4.43459 0
M  V30 5723 H 514.228 0.0152356 5.49798 0
M  V30 5724 H 515.453 -0.0558817 6.79077 0
M  V30 5725 H 513.399 -2.21381 6.17516 0
M  V30 5726 H 513.316 -1.07911 7.48259 0
M  V30 5727 H 514.584 -2.26802 7.45775 0
M  V30 5728 N 518.813 -1.54241 0.323641 0
M  V30 5729 C 519.746 -2.20579 -0.584833 0
M  V30 5730 C 520.724 -1.18286 -1.11567 0
M  V30 5731 O 521.908 -1.47025 -1.17966 0
M  V30 5732 C 519.035 -2.86754 -1.80249 0
M  V30 5733 C 518.081 -4.02767 -1.4029 0
M  V30 5734 S 518.914 -5.33693 -0.439539 0
M  V30 5735 C 520.07 -6.03362 -1.66448 0
M  V30 5736 H 520.303 -2.97292 -0.0213238 0
M  V30 5737 H 517.836 -1.54024 0.107726 0
M  V30 5738 H 519.794 -3.25503 -2.50116 0
M  V30 5739 H 518.455 -2.09844 -2.33719 0
M  V30 5740 H 517.648 -4.47933 -2.31024 0
M  V30 5741 H 517.25 -3.65692 -0.783928 0
M  V30 5742 H 519.542 -6.25546 -2.6019 0
M  V30 5743 H 520.485 -6.9689 -1.25498 0
M  V30 5744 H 520.893 -5.33273 -1.85149 0
M  V30 5745 N 520.291 -0.0518155 -1.57515 0
M  V30 5746 C 521.221 0.920283 -2.146 0
M  V30 5747 C 522.202 1.32406 -1.06783 0
M  V30 5748 O 523.387 1.39866 -1.34726 0
M  V30 5749 C 520.517 2.1949 -2.6915 0
M  V30 5750 C 519.471 1.93116 -3.81956 0
M  V30 5751 C 518.797 3.27037 -4.23026 0
M  V30 5752 C 520.097 1.25225 -5.07066 0
M  V30 5753 H 521.791 0.444801 -2.96077 0
M  V30 5754 H 519.337 0.212508 -1.42423 0
M  V30 5755 H 521.29 2.87894 -3.07725 0
M  V30 5756 H 520.014 2.69244 -1.84865 0
M  V30 5757 H 518.673 1.27123 -3.43854 0
M  V30 5758 H 518.321 3.74595 -3.3569 0
M  V30 5759 H 518.021 3.10189 -4.99056 0
M  V30 5760 H 519.545 3.96673 -4.64202 0
M  V30 5761 H 520.959 1.83666 -5.43083 0
M  V30 5762 H 519.356 1.18702 -5.88243 0
M  V30 5763 H 520.426 0.228382 -4.84362 0
M  V30 5764 N 521.769 1.56035 0.221574 0
M  V30 5765 C 522.717 1.93269 1.29421 0
M  V30 5766 C 523.711 0.814727 1.48521 0
M  V30 5767 O 524.917 0.999559 1.49696 0
M  V30 5768 H 521.292 0.614188 0.43391 0
M  V30 5769 H 523.263 2.82773 0.952987 0
M  V30 5770 C 522.012 2.26573 2.63742 0
M  V30 5771 H 521.335 3.12112 2.49853 0
M  V30 5772 H 522.775 2.5651 3.37607 0
M  V30 5773 C 521.234 1.09086 3.1875 0
M  V30 5774 O 521.764 0.351985 4.00155 0
M  V30 5775 N 519.97 0.874693 2.77124 0
M  V30 5776 H 519.517 1.47726 2.11033 0
M  V30 5777 H 519.475 0.0903349 3.1427 0
M  V30 5778 N 523.247 -0.488276 1.49845 0
M  V30 5779 C 524.475 -1.26527 1.63702 0
M  V30 5780 C 524.89 -1.8618 0.313447 0
M  V30 5781 O 524.247 -1.68432 -0.702624 0
M  V30 5782 C 524.298 -2.3864 2.71538 0
M  V30 5783 O 524.019 -1.81437 3.98763 0
M  V30 5784 C 525.52 -3.29805 2.96215 0
M  V30 5785 H 522.74 -0.383295 0.55075 0
M  V30 5786 H 525.284 -0.584779 1.95961 0
M  V30 5787 H 523.439 -3.02496 2.42023 0
M  V30 5788 H 523.853 -2.55135 4.58265 0
M  V30 5789 H 525.327 -4.04722 3.75372 0
M  V30 5790 H 525.804 -3.87563 2.06619 0
M  V30 5791 H 526.41 -2.71703 3.27196 0
M  V30 5792 N 524.725 -1.39134 -0.740242 0
M  V30 5793 C 525.95 -1.39518 -1.53459 0
M  V30 5794 C 526.375 0.00968883 -1.88098 0
M  V30 5795 O 525.733 0.995312 -1.51536 0
M  V30 5796 C 525.781 -2.26981 -2.802 0
M  V30 5797 O 524.885 -1.69609 -3.75908 0
M  V30 5798 H 524.226 -0.475328 -0.463637 0
M  V30 5799 H 526.756 -1.83064 -0.913717 0
M  V30 5800 H 526.766 -2.41309 -3.28989 0
M  V30 5801 H 525.441 -3.29081 -2.5432 0
M  V30 5802 H 524.018 -1.64495 -3.34658 0
M  V30 5803 N 526.204 0.969867 -1.24223 0
M  V30 5804 C 527.429 1.75289 -1.10853 0
M  V30 5805 C 527.854 1.85091 0.335079 0
M  V30 5806 O 527.212 1.32024 1.24255 0
M  V30 5807 C 527.26 3.15255 -1.75062 0
M  V30 5808 O 526.364 3.99589 -1.01992 0
M  V30 5809 H 525.705 0.538904 -0.387915 0
M  V30 5810 H 528.235 1.21675 -1.64488 0
M  V30 5811 H 528.245 3.65787 -1.80731 0
M  V30 5812 H 526.92 3.07436 -2.801 0
M  V30 5813 H 525.497 3.58077 -1.04094 0
M  V30 5814 N 527.682 1.05563 1.17022 0
M  V30 5815 C 528.612 0.681026 2.23348 0
M  V30 5816 C 529.593 -0.322983 1.67005 0
M  V30 5817 O 530.778 -0.199746 1.9317 0
M  V30 5818 C 527.908 0.0589053 3.4725 0
M  V30 5819 C 526.862 0.988082 4.16438 0
M  V30 5820 C 526.188 0.229646 5.34207 0
M  V30 5821 C 527.488 2.31388 4.68249 0
M  V30 5822 H 529.182 1.56993 2.54938 0
M  V30 5823 H 526.728 0.756302 1.2254 0
M  V30 5824 H 528.681 -0.214982 4.20851 0
M  V30 5825 H 527.405 -0.864968 3.14938 0
M  V30 5826 H 526.064 1.24659 3.44754 0
M  V30 5827 H 525.712 -0.697111 4.98146 0
M  V30 5828 H 525.412 0.848815 5.81437 0
M  V30 5829 H 526.936 -0.0368694 6.10589 0
M  V30 5830 H 528.35 2.09964 5.33468 0
M  V30 5831 H 526.747 2.88736 5.26072 0
M  V30 5832 H 527.817 2.94982 3.84855 0
M  V30 5833 N 529.16 -1.33526 0.837174 0
M  V30 5834 C 530.09 -2.31764 0.284206 0
M  V30 5835 C 531.071 -1.58896 -0.607142 0
M  V30 5836 O 532.256 -1.86798 -0.531047 0
M  V30 5837 C 529.386 -3.43029 -0.542962 0
M  V30 5838 C 528.34 -4.27255 0.252451 0
M  V30 5839 C 527.666 -5.3012 -0.69836 0
M  V30 5840 C 528.966 -5.01229 1.46858 0
M  V30 5841 H 530.66 -2.78262 1.10502 0
M  V30 5842 H 528.206 -1.3378 0.532812 0
M  V30 5843 H 530.159 -4.1078 -0.940096 0
M  V30 5844 H 528.883 -2.95216 -1.39697 0
M  V30 5845 H 527.542 -3.61127 0.631124 0
M  V30 5846 H 527.19 -4.78564 -1.54872 0
M  V30 5847 H 526.89 -5.87353 -0.170274 0
M  V30 5848 H 528.414 -6.00737 -1.09305 0
M  V30 5849 H 529.828 -5.61756 1.14469 0
M  V30 5850 H 528.225 -5.68104 1.93333 0
M  V30 5851 H 529.295 -4.301 2.23924 0
M  V30 5852 N 530.638 -0.59345 -1.46 0
M  V30 5853 C 531.548 0.135817 -2.34207 0
M  V30 5854 C 532.564 0.875008 -1.50398 0
M  V30 5855 O 533.74 0.835778 -1.83239 0
M  V30 5856 C 530.805 1.12977 -3.27776 0
M  V30 5857 C 529.866 0.394081 -4.27487 0
M  V30 5858 C 529.099 1.34068 -5.16586 0
M  V30 5859 O 529.322 2.5778 -5.08828 0
M  V30 5860 O 528.256 0.845426 -5.95933 0
M  V30 5861 H 532.082 -0.588691 -2.9794 0
M  V30 5862 H 529.667 -0.353784 -1.45151 0
M  V30 5863 H 531.549 1.70261 -3.85473 0
M  V30 5864 H 530.224 1.83556 -2.66625 0
M  V30 5865 H 529.131 -0.220869 -3.73447 0
M  V30 5866 H 530.464 -0.270939 -4.91454 0
M  V30 5867 N 532.116 1.54067 -0.331816 0
M  V30 5868 C 533.048 2.22139 0.564538 0
M  V30 5869 C 534.061 1.22408 1.07332 0
M  V30 5870 O 535.25 1.4883 0.985481 0
M  V30 5871 C 532.35 2.87876 1.78831 0
M  V30 5872 C 531.523 4.13817 1.41682 0
M  V30 5873 C 530.582 4.63072 2.49901 0
M  V30 5874 O 529.608 5.27562 2.13699 0
M  V30 5875 N 530.81 4.38001 3.80967 0
M  V30 5876 H 533.575 2.99694 -0.0183736 0
M  V30 5877 H 531.136 1.61153 -0.155396 0
M  V30 5878 H 533.128 3.17747 2.50637 0
M  V30 5879 H 531.698 2.13977 2.27887 0
M  V30 5880 H 530.918 3.9062 0.530044 0
M  V30 5881 H 532.206 4.95762 1.14443 0
M  V30 5882 H 531.604 3.864 4.13173 0
M  V30 5883 H 530.161 4.72507 4.48977 0
M  V30 5884 N 533.594 0.0601682 1.57485 0
M  V30 5885 C 534.524 -0.90889 2.15085 0
M  V30 5886 C 535.505 -1.31838 1.07484 0
M  V30 5887 O 536.69 -1.3915 1.35466 0
M  V30 5888 C 533.82 -2.18059 2.7031 0
M  V30 5889 C 532.774 -1.91088 3.82974 0
M  V30 5890 C 532.1 -3.24789 4.24754 0
M  V30 5891 C 533.4 -1.22535 5.07723 0
M  V30 5892 H 535.094 -0.429093 2.96309 0
M  V30 5893 H 532.64 -0.204952 1.42534 0
M  V30 5894 H 534.593 -2.86258 3.09248 0
M  V30 5895 H 533.317 -2.6826 1.8629 0
M  V30 5896 H 531.976 -1.25297 3.44523 0
M  V30 5897 H 531.624 -3.72809 3.37672 0
M  V30 5898 H 531.324 -3.07538 5.00694 0
M  V30 5899 H 532.848 -3.94205 4.66299 0
M  V30 5900 H 534.262 -1.80783 5.4405 0
M  V30 5901 H 532.659 -1.1558 5.88864 0
M  V30 5902 H 533.729 -0.202692 4.84476 0
M  V30 5903 N 535.072 -1.5615 -0.213296 0
M  V30 5904 C 536.02 -1.93953 -1.28394 0
M  V30 5905 C 537.014 -0.822592 -1.48087 0
M  V30 5906 O 538.22 -1.00748 -1.49164 0
M  V30 5907 H 534.595 -0.61648 -0.430646 0
M  V30 5908 H 536.566 -2.83275 -0.937977 0
M  V30 5909 C 535.315 -2.27969 -2.62537 0
M  V30 5910 H 534.638 -3.13432 -2.48194 0
M  V30 5911 H 536.078 -2.58297 -3.36242 0
M  V30 5912 C 534.537 -1.10775 -3.18167 0
M  V30 5913 O 535.067 -0.373201 -3.99963 0
M  V30 5914 N 533.273 -0.889377 -2.76656 0
M  V30 5915 H 532.82 -1.48843 -2.10246 0
M  V30 5916 H 532.778 -0.107 -3.14218 0
M  V30 5917 N 536.55 0.480323 -1.50102 0
M  V30 5918 C 537.46 1.60547 -1.71061 0
M  V30 5919 C 538.476 1.63564 -0.593529 0
M  V30 5920 O 539.652 1.81604 -0.870751 0
M  V30 5921 C 536.717 2.96814 -1.79171 0
M  V30 5922 C 535.778 3.04259 -3.02861 0
M  V30 5923 C 535.011 4.34027 -3.10574 0
M  V30 5924 O 535.234 5.24009 -2.25323 0
M  V30 5925 O 534.168 4.46873 -4.03223 0
M  V30 5926 H 537.994 1.45788 -2.6642 0
M  V30 5927 H 535.579 0.658838 -1.34088 0
M  V30 5928 H 537.461 3.77765 -1.86738 0
M  V30 5929 H 536.136 3.11791 -0.869947 0
M  V30 5930 H 535.043 2.22419 -3.008 0
M  V30 5931 H 536.376 2.94216 -3.94586 0
M  V30 5932 N 538.028 1.39524 0.732853 0
M  V30 5933 C 538.96 1.34318 1.85718 0
M  V30 5934 C 539.973 0.251576 1.60844 0
M  V30 5935 O 541.162 0.510685 1.71039 0
M  V30 5936 C 538.262 1.06334 3.21786 0
M  V30 5937 C 537.435 2.26813 3.73998 0
M  V30 5938 C 536.494 1.95253 4.88634 0
M  V30 5939 O 535.52 2.67957 5.02183 0
M  V30 5940 N 536.722 0.919984 5.73164 0
M  V30 5941 H 539.487 2.3121 1.90688 0
M  V30 5942 H 537.048 1.33654 0.91368 0
M  V30 5943 H 539.04 0.832363 3.96048 0
M  V30 5944 H 537.61 0.181682 3.12072 0
M  V30 5945 H 536.83 2.65849 2.91064 0
M  V30 5946 H 538.118 3.0717 4.05616 0
M  V30 5947 H 537.516 0.317487 5.64808 0
M  V30 5948 H 536.073 0.748905 6.47483 0
M  V30 5949 N 539.506 -0.963266 1.24736 0
M  V30 5950 C 540.753 -1.7068 1.0897 0
M  V30 5951 C 541.081 -1.90934 -0.370751 0
M  V30 5952 O 540.336 -1.47155 -1.29011 0
M  V30 5953 C 540.635 -3.09944 1.7796 0
M  V30 5954 C 540.301 -3.09518 3.27887 0
M  V30 5955 C 538.963 -3.09109 3.68789 0
M  V30 5956 C 541.315 -3.03509 4.23712 0
M  V30 5957 C 538.643 -3.00429 5.03944 0
M  V30 5958 C 540.995 -2.96371 5.5888 0
M  V30 5959 C 539.659 -2.94293 5.99123 0
M  V30 5960 H 538.929 -0.624564 0.398749 0
M  V30 5961 H 541.576 -1.12603 1.54896 0
M  V30 5962 H 539.881 -3.71513 1.2444 0
M  V30 5963 H 541.578 -3.66278 1.63222 0
M  V30 5964 H 538.168 -3.10603 2.95337 0
M  V30 5965 H 542.352 -3.0295 3.93109 0
M  V30 5966 H 537.608 -2.97183 5.34314 0
M  V30 5967 H 541.782 -2.90681 6.32833 0
M  V30 5968 H 539.409 -2.87322 7.03811 0
M  V30 5969 N 540.985 -1.06182 -1.16461 0
M  V30 5970 C 541.933 -0.665716 -2.2287 0
M  V30 5971 C 542.927 0.317822 -1.66392 0
M  V30 5972 O 544.133 0.182807 -1.79069 0
M  V30 5973 H 540.508 -0.197148 -0.725697 0
M  V30 5974 H 542.479 -1.57307 -2.53569 0
M  V30 5975 C 541.228 -0.0669803 -3.47635 0
M  V30 5976 H 540.551 -0.814899 -3.91407 0
M  V30 5977 H 541.991 0.172669 -4.23648 0
M  V30 5978 C 540.45 1.18913 -3.15216 0
M  V30 5979 O 540.98 2.27723 -3.30916 0
M  V30 5980 N 539.186 1.09066 -2.69357 0
M  V30 5981 H 538.733 0.20518 -2.56782 0
M  V30 5982 H 538.691 1.93195 -2.48039 0
M  V30 5983 N 542.463 1.3308 -0.844243 0
M  V30 5984 C 543.709 1.98304 -0.452453 0
M  V30 5985 C 544.064 1.65645 0.978746 0
M  V30 5986 O 543.357 0.928849 1.6758 0
M  V30 5987 C 543.551 3.52045 -0.616354 0
M  V30 5988 C 543.38 3.99643 -2.06193 0
M  V30 5989 C 542.15 4.27224 -2.69829 0
M  V30 5990 C 544.348 4.15471 -3.03131 0
M  V30 5991 N 542.33 4.60998 -4.05406 0
M  V30 5992 C 543.701 4.52665 -4.23668 0
M  V30 5993 C 545.756 3.97776 -2.99465 0
M  V30 5994 C 544.459 4.74011 -5.41023 0
M  V30 5995 C 546.485 4.20301 -4.16055 0
M  V30 5996 C 545.847 4.57801 -5.35348 0
M  V30 5997 H 541.946 0.752122 -0.214096 0
M  V30 5998 H 544.53 1.61096 -1.09344 0
M  V30 5999 H 542.701 3.884 -0.00513205 0
M  V30 6000 H 544.433 4.04228 -0.19548 0
M  V30 6001 H 541.188 4.18911 -2.20931 0
M  V30 6002 H 541.612 4.82087 -4.75312 0
M  V30 6003 H 546.254 3.67893 -2.08362 0
M  V30 6004 H 543.972 5.02753 -6.32665 0
M  V30 6005 H 547.558 4.08122 -4.14641 0
M  V30 6006 H 546.438 4.74884 -6.24063 0
M  V30 6007 N 543.941 0.601185 1.45683 0
M  V30 6008 C 545.187 0.0940202 2.02582 0
M  V30 6009 C 545.52 -1.26972 1.46941 0
M  V30 6010 O 544.795 -1.83613 0.641612 0
M  V30 6011 C 545.078 0.0481715 3.60068 0
M  V30 6012 C 544.931 1.44212 4.26055 0
M  V30 6013 C 546.25 -0.642975 4.35378 0
M  V30 6014 H 543.369 0.0356404 0.736138 0
M  V30 6015 H 546.011 0.771929 1.73612 0
M  V30 6016 H 544.161 -0.529128 3.8488 0
M  V30 6017 H 545.833 2.06601 4.12449 0
M  V30 6018 H 544.076 2.00465 3.84703 0
M  V30 6019 H 544.747 1.36234 5.34925 0
M  V30 6020 H 547.223 -0.152351 4.15821 0
M  V30 6021 H 546.099 -0.644141 5.45107 0
M  V30 6022 H 546.36 -1.70785 4.0778 0
M  V30 6023 N 545.419 -1.53889 0.339982 0
M  V30 6024 C 546.644 -2.05741 -0.261798 0
M  V30 6025 C 547.069 -1.21354 -1.43718 0
M  V30 6026 O 546.427 -0.22645 -1.7988 0
M  V30 6027 C 546.475 -3.54542 -0.658228 0
M  V30 6028 O 545.579 -3.7302 -1.75869 0
M  V30 6029 H 544.92 -0.662529 -0.0441672 0
M  V30 6030 H 547.45 -1.98568 0.493161 0
M  V30 6031 H 547.46 -3.9711 -0.936368 0
M  V30 6032 H 546.135 -4.15412 0.201358 0
M  V30 6033 H 544.712 -3.42355 -1.47809 0
M  V30 6034 N 546.897 -0.0685191 -1.57451 0
M  V30 6035 C 548.313 0.288101 -1.56978 0
M  V30 6036 C 548.513 1.70262 -1.07765 0
M  V30 6037 O 547.569 2.4135 -0.742054 0
M  V30 6038 C 548.882 0.100745 -3.00531 0
M  V30 6039 C 550.43 0.170531 -3.12535 0
M  V30 6040 C 550.905 0.0114944 -4.57999 0
M  V30 6041 N 552.396 0.0672065 -4.63151 0
M  V30 6042 C 553.131 -0.0314813 -5.73391 0
M  V30 6043 N 552.627 -0.183503 -6.92557 0
M  V30 6044 N 554.42 0.0253489 -5.62094 0
M  V30 6045 H 546.571 -0.993026 -1.87757 0
M  V30 6046 H 548.834 -0.386981 -0.865419 0
M  V30 6047 H 548.54 -0.875197 -3.40636 0
M  V30 6048 H 548.414 0.854457 -3.67395 0
M  V30 6049 H 550.801 1.13696 -2.72318 0
M  V30 6050 H 550.882 -0.614229 -2.48316 0
M  V30 6051 H 550.526 -0.951684 -4.98904 0
M  V30 6052 H 550.456 0.815617 -5.20245 0
M  V30 6053 H 552.947 0.183246 -3.77455 0
M  V30 6054 H 553.26 -0.251041 -7.72392 0
M  V30 6055 H 551.605 -0.218822 -6.94655 0
M  V30 6056 H 554.796 0.142794 -4.67882 0
M  V30 6057 H 554.969 -0.0550166 -6.47977 0
M  V30 6058 N 548.375 1.56261 0.205012 0
M  V30 6059 C 549.305 1.96779 1.257 0
M  V30 6060 C 550.286 0.838309 1.48008 0
M  V30 6061 O 551.471 1.10189 1.59913 0
M  V30 6062 C 548.601 2.29876 2.60335 0
M  V30 6063 C 547.555 3.45469 2.52656 0
M  V30 6064 C 546.881 3.64215 3.91473 0
M  V30 6065 C 548.181 4.79954 2.06014 0
M  V30 6066 H 549.875 2.84904 0.920338 0
M  V30 6067 H 547.421 1.37072 0.441277 0
M  V30 6068 H 549.374 2.56814 3.34102 0
M  V30 6069 H 548.098 1.38622 2.95722 0
M  V30 6070 H 546.757 3.18605 1.81345 0
M  V30 6071 H 546.405 2.70309 4.24196 0
M  V30 6072 H 546.105 4.41973 3.87213 0
M  V30 6073 H 547.629 3.93519 4.66878 0
M  V30 6074 H 549.043 5.05989 2.69533 0
M  V30 6075 H 547.44 5.61111 2.12777 0
M  V30 6076 H 548.51 4.74201 1.01297 0
M  V30 6077 N 549.853 -0.472356 1.50355 0
M  V30 6078 C 550.816 -1.5529 1.68576 0
M  V30 6079 C 551.816 -1.50863 0.556511 0
M  V30 6080 O 553.006 -1.53505 0.823516 0
M  V30 6081 C 550.138 -2.94921 1.70981 0
M  V30 6082 H 551.331 -1.40451 2.64978 0
M  V30 6083 H 548.884 -0.698645 1.39816 0
M  V30 6084 H 549.619 -3.15204 0.762675 0
M  V30 6085 H 549.404 -2.99541 2.53017 0
M  V30 6086 H 550.894 -3.73372 1.87037 0
M  V30 6087 N 551.331 -1.39911 -0.725443 0
M  V30 6088 C 552.279 -1.39552 -1.86086 0
M  V30 6089 C 553.273 -0.277334 -1.67114 0
M  V30 6090 O 554.479 -0.447865 -1.74339 0
M  V30 6091 H 550.854 -0.435993 -0.612711 0
M  V30 6092 H 552.825 -2.35305 -1.83505 0
M  V30 6093 C 551.574 -1.26529 -3.2386 0
M  V30 6094 H 550.897 -2.11845 -3.3906 0
M  V30 6095 H 552.337 -1.30336 -4.03471 0
M  V30 6096 C 550.796 0.0254168 -3.3689 0
M  V30 6097 O 551.326 0.992048 -3.89257 0
M  V30 6098 N 549.532 0.0916528 -2.90455 0
M  V30 6099 H 549.079 -0.695675 -2.48028 0
M  V30 6100 H 549.037 0.954745 -2.99553 0
M  V30 6101 N 552.809 0.956637 -1.25245 0
M  V30 6102 C 553.739 2.07058 -1.07931 0
M  V30 6103 C 554.72 1.70096 0.0110361 0
M  V30 6104 O 555.905 1.93555 -0.158121 0
M  V30 6105 C 553.035 3.40272 -0.695124 0
M  V30 6106 C 551.989 3.91235 -1.73549 0
M  V30 6107 C 551.315 5.20921 -1.20604 0
M  V30 6108 C 552.615 4.17837 -3.13385 0
M  V30 6109 H 554.309 2.218 -2.01109 0
M  V30 6110 H 551.855 1.06581 -0.968326 0
M  V30 6111 H 553.808 4.1765 -0.560949 0
M  V30 6112 H 552.532 3.25462 0.272355 0
M  V30 6113 H 551.191 3.16025 -1.85807 0
M  V30 6114 H 550.839 5.02479 -0.228846 0
M  V30 6115 H 550.539 5.55987 -1.90136 0
M  V30 6116 H 552.063 6.00897 -1.08421 0
M  V30 6117 H 553.477 4.8588 -3.04292 0
M  V30 6118 H 551.874 4.64154 -3.80369 0
M  V30 6119 H 552.944 3.2419 -3.60595 0
M  V30 6120 N 554.287 1.06798 1.15896 0
M  V30 6121 C 555.515 0.808694 1.90441 0
M  V30 6122 C 555.93 -0.637506 1.77711 0
M  V30 6123 O 555.287 -1.43684 1.12522 0
M  V30 6124 C 555.338 1.20068 3.40978 0
M  V30 6125 O 555.059 2.59013 3.53333 0
M  V30 6126 C 556.56 0.96987 4.3256 0
M  V30 6127 H 553.78 0.292809 0.603742 0
M  V30 6128 H 556.324 1.42296 1.46874 0
M  V30 6129 H 554.479 0.630842 3.82229 0
M  V30 6130 H 554.893 2.7485 4.46719 0
M  V30 6131 H 556.367 1.29371 5.36626 0
M  V30 6132 H 556.844 -0.0941209 4.39099 0
M  V30 6133 H 557.45 1.52433 3.97044 0
M  V30 6134 N 555.766 -1.3263 0.851289 0
M  V30 6135 C 556.698 -2.27824 0.250757 0
M  V30 6136 C 557.711 -1.52285 -0.575598 0
M  V30 6137 O 558.9 -1.73946 -0.400638 0
M  V30 6138 C 556 -3.3232 -0.664571 0
M  V30 6139 C 555.173 -4.37221 0.125187 0
M  V30 6140 C 554.232 -5.21314 -0.715385 0
M  V30 6141 O 553.258 -5.69002 -0.150111 0
M  V30 6142 N 554.46 -5.43823 -2.03069 0
M  V30 6143 H 557.225 -2.79997 1.06873 0
M  V30 6144 H 554.786 -1.45455 0.710943 0
M  V30 6145 H 556.778 -3.85486 -1.23216 0
M  V30 6146 H 555.348 -2.80331 -1.38323 0
M  V30 6147 H 554.568 -3.84384 0.874199 0
M  V30 6148 H 555.856 -5.04399 0.667774 0
M  V30 6149 H 555.254 -5.06803 -2.51332 0
M  V30 6150 H 553.811 -5.99998 -2.54648 0
M  V30 6151 N 557.244 -0.608902 -1.45362 0
M  V30 6152 C 558.492 -0.104401 -2.0183 0
M  V30 6153 C 558.813 1.27007 -1.47967 0
M  V30 6154 O 558.083 1.83924 -0.674455 0
M  V30 6155 H 556.663 -0.0356042 -0.746151 0
M  V30 6156 H 559.325 -0.790596 -1.78145 0
M  V30 6157 H 558.421 -0.0551793 -3.12051 0
M  V30 6158 N 558.722 1.53707 -0.348139 0
M  V30 6159 C 559.632 2.28881 0.514857 0
M  V30 6160 C 560.648 1.34168 1.10793 0
M  V30 6161 O 561.824 1.6721 1.12262 0
M  V30 6162 C 558.889 3.05042 1.64774 0
M  V30 6163 C 557.95 4.15389 1.08398 0
M  V30 6164 C 557.183 4.87909 2.16287 0
M  V30 6165 O 557.406 4.60137 3.3709 0
M  V30 6166 O 556.34 5.74254 1.80323 0
M  V30 6167 H 560.166 3.03547 -0.0963699 0
M  V30 6168 H 557.751 1.48972 -0.113043 0
M  V30 6169 H 559.633 3.52656 2.30677 0
M  V30 6170 H 558.308 2.33228 2.24469 0
M  V30 6171 H 557.215 3.72068 0.389341 0
M  V30 6172 H 558.548 4.89318 0.531829 0
M  V30 6173 N 560.2 0.0768682 1.57412 0
M  V30 6174 C 561.477 -0.632359 1.85096 0
M  V30 6175 C 561.857 -1.87479 0.9703 0
M  V30 6176 O 561.205 -2.28469 0.0379062 0
M  V30 6177 C 561.415 -0.965174 3.35388 0
M  V30 6178 C 562.763 -1.33648 4.03018 0
M  V30 6179 O 563.787 -1.05675 3.40164 0
M  V30 6180 O 562.646 -1.85959 5.13889 0
M  V30 6181 H 559.74 -0.314574 0.764835 0
M  V30 6182 H 562.286 0.108184 1.69355 0
M  V30 6183 H 561.058 -0.0829745 3.91212 0
M  V30 6184 H 560.681 -1.76231 3.5641 0
M  V30 6185 N 561.678 -1.56367 -0.196722 0
M  V30 6186 C 562.61 -1.90941 -1.26784 0
M  V30 6187 C 563.623 -0.799928 -1.41792 0
M  V30 6188 O 564.812 -1.07833 -1.42247 0
M  V30 6189 C 561.912 -2.12477 -2.6402 0
M  V30 6190 C 561.085 -3.43616 -2.70641 0
M  V30 6191 C 560.144 -3.54284 -3.89062 0
M  V30 6192 O 559.17 -4.2712 -3.76241 0
M  V30 6193 N 560.372 -2.87252 -5.04447 0
M  V30 6194 H 563.137 -2.83417 -0.974417 0
M  V30 6195 H 560.698 -1.57215 -0.386649 0
M  V30 6196 H 562.69 -2.16904 -3.41665 0
M  V30 6197 H 561.26 -1.26508 -2.85857 0
M  V30 6198 H 560.48 -3.51072 -1.79283 0
M  V30 6199 H 561.768 -4.29958 -2.72054 0
M  V30 6200 H 561.166 -2.27901 -5.17762 0
M  V30 6201 H 559.723 -2.97308 -5.80044 0
M  V30 6202 N 563.156 0.464375 -1.50603 0
M  V30 6203 C 564.386 1.23727 -1.65454 0
M  V30 6204 C 564.794 1.86119 -0.340032 0
M  V30 6205 O 564.137 1.70301 0.688706 0
M  V30 6206 C 564.199 2.38153 -2.69301 0
M  V30 6207 C 563.863 1.96345 -4.12671 0
M  V30 6208 C 564.86 1.48215 -4.98326 0
M  V30 6209 C 562.545 2.04861 -4.58625 0
M  V30 6210 C 564.539 1.09152 -6.27985 0
M  V30 6211 C 562.226 1.65409 -5.88288 0
M  V30 6212 C 563.224 1.17634 -6.72794 0
M  V30 6213 O 562.912 0.787312 -8.00035 0
M  V30 6214 H 562.644 0.380075 -0.559034 0
M  V30 6215 H 565.198 0.559919 -1.97621 0
M  V30 6216 H 563.428 3.09081 -2.32392 0
M  V30 6217 H 565.117 3.00099 -2.73304 0
M  V30 6218 H 565.883 1.41052 -4.64036 0
M  V30 6219 H 561.762 2.40996 -3.92991 0
M  V30 6220 H 565.306 0.717909 -6.93896 0
M  V30 6221 H 561.203 1.72233 -6.22098 0
M  V30 6222 H 561.971 0.915567 -8.13363 0
M  V30 6223 N 564.634 1.40294 0.718013 0
M  V30 6224 C 565.864 1.41544 1.50495 0
M  V30 6225 C 566.272 0.0127877 1.89196 0
M  V30 6226 O 565.615 -0.97305 1.55812 0
M  V30 6227 C 565.677 2.24021 2.81167 0
M  V30 6228 C 565.341 3.72463 2.64803 0
M  V30 6229 C 566.338 4.65154 2.32223 0
M  V30 6230 C 564.023 4.1625 2.81143 0
M  V30 6231 C 566.017 5.99618 2.16189 0
M  V30 6232 C 563.704 5.50784 2.64727 0
M  V30 6233 C 564.702 6.42283 2.32297 0
M  V30 6234 O 564.39 7.74337 2.16004 0
M  V30 6235 H 564.122 0.484819 0.471091 0
M  V30 6236 H 566.676 1.84948 0.893488 0
M  V30 6237 H 564.906 1.75393 3.44636 0
M  V30 6238 H 566.595 2.17243 3.42871 0
M  V30 6239 H 567.361 4.32622 2.19234 0
M  V30 6240 H 563.24 3.45352 3.05373 0
M  V30 6241 H 566.784 6.71 1.90799 0
M  V30 6242 H 562.681 5.82902 2.773 0
M  V30 6243 H 563.449 7.85244 2.30942 0
M  V30 6244 N 566.112 -0.949982 1.2575 0
M  V30 6245 C 567.042 -2.06483 1.09028 0
M  V30 6246 C 568.023 -1.701 -0.00201532 0
M  V30 6247 O 569.208 -1.93469 0.168383 0
M  V30 6248 C 566.338 -3.39899 0.71316 0
M  V30 6249 C 565.292 -3.90309 1.75621 0
M  V30 6250 C 564.618 -5.20274 1.23365 0
M  V30 6251 C 565.918 -4.16169 3.15596 0
M  V30 6252 H 567.612 -2.20731 2.02283 0
M  V30 6253 H 565.158 -1.06066 0.973964 0
M  V30 6254 H 567.111 -4.17346 0.58309 0
M  V30 6255 H 565.835 -3.25602 -0.255091 0
M  V30 6256 H 564.494 -3.15035 1.8748 0
M  V30 6257 H 564.142 -5.02351 0.255491 0
M  V30 6258 H 563.842 -5.54971 1.93082 0
M  V30 6259 H 565.366 -6.00314 1.11607 0
M  V30 6260 H 566.78 -4.84259 3.06864 0
M  V30 6261 H 565.177 -4.62131 3.82825 0
M  V30 6262 H 566.247 -3.22273 3.6231 0
M  V30 6263 N 567.59 -1.07411 -1.15328 0
M  V30 6264 C 569.006 -0.799759 -1.38116 0
M  V30 6265 C 569.206 0.59572 -1.92493 0
M  V30 6266 O 568.262 1.35433 -2.13106 0
M  V30 6267 C 569.575 -1.87407 -2.35158 0
M  V30 6268 C 571.123 -1.89889 -2.48819 0
M  V30 6269 C 571.598 -2.96406 -3.49153 0
M  V30 6270 N 573.089 -2.95512 -3.56689 0
M  V30 6271 C 573.824 -3.74575 -4.34144 0
M  V30 6272 N 573.32 -4.63488 -5.14928 0
M  V30 6273 N 575.113 -3.62919 -4.29239 0
M  V30 6274 H 567.264 -1.97411 -0.78374 0
M  V30 6275 H 569.527 -0.856113 -0.407154 0
M  V30 6276 H 569.233 -2.8768 -2.0232 0
M  V30 6277 H 569.107 -1.73471 -3.34944 0
M  V30 6278 H 571.494 -0.902677 -2.80955 0
M  V30 6279 H 571.575 -2.07904 -1.49029 0
M  V30 6280 H 571.219 -3.96227 -3.17752 0
M  V30 6281 H 571.149 -2.75638 -4.48699 0
M  V30 6282 H 573.64 -2.31061 -2.99031 0
M  V30 6283 H 573.953 -5.20445 -5.71276 0
M  V30 6284 H 572.298 -4.67537 -5.14232 0
M  V30 6285 H 575.489 -2.92833 -3.65194 0
M  V30 6286 H 575.662 -4.24777 -4.89355 0
M  V30 6287 N 569.068 1.32177 -0.85831 0
M  V30 6288 C 570.314 1.97417 -0.46417 0
M  V30 6289 C 570.647 1.67746 0.978514 0
M  V30 6290 O 569.922 0.967654 1.68721 0
M  V30 6291 C 570.205 3.53069 -0.708094 0
M  V30 6292 C 570.058 3.92357 -2.19946 0
M  V30 6293 C 571.377 4.39783 -0.166881 0
M  V30 6294 H 568.496 0.717097 -0.17012 0
M  V30 6295 H 571.138 1.56499 -1.07741 0
M  V30 6296 H 569.288 3.88054 -0.186128 0
M  V30 6297 H 570.96 3.67533 -2.78779 0
M  V30 6298 H 569.203 3.41384 -2.67656 0
M  V30 6299 H 569.874 5.00841 -2.32082 0
M  V30 6300 H 572.35 4.11556 -0.613285 0
M  V30 6301 H 571.226 5.47671 -0.367093 0
M  V30 6302 H 571.487 4.32196 0.930559 0
M  V30 6303 N 570.547 0.616602 1.45037 0
M  V30 6304 C 571.775 0.121968 2.0654 0
M  V30 6305 C 572.19 -1.19743 1.45969 0
M  V30 6306 O 571.547 -1.73133 0.577168 0
M  V30 6307 C 571.598 -0.0145171 3.61497 0
M  V30 6308 O 571.319 1.25269 4.19809 0
M  V30 6309 C 572.82 -0.539555 4.40004 0
M  V30 6310 H 570.04 0.0729837 0.667019 0
M  V30 6311 H 572.584 0.846891 1.8614 0
M  V30 6312 H 570.739 -0.689809 3.81209 0
M  V30 6313 H 571.153 1.08816 5.13088 0
M  V30 6314 H 572.627 -0.584112 5.48901 0
M  V30 6315 H 573.104 -1.56368 4.10421 0
M  V30 6316 H 573.71 0.101995 4.25178 0
M  V30 6317 N 572.025 -1.5352 0.356285 0
M  V30 6318 C 573.253 -2.05534 -0.237328 0
M  V30 6319 C 573.668 -1.23043 -1.43199 0
M  V30 6320 O 573.025 -0.268821 -1.80509 0
M  V30 6321 C 573.076 -3.55791 -0.639933 0
M  V30 6322 O 572.797 -4.35154 0.507233 0
M  V30 6323 C 574.298 -4.24027 -1.29292 0
M  V30 6324 H 571.518 -0.669585 -0.0435572 0
M  V30 6325 H 574.062 -1.97988 0.511963 0
M  V30 6326 H 572.217 -3.63518 -1.33915 0
M  V30 6327 H 572.631 -5.24178 0.18375 0
M  V30 6328 H 574.105 -5.30509 -1.52527 0
M  V30 6329 H 574.582 -3.77166 -2.25039 0
M  V30 6330 H 575.188 -4.20527 -0.63539 0
M  V30 6331 N 573.503 -0.0852151 -1.57369 0
M  V30 6332 C 574.749 0.581666 -1.94279 0
M  V30 6333 C 575.082 1.68444 -0.966446 0
M  V30 6334 O 574.357 1.945 0.00215277 0
M  V30 6335 C 574.64 1.14609 -3.41375 0
M  V30 6336 C 574.493 0.0490414 -4.49773 0
M  V30 6337 C 575.812 2.04751 -3.8957 0
M  V30 6338 H 572.931 0.209972 -0.706456 0
M  V30 6339 H 575.573 -0.153915 -1.89376 0
M  V30 6340 H 573.723 1.77297 -3.45685 0
M  V30 6341 H 575.395 -0.584721 -4.57579 0
M  V30 6342 H 573.638 -0.618638 -4.29366 0
M  V30 6343 H 574.309 0.484601 -5.49869 0
M  V30 6344 H 576.785 1.51981 -3.87351 0
M  V30 6345 H 575.661 2.41173 -4.93079 0
M  V30 6346 H 575.922 2.96107 -3.28288 0
M  V30 6347 N 574.981 1.5647 0.188427 0
M  V30 6348 C 575.944 1.9421 1.21718 0
M  V30 6349 C 576.944 0.823901 1.38089 0
M  V30 6350 O 578.134 1.09122 1.35787 0
M  V30 6351 C 575.266 2.22197 2.58537 0
M  V30 6352 H 576.459 2.86252 0.894418 0
M  V30 6353 H 574.012 1.50263 0.430211 0
M  V30 6354 H 574.747 1.32814 2.95856 0
M  V30 6355 H 574.532 3.03688 2.48025 0
M  V30 6356 H 576.022 2.52376 3.3271 0
M  V30 6357 N 576.459 -0.456382 1.50847 0
M  V30 6358 C 577.684 -1.2349 1.66628 0
M  V30 6359 C 578.109 -1.84715 0.355254 0
M  V30 6360 O 577.467 -1.67961 -0.682559 0
M  V30 6361 C 577.515 -2.30865 2.77009 0
M  V30 6362 O 576.619 -3.35882 2.39285 0
M  V30 6363 H 575.96 -0.36266 0.556214 0
M  V30 6364 H 578.49 -0.541374 1.97308 0
M  V30 6365 H 578.5 -2.75949 3.00526 0
M  V30 6366 H 577.175 -1.85677 3.72152 0
M  V30 6367 H 575.752 -2.96406 2.26269 0
M  V30 6368 N 577.937 -1.40673 -0.710563 0
M  V30 6369 C 578.887 -1.37812 -1.81636 0
M  V30 6370 C 579.871 -0.254853 -1.58869 0
M  V30 6371 O 581.063 -0.494356 -1.69956 0
M  V30 6372 C 578.192 -1.24802 -3.19811 0
M  V30 6373 C 577.278 -2.41931 -3.48325 0
M  V30 6374 N 577.669 -3.67411 -3.47625 0
M  V30 6375 C 575.967 -2.35419 -3.78806 0
M  V30 6376 C 576.668 -4.45008 -3.74623 0
M  V30 6377 N 575.644 -3.74916 -3.93623 0
M  V30 6378 H 579.446 -2.32766 -1.79436 0
M  V30 6379 H 576.96 -1.34516 -0.909909 0
M  V30 6380 H 578.957 -1.20835 -3.99004 0
M  V30 6381 H 577.617 -0.308202 -3.23234 0
M  V30 6382 H 578.628 -4.00503 -3.28356 0
M  V30 6383 H 575.305 -1.4983 -3.89689 0
M  V30 6384 H 576.695 -5.53884 -3.80344 0
M  V30 6385 N 579.415 0.9433 -1.26252 0
M  V30 6386 C 580.643 1.72367 -1.14443 0
M  V30 6387 C 581.058 1.86392 0.300572 0
M  V30 6388 O 580.415 1.36978 1.20596 0
M  V30 6389 C 580.466 3.13155 -1.806 0
M  V30 6390 O 580.187 2.99803 -3.19452 0
M  V30 6391 C 581.688 4.07417 -1.74717 0
M  V30 6392 H 578.908 0.539758 -0.398626 0
M  V30 6393 H 581.452 1.18268 -1.66832 0
M  V30 6394 H 579.607 3.64162 -1.32154 0
M  V30 6395 H 580.021 3.88697 -3.52158 0
M  V30 6396 H 581.495 5.03773 -2.25647 0
M  V30 6397 H 581.972 4.3337 -0.713244 0
M  V30 6398 H 582.578 3.6233 -2.22704 0
M  V30 6399 N 580.893 1.08022 1.14757 0
M  V30 6400 C 582.118 0.82895 1.90114 0
M  V30 6401 C 582.543 -0.612772 1.77839 0
M  V30 6402 O 581.901 -1.42895 1.11583 0
M  V30 6403 C 581.949 1.25062 3.38219 0
M  V30 6404 O 581.053 0.400119 4.10454 0
M  V30 6405 H 580.394 0.301412 0.591648 0
M  V30 6406 H 582.924 1.44062 1.45284 0
M  V30 6407 H 582.934 1.22977 3.89025 0
M  V30 6408 H 581.609 2.30067 3.46471 0
M  V30 6409 H 580.186 0.484052 3.69745 0
M  V30 6410 N 582.371 -1.3172 0.865308 0
M  V30 6411 C 583.648 -1.91574 0.394789 0
M  V30 6412 C 584.028 -1.78769 -1.12271 0
M  V30 6413 O 583.376 -1.19245 -1.94918 0
M  V30 6414 C 583.586 -3.37957 0.870982 0
M  V30 6415 C 584.934 -4.15073 0.894384 0
M  V30 6416 O 585.958 -3.4672 0.816325 0
M  V30 6417 O 584.817 -5.37151 1.00651 0
M  V30 6418 H 581.911 -0.818649 0.117229 0
M  V30 6419 H 584.457 -1.4042 0.952913 0
M  V30 6420 H 583.229 -3.41269 1.91444 0
M  V30 6421 H 582.852 -3.96534 0.290907 0
M  V30 6422 N 583.85 -0.624285 -1.44708 0
M  V30 6423 C 585.075 -0.131171 -2.06985 0
M  V30 6424 C 585.5 1.18234 -1.46295 0
M  V30 6425 O 584.858 1.72375 -0.561842 0
M  V30 6426 C 584.906 -0.0226724 -3.60593 0
M  V30 6427 O 584.01 1.02314 -3.99507 0
M  V30 6428 H 583.351 -0.0816556 -0.65896 0
M  V30 6429 H 585.88 -0.859027 -1.85693 0
M  V30 6430 H 585.891 0.170138 -4.07645 0
M  V30 6431 H 584.566 -0.981685 -4.04148 0
M  V30 6432 H 583.143 0.805452 -3.64097 0
M  V30 6433 N 585.328 1.53329 -0.364422 0
M  V30 6434 C 586.605 1.93557 0.281962 0
M  V30 6435 C 586.985 1.29786 1.6649 0
M  V30 6436 O 586.333 0.456512 2.23893 0
M  V30 6437 C 586.543 3.47405 0.333331 0
M  V30 6438 C 587.891 4.20699 0.574231 0
M  V30 6439 O 588.915 3.53779 0.414588 0
M  V30 6440 O 587.774 5.39287 0.885002 0
M  V30 6441 H 584.868 0.809573 0.168881 0
M  V30 6442 H 587.414 1.64494 -0.417121 0
M  V30 6443 H 586.186 3.86091 -0.636326 0
M  V30 6444 H 585.809 3.82697 1.07836 0
M  V30 6445 N 586.806 0.0935595 1.57322 0
M  V30 6446 C 588.052 -0.571355 1.94585 0
M  V30 6447 C 588.385 -1.67929 0.975366 0
M  V30 6448 O 587.66 -1.94498 0.00816206 0
M  V30 6449 C 587.943 -1.12797 3.41978 0
M  V30 6450 C 587.796 -0.0251881 4.49793 0
M  V30 6451 C 589.115 -2.02682 3.90651 0
M  V30 6452 H 586.234 -0.206223 0.70756 0
M  V30 6453 H 588.876 0.163956 1.89291 0
M  V30 6454 H 587.026 -1.75461 3.4662 0
M  V30 6455 H 588.698 0.608979 4.57263 0
M  V30 6456 H 586.941 0.641399 4.29032 0
M  V30 6457 H 587.612 -0.455433 5.50118 0
M  V30 6458 H 590.088 -1.49925 3.88152 0
M  V30 6459 H 588.964 -2.38555 4.94351 0
M  V30 6460 H 589.225 -2.94362 3.29854 0
M  V30 6461 N 588.284 -1.56567 -0.180126 0
M  V30 6462 C 589.695 -1.7126 -0.743422 0
M  V30 6463 C 590.046 -0.70263 -1.83187 0
M  V30 6464 O 589.171 0.137856 -2.1596 0
M  V30 6465 C 589.766 -3.10512 -1.35528 0
M  V30 6466 C 588.325 -3.26919 -1.8655 0
M  V30 6467 C 587.472 -2.67213 -0.741099 0
M  V30 6468 H 590.423 -1.58636 0.0451543 0
M  V30 6469 H 590.444 -3.08673 -2.22489 0
M  V30 6470 H 589.956 -3.83997 -0.562862 0
M  V30 6471 H 588.057 -2.58376 -2.68464 0
M  V30 6472 H 588.17 -4.34574 -2.01699 0
M  V30 6473 H 586.534 -2.26788 -1.15927 0
M  V30 6474 H 587.317 -3.43277 0.0393291 0
M  V30 6475 N 589.762 0.448376 -1.51087 0
M  V30 6476 C 590.987 1.22605 -1.6728 0
M  V30 6477 C 591.412 1.84524 -0.365045 0
M  V30 6478 O 590.77 1.6832 0.673642 0
M  V30 6479 C 590.818 2.29393 -2.78229 0
M  V30 6480 O 589.922 3.34608 -2.41063 0
M  V30 6481 H 589.263 0.359705 -0.558129 0
M  V30 6482 H 591.793 0.530903 -1.97592 0
M  V30 6483 H 591.803 2.74352 -3.01986 0
M  V30 6484 H 590.478 1.83701 -3.73131 0
M  V30 6485 H 589.055 2.95202 -2.27838 0
M  V30 6486 N 591.24 1.41047 0.703093 0
M  V30 6487 C 592.488 1.39723 1.4602 0
M  V30 6488 C 592.809 0.00461257 1.94999 0
M  V30 6489 O 592.079 -0.952292 1.71196 0
M  V30 6490 H 590.659 0.514281 0.541779 0
M  V30 6491 H 593.321 1.76217 0.832678 0
M  V30 6492 H 592.417 2.07982 2.32701 0
M  V30 6493 N 592.718 -0.936591 1.26751 0
M  V30 6494 C 593.964 -1.6858 1.12733 0
M  V30 6495 C 594.297 -1.91414 -0.327745 0
M  V30 6496 O 593.572 -1.49812 -1.24043 0
M  V30 6497 C 593.855 -3.05779 1.90187 0
M  V30 6498 C 593.708 -2.90242 3.43627 0
M  V30 6499 C 595.027 -4.0597 1.69931 0
M  V30 6500 H 592.146 -0.61182 0.410908 0
M  V30 6501 H 594.788 -1.08747 1.55801 0
M  V30 6502 H 592.938 -3.56853 1.53584 0
M  V30 6503 H 594.61 -2.46354 3.9001 0
M  V30 6504 H 592.853 -2.2577 3.70419 0
M  V30 6505 H 593.524 -3.87572 3.93055 0
M  V30 6506 H 596 -3.63874 2.0183 0
M  V30 6507 H 594.876 -4.99974 2.26534 0
M  V30 6508 H 595.137 -4.37369 0.64502 0
M  V30 6509 N 594.196 -1.08629 -1.14182 0
M  V30 6510 C 595.424 -0.838889 -1.8913 0
M  V30 6511 C 595.839 0.609153 -1.78703 0
M  V30 6512 O 595.196 1.41876 -1.14794 0
M  V30 6513 C 595.247 -1.25477 -3.39025 0
M  V30 6514 O 594.968 -2.64601 -3.49167 0
M  V30 6515 C 596.469 -1.03856 -4.30963 0
M  V30 6516 H 593.689 -0.302377 -0.599007 0
M  V30 6517 H 596.233 -1.44615 -1.44592 0
M  V30 6518 H 594.388 -0.691571 -3.81177 0
M  V30 6519 H 594.802 -2.81922 -4.42289 0
M  V30 6520 H 596.276 -1.37892 -5.345 0
M  V30 6521 H 596.753 0.0242522 -4.39193 0
M  V30 6522 H 597.359 -1.58731 -3.94569 0
M  V30 6523 N 595.674 1.31259 -0.872281 0
M  V30 6524 C 596.584 2.32221 -0.333255 0
M  V30 6525 C 597.6 1.6481 0.558013 0
M  V30 6526 O 598.776 1.96212 0.454175 0
M  V30 6527 C 595.841 3.43708 0.454479 0
M  V30 6528 C 594.902 4.26774 -0.465024 0
M  V30 6529 C 594.135 5.32937 0.28521 0
M  V30 6530 O 594.358 5.49968 1.513 0
M  V30 6531 O 593.292 6.00834 -0.358126 0
M  V30 6532 H 597.118 2.80252 -1.17016 0
M  V30 6533 H 594.703 1.352 -0.635724 0
M  V30 6534 H 596.585 4.11656 0.900963 0
M  V30 6535 H 595.26 2.97836 1.26789 0
M  V30 6536 H 594.167 3.61571 -0.960055 0
M  V30 6537 H 595.5 4.76217 -1.2441 0
M  V30 6538 N 597.152 0.631951 1.44375 0
M  V30 6539 C 598.398 0.13697 2.02337 0
M  V30 6540 C 598.731 -1.23826 1.49602 0
M  V30 6541 O 598.006 -1.8221 0.680415 0
M  V30 6542 C 598.289 0.124536 3.59885 0
M  V30 6543 C 598.142 1.53217 4.229 0
M  V30 6544 C 599.461 -0.550481 4.36644 0
M  V30 6545 H 596.58 0.051247 0.735216 0
M  V30 6546 H 599.222 0.808581 1.71936 0
M  V30 6547 H 597.372 -0.44737 3.85916 0
M  V30 6548 H 599.044 2.15303 4.07973 0
M  V30 6549 H 597.287 2.0858 3.80364 0
M  V30 6550 H 597.958 1.4755 5.31914 0
M  V30 6551 H 600.434 -0.0641154 4.16051 0
M  V30 6552 H 599.31 -0.528371 5.46351 0
M  V30 6553 H 599.571 -1.62097 4.11311 0
M  V30 6554 N 598.631 -1.53133 0.372548 0
M  V30 6555 C 599.877 -2.01654 -0.215277 0
M  V30 6556 C 600.21 -1.25914 -1.47849 0
M  V30 6557 O 599.485 -0.3548 -1.91237 0
M  V30 6558 C 599.768 -3.56609 -0.500187 0
M  V30 6559 C 599.621 -4.43036 0.777145 0
M  V30 6560 C 600.94 -4.20528 -1.29786 0
M  V30 6561 H 598.059 -0.732991 -0.0767686 0
M  V30 6562 H 600.701 -1.83335 0.498814 0
M  V30 6563 H 598.851 -3.7235 -1.10852 0
M  V30 6564 H 600.523 -4.39079 1.41447 0
M  V30 6565 H 598.766 -4.10723 1.39604 0
M  V30 6566 H 599.437 -5.49424 0.532662 0
M  V30 6567 H 601.913 -4.08663 -0.783198 0
M  V30 6568 H 600.789 -5.28962 -1.46596 0
M  V30 6569 H 601.05 -3.77051 -2.30836 0
M  V30 6570 N 600.109 -0.101901 -1.5727 0
M  V30 6571 C 601.355 0.561027 -1.94885 0
M  V30 6572 C 601.688 1.6741 -0.984258 0
M  V30 6573 O 600.963 1.94491 -0.0184767 0
M  V30 6574 C 601.246 1.10982 -3.42571 0
M  V30 6575 C 601.099 0.00133418 -4.498 0
M  V30 6576 C 602.418 2.00608 -3.9172 0
M  V30 6577 H 599.537 0.202467 -0.708644 0
M  V30 6578 H 602.179 -0.173992 -1.89202 0
M  V30 6579 H 600.329 1.73621 -3.47546 0
M  V30 6580 H 602.001 -0.63322 -4.56933 0
M  V30 6581 H 600.244 -0.664143 -4.28686 0
M  V30 6582 H 600.915 0.426253 -5.50352 0
M  V30 6583 H 603.391 1.47864 -3.88941 0
M  V30 6584 H 602.267 2.3593 -4.95609 0
M  V30 6585 H 602.528 2.92608 -3.3141 0
M  V30 6586 N 601.587 1.56661 0.17182 0
M  V30 6587 C 602.534 1.96371 1.21273 0
M  V30 6588 C 603.504 0.82756 1.44016 0
M  V30 6589 O 604.689 1.08764 1.56764 0
M  V30 6590 C 601.829 2.32838 2.54716 0
M  V30 6591 C 600.942 3.59628 2.39356 0
M  V30 6592 C 600.077 3.85311 3.65662 0
M  V30 6593 C 599.116 5.0545 3.45234 0
M  V30 6594 N 598.253 5.27268 4.63608 0
M  V30 6595 H 603.093 2.85106 0.86709 0
M  V30 6596 H 600.63 1.41073 0.416744 0
M  V30 6597 H 602.588 2.52004 3.3249 0
M  V30 6598 H 601.218 1.47214 2.87277 0
M  V30 6599 H 600.27 3.4838 1.52761 0
M  V30 6600 H 601.582 4.4756 2.20207 0
M  V30 6601 H 600.736 4.04841 4.51872 0
M  V30 6602 H 599.475 2.95753 3.8779 0
M  V30 6603 H 598.48 4.85819 2.5741 0
M  V30 6604 H 599.705 5.96538 3.24529 0
M  V30 6605 H 597.651 4.40662 4.85956 0
M  V30 6606 H 597.568 6.09422 4.4737 0
M  V30 6607 H 598.836 5.51277 5.51103 0
M  V30 6608 N 603.065 -0.440357 1.51323 0
M  V30 6609 C 603.995 -1.54174 1.75364 0
M  V30 6610 C 604.976 -1.59039 0.603375 0
M  V30 6611 O 606.161 -1.74815 0.845774 0
M  V30 6612 C 603.291 -2.92277 1.87593 0
M  V30 6613 C 602.245 -3.02274 3.03009 0
M  V30 6614 C 601.571 -4.42327 3.00418 0
M  V30 6615 C 602.871 -2.76634 4.43024 0
M  V30 6616 H 604.565 -1.34307 2.67585 0
M  V30 6617 H 602.111 -0.644678 1.28763 0
M  V30 6618 H 604.064 -3.69284 2.02995 0
M  V30 6619 H 602.788 -3.13369 0.920179 0
M  V30 6620 H 601.447 -2.27706 2.87307 0
M  V30 6621 H 601.095 -4.60382 2.02626 0
M  V30 6622 H 600.795 -4.49946 3.77918 0
M  V30 6623 H 602.319 -5.21312 3.17909 0
M  V30 6624 H 603.733 -3.43376 4.59093 0
M  V30 6625 H 602.13 -2.95666 5.22208 0
M  V30 6626 H 603.2 -1.72262 4.5327 0
M  V30 6627 N 604.543 -1.41418 -0.695603 0
M  V30 6628 C 605.79 -1.40774 -1.45564 0
M  V30 6629 C 606.118 -0.0168604 -1.94493 0
M  V30 6630 O 605.373 0.971259 -1.69897 0
M  V30 6631 C 605.672 -2.36112 -2.68302 0
M  V30 6632 C 605.338 -3.82952 -2.38031 0
M  V30 6633 C 604 -4.22954 -2.29486 0
M  V30 6634 C 606.352 -4.75662 -2.13061 0
M  V30 6635 C 603.68 -5.53674 -1.94067 0
M  V30 6636 C 606.032 -6.06702 -1.79151 0
M  V30 6637 C 604.696 -6.45725 -1.69102 0
M  V30 6638 H 603.966 -0.515128 -0.532658 0
M  V30 6639 H 606.613 -1.74216 -0.795047 0
M  V30 6640 H 604.918 -1.95924 -3.39295 0
M  V30 6641 H 606.615 -2.32887 -3.26442 0
M  V30 6642 H 603.205 -3.5127 -2.45576 0
M  V30 6643 H 607.389 -4.45561 -2.18608 0
M  V30 6644 H 602.645 -5.8279 -1.8484 0
M  V30 6645 H 606.819 -6.78041 -1.5885 0
M  V30 6646 H 604.446 -7.46929 -1.41426 0
M  V30 6647 N 606.021 0.929856 -1.27246 0
M  V30 6648 C 607.298 1.65544 -1.04186 0
M  V30 6649 C 607.678 2.06796 0.424097 0
M  V30 6650 O 607.026 1.80053 1.40688 0
M  V30 6651 C 607.236 2.85912 -2.00138 0
M  V30 6652 C 608.584 3.57305 -2.29387 0
M  V30 6653 O 609.608 2.96036 -1.98094 0
M  V30 6654 O 608.467 4.67688 -2.82719 0
M  V30 6655 H 605.561 0.725473 -0.397011 0
M  V30 6656 H 608.107 0.980583 -1.38501 0
M  V30 6657 H 606.879 2.52403 -2.99013 0
M  V30 6658 H 606.502 3.61118 -1.66371 0
M  V30 6659 N 607.499 1.09233 1.13605 0
M  V30 6660 C 608.724 0.849067 1.89224 0
M  V30 6661 C 609.149 -0.593875 1.78479 0
M  V30 6662 O 608.507 -1.41703 1.13092 0
M  V30 6663 C 608.555 1.28642 3.36873 0
M  V30 6664 O 607.659 0.44363 4.10007 0
M  V30 6665 H 607 0.30767 0.588417 0
M  V30 6666 H 609.53 1.45595 1.43748 0
M  V30 6667 H 609.54 1.27096 3.87699 0
M  V30 6668 H 608.215 2.33729 3.44011 0
M  V30 6669 H 606.792 0.523241 3.69211 0
M  V30 6670 N 608.977 -1.30795 0.87923 0
M  V30 6671 C 610.254 -1.91145 0.415086 0
M  V30 6672 C 610.634 -1.7995 -1.10368 0
M  V30 6673 O 609.982 -1.21305 -1.93642 0
M  V30 6674 C 610.192 -3.37014 0.906778 0
M  V30 6675 C 611.54 -4.14101 0.938358 0
M  V30 6676 O 612.564 -3.45834 0.853053 0
M  V30 6677 O 611.423 -5.36054 1.06342 0
M  V30 6678 H 608.517 -0.81736 0.125905 0
M  V30 6679 H 611.063 -1.39401 0.967753 0
M  V30 6680 H 609.835 -3.3922 1.95053 0
M  V30 6681 H 609.458 -3.96204 0.332948 0
M  V30 6682 N 610.455 -0.639598 -1.44038 0
M  V30 6683 C 611.866 -0.228866 -1.85292 0
M  V30 6684 C 612.217 1.22161 -1.53529 0
M  V30 6685 O 611.342 1.93064 -0.977518 0
M  V30 6686 C 611.937 -0.408592 -3.36327 0
M  V30 6687 C 610.496 -0.0522953 -3.76364 0
M  V30 6688 C 609.643 -0.717959 -2.67844 0
M  V30 6689 H 612.594 -0.844194 -1.34384 0
M  V30 6690 H 612.615 0.349968 -3.78887 0
M  V30 6691 H 612.127 -1.46435 -3.59414 0
M  V30 6692 H 610.228 1.0014 -3.58891 0
M  V30 6693 H 610.341 -0.468261 -4.76806 0
M  V30 6694 H 608.705 -0.152459 -2.54243 0
M  V30 6695 H 609.488 -1.77648 -2.93762 0
M  V30 6696 N 611.933 1.52934 -0.380664 0
M  V30 6697 C 613.182 2.00651 0.205477 0
M  V30 6698 C 613.495 1.27164 1.48623 0
M  V30 6699 O 614.701 1.65547 2.15189 0
M  V30 6700 C 613.157 3.57479 0.416726 0
M  V30 6701 C 612.765 4.39857 -0.850268 0
M  V30 6702 C 614.509 4.13509 0.959702 0
M  V30 6703 C 612.416 5.88269 -0.607773 0
M  V30 6704 H 611.346 0.749684 0.0805614 0
M  V30 6705 H 613.997 1.76508 -0.501732 0
M  V30 6706 H 612.379 3.77836 1.18557 0
M  V30 6707 H 613.553 4.31269 -1.62307 0
M  V30 6708 H 611.868 3.95005 -1.31756 0
M  V30 6709 H 614.465 5.22039 1.15669 0
M  V30 6710 H 614.808 3.69054 1.92626 0
M  V30 6711 H 615.341 3.9701 0.250645 0
M  V30 6712 H 612.08 6.3703 -1.54509 0
M  V30 6713 H 611.6 5.99667 0.126247 0
M  V30 6714 H 613.279 6.46558 -0.239014 0
M  V30 6715 N 613.412 0.11024 1.57214 0
M  V30 6716 C 614.64 -0.557834 1.99238 0
M  V30 6717 C 615.055 -1.60778 0.989734 0
M  V30 6718 O 614.412 -1.82491 -0.0186092 0
M  V30 6719 C 614.463 -1.19189 3.41286 0
M  V30 6720 O 614.184 -0.183919 4.37714 0
M  V30 6721 C 615.685 -1.94413 3.98395 0
M  V30 6722 H 612.905 -0.148392 0.654386 0
M  V30 6723 H 615.449 0.193996 2.03578 0
M  V30 6724 H 613.604 -1.89456 3.37913 0
M  V30 6725 H 614.018 -0.643475 5.20538 0
M  V30 6726 H 615.492 -2.34116 4.99894 0
M  V30 6727 H 615.969 -2.81592 3.3705 0
M  V30 6728 H 616.575 -1.28928 4.05287 0
M  V30 6729 N 614.89 -1.56749 -0.16351 0
M  V30 6730 C 616.136 -1.82704 -0.880168 0
M  V30 6731 C 616.469 -0.689311 -1.81555 0
M  V30 6732 O 615.744 0.308224 -1.92042 0
M  V30 6733 C 616.027 -3.19084 -1.66905 0
M  V30 6734 C 615.88 -4.43397 -0.756269 0
M  V30 6735 C 617.199 -3.52493 -2.63509 0
M  V30 6736 H 614.318 -0.664608 -0.318535 0
M  V30 6737 H 616.96 -1.89438 -0.146036 0
M  V30 6738 H 615.11 -3.13475 -2.2949 0
M  V30 6739 H 616.782 -4.61079 -0.14269 0
M  V30 6740 H 615.025 -4.33752 -0.0647944 0
M  V30 6741 H 615.696 -5.3539 -1.34393 0
M  V30 6742 H 618.172 -3.58606 -2.11047 0
M  V30 6743 H 617.048 -4.48979 -3.15767 0
M  V30 6744 H 617.309 -2.77597 -3.44082 0
M  V30 6745 N 616.368 0.432326 -1.51554 0
M  V30 6746 C 617.596 1.20364 -1.68286 0
M  V30 6747 C 618.011 1.84888 -0.38233 0
M  V30 6748 O 617.368 1.70924 0.639627 0
M  V30 6749 C 617.419 2.28398 -2.80208 0
M  V30 6750 O 617.14 1.66512 -4.05223 0
M  V30 6751 C 618.641 3.18584 -3.08251 0
M  V30 6752 H 615.861 0.36259 -0.564596 0
M  V30 6753 H 618.405 0.511647 -1.97996 0
M  V30 6754 H 616.56 2.93305 -2.53083 0
M  V30 6755 H 616.974 2.37951 -4.67418 0
M  V30 6756 H 618.448 3.90511 -3.90135 0
M  V30 6757 H 618.925 3.79628 -2.2086 0
M  V30 6758 H 619.531 2.59372 -3.37055 0
M  V30 6759 N 617.846 1.41785 0.688094 0
M  V30 6760 C 619.092 1.41753 1.4503 0
M  V30 6761 C 619.425 0.0290745 1.94178 0
M  V30 6762 O 618.7 -0.944456 1.7003 0
M  V30 6763 C 618.983 2.43069 2.65686 0
M  V30 6764 C 618.836 3.91053 2.22256 0
M  V30 6765 C 620.155 2.41543 3.67893 0
M  V30 6766 H 617.274 0.516202 0.526027 0
M  V30 6767 H 619.916 1.73111 0.783105 0
M  V30 6768 H 618.066 2.1646 3.2261 0
M  V30 6769 H 619.738 4.28594 1.70602 0
M  V30 6770 H 617.981 4.05559 1.53963 0
M  V30 6771 H 618.652 4.57501 3.08863 0
M  V30 6772 H 621.128 2.65175 3.20658 0
M  V30 6773 H 620.004 3.14434 4.49914 0
M  V30 6774 H 620.265 1.43666 4.18106 0
M  V30 6775 N 619.324 -0.923095 1.27737 0
M  V30 6776 C 620.735 -1.48626 1.12993 0
M  V30 6777 C 621.086 -1.94142 -0.283439 0
M  V30 6778 O 620.211 -1.81605 -1.17681 0
M  V30 6779 C 620.806 -2.70117 2.04505 0
M  V30 6780 C 619.365 -3.22642 1.93853 0
M  V30 6781 C 618.512 -1.95368 1.96791 0
M  V30 6782 H 621.463 -0.736737 1.40563 0
M  V30 6783 H 621.484 -3.4506 1.60356 0
M  V30 6784 H 620.996 -2.36959 3.07363 0
M  V30 6785 H 619.097 -3.60549 0.939968 0
M  V30 6786 H 619.21 -3.88525 2.80331 0
M  V30 6787 H 617.574 -2.12061 1.41076 0
M  V30 6788 H 618.357 -1.64517 3.01312 0
M  V30 6789 N 620.802 -1.09834 -1.13024 0
M  V30 6790 C 622.048 -0.83819 -1.84668 0
M  V30 6791 C 622.381 0.634645 -1.83537 0
M  V30 6792 O 621.656 1.46753 -1.27647 0
M  V30 6793 C 621.939 -1.37933 -3.32636 0
M  V30 6794 C 621.792 -2.91857 -3.42257 0
M  V30 6795 C 623.111 -1.01654 -4.28199 0
M  V30 6796 H 620.23 -0.30595 -0.670495 0
M  V30 6797 H 622.872 -1.36044 -1.32635 0
M  V30 6798 H 621.022 -0.935111 -3.77078 0
M  V30 6799 H 622.694 -3.44759 -3.06495 0
M  V30 6800 H 620.937 -3.28776 -2.83 0
M  V30 6801 H 621.608 -3.24799 -4.46329 0
M  V30 6802 H 624.084 -1.39973 -3.9185 0
M  V30 6803 H 622.96 -1.42217 -5.30156 0
M  V30 6804 H 623.221 0.0747794 -4.42037 0
M  V30 6805 N 622.28 1.30327 -0.886154 0
M  V30 6806 C 623.19 2.31854 -0.357866 0
M  V30 6807 C 624.206 1.65392 0.540502 0
M  V30 6808 O 625.382 1.96683 0.433339 0
M  V30 6809 C 622.447 3.44171 0.417999 0
M  V30 6810 C 621.508 4.26257 -0.510263 0
M  V30 6811 C 620.741 5.3321 0.228669 0
M  V30 6812 O 620.964 5.51542 1.45458 0
M  V30 6813 O 619.898 6.0042 -0.421832 0
M  V30 6814 H 623.724 2.78995 -1.19982 0
M  V30 6815 H 621.309 1.34518 -0.650028 0
M  V30 6816 H 623.191 4.12588 0.857251 0
M  V30 6817 H 621.866 2.99164 1.23623 0
M  V30 6818 H 620.773 3.60533 -0.99835 0
M  V30 6819 H 622.106 4.74871 -1.29454 0
M  V30 6820 N 623.758 0.647228 1.43697 0
M  V30 6821 C 625.004 0.158422 2.0218 0
M  V30 6822 C 625.337 -1.22233 1.50907 0
M  V30 6823 O 624.612 -1.81478 0.699702 0
M  V30 6824 C 624.895 0.1627 3.59732 0
M  V30 6825 C 624.748 1.57694 4.21251 0
M  V30 6826 C 626.067 -0.504138 4.37203 0
M  V30 6827 H 623.186 0.059042 0.734631 0
M  V30 6828 H 625.828 0.826772 1.71069 0
M  V30 6829 H 623.978 -0.406414 3.86368 0
M  V30 6830 H 625.65 2.19618 4.05667 0
M  V30 6831 H 623.893 2.12603 3.7813 0
M  V30 6832 H 624.564 1.53183 5.3032 0
M  V30 6833 H 627.04 -0.0199841 4.16095 0
M  V30 6834 H 625.916 -0.470394 5.46881 0
M  V30 6835 H 626.177 -1.57726 4.13007 0
M  V30 6836 N 625.236 -1.5273 0.388769 0
M  V30 6837 C 626.461 -2.0647 -0.19621 0
M  V30 6838 C 626.886 -1.25865 -1.39784 0
M  V30 6839 O 626.244 -0.283562 -1.79069 0
M  V30 6840 C 626.292 -3.56456 -0.5451 0
M  V30 6841 O 625.396 -3.78426 -1.63912 0
M  V30 6842 H 624.737 -0.663599 -0.023067 0
M  V30 6843 H 627.267 -1.96898 0.556084 0
M  V30 6844 H 627.277 -3.99888 -0.809557 0
M  V30 6845 H 625.952 -4.14561 0.333417 0
M  V30 6846 H 624.529 -3.46884 -1.36842 0
M  V30 6847 N 626.714 -0.118576 -1.57153 0
M  V30 6848 C 628.13 0.238014 -1.57815 0
M  V30 6849 C 628.33 1.66747 -1.13127 0
M  V30 6850 O 627.386 2.38867 -0.818462 0
M  V30 6851 C 628.699 0.00508207 -3.007 0
M  V30 6852 C 630.247 0.0710139 -3.12919 0
M  V30 6853 C 630.722 -0.13422 -4.57803 0
M  V30 6854 N 632.213 -0.0801755 -4.63131 0
M  V30 6855 C 632.948 -0.213885 -5.73001 0
M  V30 6856 N 632.444 -0.403742 -6.91623 0
M  V30 6857 N 634.237 -0.15349 -5.6189 0
M  V30 6858 H 626.388 -1.05226 -1.84503 0
M  V30 6859 H 628.651 -0.414318 -0.852669 0
M  V30 6860 H 628.357 -0.983125 -3.3768 0
M  V30 6861 H 628.231 0.73714 -3.69927 0
M  V30 6862 H 630.618 1.04975 -2.75798 0
M  V30 6863 H 630.699 -0.692918 -2.46236 0
M  V30 6864 H 630.343 -1.10992 -4.95624 0
M  V30 6865 H 630.273 0.649692 -5.22577 0
M  V30 6866 H 632.764 0.0630689 -3.77847 0
M  V30 6867 H 633.077 -0.496645 -7.71202 0
M  V30 6868 H 631.422 -0.43971 -6.93608 0
M  V30 6869 H 634.613 -0.00613174 -4.681 0
M  V30 6870 H 634.786 -0.261138 -6.47474 0
M  V30 6871 N 628.193 1.56834 0.155195 0
M  V30 6872 C 629.14 1.97646 1.19184 0
M  V30 6873 C 630.11 0.842788 1.4313 0
M  V30 6874 O 631.295 1.1042 1.55602 0
M  V30 6875 C 628.435 2.35527 2.52232 0
M  V30 6876 C 627.548 3.62147 2.35529 0
M  V30 6877 C 626.683 3.89167 3.61555 0
M  V30 6878 C 625.722 5.09084 3.39853 0
M  V30 6879 N 624.859 5.32156 4.5799 0
M  V30 6880 H 629.699 2.8601 0.836802 0
M  V30 6881 H 627.236 1.41507 0.401758 0
M  V30 6882 H 629.194 2.55516 3.29799 0
M  V30 6883 H 627.824 1.50253 2.85699 0
M  V30 6884 H 626.876 3.4998 1.49057 0
M  V30 6885 H 628.188 4.49871 2.15448 0
M  V30 6886 H 627.342 4.09611 4.47553 0
M  V30 6887 H 626.081 2.9985 3.84632 0
M  V30 6888 H 625.086 4.88522 2.52243 0
M  V30 6889 H 626.311 5.99947 3.18183 0
M  V30 6890 H 624.257 4.45791 4.81255 0
M  V30 6891 H 624.174 6.14133 4.40882 0
M  V30 6892 H 625.442 5.57091 5.45225 0
M  V30 6893 N 629.671 -0.424282 1.51781 0
M  V30 6894 C 630.619 -1.53649 1.74628 0
M  V30 6895 C 631.613 -1.57923 0.612922 0
M  V30 6896 O 632.819 -1.61511 0.794618 0
M  V30 6897 H 629.194 -0.510706 0.551981 0
M  V30 6898 H 631.165 -1.31558 2.67834 0
M  V30 6899 C 629.914 -2.91177 1.9003 0
M  V30 6900 H 629.237 -2.88625 2.76651 0
M  V30 6901 H 630.677 -3.6833 2.10021 0
M  V30 6902 C 629.136 -3.30303 0.663435 0
M  V30 6903 O 629.666 -4.01315 -0.175812 0
M  V30 6904 N 627.872 -2.86201 0.503723 0
M  V30 6905 H 627.419 -2.28583 1.18776 0
M  V30 6906 H 627.377 -3.12741 -0.322575 0
M  V30 6907 N 631.149 -1.42148 -0.680565 0
M  V30 6908 C 632.56 -1.3768 -1.26099 0
M  V30 6909 C 632.911 -0.0672348 -1.96085 0
M  V30 6910 O 632.036 0.834172 -1.99676 0
M  V30 6911 C 632.631 -2.49387 -2.29328 0
M  V30 6912 C 631.19 -2.4827 -2.82911 0
M  V30 6913 C 630.337 -2.2847 -1.57152 0
M  V30 6914 H 633.288 -1.51446 -0.474326 0
M  V30 6915 H 633.309 -2.19307 -3.10941 0
M  V30 6916 H 632.821 -3.44686 -1.78363 0
M  V30 6917 H 630.922 -1.56773 -3.38013 0
M  V30 6918 H 631.035 -3.45109 -3.3232 0
M  V30 6919 H 629.399 -1.76623 -1.83511 0
M  V30 6920 H 630.182 -3.25816 -1.0816 0
M  V30 6921 N 632.627 0.916307 -1.28225 0
M  V30 6922 C 633.574 2.01841 -1.11932 0
M  V30 6923 C 634.544 1.66091 -0.0171604 0
M  V30 6924 O 635.729 1.89934 -0.181617 0
M  V30 6925 C 632.869 3.36065 -0.784504 0
M  V30 6926 C 631.982 3.847 -1.96544 0
M  V30 6927 C 631.117 5.07423 -1.57149 0
M  V30 6928 C 630.156 5.48384 -2.71922 0
M  V30 6929 N 629.293 6.62298 -2.33037 0
M  V30 6930 H 634.133 2.1511 -2.06232 0
M  V30 6931 H 631.67 1.05366 -1.02647 0
M  V30 6932 H 633.628 4.13272 -0.571148 0
M  V30 6933 H 632.258 3.22571 0.121565 0
M  V30 6934 H 631.31 3.03673 -2.291 0
M  V30 6935 H 632.622 4.1102 -2.82603 0
M  V30 6936 H 631.776 5.92165 -1.32004 0
M  V30 6937 H 630.515 4.82906 -0.682153 0
M  V30 6938 H 629.52 4.62184 -2.97768 0
M  V30 6939 H 630.745 5.7489 -3.61494 0
M  V30 6940 H 628.691 6.39416 -1.4657 0
M  V30 6941 H 628.608 6.8833 -3.12631 0
M  V30 6942 H 629.876 7.50352 -2.11169 0
M  V30 6943 N 634.105 1.10431 1.1244 0
M  V30 6944 C 635.352 0.846717 1.83948 0
M  V30 6945 C 635.68 -0.627709 1.84093 0
M  V30 6946 O 634.935 -1.47876 1.28184 0
M  V30 6947 C 635.234 1.34022 3.3132 0
M  V30 6948 C 634.9 2.82606 3.51347 0
M  V30 6949 C 633.562 3.23182 3.56521 0
M  V30 6950 C 635.914 3.78356 3.58464 0
M  V30 6951 C 633.242 4.58258 3.66356 0
M  V30 6952 C 635.594 5.13234 3.69829 0
M  V30 6953 C 634.258 5.53384 3.73259 0
M  V30 6954 H 633.528 0.309836 0.673114 0
M  V30 6955 H 636.175 1.38091 1.32677 0
M  V30 6956 H 634.48 0.726047 3.85014 0
M  V30 6957 H 636.177 1.11739 3.85118 0
M  V30 6958 H 632.767 2.50212 3.47983 0
M  V30 6959 H 636.951 3.48115 3.53737 0
M  V30 6960 H 632.207 4.88787 3.67284 0
M  V30 6961 H 636.381 5.87272 3.74279 0
M  V30 6962 H 634.008 6.58045 3.80633 0
M  V30 6963 N 635.583 -1.29855 0.893053 0
M  V30 6964 C 636.516 -2.26079 0.3104 0
M  V30 6965 C 637.494 -1.52145 -0.573644 0
M  V30 6966 O 638.678 -1.8113 -0.521937 0
M  V30 6967 C 635.805 -3.34069 -0.558179 0
M  V30 6968 C 634.851 -4.25721 0.257638 0
M  V30 6969 S 635.684 -5.09409 1.65114 0
M  V30 6970 C 636.84 -6.20903 0.789307 0
M  V30 6971 H 637.073 -2.75151 1.12602 0
M  V30 6972 H 634.606 -1.37975 0.692978 0
M  V30 6973 H 636.564 -3.9675 -1.05355 0
M  V30 6974 H 635.225 -2.83705 -1.34797 0
M  V30 6975 H 634.418 -5.02366 -0.405562 0
M  V30 6976 H 634.02 -3.67656 0.685917 0
M  V30 6977 H 636.312 -6.77499 0.00978451 0
M  V30 6978 H 637.255 -6.91426 1.52762 0
M  V30 6979 H 637.663 -5.63435 0.346634 0
M  V30 6980 N 637.061 -0.65484 -1.43351 0
M  V30 6981 C 637.971 0.0363603 -2.34572 0
M  V30 6982 C 638.987 0.810432 -1.53974 0
M  V30 6983 O 640.163 0.757308 -1.86619 0
M  V30 6984 C 637.228 0.989733 -3.32273 0
M  V30 6985 C 636.289 0.212414 -4.28774 0
M  V30 6986 C 635.522 1.12038 -5.21808 0
M  V30 6987 O 635.745 2.35967 -5.19303 0
M  V30 6988 O 634.679 0.59191 -5.98982 0
M  V30 6989 H 638.505 -0.714527 -2.95175 0
M  V30 6990 H 636.09 -0.415029 -1.4352 0
M  V30 6991 H 637.972 1.53759 -3.92347 0
M  V30 6992 H 636.647 1.72082 -2.74171 0
M  V30 6993 H 635.554 -0.379062 -3.72175 0
M  V30 6994 H 636.887 -0.479138 -4.89862 0
M  V30 6995 N 638.539 1.52521 -0.396863 0
M  V30 6996 C 639.767 2.06091 0.18275 0
M  V30 6997 C 640.182 1.26796 1.39886 0
M  V30 6998 O 639.539 0.316585 1.79733 0
M  V30 6999 C 639.59 3.57362 0.545377 0
M  V30 7000 O 639.311 4.33656 -0.622428 0
M  V30 7001 C 640.812 4.27305 1.18004 0
M  V30 7002 H 638.032 0.670504 0.025789 0
M  V30 7003 H 640.576 1.96561 -0.564276 0
M  V30 7004 H 638.731 3.66941 1.2423 0
M  V30 7005 H 639.145 5.23507 -0.322662 0
M  V30 7006 H 640.619 5.34366 1.38408 0
M  V30 7007 H 641.096 3.83 2.1496 0
M  V30 7008 H 641.702 4.22064 0.523671 0
M  V30 7009 N 640.017 0.126909 1.57088 0
M  V30 7010 C 641.263 -0.529952 1.95753 0
M  V30 7011 C 641.596 -1.65823 1.01077 0
M  V30 7012 O 640.871 -1.94437 0.0494162 0
M  V30 7013 C 641.154 -1.05517 3.44294 0
M  V30 7014 C 641.007 0.0702253 4.49745 0
M  V30 7015 C 642.326 -1.9435 3.94862 0
M  V30 7016 H 639.445 -0.191168 0.711775 0
M  V30 7017 H 642.087 0.204071 1.88901 0
M  V30 7018 H 640.237 -1.68069 3.50264 0
M  V30 7019 H 641.909 0.705834 4.55868 0
M  V30 7020 H 640.152 0.732259 4.27575 0
M  V30 7021 H 640.823 -0.338642 5.5096 0
M  V30 7022 H 643.299 -1.41658 3.91244 0
M  V30 7023 H 642.175 -2.28015 4.993 0
M  V30 7024 H 642.436 -2.87299 3.36024 0
M  V30 7025 N 641.495 -1.56914 -0.146875 0
M  V30 7026 C 642.458 -1.97368 -1.16526 0
M  V30 7027 C 643.458 -0.860223 -1.35856 0
M  V30 7028 O 644.648 -1.12684 -1.32846 0
M  V30 7029 C 641.78 -2.28974 -2.52555 0
M  V30 7030 H 642.973 -2.88523 -0.818209 0
M  V30 7031 H 640.526 -1.5135 -0.390221 0
M  V30 7032 H 641.261 -1.40611 -2.92231 0
M  V30 7033 H 641.046 -3.10157 -2.39886 0
M  V30 7034 H 642.536 -2.61109 -3.25902 0
M  V30 7035 N 642.974 0.416227 -1.52004 0
M  V30 7036 C 643.884 1.53147 -1.77717 0
M  V30 7037 C 644.9 1.609 -0.662368 0
M  V30 7038 O 646.076 1.77747 -0.946991 0
M  V30 7039 C 643.141 2.88948 -1.91598 0
M  V30 7040 C 642.202 2.9114 -3.15493 0
M  V30 7041 C 641.435 4.20464 -3.28703 0
M  V30 7042 O 641.658 5.13981 -2.47345 0
M  V30 7043 O 640.592 4.29368 -4.21813 0
M  V30 7044 H 644.418 1.34357 -2.72363 0
M  V30 7045 H 642.003 0.601373 -1.36762 0
M  V30 7046 H 643.885 3.69505 -2.02593 0
M  V30 7047 H 642.56 3.07821 -1.00141 0
M  V30 7048 H 641.467 2.09461 -3.09962 0
M  V30 7049 H 642.8 2.77216 -4.06709 0
M  V30 7050 N 644.452 1.42507 0.673017 0
M  V30 7051 C 645.399 1.46124 1.78651 0
M  V30 7052 C 646.369 0.313007 1.63124 0
M  V30 7053 O 647.554 0.517337 1.83653 0
M  V30 7054 C 644.694 1.3711 3.16694 0
M  V30 7055 C 643.807 2.61983 3.43495 0
M  V30 7056 C 642.942 2.45098 4.71275 0
M  V30 7057 C 641.981 3.65336 4.91117 0
M  V30 7058 N 641.118 3.47383 6.10139 0
M  V30 7059 H 645.958 2.4128 1.74895 0
M  V30 7060 H 643.495 1.19788 0.853766 0
M  V30 7061 H 645.453 1.29881 3.96468 0
M  V30 7062 H 644.083 0.45549 3.1957 0
M  V30 7063 H 643.135 2.79571 2.57961 0
M  V30 7064 H 644.447 3.51355 3.5405 0
M  V30 7065 H 643.601 2.35466 5.59143 0
M  V30 7066 H 642.34 1.53219 4.63007 0
M  V30 7067 H 641.345 3.754 4.0169 0
M  V30 7068 H 642.57 4.58199 5.01229 0
M  V30 7069 H 640.516 2.58222 6.0304 0
M  V30 7070 H 640.433 4.30344 6.21563 0
M  V30 7071 H 641.701 3.41565 7.00681 0
M  V30 7072 N 645.93 -0.909495 1.28709 0
M  V30 7073 C 646.893 -1.99399 1.13016 0
M  V30 7074 C 647.893 -1.60654 0.068536 0
M  V30 7075 O 649.083 -1.71334 0.314671 0
M  V30 7076 C 646.215 -3.33078 0.726085 0
M  V30 7077 H 647.408 -2.14751 2.09338 0
M  V30 7078 H 644.961 -1.09272 1.11756 0
M  V30 7079 H 645.696 -3.23428 -0.23771 0
M  V30 7080 H 645.481 -3.62562 1.49302 0
M  V30 7081 H 646.971 -4.12681 0.639058 0
M  V30 7082 N 647.408 -1.11026 -1.11852 0
M  V30 7083 C 648.338 -0.786812 -2.19844 0
M  V30 7084 C 649.319 0.242935 -1.68356 0
M  V30 7085 O 650.504 0.107355 -1.93903 0
M  V30 7086 C 647.634 -0.224516 -3.46574 0
M  V30 7087 C 646.588 -1.18564 -4.1125 0
M  V30 7088 C 645.914 -0.484261 -5.32503 0
M  V30 7089 C 647.214 -2.53465 -4.56676 0
M  V30 7090 H 648.908 -1.68978 -2.47158 0
M  V30 7091 H 646.454 -0.813906 -1.18792 0
M  V30 7092 H 648.407 0.0139435 -4.21398 0
M  V30 7093 H 647.131 0.713722 -3.18706 0
M  V30 7094 H 645.79 -1.40966 -3.38414 0
M  V30 7095 H 645.438 0.458646 -5.00905 0
M  V30 7096 H 645.138 -1.12526 -5.76725 0
M  V30 7097 H 646.662 -0.254492 -6.10069 0
M  V30 7098 H 648.076 -2.35177 -5.22843 0
M  V30 7099 H 646.473 -3.13507 -5.11697 0
M  V30 7100 H 647.543 -3.13008 -3.70343 0
M  V30 7101 N 648.886 1.2938 -0.899927 0
M  V30 7102 C 649.818 2.26737 -0.335139 0
M  V30 7103 C 650.831 1.54316 0.518681 0
M  V30 7104 O 652.02 1.75313 0.335803 0
M  V30 7105 C 649.12 3.34558 0.540774 0
M  V30 7106 C 648.293 4.36455 -0.287372 0
M  V30 7107 C 647.352 5.2361 0.52141 0
M  V30 7108 O 646.378 5.69167 -0.0611735 0
M  V30 7109 N 647.58 5.50985 1.82745 0
M  V30 7110 H 650.345 2.75838 -1.17191 0
M  V30 7111 H 647.906 1.42716 -0.764438 0
M  V30 7112 H 649.898 3.89794 1.08825 0
M  V30 7113 H 648.468 2.85272 1.27823 0
M  V30 7114 H 647.688 3.80875 -1.01626 0
M  V30 7115 H 648.976 5.01573 -0.854518 0
M  V30 7116 H 648.374 5.15781 2.32349 0
M  V30 7117 H 646.931 6.09036 2.32204 0
M  V30 7118 N 650.364 0.662433 1.43002 0
M  V30 7119 C 651.274 -0.0239199 2.34588 0
M  V30 7120 C 652.29 -0.802255 1.54402 0
M  V30 7121 O 653.466 -0.747401 1.87018 0
M  V30 7122 C 650.531 -0.972098 3.32793 0
M  V30 7123 C 649.592 -0.189673 4.28881 0
M  V30 7124 C 648.825 -1.09269 5.22395 0
M  V30 7125 O 649.048 -2.33209 5.20547 0
M  V30 7126 O 647.982 -0.560136 5.99288 0
M  V30 7127 H 651.808 0.730171 2.94792 0
M  V30 7128 H 649.393 0.422635 1.43297 0
M  V30 7129 H 651.275 -1.51676 3.93157 0
M  V30 7130 H 649.95 -1.70626 2.75079 0
M  V30 7131 H 648.857 0.398794 3.71968 0
M  V30 7132 H 650.19 0.50511 4.89601 0
M  V30 7133 N 651.842 -1.52309 0.404946 0
M  V30 7134 C 653.072 -2.05886 -0.171569 0
M  V30 7135 C 653.48 -1.27527 -1.39762 0
M  V30 7136 O 652.823 -0.319215 -1.80905 0
M  V30 7137 C 652.885 -3.54609 -0.590983 0
M  V30 7138 C 652.549 -4.53989 0.523757 0
M  V30 7139 C 653.546 -5.01084 1.38604 0
M  V30 7140 C 651.231 -4.97465 0.695255 0
M  V30 7141 C 653.225 -5.90295 2.4048 0
M  V30 7142 C 650.912 -5.86473 1.71733 0
M  V30 7143 C 651.91 -6.32782 2.57051 0
M  V30 7144 O 651.598 -7.20029 3.57509 0
M  V30 7145 H 651.33 -0.675508 -0.0257763 0
M  V30 7146 H 653.884 -1.97238 0.573278 0
M  V30 7147 H 652.114 -3.60929 -1.38805 0
M  V30 7148 H 653.803 -3.90853 -1.09494 0
M  V30 7149 H 654.569 -4.68214 1.26492 0
M  V30 7150 H 650.448 -4.60982 0.0408447 0
M  V30 7151 H 653.992 -6.26363 3.07108 0
M  V30 7152 H 649.889 -6.18756 1.83877 0
M  V30 7153 H 650.657 -7.3813 3.53703 0
M  V30 7154 N 653.32 -0.135238 -1.57019 0
M  V30 7155 C 654.736 0.221262 -1.58059 0
M  V30 7156 C 654.936 1.65538 -1.14889 0
M  V30 7157 O 653.992 2.37985 -0.843751 0
M  V30 7158 C 655.305 -0.0268114 -3.00688 0
M  V30 7159 C 656.853 0.0378206 -3.12977 0
M  V30 7160 C 657.328 -0.182769 -4.57635 0
M  V30 7161 N 658.819 -0.129292 -4.6302 0
M  V30 7162 C 659.554 -0.274648 -5.72742 0
M  V30 7163 N 659.05 -0.477075 -6.91155 0
M  V30 7164 N 660.843 -0.213077 -5.61696 0
M  V30 7165 H 652.994 -1.07177 -1.83376 0
M  V30 7166 H 655.257 -0.423338 -0.848227 0
M  V30 7167 H 654.963 -1.01889 -3.36618 0
M  V30 7168 H 654.837 0.697863 -3.70688 0
M  V30 7169 H 657.224 1.02043 -2.76896 0
M  V30 7170 H 657.305 -0.718996 -2.45487 0
M  V30 7171 H 656.949 -1.16243 -4.94419 0
M  V30 7172 H 656.879 0.59423 -5.23237 0
M  V30 7173 H 659.37 0.0229896 -3.77893 0
M  V30 7174 H 659.683 -0.578413 -7.70632 0
M  V30 7175 H 658.028 -0.513252 -6.93102 0
M  V30 7176 H 661.219 -0.0557796 -4.68067 0
M  V30 7177 H 661.392 -0.329796 -6.4716 0
M  V30 7178 N 654.798 1.5699 0.138552 0
M  V30 7179 C 655.745 1.98899 1.17081 0
M  V30 7180 C 656.715 0.857922 1.42228 0
M  V30 7181 O 657.9 1.12065 1.54422 0
M  V30 7182 C 655.04 2.38189 2.4972 0
M  V30 7183 C 654.153 3.64624 2.31674 0
M  V30 7184 C 653.288 3.9298 3.57407 0
M  V30 7185 C 652.327 5.1266 3.34435 0
M  V30 7186 N 651.464 5.36983 4.5232 0
M  V30 7187 H 656.304 2.86881 0.80642 0
M  V30 7188 H 653.841 1.41925 0.386727 0
M  V30 7189 H 655.799 2.59 3.2707 0
M  V30 7190 H 654.429 1.53275 2.84089 0
M  V30 7191 H 653.481 3.51542 1.45337 0
M  V30 7192 H 654.793 4.52131 2.10664 0
M  V30 7193 H 653.947 4.14335 4.43183 0
M  V30 7194 H 652.686 3.03912 3.8143 0
M  V30 7195 H 651.691 4.9117 2.47048 0
M  V30 7196 H 652.916 6.03288 3.11802 0
M  V30 7197 H 650.862 4.50871 4.76499 0
M  V30 7198 H 650.779 6.18775 4.34343 0
M  V30 7199 H 652.047 5.62842 5.39285 0
M  V30 7200 N 656.276 -0.40816 1.52223 0
M  V30 7201 C 657.223 -1.49737 1.75635 0
M  V30 7202 C 658.193 -1.5493 0.598824 0
M  V30 7203 O 659.378 -1.71487 0.83648 0
M  V30 7204 C 656.518 -2.87174 1.91376 0
M  V30 7205 C 655.631 -2.91283 3.19027 0
M  V30 7206 C 654.766 -4.20026 3.25195 0
M  V30 7207 C 653.805 -4.18113 4.47044 0
M  V30 7208 N 652.942 -5.38429 4.50598 0
M  V30 7209 H 657.782 -1.29075 2.68596 0
M  V30 7210 H 655.319 -0.626518 1.33091 0
M  V30 7211 H 657.277 -3.66959 1.98486 0
M  V30 7212 H 655.907 -3.06329 1.01795 0
M  V30 7213 H 654.959 -2.03984 3.21084 0
M  V30 7214 H 656.271 -2.85734 4.08849 0
M  V30 7215 H 655.425 -5.08204 3.31382 0
M  V30 7216 H 654.164 -4.28271 2.33313 0
M  V30 7217 H 653.169 -3.28325 4.41002 0
M  V30 7218 H 654.394 -4.11507 5.40221 0
M  V30 7219 H 652.34 -5.4734 3.616 0
M  V30 7220 H 652.257 -5.34879 5.34266 0
M  V30 7221 H 653.525 -6.28557 4.61016 0
M  V30 7222 N 657.755 -1.42862 -0.66545 0
M  V30 7223 C 658.705 -1.43521 -1.7716 0
M  V30 7224 C 659.689 -0.305267 -1.57978 0
M  V30 7225 O 660.881 -0.548176 -1.68297 0
M  V30 7226 C 658.01 -1.34914 -3.15679 0
M  V30 7227 C 657.096 -2.5289 -3.40452 0
M  V30 7228 N 657.487 -3.78284 -3.3576 0
M  V30 7229 C 655.785 -2.47351 -3.71124 0
M  V30 7230 C 656.486 -4.56701 -3.60276 0
M  V30 7231 N 655.462 -3.87249 -3.81496 0
M  V30 7232 H 659.264 -2.38357 -1.7194 0
M  V30 7233 H 656.778 -1.37342 -0.866653 0
M  V30 7234 H 658.775 -1.33468 -3.94958 0
M  V30 7235 H 657.435 -0.410881 -3.2209 0
M  V30 7236 H 658.446 -4.10746 -3.15448 0
M  V30 7237 H 655.123 -1.62152 -3.84725 0
M  V30 7238 H 656.513 -5.65704 -3.6253 0
M  V30 7239 N 659.233 0.902656 -1.29189 0
M  V30 7240 C 660.649 1.18296 -1.07137 0
M  V30 7241 C 660.849 2.00701 0.179223 0
M  V30 7242 O 659.905 2.3675 0.877812 0
M  V30 7243 C 661.218 1.90677 -2.32514 0
M  V30 7244 C 662.766 2.03515 -2.37804 0
M  V30 7245 C 663.241 2.79307 -3.62976 0
M  V30 7246 N 664.732 2.86862 -3.63681 0
M  V30 7247 C 665.467 3.46035 -4.57217 0
M  V30 7248 N 664.963 4.06399 -5.61081 0
M  V30 7249 N 666.756 3.43681 -4.44792 0
M  V30 7250 H 658.907 0.352765 -2.0945 0
M  V30 7251 H 661.17 0.21876 -0.922414 0
M  V30 7252 H 660.876 1.3756 -3.23682 0
M  V30 7253 H 660.75 2.91169 -2.39793 0
M  V30 7254 H 663.137 2.55809 -1.47125 0
M  V30 7255 H 663.218 1.02166 -2.34512 0
M  V30 7256 H 662.862 2.2769 -4.54004 0
M  V30 7257 H 662.792 3.80995 -3.63525 0
M  V30 7258 H 665.283 2.43987 -2.88581 0
M  V30 7259 H 665.596 4.49564 -6.2858 0
M  V30 7260 H 663.941 4.0487 -5.64894 0
M  V30 7261 H 667.132 2.9574 -3.62843 0
M  V30 7262 H 667.305 3.89503 -5.17872 0
M  V30 7263 N 660.711 1.11618 1.11262 0
M  V30 7264 C 661.621 0.78898 2.20935 0
M  V30 7265 C 662.637 -0.21867 1.7262 0
M  V30 7266 O 663.813 -0.0543826 2.01327 0
M  V30 7267 C 660.878 0.239014 3.45875 0
M  V30 7268 C 659.939 1.3055 4.08968 0
M  V30 7269 C 659.172 0.781687 5.27944 0
M  V30 7270 O 659.395 -0.387605 5.69082 0
M  V30 7271 O 658.329 1.54734 5.81671 0
M  V30 7272 H 662.155 1.70477 2.51339 0
M  V30 7273 H 659.74 0.892203 1.19834 0
M  V30 7274 H 661.622 -0.0632312 4.21353 0
M  V30 7275 H 660.297 -0.649454 3.17118 0
M  V30 7276 H 659.204 1.66079 3.35214 0
M  V30 7277 H 660.537 2.16743 4.41909 0
M  V30 7278 N 662.189 -1.289 0.906776 0
M  V30 7279 C 663.099 -2.31256 0.394707 0
M  V30 7280 C 664.115 -1.66231 -0.514121 0
M  V30 7281 O 665.291 -1.97347 -0.401994 0
M  V30 7282 C 662.356 -3.44792 -0.363191 0
M  V30 7283 C 661.417 -4.25391 0.578012 0
M  V30 7284 C 660.65 -5.33506 -0.143811 0
M  V30 7285 O 660.873 -5.53786 -1.36665 0
M  V30 7286 O 659.807 -5.99673 0.5173 0
M  V30 7287 H 663.633 -2.77051 1.24405 0
M  V30 7288 H 661.218 -1.33466 0.671346 0
M  V30 7289 H 663.1 -4.139 -0.791503 0
M  V30 7290 H 661.775 -3.01093 -1.18848 0
M  V30 7291 H 660.682 -3.58899 1.05558 0
M  V30 7292 H 662.015 -4.72752 1.36992 0
M  V30 7293 O 663.706 -0.809245 -1.39762 0
M  V30 7294 H 664.397 -0.38643 -1.89806 0
M  V30 END ATOM
M  V30 BEGIN BOND
M  V30 END BOND
M  V30 END CTAB
M  END
$$$$
