drugbank_target|P10902 L-aspartate oxidase (DB03147)
 OpenBabel12092120263D

  0  0  0     0  0            999 V3000
M  V30 BEGIN CTAB
M  V30 COUNTS 8401 8497 0 0 0
M  V30 BEGIN ATOM
M  V30 1 H -0.908 1.98254 -0.117106 0
M  V30 2 N 0 1.576 0 0
M  V30 3 C 0.933 2.03868 1.02534 0
M  V30 4 C 1.911 0.928543 1.3348 0
M  V30 5 O 3.095 1.19667 1.45644 0
M  V30 6 C 0.222 2.43627 2.35294 0
M  V30 7 C -0.732 3.65373 2.2001 0
M  V30 8 S 0.101 5.13292 1.52614 0
M  V30 9 C 1.257 5.56322 2.86805 0
M  V30 10 H 1.49 2.90518 0.631377 0
M  V30 11 H -0.977 1.52953 0.210867 0
M  V30 12 H 0.981 2.67203 3.11629 0
M  V30 13 H -0.358 1.57376 2.7183 0
M  V30 14 H -1.165 3.90944 3.18086 0
M  V30 15 H -1.563 3.418 1.51819 0
M  V30 16 H 0.729 5.58782 3.83104 0
M  V30 17 H 1.672 6.56266 2.65933 0
M  V30 18 H 2.08 4.83886 2.90714 0
M  V30 19 N 1.4781 -0.272755 1.55222 0
M  V30 20 C 2.4261 -1.35705 1.88909 0
M  V30 21 C 3.4201 -1.5112 0.765456 0
M  V30 22 O 4.6261 -1.52901 0.949802 0
M  V30 23 H 1.0011 -0.453868 0.59959 0
M  V30 24 H 2.9721 -1.04544 2.79487 0
M  V30 25 C 1.7211 -2.71049 2.17779 0
M  V30 26 H 1.0441 -2.59979 3.03728 0
M  V30 27 H 2.4841 -3.45858 2.45272 0
M  V30 28 C 0.9431 -3.22165 0.985473 0
M  V30 29 O 1.4731 -4.01096 0.220233 0
M  V30 30 N -0.3209 -2.7985 0.783108 0
M  V30 31 H -0.7739 -2.15775 1.40708 0
M  V30 32 H -0.8159 -3.14397 -0.0130392 0
M  V30 33 N 2.9562 -1.48159 -0.537278 0
M  V30 34 C 4.1842 -1.59454 -1.31841 0
M  V30 35 C 4.5992 -0.252065 -1.8711 0
M  V30 36 O 3.9562 0.757621 -1.66031 0
M  V30 37 C 4.0072 -2.63546 -2.47439 0
M  V30 38 O 3.7282 -3.92583 -1.94449 0
M  V30 39 C 5.2292 -2.85212 -3.39366 0
M  V30 40 H 2.4492 -0.53785 -0.401196 0
M  V30 41 H 4.9932 -1.93932 -0.648891 0
M  V30 42 H 3.1482 -2.31946 -3.1029 0
M  V30 43 H 3.5622 -4.49629 -2.70063 0
M  V30 44 H 5.0362 -3.61863 -4.16844 0
M  V30 45 H 5.5132 -1.93765 -3.94147 0
M  V30 46 H 6.1192 -3.18086 -2.82314 0
M  V30 47 N 4.4343 0.785586 -1.36625 0
M  V30 48 C 5.3643 1.91259 -1.33949 0
M  V30 49 C 6.3453 1.68795 -0.210325 0
M  V30 50 O 7.5303 1.89854 -0.408561 0
M  V30 51 C 4.6603 3.28339 -1.13186 0
M  V30 52 C 3.6143 3.65335 -2.22967 0
M  V30 53 C 2.9403 5.00806 -1.87342 0
M  V30 54 C 4.2403 3.7352 -3.65075 0
M  V30 55 H 5.9343 1.93755 -2.28253 0
M  V30 56 H 3.4803 0.930788 -1.09874 0
M  V30 57 H 5.4333 4.06804 -1.09948 0
M  V30 58 H 4.1573 3.2624 -0.153332 0
M  V30 59 H 2.8163 2.89169 -2.25337 0
M  V30 60 H 2.4643 4.95233 -0.880545 0
M  V30 61 H 2.1643 5.26529 -2.60846 0
M  V30 62 H 3.6883 5.81687 -1.85667 0
M  V30 63 H 5.1023 4.42168 -3.64911 0
M  V30 64 H 3.4993 4.10731 -4.37516 0
M  V30 65 H 4.5693 2.74527 -3.99703 0
M  V30 66 N 5.9124 1.20967 1.01018 0
M  V30 67 C 7.3234 1.02319 1.56165 0
M  V30 68 C 7.6744 -0.418546 1.91684 0
M  V30 69 O 6.7994 -1.30096 1.72928 0
M  V30 70 C 7.3944 1.85109 2.8376 0
M  V30 71 C 5.9534 1.70809 3.35412 0
M  V30 72 C 5.1004 1.82643 2.08655 0
M  V30 73 H 8.0514 1.35065 0.833255 0
M  V30 74 H 8.0724 1.35827 3.55431 0
M  V30 75 H 7.5844 2.90035 2.57878 0
M  V30 76 H 5.6854 0.685464 3.66241 0
M  V30 77 H 5.7984 2.52467 4.07182 0
M  V30 78 H 4.1624 1.25896 2.21409 0
M  V30 79 H 4.9454 2.89066 1.85191 0
M  V30 80 N 7.3905 -1.2043 1.01659 0
M  V30 81 C 8.3005 -2.2689 0.596484 0
M  V30 82 C 9.3165 -1.70107 -0.36599 0
M  V30 83 O 10.4925 -2.00117 -0.226942 0
M  V30 84 C 7.5575 -3.4665 -0.0586659 0
M  V30 85 C 6.6185 -4.18662 0.949751 0
M  V30 86 C 5.8515 -5.32705 0.32577 0
M  V30 87 O 6.0745 -5.63656 -0.874509 0
M  V30 88 O 5.0085 -5.92803 1.04249 0
M  V30 89 H 8.8345 -2.65041 1.4828 0
M  V30 90 H 6.4195 -1.27048 0.786082 0
M  V30 91 H 8.3015 -4.19256 -0.424564 0
M  V30 92 H 6.9765 -3.10375 -0.91918 0
M  V30 93 H 5.8835 -3.48229 1.36702 0
M  V30 94 H 7.2165 -4.58878 1.78023 0
M  V30 95 N 8.8686 -0.792821 -1.36206 0
M  V30 96 C 9.8186 -0.166598 -2.27391 0
M  V30 97 C 10.8026 0.651479 -1.47121 0
M  V30 98 O 11.9946 0.510994 -1.69463 0
M  V30 99 C 9.1236 0.695033 -3.36191 0
M  V30 100 C 8.2096 -0.132019 -4.23894 0
M  V30 101 N 8.6006 -1.18822 -4.91645 0
M  V30 102 C 6.8986 0.0885952 -4.45912 0
M  V30 103 C 7.5996 -1.69198 -5.56549 0
M  V30 104 N 6.5756 -1.00065 -5.34311 0
M  V30 105 H 10.3776 -0.974947 -2.77258 0
M  V30 106 H 7.8916 -0.632616 -1.49572 0
M  V30 107 H 9.8886 1.1596 -4.00448 0
M  V30 108 H 8.5486 1.50189 -2.87877 0
M  V30 109 H 9.5596 -1.57069 -4.93507 0
M  V30 110 H 6.2366 0.865688 -4.08426 0
M  V30 111 H 7.6266 -2.57395 -6.20643 0
M  V30 112 N 10.3467 1.47872 -0.545128 0
M  V30 113 C 11.5717 2.07391 -0.0190611 0
M  V30 114 C 11.9967 1.39688 1.25971 0
M  V30 115 O 11.3547 0.467816 1.7516 0
M  V30 116 C 11.4027 3.60188 0.172335 0
M  V30 117 O 10.5067 3.9339 1.23766 0
M  V30 118 H 9.8477 0.662411 -0.0459059 0
M  V30 119 H 12.3777 1.90066 -0.757365 0
M  V30 120 H 12.3877 4.06129 0.390305 0
M  V30 121 H 11.0627 4.08865 -0.761725 0
M  V30 122 H 9.6397 3.5921 1.00114 0
M  V30 123 N 11.8248 0.280983 1.55075 0
M  V30 124 C 13.0648 -0.335234 2.01632 0
M  V30 125 C 13.4288 -1.5261 1.16508 0
M  V30 126 O 14.6298 -2.21235 1.52672 0
M  V30 127 C 12.9008 -0.702172 3.50434 0
M  V30 128 S 14.4598 -1.30409 4.18974 0
M  V30 129 H 11.2778 -0.103967 0.703358 0
M  V30 130 H 13.8798 0.404187 1.91276 0
M  V30 131 H 12.5838 0.17333 4.10034 0
M  V30 132 H 12.1148 -1.4729 3.64786 0
M  V30 133 H 14.1298 -2.59253 4.23087 0
M  V30 134 N 13.3029 -1.57598 0.00835791 0
M  V30 135 C 14.5799 -1.82172 -0.712235 0
M  V30 136 C 14.9599 -0.887873 -1.9152 0
M  V30 137 O 14.3079 0.06146 -2.28417 0
M  V30 138 C 14.5179 -3.30875 -1.11008 0
M  V30 139 C 15.8659 -3.96826 -1.51044 0
M  V30 140 O 16.8899 -3.35248 -1.20364 0
M  V30 141 O 15.7489 -5.05318 -2.08125 0
M  V30 142 H 12.8429 -0.750435 -0.347529 0
M  V30 143 H 15.3889 -1.69665 0.0344523 0
M  V30 144 H 14.1609 -3.90481 -0.252982 0
M  V30 145 H 13.7839 -3.48412 -1.9156 0
M  V30 146 N 14.781 0.264519 -1.55364 0
M  V30 147 C 16.027 0.99646 -1.76631 0
M  V30 148 C 16.36 1.85632 -0.570478 0
M  V30 149 O 15.635 1.89647 0.43175 0
M  V30 150 C 15.918 1.87187 -3.07625 0
M  V30 151 C 15.771 1.04138 -4.37579 0
M  V30 152 C 17.09 2.85749 -3.34717 0
M  V30 153 H 14.209 0.360841 -0.642622 0
M  V30 154 H 16.851 0.268218 -1.88097 0
M  V30 155 H 15.001 2.49279 -2.9798 0
M  V30 156 H 16.673 0.440517 -4.59192 0
M  V30 157 H 14.916 0.345115 -4.32425 0
M  V30 158 H 15.587 1.68729 -5.2558 0
M  V30 159 H 18.063 2.33793 -3.4421 0
M  V30 160 H 16.939 3.44136 -4.27623 0
M  V30 161 H 17.2 3.61311 -2.54768 0
M  V30 162 N 16.2591 1.48442 0.529413 0
M  V30 163 C 17.1891 1.65902 1.64313 0
M  V30 164 C 18.1701 0.507897 1.6234 0
M  V30 165 O 19.3551 0.740503 1.79528 0
M  V30 166 C 16.4851 1.69911 3.02898 0
M  V30 167 C 15.4391 2.8453 3.19729 0
M  V30 168 C 14.7651 2.73629 4.59381 0
M  V30 169 C 16.0651 4.25821 3.02447 0
M  V30 170 H 17.7591 2.5914 1.49955 0
M  V30 171 H 15.3051 1.24709 0.719982 0
M  V30 172 H 17.2581 1.80715 3.80684 0
M  V30 173 H 15.9821 0.732524 3.18279 0
M  V30 174 H 14.6411 2.73283 2.44361 0
M  V30 175 H 14.2891 1.74938 4.71599 0
M  V30 176 H 13.9891 3.50541 4.71588 0
M  V30 177 H 15.5131 2.86401 5.39265 0
M  V30 178 H 16.9271 4.37898 3.70024 0
M  V30 179 H 15.3241 5.03735 3.26146 0
M  V30 180 H 16.3941 4.42244 1.98867 0
M  V30 181 N 17.7372 -0.778329 1.37039 0
M  V30 182 C 18.9862 -1.53189 1.3121 0
M  V30 183 C 19.2992 -1.95328 -0.103095 0
M  V30 184 O 20.5052 -2.70012 -0.283826 0
M  V30 185 C 18.9612 -2.76591 2.30272 0
M  V30 186 C 18.5692 -2.41577 3.77286 0
M  V30 187 C 20.3132 -3.5455 2.33441 0
M  V30 188 C 18.2202 -3.61441 4.68096 0
M  V30 189 H 17.1502 -0.5751 0.487622 0
M  V30 190 H 19.8012 -0.853101 1.62464 0
M  V30 191 H 18.1832 -3.46326 1.92027 0
M  V30 192 H 19.3572 -1.79668 4.2433 0
M  V30 193 H 17.6722 -1.76806 3.76999 0
M  V30 194 H 20.2692 -4.43628 2.98493 0
M  V30 195 H 20.6122 -3.93936 1.34611 0
M  V30 196 H 21.1452 -2.91805 2.7036 0
M  V30 197 H 17.8842 -3.27142 5.6803 0
M  V30 198 H 17.4042 -4.22478 4.25761 0
M  V30 199 H 19.0832 -4.28335 4.8491 0
M  V30 200 N 19.2153 -1.21501 -1.00376 0
M  V30 201 C 20.4643 -1.02718 -1.73586 0
M  V30 202 C 20.7773 0.439589 -1.90596 0
M  V30 203 O 21.9833 0.746848 -2.61026 0
M  V30 204 C 20.4393 -1.78929 -3.1227 0
M  V30 205 C 20.0473 -3.29783 -3.03228 0
M  V30 206 C 21.7913 -1.68557 -3.89601 0
M  V30 207 C 19.6983 -3.98479 -4.36999 0
M  V30 208 H 18.6283 -0.380733 -0.650814 0
M  V30 209 H 21.2793 -1.45248 -1.1214 0
M  V30 210 H 19.6613 -1.29192 -3.74333 0
M  V30 211 H 20.8353 -3.86832 -2.50395 0
M  V30 212 H 19.1503 -3.40711 -2.39385 0
M  V30 213 H 21.7473 -2.17211 -4.88593 0
M  V30 214 H 22.0903 -0.644021 -4.11288 0
M  V30 215 H 22.6233 -2.15778 -3.34193 0
M  V30 216 H 19.3623 -5.02841 -4.20513 0
M  V30 217 H 18.8823 -3.46219 -4.89788 0
M  V30 218 H 20.5613 -4.03462 -5.05794 0
M  V30 219 N 20.6934 1.19889 -1.02296 0
M  V30 220 C 21.9414 1.89046 -0.714558 0
M  V30 221 C 22.2624 1.79636 0.758681 0
M  V30 222 O 21.5324 1.20292 1.54618 0
M  V30 223 H 20.1124 0.699802 -0.261317 0
M  V30 224 H 22.7744 1.45574 -1.29592 0
M  V30 225 H 21.8704 2.95524 -1.0036 0
M  V30 226 N 22.1715 0.800033 1.35784 0
M  V30 227 C 23.3965 0.388511 2.03729 0
M  V30 228 C 23.8215 -0.990481 1.5991 0
M  V30 229 O 23.1795 -1.64013 0.772612 0
M  V30 230 C 23.2275 0.4726 3.5749 0
M  V30 231 O 22.3315 -0.51646 4.09153 0
M  V30 232 H 21.6725 0.163271 0.643614 0
M  V30 233 H 24.2025 1.0841 1.73518 0
M  V30 234 H 24.2125 0.34003 4.06581 0
M  V30 235 H 22.8875 1.47848 3.88734 0
M  V30 236 H 21.4645 -0.344673 3.71304 0
M  V30 237 N 23.6496 -1.47581 0.552962 0
M  V30 238 C 24.8976 -2.02082 0.0272703 0
M  V30 239 C 25.2186 -1.4301 -1.32563 0
M  V30 240 O 24.4886 -0.603745 -1.86365 0
M  V30 241 H 23.0686 -0.746966 0.00709182 0
M  V30 242 H 25.7306 -1.81033 0.722008 0
M  V30 243 H 24.8266 -3.12034 -0.0639951 0
M  V30 244 N 25.1277 -0.289203 -1.54924 0
M  V30 245 C 26.0907 0.579144 -2.21762 0
M  V30 246 C 27.0907 1.07047 -1.1999 0
M  V30 247 O 28.2807 0.968384 -1.44803 0
M  V30 248 C 25.4127 1.80055 -2.8947 0
M  V30 249 H 26.6057 -0.00464908 -2.999 0
M  V30 250 H 24.1587 -0.0399306 -1.56249 0
M  V30 251 H 24.8937 2.42449 -2.15381 0
M  V30 252 H 24.6787 1.45602 -3.64064 0
M  V30 253 H 26.1687 2.41773 -3.40493 0
M  V30 254 N 26.6058 1.57591 -0.0167156 0
M  V30 255 C 27.5688 2.08393 0.954204 0
M  V30 256 C 28.5688 0.996531 1.26198 0
M  V30 257 O 29.7588 1.25858 1.20438 0
M  V30 258 C 26.8908 2.5394 2.27436 0
M  V30 259 H 28.0838 2.95455 0.514451 0
M  V30 260 H 25.6368 1.54582 0.231089 0
M  V30 261 H 26.3718 1.70171 2.76066 0
M  V30 262 H 26.1568 3.33371 2.06412 0
M  V30 263 H 27.6468 2.93512 2.97053 0
M  V30 264 N 28.0839 -0.256276 1.55502 0
M  V30 265 C 29.3319 -0.983672 1.76545 0
M  V30 266 C 29.6529 -1.86206 0.578982 0
M  V30 267 O 28.9229 -1.91656 -0.405577 0
M  V30 268 H 27.5029 -0.366191 0.651086 0
M  V30 269 H 30.1649 -0.276479 1.92929 0
M  V30 270 H 29.2609 -1.61087 2.67315 0
M  V30 271 N 29.562 -1.4872 -0.521534 0
M  V30 272 C 30.492 -1.66771 -1.63431 0
M  V30 273 C 31.473 -0.516499 -1.62069 0
M  V30 274 O 32.658 -0.750013 -1.79132 0
M  V30 275 C 29.788 -1.71515 -3.01993 0
M  V30 276 C 28.742 -2.86222 -3.18216 0
M  V30 277 C 28.068 -2.76061 -4.57924 0
M  V30 278 C 29.368 -4.27419 -3.00184 0
M  V30 279 H 31.062 -2.59932 -1.48579 0
M  V30 280 H 28.608 -1.25089 -0.713358 0
M  V30 281 H 30.561 -1.82731 -3.7972 0
M  V30 282 H 29.285 -0.749393 -3.17886 0
M  V30 283 H 27.944 -2.74575 -2.42908 0
M  V30 284 H 27.592 -1.77437 -4.70665 0
M  V30 285 H 27.292 -3.53037 -4.69722 0
M  V30 286 H 28.816 -2.89256 -5.37739 0
M  V30 287 H 30.23 -4.39855 -3.67697 0
M  V30 288 H 28.627 -5.05458 -3.2347 0
M  V30 289 H 29.697 -4.43293 -1.96518 0
M  V30 290 N 31.0401 0.771051 -1.3745 0
M  V30 291 C 32.2651 1.56529 -1.36065 0
M  V30 292 C 32.6901 1.88029 0.0515859 0
M  V30 293 O 32.0481 1.49282 1.02882 0
M  V30 294 C 32.0961 2.85187 -2.20683 0
M  V30 295 O 31.2001 3.79593 -1.61193 0
M  V30 296 H 30.5411 0.47411 -0.464883 0
M  V30 297 H 33.0711 0.954269 -1.80983 0
M  V30 298 H 33.0811 3.34283 -2.33921 0
M  V30 299 H 31.7561 2.61588 -3.23334 0
M  V30 300 H 30.3331 3.38239 -1.56999 0
M  V30 301 N 32.5182 1.22032 0.997298 0
M  V30 302 C 33.4482 1.01065 2.10495 0
M  V30 303 C 34.4292 -0.0669542 1.69968 0
M  V30 304 O 35.6142 0.0943987 1.9397 0
M  V30 305 C 32.7442 0.582874 3.42374 0
M  V30 306 C 31.6982 1.60592 3.96729 0
M  V30 307 C 31.0242 1.03412 5.24605 0
M  V30 308 C 32.3242 2.99478 4.27914 0
M  V30 309 H 34.0182 1.93708 2.28292 0
M  V30 310 H 31.5642 0.932761 1.09707 0
M  V30 311 H 33.5172 0.423332 4.19268 0
M  V30 312 H 32.2412 -0.379213 3.24391 0
M  V30 313 H 30.9002 1.75316 3.21963 0
M  V30 314 H 30.5482 0.063518 5.0296 0
M  V30 315 H 30.2482 1.71754 5.61938 0
M  V30 316 H 31.7722 0.886066 6.04137 0
M  V30 317 H 33.1862 2.88153 4.95622 0
M  V30 318 H 31.5832 3.64903 4.76409 0
M  V30 319 H 32.6532 3.49742 3.3587 0
M  V30 320 N 33.9963 -1.19345 1.0293 0
M  V30 321 C 34.9593 -2.20793 0.615069 0
M  V30 322 C 35.9593 -1.57553 -0.321533 0
M  V30 323 O 37.1493 -1.73862 -0.108483 0
M  V30 324 C 34.2813 -3.40754 -0.0999222 0
M  V30 325 H 35.4743 -2.58955 1.51269 0
M  V30 326 H 33.0273 -1.3303 0.820534 0
M  V30 327 H 33.7623 -3.0811 -1.01187 0
M  V30 328 H 33.5473 -3.87889 0.57309 0
M  V30 329 H 35.0373 -4.15898 -0.376645 0
M  V30 330 N 35.4744 -0.807222 -1.35358 0
M  V30 331 C 36.4044 -0.232509 -2.3234 0
M  V30 332 C 37.3854 0.642386 -1.57504 0
M  V30 333 O 38.5704 0.572526 -1.85569 0
M  V30 334 C 35.7004 0.619238 -3.41735 0
M  V30 335 C 34.6544 -0.157215 -4.27711 0
M  V30 336 C 33.9804 0.816273 -5.28433 0
M  V30 337 C 35.2804 -1.35656 -5.04376 0
M  V30 338 H 36.9744 -1.04276 -2.80654 0
M  V30 339 H 34.5204 -0.50288 -1.34934 0
M  V30 340 H 36.4734 1.03137 -4.08584 0
M  V30 341 H 35.1974 1.46239 -2.92031 0
M  V30 342 H 33.8564 -0.550525 -3.62443 0
M  V30 343 H 33.5044 1.65494 -4.74996 0
M  V30 344 H 33.2044 0.301067 -5.86828 0
M  V30 345 H 34.7284 1.22659 -5.98153 0
M  V30 346 H 36.1424 -1.01927 -5.64166 0
M  V30 347 H 34.5394 -1.8063 -5.7227 0
M  V30 348 H 35.6094 -2.14288 -4.34981 0
M  V30 349 N 36.9525 1.47285 -0.560781 0
M  V30 350 C 38.3685 1.58065 -0.22081 0
M  V30 351 C 38.5685 1.55892 1.27671 0
M  V30 352 O 37.6245 1.46422 2.0571 0
M  V30 353 C 38.9375 2.88418 -0.850625 0
M  V30 354 C 40.4855 3.02009 -0.822184 0
M  V30 355 C 40.9605 4.35066 -1.43113 0
M  V30 356 N 42.4515 4.41711 -1.39448 0
M  V30 357 C 43.1865 5.43237 -1.83525 0
M  V30 358 N 42.6825 6.51555 -2.35474 0
M  V30 359 N 44.4755 5.34304 -1.74574 0
M  V30 360 H 36.6265 1.46941 -1.53369 0
M  V30 361 H 38.8895 0.699558 -0.639783 0
M  V30 362 H 38.5955 2.95755 -1.9032 0
M  V30 363 H 38.4695 3.75612 -0.345773 0
M  V30 364 H 40.8565 2.94266 0.221714 0
M  V30 365 H 40.9375 2.16347 -1.36483 0
M  V30 366 H 40.5815 4.43565 -2.47412 0
M  V30 367 H 40.5115 5.19465 -0.863899 0
M  V30 368 H 43.0025 3.64027 -1.01452 0
M  V30 369 H 43.3155 7.25203 -2.67021 0
M  V30 370 H 41.6605 6.52435 -2.39487 0
M  V30 371 H 44.8515 4.48581 -1.33763 0
M  V30 372 H 45.0245 6.13288 -2.09242 0
M  V30 373 N 38.4306 0.297415 1.54768 0
M  V30 374 C 39.3606 -0.573494 2.26348 0
M  V30 375 C 40.3416 -1.14085 1.26169 0
M  V30 376 O 41.5266 -1.17086 1.54934 0
M  V30 377 C 38.6566 -1.74716 3.00153 0
M  V30 378 C 37.6106 -1.31032 4.07449 0
M  V30 379 C 36.9366 -2.56887 4.68949 0
M  V30 380 C 38.2366 -0.444183 5.20408 0
M  V30 381 H 39.9306 0.0235131 2.99391 0
M  V30 382 H 37.4766 0.0127488 1.43994 0
M  V30 383 H 39.4296 -2.3625 3.48947 0
M  V30 384 H 38.1536 -2.37035 2.24682 0
M  V30 385 H 36.8126 -0.718066 3.59499 0
M  V30 386 H 36.4606 -3.17512 3.90122 0
M  V30 387 H 36.1606 -2.2836 5.41411 0
M  V30 388 H 37.6846 -3.19229 5.20505 0
M  V30 389 H 39.0986 -0.9651 5.65118 0
M  V30 390 H 37.4956 -0.252846 5.99567 0
M  V30 391 H 38.5656 0.531609 4.81977 0
M  V30 392 N 39.9087 -1.5758 0.0250728 0
M  V30 393 C 40.8717 -2.08896 -0.943139 0
M  V30 394 C 41.8717 -1.00321 -1.25668 0
M  V30 395 O 43.0617 -1.26495 -1.19769 0
M  V30 396 C 40.1937 -2.55143 -2.26086 0
M  V30 397 H 41.3867 -2.95723 -0.498775 0
M  V30 398 H 38.9397 -1.54703 -0.222888 0
M  V30 399 H 39.6747 -1.71633 -2.75159 0
M  V30 400 H 39.4597 -3.34461 -2.04641 0
M  V30 401 H 40.9497 -2.95083 -2.95492 0
M  V30 402 N 41.3868 0.248026 -1.55636 0
M  V30 403 C 42.6638 0.998988 -1.68165 0
M  V30 404 C 43.0438 2.03409 -0.564621 0
M  V30 405 O 42.3918 2.24378 0.432076 0
M  V30 406 C 42.6018 1.63334 -3.0842 0
M  V30 407 C 43.9498 2.13562 -3.66983 0
M  V30 408 O 44.9738 1.73277 -3.11213 0
M  V30 409 O 43.8328 2.87526 -4.64749 0
M  V30 410 H 40.9268 0.464933 -0.683935 0
M  V30 411 H 43.4728 0.241902 -1.67967 0
M  V30 412 H 42.2448 0.884583 -3.8117 0
M  V30 413 H 41.8678 2.45666 -3.12624 0
M  V30 414 N 42.8649 1.48995 0.513639 0
M  V30 415 C 43.7969 1.60836 1.63293 0
M  V30 416 C 44.8099 0.491701 1.55197 0
M  V30 417 O 45.9989 0.763238 1.6136 0
M  V30 418 C 43.0989 1.53731 3.02027 0
M  V30 419 C 42.2719 2.80715 3.35437 0
M  V30 420 C 41.3309 2.66837 4.53525 0
M  V30 421 O 40.3569 3.40753 4.55934 0
M  V30 422 N 41.5589 1.77539 5.52684 0
M  V30 423 H 44.3239 2.57366 1.53566 0
M  V30 424 H 41.8849 1.45925 0.701259 0
M  V30 425 H 43.8769 1.42118 3.78926 0
M  V30 426 H 42.4469 0.651092 3.05744 0
M  V30 427 H 41.6669 3.06772 2.47557 0
M  V30 428 H 42.9549 3.64927 3.54551 0
M  V30 429 H 42.3529 1.16719 5.53528 0
M  V30 430 H 40.9099 1.71856 6.28736 0
M  V30 431 N 44.343 -0.763751 1.37857 0
M  V30 432 C 45.293 -1.86765 1.30777 0
M  V30 433 C 46.277 -1.59726 0.194015 0
M  V30 434 O 47.469 -1.7172 0.42911 0
M  V30 435 C 44.598 -3.24343 1.12502 0
M  V30 436 C 43.684 -3.57307 2.28456 0
M  V30 437 N 44.075 -3.61398 3.53871 0
M  V30 438 C 42.373 -3.87517 2.20786 0
M  V30 439 C 43.074 -3.91339 4.30382 0
M  V30 440 N 42.05 -4.07649 3.59615 0
M  V30 441 H 45.852 -1.88191 2.25746 0
M  V30 442 H 43.366 -0.9606 1.30944 0
M  V30 443 H 45.363 -4.03327 1.05514 0
M  V30 444 H 44.023 -3.24175 0.184574 0
M  V30 445 H 45.034 -3.43407 3.87675 0
M  V30 446 H 41.711 -3.95125 1.34844 0
M  V30 447 H 43.101 -4.01213 5.3896 0
M  V30 448 N 45.8211 -1.22559 -0.990812 0
M  V30 449 C 46.7531 -0.955325 -2.08342 0
M  V30 450 C 47.7661 0.0668408 -1.62663 0
M  V30 451 O 48.9551 -0.167421 -1.77713 0
M  V30 452 C 46.0551 -0.415566 -3.36342 0
M  V30 453 C 45.2281 -1.49544 -4.11042 0
M  V30 454 C 44.2871 -0.962399 -5.17324 0
M  V30 455 O 43.3131 -1.64907 -5.44788 0
M  V30 456 N 44.5151 0.215134 -5.80101 0
M  V30 457 H 47.2801 -1.89596 -2.32106 0
M  V30 458 H 44.8411 -1.13276 -1.15673 0
M  V30 459 H 46.8331 -0.0442386 -4.04676 0
M  V30 460 H 45.4031 0.430232 -3.09625 0
M  V30 461 H 44.6231 -2.04 -3.37309 0
M  V30 462 H 45.9111 -2.22195 -4.57719 0
M  V30 463 H 45.3091 0.789779 -5.6016 0
M  V30 464 H 43.8661 0.527826 -6.49659 0
M  V30 465 N 47.2992 1.18797 -1.03562 0
M  V30 466 C 48.5452 1.8893 -0.737113 0
M  V30 467 C 48.8782 1.79837 0.732956 0
M  V30 468 O 48.1532 1.19525 1.5344 0
M  V30 469 C 48.4362 3.39607 -1.19745 0
M  V30 470 C 48.2892 3.57537 -2.72924 0
M  V30 471 C 49.6082 4.33069 -0.783526 0
M  V30 472 H 46.7272 0.686057 -0.269249 0
M  V30 473 H 49.3692 1.39797 -1.28673 0
M  V30 474 H 47.5192 3.81583 -0.729855 0
M  V30 475 H 49.1912 3.24688 -3.27682 0
M  V30 476 H 47.4342 3.00363 -3.12993 0
M  V30 477 H 48.1052 4.63238 -3.00191 0
M  V30 478 H 50.5812 3.98846 -1.18581 0
M  V30 479 H 49.4572 5.3707 -1.13343 0
M  V30 480 H 49.7182 4.40986 0.313681 0
M  V30 481 N 48.7773 0.814389 1.34928 0
M  V30 482 C 50.0263 0.394871 1.97797 0
M  V30 483 C 50.3393 -1.04555 1.65311 0
M  V30 484 O 51.5453 -1.56856 2.21604 0
M  V30 485 C 50.0013 0.655103 3.53888 0
M  V30 486 C 49.6093 2.10858 3.95276 0
M  V30 487 C 51.3533 0.301329 4.23429 0
M  V30 488 C 49.2603 2.31415 5.44244 0
M  V30 489 H 48.1903 0.143913 0.740139 0
M  V30 490 H 50.8413 0.999544 1.53888 0
M  V30 491 H 49.2233 -0.0196253 3.95995 0
M  V30 492 H 50.3973 2.82176 3.64298 0
M  V30 493 H 48.7123 2.42297 3.38646 0
M  V30 494 H 51.3093 0.432869 5.32945 0
M  V30 495 H 51.6523 -0.75331 4.09428 0
M  V30 496 H 52.1853 0.930288 3.86769 0
M  V30 497 H 48.9243 3.35353 5.63222 0
M  V30 498 H 48.4443 1.6463 5.76764 0
M  V30 499 H 50.1233 2.13352 6.10811 0
M  V30 500 N 50.2554 -1.46986 0.568584 0
M  V30 501 C 51.5014 -2.02741 0.0488709 0
M  V30 502 C 51.8344 -1.44077 -1.30214 0
M  V30 503 O 51.1094 -0.600552 -1.84996 0
M  V30 504 C 51.3924 -3.60086 -0.032047 0
M  V30 505 C 51.2454 -4.29162 1.34686 0
M  V30 506 C 52.5644 -4.33838 -0.739798 0
M  V30 507 H 49.6834 -0.736749 0.0192338 0
M  V30 508 H 52.3254 -1.75289 0.733065 0
M  V30 509 H 50.4754 -3.83606 -0.61473 0
M  V30 510 H 52.1474 -4.16948 1.97362 0
M  V30 511 H 50.3904 -3.89073 1.91846 0
M  V30 512 H 51.0614 -5.37826 1.24285 0
M  V30 513 H 53.5374 -4.15378 -0.244939 0
M  V30 514 H 52.4134 -5.43537 -0.765406 0
M  V30 515 H 52.6744 -4.03875 -1.79827 0
M  V30 516 N 51.7335 -0.305618 -1.54608 0
M  V30 517 C 52.6635 0.561482 -2.26649 0
M  V30 518 C 53.6445 1.13415 -1.26772 0
M  V30 519 O 54.8295 1.16262 -1.55553 0
M  V30 520 C 51.9595 1.73122 -3.01075 0
M  V30 521 C 50.9135 1.2887 -4.08138 0
M  V30 522 C 50.2395 2.54396 -4.70305 0
M  V30 523 C 51.5395 0.416578 -5.20636 0
M  V30 524 H 53.2335 -0.0393902 -2.99374 0
M  V30 525 H 50.7795 -0.020385 -1.43986 0
M  V30 526 H 52.7325 2.34396 -3.50195 0
M  V30 527 H 51.4565 2.3584 -2.25936 0
M  V30 528 H 50.1155 0.698991 -3.59875 0
M  V30 529 H 49.7635 3.15439 -3.918 0
M  V30 530 H 49.4635 2.25486 -5.42614 0
M  V30 531 H 50.9875 3.16464 -5.2219 0
M  V30 532 H 52.4015 0.935116 -5.65622 0
M  V30 533 H 50.7985 0.221046 -5.99693 0
M  V30 534 H 51.8685 -0.557162 -4.81688 0
M  V30 535 N 53.2116 1.57565 -0.0334293 0
M  V30 536 C 54.4366 1.96689 0.657895 0
M  V30 537 C 54.8616 0.910057 1.64619 0
M  V30 538 O 54.2196 -0.128598 1.80843 0
M  V30 539 C 54.2676 3.34905 1.33683 0
M  V30 540 O 53.3716 3.31574 2.45219 0
M  V30 541 H 52.7126 0.641205 0.172489 0
M  V30 542 H 55.2426 2.04372 -0.0965621 0
M  V30 543 H 55.2526 3.71234 1.69262 0
M  V30 544 H 53.9276 4.11366 0.612411 0
M  V30 545 H 52.5046 3.06968 2.11719 0
M  V30 546 N 54.6897 -0.239769 1.55765 0
M  V30 547 C 55.6367 -1.29696 1.90913 0
M  V30 548 C 56.6067 -1.47478 0.764164 0
M  V30 549 O 57.7917 -1.61345 1.01845 0
M  V30 550 C 54.9317 -2.64598 2.21544 0
M  V30 551 C 54.0447 -2.54765 3.48882 0
M  V30 552 C 53.1797 -3.82069 3.69049 0
M  V30 553 C 52.2187 -3.66883 4.89963 0
M  V30 554 N 51.3557 -4.86094 5.06614 0
M  V30 555 H 56.1957 -0.990224 2.81067 0
M  V30 556 H 53.7327 -0.477684 1.39128 0
M  V30 557 H 55.6907 -3.43132 2.3731 0
M  V30 558 H 54.3207 -2.93405 1.34585 0
M  V30 559 H 53.3727 -1.67763 3.41409 0
M  V30 560 H 54.6847 -2.39457 4.37563 0
M  V30 561 H 53.8387 -4.69046 3.84812 0
M  V30 562 H 52.5777 -4.00282 2.78614 0
M  V30 563 H 51.5827 -2.78289 4.74168 0
M  V30 564 H 52.8077 -3.50157 5.81865 0
M  V30 565 H 50.7537 -5.04655 4.19117 0
M  V30 566 H 50.6707 -4.73443 5.89396 0
M  V30 567 H 51.9387 -5.74549 5.26795 0
M  V30 568 N 56.1678 -1.49265 -0.50573 0
M  V30 569 C 57.4158 -1.582 -1.25766 0
M  V30 570 C 57.7368 -0.268482 -1.93143 0
M  V30 571 O 57.0068 0.711833 -1.8251 0
M  V30 572 H 55.5868 -0.582873 -0.467191 0
M  V30 573 H 58.2488 -1.85865 -0.586525 0
M  V30 574 H 57.3448 -2.37563 -2.02412 0
M  V30 575 N 57.6459 0.756429 -1.3826 0
M  V30 576 C 59.0569 1.33359 -1.30661 0
M  V30 577 C 59.4079 1.96161 0.0388875 0
M  V30 578 O 58.5329 1.94874 0.940918 0
M  V30 579 C 59.1279 2.42477 -2.36622 0
M  V30 580 C 57.6869 2.95922 -2.3261 0
M  V30 581 C 56.8339 1.69275 -2.19639 0
M  V30 582 H 59.7849 0.55552 -1.4866 0
M  V30 583 H 59.8059 3.22345 -2.02174 0
M  V30 584 H 59.3179 1.96739 -3.34538 0
M  V30 585 H 57.4189 3.45996 -1.38267 0
M  V30 586 H 57.5319 3.50494 -3.26636 0
M  V30 587 H 55.8959 1.92793 -1.66442 0
M  V30 588 H 56.6789 1.25619 -3.19491 0
M  V30 589 N 59.124 1.23083 0.984299 0
M  V30 590 C 60.37 1.06214 1.72761 0
M  V30 591 C 60.703 -0.400584 1.90024 0
M  V30 592 O 59.978 -1.29672 1.44967 0
M  V30 593 C 60.261 1.78375 3.12817 0
M  V30 594 C 60.114 3.32296 3.03149 0
M  V30 595 C 61.433 1.54309 4.12161 0
M  V30 596 H 58.552 0.387251 0.627061 0
M  V30 597 H 61.194 1.51536 1.14616 0
M  V30 598 H 59.344 1.39848 3.62457 0
M  V30 599 H 61.016 3.8032 2.61064 0
M  V30 600 H 59.259 3.6153 2.39747 0
M  V30 601 H 59.93 3.77972 4.02295 0
M  V30 602 H 62.406 1.87791 3.71314 0
M  V30 603 H 61.282 2.07281 5.08258 0
M  V30 604 H 61.543 0.477572 4.39513 0
M  V30 605 N 60.6021 -1.18246 1.0419 0
M  V30 606 C 61.8301 -1.92195 0.766072 0
M  V30 607 C 62.2451 -1.76247 -0.676933 0
M  V30 608 O 61.6021 -1.09293 -1.46155 0
M  V30 609 C 61.6531 -3.43568 1.12442 0
M  V30 610 O 61.3741 -3.59015 2.51078 0
M  V30 611 C 62.8751 -4.34613 0.873275 0
M  V30 612 H 60.0951 -0.610114 0.279288 0
M  V30 613 H 62.6391 -1.50007 1.38989 0
M  V30 614 H 60.7941 -3.8354 0.545542 0
M  V30 615 H 61.2081 -4.5273 2.64831 0
M  V30 616 H 62.6821 -5.39374 1.17385 0
M  V30 617 H 63.1591 -4.38781 -0.191909 0
M  V30 618 H 63.7651 -4.00341 1.43551 0
M  V30 619 N 62.0802 -0.821533 -1.34494 0
M  V30 620 C 62.9902 -0.244355 -2.33324 0
M  V30 621 C 64.0062 0.620527 -1.62559 0
M  V30 622 O 65.1822 0.528754 -1.94335 0
M  V30 623 C 62.2472 0.585368 -3.41723 0
M  V30 624 C 61.3082 -0.301752 -4.28238 0
M  V30 625 C 60.5412 0.488466 -5.3146 0
M  V30 626 O 60.7642 1.72186 -5.4379 0
M  V30 627 O 59.6982 -0.12848 -6.01763 0
M  V30 628 H 63.5242 -1.06231 -2.84515 0
M  V30 629 H 61.1092 -0.583645 -1.37528 0
M  V30 630 H 62.9912 1.05747 -4.07916 0
M  V30 631 H 61.6662 1.38068 -2.92778 0
M  V30 632 H 60.5732 -0.821315 -3.64973 0
M  V30 633 H 61.9062 -1.06138 -4.8062 0
M  V30 634 N 63.5583 1.46682 -0.576371 0
M  V30 635 C 64.8063 2.02013 -0.0594163 0
M  V30 636 C 65.1273 1.45101 1.30271 0
M  V30 637 O 64.3973 0.633317 1.8538 0
M  V30 638 H 62.9773 0.746759 -0.0189745 0
M  V30 639 H 65.6393 1.79862 -0.750717 0
M  V30 640 H 64.7353 3.12097 0.014345 0
M  V30 641 N 65.0364 0.313813 1.54444 0
M  V30 642 C 66.2614 -0.296681 2.05267 0
M  V30 643 C 66.6864 -1.45757 1.18897 0
M  V30 644 O 66.0444 -1.80239 0.195886 0
M  V30 645 C 66.0924 -0.71831 3.53373 0
M  V30 646 O 65.1964 -1.82175 3.69981 0
M  V30 647 H 64.5374 -0.0554061 0.661684 0
M  V30 648 H 67.0674 0.459387 1.99376 0
M  V30 649 H 67.0774 -1.00364 3.95463 0
M  V30 650 H 65.7524 0.130821 4.15694 0
M  V30 651 H 64.3294 -1.53598 3.39797 0
M  V30 652 N 66.5145 -1.57545 0.0417849 0
M  V30 653 C 67.7425 -1.96624 -0.643928 0
M  V30 654 C 68.1575 -0.918897 -1.64929 0
M  V30 655 O 67.5145 0.0979323 -1.82237 0
M  V30 656 C 67.5655 -3.35781 -1.33914 0
M  V30 657 O 67.2865 -4.365 -0.374048 0
M  V30 658 C 68.7875 -3.89566 -2.1155 0
M  V30 659 H 66.0075 -0.647316 -0.176702 0
M  V30 660 H 68.5515 -2.04229 0.105304 0
M  V30 661 H 66.7065 -3.29357 -2.03968 0
M  V30 662 H 67.1205 -5.17248 -0.869179 0
M  V30 663 H 68.5945 -4.89242 -2.55628 0
M  V30 664 H 69.0715 -3.24488 -2.9598 0
M  V30 665 H 69.6775 -3.99298 -1.46427 0
M  V30 666 N 67.9926 0.231505 -1.5589 0
M  V30 667 C 69.2396 0.957352 -1.78441 0
M  V30 668 C 69.5676 1.84726 -0.60882 0
M  V30 669 O 68.8226 1.91416 0.40725 0
M  V30 670 C 69.1216 1.83577 -3.0665 0
M  V30 671 C 68.7876 1.09993 -4.37278 0
M  V30 672 C 67.4496 0.896629 -4.72773 0
M  V30 673 C 69.8016 0.579558 -5.17968 0
M  V30 674 C 67.1296 0.160896 -5.86479 0
M  V30 675 C 69.4816 -0.142783 -6.32439 0
M  V30 676 C 68.1456 -0.357427 -6.66542 0
M  V30 677 H 67.4156 0.35032 -0.65296 0
M  V30 678 H 70.0626 0.226259 -1.90159 0
M  V30 679 H 68.3676 2.63441 -2.90011 0
M  V30 680 H 70.0646 2.39934 -3.21298 0
M  V30 681 H 66.6546 1.26835 -4.09403 0
M  V30 682 H 70.8386 0.724125 -4.90989 0
M  V30 683 H 66.0946 -0.0157293 -6.11398 0
M  V30 684 H 70.2686 -0.553559 -6.94196 0
M  V30 685 H 67.8956 -0.929466 -7.54497 0
M  V30 686 N 69.4707 1.49531 0.497807 0
M  V30 687 C 70.7007 1.62657 1.27382 0
M  V30 688 C 71.1087 0.298488 1.86831 0
M  V30 689 O 70.4517 -0.72647 1.68725 0
M  V30 690 C 70.5137 2.6393 2.44093 0
M  V30 691 C 70.1777 4.08195 2.05489 0
M  V30 692 C 71.1747 4.949 1.59279 0
M  V30 693 C 68.8597 4.53948 2.15026 0
M  V30 694 C 70.8537 6.25397 1.23113 0
M  V30 695 C 68.5407 5.84458 1.78473 0
M  V30 696 C 69.5387 6.70006 1.32591 0
M  V30 697 O 69.2267 7.98083 0.965327 0
M  V30 698 H 68.9587 0.550429 0.392434 0
M  V30 699 H 71.5127 1.96325 0.603801 0
M  V30 700 H 69.7427 2.25449 3.14181 0
M  V30 701 H 71.4317 2.66552 3.06113 0
M  V30 702 H 72.1977 4.60779 1.51354 0
M  V30 703 H 68.0767 3.87525 2.4969 0
M  V30 704 H 71.6207 6.92125 0.872299 0
M  V30 705 H 67.5177 6.18107 1.86048 0
M  V30 706 H 68.2857 8.11122 1.09652 0
M  V30 707 N 70.9488 -0.749086 1.3866 0
M  V30 708 C 71.9118 -1.84457 1.36045 0
M  V30 709 C 72.9118 -1.58682 0.260122 0
M  V30 710 O 74.1018 -1.66343 0.517261 0
M  V30 711 C 71.2338 -3.22008 1.11911 0
M  V30 712 H 72.4268 -1.88182 2.33512 0
M  V30 713 H 69.9798 -0.951266 1.24019 0
M  V30 714 H 70.7148 -3.2395 0.150686 0
M  V30 715 H 70.4998 -3.42111 1.91579 0
M  V30 716 H 71.9898 -4.0208 1.12788 0
M  V30 717 N 72.4269 -1.23603 -0.977757 0
M  V30 718 C 73.3589 -0.977369 -2.07317 0
M  V30 719 C 74.3719 0.0495845 -1.62724 0
M  V30 720 O 75.5609 -0.186261 -1.77526 0
M  V30 721 C 72.6609 -0.451216 -3.35883 0
M  V30 722 C 71.8339 -1.53896 -4.09432 0
M  V30 723 C 70.8929 -1.01721 -5.16274 0
M  V30 724 O 69.9189 -1.70676 -5.43009 0
M  V30 725 N 71.1209 0.153594 -5.80297 0
M  V30 726 H 73.8859 -1.92047 -2.30082 0
M  V30 727 H 71.4469 -1.14497 -1.14465 0
M  V30 728 H 73.4389 -0.0871574 -4.04606 0
M  V30 729 H 72.0089 0.397368 -3.10064 0
M  V30 730 H 71.2289 -2.07566 -3.35127 0
M  V30 731 H 72.5169 -2.27037 -4.55337 0
M  V30 732 H 71.9149 0.730323 -5.60966 0
M  V30 733 H 70.4719 0.458892 -6.50183 0
M  V30 734 N 73.905 1.17692 -1.04816 0
M  V30 735 C 75.153 1.87488 -0.754497 0
M  V30 736 C 75.474 1.81205 0.720407 0
M  V30 737 O 74.744 1.23544 1.52032 0
M  V30 738 H 73.324 0.694101 -0.276102 0
M  V30 739 H 75.986 1.42793 -1.32651 0
M  V30 740 H 75.082 2.93328 -1.06606 0
M  V30 741 N 75.3831 0.828654 1.34056 0
M  V30 742 C 76.6311 0.41863 1.97717 0
M  V30 743 C 76.9521 -1.02314 1.66002 0
M  V30 744 O 76.2221 -1.71119 0.953683 0
M  V30 745 H 74.8021 0.151809 0.731412 0
M  V30 746 H 77.4641 1.05936 1.63596 0
M  V30 747 H 76.5601 0.542318 3.07352 0
M  V30 748 N 76.8612 -1.46375 0.584142 0
M  V30 749 C 78.1102 -2.01585 0.0679741 0
M  V30 750 C 78.4232 -1.46109 -1.30045 0
M  V30 751 O 79.6292 -1.93148 -1.90804 0
M  V30 752 C 78.0852 -3.5983 0.0709207 0
M  V30 753 C 77.6932 -4.24303 1.43775 0
M  V30 754 C 79.4372 -4.22693 -0.391228 0
M  V30 755 C 77.3442 -5.74631 1.39834 0
M  V30 756 H 76.2742 -0.753689 0.0216421 0
M  V30 757 H 78.9252 -1.68093 0.736001 0
M  V30 758 H 77.3072 -3.90405 -0.663299 0
M  V30 759 H 78.4812 -4.05335 2.19181 0
M  V30 760 H 76.7962 -3.73539 1.84004 0
M  V30 761 H 79.3932 -5.3289 -0.439524 0
M  V30 762 H 79.7362 -3.91728 -1.40906 0
M  V30 763 H 80.2692 -3.96749 0.288974 0
M  V30 764 H 77.0082 -6.10258 2.39303 0
M  V30 765 H 76.5282 -5.95858 0.686505 0
M  V30 766 H 78.2072 -6.37375 1.11187 0
M  V30 767 N 78.3393 -0.321999 -1.54275 0
M  V30 768 C 79.3023 0.531975 -2.22941 0
M  V30 769 C 80.3023 1.04478 -1.22234 0
M  V30 770 O 81.4923 0.937452 -1.46825 0
M  V30 771 C 78.6243 1.73874 -2.93224 0
M  V30 772 H 79.8173 -0.0682612 -2.99822 0
M  V30 773 H 77.3703 -0.0730644 -1.56129 0
M  V30 774 H 78.1053 2.37825 -2.20476 0
M  V30 775 H 77.8903 1.37847 -3.6707 0
M  V30 776 H 79.3803 2.34496 -3.45545 0
M  V30 777 N 79.8174 1.5752 -0.0501392 0
M  V30 778 C 80.7804 2.1037 0.909786 0
M  V30 779 C 81.7804 1.02308 1.24056 0
M  V30 780 O 82.9704 1.28385 1.17741 0
M  V30 781 C 80.1024 2.58708 2.21998 0
M  V30 782 H 81.2954 2.96479 0.451665 0
M  V30 783 H 78.8484 1.55038 0.198248 0
M  V30 784 H 79.5834 1.75989 2.72394 0
M  V30 785 H 79.3684 3.37675 1.99295 0
M  V30 786 H 80.8584 2.99747 2.9076 0
M  V30 787 N 81.2955 -0.223234 1.56011 0
M  V30 788 C 82.5415 -0.949279 1.79211 0
M  V30 789 C 82.8745 -1.84054 0.619494 0
M  V30 790 O 82.1495 -1.90726 -0.381317 0
M  V30 791 C 82.4325 -1.78965 3.12479 0
M  V30 792 C 82.2855 -0.924997 4.40186 0
M  V30 793 C 83.6045 -2.76774 3.42175 0
M  V30 794 H 80.7235 -0.343676 0.651963 0
M  V30 795 H 83.3655 -0.218253 1.88742 0
M  V30 796 H 81.5155 -2.41291 3.04485 0
M  V30 797 H 83.1875 -0.318615 4.60198 0
M  V30 798 H 81.4305 -0.230344 4.33188 0
M  V30 799 H 82.1015 -1.54735 5.29869 0
M  V30 800 H 84.5775 -2.24584 3.50287 0
M  V30 801 H 83.4535 -3.32678 4.36597 0
M  V30 802 H 83.7145 -3.54429 2.64258 0
M  V30 803 N 82.7736 -1.49793 -0.48987 0
M  V30 804 C 84.0206 -1.59841 -1.24327 0
M  V30 805 C 84.3486 -0.290135 -1.92324 0
M  V30 806 O 83.6036 0.722749 -1.81865 0
M  V30 807 C 83.9026 -2.71488 -2.32441 0
M  V30 808 C 83.5686 -4.12614 -1.81826 0
M  V30 809 C 82.2306 -4.51017 -1.67742 0
M  V30 810 C 84.5826 -5.00892 -1.4407 0
M  V30 811 C 81.9106 -5.75459 -1.14297 0
M  V30 812 C 84.2626 -6.25863 -0.920742 0
M  V30 813 C 82.9266 -6.63086 -0.766383 0
M  V30 814 H 82.1966 -0.584899 -0.454944 0
M  V30 815 H 84.8436 -1.83663 -0.542215 0
M  V30 816 H 83.1486 -2.4168 -3.0838 0
M  V30 817 H 84.8456 -2.76469 -2.90458 0
M  V30 818 H 81.4356 -3.82307 -1.93751 0
M  V30 819 H 85.6196 -4.7187 -1.53794 0
M  V30 820 H 80.8756 -6.02989 -1.01068 0
M  V30 821 H 85.0496 -6.9364 -0.619448 0
M  V30 822 H 82.6766 -7.59393 -0.350083 0
M  V30 823 N 84.2517 0.741722 -1.39055 0
M  V30 824 C 85.5287 1.49252 -1.26425 0
M  V30 825 C 85.9087 2.10705 0.129144 0
M  V30 826 O 85.2567 1.98045 1.13976 0
M  V30 827 C 85.4667 2.54934 -2.38347 0
M  V30 828 C 86.8147 3.21506 -2.77343 0
M  V30 829 O 87.8387 2.65245 -2.37747 0
M  V30 830 O 86.6977 4.23294 -3.45665 0
M  V30 831 H 83.7917 0.662451 -0.495064 0
M  V30 832 H 86.3377 0.776121 -1.50912 0
M  V30 833 H 85.1097 2.07857 -3.31529 0
M  V30 834 H 84.7327 3.34141 -2.15489 0
M  V30 835 N 85.7298 1.2412 0.971189 0
M  V30 836 C 86.6398 1.04747 2.09917 0
M  V30 837 C 87.6558 -0.0107162 1.73997 0
M  V30 838 O 88.8318 0.186714 2.00533 0
M  V30 839 C 85.8968 0.650828 3.40537 0
M  V30 840 C 84.9578 1.7851 3.90426 0
M  V30 841 C 84.1908 1.40729 5.14812 0
M  V30 842 O 84.4138 0.29557 5.69634 0
M  V30 843 O 83.3478 2.23168 5.58999 0
M  V30 844 H 87.1738 1.99304 2.29154 0
M  V30 845 H 84.7588 1.02908 1.08307 0
M  V30 846 H 86.6408 0.440992 4.19086 0
M  V30 847 H 85.3158 -0.265649 3.22608 0
M  V30 848 H 84.2228 2.04966 3.12953 0
M  V30 849 H 85.5558 2.68023 4.12825 0
M  V30 850 N 87.2079 -1.17134 1.05439 0
M  V30 851 C 88.4359 -1.91372 0.786414 0
M  V30 852 C 88.8509 -1.76955 -0.658202 0
M  V30 853 O 88.2079 -1.10838 -1.44987 0
M  V30 854 C 88.2589 -3.42356 1.1608 0
M  V30 855 O 87.9799 -3.56332 2.54871 0
M  V30 856 C 89.4809 -4.33663 0.919322 0
M  V30 857 H 86.7009 -0.607118 0.285743 0
M  V30 858 H 89.2449 -1.48525 1.40572 0
M  V30 859 H 87.3999 -3.82939 0.586191 0
M  V30 860 H 87.8139 -4.49896 2.69618 0
M  V30 861 H 89.2879 -5.38099 1.231 0
M  V30 862 H 89.7649 -4.38959 -0.145359 0
M  V30 863 H 90.3709 -3.98796 1.47789 0
M  V30 864 N 88.686 -0.835752 -1.33615 0
M  V30 865 C 89.963 -0.352017 -1.92406 0
M  V30 866 C 90.343 1.16225 -1.76224 0
M  V30 867 O 89.691 1.97526 -1.14873 0
M  V30 868 C 89.901 -0.795485 -3.39813 0
M  V30 869 C 91.249 -0.801703 -4.16963 0
M  V30 870 O 92.273 -0.738889 -3.48452 0
M  V30 871 O 91.132 -0.886607 -5.3926 0
M  V30 872 H 88.226 -0.0989641 -0.821057 0
M  V30 873 H 90.772 -0.921397 -1.42507 0
M  V30 874 H 89.544 -1.83795 -3.45449 0
M  V30 875 H 89.167 -0.202505 -3.97084 0
M  V30 876 N 90.1641 1.46063 -0.591896 0
M  V30 877 C 91.3891 2.07226 -0.0850314 0
M  V30 878 C 91.8141 1.43625 1.21463 0
M  V30 879 O 91.1721 0.523305 1.73583 0
M  V30 880 C 91.2201 3.60554 0.0576567 0
M  V30 881 O 90.3241 3.97128 1.11188 0
M  V30 882 H 89.6651 0.660615 -0.0669568 0
M  V30 883 H 92.1951 1.8756 -0.81745 0
M  V30 884 H 92.2051 4.07165 0.2609 0
M  V30 885 H 90.8801 4.06235 -0.891416 0
M  V30 886 H 89.4571 3.62213 0.886356 0
M  V30 887 N 91.6422 0.330177 1.54103 0
M  V30 888 C 92.8912 -0.271336 1.99867 0
M  V30 889 C 93.2042 -1.52723 1.22209 0
M  V30 890 O 94.4102 -2.20515 1.58383 0
M  V30 891 C 92.8662 -0.534032 3.55916 0
M  V30 892 C 92.4742 0.705193 4.42415 0
M  V30 893 C 94.2182 -1.09514 4.1013 0
M  V30 894 C 92.1252 0.414035 5.89949 0
M  V30 895 H 91.0552 -0.105166 0.74663 0
M  V30 896 H 93.7062 0.443429 1.78062 0
M  V30 897 H 92.0882 -1.30915 3.73734 0
M  V30 898 H 93.2622 1.4804 4.36372 0
M  V30 899 H 91.5772 1.18698 3.99124 0
M  V30 900 H 94.1742 -1.3277 5.17954 0
M  V30 901 H 94.5172 -2.04656 3.62521 0
M  V30 902 H 95.0502 -0.381038 3.95971 0
M  V30 903 H 91.7892 1.33481 6.41766 0
M  V30 904 H 91.3092 -0.323336 5.98928 0
M  V30 905 H 92.9882 0.0263105 6.46995 0
M  V30 906 N 93.1203 -1.57491 0.0584922 0
M  V30 907 C 94.3973 -1.84346 -0.653918 0
M  V30 908 C 94.7773 -0.948355 -1.88599 0
M  V30 909 O 94.1253 -0.0112403 -2.28497 0
M  V30 910 C 94.3353 -3.34239 -1.00425 0
M  V30 911 C 95.6833 -4.01431 -1.38342 0
M  V30 912 O 96.7073 -3.38907 -1.09637 0
M  V30 913 O 95.5663 -5.11683 -1.91943 0
M  V30 914 H 92.6603 -0.761112 -0.323478 0
M  V30 915 H 95.2063 -1.6947 0.0884125 0
M  V30 916 H 93.9783 -3.91089 -0.128625 0
M  V30 917 H 93.6013 -3.54329 -1.80378 0
M  V30 918 N 94.5984 0.214957 -1.56127 0
M  V30 919 C 95.8234 0.95924 -1.83884 0
M  V30 920 C 96.2484 1.7689 -0.639644 0
M  V30 921 O 95.6064 1.76566 0.411601 0
M  V30 922 C 95.6544 1.84723 -3.09693 0
M  V30 923 O 94.7584 2.94346 -2.8885 0
M  V30 924 H 94.0994 0.27125 -0.606069 0
M  V30 925 H 96.6294 0.226276 -2.03345 0
M  V30 926 H 96.6394 2.25576 -3.39969 0
M  V30 927 H 95.3144 1.25218 -3.96602 0
M  V30 928 H 93.8914 2.57391 -2.69823 0
M  V30 929 N 96.0765 1.50051 0.48192 0
M  V30 930 C 97.0265 1.64512 1.5786 0
M  V30 931 C 98.0105 0.500073 1.52932 0
M  V30 932 O 99.2025 0.753964 1.60139 0
M  V30 933 C 96.3315 1.73263 2.9637 0
M  V30 934 C 95.4175 2.93409 3.06222 0
M  V30 935 N 95.8085 4.17236 2.85915 0
M  V30 936 C 94.1065 2.91742 3.37346 0
M  V30 937 C 94.8075 4.981 3.00451 0
M  V30 938 N 93.7835 4.3184 3.30174 0
M  V30 939 H 97.5855 2.57955 1.40842 0
M  V30 940 H 95.0995 1.47086 0.688439 0
M  V30 941 H 97.0965 1.81724 3.75209 0
M  V30 942 H 95.7565 0.809711 3.14442 0
M  V30 943 H 96.7675 4.46909 2.6171 0
M  V30 944 H 93.4445 2.08907 3.61475 0
M  V30 945 H 94.8345 6.06532 2.89082 0
M  V30 946 N 97.5546 -0.734337 1.39446 0
M  V30 947 C 98.8006 -1.49613 1.36908 0
M  V30 948 C 99.1336 -1.94169 -0.0347829 0
M  V30 949 O 98.4086 -1.66833 -0.999847 0
M  V30 950 C 98.6916 -2.73534 2.34203 0
M  V30 951 C 98.5446 -2.34993 3.83534 0
M  V30 952 C 99.8636 -3.75635 2.29317 0
M  V30 953 H 96.9826 -0.542714 0.498629 0
M  V30 954 H 99.6246 -0.839597 1.70443 0
M  V30 955 H 97.7746 -3.29553 2.05736 0
M  V30 956 H 99.4466 -1.84601 4.22753 0
M  V30 957 H 97.6896 -1.67213 4.00278 0
M  V30 958 H 98.3606 -3.23738 4.47099 0
M  V30 959 H 100.837 -3.29203 2.54489 0
M  V30 960 H 99.7126 -4.60008 2.99472 0
M  V30 961 H 99.9736 -4.22603 1.29842 0
M  V30 962 N 99.0327 -1.24633 -0.964593 0
M  V30 963 C 99.9427 -1.05859 -2.09359 0
M  V30 964 C 100.959 0.00148855 -1.74 0
M  V30 965 O 102.135 -0.197346 -2.00431 0
M  V30 966 C 99.1997 -0.668879 -3.40187 0
M  V30 967 C 98.2607 -1.80578 -3.89474 0
M  V30 968 C 97.4937 -1.43457 -5.14058 0
M  V30 969 O 97.7167 -0.325775 -5.69469 0
M  V30 970 O 96.6507 -2.2613 -5.57807 0
M  V30 971 H 100.477 -2.00516 -2.28094 0
M  V30 972 H 98.0617 -1.03481 -1.0776 0
M  V30 973 H 99.9437 -0.463211 -4.18846 0
M  V30 974 H 98.6187 0.248536 -3.22744 0
M  V30 975 H 97.5257 -2.06623 -3.11862 0
M  V30 976 H 98.8587 -2.70208 -4.11398 0
M  V30 977 N 100.511 1.16574 -1.06058 0
M  V30 978 C 101.788 1.83048 -0.689416 0
M  V30 979 C 102.168 1.94122 0.829443 0
M  V30 980 O 101.516 1.48249 1.7388 0
M  V30 981 C 101.726 3.20186 -1.38859 0
M  V30 982 C 103.074 3.95989 -1.53226 0
M  V30 983 O 104.098 3.29696 -1.3483 0
M  V30 984 O 102.957 5.14813 -1.83384 0
M  V30 985 H 100.051 0.790258 -0.243764 0
M  V30 986 H 102.597 1.23797 -1.16071 0
M  V30 987 H 101.369 3.07146 -2.4244 0
M  V30 988 H 100.992 3.87112 -0.907216 0
M  V30 989 N 101.989 0.842826 1.3317 0
M  V30 990 C 103.217 0.454055 2.01856 0
M  V30 991 C 103.632 -0.94587 1.63397 0
M  V30 992 O 102.989 -1.61534 0.849302 0
M  V30 993 C 103.04 0.569715 3.56982 0
M  V30 994 O 102.761 1.91448 3.94055 0
M  V30 995 C 104.262 0.178412 4.42941 0
M  V30 996 H 101.482 0.17979 0.646465 0
M  V30 997 H 104.026 1.1365 1.70012 0
M  V30 998 H 102.181 -0.0648587 3.87346 0
M  V30 999 H 102.595 1.90282 4.88767 0
M  V30 1000 H 104.069 0.310376 5.51127 0
M  V30 1001 H 104.546 -0.880056 4.30293 0
M  V30 1002 H 105.152 0.787579 4.17944 0
M  V30 1003 N 103.467 -1.45747 0.599634 0
M  V30 1004 C 104.397 -2.33235 -0.111306 0
M  V30 1005 C 105.378 -1.46359 -0.866781 0
M  V30 1006 O 106.563 -1.75146 -0.838904 0
M  V30 1007 C 103.693 -3.28932 -1.11451 0
M  V30 1008 C 102.647 -4.25381 -0.472772 0
M  V30 1009 C 101.973 -5.1071 -1.58365 0
M  V30 1010 C 103.273 -5.18831 0.600948 0
M  V30 1011 H 104.967 -2.92927 0.61919 0
M  V30 1012 H 102.513 -1.40857 0.299215 0
M  V30 1013 H 104.466 -3.89002 -1.62036 0
M  V30 1014 H 103.19 -2.67381 -1.8755 0
M  V30 1015 H 101.849 -3.66598 0.0121472 0
M  V30 1016 H 101.497 -4.45533 -2.33473 0
M  V30 1017 H 101.197 -5.7604 -1.15982 0
M  V30 1018 H 102.721 -5.73647 -2.09194 0
M  V30 1019 H 104.135 -5.73019 0.179491 0
M  V30 1020 H 102.532 -5.92595 0.946076 0
M  V30 1021 H 103.602 -4.6174 1.48068 0
M  V30 1022 N 104.945 -0.338344 -1.53925 0
M  V30 1023 C 106.194 0.260732 -2.00008 0
M  V30 1024 C 106.507 1.52073 -1.23017 0
M  V30 1025 O 107.713 2.19672 -1.5955 0
M  V30 1026 C 106.169 0.51515 -3.56194 0
M  V30 1027 C 105.777 -0.728645 -4.42035 0
M  V30 1028 C 107.521 1.07337 -4.10706 0
M  V30 1029 C 105.428 -0.445315 -5.89721 0
M  V30 1030 H 104.358 0.101205 -0.747177 0
M  V30 1031 H 107.009 -0.452866 -1.77824 0
M  V30 1032 H 105.391 1.28932 -3.74423 0
M  V30 1033 H 106.565 -1.50352 -4.35581 0
M  V30 1034 H 104.88 -1.20813 -3.98489 0
M  V30 1035 H 107.477 1.30022 -5.18651 0
M  V30 1036 H 107.82 2.0273 -3.63602 0
M  V30 1037 H 108.353 0.360034 -3.96167 0
M  V30 1038 H 105.092 -1.36883 -6.41049 0
M  V30 1039 H 104.612 0.291569 -5.99091 0
M  V30 1040 H 106.291 -0.0606218 -6.46972 0
M  V30 1041 N 106.423 1.57458 -0.0668435 0
M  V30 1042 C 107.386 2.11323 0.887422 0
M  V30 1043 C 108.386 1.03618 1.22964 0
M  V30 1044 O 109.576 1.29626 1.16373 0
M  V30 1045 C 106.708 2.61048 2.19242 0
M  V30 1046 H 107.901 2.96942 0.420194 0
M  V30 1047 H 105.454 1.55239 0.181793 0
M  V30 1048 H 106.189 1.78868 2.70512 0
M  V30 1049 H 105.974 3.39769 1.95702 0
M  V30 1050 H 107.464 3.02814 2.87565 0
M  V30 1051 N 107.901 -0.206675 1.56239 0
M  V30 1052 C 109.149 -0.927007 1.79586 0
M  V30 1053 C 109.47 -1.8427 0.637929 0
M  V30 1054 O 108.74 -1.92849 -0.344398 0
M  V30 1055 H 107.32 -0.345292 0.662407 0
M  V30 1056 H 109.982 -0.21496 1.93711 0
M  V30 1057 H 109.078 -1.52501 2.72305 0
M  V30 1058 N 109.379 -1.50304 -0.473955 0
M  V30 1059 C 110.342 -1.6841 -1.55469 0
M  V30 1060 C 111.342 -0.554905 -1.50922 0
M  V30 1061 O 112.532 -0.821882 -1.53593 0
M  V30 1062 C 109.664 -1.70667 -2.95102 0
M  V30 1063 H 110.857 -2.64828 -1.40733 0
M  V30 1064 H 108.41 -1.39742 -0.700132 0
M  V30 1065 H 109.145 -0.75932 -3.15285 0
M  V30 1066 H 108.93 -2.52698 -2.9981 0
M  V30 1067 H 110.42 -1.8664 -3.73571 0
M  V30 1068 N 110.857 0.726932 -1.39834 0
M  V30 1069 C 112.105 1.4837 -1.37225 0
M  V30 1070 C 112.426 1.94979 0.0284857 0
M  V30 1071 O 111.696 1.69555 0.981213 0
M  V30 1072 H 110.276 0.55043 -0.505011 0
M  V30 1073 H 112.938 0.862468 -1.74778 0
M  V30 1074 H 112.034 2.36198 -2.04003 0
M  V30 1075 N 112.336 1.25143 0.95797 0
M  V30 1076 C 113.585 1.0909 1.69654 0
M  V30 1077 C 113.898 -0.368548 1.92097 0
M  V30 1078 O 115.104 -0.649455 2.63618 0
M  V30 1079 C 113.56 1.90395 3.05414 0
M  V30 1080 C 113.168 3.4081 2.90779 0
M  V30 1081 C 114.912 1.82901 3.83076 0
M  V30 1082 C 112.819 4.14423 4.21909 0
M  V30 1083 H 111.749 0.404625 0.636235 0
M  V30 1084 H 114.4 1.4931 1.06672 0
M  V30 1085 H 112.782 1.42996 3.69281 0
M  V30 1086 H 113.956 3.95859 2.35865 0
M  V30 1087 H 112.271 3.49361 2.26575 0
M  V30 1088 H 114.868 2.35196 4.80195 0
M  V30 1089 H 115.211 0.796224 4.08615 0
M  V30 1090 H 115.744 2.28033 3.25954 0
M  V30 1091 H 112.483 5.18102 4.01561 0
M  V30 1092 H 112.003 3.64159 4.76601 0
M  V30 1093 H 113.682 4.21956 4.90471 0
M  V30 1094 N 113.814 -1.1601 1.06675 0
M  V30 1095 C 115.054 -1.88304 0.795037 0
M  V30 1096 C 115.418 -1.80062 -0.666466 0
M  V30 1097 O 116.619 -2.47319 -1.05293 0
M  V30 1098 C 114.89 -3.33664 1.28076 0
M  V30 1099 S 116.449 -4.23768 1.13868 0
M  V30 1100 H 113.267 -0.649928 0.288296 0
M  V30 1101 H 115.869 -1.4001 1.36445 0
M  V30 1102 H 114.573 -3.37203 2.33927 0
M  V30 1103 H 114.104 -3.87009 0.706253 0
M  V30 1104 H 116.119 -4.96148 0.0719668 0
M  V30 1105 N 115.292 -0.849877 -1.32721 0
M  V30 1106 C 116.569 -0.372405 -1.92022 0
M  V30 1107 C 116.949 1.1435 -1.77447 0
M  V30 1108 O 116.297 1.96296 -1.16962 0
M  V30 1109 C 116.507 -0.831482 -3.3895 0
M  V30 1110 C 117.855 -0.845882 -4.16089 0
M  V30 1111 O 118.879 -0.775806 -3.47649 0
M  V30 1112 O 117.738 -0.943753 -5.38289 0
M  V30 1113 H 114.832 -0.107667 -0.819961 0
M  V30 1114 H 117.378 -0.93646 -1.41522 0
M  V30 1115 H 116.15 -1.87448 -3.4348 0
M  V30 1116 H 115.773 -0.24461 -3.96847 0
M  V30 1117 N 116.77 1.45427 -0.607355 0
M  V30 1118 C 118.186 1.57283 -0.270985 0
M  V30 1119 C 118.386 1.59875 1.22647 0
M  V30 1120 O 117.442 1.52893 2.00948 0
M  V30 1121 C 118.755 2.85566 -0.941952 0
M  V30 1122 C 120.303 2.9924 -0.917849 0
M  V30 1123 C 120.778 4.30293 -1.56882 0
M  V30 1124 N 122.269 4.37051 -1.5343 0
M  V30 1125 C 123.004 5.37123 -2.00715 0
M  V30 1126 N 122.5 6.43734 -2.56084 0
M  V30 1127 N 124.293 5.28479 -1.91484 0
M  V30 1128 H 116.444 1.41988 -1.57966 0
M  V30 1129 H 118.707 0.67885 -0.661715 0
M  V30 1130 H 118.413 2.8955 -1.99633 0
M  V30 1131 H 118.287 3.74322 -0.465096 0
M  V30 1132 H 120.674 2.94822 0.127984 0
M  V30 1133 H 120.755 2.11895 -1.43297 0
M  V30 1134 H 120.399 4.35469 -2.61398 0
M  V30 1135 H 120.329 5.16454 -1.02873 0
M  V30 1136 H 122.82 3.60615 -1.12982 0
M  V30 1137 H 123.133 7.16341 -2.89958 0
M  V30 1138 H 121.478 6.44485 -2.60122 0
M  V30 1139 H 124.669 4.44098 -1.47967 0
M  V30 1140 H 124.842 6.0632 -2.28648 0
M  V30 1141 N 118.248 0.346503 1.53744 0
M  V30 1142 C 119.198 -0.524953 2.21874 0
M  V30 1143 C 120.182 -1.06376 1.20718 0
M  V30 1144 O 121.374 -0.996972 1.46251 0
M  V30 1145 C 118.503 -1.6739 2.99726 0
M  V30 1146 C 117.589 -1.14888 4.08242 0
M  V30 1147 N 117.98 -0.345329 5.0462 0
M  V30 1148 C 116.278 -1.4255 4.22606 0
M  V30 1149 C 116.979 -0.0600706 5.81669 0
M  V30 1150 N 115.955 -0.65252 5.39669 0
M  V30 1151 H 119.757 0.0960091 2.93743 0
M  V30 1152 H 117.271 0.15352 1.61673 0
M  V30 1153 H 119.268 -2.3102 3.47038 0
M  V30 1154 H 117.928 -2.29811 2.29384 0
M  V30 1155 H 118.939 0.0138439 5.17898 0
M  V30 1156 H 115.616 -2.05389 3.63486 0
M  V30 1157 H 117.006 0.588321 6.69319 0
M  V30 1158 N 119.726 -1.57421 0.075193 0
M  V30 1159 C 120.689 -2.11791 -0.876203 0
M  V30 1160 C 121.689 -1.04268 -1.22412 0
M  V30 1161 O 122.879 -1.30242 -1.15684 0
M  V30 1162 C 120.011 -2.62207 -2.17854 0
M  V30 1163 H 121.204 -2.9716 -0.40444 0
M  V30 1164 H 118.757 -1.55333 -0.173557 0
M  V30 1165 H 119.492 -1.803 -2.6956 0
M  V30 1166 H 119.277 -3.40802 -1.93897 0
M  V30 1167 H 120.767 -3.04335 -2.85955 0
M  V30 1168 N 121.204 0.198386 -1.56346 0
M  V30 1169 C 122.45 0.920648 -1.80698 0
M  V30 1170 C 122.783 1.83045 -0.648697 0
M  V30 1171 O 122.058 1.91308 0.350925 0
M  V30 1172 C 122.341 1.73971 -3.15287 0
M  V30 1173 C 122.194 0.85485 -4.41602 0
M  V30 1174 C 123.513 2.71296 -3.46535 0
M  V30 1175 H 120.632 0.333261 -0.657348 0
M  V30 1176 H 123.274 0.188198 -1.89066 0
M  V30 1177 H 121.424 2.36416 -3.08285 0
M  V30 1178 H 123.096 0.245362 -4.60647 0
M  V30 1179 H 121.339 0.161398 -4.335 0
M  V30 1180 H 122.01 1.46286 -5.32264 0
M  V30 1181 H 124.486 2.18983 -3.53816 0
M  V30 1182 H 123.362 3.2569 -4.41834 0
M  V30 1183 H 123.623 3.5018 -2.69864 0
M  V30 1184 N 122.682 1.50554 0.465978 0
M  V30 1185 C 123.592 1.72585 1.58907 0
M  V30 1186 C 124.608 0.60911 1.6299 0
M  V30 1187 O 125.784 0.88804 1.80765 0
M  V30 1188 C 122.849 1.81995 2.95091 0
M  V30 1189 C 121.91 3.05751 3.01355 0
M  V30 1190 C 121.143 3.14702 4.31043 0
M  V30 1191 O 121.366 2.30313 5.21835 0
M  V30 1192 O 120.3 4.07468 4.43005 0
M  V30 1193 H 124.126 2.67799 1.43239 0
M  V30 1194 H 121.711 1.34711 0.646013 0
M  V30 1195 H 123.593 1.90335 3.75966 0
M  V30 1196 H 122.268 0.899659 3.10947 0
M  V30 1197 H 121.175 3.02908 2.19539 0
M  V30 1198 H 122.508 3.97375 2.90437 0
M  V30 1199 N 124.16 -0.719506 1.40217 0
M  V30 1200 C 125.407 -1.47933 1.38283 0
M  V30 1201 C 125.735 -1.94493 -0.0161536 0
M  V30 1202 O 124.99 -1.68224 -0.999956 0
M  V30 1203 C 125.289 -2.72271 2.31524 0
M  V30 1204 C 124.955 -2.44496 3.78857 0
M  V30 1205 C 123.617 -2.36631 4.18998 0
M  V30 1206 C 125.969 -2.21104 4.71977 0
M  V30 1207 C 123.297 -2.03437 5.503 0
M  V30 1208 C 125.649 -1.89423 6.03574 0
M  V30 1209 C 124.313 -1.80038 6.42762 0
M  V30 1210 H 123.583 -0.541325 0.506012 0
M  V30 1211 H 126.23 -0.824502 1.72842 0
M  V30 1212 H 124.535 -3.42572 1.90137 0
M  V30 1213 H 126.232 -3.30348 2.27313 0
M  V30 1214 H 122.822 -2.51503 3.47051 0
M  V30 1215 H 127.006 -2.26139 4.41786 0
M  V30 1216 H 122.262 -1.94705 5.79569 0
M  V30 1217 H 126.436 -1.70336 6.75247 0
M  V30 1218 H 124.063 -1.54083 7.44421 0
M  V30 1219 N 125.638 -1.25649 -0.95132 0
M  V30 1220 C 126.884 -1.10757 -1.69884 0
M  V30 1221 C 127.217 0.350061 -1.91019 0
M  V30 1222 O 126.492 1.25783 -1.48354 0
M  V30 1223 C 126.775 -1.86606 -3.07978 0
M  V30 1224 C 126.628 -3.40217 -2.94232 0
M  V30 1225 C 127.947 -1.65182 -4.07925 0
M  V30 1226 H 125.066 -0.40374 -0.616574 0
M  V30 1227 H 127.708 -1.54521 -1.10558 0
M  V30 1228 H 125.858 -1.49409 -3.58621 0
M  V30 1229 H 127.53 -3.87108 -2.50889 0
M  V30 1230 H 125.773 -3.67759 -2.30078 0
M  V30 1231 H 126.444 -3.88505 -3.92133 0
M  V30 1232 H 128.92 -1.9757 -3.66204 0
M  V30 1233 H 127.796 -2.20683 -5.02583 0
M  V30 1234 H 128.057 -0.593933 -4.38092 0
M  V30 1235 N 127.117 1.15442 -1.07289 0
M  V30 1236 C 128.08 2.18358 -0.696591 0
M  V30 1237 C 129.08 1.58637 0.262837 0
M  V30 1238 O 130.27 1.74145 0.0438809 0
M  V30 1239 C 127.402 3.4089 -0.0266151 0
M  V30 1240 H 128.595 2.53162 -1.60776 0
M  V30 1241 H 126.148 1.29893 -0.869342 0
M  V30 1242 H 126.883 3.11653 0.896822 0
M  V30 1243 H 126.668 3.85495 -0.716657 0
M  V30 1244 H 128.158 4.17009 0.222028 0
M  V30 1245 N 128.595 0.856903 1.32268 0
M  V30 1246 C 129.82 0.474569 2.01897 0
M  V30 1247 C 130.245 -0.921766 1.63967 0
M  V30 1248 O 129.603 -1.60589 0.84148 0
M  V30 1249 C 129.651 0.623799 3.55164 0
M  V30 1250 O 128.755 -0.342459 4.10976 0
M  V30 1251 H 128.096 0.190422 0.63611 0
M  V30 1252 H 130.626 1.15672 1.68764 0
M  V30 1253 H 130.636 0.512169 4.04773 0
M  V30 1254 H 129.311 1.64202 3.82113 0
M  V30 1255 H 127.888 -0.18688 3.72431 0
M  V30 1256 N 130.073 -1.45103 0.615059 0
M  V30 1257 C 131.021 -2.32331 -0.111791 0
M  V30 1258 C 132.015 -1.46409 -0.852102 0
M  V30 1259 O 133.221 -1.62849 -0.766821 0
M  V30 1260 H 129.596 -0.749993 -0.0549072 0
M  V30 1261 H 131.567 -2.91407 0.642225 0
M  V30 1262 C 130.316 -3.3015 -1.09071 0
M  V30 1263 H 129.639 -3.96265 -0.530485 0
M  V30 1264 H 131.079 -3.93898 -1.56908 0
M  V30 1265 C 129.538 -2.57875 -2.168 0
M  V30 1266 O 130.068 -2.36567 -3.24652 0
M  V30 1267 N 128.274 -2.17884 -1.92289 0
M  V30 1268 H 127.821 -2.35413 -1.04587 0
M  V30 1269 H 127.779 -1.6985 -2.64572 0
M  V30 1270 N 131.551 -0.354651 -1.53558 0
M  V30 1271 C 132.514 0.484566 -2.24019 0
M  V30 1272 C 133.514 1.01861 -1.24422 0
M  V30 1273 O 134.704 0.906097 -1.4878 0
M  V30 1274 C 131.836 1.67615 -2.96847 0
M  V30 1275 H 133.029 -0.131843 -2.9961 0
M  V30 1276 H 130.582 -0.106165 -1.55939 0
M  V30 1277 H 131.317 2.33095 -2.25471 0
M  V30 1278 H 131.102 1.30029 -3.69912 0
M  V30 1279 H 132.592 2.27114 -3.50441 0
M  V30 1280 N 133.029 1.57378 -0.0835403 0
M  V30 1281 C 134.445 1.57246 0.273109 0
M  V30 1282 C 134.645 1.09385 1.69225 0
M  V30 1283 O 133.701 0.765051 2.40631 0
M  V30 1284 C 135.014 3.00614 0.0720628 0
M  V30 1285 C 136.562 3.12684 0.1407 0
M  V30 1286 C 137.037 4.57989 -0.0322094 0
M  V30 1287 N 138.528 4.63194 0.0230085 0
M  V30 1288 C 139.263 5.73335 -0.0861941 0
M  V30 1289 N 138.759 6.9235 -0.24958 0
M  V30 1290 N 140.552 5.62093 -0.0282886 0
M  V30 1291 H 132.703 1.86801 -1.0109 0
M  V30 1292 H 134.966 0.861687 -0.395222 0
M  V30 1293 H 134.672 3.39786 -0.907662 0
M  V30 1294 H 134.546 3.68193 0.81936 0
M  V30 1295 H 136.933 2.73391 1.11092 0
M  V30 1296 H 137.014 2.47719 -0.637896 0
M  V30 1297 H 136.658 4.97973 -0.999247 0
M  V30 1298 H 136.588 5.21 0.765937 0
M  V30 1299 H 139.079 3.77613 0.14722 0
M  V30 1300 H 139.392 7.72117 -0.324733 0
M  V30 1301 H 137.737 6.94415 -0.285097 0
M  V30 1302 H 140.928 4.67997 0.0981408 0
M  V30 1303 H 141.101 6.47895 -0.116845 0
M  V30 1304 N 134.507 -0.190092 1.56449 0
M  V30 1305 C 135.732 -0.929864 1.85387 0
M  V30 1306 C 136.157 -1.7585 0.667704 0
M  V30 1307 O 135.515 -1.77198 -0.383459 0
M  V30 1308 C 135.563 -1.79773 3.12593 0
M  V30 1309 O 134.667 -2.89713 2.93496 0
M  V30 1310 H 134.008 -0.261574 0.610307 0
M  V30 1311 H 136.538 -0.193896 2.03679 0
M  V30 1312 H 136.548 -2.20139 3.43515 0
M  V30 1313 H 135.223 -1.18892 3.98544 0
M  V30 1314 H 133.8 -2.53065 2.73884 0
M  V30 1315 N 135.985 -1.50799 -0.457987 0
M  V30 1316 C 137.225 -1.64088 -1.21879 0
M  V30 1317 C 137.589 -0.339848 -1.88968 0
M  V30 1318 O 138.79 -0.348301 -2.66534 0
M  V30 1319 C 137.061 -2.79726 -2.2246 0
M  V30 1320 S 138.62 -3.13225 -3.07303 0
M  V30 1321 H 135.438 -0.578314 -0.41361 0
M  V30 1322 H 138.04 -1.88632 -0.513645 0
M  V30 1323 H 136.744 -3.72722 -1.71775 0
M  V30 1324 H 136.275 -2.57308 -2.97584 0
M  V30 1325 H 138.29 -2.58062 -4.23814 0
M  V30 1326 N 137.463 0.71206 -1.40597 0
M  V30 1327 C 138.709 1.47416 -1.39271 0
M  V30 1328 C 139.042 1.942 0.00388791 0
M  V30 1329 O 138.317 1.68403 0.973179 0
M  V30 1330 C 138.6 2.69774 -2.38525 0
M  V30 1331 C 138.453 2.28861 -3.87224 0
M  V30 1332 C 139.772 3.71939 -2.35264 0
M  V30 1333 H 136.891 0.534713 -0.5072 0
M  V30 1334 H 139.533 0.812375 -1.71757 0
M  V30 1335 H 137.683 3.26238 -2.10953 0
M  V30 1336 H 139.355 1.77852 -4.25636 0
M  V30 1337 H 137.598 1.60824 -4.02887 0
M  V30 1338 H 138.269 3.16584 -4.52193 0
M  V30 1339 H 140.745 3.25113 -2.59694 0
M  V30 1340 H 139.621 4.55186 -3.06753 0
M  V30 1341 H 139.882 4.20484 -1.36549 0
M  V30 1342 N 138.941 1.26152 0.944643 0
M  V30 1343 C 139.873 1.03199 2.04652 0
M  V30 1344 C 140.886 -0.00642356 1.62799 0
M  V30 1345 O 142.075 0.233263 1.76969 0
M  V30 1346 C 139.175 0.540111 3.34568 0
M  V30 1347 C 138.348 1.64697 4.05208 0
M  V30 1348 C 137.407 1.15374 5.13396 0
M  V30 1349 O 136.433 1.85013 5.38293 0
M  V30 1350 N 137.635 0.00031529 5.805 0
M  V30 1351 H 140.4 1.9808 2.2491 0
M  V30 1352 H 137.961 1.17491 1.11389 0
M  V30 1353 H 139.953 0.194401 4.04233 0
M  V30 1354 H 138.523 -0.315021 3.11009 0
M  V30 1355 H 137.743 2.16379 3.29506 0
M  V30 1356 H 139.031 2.3903 4.49157 0
M  V30 1357 H 138.429 -0.581336 5.62705 0
M  V30 1358 H 136.986 -0.286346 6.51171 0
M  V30 1359 N 140.419 -1.14872 1.07899 0
M  V30 1360 C 141.665 -1.86289 0.81657 0
M  V30 1361 C 142.02 -1.8107 -0.65049 0
M  V30 1362 O 141.313 -1.22684 -1.47171 0
M  V30 1363 C 141.507 -3.34223 1.26609 0
M  V30 1364 C 141.336 -3.53846 2.77531 0
M  V30 1365 C 140.106 -3.68995 3.45212 0
M  V30 1366 C 142.304 -3.51201 3.75716 0
M  V30 1367 N 140.286 -3.76725 4.84718 0
M  V30 1368 C 141.657 -3.65112 5.01092 0
M  V30 1369 C 143.712 -3.34507 3.68794 0
M  V30 1370 C 142.415 -3.64056 6.20368 0
M  V30 1371 C 144.441 -3.34752 4.8754 0
M  V30 1372 C 143.803 -3.49199 6.11751 0
M  V30 1373 H 139.902 -0.698579 0.351443 0
M  V30 1374 H 142.486 -1.37713 1.37634 0
M  V30 1375 H 140.657 -3.81402 0.73395 0
M  V30 1376 H 142.389 -3.93377 0.95062 0
M  V30 1377 H 139.144 -3.70006 2.95622 0
M  V30 1378 H 139.568 -3.8432 5.5734 0
M  V30 1379 H 144.21 -3.22253 2.73702 0
M  V30 1380 H 141.928 -3.75087 7.15776 0
M  V30 1381 H 145.514 -3.23055 4.83866 0
M  V30 1382 H 144.394 -3.49328 7.02097 0
M  V30 1383 N 141.898 -0.863906 -1.31812 0
M  V30 1384 C 142.828 -0.330843 -2.31144 0
M  V30 1385 C 143.809 0.575005 -1.60087 0
M  V30 1386 O 144.994 0.493304 -1.8783 0
M  V30 1387 C 142.124 0.47374 -3.44054 0
M  V30 1388 C 141.078 -0.338481 -4.26659 0
M  V30 1389 C 140.404 0.591412 -5.31419 0
M  V30 1390 C 141.704 -1.56926 -4.98168 0
M  V30 1391 H 143.398 -1.16086 -2.75979 0
M  V30 1392 H 140.944 -0.559657 -1.32679 0
M  V30 1393 H 142.897 0.857143 -4.12591 0
M  V30 1394 H 141.621 1.33721 -2.9797 0
M  V30 1395 H 140.28 -0.703754 -3.59782 0
M  V30 1396 H 139.928 1.45199 -4.81587 0
M  V30 1397 H 139.628 0.0519022 -5.87577 0
M  V30 1398 H 141.152 0.97179 -6.02817 0
M  V30 1399 H 142.566 -1.25764 -5.59336 0
M  V30 1400 H 140.963 -2.04739 -5.64094 0
M  V30 1401 H 142.033 -2.32544 -4.25501 0
M  V30 1402 N 143.376 1.44774 -0.622745 0
M  V30 1403 C 144.625 2.01334 -0.121397 0
M  V30 1404 C 144.938 1.49505 1.26125 0
M  V30 1405 O 146.144 1.98139 1.85616 0
M  V30 1406 C 144.6 3.59516 -0.166298 0
M  V30 1407 C 144.208 4.20342 -1.54974 0
M  V30 1408 C 145.952 4.23582 0.279021 0
M  V30 1409 C 143.859 5.70721 -1.55021 0
M  V30 1410 H 142.789 0.752851 -0.0416172 0
M  V30 1411 H 145.44 1.66083 -0.780309 0
M  V30 1412 H 143.822 3.92027 0.559557 0
M  V30 1413 H 144.996 3.99381 -2.29851 0
M  V30 1414 H 143.311 3.68529 -1.93843 0
M  V30 1415 H 145.908 5.33868 0.298083 0
M  V30 1416 H 146.251 3.95327 1.30471 0
M  V30 1417 H 146.784 3.95843 -0.394063 0
M  V30 1418 H 143.523 6.03698 -2.55399 0
M  V30 1419 H 143.043 5.93829 -0.844245 0
M  V30 1420 H 144.722 6.34203 -1.28047 0
M  V30 1421 N 144.854 0.36279 1.53368 0
M  V30 1422 C 146.131 -0.284021 1.93527 0
M  V30 1423 C 146.511 -1.66628 1.29608 0
M  V30 1424 O 145.859 -2.23942 0.45413 0
M  V30 1425 C 146.069 -0.337028 3.47369 0
M  V30 1426 C 147.417 -0.578708 4.20638 0
M  V30 1427 O 148.441 -0.418352 3.53735 0
M  V30 1428 O 147.3 -0.89074 5.39192 0
M  V30 1429 H 144.394 -0.169743 0.809393 0
M  V30 1430 H 146.94 0.41537 1.64538 0
M  V30 1431 H 145.712 0.632217 3.86159 0
M  V30 1432 H 145.335 -1.08243 3.82582 0
M  V30 1433 N 146.332 -1.57332 0.0918853 0
M  V30 1434 C 147.264 -2.10869 -0.898168 0
M  V30 1435 C 148.277 -1.04521 -1.24817 0
M  V30 1436 O 149.466 -1.31977 -1.20184 0
M  V30 1437 C 146.566 -2.57083 -2.2082 0
M  V30 1438 C 145.739 -3.87229 -2.03402 0
M  V30 1439 C 144.798 -4.19324 -3.17889 0
M  V30 1440 O 143.824 -4.88598 -2.91994 0
M  V30 1441 N 145.026 -3.74471 -4.43567 0
M  V30 1442 H 147.791 -2.96439 -0.440943 0
M  V30 1443 H 145.352 -1.61631 -0.0933064 0
M  V30 1444 H 147.344 -2.75602 -2.96354 0
M  V30 1445 H 145.914 -1.76541 -2.57977 0
M  V30 1446 H 145.134 -3.7789 -1.12218 0
M  V30 1447 H 146.422 -4.72379 -1.89038 0
M  V30 1448 H 145.82 -3.18546 -4.67488 0
M  V30 1449 H 144.377 -3.98151 -5.16061 0
M  V30 1450 N 147.81 0.181792 -1.56548 0
M  V30 1451 C 149.058 0.89832 -1.81038 0
M  V30 1452 C 149.379 1.83232 -0.667164 0
M  V30 1453 O 148.649 1.93372 0.313673 0
M  V30 1454 H 147.229 0.33471 -0.667816 0
M  V30 1455 H 149.891 0.184116 -1.94028 0
M  V30 1456 H 148.987 1.4815 -2.74696 0
M  V30 1457 N 149.288 1.51039 0.449983 0
M  V30 1458 C 150.534 1.63322 1.20223 0
M  V30 1459 C 150.867 0.34241 1.91158 0
M  V30 1460 O 150.142 -0.657344 1.83055 0
M  V30 1461 C 150.425 2.82801 2.22925 0
M  V30 1462 C 150.278 4.21823 1.56157 0
M  V30 1463 C 151.597 2.97807 3.24035 0
M  V30 1464 H 148.716 0.594407 0.435718 0
M  V30 1465 H 151.358 1.83489 0.493136 0
M  V30 1466 H 149.508 2.65738 2.834 0
M  V30 1467 H 151.18 4.50526 0.991162 0
M  V30 1468 H 149.423 4.25105 0.864172 0
M  V30 1469 H 150.094 5.01391 2.30891 0
M  V30 1470 H 152.57 3.13497 2.73603 0
M  V30 1471 H 151.446 3.82992 3.93202 0
M  V30 1472 H 151.707 2.09328 3.89402 0
M  V30 1473 N 150.766 -0.704594 1.40972 0
M  V30 1474 C 151.696 -1.83124 1.44872 0
M  V30 1475 C 152.677 -1.67281 0.30838 0
M  V30 1476 O 153.862 -1.87149 0.518556 0
M  V30 1477 C 150.992 -3.21181 1.32136 0
M  V30 1478 C 149.946 -3.51714 2.43888 0
M  V30 1479 C 149.272 -4.89032 2.16222 0
M  V30 1480 C 150.572 -3.516 3.86232 0
M  V30 1481 H 152.266 -1.80117 2.39161 0
M  V30 1482 H 149.812 -0.865145 1.15114 0
M  V30 1483 H 151.765 -3.99702 1.33479 0
M  V30 1484 H 150.489 -3.24791 0.343279 0
M  V30 1485 H 149.148 -2.75539 2.41813 0
M  V30 1486 H 148.796 -4.89256 1.16778 0
M  V30 1487 H 148.496 -5.10426 2.911 0
M  V30 1488 H 150.02 -5.69873 2.19265 0
M  V30 1489 H 151.434 -4.2014 3.9007 0
M  V30 1490 H 149.831 -3.84523 4.60719 0
M  V30 1491 H 150.901 -2.50757 4.15029 0
M  V30 1492 N 152.244 -1.26651 -0.937939 0
M  V30 1493 C 153.491 -1.12387 -1.6845 0
M  V30 1494 C 153.819 0.332208 -1.91642 0
M  V30 1495 O 153.074 1.2602 -1.49725 0
M  V30 1496 C 153.373 -1.84168 -3.06295 0
M  V30 1497 C 153.039 -3.34056 -3.02849 0
M  V30 1498 C 151.701 -3.74942 -3.01616 0
M  V30 1499 C 154.053 -4.29741 -2.9491 0
M  V30 1500 C 151.381 -5.09894 -2.90215 0
M  V30 1501 C 153.733 -5.64738 -2.8505 0
M  V30 1502 C 152.397 -6.0493 -2.82162 0
M  V30 1503 H 151.667 -0.411252 -0.616403 0
M  V30 1504 H 154.314 -1.57134 -1.09459 0
M  V30 1505 H 152.619 -1.319 -3.6893 0
M  V30 1506 H 154.316 -1.70569 -3.62915 0
M  V30 1507 H 150.906 -3.01534 -3.0459 0
M  V30 1508 H 155.09 -3.99133 -2.94969 0
M  V30 1509 H 150.346 -5.40194 -2.86358 0
M  V30 1510 H 154.52 -6.38561 -2.77872 0
M  V30 1511 H 152.147 -7.09457 -2.73084 0
M  V30 1512 N 153.722 1.14298 -1.08507 0
M  V30 1513 C 154.999 1.81544 -0.728088 0
M  V30 1514 C 155.379 1.95838 0.78808 0
M  V30 1515 O 154.727 1.51904 1.70697 0
M  V30 1516 C 154.937 3.17169 -1.45619 0
M  V30 1517 C 156.285 3.9265 -1.61591 0
M  V30 1518 O 157.309 3.26762 -1.41793 0
M  V30 1519 O 156.168 5.10807 -1.94263 0
M  V30 1520 H 153.262 0.78491 -0.260471 0
M  V30 1521 H 155.808 1.21307 -1.18671 0
M  V30 1522 H 154.58 3.01934 -2.489 0
M  V30 1523 H 154.203 3.851 -0.989124 0
M  V30 1524 N 155.201 0.870884 1.31352 0
M  V30 1525 C 156.429 0.49677 2.00848 0
M  V30 1526 C 156.844 -0.910998 1.65367 0
M  V30 1527 O 156.201 -1.59696 0.883374 0
M  V30 1528 C 156.252 0.645308 3.55694 0
M  V30 1529 O 155.973 1.99764 3.89905 0
M  V30 1530 C 157.474 0.272326 4.42463 0
M  V30 1531 H 154.694 0.193462 0.642506 0
M  V30 1532 H 157.238 1.1723 1.67563 0
M  V30 1533 H 155.393 0.0173176 3.87396 0
M  V30 1534 H 155.807 2.00607 4.84621 0
M  V30 1535 H 157.281 0.427208 5.50344 0
M  V30 1536 H 157.758 -0.788587 4.32062 0
M  V30 1537 H 158.364 0.876054 4.1618 0
M  V30 1538 N 156.679 -1.44442 0.630414 0
M  V30 1539 C 157.629 -2.27794 -0.0968103 0
M  V30 1540 C 158.613 -1.38624 -0.816834 0
M  V30 1541 O 159.805 -1.62438 -0.70306 0
M  V30 1542 C 156.934 -3.25929 -1.07819 0
M  V30 1543 C 156.02 -4.22588 -0.357826 0
M  V30 1544 N 156.411 -5.0207 0.613169 0
M  V30 1545 C 154.709 -4.41914 -0.602365 0
M  V30 1546 C 155.41 -5.72351 1.03871 0
M  V30 1547 N 154.386 -5.42287 0.377642 0
M  V30 1548 H 158.188 -2.86653 0.648621 0
M  V30 1549 H 155.702 -1.55871 0.455862 0
M  V30 1550 H 157.699 -3.84399 -1.61378 0
M  V30 1551 H 156.359 -2.68631 -1.82393 0
M  V30 1552 H 157.37 -5.08331 0.990947 0
M  V30 1553 H 154.047 -3.95714 -1.33103 0
M  V30 1554 H 155.437 -6.4619 1.84086 0
M  V30 1555 N 158.157 -0.370918 -1.53173 0
M  V30 1556 C 159.406 0.218249 -2.00516 0
M  V30 1557 C 159.719 1.49429 -1.26215 0
M  V30 1558 O 160.925 2.16239 -1.64174 0
M  V30 1559 C 159.381 0.43948 -3.57207 0
M  V30 1560 C 158.989 -0.822244 -4.4039 0
M  V30 1561 C 160.733 0.986012 -4.1289 0
M  V30 1562 C 158.64 -0.570304 -5.88644 0
M  V30 1563 H 157.57 0.0853333 -0.749156 0
M  V30 1564 H 160.221 -0.490483 -1.76823 0
M  V30 1565 H 158.603 1.20961 -3.77074 0
M  V30 1566 H 159.777 -1.59557 -4.32294 0
M  V30 1567 H 158.092 -1.29238 -3.95836 0
M  V30 1568 H 160.689 1.18991 -5.21292 0
M  V30 1569 H 161.032 1.94972 -3.6782 0
M  V30 1570 H 161.565 0.27592 -3.96842 0
M  V30 1571 H 158.304 -1.50449 -6.38001 0
M  V30 1572 H 157.824 0.164427 -5.99575 0
M  V30 1573 H 159.503 -0.19784 -6.46697 0
M  V30 1574 N 159.635 1.57281 -0.100228 0
M  V30 1575 C 160.567 2.11342 0.886972 0
M  V30 1576 C 161.58 1.05182 1.24261 0
M  V30 1577 O 162.769 1.32613 1.19483 0
M  V30 1578 C 159.869 2.5825 2.19454 0
M  V30 1579 C 159.042 3.88302 2.01346 0
M  V30 1580 C 158.101 4.21004 3.15661 0
M  V30 1581 O 157.127 4.9014 2.89398 0
M  V30 1582 N 158.329 3.76818 4.41575 0
M  V30 1583 H 161.094 2.96668 0.425216 0
M  V30 1584 H 158.655 1.61678 0.0847334 0
M  V30 1585 H 160.647 2.7717 2.94888 0
M  V30 1586 H 159.217 1.77907 2.57037 0
M  V30 1587 H 158.437 3.7848 1.10212 0
M  V30 1588 H 159.725 4.73375 1.8653 0
M  V30 1589 H 159.123 3.2102 4.65792 0
M  V30 1590 H 157.68 4.00882 5.13942 0
M  V30 1591 N 161.113 -0.173488 1.56642 0
M  V30 1592 C 162.524 -0.736155 1.71574 0
M  V30 1593 C 162.875 -1.82888 0.710389 0
M  V30 1594 O 162 -2.16017 -0.1287 0
M  V30 1595 C 162.595 -1.34211 3.11083 0
M  V30 1596 C 161.154 -1.85162 3.27707 0
M  V30 1597 C 160.301 -0.729765 2.67525 0
M  V30 1598 H 163.252 0.0518786 1.58615 0
M  V30 1599 H 163.273 -2.21178 3.09613 0
M  V30 1600 H 162.785 -0.546579 3.84232 0
M  V30 1601 H 160.886 -2.67366 2.59512 0
M  V30 1602 H 160.999 -1.99855 4.35425 0
M  V30 1603 H 159.363 -1.14965 2.27278 0
M  V30 1604 H 160.146 0.0538806 3.43258 0
M  V30 1605 N 162.591 -1.51276 -0.441967 0
M  V30 1606 C 163.539 -1.72823 -1.55676 0
M  V30 1607 C 164.533 -0.59445 -1.58627 0
M  V30 1608 O 165.739 -0.775715 -1.62427 0
M  V30 1609 H 162.114 -0.545983 -0.517113 0
M  V30 1610 H 164.085 -2.6628 -1.34675 0
M  V30 1611 C 162.834 -1.86619 -2.93375 0
M  V30 1612 H 162.157 -2.73264 -2.91834 0
M  V30 1613 H 163.597 -2.05709 -3.70756 0
M  V30 1614 C 162.056 -0.624842 -3.31055 0
M  V30 1615 O 162.586 0.222636 -4.01083 0
M  V30 1616 N 160.792 -0.470288 -2.86769 0
M  V30 1617 H 160.339 -1.161 -2.29953 0
M  V30 1618 H 160.297 0.359051 -3.12343 0
M  V30 1619 N 164.069 0.697108 -1.41344 0
M  V30 1620 C 165.317 1.45426 -1.40341 0
M  V30 1621 C 165.638 1.94996 -0.0128787 0
M  V30 1622 O 164.908 1.71599 0.945027 0
M  V30 1623 H 163.488 0.539594 -0.516573 0
M  V30 1624 H 166.15 0.825201 -1.76569 0
M  V30 1625 H 165.246 2.31817 -2.08967 0
M  V30 1626 N 165.547 1.27147 0.931209 0
M  V30 1627 C 166.457 1.11372 2.06478 0
M  V30 1628 C 167.473 0.044645 1.73943 0
M  V30 1629 O 168.649 0.250417 1.99837 0
M  V30 1630 C 165.714 0.758838 3.38294 0
M  V30 1631 C 164.775 1.90841 3.84549 0
M  V30 1632 C 164.008 1.57036 5.10074 0
M  V30 1633 O 164.231 0.476645 5.68405 0
M  V30 1634 O 163.165 2.40839 5.51616 0
M  V30 1635 H 166.991 2.06493 2.22698 0
M  V30 1636 H 164.576 1.06301 1.04978 0
M  V30 1637 H 166.458 0.574098 4.17471 0
M  V30 1638 H 165.133 -0.162879 3.2329 0
M  V30 1639 H 164.04 2.14819 3.06274 0
M  V30 1640 H 165.373 2.81021 4.04089 0
M  V30 1641 N 167.025 -1.13721 1.09112 0
M  V30 1642 C 167.935 -2.22638 0.73957 0
M  V30 1643 C 168.951 -1.72091 -0.257068 0
M  V30 1644 O 170.127 -2.01155 -0.0992154 0
M  V30 1645 C 167.192 -3.46322 0.16191 0
M  V30 1646 C 166.253 -4.11775 1.21408 0
M  V30 1647 C 165.486 -5.29555 0.663891 0
M  V30 1648 O 165.709 -5.68077 -0.514274 0
M  V30 1649 O 164.643 -5.84973 1.41738 0
M  V30 1650 H 168.469 -2.55074 1.64836 0
M  V30 1651 H 166.054 -1.21791 0.865289 0
M  V30 1652 H 167.936 -4.21107 -0.157073 0
M  V30 1653 H 166.611 -3.15593 -0.719932 0
M  V30 1654 H 165.518 -3.3883 1.58571 0
M  V30 1655 H 166.851 -4.46627 2.06845 0
M  V30 1656 N 168.503 -0.877838 -1.30888 0
M  V30 1657 C 169.728 -0.506629 -2.01117 0
M  V30 1658 C 170.153 0.895564 -1.65412 0
M  V30 1659 O 169.511 1.5923 -0.866922 0
M  V30 1660 C 169.559 -0.680223 -3.54126 0
M  V30 1661 O 168.663 0.277033 -4.11468 0
M  V30 1662 H 168.004 -0.200518 -0.633 0
M  V30 1663 H 170.534 -1.18342 -1.66902 0
M  V30 1664 H 170.544 -0.5765 -4.03907 0
M  V30 1665 H 169.219 -1.70261 -3.79452 0
M  V30 1666 H 167.796 0.127606 -3.72682 0
M  V30 1667 N 169.982 1.44106 -0.638065 0
M  V30 1668 C 171.212 2.06037 -0.152394 0
M  V30 1669 C 171.62 1.47808 1.18108 0
M  V30 1670 O 170.963 0.598092 1.73691 0
M  V30 1671 C 171.025 3.59488 0.0293714 0
M  V30 1672 C 170.689 4.4022 -1.22702 0
M  V30 1673 C 171.686 4.73256 -2.15232 0
M  V30 1674 C 169.371 4.8048 -1.46437 0
M  V30 1675 C 171.365 5.45444 -3.29802 0
M  V30 1676 C 169.052 5.52417 -2.61303 0
M  V30 1677 C 170.05 5.84819 -3.52811 0
M  V30 1678 O 169.738 6.55289 -4.65673 0
M  V30 1679 H 169.47 0.671233 -0.0801401 0
M  V30 1680 H 172.024 1.85851 -0.874563 0
M  V30 1681 H 170.254 3.78191 0.806758 0
M  V30 1682 H 171.943 4.03164 0.470475 0
M  V30 1683 H 172.709 4.42684 -1.98131 0
M  V30 1684 H 168.588 4.54676 -0.760977 0
M  V30 1685 H 172.132 5.70653 -4.01249 0
M  V30 1686 H 168.029 5.82404 -2.78344 0
M  V30 1687 H 168.797 6.73762 -4.64744 0
M  V30 1688 N 171.46 0.379036 1.52974 0
M  V30 1689 C 172.41 -0.477772 2.22938 0
M  V30 1690 C 173.394 -1.03792 1.22948 0
M  V30 1691 O 174.586 -0.965725 1.48333 0
M  V30 1692 C 171.715 -1.60994 3.03209 0
M  V30 1693 C 170.801 -1.06203 4.10587 0
M  V30 1694 N 171.192 -0.238214 5.05239 0
M  V30 1695 C 169.49 -1.33554 4.25534 0
M  V30 1696 C 170.191 0.0633235 5.81666 0
M  V30 1697 N 169.167 -0.537901 5.40932 0
M  V30 1698 H 172.969 0.158295 2.93473 0
M  V30 1699 H 170.483 0.187778 1.61311 0
M  V30 1700 H 172.48 -2.23607 3.5186 0
M  V30 1701 H 171.14 -2.24893 2.34207 0
M  V30 1702 H 172.151 0.123695 5.17752 0
M  V30 1703 H 168.828 -1.97632 3.6776 0
M  V30 1704 H 170.218 0.730161 6.67921 0
M  V30 1705 N 172.938 -1.57226 0.108567 0
M  V30 1706 C 173.868 -2.17778 -0.84232 0
M  V30 1707 C 174.849 -1.11487 -1.2847 0
M  V30 1708 O 176.034 -1.39681 -1.34918 0
M  V30 1709 C 173.164 -2.76888 -2.09644 0
M  V30 1710 C 172.118 -3.88669 -1.79221 0
M  V30 1711 C 171.444 -4.34541 -3.11574 0
M  V30 1712 C 172.744 -5.11251 -1.06864 0
M  V30 1713 H 174.438 -2.97489 -0.337774 0
M  V30 1714 H 171.984 -1.43097 -0.161025 0
M  V30 1715 H 173.937 -3.17904 -2.76614 0
M  V30 1716 H 172.661 -1.94451 -2.62405 0
M  V30 1717 H 171.32 -3.48213 -1.14644 0
M  V30 1718 H 170.968 -3.48977 -3.62249 0
M  V30 1719 H 170.668 -5.09914 -2.91996 0
M  V30 1720 H 172.192 -4.782 -3.7968 0
M  V30 1721 H 173.606 -5.49352 -1.63968 0
M  V30 1722 H 172.003 -5.9214 -0.974178 0
M  V30 1723 H 173.073 -4.8487 -0.0536168 0
M  V30 1724 N 174.416 0.165178 -1.56732 0
M  V30 1725 C 175.644 0.896218 -1.86482 0
M  V30 1726 C 176.059 1.75555 -0.694675 0
M  V30 1727 O 175.416 1.79379 0.33607 0
M  V30 1728 C 175.467 1.76792 -3.1532 0
M  V30 1729 O 175.188 0.943239 -4.27825 0
M  V30 1730 C 176.689 2.6081 -3.58459 0
M  V30 1731 H 173.909 0.260064 -0.618553 0
M  V30 1732 H 176.453 0.163428 -2.03846 0
M  V30 1733 H 174.608 2.45398 -2.99764 0
M  V30 1734 H 175.022 1.53998 -5.01383 0
M  V30 1735 H 176.496 3.17579 -4.51495 0
M  V30 1736 H 176.973 3.35977 -2.82872 0
M  V30 1737 H 177.579 1.97526 -3.76648 0
M  V30 1738 N 175.894 1.51508 0.433938 0
M  V30 1739 C 177.31 1.39759 0.770682 0
M  V30 1740 C 177.51 0.482594 1.95636 0
M  V30 1741 O 176.566 -0.0609691 2.52426 0
M  V30 1742 C 177.879 2.81851 1.04787 0
M  V30 1743 C 179.427 2.91025 1.1521 0
M  V30 1744 C 179.902 4.34032 1.46219 0
M  V30 1745 N 181.393 4.37154 1.53136 0
M  V30 1746 C 182.128 5.4484 1.78709 0
M  V30 1747 N 181.624 6.62682 2.02051 0
M  V30 1748 N 183.417 5.32324 1.80519 0
M  V30 1749 H 175.568 2.09548 -0.346892 0
M  V30 1750 H 177.831 0.943446 -0.0928074 0
M  V30 1751 H 177.537 3.50815 0.249304 0
M  V30 1752 H 177.411 3.21386 1.97461 0
M  V30 1753 H 179.798 2.22257 1.94128 0
M  V30 1754 H 179.879 2.54983 0.204281 0
M  V30 1755 H 179.523 5.03351 0.678274 0
M  V30 1756 H 179.453 4.6759 2.42212 0
M  V30 1757 H 181.944 3.52197 1.36987 0
M  V30 1758 H 182.257 7.40543 2.20943 0
M  V30 1759 H 180.602 6.65791 1.99366 0
M  V30 1760 H 183.793 4.39246 1.61805 0
M  V30 1761 H 183.966 6.16328 2.00111 0
M  V30 1762 N 177.372 -0.689602 1.41712 0
M  V30 1763 C 178.282 -1.83314 1.46401 0
M  V30 1764 C 179.298 -1.7036 0.35405 0
M  V30 1765 O 180.474 -1.92171 0.602692 0
M  V30 1766 C 177.539 -3.19344 1.34982 0
M  V30 1767 C 176.6 -3.44363 2.56344 0
M  V30 1768 C 175.833 -4.73904 2.45461 0
M  V30 1769 O 176.056 -5.508 1.48241 0
M  V30 1770 O 174.99 -4.99839 3.35328 0
M  V30 1771 H 178.816 -1.82314 2.42889 0
M  V30 1772 H 176.401 -0.843438 1.23315 0
M  V30 1773 H 178.283 -4.00547 1.3092 0
M  V30 1774 H 176.958 -3.21014 0.41612 0
M  V30 1775 H 175.865 -2.63067 2.65982 0
M  V30 1776 H 177.198 -3.47512 3.48563 0
M  V30 1777 N 178.85 -1.27639 -0.924453 0
M  V30 1778 C 180.098 -1.13941 -1.66918 0
M  V30 1779 C 180.419 0.314589 -1.92446 0
M  V30 1780 O 179.689 1.21964 -1.53303 0
M  V30 1781 H 178.269 -0.418678 -0.618642 0
M  V30 1782 H 180.931 -1.60213 -1.10985 0
M  V30 1783 H 180.027 -1.67094 -2.63602 0
M  V30 1784 N 180.328 1.1314 -1.09713 0
M  V30 1785 C 181.576 1.84119 -0.833338 0
M  V30 1786 C 181.897 1.84097 0.642904 0
M  V30 1787 O 181.167 1.29881 1.46655 0
M  V30 1788 H 179.747 0.681766 -0.305293 0
M  V30 1789 H 182.409 1.37038 -1.38588 0
M  V30 1790 H 181.505 2.88543 -1.18951 0
M  V30 1791 N 181.806 0.884767 1.30421 0
M  V30 1792 C 182.756 0.322846 2.25703 0
M  V30 1793 C 183.74 -0.548582 1.51259 0
M  V30 1794 O 184.932 -0.39304 1.72581 0
M  V30 1795 C 182.061 -0.461787 3.4018 0
M  V30 1796 C 181.147 0.423717 4.21978 0
M  V30 1797 N 181.538 1.52408 4.82292 0
M  V30 1798 C 179.836 0.218795 4.45463 0
M  V30 1799 C 180.537 2.07136 5.43571 0
M  V30 1800 N 179.513 1.36635 5.26148 0
M  V30 1801 H 183.315 1.16363 2.69883 0
M  V30 1802 H 180.829 0.73415 1.44859 0
M  V30 1803 H 182.826 -0.880985 4.07485 0
M  V30 1804 H 181.486 -1.30001 2.9754 0
M  V30 1805 H 182.497 1.90693 4.81515 0
M  V30 1806 H 179.174 -0.582275 4.1342 0
M  V30 1807 H 180.564 2.99538 6.01437 0
M  V30 1808 N 183.284 -1.43765 0.645699 0
M  V30 1809 C 184.509 -2.06767 0.161883 0
M  V30 1810 C 184.934 -1.48034 -1.16049 0
M  V30 1811 O 184.292 -0.587369 -1.71522 0
M  V30 1812 C 184.34 -3.60519 0.0762003 0
M  V30 1813 O 183.444 -4.00982 -0.963721 0
M  V30 1814 H 182.785 -0.657675 0.091429 0
M  V30 1815 H 185.315 -1.84397 0.886499 0
M  V30 1816 H 185.325 -4.07853 -0.109604 0
M  V30 1817 H 184 -4.02646 1.04157 0
M  V30 1818 H 182.577 -3.65253 -0.751312 0
M  V30 1819 N 184.763 -0.387143 -1.52771 0
M  V30 1820 C 185.713 0.465942 -2.23188 0
M  V30 1821 C 186.697 1.03138 -1.23496 0
M  V30 1822 O 187.889 0.957845 -1.48843 0
M  V30 1823 C 185.018 1.59384 -3.04059 0
M  V30 1824 C 184.104 1.04024 -4.11144 0
M  V30 1825 N 184.495 0.211416 -5.05358 0
M  V30 1826 C 182.793 1.31295 -4.26237 0
M  V30 1827 C 183.494 -0.0941698 -5.81624 0
M  V30 1828 N 182.47 0.509207 -5.4121 0
M  V30 1829 H 186.272 -0.173856 -2.93385 0
M  V30 1830 H 183.786 -0.19633 -1.61209 0
M  V30 1831 H 185.783 2.21738 -3.53041 0
M  V30 1832 H 184.443 2.23648 -2.35397 0
M  V30 1833 H 185.454 -0.151151 -5.17679 0
M  V30 1834 H 182.131 1.95679 -3.68803 0
M  V30 1835 H 183.521 -0.765572 -6.67524 0
M  V30 1836 N 186.241 1.57166 -0.116904 0
M  V30 1837 C 187.657 1.5779 0.239693 0
M  V30 1838 C 187.857 1.1295 1.66867 0
M  V30 1839 O 186.913 0.81592 2.38954 0
M  V30 1840 C 188.226 3.00699 0.00828202 0
M  V30 1841 C 189.774 3.12912 0.0743438 0
M  V30 1842 C 190.249 4.57817 -0.129348 0
M  V30 1843 N 191.74 4.63139 -0.075247 0
M  V30 1844 C 192.475 5.73023 -0.207788 0
M  V30 1845 N 191.971 6.91665 -0.396382 0
M  V30 1846 N 193.764 5.61906 -0.14751 0
M  V30 1847 H 185.915 1.84615 -1.05029 0
M  V30 1848 H 188.178 0.85311 -0.41341 0
M  V30 1849 H 187.884 3.37784 -0.979531 0
M  V30 1850 H 187.758 3.69848 0.741077 0
M  V30 1851 H 190.145 2.75686 1.05268 0
M  V30 1852 H 190.226 2.4631 -0.690297 0
M  V30 1853 H 189.87 4.95742 -1.10465 0
M  V30 1854 H 189.8 5.22507 0.655253 0
M  V30 1855 H 192.291 3.7784 0.0670898 0
M  V30 1856 H 192.604 7.71255 -0.488437 0
M  V30 1857 H 190.949 6.93654 -0.432329 0
M  V30 1858 H 194.14 4.681 -0.00115036 0
M  V30 1859 H 194.313 6.47501 -0.254247 0
M  V30 1860 N 187.719 -0.156864 1.56817 0
M  V30 1861 C 189.135 -0.50916 1.5126 0
M  V30 1862 C 189.335 -1.83897 0.823658 0
M  V30 1863 O 188.391 -2.49469 0.390055 0
M  V30 1864 C 189.704 -0.52857 2.96018 0
M  V30 1865 C 191.252 -0.614771 3.06903 0
M  V30 1866 C 191.727 -0.664938 4.53147 0
M  V30 1867 N 193.218 -0.727433 4.57452 0
M  V30 1868 C 193.953 -0.787067 5.67973 0
M  V30 1869 N 193.449 -0.806649 6.88088 0
M  V30 1870 N 195.242 -0.827195 5.5598 0
M  V30 1871 H 187.393 0.714935 2.00006 0
M  V30 1872 H 189.656 0.259526 0.911784 0
M  V30 1873 H 189.362 0.380154 3.49639 0
M  V30 1874 H 189.236 -1.36998 3.51442 0
M  V30 1875 H 191.623 -1.51392 2.53307 0
M  V30 1876 H 191.704 0.253597 2.5454 0
M  V30 1877 H 191.348 0.230011 5.07379 0
M  V30 1878 H 191.278 -1.54966 5.03282 0
M  V30 1879 H 193.769 -0.719998 3.70978 0
M  V30 1880 H 194.082 -0.853727 7.6807 0
M  V30 1881 H 192.427 -0.774687 6.90669 0
M  V30 1882 H 195.618 -0.808998 4.61056 0
M  V30 1883 H 195.791 -0.870206 6.4213 0
M  V30 1884 N 189.197 -1.51736 -0.425897 0
M  V30 1885 C 190.446 -1.64201 -1.17136 0
M  V30 1886 C 190.759 -0.369705 -1.92074 0
M  V30 1887 O 191.965 -0.373898 -2.68913 0
M  V30 1888 C 190.421 -2.90035 -2.13091 0
M  V30 1889 C 190.029 -4.24312 -1.43747 0
M  V30 1890 C 191.773 -3.1186 -2.87999 0
M  V30 1891 C 189.68 -5.41285 -2.38253 0
M  V30 1892 H 188.61 -0.611624 -0.440944 0
M  V30 1893 H 191.261 -1.78212 -0.437328 0
M  V30 1894 H 189.643 -2.69684 -2.89977 0
M  V30 1895 H 190.817 -4.55086 -0.723408 0
M  V30 1896 H 189.132 -4.08456 -0.809465 0
M  V30 1897 H 191.729 -3.96427 -3.58817 0
M  V30 1898 H 192.072 -2.25403 -3.49999 0
M  V30 1899 H 192.605 -3.32605 -2.18217 0
M  V30 1900 H 189.344 -6.30037 -1.80925 0
M  V30 1901 H 188.864 -5.14872 -3.0768 0
M  V30 1902 H 190.543 -5.73694 -2.99139 0
M  V30 1903 N 190.675 0.682077 -1.42076 0
M  V30 1904 C 191.605 1.80796 -1.47767 0
M  V30 1905 C 192.586 1.6677 -0.334954 0
M  V30 1906 O 193.771 1.863 -0.548264 0
M  V30 1907 C 190.901 3.19038 -1.37229 0
M  V30 1908 C 189.855 3.47789 -2.49453 0
M  V30 1909 C 189.181 4.8553 -2.23975 0
M  V30 1910 C 190.481 3.45411 -3.91776 0
M  V30 1911 H 192.175 1.7629 -2.41997 0
M  V30 1912 H 189.721 0.846721 -1.16476 0
M  V30 1913 H 191.674 3.97528 -1.39821 0
M  V30 1914 H 190.398 3.24204 -0.394907 0
M  V30 1915 H 189.057 2.71657 -2.46166 0
M  V30 1916 H 188.705 4.87337 -1.24547 0
M  V30 1917 H 188.405 5.0573 -2.99184 0
M  V30 1918 H 189.929 5.66312 -2.28304 0
M  V30 1919 H 191.343 4.13882 -3.96705 0
M  V30 1920 H 189.74 3.77145 -4.66778 0
M  V30 1921 H 190.81 2.44122 -4.18966 0
M  V30 1922 N 192.153 1.28127 0.917671 0
M  V30 1923 C 193.103 1.08361 2.00604 0
M  V30 1924 C 194.087 0.00847518 1.60898 0
M  V30 1925 O 195.279 0.228167 1.75523 0
M  V30 1926 C 192.408 0.743376 3.35155 0
M  V30 1927 C 191.494 1.85716 3.81275 0
M  V30 1928 N 191.885 3.09822 3.99805 0
M  V30 1929 C 190.183 1.74612 4.10398 0
M  V30 1930 C 190.884 3.82368 4.38372 0
M  V30 1931 N 189.86 3.10192 4.4641 0
M  V30 1932 H 193.662 2.02531 2.12975 0
M  V30 1933 H 191.176 1.18989 1.10523 0
M  V30 1934 H 193.173 0.582859 4.12805 0
M  V30 1935 H 191.833 -0.190595 3.2414 0
M  V30 1936 H 192.844 3.45475 3.85833 0
M  V30 1937 H 189.521 0.883657 4.08041 0
M  V30 1938 H 190.911 4.89082 4.60704 0
M  V30 1939 N 193.631 -1.12557 1.10312 0
M  V30 1940 C 194.594 -2.16434 0.75424 0
M  V30 1941 C 195.594 -1.59278 -0.220685 0
M  V30 1942 O 196.784 -1.742 0.00230591 0
M  V30 1943 C 193.916 -3.40699 0.116987 0
M  V30 1944 H 195.109 -2.48811 1.67431 0
M  V30 1945 H 192.662 -1.27542 0.903475 0
M  V30 1946 H 193.397 -3.13921 -0.813877 0
M  V30 1947 H 193.182 -3.83459 0.818613 0
M  V30 1948 H 194.672 -4.17451 -0.111387 0
M  V30 1949 N 195.109 -0.891671 -1.2995 0
M  V30 1950 C 196.072 -0.36828 -2.26222 0
M  V30 1951 C 197.072 0.493014 -1.53056 0
M  V30 1952 O 198.262 0.299213 -1.71611 0
M  V30 1953 C 195.394 0.47442 -3.37583 0
M  V30 1954 H 196.587 -1.21844 -2.74033 0
M  V30 1955 H 194.14 -0.669107 -1.41254 0
M  V30 1956 H 194.875 1.34489 -2.95099 0
M  V30 1957 H 194.66 -0.142615 -3.91841 0
M  V30 1958 H 196.15 0.83218 -4.09224 0
M  V30 1959 N 196.587 1.43421 -0.653314 0
M  V30 1960 C 197.864 1.95361 -0.0966581 0
M  V30 1961 C 198.244 1.59461 1.38331 0
M  V30 1962 O 197.592 0.879777 2.10884 0
M  V30 1963 C 197.802 3.47311 -0.342988 0
M  V30 1964 C 199.15 4.23875 -0.24798 0
M  V30 1965 O 200.174 3.55133 -0.275553 0
M  V30 1966 O 199.033 5.4623 -0.171771 0
M  V30 1967 H 196.127 0.826945 0.00956291 0
M  V30 1968 H 198.673 1.5336 -0.726558 0
M  V30 1969 H 197.445 3.66569 -1.36906 0
M  V30 1970 H 197.068 3.9631 0.319975 0
M  V30 1971 N 198.065 0.39524 1.52563 0
M  V30 1972 C 199.028 -0.425001 2.25225 0
M  V30 1973 C 200.028 -0.985266 1.27079 0
M  V30 1974 O 201.218 -0.866332 1.5113 0
M  V30 1975 C 198.35 -1.59686 3.01186 0
M  V30 1976 H 199.543 0.211233 2.99155 0
M  V30 1977 H 197.096 0.147472 1.55603 0
M  V30 1978 H 197.831 -2.27035 2.31572 0
M  V30 1979 H 197.616 -1.20176 3.73229 0
M  V30 1980 H 199.106 -2.17743 3.5634 0
M  V30 1981 N 199.544 -1.57102 0.125237 0
M  V30 1982 C 200.772 -1.99761 -0.538797 0
M  V30 1983 C 201.187 -1.00503 -1.59827 0
M  V30 1984 O 200.544 0.00119474 -1.825 0
M  V30 1985 C 200.595 -3.42408 -1.15927 0
M  V30 1986 O 200.316 -4.37869 -0.142143 0
M  V30 1987 C 201.817 -4.00232 -1.90602 0
M  V30 1988 H 199.037 -0.655772 -0.14214 0
M  V30 1989 H 201.581 -2.03383 0.213413 0
M  V30 1990 H 199.736 -3.39706 -1.86223 0
M  V30 1991 H 200.15 -5.21128 -0.593775 0
M  V30 1992 H 201.624 -5.02105 -2.29335 0
M  V30 1993 H 202.101 -3.39721 -2.78363 0
M  V30 1994 H 202.707 -4.06499 -1.25055 0
M  V30 1995 N 201.022 0.148545 -1.56898 0
M  V30 1996 C 202.27 0.859717 -1.82902 0
M  V30 1997 C 202.591 1.81775 -0.70588 0
M  V30 1998 O 201.861 1.93994 0.272586 0
M  V30 1999 H 200.441 0.320469 -0.674766 0
M  V30 2000 H 203.103 0.142918 -1.94375 0
M  V30 2001 H 202.199 1.4229 -2.77777 0
M  V30 2002 N 202.5 1.5196 0.417844 0
M  V30 2003 C 203.916 1.40569 0.755816 0
M  V30 2004 C 204.116 0.503316 1.95113 0
M  V30 2005 O 203.172 -0.0341925 2.52477 0
M  V30 2006 C 204.485 2.82947 1.01791 0
M  V30 2007 C 206.033 2.92231 1.12116 0
M  V30 2008 C 206.508 4.35559 1.41608 0
M  V30 2009 N 207.999 4.38753 1.48491 0
M  V30 2010 C 208.734 5.46705 1.7292 0
M  V30 2011 N 208.23 6.64788 1.95011 0
M  V30 2012 N 210.023 5.34209 1.74863 0
M  V30 2013 H 202.174 2.09168 -0.369098 0
M  V30 2014 H 204.437 0.942409 -0.102809 0
M  V30 2015 H 204.143 3.5106 0.212081 0
M  V30 2016 H 204.017 3.23462 1.94042 0
M  V30 2017 H 206.404 2.24304 1.9176 0
M  V30 2018 H 206.485 2.55185 0.177225 0
M  V30 2019 H 206.129 5.04042 0.624848 0
M  V30 2020 H 206.059 4.70133 2.37239 0
M  V30 2021 H 208.55 3.5363 1.33244 0
M  V30 2022 H 208.863 7.42845 2.13076 0
M  V30 2023 H 207.208 6.67869 1.92293 0
M  V30 2024 H 210.399 4.40937 1.57137 0
M  V30 2025 H 210.572 6.18415 1.93563 0
M  V30 2026 N 203.978 -0.674533 1.42435 0
M  V30 2027 C 204.888 -1.81751 1.48337 0
M  V30 2028 C 205.904 -1.69975 0.372099 0
M  V30 2029 O 207.08 -1.91521 0.62304 0
M  V30 2030 C 204.145 -3.17895 1.38361 0
M  V30 2031 C 203.206 -3.41625 2.59982 0
M  V30 2032 C 202.439 -4.71274 2.50473 0
M  V30 2033 O 202.662 -5.49197 1.54075 0
M  V30 2034 O 201.596 -4.96254 3.4061 0
M  V30 2035 H 205.422 -1.79728 2.44809 0
M  V30 2036 H 203.007 -0.830312 1.24202 0
M  V30 2037 H 204.889 -3.99136 1.35161 0
M  V30 2038 H 203.564 -3.20555 0.450144 0
M  V30 2039 H 202.471 -2.60231 2.68757 0
M  V30 2040 H 203.804 -3.43796 3.52229 0
M  V30 2041 N 205.456 -1.28612 -0.910864 0
M  V30 2042 C 206.702 -1.16106 -1.66274 0
M  V30 2043 C 207.035 0.289113 -1.92036 0
M  V30 2044 O 206.31 1.21 -1.52281 0
M  V30 2045 C 206.593 -1.96309 -3.01885 0
M  V30 2046 C 206.446 -3.49405 -2.8326 0
M  V30 2047 C 207.765 -1.78076 -4.02463 0
M  V30 2048 H 204.884 -0.423152 -0.603417 0
M  V30 2049 H 207.526 -1.57961 -1.05586 0
M  V30 2050 H 205.676 -1.60742 -3.53687 0
M  V30 2051 H 207.348 -3.94894 -2.38446 0
M  V30 2052 H 205.591 -3.74893 -2.18261 0
M  V30 2053 H 206.262 -4.00784 -3.79574 0
M  V30 2054 H 208.738 -2.0912 -3.59733 0
M  V30 2055 H 207.614 -2.36561 -4.95308 0
M  V30 2056 H 207.875 -0.733008 -4.35981 0
M  V30 2057 N 206.934 1.1197 -1.10907 0
M  V30 2058 C 207.844 2.21433 -0.774896 0
M  V30 2059 C 208.86 1.72478 0.229657 0
M  V30 2060 O 210.036 2.01288 0.0672008 0
M  V30 2061 C 207.101 3.4602 -0.216986 0
M  V30 2062 C 206.162 4.09791 -1.27944 0
M  V30 2063 C 205.395 5.28431 -0.748055 0
M  V30 2064 O 205.618 5.68823 0.423833 0
M  V30 2065 O 204.552 5.82644 -1.51027 0
M  V30 2066 H 208.378 2.5242 -1.68873 0
M  V30 2067 H 205.963 1.20399 -0.884555 0
M  V30 2068 H 207.845 4.21304 0.090059 0
M  V30 2069 H 206.52 3.16698 0.669633 0
M  V30 2070 H 205.427 3.36265 -1.63941 0
M  V30 2071 H 206.76 4.4328 -2.13925 0
M  V30 2072 N 208.412 0.89855 1.29475 0
M  V30 2073 C 209.64 0.539261 1.99749 0
M  V30 2074 C 210.055 -0.875716 1.67262 0
M  V30 2075 O 209.412 -1.57786 0.917049 0
M  V30 2076 C 209.463 0.72061 3.54245 0
M  V30 2077 O 209.184 2.07989 3.8558 0
M  V30 2078 C 210.685 0.366118 4.41786 0
M  V30 2079 H 207.905 0.207047 0.638258 0
M  V30 2080 H 210.449 1.20758 1.65039 0
M  V30 2081 H 208.604 0.0994862 3.87272 0
M  V30 2082 H 209.018 2.10841 4.80257 0
M  V30 2083 H 210.492 0.543848 5.49314 0
M  V30 2084 H 210.969 -0.696763 4.33638 0
M  V30 2085 H 211.575 0.964135 4.14228 0
M  V30 2086 N 209.89 -1.43072 0.660911 0
M  V30 2087 C 211.118 -2.06067 0.185422 0
M  V30 2088 C 211.533 -1.49582 -1.15198 0
M  V30 2089 O 210.89 -0.630134 -1.71276 0
M  V30 2090 C 210.941 -3.61371 0.0966523 0
M  V30 2091 O 210.662 -4.15758 1.38119 0
M  V30 2092 C 212.163 -4.41455 -0.403996 0
M  V30 2093 H 209.383 -0.664459 0.0934604 0
M  V30 2094 H 211.927 -1.83447 0.90373 0
M  V30 2095 H 210.082 -3.8315 -0.572259 0
M  V30 2096 H 210.496 -5.09499 1.24542 0
M  V30 2097 H 211.97 -5.50437 -0.415045 0
M  V30 2098 H 212.447 -4.15036 -1.43674 0
M  V30 2099 H 213.053 -4.24663 0.232691 0
M  V30 2100 N 211.368 -0.403325 -1.52352 0
M  V30 2101 C 212.298 0.416205 -2.29761 0
M  V30 2102 C 213.279 1.05123 -1.33728 0
M  V30 2103 O 214.464 1.06134 -1.62632 0
M  V30 2104 C 211.594 1.53624 -3.11475 0
M  V30 2105 C 210.548 1.02653 -4.15507 0
M  V30 2106 C 209.874 2.23971 -4.85532 0
M  V30 2107 C 211.174 0.08463 -5.22231 0
M  V30 2108 H 212.868 -0.229701 -2.98518 0
M  V30 2109 H 210.414 -0.111913 -1.43564 0
M  V30 2110 H 212.367 2.1165 -3.64393 0
M  V30 2111 H 211.091 2.20994 -2.40477 0
M  V30 2112 H 209.75 0.46871 -3.63591 0
M  V30 2113 H 209.398 2.89883 -4.11068 0
M  V30 2114 H 209.098 1.90521 -5.55856 0
M  V30 2115 H 210.622 2.82614 -5.41259 0
M  V30 2116 H 212.036 0.573509 -5.70424 0
M  V30 2117 H 210.433 -0.160783 -5.99885 0
M  V30 2118 H 211.503 -0.86237 -4.7717 0
M  V30 2119 N 212.846 1.57033 -0.133567 0
M  V30 2120 C 214.092 1.95976 0.521649 0
M  V30 2121 C 214.425 1.01779 1.65393 0
M  V30 2122 O 213.7 0.0576581 1.94415 0
M  V30 2123 C 213.983 3.44738 1.04057 0
M  V30 2124 C 213.836 4.49711 -0.0892897 0
M  V30 2125 C 215.155 3.95682 1.92675 0
M  V30 2126 H 212.274 0.712579 0.188149 0
M  V30 2127 H 214.916 1.88813 -0.212076 0
M  V30 2128 H 213.066 3.50973 1.66583 0
M  V30 2129 H 214.738 4.55565 -0.725152 0
M  V30 2130 H 212.981 4.27261 -0.750378 0
M  V30 2131 H 213.652 5.51099 0.315284 0
M  V30 2132 H 216.128 3.91841 1.39998 0
M  V30 2133 H 215.004 5.00262 2.25897 0
M  V30 2134 H 215.265 3.37239 2.85872 0
M  V30 2135 N 214.325 -0.140222 1.56975 0
M  V30 2136 C 215.55 -0.870414 1.88251 0
M  V30 2137 C 215.975 -1.73637 0.723312 0
M  V30 2138 O 215.333 -1.78329 -0.32689 0
M  V30 2139 C 215.381 -1.69737 3.18154 0
M  V30 2140 O 214.485 -2.80229 3.02565 0
M  V30 2141 H 213.826 -0.242025 0.61832 0
M  V30 2142 H 216.356 -0.128999 2.04193 0
M  V30 2143 H 216.366 -2.09099 3.50345 0
M  V30 2144 H 215.041 -1.06152 4.02125 0
M  V30 2145 H 213.618 -2.44224 2.81796 0
M  V30 2146 N 215.803 -1.52179 -0.40978 0
M  V30 2147 C 216.75 -1.75475 -1.49924 0
M  V30 2148 C 217.72 -0.597175 -1.54994 0
M  V30 2149 O 218.905 -0.834655 -1.71575 0
M  V30 2150 C 216.045 -1.9107 -2.87378 0
M  V30 2151 C 215.158 -3.18717 -2.91622 0
M  V30 2152 C 214.293 -3.24747 -4.20372 0
M  V30 2153 C 213.332 -4.46598 -4.18588 0
M  V30 2154 N 212.469 -4.50025 -5.38908 0
M  V30 2155 H 217.309 -2.68458 -1.29361 0
M  V30 2156 H 214.846 -1.33024 -0.627934 0
M  V30 2157 H 216.804 -1.98096 -3.6717 0
M  V30 2158 H 215.434 -1.01469 -3.06437 0
M  V30 2159 H 214.486 -3.20866 -2.04326 0
M  V30 2160 H 215.798 -4.08544 -2.86169 0
M  V30 2161 H 214.952 -3.30841 -5.08556 0
M  V30 2162 H 213.691 -2.32857 -4.28519 0
M  V30 2163 H 212.696 -4.40652 -3.28794 0
M  V30 2164 H 213.921 -5.39783 -4.12081 0
M  V30 2165 H 211.867 -3.61017 -5.47725 0
M  V30 2166 H 211.784 -5.33697 -5.35447 0
M  V30 2167 H 213.052 -4.60347 -6.29048 0
M  V30 2168 N 217.281 0.66697 -1.42791 0
M  V30 2169 C 218.244 1.76211 -1.46568 0
M  V30 2170 C 219.244 1.56896 -0.352196 0
M  V30 2171 O 220.434 1.63044 -0.613364 0
M  V30 2172 C 217.566 3.14935 -1.30494 0
M  V30 2173 H 218.759 1.74247 -2.44086 0
M  V30 2174 H 216.312 0.877342 -1.29354 0
M  V30 2175 H 217.047 3.2252 -0.339301 0
M  V30 2176 H 216.832 3.30359 -2.11199 0
M  V30 2177 H 218.322 3.94821 -1.36038 0
M  V30 2178 N 218.759 1.29093 0.90403 0
M  V30 2179 C 219.689 1.16401 2.02418 0
M  V30 2180 C 220.67 0.0593085 1.69997 0
M  V30 2181 O 221.855 0.238021 1.92736 0
M  V30 2182 C 218.985 0.835233 3.37107 0
M  V30 2183 C 217.939 1.89578 3.83724 0
M  V30 2184 C 217.265 1.42041 5.15489 0
M  V30 2185 C 218.565 3.30394 4.04521 0
M  V30 2186 H 220.259 2.10109 2.13295 0
M  V30 2187 H 217.805 1.01157 1.02486 0
M  V30 2188 H 219.758 0.733169 4.14973 0
M  V30 2189 H 218.482 -0.137543 3.2631 0
M  V30 2190 H 217.141 1.98715 3.08071 0
M  V30 2191 H 216.789 0.436426 5.01103 0
M  V30 2192 H 216.489 2.12964 5.4765 0
M  V30 2193 H 218.013 1.33176 5.959 0
M  V30 2194 H 219.427 3.24123 4.72882 0
M  V30 2195 H 217.824 3.99237 4.48029 0
M  V30 2196 H 218.894 3.73692 3.09002 0
M  V30 2197 N 220.237 -1.11381 1.11499 0
M  V30 2198 C 221.185 -2.19522 0.768956 0
M  V30 2199 C 222.179 -1.67693 -0.239857 0
M  V30 2200 O 223.385 -1.79727 -0.0990755 0
M  V30 2201 H 219.76 -0.715711 0.230786 0
M  V30 2202 H 221.731 -2.45954 1.68964 0
M  V30 2203 C 220.48 -3.46945 0.229073 0
M  V30 2204 H 219.803 -3.8718 0.996596 0
M  V30 2205 H 221.243 -4.23993 0.0251441 0
M  V30 2206 C 219.702 -3.2042 -1.04079 0
M  V30 2207 O 220.232 -3.41178 -2.12038 0
M  V30 2208 N 218.438 -2.74151 -0.963823 0
M  V30 2209 H 217.985 -2.57459 -0.0851722 0
M  V30 2210 H 217.943 -2.56781 -1.81414 0
M  V30 2211 N 221.715 -0.905404 -1.28997 0
M  V30 2212 C 222.665 -0.358713 -2.25161 0
M  V30 2213 C 223.649 0.524449 -1.52113 0
M  V30 2214 O 224.841 0.365534 -1.73184 0
M  V30 2215 C 221.97 0.407609 -3.40872 0
M  V30 2216 C 221.056 -0.490797 -4.21251 0
M  V30 2217 N 221.447 -1.60061 -4.79806 0
M  V30 2218 C 219.745 -0.289636 -4.45059 0
M  V30 2219 C 220.446 -2.15757 -5.40207 0
M  V30 2220 N 219.422 -1.44988 -5.23908 0
M  V30 2221 H 223.224 -1.20642 -2.67998 0
M  V30 2222 H 220.738 -0.757103 -1.43672 0
M  V30 2223 H 222.735 0.816046 -4.08835 0
M  V30 2224 H 221.395 1.25251 -2.9957 0
M  V30 2225 H 222.406 -1.98329 -4.7842 0
M  V30 2226 H 219.083 0.51643 -4.14294 0
M  V30 2227 H 220.473 -3.09069 -5.96595 0
M  V30 2228 N 223.193 1.4272 -0.668489 0
M  V30 2229 C 224.604 1.84793 -0.266151 0
M  V30 2230 C 224.955 1.55959 1.19043 0
M  V30 2231 O 224.08 1.01622 1.91055 0
M  V30 2232 C 224.675 3.35436 -0.476271 0
M  V30 2233 C 223.234 3.76182 -0.128113 0
M  V30 2234 C 222.381 2.66344 -0.771777 0
M  V30 2235 H 225.332 1.32656 -0.871098 0
M  V30 2236 H 225.353 3.79515 0.273561 0
M  V30 2237 H 224.865 3.5639 -1.53647 0
M  V30 2238 H 222.966 3.60836 0.928891 0
M  V30 2239 H 223.079 4.75766 -0.564231 0
M  V30 2240 H 221.443 2.53885 -0.203652 0
M  V30 2241 H 222.226 2.90123 -1.83531 0
M  V30 2242 N 224.671 0.411399 1.52136 0
M  V30 2243 C 225.619 -0.427633 2.28635 0
M  V30 2244 C 226.613 -1.04383 1.33419 0
M  V30 2245 O 227.819 -0.981772 1.50868 0
M  V30 2246 H 224.194 -0.156689 0.735495 0
M  V30 2247 H 226.165 0.238761 2.97443 0
M  V30 2248 C 224.914 -1.53082 3.12188 0
M  V30 2249 H 224.237 -1.06601 3.85326 0
M  V30 2250 H 225.677 -2.09167 3.68816 0
M  V30 2251 C 224.136 -2.49946 2.25895 0
M  V30 2252 O 224.666 -3.53884 1.90076 0
M  V30 2253 N 222.872 -2.2021 1.8962 0
M  V30 2254 H 222.419 -1.35719 2.18948 0
M  V30 2255 H 222.377 -2.85266 1.32176 0
M  V30 2256 N 226.149 -1.5696 0.141893 0
M  V30 2257 C 227.398 -1.95135 -0.510427 0
M  V30 2258 C 227.711 -1.02896 -1.66348 0
M  V30 2259 O 228.917 -1.30629 -2.38009 0
M  V30 2260 C 227.373 -3.46876 -0.959427 0
M  V30 2261 C 226.981 -4.47691 0.166419 0
M  V30 2262 C 228.725 -3.93927 -1.58183 0
M  V30 2263 C 226.632 -5.90636 -0.300565 0
M  V30 2264 H 225.562 -0.728494 -0.194454 0
M  V30 2265 H 228.213 -1.8211 0.22542 0
M  V30 2266 H 226.595 -3.55215 -1.75038 0
M  V30 2267 H 227.769 -4.51043 0.94325 0
M  V30 2268 H 226.084 -4.10527 0.696905 0
M  V30 2269 H 228.681 -4.98158 -1.94275 0
M  V30 2270 H 229.024 -3.3519 -2.46888 0
M  V30 2271 H 229.557 -3.88484 -0.855863 0
M  V30 2272 H 226.296 -6.5318 0.550989 0
M  V30 2273 H 225.816 -5.90655 -1.04338 0
M  V30 2274 H 227.495 -6.42588 -0.754265 0
M  V30 2275 N 227.627 0.131896 -1.57047 0
M  V30 2276 C 229.043 0.485031 -1.52051 0
M  V30 2277 C 229.243 1.82563 -0.85281 0
M  V30 2278 O 228.299 2.48817 -0.429694 0
M  V30 2279 C 229.612 0.481409 -2.96821 0
M  V30 2280 C 231.16 0.565868 -3.07842 0
M  V30 2281 C 231.635 0.592762 -4.54148 0
M  V30 2282 N 233.126 0.654564 -4.58552 0
M  V30 2283 C 233.861 0.696608 -5.69153 0
M  V30 2284 N 233.357 0.697078 -6.89284 0
M  V30 2285 N 235.15 0.738639 -5.57226 0
M  V30 2286 H 227.301 -0.746664 -1.98843 0
M  V30 2287 H 229.564 -0.273999 -0.90754 0
M  V30 2288 H 229.27 -0.435731 -3.4899 0
M  V30 2289 H 229.144 1.3139 -3.53577 0
M  V30 2290 H 231.531 1.47343 -2.55684 0
M  V30 2291 H 231.612 -0.29406 -2.54104 0
M  V30 2292 H 231.256 -0.310701 -5.06949 0
M  V30 2293 H 231.186 1.46939 -5.05684 0
M  V30 2294 H 233.677 0.660887 -3.72076 0
M  V30 2295 H 233.99 0.731426 -7.69331 0
M  V30 2296 H 232.335 0.66471 -6.91814 0
M  V30 2297 H 235.526 0.735545 -4.62285 0
M  V30 2298 H 235.699 0.767938 -6.43434 0
M  V30 2299 N 229.106 1.52395 0.401703 0
M  V30 2300 C 230.352 1.67065 1.14966 0
M  V30 2301 C 230.685 0.403052 1.89971 0
M  V30 2302 O 229.96 -0.598774 1.85054 0
M  V30 2303 C 230.243 2.8975 2.13815 0
M  V30 2304 C 230.096 4.26578 1.42658 0
M  V30 2305 C 231.415 3.07965 3.14397 0
M  V30 2306 H 228.534 0.607968 0.416587 0
M  V30 2307 H 231.176 1.84965 0.434511 0
M  V30 2308 H 229.326 2.74619 2.74803 0
M  V30 2309 H 230.998 4.53451 0.847329 0
M  V30 2310 H 229.241 4.27639 0.72849 0
M  V30 2311 H 229.912 5.08483 2.14823 0
M  V30 2312 H 232.388 3.22043 2.63491 0
M  V30 2313 H 231.264 3.95308 3.80819 0
M  V30 2314 H 231.525 2.21611 3.82545 0
M  V30 2315 N 230.584 -0.659388 1.43143 0
M  V30 2316 C 231.514 -1.78422 1.50625 0
M  V30 2317 C 232.495 -1.66216 0.361443 0
M  V30 2318 O 233.68 -1.85404 0.577834 0
M  V30 2319 C 230.81 -3.16815 1.42287 0
M  V30 2320 C 229.764 -3.43777 2.54954 0
M  V30 2321 C 229.09 -4.81905 2.31671 0
M  V30 2322 C 230.39 -3.39134 3.97222 0
M  V30 2323 H 232.084 -1.72417 2.44771 0
M  V30 2324 H 229.63 -0.828084 1.17808 0
M  V30 2325 H 231.583 -3.95253 1.46127 0
M  V30 2326 H 230.307 -3.23534 0.446435 0
M  V30 2327 H 228.966 -2.67707 2.50457 0
M  V30 2328 H 228.614 -4.85294 1.32284 0
M  V30 2329 H 228.314 -5.00906 3.07192 0
M  V30 2330 H 229.838 -5.62609 2.37284 0
M  V30 2331 H 231.252 -4.07518 4.03239 0
M  V30 2332 H 229.649 -3.69671 4.72719 0
M  V30 2333 H 230.719 -2.37426 4.22797 0
M  V30 2334 N 232.062 -1.29571 -0.897171 0
M  V30 2335 C 232.972 -1.16808 -2.03453 0
M  V30 2336 C 233.988 -0.0907471 -1.73763 0
M  V30 2337 O 235.164 -0.303312 -1.99103 0
M  V30 2338 C 232.229 -0.848264 -3.36163 0
M  V30 2339 C 231.29 -2.0097 -3.79354 0
M  V30 2340 C 230.523 -1.70505 -5.05731 0
M  V30 2341 O 230.746 -0.62718 -5.66941 0
M  V30 2342 O 229.68 -2.5538 -5.45036 0
M  V30 2343 H 233.506 -2.12325 -2.17144 0
M  V30 2344 H 231.091 -1.09047 -1.02123 0
M  V30 2345 H 232.973 -0.684581 -4.15802 0
M  V30 2346 H 231.648 0.0771071 -3.23608 0
M  V30 2347 H 230.555 -2.22863 -3.00471 0
M  V30 2348 H 231.888 -2.91636 -3.96496 0
M  V30 2349 N 233.54 1.10788 -1.12088 0
M  V30 2350 C 234.956 1.34691 -0.856186 0
M  V30 2351 C 235.156 1.94791 0.515615 0
M  V30 2352 O 234.212 2.18524 1.26505 0
M  V30 2353 C 235.525 2.27208 -1.9697 0
M  V30 2354 C 237.073 2.40755 -2.00016 0
M  V30 2355 C 237.548 3.36598 -3.1059 0
M  V30 2356 N 239.039 3.44164 -3.10008 0
M  V30 2357 C 239.774 4.18284 -3.92206 0
M  V30 2358 N 239.27 4.95322 -4.84384 0
M  V30 2359 N 241.063 4.13865 -3.80357 0
M  V30 2360 H 233.214 0.70144 -2.00483 0
M  V30 2361 H 235.477 0.371405 -0.872217 0
M  V30 2362 H 235.183 1.90251 -2.958 0
M  V30 2363 H 235.057 3.27485 -1.87172 0
M  V30 2364 H 237.444 2.76982 -1.01808 0
M  V30 2365 H 237.525 1.40305 -2.13888 0
M  V30 2366 H 237.169 3.01096 -4.09028 0
M  V30 2367 H 237.099 4.36918 -2.93956 0
M  V30 2368 H 239.59 2.8922 -2.43228 0
M  V30 2369 H 239.903 5.49267 -5.43623 0
M  V30 2370 H 238.248 4.94459 -4.884 0
M  V30 2371 H 241.439 3.52773 -3.07683 0
M  V30 2372 H 241.612 4.71372 -4.44649 0
M  V30 2373 N 235.018 0.912232 1.28515 0
M  V30 2374 C 236.243 0.559774 1.99703 0
M  V30 2375 C 236.668 -0.851393 1.67729 0
M  V30 2376 O 236.026 -1.56875 0.908834 0
M  V30 2377 C 236.074 0.773874 3.52198 0
M  V30 2378 O 235.178 -0.167842 4.12058 0
M  V30 2379 H 234.519 0.21723 0.627461 0
M  V30 2380 H 237.049 1.22725 1.63706 0
M  V30 2381 H 237.059 0.683386 4.02236 0
M  V30 2382 H 235.734 1.80261 3.74805 0
M  V30 2383 H 234.311 -0.0287509 3.72889 0
M  V30 2384 N 236.496 -1.42363 0.676048 0
M  V30 2385 C 237.444 -2.32596 -0.0131507 0
M  V30 2386 C 238.438 -1.49891 -0.789238 0
M  V30 2387 O 239.644 -1.65955 -0.697061 0
M  V30 2388 H 236.019 -0.751647 -0.0230481 0
M  V30 2389 H 237.99 -2.88421 0.765243 0
M  V30 2390 C 236.739 -3.34479 -0.949702 0
M  V30 2391 H 236.062 -3.98158 -0.361938 0
M  V30 2392 H 237.502 -4.00199 -1.4006 0
M  V30 2393 C 235.961 -2.66838 -2.05667 0
M  V30 2394 O 236.491 -2.50124 -3.14326 0
M  V30 2395 N 234.697 -2.25843 -1.82875 0
M  V30 2396 H 234.244 -2.39637 -0.945085 0
M  V30 2397 H 234.202 -1.80918 -2.5713 0
M  V30 2398 N 237.974 -0.419461 -1.51915 0
M  V30 2399 C 238.937 0.389116 -2.25873 0
M  V30 2400 C 239.937 0.964924 -1.28631 0
M  V30 2401 O 241.127 0.842179 -1.52489 0
M  V30 2402 C 238.259 1.54874 -3.03689 0
M  V30 2403 H 239.452 -0.258799 -2.98781 0
M  V30 2404 H 237.005 -0.172209 -1.55348 0
M  V30 2405 H 237.74 2.23323 -2.35154 0
M  V30 2406 H 237.525 1.14223 -3.75094 0
M  V30 2407 H 239.015 2.12046 -3.59759 0
M  V30 2408 N 239.452 1.56882 -0.150215 0
M  V30 2409 C 240.698 1.96518 0.500834 0
M  V30 2410 C 241.031 1.03527 1.64304 0
M  V30 2411 O 240.306 0.0782751 1.94342 0
M  V30 2412 C 240.589 3.45822 1.00395 0
M  V30 2413 C 240.442 4.49591 -0.136983 0
M  V30 2414 C 241.761 3.97704 1.88467 0
M  V30 2415 H 238.88 0.714535 0.18058 0
M  V30 2416 H 241.522 1.88577 -0.232091 0
M  V30 2417 H 239.672 3.5272 1.62851 0
M  V30 2418 H 241.344 4.5477 -0.77343 0
M  V30 2419 H 239.587 4.26441 -0.795652 0
M  V30 2420 H 240.258 5.51402 0.256815 0
M  V30 2421 H 242.734 3.93304 1.35834 0
M  V30 2422 H 241.61 5.0263 2.20578 0
M  V30 2423 H 241.871 3.40252 2.82279 0
M  V30 2424 N 240.93 -0.123565 1.57115 0
M  V30 2425 C 242.207 -0.862196 1.75572 0
M  V30 2426 C 242.587 -1.98279 0.724475 0
M  V30 2427 O 241.935 -2.27102 -0.252407 0
M  V30 2428 C 242.145 -1.38309 3.20424 0
M  V30 2429 C 243.493 -1.83724 3.82793 0
M  V30 2430 O 244.517 -1.47999 3.23998 0
M  V30 2431 O 243.376 -2.49685 4.86127 0
M  V30 2432 H 240.47 -0.409113 0.718718 0
M  V30 2433 H 243.016 -0.107661 1.69358 0
M  V30 2434 H 241.788 -0.578889 3.86994 0
M  V30 2435 H 241.411 -2.20046 3.31158 0
M  V30 2436 N 242.408 -1.52605 -0.393616 0
M  V30 2437 C 243.338 -1.80022 -1.48709 0
M  V30 2438 C 244.319 -0.651995 -1.57108 0
M  V30 2439 O 245.504 -0.89913 -1.72132 0
M  V30 2440 C 242.634 -1.96492 -2.86371 0
M  V30 2441 C 241.588 -3.12161 -2.92813 0
M  V30 2442 C 240.914 -3.13877 -4.3288 0
M  V30 2443 C 242.214 -4.51322 -2.6288 0
M  V30 2444 H 243.908 -2.71589 -1.26015 0
M  V30 2445 H 241.454 -1.30684 -0.604778 0
M  V30 2446 H 243.407 -2.14255 -3.62867 0
M  V30 2447 H 242.131 -1.01611 -3.10391 0
M  V30 2448 H 240.79 -2.94173 -2.18764 0
M  V30 2449 H 240.438 -2.16687 -4.53933 0
M  V30 2450 H 240.138 -3.91576 -4.38112 0
M  V30 2451 H 241.662 -3.33789 -5.1129 0
M  V30 2452 H 243.076 -4.69435 -3.29096 0
M  V30 2453 H 241.473 -5.31053 -2.79468 0
M  V30 2454 H 242.543 -4.58353 -1.58242 0
M  V30 2455 N 243.887 0.651787 -1.4349 0
M  V30 2456 C 245.136 1.40754 -1.44469 0
M  V30 2457 C 245.449 1.95463 -0.0731845 0
M  V30 2458 O 246.655 2.71471 0.0395721 0
M  V30 2459 C 245.111 2.54735 -2.5424 0
M  V30 2460 C 244.719 2.06628 -3.97504 0
M  V30 2461 C 246.463 3.32092 -2.64414 0
M  V30 2462 C 244.37 3.17829 -4.98737 0
M  V30 2463 H 243.3 0.528862 -0.53742 0
M  V30 2464 H 245.951 0.703365 -1.69485 0
M  V30 2465 H 244.333 3.2763 -2.22428 0
M  V30 2466 H 245.507 1.40734 -4.38783 0
M  V30 2467 H 243.822 1.42146 -3.91387 0
M  V30 2468 H 246.419 4.14952 -3.37223 0
M  V30 2469 H 246.762 3.80217 -1.69532 0
M  V30 2470 H 247.295 2.66279 -2.95534 0
M  V30 2471 H 244.034 2.74671 -5.95177 0
M  V30 2472 H 243.554 3.82429 -4.62069 0
M  V30 2473 H 245.233 3.82937 -5.21505 0
M  V30 2474 N 245.365 1.30045 0.890287 0
M  V30 2475 C 246.611 1.18737 1.64406 0
M  V30 2476 C 246.944 -0.258525 1.92472 0
M  V30 2477 O 246.219 -1.18562 1.54186 0
M  V30 2478 C 246.502 2.01087 2.98724 0
M  V30 2479 C 246.355 3.53867 2.77665 0
M  V30 2480 C 247.674 1.84457 3.9958 0
M  V30 2481 H 244.793 0.432698 0.596608 0
M  V30 2482 H 247.435 1.5962 1.0306 0
M  V30 2483 H 245.585 1.66349 3.51084 0
M  V30 2484 H 247.257 3.98637 2.32133 0
M  V30 2485 H 245.5 3.78318 2.12269 0
M  V30 2486 H 246.171 4.06772 3.7315 0
M  V30 2487 H 248.647 2.14817 3.56361 0
M  V30 2488 H 247.523 2.44411 4.91482 0
M  V30 2489 H 247.784 0.802276 4.3476 0
M  V30 2490 N 246.843 -1.10192 1.12674 0
M  V30 2491 C 248.068 -1.86523 0.906853 0
M  V30 2492 C 248.493 -1.80221 -0.538711 0
M  V30 2493 O 247.851 -1.17396 -1.38158 0
M  V30 2494 C 247.899 -3.32758 1.3894 0
M  V30 2495 O 247.003 -4.08449 0.5695 0
M  V30 2496 H 246.344 -0.578678 0.325619 0
M  V30 2497 H 248.874 -1.39203 1.49946 0
M  V30 2498 H 248.884 -3.83608 1.38958 0
M  V30 2499 H 247.559 -3.36661 2.44197 0
M  V30 2500 H 246.136 -3.67427 0.636528 0
M  V30 2501 N 248.321 -0.919034 -1.28029 0
M  V30 2502 C 249.598 -0.473668 -1.89778 0
M  V30 2503 C 249.978 1.04783 -1.83259 0
M  V30 2504 O 249.326 1.8982 -1.27202 0
M  V30 2505 C 249.536 -1.00998 -3.34066 0
M  V30 2506 C 250.884 -1.06525 -4.1102 0
M  V30 2507 O 251.908 -0.958996 -3.43048 0
M  V30 2508 O 250.767 -1.22776 -5.3253 0
M  V30 2509 H 247.861 -0.15098 -0.813101 0
M  V30 2510 H 250.407 -1.01016 -1.36359 0
M  V30 2511 H 249.179 -2.05392 -3.33061 0
M  V30 2512 H 248.802 -0.454626 -3.94992 0
M  V30 2513 N 249.799 1.42003 -0.683588 0
M  V30 2514 C 250.746 2.30798 -0.0107309 0
M  V30 2515 C 251.716 1.4645 0.783688 0
M  V30 2516 O 252.901 1.75263 0.754156 0
M  V30 2517 C 250.041 3.3238 0.928306 0
M  V30 2518 C 249.154 4.31814 0.126776 0
M  V30 2519 C 248.289 5.20468 1.06236 0
M  V30 2520 C 247.328 6.11577 0.253035 0
M  V30 2521 N 246.465 6.92754 1.14179 0
M  V30 2522 H 251.305 2.8778 -0.773727 0
M  V30 2523 H 248.842 1.41745 -0.393283 0
M  V30 2524 H 250.8 3.89813 1.48666 0
M  V30 2525 H 249.43 2.76976 1.65783 0
M  V30 2526 H 248.482 3.76427 -0.54833 0
M  V30 2527 H 249.794 4.96276 -0.501192 0
M  V30 2528 H 248.948 5.82677 1.69035 0
M  V30 2529 H 247.687 4.56204 1.7242 0
M  V30 2530 H 246.692 5.48428 -0.388108 0
M  V30 2531 H 247.917 6.77892 -0.404839 0
M  V30 2532 H 245.863 6.3111 1.78987 0
M  V30 2533 H 245.78 7.53855 0.569111 0
M  V30 2534 H 247.048 7.59441 1.75697 0
M  V30 2535 N 251.277 0.427512 1.51691 0
M  V30 2536 C 252.526 -0.143679 2.01188 0
M  V30 2537 C 252.839 -1.44642 1.31674 0
M  V30 2538 O 254.045 -2.09997 1.72086 0
M  V30 2539 C 252.501 -0.306602 3.58592 0
M  V30 2540 C 252.109 0.985125 4.37035 0
M  V30 2541 C 253.853 -0.832091 4.16265 0
M  V30 2542 C 251.76 0.788382 5.86122 0
M  V30 2543 H 250.69 -0.0574701 0.751807 0
M  V30 2544 H 253.341 0.555772 1.74881 0
M  V30 2545 H 251.723 -1.06882 3.81303 0
M  V30 2546 H 252.897 1.75492 4.26074 0
M  V30 2547 H 251.212 1.4384 3.90767 0
M  V30 2548 H 253.809 -0.995617 5.25349 0
M  V30 2549 H 254.152 -1.81186 3.74803 0
M  V30 2550 H 254.685 -0.128444 3.97593 0
M  V30 2551 H 251.424 1.74025 6.31978 0
M  V30 2552 H 250.944 0.0582143 5.99772 0
M  V30 2553 H 252.623 0.437722 6.45518 0
M  V30 2554 N 252.755 -1.56801 0.158532 0
M  V30 2555 C 254.003 -1.96102 -0.488712 0
M  V30 2556 C 254.324 -1.04498 -1.64636 0
M  V30 2557 O 253.594 -0.108783 -1.95598 0
M  V30 2558 H 252.174 -0.724102 -0.183535 0
M  V30 2559 H 254.836 -1.93457 0.236728 0
M  V30 2560 H 253.932 -3.00097 -0.857219 0
M  V30 2561 N 254.233 0.115231 -1.57178 0
M  V30 2562 C 255.163 1.1423 -2.03651 0
M  V30 2563 C 256.144 1.42967 -0.921655 0
M  V30 2564 O 257.329 1.53343 -1.19162 0
M  V30 2565 C 254.459 2.4675 -2.44401 0
M  V30 2566 C 253.413 2.32467 -3.59365 0
M  V30 2567 C 252.739 3.69984 -3.86026 0
M  V30 2568 C 254.039 1.78203 -4.90959 0
M  V30 2569 H 255.733 0.755749 -2.89705 0
M  V30 2570 H 253.279 0.362093 -1.39373 0
M  V30 2571 H 255.232 3.18854 -2.75517 0
M  V30 2572 H 253.956 2.87302 -1.55322 0
M  V30 2573 H 252.615 1.62811 -3.28463 0
M  V30 2574 H 252.263 4.08028 -2.94147 0
M  V30 2575 H 251.963 3.61279 -4.63412 0
M  V30 2576 H 253.487 4.43587 -4.19599 0
M  V30 2577 H 254.901 2.40128 -5.20587 0
M  V30 2578 H 253.298 1.8031 -5.72371 0
M  V30 2579 H 254.368 0.739876 -4.79222 0
M  V30 2580 N 255.711 1.52812 0.385517 0
M  V30 2581 C 257.122 1.5993 0.963293 0
M  V30 2582 C 257.473 0.454302 1.90868 0
M  V30 2583 O 256.598 -0.422132 2.12243 0
M  V30 2584 C 257.193 2.89871 1.75387 0
M  V30 2585 C 255.752 2.99389 2.28129 0
M  V30 2586 C 254.899 2.55071 1.08783 0
M  V30 2587 H 257.85 1.5784 0.164948 0
M  V30 2588 H 257.871 2.76553 2.61341 0
M  V30 2589 H 257.383 3.73186 1.06554 0
M  V30 2590 H 255.484 2.20619 3.00263 0
M  V30 2591 H 255.597 4.04096 2.57377 0
M  V30 2592 H 253.961 2.09473 1.4489 0
M  V30 2593 H 254.744 3.40785 0.414807 0
M  V30 2594 N 257.189 -0.644168 1.43834 0
M  V30 2595 C 258.437 -1.40117 1.45642 0
M  V30 2596 C 258.758 -1.94814 0.0852413 0
M  V30 2597 O 258.028 -1.74988 -0.880688 0
M  V30 2598 H 256.608 -0.52005 0.536243 0
M  V30 2599 H 259.27 -0.7591 1.7951 0
M  V30 2600 H 258.366 -2.23902 2.17427 0
M  V30 2601 N 258.668 -1.30515 -0.883378 0
M  V30 2602 C 259.896 -1.22359 -1.66841 0
M  V30 2603 C 260.311 0.213296 -1.87591 0
M  V30 2604 O 259.668 1.14075 -1.42454 0
M  V30 2605 C 259.719 -1.95011 -3.04389 0
M  V30 2606 O 259.44 -3.3309 -2.84575 0
M  V30 2607 C 260.941 -1.93532 -3.98824 0
M  V30 2608 H 258.161 -0.423371 -0.520575 0
M  V30 2609 H 260.705 -1.72167 -1.10357 0
M  V30 2610 H 258.86 -1.48997 -3.57601 0
M  V30 2611 H 259.274 -3.69907 -3.71846 0
M  V30 2612 H 260.748 -2.48902 -4.92699 0
M  V30 2613 H 261.225 -0.914627 -4.29571 0
M  V30 2614 H 261.831 -2.39364 -3.51547 0
M  V30 2615 N 260.146 1.09593 -1.13257 0
M  V30 2616 C 261.562 1.33775 -0.870423 0
M  V30 2617 C 261.762 1.95327 0.494926 0
M  V30 2618 O 260.818 2.19853 1.2418 0
M  V30 2619 C 262.131 2.25106 -1.99369 0
M  V30 2620 C 263.679 2.3862 -2.02558 0
M  V30 2621 C 264.154 3.33285 -3.14142 0
M  V30 2622 N 265.645 3.40857 -3.13641 0
M  V30 2623 C 266.38 4.14101 -3.96621 0
M  V30 2624 N 265.876 4.90157 -4.8961 0
M  V30 2625 N 267.669 4.09808 -3.84726 0
M  V30 2626 H 259.82 0.680136 -2.01216 0
M  V30 2627 H 262.083 0.362133 -0.876107 0
M  V30 2628 H 261.789 1.87103 -2.97801 0
M  V30 2629 H 261.663 3.25481 -1.90635 0
M  V30 2630 H 264.05 2.75887 -1.0474 0
M  V30 2631 H 264.131 1.38028 -2.15364 0
M  V30 2632 H 263.775 2.96741 -4.12198 0
M  V30 2633 H 263.705 4.33776 -2.98574 0
M  V30 2634 H 266.196 2.86624 -2.46282 0
M  V30 2635 H 266.509 5.4347 -5.49418 0
M  V30 2636 H 264.854 4.89251 -4.93617 0
M  V30 2637 H 268.045 3.4949 -3.11408 0
M  V30 2638 H 268.218 4.66629 -4.49623 0
M  V30 2639 N 261.624 0.925811 1.2754 0
M  V30 2640 C 263.04 0.625767 1.46821 0
M  V30 2641 C 263.24 -0.825506 1.83814 0
M  V30 2642 O 262.296 -1.60356 1.95044 0
M  V30 2643 C 263.609 1.57402 2.56213 0
M  V30 2644 C 265.157 1.58204 2.70075 0
M  V30 2645 C 265.632 2.51721 3.82623 0
M  V30 2646 N 267.123 2.49917 3.89994 0
M  V30 2647 C 267.858 3.18968 4.76494 0
M  V30 2648 N 267.354 3.97391 5.67496 0
M  V30 2649 N 269.147 3.07996 4.70208 0
M  V30 2650 H 261.298 1.86409 1.01811 0
M  V30 2651 H 263.561 0.800213 0.508295 0
M  V30 2652 H 263.267 2.60925 2.35819 0
M  V30 2653 H 263.141 1.31428 3.53563 0
M  V30 2654 H 265.528 0.554124 2.89851 0
M  V30 2655 H 265.609 1.88226 1.73218 0
M  V30 2656 H 265.253 3.54622 3.63601 0
M  V30 2657 H 265.183 2.18996 4.78903 0
M  V30 2658 H 267.674 1.9296 3.24923 0
M  V30 2659 H 267.987 4.4707 6.30356 0
M  V30 2660 H 266.332 4.01495 5.67298 0
M  V30 2661 H 269.523 2.46223 3.9811 0
M  V30 2662 H 269.696 3.6208 5.37403 0
M  V30 2663 N 263.102 -1.41638 0.69111 0
M  V30 2664 C 264.348 -2.01598 0.220519 0
M  V30 2665 C 264.681 -1.54594 -1.17535 0
M  V30 2666 O 263.956 -0.755177 -1.79241 0
M  V30 2667 C 264.239 -3.59062 0.273243 0
M  V30 2668 C 264.092 -4.16203 1.70573 0
M  V30 2669 C 265.411 -4.38546 -0.369457 0
M  V30 2670 H 262.53 -0.732468 0.0816045 0
M  V30 2671 H 265.172 -1.68445 0.878986 0
M  V30 2672 H 263.322 -3.87435 -0.287411 0
M  V30 2673 H 264.994 -3.98722 2.31989 0
M  V30 2674 H 263.237 -3.71414 2.2413 0
M  V30 2675 H 263.908 -5.25358 1.69419 0
M  V30 2676 H 266.384 -4.1596 0.107977 0
M  V30 2677 H 265.26 -5.48069 -0.302002 0
M  V30 2678 H 265.521 -4.17662 -1.44951 0
M  V30 2679 N 264.58 -0.43555 -1.51462 0
M  V30 2680 C 265.826 0.131709 -2.02372 0
M  V30 2681 C 266.159 1.42516 -1.3192 0
M  V30 2682 O 265.434 1.89606 -0.433573 0
M  V30 2683 C 265.717 0.352301 -3.58373 0
M  V30 2684 C 265.57 -0.959676 -4.39443 0
M  V30 2685 C 266.889 1.12286 -4.25535 0
M  V30 2686 H 264.008 0.0463936 -0.735538 0
M  V30 2687 H 266.65 -0.574197 -1.81116 0
M  V30 2688 H 264.8 0.9536 -3.76615 0
M  V30 2689 H 266.472 -1.59482 -4.32855 0
M  V30 2690 H 264.715 -1.56468 -4.04599 0
M  V30 2691 H 265.386 -0.759394 -5.46752 0
M  V30 2692 H 267.862 0.613545 -4.11552 0
M  V30 2693 H 266.738 1.24598 -5.34571 0
M  V30 2694 H 266.999 2.15048 -3.86273 0
M  V30 2695 N 266.058 1.56714 -0.166846 0
M  V30 2696 C 267.306 1.96358 0.478305 0
M  V30 2697 C 267.627 1.0537 1.6408 0
M  V30 2698 O 266.897 0.119154 1.95537 0
M  V30 2699 H 265.477 0.725065 0.179692 0
M  V30 2700 H 268.139 1.93329 -0.246985 0
M  V30 2701 H 267.235 3.00547 0.841292 0
M  V30 2702 N 267.536 -0.106894 1.57237 0
M  V30 2703 C 268.499 -1.11466 2.0027 0
M  V30 2704 C 269.499 -1.33623 0.894519 0
M  V30 2705 O 270.689 -1.29935 1.16028 0
M  V30 2706 C 267.821 -2.46646 2.35327 0
M  V30 2707 H 269.014 -0.744516 2.90512 0
M  V30 2708 H 266.567 -0.351576 1.52295 0
M  V30 2709 H 267.302 -2.88558 1.48003 0
M  V30 2710 H 267.087 -2.31915 3.16161 0
M  V30 2711 H 268.577 -3.19151 2.69318 0
M  V30 2712 N 269.014 -1.53014 -0.377408 0
M  V30 2713 C 270.26 -1.69821 -1.11948 0
M  V30 2714 C 270.615 -0.438581 -1.87335 0
M  V30 2715 O 269.908 0.568094 -1.82984 0
M  V30 2716 C 270.102 -2.87982 -2.11663 0
M  V30 2717 C 269.931 -4.25315 -1.46072 0
M  V30 2718 C 268.701 -4.90354 -1.21986 0
M  V30 2719 C 270.899 -5.06281 -0.904664 0
M  V30 2720 N 268.881 -6.11641 -0.526215 0
M  V30 2721 C 270.252 -6.19069 -0.339726 0
M  V30 2722 C 272.307 -4.91395 -0.8022 0
M  V30 2723 C 271.01 -7.18598 0.317669 0
M  V30 2724 C 273.036 -5.91187 -0.158606 0
M  V30 2725 C 272.398 -7.03289 0.39551 0
M  V30 2726 H 268.497 -0.674785 -0.395207 0
M  V30 2727 H 271.081 -1.90389 -0.407437 0
M  V30 2728 H 269.252 -2.68974 -2.80192 0
M  V30 2729 H 270.984 -2.93669 -2.78461 0
M  V30 2730 H 267.739 -4.49286 -1.49798 0
M  V30 2731 H 268.163 -6.76719 -0.195098 0
M  V30 2732 H 272.805 -4.04925 -1.21639 0
M  V30 2733 H 270.523 -8.04669 0.743836 0
M  V30 2734 H 274.109 -5.81744 -0.0804138 0
M  V30 2735 H 272.989 -7.79183 0.885648 0
M  V30 2736 N 270.492 0.636531 -1.44174 0
M  V30 2737 C 271.738 1.39826 -1.4689 0
M  V30 2738 C 272.071 1.93947 -0.0990585 0
M  V30 2739 O 271.346 1.73325 0.882544 0
M  V30 2740 C 271.629 2.56751 -2.5249 0
M  V30 2741 C 271.482 2.08014 -3.98811 0
M  V30 2742 C 272.801 3.58946 -2.54649 0
M  V30 2743 H 269.92 0.507075 -0.53483 0
M  V30 2744 H 272.562 0.720188 -1.75822 0
M  V30 2745 H 270.712 3.14597 -2.2795 0
M  V30 2746 H 272.384 1.5504 -4.34466 0
M  V30 2747 H 270.627 1.39242 -4.10846 0
M  V30 2748 H 271.298 2.92169 -4.68339 0
M  V30 2749 H 273.774 3.1089 -2.76563 0
M  V30 2750 H 272.65 4.38286 -3.3045 0
M  V30 2751 H 272.911 4.12655 -1.58646 0
M  V30 2752 N 271.97 1.30982 0.876444 0
M  V30 2753 C 273.216 1.21484 1.63136 0
M  V30 2754 C 273.571 -0.226339 1.91064 0
M  V30 2755 O 272.864 -1.15788 1.52656 0
M  V30 2756 C 273.058 1.98572 2.9716 0
M  V30 2757 C 272.887 3.50039 2.82317 0
M  V30 2758 C 271.657 4.19393 2.81847 0
M  V30 2759 C 273.855 4.45111 2.57644 0
M  V30 2760 N 271.837 5.57061 2.57985 0
M  V30 2761 C 273.208 5.70402 2.42986 0
M  V30 2762 C 275.263 4.3461 2.42937 0
M  V30 2763 C 273.966 6.8638 2.15115 0
M  V30 2764 C 275.992 5.50365 2.16454 0
M  V30 2765 C 275.354 6.74642 2.02578 0
M  V30 2766 H 271.453 0.499632 0.601575 0
M  V30 2767 H 274.037 1.65094 1.03209 0
M  V30 2768 H 272.208 1.5734 3.55104 0
M  V30 2769 H 273.94 1.81146 3.61895 0
M  V30 2770 H 270.695 3.71303 2.93991 0
M  V30 2771 H 271.119 6.29529 2.49043 0
M  V30 2772 H 275.761 3.39199 2.52396 0
M  V30 2773 H 273.479 7.81824 2.04394 0
M  V30 2774 H 277.065 5.44154 2.05884 0
M  V30 2775 H 275.945 7.62699 1.82374 0
M  V30 2776 N 273.449 -1.08991 1.13837 0
M  V30 2777 C 274.397 -2.17841 0.815347 0
M  V30 2778 C 275.391 -1.68164 -0.204233 0
M  V30 2779 O 276.597 -1.79897 -0.0609304 0
M  V30 2780 H 272.972 -0.710654 0.245915 0
M  V30 2781 H 274.943 -2.42315 1.74143 0
M  V30 2782 C 273.692 -3.46381 0.302614 0
M  V30 2783 H 273.015 -3.84979 1.0785 0
M  V30 2784 H 274.455 -4.23844 0.115074 0
M  V30 2785 C 272.914 -3.22556 -0.972591 0
M  V30 2786 O 273.444 -3.45599 -2.04754 0
M  V30 2787 N 271.65 -2.76134 -0.905455 0
M  V30 2788 H 271.197 -2.57582 -0.0305421 0
M  V30 2789 H 271.155 -2.60571 -1.75926 0
M  V30 2790 N 274.927 -0.932562 -1.27047 0
M  V30 2791 C 276.343 -0.633544 -1.46487 0
M  V30 2792 C 276.543 0.815746 -1.84249 0
M  V30 2793 O 275.599 1.59319 -1.95892 0
M  V30 2794 C 276.912 -1.58758 -2.55375 0
M  V30 2795 C 278.46 -1.59634 -2.69232 0
M  V30 2796 C 278.935 -2.53747 -3.81283 0
M  V30 2797 N 280.426 -2.51982 -3.88664 0
M  V30 2798 C 281.161 -3.21491 -4.74796 0
M  V30 2799 N 280.657 -4.00395 -5.65381 0
M  V30 2800 N 282.45 -3.10485 -4.68568 0
M  V30 2801 H 274.601 -1.86946 -1.00821 0
M  V30 2802 H 276.864 -0.802897 -0.504044 0
M  V30 2803 H 276.57 -2.62172 -2.34432 0
M  V30 2804 H 276.444 -1.33301 -3.52861 0
M  V30 2805 H 278.831 -0.569488 -2.89553 0
M  V30 2806 H 278.912 -1.89142 -1.72218 0
M  V30 2807 H 278.556 -3.56545 -3.61715 0
M  V30 2808 H 278.486 -2.21532 -4.77735 0
M  V30 2809 H 280.977 -1.94681 -3.23895 0
M  V30 2810 H 281.29 -4.50406 -6.27976 0
M  V30 2811 H 279.635 -4.04498 -5.65161 0
M  V30 2812 H 282.826 -2.48331 -3.96799 0
M  V30 2813 H 282.999 -3.64925 -5.35475 0
M  V30 2814 N 276.405 1.4127 -0.698611 0
M  V30 2815 C 277.353 2.32588 -0.023855 0
M  V30 2816 C 278.347 1.51128 0.765292 0
M  V30 2817 O 279.553 1.67043 0.670571 0
M  V30 2818 H 275.928 0.751918 0.0110871 0
M  V30 2819 H 277.899 2.87167 -0.811031 0
M  V30 2820 C 276.648 3.35947 0.896369 0
M  V30 2821 H 275.971 3.98684 0.298548 0
M  V30 2822 H 277.411 4.02376 1.33676 0
M  V30 2823 C 275.87 2.70076 2.01396 0
M  V30 2824 O 276.4 2.55093 3.10307 0
M  V30 2825 N 274.606 2.28724 1.79259 0
M  V30 2826 H 274.153 2.4111 0.906841 0
M  V30 2827 H 274.111 1.84986 2.54219 0
M  V30 2828 N 277.883 0.443576 1.51229 0
M  V30 2829 C 278.83 -0.364716 2.279 0
M  V30 2830 C 279.8 -1.0114 1.31757 0
M  V30 2831 O 280.985 -1.02912 1.60667 0
M  V30 2832 C 278.125 -1.45644 3.12861 0
M  V30 2833 C 277.238 -0.827269 4.24005 0
M  V30 2834 C 276.373 -1.89456 4.96266 0
M  V30 2835 C 275.412 -1.24416 5.99322 0
M  V30 2836 N 274.549 -2.25309 6.64966 0
M  V30 2837 H 279.389 0.295464 2.96532 0
M  V30 2838 H 276.926 0.157554 1.46254 0
M  V30 2839 H 278.884 -2.10076 3.6045 0
M  V30 2840 H 277.514 -2.08616 2.46331 0
M  V30 2841 H 276.566 -0.0710839 3.80334 0
M  V30 2842 H 277.878 -0.312481 4.9782 0
M  V30 2843 H 277.032 -2.61535 5.47434 0
M  V30 2844 H 275.771 -2.4431 4.22095 0
M  V30 2845 H 274.776 -0.508868 5.4744 0
M  V30 2846 H 276.001 -0.702882 6.75453 0
M  V30 2847 H 273.947 -2.79231 5.93604 0
M  V30 2848 H 273.864 -1.78739 7.34567 0
M  V30 2849 H 275.132 -2.96853 7.20763 0
M  V30 2850 N 279.361 -1.56624 0.175154 0
M  V30 2851 C 280.271 -2.21741 -0.766042 0
M  V30 2852 C 281.287 -1.21023 -1.25018 0
M  V30 2853 O 282.463 -1.53697 -1.3015 0
M  V30 2854 C 279.528 -2.84839 -1.97655 0
M  V30 2855 C 278.589 -4.00769 -1.53892 0
M  V30 2856 C 277.822 -4.60849 -2.69173 0
M  V30 2857 O 278.045 -4.19823 -3.86141 0
M  V30 2858 O 276.979 -5.50655 -2.43028 0
M  V30 2859 H 280.805 -3.02738 -0.241585 0
M  V30 2860 H 278.39 -1.49305 -0.053222 0
M  V30 2861 H 280.272 -3.24834 -2.68442 0
M  V30 2862 H 278.947 -2.06836 -2.48999 0
M  V30 2863 H 277.854 -3.65436 -0.80044 0
M  V30 2864 H 279.187 -4.80376 -1.07236 0
M  V30 2865 N 280.839 0.0985539 -1.57292 0
M  V30 2866 C 282.067 0.816318 -1.90115 0
M  V30 2867 C 282.482 1.72451 -0.768509 0
M  V30 2868 O 281.839 1.80643 0.259687 0
M  V30 2869 C 281.89 1.63259 -3.22535 0
M  V30 2870 O 281.611 0.760934 -4.31441 0
M  V30 2871 C 283.112 2.45372 -3.69199 0
M  V30 2872 H 280.332 0.233595 -0.629027 0
M  V30 2873 H 282.876 0.0768229 -2.04356 0
M  V30 2874 H 281.031 2.32463 -3.09903 0
M  V30 2875 H 281.445 1.32595 -5.07463 0
M  V30 2876 H 282.919 2.98144 -4.64558 0
M  V30 2877 H 283.396 3.23677 -2.96867 0
M  V30 2878 H 284.002 1.81373 -3.84687 0
M  V30 2879 N 282.317 1.53212 0.369288 0
M  V30 2880 C 283.563 1.69466 1.11397 0
M  V30 2881 C 283.896 0.443257 1.89074 0
M  V30 2882 O 283.171 -0.559386 1.86282 0
M  V30 2883 C 283.454 2.9422 2.07621 0
M  V30 2884 C 283.307 4.29508 1.33577 0
M  V30 2885 C 284.626 3.14565 3.07794 0
M  V30 2886 H 281.745 0.616667 0.403597 0
M  V30 2887 H 284.387 1.85845 0.395179 0
M  V30 2888 H 282.537 2.80387 2.68916 0
M  V30 2889 H 284.209 4.55147 0.750955 0
M  V30 2890 H 282.452 4.29088 0.637618 0
M  V30 2891 H 283.123 5.12926 2.03989 0
M  V30 2892 H 285.599 3.2756 2.56601 0
M  V30 2893 H 284.475 4.03297 3.72348 0
M  V30 2894 H 284.736 2.29675 3.77759 0
M  V30 2895 N 283.795 -0.628877 1.44509 0
M  V30 2896 C 284.705 -1.7694 1.54044 0
M  V30 2897 C 285.721 -1.68705 0.425987 0
M  V30 2898 O 286.897 -1.89442 0.683656 0
M  V30 2899 C 283.962 -3.13332 1.48405 0
M  V30 2900 C 283.023 -3.33181 2.70719 0
M  V30 2901 C 282.256 -4.63067 2.6534 0
M  V30 2902 O 282.479 -5.44017 1.71469 0
M  V30 2903 O 281.413 -4.85167 3.56226 0
M  V30 2904 H 285.239 -1.71848 2.50403 0
M  V30 2905 H 282.824 -0.790378 1.26781 0
M  V30 2906 H 284.706 -3.94634 1.47791 0
M  V30 2907 H 283.381 -3.1896 0.551898 0
M  V30 2908 H 282.288 -2.51549 2.769 0
M  V30 2909 H 283.621 -3.32416 3.62988 0
M  V30 2910 N 285.273 -1.31445 -0.869486 0
M  V30 2911 C 286.501 -1.24122 -1.65534 0
M  V30 2912 C 286.916 0.193387 -1.87807 0
M  V30 2913 O 286.273 1.12557 -1.43656 0
M  V30 2914 C 286.324 -1.98229 -3.02304 0
M  V30 2915 O 286.045 -3.3609 -2.81026 0
M  V30 2916 C 287.546 -1.97751 -3.96749 0
M  V30 2917 H 284.766 -0.428868 -0.516055 0
M  V30 2918 H 287.31 -1.73328 -1.08525 0
M  V30 2919 H 285.465 -1.52782 -3.56001 0
M  V30 2920 H 285.879 -3.7383 -3.67902 0
M  V30 2921 H 287.353 -2.54114 -4.90031 0
M  V30 2922 H 287.83 -0.960137 -4.28577 0
M  V30 2923 H 288.436 -2.43079 -3.48988 0
M  V30 2924 N 286.751 1.08385 -1.14413 0
M  V30 2925 C 287.991 1.8238 -0.922868 0
M  V30 2926 C 288.355 1.84225 0.540842 0
M  V30 2927 O 289.556 2.53985 0.880058 0
M  V30 2928 C 287.827 3.24048 -1.50757 0
M  V30 2929 S 289.386 4.14917 -1.4279 0
M  V30 2930 H 286.204 0.628524 -0.332384 0
M  V30 2931 H 288.806 1.30278 -1.45766 0
M  V30 2932 H 287.51 3.20288 -2.56601 0
M  V30 2933 H 287.041 3.81224 -0.971178 0
M  V30 2934 H 289.056 4.94473 -0.413582 0
M  V30 2935 N 288.23 0.939286 1.26551 0
M  V30 2936 C 289.18 0.418284 2.2413 0
M  V30 2937 C 290.164 -0.483935 1.5345 0
M  V30 2938 O 291.356 -0.319489 1.74093 0
M  V30 2939 C 288.485 -0.31709 3.41832 0
M  V30 2940 C 287.571 0.602311 4.19801 0
M  V30 2941 N 287.962 1.72726 4.75394 0
M  V30 2942 C 286.26 0.407534 4.44134 0
M  V30 2943 C 286.961 2.30004 5.34297 0
M  V30 2944 N 285.937 1.58828 5.1988 0
M  V30 2945 H 289.739 1.27705 2.64705 0
M  V30 2946 H 287.253 0.794929 1.41614 0
M  V30 2947 H 289.25 -0.707364 4.10855 0
M  V30 2948 H 287.91 -1.17264 3.02786 0
M  V30 2949 H 288.921 2.10944 4.72994 0
M  V30 2950 H 285.598 -0.406406 4.15517 0
M  V30 2951 H 286.988 3.24778 5.88191 0
M  V30 2952 N 289.708 -1.40897 0.706093 0
M  V30 2953 C 290.671 -2.29131 0.0562841 0
M  V30 2954 C 291.671 -1.44901 -0.697166 0
M  V30 2955 O 292.861 -1.65926 -0.530484 0
M  V30 2956 C 289.993 -3.27957 -0.93043 0
M  V30 2957 H 291.186 -2.88091 0.833284 0
M  V30 2958 H 288.739 -1.4906 0.470192 0
M  V30 2959 H 289.474 -2.73997 -1.73482 0
M  V30 2960 H 289.259 -3.90124 -0.393166 0
M  V30 2961 H 290.749 -3.94049 -1.38256 0
M  V30 2962 N 291.186 -0.45159 -1.50991 0
M  V30 2963 C 292.133 0.352625 -2.2809 0
M  V30 2964 C 293.103 1.0044 -1.32291 0
M  V30 2965 O 294.288 1.02058 -1.6121 0
M  V30 2966 C 291.428 1.43983 -3.13629 0
M  V30 2967 C 290.541 0.804772 -4.24438 0
M  V30 2968 C 289.676 1.86822 -4.97263 0
M  V30 2969 C 288.715 1.21236 -5.99973 0
M  V30 2970 N 287.852 2.2178 -6.66152 0
M  V30 2971 H 292.692 -0.311186 -2.96371 0
M  V30 2972 H 290.229 -0.165308 -1.46168 0
M  V30 2973 H 292.187 2.08161 -3.61559 0
M  V30 2974 H 290.817 2.07307 -2.47434 0
M  V30 2975 H 289.869 0.0509129 -3.80366 0
M  V30 2976 H 291.181 0.286076 -4.97979 0
M  V30 2977 H 290.335 2.58628 -5.48813 0
M  V30 2978 H 289.074 2.42068 -4.23385 0
M  V30 2979 H 288.079 0.479828 -5.47702 0
M  V30 2980 H 289.304 0.667051 -6.75816 0
M  V30 2981 H 287.25 2.76079 -5.95077 0
M  V30 2982 H 287.167 1.74841 -7.35504 0
M  V30 2983 H 288.435 2.93026 -7.22327 0
M  V30 2984 N 292.664 1.56529 -0.183458 0
M  V30 2985 C 293.627 2.17324 0.728223 0
M  V30 2986 C 294.627 1.12453 1.14939 0
M  V30 2987 O 295.817 1.37902 1.06437 0
M  V30 2988 C 292.949 2.76591 1.99274 0
M  V30 2989 H 294.142 2.99241 0.198772 0
M  V30 2990 H 291.695 1.5616 0.0661391 0
M  V30 2991 H 292.43 1.98441 2.56499 0
M  V30 2992 H 292.215 3.5335 1.69959 0
M  V30 2993 H 293.705 3.23311 2.6431 0
M  V30 2994 N 294.142 -0.090211 1.57342 0
M  V30 2995 C 295.388 -0.793982 1.86611 0
M  V30 2996 C 295.721 -1.78142 0.773252 0
M  V30 2997 O 294.996 -1.93271 -0.218304 0
M  V30 2998 C 295.279 -1.51839 3.26523 0
M  V30 2999 C 295.132 -0.548609 4.46442 0
M  V30 3000 C 296.451 -2.46779 3.64401 0
M  V30 3001 H 293.57 -0.287186 0.678744 0
M  V30 3002 H 296.212 -0.0575076 1.89913 0
M  V30 3003 H 294.362 -2.14617 3.23839 0
M  V30 3004 H 296.034 0.0725513 4.61243 0
M  V30 3005 H 294.277 0.137614 4.33582 0
M  V30 3006 H 294.948 -1.09271 5.41076 0
M  V30 3007 H 297.424 -1.94089 3.68061 0
M  V30 3008 H 296.3 -2.94479 4.63221 0
M  V30 3009 H 296.561 -3.30758 2.93346 0
M  V30 3010 N 295.62 -1.53406 -0.361157 0
M  V30 3011 C 296.866 -1.70054 -1.10496 0
M  V30 3012 C 297.199 -0.453278 -1.88836 0
M  V30 3013 O 296.474 0.5495 -1.86576 0
M  V30 3014 C 296.757 -2.95317 -2.06058 0
M  V30 3015 C 296.61 -4.3021 -1.31298 0
M  V30 3016 C 297.929 -3.16193 -3.06121 0
M  V30 3017 H 295.048 -0.618799 -0.400321 0
M  V30 3018 H 297.69 -1.86052 -0.385318 0
M  V30 3019 H 295.84 -2.81809 -2.67425 0
M  V30 3020 H 297.512 -4.55538 -0.726807 0
M  V30 3021 H 295.755 -4.29421 -0.614853 0
M  V30 3022 H 296.426 -5.14 -2.01265 0
M  V30 3023 H 298.902 -3.28916 -2.5486 0
M  V30 3024 H 297.778 -4.05266 -3.70204 0
M  V30 3025 H 298.039 -2.31676 -3.76535 0
M  V30 3026 N 297.098 0.621204 -1.44841 0
M  V30 3027 C 298.028 1.74366 -1.55303 0
M  V30 3028 C 299.009 1.65199 -0.405385 0
M  V30 3029 O 300.194 1.83807 -0.626787 0
M  V30 3030 C 297.324 3.12931 -1.50637 0
M  V30 3031 C 296.278 3.36896 -2.63979 0
M  V30 3032 C 295.604 4.75594 -2.44366 0
M  V30 3033 C 296.904 3.28483 -4.06074 0
M  V30 3034 H 298.598 1.65867 -2.49256 0
M  V30 3035 H 296.144 0.796558 -1.19962 0
M  V30 3036 H 298.097 3.9124 -1.56555 0
M  V30 3037 H 296.821 3.22237 -0.532057 0
M  V30 3038 H 295.48 2.60972 -2.57467 0
M  V30 3039 H 295.128 4.81616 -1.45105 0
M  V30 3040 H 294.828 4.92586 -3.20364 0
M  V30 3041 H 296.352 5.5612 -2.52117 0
M  V30 3042 H 297.766 3.96684 -4.13902 0
M  V30 3043 H 296.163 3.57008 -4.82354 0
M  V30 3044 H 297.233 2.26133 -4.28943 0
M  V30 3045 N 298.576 1.31904 0.862503 0
M  V30 3046 C 299.539 1.20131 1.95195 0
M  V30 3047 C 300.539 0.126409 1.60302 0
M  V30 3048 O 301.729 0.376234 1.70089 0
M  V30 3049 C 298.861 0.845691 3.30244 0
M  V30 3050 H 300.054 2.16943 2.07064 0
M  V30 3051 H 297.607 1.15622 1.05172 0
M  V30 3052 H 298.342 -0.120957 3.24074 0
M  V30 3053 H 298.127 1.62276 3.56944 0
M  V30 3054 H 299.617 0.787418 4.10109 0
M  V30 3055 N 300.054 -1.07777 1.14986 0
M  V30 3056 C 301.282 -1.84018 0.945773 0
M  V30 3057 C 301.697 -1.81897 -0.505863 0
M  V30 3058 O 301.054 -1.22726 -1.35072 0
M  V30 3059 C 301.105 -3.31287 1.44677 0
M  V30 3060 O 300.826 -3.33449 2.84154 0
M  V30 3061 C 302.327 -4.24311 1.28355 0
M  V30 3062 H 299.547 -0.580716 0.336169 0
M  V30 3063 H 302.091 -1.36077 1.52654 0
M  V30 3064 H 300.246 -3.76594 0.908625 0
M  V30 3065 H 300.66 -4.25427 3.06777 0
M  V30 3066 H 302.134 -5.2573 1.68261 0
M  V30 3067 H 302.611 -4.38612 0.227184 0
M  V30 3068 H 303.217 -3.84836 1.81056 0
M  V30 3069 N 301.532 -0.945985 -1.26051 0
M  V30 3070 C 302.78 -0.594941 -1.93145 0
M  V30 3071 C 303.101 0.86953 -1.7454 0
M  V30 3072 O 302.371 1.61838 -1.10387 0
M  V30 3073 H 300.951 -0.217044 -0.714773 0
M  V30 3074 H 303.613 -1.20235 -1.53393 0
M  V30 3075 H 302.709 -0.816835 -3.01221 0
M  V30 3076 N 303.011 1.40521 -0.713556 0
M  V30 3077 C 304.259 2.00527 -0.251692 0
M  V30 3078 C 304.58 1.56857 1.15848 0
M  V30 3079 O 303.85 0.807127 1.785 0
M  V30 3080 H 302.43 0.741551 -0.0900646 0
M  V30 3081 H 305.092 1.71887 -0.918733 0
M  V30 3082 H 304.188 3.10813 -0.283192 0
M  V30 3083 N 304.489 0.459591 1.5075 0
M  V30 3084 C 305.452 -0.329093 2.26825 0
M  V30 3085 C 306.452 -0.930481 1.31144 0
M  V30 3086 O 307.642 -0.801453 1.54669 0
M  V30 3087 C 304.774 -1.46768 3.07688 0
M  V30 3088 H 305.967 0.337924 2.9799 0
M  V30 3089 H 303.52 0.213336 1.54837 0
M  V30 3090 H 304.255 -2.17009 2.40993 0
M  V30 3091 H 304.04 -1.04238 3.77991 0
M  V30 3092 H 305.53 -2.02433 3.65254 0
M  V30 3093 N 305.967 -1.56429 0.191757 0
M  V30 3094 C 307.192 -2.02309 -0.456706 0
M  V30 3095 C 307.617 -1.07103 -1.5463 0
M  V30 3096 O 306.975 -0.0539677 -1.8122 0
M  V30 3097 C 307.023 -3.46654 -0.993159 0
M  V30 3098 O 306.127 -3.54559 -2.10622 0
M  V30 3099 H 305.468 -0.655303 -0.107114 0
M  V30 3100 H 307.998 -2.02364 0.301653 0
M  V30 3101 H 308.008 -3.86377 -1.31061 0
M  V30 3102 H 306.683 -4.1544 -0.195504 0
M  V30 3103 H 305.26 -3.26708 -1.79767 0
M  V30 3104 N 307.445 0.0818655 -1.57387 0
M  V30 3105 C 308.392 1.09834 -2.0299 0
M  V30 3106 C 309.362 1.39043 -0.908639 0
M  V30 3107 O 310.547 1.50282 -1.17559 0
M  V30 3108 C 307.687 2.40971 -2.47037 0
M  V30 3109 C 306.8 2.18379 -3.7274 0
M  V30 3110 C 305.935 3.43008 -4.0561 0
M  V30 3111 C 304.974 3.15736 -5.24383 0
M  V30 3112 N 304.111 4.32667 -5.52941 0
M  V30 3113 H 308.951 0.702472 -2.89602 0
M  V30 3114 H 306.488 0.33531 -1.43227 0
M  V30 3115 H 308.446 3.1752 -2.70623 0
M  V30 3116 H 307.076 2.78379 -1.63417 0
M  V30 3117 H 306.128 1.32569 -3.56552 0
M  V30 3118 H 307.44 1.94227 -4.59431 0
M  V30 3119 H 306.594 4.27958 -4.30043 0
M  V30 3120 H 305.333 3.70225 -3.17466 0
M  V30 3121 H 304.338 2.2918 -4.99757 0
M  V30 3122 H 305.563 2.8985 -6.14136 0
M  V30 3123 H 303.509 4.59935 -4.67756 0
M  V30 3124 H 303.426 4.11753 -6.34031 0
M  V30 3125 H 304.694 5.18644 -5.81918 0
M  V30 3126 N 308.923 1.53595 0.353017 0
M  V30 3127 C 310.169 1.70638 1.09593 0
M  V30 3128 C 310.502 0.463286 1.88593 0
M  V30 3129 O 309.777 -0.539597 1.86865 0
M  V30 3130 C 310.06 2.96406 2.04489 0
M  V30 3131 C 309.913 4.30901 1.29014 0
M  V30 3132 C 311.232 3.17812 3.0444 0
M  V30 3133 H 308.351 0.620913 0.397034 0
M  V30 3134 H 310.993 1.86254 0.375446 0
M  V30 3135 H 309.143 2.83223 2.65927 0
M  V30 3136 H 310.815 4.55917 0.702638 0
M  V30 3137 H 309.058 4.29741 0.592071 0
M  V30 3138 H 309.729 5.1506 1.98537 0
M  V30 3139 H 312.205 3.30263 2.53112 0
M  V30 3140 H 311.081 4.07223 3.6805 0
M  V30 3141 H 311.342 2.33669 3.75301 0
M  V30 3142 N 310.401 -0.613514 1.45168 0
M  V30 3143 C 311.631 -1.39743 1.52169 0
M  V30 3144 C 312.039 -1.88596 0.151086 0
M  V30 3145 O 311.382 -1.6251 -0.856521 0
M  V30 3146 C 311.444 -2.64035 2.43979 0
M  V30 3147 C 311.108 -2.36861 3.90827 0
M  V30 3148 C 312.105 -1.97591 4.80889 0
M  V30 3149 C 309.79 -2.49956 4.35692 0
M  V30 3150 C 311.784 -1.71768 6.1382 0
M  V30 3151 C 309.471 -2.23747 5.68665 0
M  V30 3152 C 310.469 -1.84714 6.57548 0
M  V30 3153 O 310.157 -1.58809 7.88058 0
M  V30 3154 H 309.889 -0.434382 0.517966 0
M  V30 3155 H 312.443 -0.75587 1.90986 0
M  V30 3156 H 310.673 -3.3089 2.00122 0
M  V30 3157 H 312.362 -3.26069 2.41731 0
M  V30 3158 H 313.128 -1.87015 4.47493 0
M  V30 3159 H 309.007 -2.79305 3.66756 0
M  V30 3160 H 312.551 -1.41227 6.83155 0
M  V30 3161 H 308.448 -2.33938 6.01617 0
M  V30 3162 H 309.216 -1.7291 8.00028 0
M  V30 3163 N 311.879 -1.3236 -0.855495 0
M  V30 3164 C 312.811 -1.17052 -1.97057 0
M  V30 3165 C 313.824 -0.10574 -1.62456 0
M  V30 3166 O 315.013 -0.354619 -1.74942 0
M  V30 3167 C 312.113 -0.769305 -3.30053 0
M  V30 3168 C 311.286 -1.9222 -3.929 0
M  V30 3169 C 310.345 -1.50466 -5.04228 0
M  V30 3170 O 309.371 -2.21655 -5.24269 0
M  V30 3171 N 310.573 -0.400209 -5.79119 0
M  V30 3172 H 313.338 -2.13103 -2.1073 0
M  V30 3173 H 310.899 -1.24885 -1.0303 0
M  V30 3174 H 312.891 -0.472407 -4.01933 0
M  V30 3175 H 311.461 0.100025 -3.1244 0
M  V30 3176 H 310.681 -2.38563 -3.13817 0
M  V30 3177 H 311.969 -2.69403 -4.31624 0
M  V30 3178 H 311.367 0.192319 -5.65373 0
M  V30 3179 H 309.924 -0.162912 -6.51596 0
M  V30 3180 N 313.357 1.07166 -1.15556 0
M  V30 3181 C 314.587 1.83248 -0.954133 0
M  V30 3182 C 314.995 1.82449 0.500911 0
M  V30 3183 O 314.338 1.23575 1.35923 0
M  V30 3184 C 314.4 3.31393 -1.39351 0
M  V30 3185 C 314.064 3.5591 -2.86666 0
M  V30 3186 C 315.061 3.49695 -3.8472 0
M  V30 3187 C 312.746 3.83515 -3.24379 0
M  V30 3188 C 314.74 3.70737 -5.18491 0
M  V30 3189 C 312.427 4.04209 -4.58321 0
M  V30 3190 C 313.425 3.97815 -5.55186 0
M  V30 3191 O 313.113 4.17954 -6.86709 0
M  V30 3192 H 312.845 0.584941 -0.338851 0
M  V30 3193 H 315.399 1.36169 -1.53777 0
M  V30 3194 H 313.629 3.79292 -0.75329 0
M  V30 3195 H 315.318 3.88945 -1.16089 0
M  V30 3196 H 316.084 3.28368 -3.56931 0
M  V30 3197 H 311.963 3.87605 -2.49567 0
M  V30 3198 H 315.507 3.65663 -5.94085 0
M  V30 3199 H 311.404 4.25023 -4.85825 0
M  V30 3200 H 312.172 4.35291 -6.93155 0
M  V30 3201 N 314.835 0.952656 1.25548 0
M  V30 3202 C 316.063 0.623496 1.97282 0
M  V30 3203 C 316.478 -0.803987 1.70826 0
M  V30 3204 O 315.835 -1.53755 0.983147 0
M  V30 3205 C 315.886 0.870209 3.5087 0
M  V30 3206 O 315.607 2.24156 3.76412 0
M  V30 3207 C 317.108 0.553164 4.39835 0
M  V30 3208 H 314.328 0.233931 0.628902 0
M  V30 3209 H 316.872 1.27649 1.59768 0
M  V30 3210 H 315.027 0.263652 3.86502 0
M  V30 3211 H 315.441 2.31021 4.70882 0
M  V30 3212 H 316.915 0.776342 5.46513 0
M  V30 3213 H 317.392 -0.512215 4.36203 0
M  V30 3214 H 317.998 1.13896 4.09766 0
M  V30 3215 N 316.313 -1.40141 0.720998 0
M  V30 3216 C 317.541 -2.05096 0.272656 0
M  V30 3217 C 317.956 -1.54334 -1.0875 0
M  V30 3218 O 317.313 -0.702211 -1.6845 0
M  V30 3219 C 317.364 -3.60636 0.249835 0
M  V30 3220 O 317.085 -4.09526 1.55629 0
M  V30 3221 C 318.586 -4.42772 -0.216396 0
M  V30 3222 H 315.806 -0.659897 0.121558 0
M  V30 3223 H 318.35 -1.79449 0.980723 0
M  V30 3224 H 316.505 -3.85232 -0.409237 0
M  V30 3225 H 316.919 -5.03758 1.4604 0
M  V30 3226 H 318.393 -5.51702 -0.181212 0
M  V30 3227 H 318.87 -4.20756 -1.25941 0
M  V30 3228 H 319.476 -4.23294 0.412596 0
M  V30 3229 N 317.792 -0.46758 -1.50504 0
M  V30 3230 C 318.74 0.342482 -2.30065 0
M  V30 3231 C 319.734 0.993596 -1.37201 0
M  V30 3232 O 320.94 0.925102 -1.54408 0
M  V30 3233 H 317.315 0.129283 -0.740803 0
M  V30 3234 H 319.286 -0.34899 -2.96352 0
M  V30 3235 C 318.035 1.4139 -3.17654 0
M  V30 3236 H 317.358 0.922264 -3.89017 0
M  V30 3237 H 318.798 1.95335 -3.76325 0
M  V30 3238 C 317.257 2.4139 -2.35016 0
M  V30 3239 O 317.787 3.46586 -2.03079 0
M  V30 3240 N 315.993 2.13021 -1.97662 0
M  V30 3241 H 315.54 1.27499 -2.23834 0
M  V30 3242 H 315.498 2.80164 -1.42673 0
M  V30 3243 N 319.27 1.56325 -0.20005 0
M  V30 3244 C 320.681 1.8408 0.31167 0
M  V30 3245 C 321.032 1.12087 1.61031 0
M  V30 3246 O 320.157 0.38332 2.12978 0
M  V30 3247 C 320.752 3.33932 0.57226 0
M  V30 3248 C 319.311 3.6208 1.02834 0
M  V30 3249 C 318.458 2.77186 0.079634 0
M  V30 3250 H 321.409 1.52939 -0.423729 0
M  V30 3251 H 321.43 3.52971 1.42096 0
M  V30 3252 H 320.942 3.86303 -0.37308 0
M  V30 3253 H 319.043 3.15147 1.98778 0
M  V30 3254 H 319.156 4.7023 0.917624 0
M  V30 3255 H 317.52 2.47951 0.582448 0
M  V30 3256 H 318.303 3.32347 -0.860238 0
M  V30 3257 N 320.748 -0.0735177 1.57428 0
M  V30 3258 C 322.025 -0.805903 1.78226 0
M  V30 3259 C 322.405 -1.95874 0.787189 0
M  V30 3260 O 321.753 -2.2779 -0.180029 0
M  V30 3261 C 321.963 -1.28045 3.24662 0
M  V30 3262 C 323.311 -1.71453 3.88444 0
M  V30 3263 O 324.335 -1.37616 3.28543 0
M  V30 3264 O 323.194 -2.34093 4.93825 0
M  V30 3265 H 320.288 -0.386041 0.73137 0
M  V30 3266 H 322.834 -0.0537269 1.69615 0
M  V30 3267 H 321.606 -0.455476 3.8864 0
M  V30 3268 H 321.229 -2.094 3.37991 0
M  V30 3269 N 322.226 -1.5378 -0.344866 0
M  V30 3270 C 323.475 -1.7018 -1.08267 0
M  V30 3271 C 323.788 -0.471 -1.89845 0
M  V30 3272 O 324.994 -0.515917 -2.66553 0
M  V30 3273 C 323.45 -3.00923 -1.97417 0
M  V30 3274 C 323.058 -4.31335 -1.21053 0
M  V30 3275 C 324.802 -3.26688 -2.71063 0
M  V30 3276 C 322.709 -5.53153 -2.09225 0
M  V30 3277 H 321.639 -0.634138 -0.407903 0
M  V30 3278 H 324.29 -1.8028 -0.342246 0
M  V30 3279 H 322.672 -2.84676 -2.75274 0
M  V30 3280 H 323.846 -4.58281 -0.481159 0
M  V30 3281 H 322.161 -4.12173 -0.591813 0
M  V30 3282 H 324.758 -4.1489 -3.37299 0
M  V30 3283 H 325.101 -2.43639 -3.37558 0
M  V30 3284 H 325.634 -3.43705 -2.0028 0
M  V30 3285 H 322.373 -6.38741 -1.47274 0
M  V30 3286 H 321.893 -5.30458 -2.79955 0
M  V30 3287 H 323.572 -5.88744 -2.68308 0
M  V30 3288 N 323.704 0.605807 -1.45491 0
M  V30 3289 C 324.929 1.39625 -1.53361 0
M  V30 3290 C 325.354 1.87351 -0.167645 0
M  V30 3291 O 324.712 1.60243 0.848051 0
M  V30 3292 C 324.76 2.57559 -2.5238 0
M  V30 3293 O 323.864 3.58248 -2.04285 0
M  V30 3294 H 323.205 0.416771 -0.516912 0
M  V30 3295 H 325.735 0.737103 -1.90861 0
M  V30 3296 H 325.745 3.0478 -2.71244 0
M  V30 3297 H 324.42 2.22171 -3.51586 0
M  V30 3298 H 322.997 3.17664 -1.95305 0
M  V30 3299 N 325.182 1.32811 0.848464 0
M  V30 3300 C 326.407 1.26882 1.6406 0
M  V30 3301 C 326.832 -0.15913 1.87426 0
M  V30 3302 O 326.19 -1.11258 1.43148 0
M  V30 3303 C 326.238 2.03997 2.97351 0
M  V30 3304 O 325.342 1.39201 3.88197 0
M  V30 3305 H 324.683 0.436982 0.499943 0
M  V30 3306 H 327.213 1.75224 1.0563 0
M  V30 3307 H 327.223 2.14403 3.47124 0
M  V30 3308 H 325.898 3.0783 2.79666 0
M  V30 3309 H 324.475 1.37381 3.46671 0
M  V30 3310 N 326.66 -1.06551 1.16123 0
M  V30 3311 C 327.908 -1.78947 0.939267 0
M  V30 3312 C 328.229 -1.87532 -0.534476 0
M  V30 3313 O 327.499 -1.38211 -1.38833 0
M  V30 3314 H 326.079 -0.662807 0.344523 0
M  V30 3315 H 328.741 -1.28725 1.46342 0
M  V30 3316 H 327.837 -2.81117 1.35572 0
M  V30 3317 N 328.138 -0.959301 -1.25041 0
M  V30 3318 C 329.415 -0.533805 -1.88175 0
M  V30 3319 C 329.795 0.988994 -1.865 0
M  V30 3320 O 329.143 1.85677 -1.33177 0
M  V30 3321 C 329.353 -1.11575 -3.30684 0
M  V30 3322 C 330.701 -1.19548 -4.07423 0
M  V30 3323 O 331.725 -1.06765 -3.39823 0
M  V30 3324 O 330.584 -1.39656 -5.28354 0
M  V30 3325 H 327.678 -0.176772 -0.807887 0
M  V30 3326 H 330.224 -1.05303 -1.33076 0
M  V30 3327 H 328.996 -2.15884 -3.26358 0
M  V30 3328 H 328.619 -0.580059 -3.93346 0
M  V30 3329 N 329.616 1.39756 -0.72842 0
M  V30 3330 C 330.864 2.00248 -0.272946 0
M  V30 3331 C 331.185 1.58077 1.14178 0
M  V30 3332 O 330.455 0.826014 1.77634 0
M  V30 3333 H 329.035 0.740554 -0.0979247 0
M  V30 3334 H 331.697 1.70903 -0.936912 0
M  V30 3335 H 330.793 3.10495 -0.316142 0
M  V30 3336 N 331.094 0.475555 1.50254 0
M  V30 3337 C 332.343 -0.0795996 2.01543 0
M  V30 3338 C 332.656 -1.4038 1.36209 0
M  V30 3339 O 333.862 -2.04415 1.7868 0
M  V30 3340 C 332.318 -0.192363 3.59386 0
M  V30 3341 C 331.926 1.12367 4.33679 0
M  V30 3342 C 333.67 -0.699238 4.18701 0
M  V30 3343 C 331.577 0.974453 5.83317 0
M  V30 3344 H 330.507 -0.0335228 0.753254 0
M  V30 3345 H 333.158 0.611128 1.73025 0
M  V30 3346 H 331.54 -0.946974 3.84511 0
M  V30 3347 H 332.714 1.88958 4.20276 0
M  V30 3348 H 331.029 1.562 3.85993 0
M  V30 3349 H 333.626 -0.827978 5.28251 0
M  V30 3350 H 333.969 -1.69171 3.80377 0
M  V30 3351 H 334.502 -0.00188807 3.978 0
M  V30 3352 H 331.241 1.94042 6.26121 0
M  V30 3353 H 330.761 0.248998 5.99283 0
M  V30 3354 H 332.44 0.642867 6.43798 0
M  V30 3355 N 332.573 -1.56217 0.208337 0
M  V30 3356 C 333.536 -2.18455 -0.693557 0
M  V30 3357 C 334.536 -1.14268 -1.13135 0
M  V30 3358 O 335.726 -1.39577 -1.0423 0
M  V30 3359 C 332.858 -2.79727 -1.94848 0
M  V30 3360 H 334.051 -2.99519 -0.15114 0
M  V30 3361 H 331.604 -1.56245 -0.041287 0
M  V30 3362 H 332.339 -2.02497 -2.53309 0
M  V30 3363 H 332.124 -3.56009 -1.64316 0
M  V30 3364 H 333.614 -3.27475 -2.59133 0
M  V30 3365 N 334.051 0.0651679 -1.57465 0
M  V30 3366 C 334.984 1.10876 -1.99453 0
M  V30 3367 C 335.962 1.37205 -0.872555 0
M  V30 3368 O 337.146 1.50468 -1.13542 0
M  V30 3369 C 334.273 2.45167 -2.3369 0
M  V30 3370 C 333.319 2.3493 -3.55964 0
M  V30 3371 S 334.152 1.73708 -5.06543 0
M  V30 3372 C 335.308 3.09563 -5.43987 0
M  V30 3373 H 335.541 0.750967 -2.87659 0
M  V30 3374 H 333.074 0.273933 -1.51951 0
M  V30 3375 H 335.032 3.22412 -2.54088 0
M  V30 3376 H 333.693 2.78105 -1.46001 0
M  V30 3377 H 332.886 3.3398 -3.77457 0
M  V30 3378 H 332.488 1.65823 -3.3523 0
M  V30 3379 H 334.78 4.05882 -5.42463 0
M  V30 3380 H 335.723 2.92843 -6.44708 0
M  V30 3381 H 336.131 3.10474 -4.71451 0
M  V30 3382 N 335.529 1.53961 0.336706 0
M  V30 3383 C 336.492 1.81724 1.39675 0
M  V30 3384 C 337.492 0.688532 1.45313 0
M  V30 3385 O 338.682 0.956829 1.45569 0
M  V30 3386 C 335.814 1.96543 2.78538 0
M  V30 3387 H 337.007 2.76424 1.16318 0
M  V30 3388 H 334.56 1.45478 0.571474 0
M  V30 3389 H 335.295 1.0401 3.07168 0
M  V30 3390 H 335.08 2.78665 2.75841 0
M  V30 3391 H 336.57 2.19516 3.5525 0
M  V30 3392 N 337.007 -0.598083 1.45811 0
M  V30 3393 C 338.253 -1.35679 1.51535 0
M  V30 3394 C 338.608 -1.91745 0.15864 0
M  V30 3395 O 337.901 -1.72654 -0.830724 0
M  V30 3396 C 338.095 -2.51669 2.53766 0
M  V30 3397 C 337.924 -2.06963 3.99245 0
M  V30 3398 C 336.694 -1.92693 4.67116 0
M  V30 3399 C 338.892 -1.63855 4.875 0
M  V30 3400 N 336.874 -1.41897 5.97276 0
M  V30 3401 C 338.245 -1.24541 6.07363 0
M  V30 3402 C 340.3 -1.51533 4.74281 0
M  V30 3403 C 339.003 -0.741354 7.15469 0
M  V30 3404 C 341.029 -1.0253 5.82444 0
M  V30 3405 C 340.391 -0.641869 7.01469 0
M  V30 3406 H 336.49 -0.490042 0.609412 0
M  V30 3407 H 339.074 -0.682687 1.82339 0
M  V30 3408 H 337.245 -3.16663 2.24898 0
M  V30 3409 H 338.977 -3.18578 2.4958 0
M  V30 3410 H 335.732 -2.1417 4.22408 0
M  V30 3411 H 336.156 -1.18704 6.66512 0
M  V30 3412 H 340.798 -1.798 3.82664 0
M  V30 3413 H 338.516 -0.446243 8.06867 0
M  V30 3414 H 342.102 -0.934088 5.74253 0
M  V30 3415 H 340.982 -0.268531 7.8374 0
M  V30 3416 N 338.485 -1.33259 -0.841409 0
M  V30 3417 C 339.901 -1.12538 -1.13169 0
M  V30 3418 C 340.101 0.0854037 -2.01319 0
M  V30 3419 O 339.157 0.766417 -2.40587 0
M  V30 3420 C 340.47 -2.41156 -1.79623 0
M  V30 3421 C 342.018 -2.47038 -1.922 0
M  V30 3422 C 342.493 -3.7561 -2.6207 0
M  V30 3423 N 343.984 -3.76667 -2.69585 0
M  V30 3424 C 344.719 -4.72861 -3.2433 0
M  V30 3425 N 344.215 -5.79428 -3.79783 0
M  V30 3426 N 346.008 -4.6034 -3.22558 0
M  V30 3427 H 338.159 -2.10868 -0.254676 0
M  V30 3428 H 340.422 -0.931615 -0.175493 0
M  V30 3429 H 340.128 -3.29747 -1.22311 0
M  V30 3430 H 340.002 -2.53114 -2.79666 0
M  V30 3431 H 342.389 -1.58898 -2.48667 0
M  V30 3432 H 342.47 -2.39022 -0.911148 0
M  V30 3433 H 342.114 -4.64131 -2.06263 0
M  V30 3434 H 342.044 -3.80902 -3.63622 0
M  V30 3435 H 344.535 -2.99648 -2.30259 0
M  V30 3436 H 344.848 -6.48867 -4.19752 0
M  V30 3437 H 343.193 -5.83166 -3.78078 0
M  V30 3438 H 346.384 -3.76244 -2.78492 0
M  V30 3439 H 346.557 -5.35478 -3.64921 0
M  V30 3440 N 339.963 1.05934 -1.16686 0
M  V30 3441 C 340.926 2.11669 -0.879144 0
M  V30 3442 C 341.926 1.60294 0.127445 0
M  V30 3443 O 343.116 1.7389 -0.103865 0
M  V30 3444 C 340.248 3.39438 -0.315425 0
M  V30 3445 H 341.441 2.38626 -1.81653 0
M  V30 3446 H 338.994 1.22058 -0.976299 0
M  V30 3447 H 339.729 3.18132 0.629468 0
M  V30 3448 H 339.514 3.78034 -1.04079 0
M  V30 3449 H 341.004 4.17391 -0.132189 0
M  V30 3450 N 341.441 0.965919 1.2453 0
M  V30 3451 C 342.689 0.625593 1.92174 0
M  V30 3452 C 343.01 -0.841652 1.75901 0
M  V30 3453 O 342.28 -1.60061 1.12948 0
M  V30 3454 H 340.86 0.228388 0.71123 0
M  V30 3455 H 343.522 1.2266 1.51461 0
M  V30 3456 H 342.618 0.864653 2.99884 0
M  V30 3457 N 342.919 -1.39368 0.735821 0
M  V30 3458 C 344.159 -2.02349 0.288813 0
M  V30 3459 C 344.523 -1.57127 -1.10341 0
M  V30 3460 O 345.724 -2.12312 -1.64854 0
M  V30 3461 C 343.995 -3.55288 0.387986 0
M  V30 3462 S 345.554 -4.38795 0.0209408 0
M  V30 3463 H 342.372 -0.701944 0.113115 0
M  V30 3464 H 344.974 -1.70164 0.962518 0
M  V30 3465 H 343.678 -3.85691 1.40252 0
M  V30 3466 H 343.209 -3.92227 -0.303512 0
M  V30 3467 H 345.224 -4.81595 -1.19503 0
M  V30 3468 N 344.397 -0.483516 -1.5 0
M  V30 3469 C 345.813 -0.138404 -1.58999 0
M  V30 3470 C 346.013 1.35597 -1.4905 0
M  V30 3471 O 345.069 2.13039 -1.35539 0
M  V30 3472 C 346.382 -0.699658 -2.92447 0
M  V30 3473 C 347.93 -0.664195 -3.05872 0
M  V30 3474 C 348.405 -1.20321 -4.41913 0
M  V30 3475 N 349.896 -1.16315 -4.48358 0
M  V30 3476 C 350.631 -1.55058 -5.52037 0
M  V30 3477 N 350.127 -2.01311 -6.62907 0
M  V30 3478 N 351.92 -1.46584 -5.42651 0
M  V30 3479 H 344.071 -1.45529 -1.5471 0
M  V30 3480 H 346.334 -0.60258 -0.731848 0
M  V30 3481 H 346.04 -1.747 -3.05242 0
M  V30 3482 H 345.914 -0.150194 -3.76901 0
M  V30 3483 H 348.301 0.374272 -2.92717 0
M  V30 3484 H 348.382 -1.25061 -2.23144 0
M  V30 3485 H 348.026 -2.24037 -4.55818 0
M  V30 3486 H 347.956 -0.592896 -5.23252 0
M  V30 3487 H 350.447 -0.824058 -3.68806 0
M  V30 3488 H 350.76 -2.2899 -7.38095 0
M  V30 3489 H 349.105 -2.05273 -6.63994 0
M  V30 3490 H 352.296 -1.10281 -4.54924 0
M  V30 3491 H 352.469 -1.77103 -6.23329 0
M  V30 3492 N 345.875 1.56104 -0.216619 0
M  V30 3493 C 347.121 1.98466 0.417033 0
M  V30 3494 C 347.454 1.10403 1.59765 0
M  V30 3495 O 346.729 0.160632 1.93836 0
M  V30 3496 C 347.012 3.49769 0.85637 0
M  V30 3497 C 346.865 4.48606 -0.327546 0
M  V30 3498 C 348.184 4.05339 1.7143 0
M  V30 3499 H 345.303 0.721551 0.150112 0
M  V30 3500 H 347.945 1.87423 -0.311864 0
M  V30 3501 H 346.095 3.5931 1.47745 0
M  V30 3502 H 347.767 4.5108 -0.965618 0
M  V30 3503 H 346.01 4.22682 -0.975805 0
M  V30 3504 H 346.681 5.51995 0.0227149 0
M  V30 3505 H 349.157 3.98712 1.19031 0
M  V30 3506 H 348.033 5.11533 1.99061 0
M  V30 3507 H 348.294 3.51918 2.67593 0
M  V30 3508 N 347.353 -0.0568162 1.57498 0
M  V30 3509 C 348.316 -1.05038 2.03715 0
M  V30 3510 C 349.316 -1.30709 0.936577 0
M  V30 3511 O 350.506 -1.26178 1.20103 0
M  V30 3512 C 347.638 -2.39034 2.43055 0
M  V30 3513 H 348.831 -0.651715 2.92733 0
M  V30 3514 H 346.384 -0.302947 1.53336 0
M  V30 3515 H 347.119 -2.83703 1.57108 0
M  V30 3516 H 346.904 -2.21739 3.2338 0
M  V30 3517 H 348.394 -3.10421 2.79336 0
M  V30 3518 N 348.832 -1.54138 -0.328536 0
M  V30 3519 C 349.78 -1.83894 -1.42428 0
M  V30 3520 C 350.774 -0.710478 -1.53781 0
M  V30 3521 O 351.98 -0.894062 -1.56226 0
M  V30 3522 H 348.355 -0.582837 -0.475189 0
M  V30 3523 H 350.326 -2.75537 -1.14552 0
M  V30 3524 C 349.075 -2.07866 -2.78724 0
M  V30 3525 H 348.398 -2.94158 -2.7076 0
M  V30 3526 H 349.838 -2.32644 -3.54476 0
M  V30 3527 C 348.297 -0.868689 -3.25508 0
M  V30 3528 O 348.827 -0.0754908 -4.01629 0
M  V30 3529 N 347.033 -0.681711 -2.82491 0
M  V30 3530 H 346.58 -1.32838 -2.20708 0
M  V30 3531 H 346.538 0.126374 -3.14146 0
M  V30 3532 N 350.31 0.590341 -1.46126 0
M  V30 3533 C 351.24 1.71032 -1.58966 0
M  V30 3534 C 352.221 1.64302 -0.440335 0
M  V30 3535 O 353.406 1.82436 -0.665634 0
M  V30 3536 C 350.536 3.09665 -1.57241 0
M  V30 3537 C 349.49 3.31221 -2.71066 0
M  V30 3538 C 348.816 4.70303 -2.54399 0
M  V30 3539 C 350.116 3.19796 -4.1295 0
M  V30 3540 H 351.81 1.60543 -2.52718 0
M  V30 3541 H 349.356 0.770933 -1.21625 0
M  V30 3542 H 351.309 3.87831 -1.64819 0
M  V30 3543 H 350.033 3.21036 -0.600289 0
M  V30 3544 H 348.692 2.55452 -2.62944 0
M  V30 3545 H 348.34 4.78429 -1.55288 0
M  V30 3546 H 348.04 4.85679 -3.30741 0
M  V30 3547 H 349.564 5.50647 -2.63857 0
M  V30 3548 H 350.978 3.87815 -4.22223 0
M  V30 3549 H 349.375 3.46696 -4.89818 0
M  V30 3550 H 350.445 2.16983 -4.33643 0
M  V30 3551 N 351.788 1.33704 0.83433 0
M  V30 3552 C 352.698 1.26382 1.97648 0
M  V30 3553 C 353.714 0.173548 1.73132 0
M  V30 3554 O 354.89 0.397962 1.97429 0
M  V30 3555 C 351.955 1.00769 3.31733 0
M  V30 3556 C 351.016 2.1884 3.69334 0
M  V30 3557 C 350.249 1.9444 4.9702 0
M  V30 3558 O 350.472 0.896961 5.63303 0
M  V30 3559 O 349.406 2.81093 5.32231 0
M  V30 3560 H 353.232 2.22444 2.06767 0
M  V30 3561 H 350.817 1.13795 0.968037 0
M  V30 3562 H 352.699 0.882186 4.12062 0
M  V30 3563 H 351.374 0.0773783 3.23608 0
M  V30 3564 H 350.281 2.36946 2.89495 0
M  V30 3565 H 351.614 3.10221 3.82131 0
M  V30 3566 N 353.266 -1.05314 1.17247 0
M  V30 3567 C 354.513 -1.78293 0.960091 0
M  V30 3568 C 354.841 -1.87658 -0.51136 0
M  V30 3569 O 354.096 -1.3718 -1.39571 0
M  V30 3570 C 354.395 -3.2229 1.54479 0
M  V30 3571 C 354.061 -3.32987 3.04024 0
M  V30 3572 C 352.723 -3.35613 3.44844 0
M  V30 3573 C 355.075 -3.34102 4.00031 0
M  V30 3574 C 352.403 -3.36982 4.8027 0
M  V30 3575 C 354.755 -3.3701 5.35357 0
M  V30 3576 C 353.419 -3.37923 5.75642 0
M  V30 3577 H 352.689 -0.652422 0.351322 0
M  V30 3578 H 355.336 -1.23782 1.46117 0
M  V30 3579 H 353.641 -3.7972 0.965391 0
M  V30 3580 H 355.338 -3.77376 1.35603 0
M  V30 3581 H 351.928 -3.31655 2.71483 0
M  V30 3582 H 356.112 -3.31276 3.69554 0
M  V30 3583 H 351.368 -3.35999 5.10798 0
M  V30 3584 H 355.542 -3.36822 6.09528 0
M  V30 3585 H 353.169 -3.38738 6.80559 0
M  V30 3586 N 354.744 -0.972509 -1.24016 0
M  V30 3587 C 355.692 -0.498562 -2.27194 0
M  V30 3588 C 356.686 0.440372 -1.63576 0
M  V30 3589 O 357.892 0.315133 -1.7722 0
M  V30 3590 H 354.267 -0.142775 -0.738322 0
M  V30 3591 H 356.238 -1.38065 -2.64539 0
M  V30 3592 C 354.987 0.191072 -3.47175 0
M  V30 3593 H 354.31 -0.522318 -3.96373 0
M  V30 3594 H 355.75 0.486445 -4.212 0
M  V30 3595 C 354.209 1.41967 -3.05527 0
M  V30 3596 O 354.739 2.51642 -3.13112 0
M  V30 3597 N 352.945 1.28746 -2.60524 0
M  V30 3598 H 352.492 0.395089 -2.54552 0
M  V30 3599 H 352.45 2.11061 -2.33025 0
M  V30 3600 N 356.222 1.38976 -0.743202 0
M  V30 3601 C 357.154 2.29096 -0.0689228 0
M  V30 3602 C 358.167 1.47229 0.694791 0
M  V30 3603 O 359.356 1.70212 0.537597 0
M  V30 3604 C 356.456 3.25988 0.926548 0
M  V30 3605 C 355.629 4.36833 0.222647 0
M  V30 3606 C 354.688 5.13981 1.12739 0
M  V30 3607 O 353.714 5.6601 0.601795 0
M  V30 3608 N 354.916 5.25966 2.45641 0
M  V30 3609 H 357.681 2.87604 -0.842846 0
M  V30 3610 H 355.242 1.50645 -0.593109 0
M  V30 3611 H 357.234 3.74476 1.5346 0
M  V30 3612 H 355.804 2.68453 1.60162 0
M  V30 3613 H 355.024 3.90116 -0.565983 0
M  V30 3614 H 356.312 5.0811 -0.264841 0
M  V30 3615 H 355.71 4.85228 2.9081 0
M  V30 3616 H 354.267 5.77865 3.01522 0
M  V30 3617 N 357.7 0.491464 1.49741 0
M  V30 3618 C 358.947 -0.0564256 2.02421 0
M  V30 3619 C 359.275 -1.37872 1.37192 0
M  V30 3620 O 358.53 -1.89375 0.493508 0
M  V30 3621 C 358.829 -0.267329 3.56399 0
M  V30 3622 C 358.495 0.975775 4.40215 0
M  V30 3623 C 357.157 1.31655 4.62839 0
M  V30 3624 C 359.509 1.80251 4.89039 0
M  V30 3625 C 356.837 2.48375 5.31532 0
M  V30 3626 C 359.189 2.96116 5.59015 0
M  V30 3627 C 357.853 3.30585 5.79888 0
M  V30 3628 H 357.123 -0.0206476 0.740712 0
M  V30 3629 H 359.77 0.649686 1.80143 0
M  V30 3630 H 358.075 -1.05588 3.77304 0
M  V30 3631 H 359.772 -0.705549 3.94744 0
M  V30 3632 H 356.362 0.700315 4.2284 0
M  V30 3633 H 360.546 1.55239 4.71396 0
M  V30 3634 H 355.802 2.7533 5.45897 0
M  V30 3635 H 359.976 3.60509 5.95824 0
M  V30 3636 H 357.603 4.21132 6.32892 0
M  V30 3637 N 359.178 -1.55987 0.224894 0
M  V30 3638 C 360.128 -2.17076 -0.697296 0
M  V30 3639 C 361.112 -1.12006 -1.15514 0
M  V30 3640 O 362.304 -1.37985 -1.10857 0
M  V30 3641 C 359.433 -2.85679 -1.90374 0
M  V30 3642 C 358.519 -3.97977 -1.46543 0
M  V30 3643 N 358.91 -5.00359 -0.739909 0
M  V30 3644 C 357.208 -4.10128 -1.75245 0
M  V30 3645 C 357.909 -5.79407 -0.515939 0
M  V30 3646 N 356.885 -5.32892 -1.07364 0
M  V30 3647 H 360.687 -2.93592 -0.134594 0
M  V30 3648 H 358.201 -1.62379 0.0262885 0
M  V30 3649 H 360.198 -3.27857 -2.57518 0
M  V30 3650 H 358.858 -2.1066 -2.47088 0
M  V30 3651 H 359.869 -5.16412 -0.392253 0
M  V30 3652 H 356.546 -3.46263 -2.33255 0
M  V30 3653 H 357.936 -6.71872 0.0617349 0
M  V30 3654 N 360.656 0.0484629 -1.57525 0
M  V30 3655 C 362.067 0.597486 -1.76881 0
M  V30 3656 C 362.418 1.76664 -0.853475 0
M  V30 3657 O 361.543 2.16357 -0.0433656 0
M  V30 3658 C 362.138 1.09066 -3.20765 0
M  V30 3659 C 360.697 1.58535 -3.41385 0
M  V30 3660 C 359.844 0.514868 -2.72478 0
M  V30 3661 H 362.795 -0.177758 -1.57701 0
M  V30 3662 H 362.816 1.95875 -3.2621 0
M  V30 3663 H 362.328 0.239521 -3.8736 0
M  V30 3664 H 360.429 2.45898 -2.79937 0
M  V30 3665 H 360.542 1.64622 -4.49929 0
M  V30 3666 H 358.906 0.965407 -2.35695 0
M  V30 3667 H 359.689 -0.32648 -3.41744 0
M  V30 3668 N 362.134 1.5431 0.320358 0
M  V30 3669 C 363.362 1.76636 1.07738 0
M  V30 3670 C 363.777 0.51649 1.81598 0
M  V30 3671 O 363.134 -0.512942 1.75143 0
M  V30 3672 C 363.185 2.96158 2.07299 0
M  V30 3673 O 362.906 4.16313 1.36438 0
M  V30 3674 C 364.407 3.3072 2.95193 0
M  V30 3675 H 361.627 0.589597 0.320339 0
M  V30 3676 H 364.171 2.01207 0.36551 0
M  V30 3677 H 362.326 2.73851 2.74016 0
M  V30 3678 H 362.74 4.83565 2.03138 0
M  V30 3679 H 364.214 4.17643 3.60941 0
M  V30 3680 H 364.691 2.48026 3.62463 0
M  V30 3681 H 365.297 3.55117 2.34034 0
M  V30 3682 N 363.613 -0.582584 1.46437 0
M  V30 3683 C 364.576 -1.67366 1.56592 0
M  V30 3684 C 365.576 -1.54575 0.443072 0
M  V30 3685 O 366.766 -1.59191 0.707381 0
M  V30 3686 C 363.898 -3.06791 1.48634 0
M  V30 3687 H 365.091 -1.5972 2.5383 0
M  V30 3688 H 362.644 -0.800432 1.34249 0
M  V30 3689 H 363.379 -3.19993 0.526763 0
M  V30 3690 H 363.164 -3.17484 2.30101 0
M  V30 3691 H 364.654 -3.86218 1.58826 0
M  V30 3692 N 365.091 -1.34144 -0.827227 0
M  V30 3693 C 366.021 -1.28005 -1.95287 0
M  V30 3694 C 367.002 -0.158321 -1.69362 0
M  V30 3695 O 368.187 -0.349987 -1.9102 0
M  V30 3696 C 365.317 -1.03036 -3.31664 0
M  V30 3697 C 364.271 -2.11628 -3.72019 0
M  V30 3698 C 363.597 -1.71854 -5.0633 0
M  V30 3699 C 364.897 -3.53417 -3.8457 0
M  V30 3700 H 366.591 -2.22187 -2.00682 0
M  V30 3701 H 364.137 -1.0696 -0.964135 0
M  V30 3702 H 366.09 -0.973863 -4.09993 0
M  V30 3703 H 364.814 -0.0529391 -3.26557 0
M  V30 3704 H 363.473 -2.16339 -2.95961 0
M  V30 3705 H 363.121 -0.727841 -4.97706 0
M  V30 3706 H 362.821 -2.44531 -5.34302 0
M  V30 3707 H 364.345 -1.67692 -5.87122 0
M  V30 3708 H 365.759 -3.51142 -4.5318 0
M  V30 3709 H 364.156 -4.24679 -4.2399 0
M  V30 3710 H 365.226 -3.91072 -2.86689 0
M  V30 3711 N 366.569 1.04691 -1.17803 0
M  V30 3712 C 367.799 1.81183 -0.992788 0
M  V30 3713 C 368.207 1.8347 0.462098 0
M  V30 3714 O 367.55 1.2643 1.33271 0
M  V30 3715 C 367.612 3.28363 -1.46349 0
M  V30 3716 C 367.276 3.49749 -2.94151 0
M  V30 3717 C 368.273 3.41456 -3.92051 0
M  V30 3718 C 365.958 3.76548 -3.32441 0
M  V30 3719 C 367.952 3.59656 -5.26238 0
M  V30 3720 C 365.639 3.94396 -4.66792 0
M  V30 3721 C 366.637 3.8595 -5.635 0
M  V30 3722 O 366.325 4.03294 -6.9542 0
M  V30 3723 H 366.057 0.577622 -0.351182 0
M  V30 3724 H 368.611 1.32876 -1.5663 0
M  V30 3725 H 366.841 3.77609 -0.833574 0
M  V30 3726 H 368.53 3.86395 -1.24313 0
M  V30 3727 H 369.296 3.20723 -3.63815 0
M  V30 3728 H 365.175 3.82224 -2.57732 0
M  V30 3729 H 368.719 3.52979 -6.01707 0
M  V30 3730 H 364.616 4.14622 -4.94731 0
M  V30 3731 H 365.384 4.2049 -7.02232 0
M  V30 3732 N 368.047 0.979072 1.23499 0
M  V30 3733 C 368.997 0.489378 2.22686 0
M  V30 3734 C 369.981 -0.434871 1.54912 0
M  V30 3735 O 371.173 -0.263941 1.75021 0
M  V30 3736 C 368.302 -0.208178 3.42668 0
M  V30 3737 C 367.388 0.735563 4.17672 0
M  V30 3738 N 367.779 1.87763 4.69658 0
M  V30 3739 C 366.077 0.548625 4.42613 0
M  V30 3740 C 366.778 2.46886 5.26709 0
M  V30 3741 N 365.754 1.75287 5.14563 0
M  V30 3742 H 369.556 1.36062 2.60508 0
M  V30 3743 H 367.07 0.83958 1.39014 0
M  V30 3744 H 369.067 -0.576295 4.12898 0
M  V30 3745 H 367.727 -1.07572 3.06363 0
M  V30 3746 H 368.738 2.25885 4.66043 0
M  V30 3747 H 365.415 -0.274006 4.166 0
M  V30 3748 H 366.805 3.43326 5.77561 0
M  V30 3749 N 369.525 -1.3858 0.750561 0
M  V30 3750 C 370.936 -1.82927 0.373438 0
M  V30 3751 C 371.287 -1.62634 -1.09748 0
M  V30 3752 O 370.412 -1.12588 -1.84805 0
M  V30 3753 C 371.007 -3.32088 0.671029 0
M  V30 3754 C 369.566 -3.74795 0.34722 0
M  V30 3755 C 368.713 -2.61391 0.92575 0
M  V30 3756 H 371.664 -1.27351 0.946958 0
M  V30 3757 H 371.685 -3.80465 -0.0518269 0
M  V30 3758 H 371.197 -3.46826 1.74164 0
M  V30 3759 H 369.298 -3.65638 -0.716933 0
M  V30 3760 H 369.411 -4.71667 0.840656 0
M  V30 3761 H 367.775 -2.52265 0.351327 0
M  V30 3762 H 368.558 -2.78929 2.00133 0
M  V30 3763 N 371.003 -0.499398 -1.49478 0
M  V30 3764 C 371.935 0.316575 -2.27003 0
M  V30 3765 C 372.948 0.932047 -1.33479 0
M  V30 3766 O 374.137 0.815658 -1.58774 0
M  V30 3767 C 371.237 1.46055 -3.05812 0
M  V30 3768 C 370.41 0.952679 -4.26899 0
M  V30 3769 C 369.469 1.97407 -4.87767 0
M  V30 3770 O 368.495 1.54326 -5.4788 0
M  V30 3771 N 369.697 3.30436 -4.77276 0
M  V30 3772 H 372.462 -0.348168 -2.97671 0
M  V30 3773 H 370.023 -0.33185 -1.58463 0
M  V30 3774 H 372.015 2.14135 -3.43407 0
M  V30 3775 H 370.585 2.02948 -2.37762 0
M  V30 3776 H 369.805 0.0968248 -3.94081 0
M  V30 3777 H 371.093 0.59174 -5.05347 0
M  V30 3778 H 370.491 3.68126 -4.29534 0
M  V30 3779 H 369.048 3.94235 -5.19059 0
M  V30 3780 N 372.481 1.55866 -0.233164 0
M  V30 3781 C 373.444 2.1953 0.658715 0
M  V30 3782 C 374.444 1.16053 1.11303 0
M  V30 3783 O 375.634 1.41218 1.01996 0
M  V30 3784 C 372.766 2.82791 1.90373 0
M  V30 3785 H 373.959 2.99721 0.10347 0
M  V30 3786 H 371.512 1.56291 0.0164245 0
M  V30 3787 H 372.247 2.06501 2.50056 0
M  V30 3788 H 372.032 3.58578 1.58632 0
M  V30 3789 H 373.522 3.31556 2.53891 0
M  V30 3790 N 373.959 -0.0401083 1.57549 0
M  V30 3791 C 375.375 -0.395556 1.54621 0
M  V30 3792 C 375.575 -1.77281 0.957799 0
M  V30 3793 O 374.631 -2.45888 0.574031 0
M  V30 3794 C 375.944 -0.307535 2.99123 0
M  V30 3795 C 377.492 -0.385425 3.10618 0
M  V30 3796 C 377.967 -0.326973 4.56831 0
M  V30 3797 N 379.458 -0.386102 4.61588 0
M  V30 3798 C 380.193 -0.363591 5.72246 0
M  V30 3799 N 379.689 -0.29402 6.92176 0
M  V30 3800 N 381.482 -0.412503 5.60584 0
M  V30 3801 H 373.633 0.861325 1.94152 0
M  V30 3802 H 375.896 0.326445 0.890021 0
M  V30 3803 H 375.602 0.638461 3.45856 0
M  V30 3804 H 375.476 -1.10552 3.60636 0
M  V30 3805 H 377.863 -1.32185 2.63839 0
M  V30 3806 H 377.944 0.44171 2.51957 0
M  V30 3807 H 377.588 0.605738 5.04275 0
M  V30 3808 H 377.518 -1.17207 5.13391 0
M  V30 3809 H 380.009 -0.442832 3.75296 0
M  V30 3810 H 380.322 -0.28164 7.72287 0
M  V30 3811 H 378.667 -0.260232 6.94513 0
M  V30 3812 H 381.858 -0.464769 4.65787 0
M  V30 3813 H 382.031 -0.391492 6.46816 0
M  V30 3814 N 375.437 -1.54477 -0.31217 0
M  V30 3815 C 376.385 -1.85395 -1.40469 0
M  V30 3816 C 377.379 -0.726749 -1.53019 0
M  V30 3817 O 378.585 -0.910582 -1.55269 0
M  V30 3818 H 374.96 -0.587845 -0.46898 0
M  V30 3819 H 376.931 -2.76736 -1.11623 0
M  V30 3820 C 375.68 -2.10811 -2.76503 0
M  V30 3821 H 375.003 -2.97014 -2.67625 0
M  V30 3822 H 376.443 -2.3639 -3.51988 0
M  V30 3823 C 374.902 -0.903165 -3.24568 0
M  V30 3824 O 375.432 -0.118085 -4.01526 0
M  V30 3825 N 373.638 -0.711634 -2.81752 0
M  V30 3826 H 373.185 -1.35171 -2.19286 0
M  V30 3827 H 373.143 0.0930473 -3.14262 0
M  V30 3828 N 376.915 0.57481 -1.46744 0
M  V30 3829 C 378.162 1.33272 -1.52462 0
M  V30 3830 C 378.49 1.93669 -0.179572 0
M  V30 3831 O 377.745 1.7743 0.825664 0
M  V30 3832 C 378.044 2.476 -2.57738 0
M  V30 3833 C 377.71 2.05146 -4.01529 0
M  V30 3834 C 376.372 1.93284 -4.40676 0
M  V30 3835 C 378.724 1.72506 -4.91824 0
M  V30 3836 C 376.052 1.47049 -5.67973 0
M  V30 3837 C 378.404 1.27748 -6.19567 0
M  V30 3838 C 377.068 1.14468 -6.57612 0
M  V30 3839 H 376.338 0.487678 -0.557899 0
M  V30 3840 H 378.985 0.646456 -1.80259 0
M  V30 3841 H 377.29 3.21708 -2.23632 0
M  V30 3842 H 378.987 3.05807 -2.5939 0
M  V30 3843 H 375.577 2.15316 -3.7059 0
M  V30 3844 H 379.761 1.80552 -4.62293 0
M  V30 3845 H 375.017 1.35417 -5.96215 0
M  V30 3846 H 379.191 1.01547 -6.88957 0
M  V30 3847 H 376.818 0.78419 -7.56145 0
M  V30 3848 N 378.394 1.34581 0.820102 0
M  V30 3849 C 379.324 1.29038 1.94606 0
M  V30 3850 C 380.305 0.1673 1.69275 0
M  V30 3851 O 381.49 0.360112 1.90832 0
M  V30 3852 C 378.62 1.04793 3.31113 0
M  V30 3853 C 377.574 2.13597 3.70891 0
M  V30 3854 C 376.9 1.74537 5.05412 0
M  V30 3855 C 378.2 3.55451 3.8269 0
M  V30 3856 H 379.894 2.23248 1.99501 0
M  V30 3857 H 377.44 1.0747 0.958449 0
M  V30 3858 H 379.393 0.995592 4.0947 0
M  V30 3859 H 378.117 0.0702565 3.26524 0
M  V30 3860 H 376.776 2.17905 2.9481 0
M  V30 3861 H 376.424 0.754226 4.97313 0
M  V30 3862 H 376.124 2.47361 5.32997 0
M  V30 3863 H 377.648 1.70803 5.86224 0
M  V30 3864 H 379.062 3.5354 4.51312 0
M  V30 3865 H 377.459 4.26922 4.21732 0
M  V30 3866 H 378.529 3.92587 2.84611 0
M  V30 3867 N 379.872 -1.04064 1.18357 0
M  V30 3868 C 380.802 -2.14001 0.934113 0
M  V30 3869 C 381.783 -1.69616 -0.128186 0
M  V30 3870 O 382.968 -1.94185 0.0244093 0
M  V30 3871 C 380.098 -3.44253 0.459066 0
M  V30 3872 C 379.052 -4.02261 1.46185 0
M  V30 3873 C 378.378 -5.27992 0.844322 0
M  V30 3874 C 379.678 -4.38432 2.83856 0
M  V30 3875 H 381.372 -2.35127 1.85352 0
M  V30 3876 H 378.918 -1.12998 0.892604 0
M  V30 3877 H 380.871 -4.20522 0.271907 0
M  V30 3878 H 379.595 -3.22813 -0.495912 0
M  V30 3879 H 378.254 -3.28074 1.63595 0
M  V30 3880 H 377.902 -5.02862 -0.117845 0
M  V30 3881 H 377.602 -5.67765 1.51384 0
M  V30 3882 H 379.126 -6.06938 0.667693 0
M  V30 3883 H 380.54 -5.05688 2.70098 0
M  V30 3884 H 378.937 -4.89254 3.47491 0
M  V30 3885 H 380.007 -3.4826 3.37406 0
M  V30 3886 N 381.35 -0.985608 -1.22978 0
M  V30 3887 C 382.578 -0.675582 -1.95559 0
M  V30 3888 C 382.993 0.758413 -1.72897 0
M  V30 3889 O 382.35 1.51094 -1.02357 0
M  V30 3890 C 382.401 -0.96293 -3.48439 0
M  V30 3891 O 382.122 -2.34057 -3.70336 0
M  V30 3892 C 383.623 -0.669585 -4.38214 0
M  V30 3893 H 380.843 -0.250523 -0.622478 0
M  V30 3894 H 383.387 -1.3184 -1.56328 0
M  V30 3895 H 381.542 -0.366033 -3.85667 0
M  V30 3896 H 381.956 -2.43424 -4.64591 0
M  V30 3897 H 383.43 -0.920967 -5.44263 0
M  V30 3898 H 383.907 0.396383 -4.37408 0
M  V30 3899 H 384.513 -1.2472 -4.06602 0
M  V30 3900 N 382.828 1.3818 -0.7579 0
M  V30 3901 C 383.738 2.3421 -0.135247 0
M  V30 3902 C 384.754 1.59487 0.695683 0
M  V30 3903 O 385.93 1.91657 0.618832 0
M  V30 3904 C 382.995 3.3862 0.744139 0
M  V30 3905 C 382.056 4.2918 -0.101658 0
M  V30 3906 C 381.289 5.28603 0.735851 0
M  V30 3907 O 381.512 5.35166 1.97366 0
M  V30 3908 O 380.446 6.01707 0.152372 0
M  V30 3909 H 384.272 2.8916 -0.928436 0
M  V30 3910 H 381.857 1.40101 -0.518855 0
M  V30 3911 H 383.739 4.02539 1.2466 0
M  V30 3912 H 382.414 2.86019 1.51575 0
M  V30 3913 H 381.321 3.68407 -0.650167 0
M  V30 3914 H 382.654 4.85048 -0.836024 0
M  V30 3915 N 384.306 0.507319 1.49211 0
M  V30 3916 C 385.269 -0.256763 2.27757 0
M  V30 3917 C 386.269 -0.888287 1.34038 0
M  V30 3918 O 387.459 -0.751841 1.5714 0
M  V30 3919 C 384.591 -1.36905 3.12202 0
M  V30 3920 H 385.784 0.432557 2.96764 0
M  V30 3921 H 383.337 0.262488 1.5408 0
M  V30 3922 H 384.072 -2.09233 2.47775 0
M  V30 3923 H 383.857 -0.921599 3.81115 0
M  V30 3924 H 385.347 -1.9071 3.7151 0
M  V30 3925 N 385.784 -1.5574 0.241426 0
M  V30 3926 C 386.714 -2.24133 -0.654722 0
M  V30 3927 C 387.695 -1.21974 -1.1856 0
M  V30 3928 O 388.88 -1.50612 -1.22595 0
M  V30 3929 C 386.01 -2.93659 -1.85423 0
M  V30 3930 C 384.964 -4.0246 -1.45636 0
M  V30 3931 C 384.29 -4.59383 -2.73626 0
M  V30 3932 C 385.59 -5.18468 -0.631506 0
M  V30 3933 H 387.284 -2.99281 -0.0844353 0
M  V30 3934 H 384.83 -1.43947 -0.0391707 0
M  V30 3935 H 386.783 -3.40203 -2.48676 0
M  V30 3936 H 385.507 -2.15991 -2.44981 0
M  V30 3937 H 384.166 -3.56676 -0.847202 0
M  V30 3938 H 383.814 -3.78422 -3.3137 0
M  V30 3939 H 383.514 -5.32826 -2.4773 0
M  V30 3940 H 385.038 -5.08658 -3.37786 0
M  V30 3941 H 386.452 -5.61272 -1.1682 0
M  V30 3942 H 384.849 -5.98266 -0.468831 0
M  V30 3943 H 385.919 -4.8358 0.357506 0
M  V30 3944 N 387.262 0.0317525 -1.57568 0
M  V30 3945 C 388.678 0.38735 -1.54828 0
M  V30 3946 C 388.878 1.7677 -0.967187 0
M  V30 3947 O 387.934 2.45581 -0.587063 0
M  V30 3948 C 389.247 0.291667 -2.99282 0
M  V30 3949 C 390.795 0.368946 -3.10818 0
M  V30 3950 C 391.27 0.302741 -4.56998 0
M  V30 3951 N 392.761 0.361617 -4.61786 0
M  V30 3952 C 393.496 0.333238 -5.72431 0
M  V30 3953 N 392.992 0.257308 -6.92322 0
M  V30 3954 N 394.785 0.382769 -5.60795 0
M  V30 3955 H 386.936 -0.871609 -1.93692 0
M  V30 3956 H 389.199 -0.331161 -0.888277 0
M  V30 3957 H 388.905 -0.656794 -3.45513 0
M  V30 3958 H 388.779 1.08638 -3.61217 0
M  V30 3959 H 391.166 1.30784 -2.64536 0
M  V30 3960 H 391.247 -0.455066 -2.5172 0
M  V30 3961 H 390.891 -0.632473 -5.03947 0
M  V30 3962 H 390.821 1.14482 -5.14005 0
M  V30 3963 H 393.312 0.422923 -3.75526 0
M  V30 3964 H 393.625 0.24068 -7.72425 0
M  V30 3965 H 391.97 0.223396 -6.94641 0
M  V30 3966 H 395.161 0.44006 -4.66027 0
M  V30 3967 H 395.334 0.357184 -6.47015 0
M  V30 3968 N 388.74 1.54641 0.303973 0
M  V30 3969 C 389.988 1.73437 1.0375 0
M  V30 3970 C 390.309 0.521449 1.87899 0
M  V30 3971 O 389.579 -0.46432 1.90318 0
M  V30 3972 H 388.159 0.639518 0.386039 0
M  V30 3973 H 390.821 1.91988 0.335675 0
M  V30 3974 H 389.917 2.62235 1.69231 0
M  V30 3975 N 390.218 -0.567019 1.47046 0
M  V30 3976 C 391.128 -1.70247 1.6141 0
M  V30 3977 C 392.144 -1.66746 0.497157 0
M  V30 3978 O 393.32 -1.86371 0.763389 0
M  V30 3979 C 390.385 -3.06756 1.61561 0
M  V30 3980 C 389.446 -3.21399 2.84607 0
M  V30 3981 C 388.679 -4.51396 2.84741 0
M  V30 3982 O 388.902 -5.36255 1.94388 0
M  V30 3983 O 387.836 -4.69621 3.76483 0
M  V30 3984 H 391.662 -1.61073 2.57467 0
M  V30 3985 H 389.247 -0.735894 1.30019 0
M  V30 3986 H 391.129 -3.8801 1.64396 0
M  V30 3987 H 389.804 -3.16333 0.686684 0
M  V30 3988 H 388.711 -2.39579 2.8732 0
M  V30 3989 H 390.044 -3.16721 3.76761 0
M  V30 3990 N 391.696 -1.35014 -0.812953 0
M  V30 3991 C 392.944 -1.27678 -1.56661 0
M  V30 3992 C 393.265 0.150359 -1.94419 0
M  V30 3993 O 392.535 1.08532 -1.63088 0
M  V30 3994 H 391.115 -0.469602 -0.580933 0
M  V30 3995 H 393.777 -1.69043 -0.970076 0
M  V30 3996 H 392.873 -1.88833 -2.48492 0
M  V30 3997 N 393.175 1.03435 -1.18907 0
M  V30 3998 C 394.138 2.09756 -0.923844 0
M  V30 3999 C 395.138 1.60528 0.093416 0
M  V30 4000 O 396.328 1.73631 -0.140727 0
M  V30 4001 C 393.46 3.38692 -0.387354 0
M  V30 4002 H 394.653 2.34719 -1.86674 0
M  V30 4003 H 392.206 1.19959 -1.00197 0
M  V30 4004 H 392.941 3.19396 0.561845 0
M  V30 4005 H 392.726 3.75742 -1.12074 0
M  V30 4006 H 394.216 4.17016 -0.220694 0
M  V30 4007 N 394.653 0.992116 1.22453 0
M  V30 4008 C 395.883 0.684949 1.94915 0
M  V30 4009 C 396.291 -0.754292 1.73514 0
M  V30 4010 O 395.634 -1.52056 1.03076 0
M  V30 4011 C 395.696 0.910054 3.47791 0
M  V30 4012 C 395.36 2.33363 3.92926 0
M  V30 4013 C 396.357 3.31308 4.00663 0
M  V30 4014 C 394.042 2.66785 4.25595 0
M  V30 4015 C 396.036 4.6075 4.40441 0
M  V30 4016 C 393.723 3.96446 4.65053 0
M  V30 4017 C 394.721 4.9324 4.72444 0
M  V30 4018 O 394.409 6.20584 5.1101 0
M  V30 4019 H 394.141 0.25258 0.62704 0
M  V30 4020 H 396.695 1.32939 1.56577 0
M  V30 4021 H 394.925 0.208443 3.86138 0
M  V30 4022 H 396.614 0.598257 4.01467 0
M  V30 4023 H 397.38 3.0682 3.75615 0
M  V30 4024 H 393.259 1.92148 4.19047 0
M  V30 4025 H 396.803 5.363 4.46126 0
M  V30 4026 H 392.7 4.20724 4.89552 0
M  V30 4027 H 393.468 6.24509 5.29085 0
M  V30 4028 N 396.131 -1.37776 0.765217 0
M  V30 4029 C 397.061 -2.32945 0.160953 0
M  V30 4030 C 398.042 -1.55454 -0.690516 0
M  V30 4031 O 399.227 -1.83721 -0.629318 0
M  V30 4032 C 396.357 -3.39669 -0.724031 0
M  V30 4033 C 395.311 -4.27992 0.0256173 0
M  V30 4034 C 394.637 -5.25673 -0.978383 0
M  V30 4035 C 395.937 -5.08309 1.20082 0
M  V30 4036 H 397.631 -2.83728 0.955969 0
M  V30 4037 H 395.177 -1.36416 0.461149 0
M  V30 4038 H 397.13 -4.05219 -1.15652 0
M  V30 4039 H 395.854 -2.87396 -1.5515 0
M  V30 4040 H 394.513 -3.63964 0.438812 0
M  V30 4041 H 394.161 -4.69682 -1.80022 0
M  V30 4042 H 393.861 -5.85625 -0.481378 0
M  V30 4043 H 395.385 -5.94098 -1.40995 0
M  V30 4044 H 396.799 -5.67034 0.845307 0
M  V30 4045 H 395.196 -5.77554 1.62947 0
M  V30 4046 H 396.266 -4.41365 2.00811 0
M  V30 4047 N 397.609 -0.515225 -1.4894 0
M  V30 4048 C 398.556 0.255567 -2.29381 0
M  V30 4049 C 399.526 0.947387 -1.36432 0
M  V30 4050 O 400.711 0.951288 -1.65394 0
M  V30 4051 C 397.851 1.30551 -3.19453 0
M  V30 4052 C 396.964 0.624029 -4.27469 0
M  V30 4053 C 396.099 1.65563 -5.0474 0
M  V30 4054 C 395.138 0.956802 -6.04576 0
M  V30 4055 N 394.275 1.93326 -6.74959 0
M  V30 4056 H 399.115 -0.436607 -2.94784 0
M  V30 4057 H 396.652 -0.227154 -1.45336 0
M  V30 4058 H 398.61 1.92639 -3.70062 0
M  V30 4059 H 397.24 1.96626 -2.56004 0
M  V30 4060 H 396.292 -0.110459 -3.8024 0
M  V30 4061 H 397.604 0.0746092 -4.98744 0
M  V30 4062 H 396.758 2.35119 -5.59289 0
M  V30 4063 H 395.497 2.23893 -4.3327 0
M  V30 4064 H 394.502 0.247097 -5.49244 0
M  V30 4065 H 395.727 0.379814 -6.78037 0
M  V30 4066 H 393.673 2.50591 -6.06251 0
M  V30 4067 H 393.59 1.43489 -7.42258 0
M  V30 4068 H 394.858 2.62126 -7.34105 0
M  V30 4069 N 399.087 1.5561 -0.249682 0
M  V30 4070 C 400.503 1.59254 0.105103 0
M  V30 4071 C 400.703 1.26685 1.56694 0
M  V30 4072 O 399.759 1.0155 2.31179 0
M  V30 4073 C 401.072 2.99687 -0.246592 0
M  V30 4074 C 402.62 3.12416 -0.191118 0
M  V30 4075 C 403.095 4.55074 -0.516885 0
M  V30 4076 N 404.586 4.60835 -0.467489 0
M  V30 4077 C 405.321 5.69201 -0.69268 0
M  V30 4078 N 404.817 6.85817 -0.981146 0
M  V30 4079 N 406.61 5.58635 -0.623198 0
M  V30 4080 H 398.761 1.75049 -1.20298 0
M  V30 4081 H 401.024 0.815003 -0.484225 0
M  V30 4082 H 400.73 3.28267 -1.26228 0
M  V30 4083 H 400.604 3.74798 0.424962 0
M  V30 4084 H 402.991 2.83615 0.815247 0
M  V30 4085 H 403.072 2.39573 -0.896563 0
M  V30 4086 H 402.716 4.84596 -1.52082 0
M  V30 4087 H 402.646 5.26181 0.210068 0
M  V30 4088 H 405.137 3.7705 -0.253373 0
M  V30 4089 H 405.45 7.64341 -1.14032 0
M  V30 4090 H 403.795 6.87494 -1.01865 0
M  V30 4091 H 406.986 4.66406 -0.397863 0
M  V30 4092 H 407.159 6.43017 -0.802093 0
M  V30 4093 N 400.565 -0.0233959 1.57583 0
M  V30 4094 C 401.976 -0.56927 1.77809 0
M  V30 4095 C 402.327 -1.75284 0.881472 0
M  V30 4096 O 401.452 -2.1626 0.0777805 0
M  V30 4097 C 402.047 -1.03949 3.22459 0
M  V30 4098 C 400.606 -1.53084 3.43864 0
M  V30 4099 C 399.753 -0.471454 2.73263 0
M  V30 4100 H 402.704 0.202825 1.57399 0
M  V30 4101 H 402.725 -1.90661 3.29285 0
M  V30 4102 H 402.237 -0.177865 3.87692 0
M  V30 4103 H 400.338 -2.41414 2.83814 0
M  V30 4104 H 400.451 -1.57443 4.52491 0
M  V30 4105 H 398.815 -0.927788 2.37201 0
M  V30 4106 H 399.598 0.380808 3.41181 0
M  V30 4107 N 402.043 -1.548 -0.295768 0
M  V30 4108 C 403.32 -1.65014 -1.05023 0
M  V30 4109 C 403.7 -0.501805 -2.05049 0
M  V30 4110 O 403.048 0.500869 -2.22943 0
M  V30 4111 C 403.258 -3.03252 -1.72741 0
M  V30 4112 C 404.606 -3.60242 -2.24746 0
M  V30 4113 O 405.63 -3.05737 -1.82765 0
M  V30 4114 O 404.489 -4.55687 -3.01681 0
M  V30 4115 H 401.583 -0.669314 -0.485744 0
M  V30 4116 H 404.129 -1.67144 -0.293438 0
M  V30 4117 H 402.901 -3.7827 -1.00138 0
M  V30 4118 H 402.524 -3.04922 -2.55163 0
M  V30 4119 N 403.521 0.559213 -1.47345 0
M  V30 4120 C 404.769 1.31388 -1.53563 0
M  V30 4121 C 405.09 1.93985 -0.198678 0
M  V30 4122 O 404.36 1.79825 0.777167 0
M  V30 4123 H 402.94 0.487901 -0.565652 0
M  V30 4124 H 405.602 0.65315 -1.8363 0
M  V30 4125 H 404.698 2.10844 -2.30111 0
M  V30 4126 N 404.999 1.35443 0.805782 0
M  V30 4127 C 406.227 1.31878 1.59423 0
M  V30 4128 C 406.642 -0.103562 1.88516 0
M  V30 4129 O 405.999 -1.05575 1.48863 0
M  V30 4130 C 406.05 2.12426 2.92502 0
M  V30 4131 O 405.771 3.49115 2.6467 0
M  V30 4132 C 407.272 2.16455 3.86862 0
M  V30 4133 H 404.492 0.453002 0.495005 0
M  V30 4134 H 407.036 1.78309 1.00131 0
M  V30 4135 H 405.191 1.69593 3.48306 0
M  V30 4136 H 405.605 3.90957 3.49647 0
M  V30 4137 H 407.079 2.77204 4.77349 0
M  V30 4138 H 407.556 1.16352 4.23508 0
M  V30 4139 H 408.162 2.59453 3.36993 0
M  V30 4140 N 406.477 -1.02803 1.19454 0
M  V30 4141 C 407.893 -1.28473 0.946937 0
M  V30 4142 C 408.093 -1.97881 -0.380202 0
M  V30 4143 O 407.149 -2.26719 -1.11151 0
M  V30 4144 C 408.462 -2.13099 2.12154 0
M  V30 4145 C 410.01 -2.26404 2.16126 0
M  V30 4146 C 410.485 -3.14402 3.33039 0
M  V30 4147 N 411.976 -3.21991 3.32981 0
M  V30 4148 C 412.711 -3.90272 4.20089 0
M  V30 4149 N 412.207 -4.60777 5.17355 0
M  V30 4150 N 414 -3.8668 4.07964 0
M  V30 4151 H 406.151 -0.561665 2.04839 0
M  V30 4152 H 408.414 -0.310438 0.89573 0
M  V30 4153 H 408.12 -1.69422 3.08203 0
M  V30 4154 H 407.994 -3.13813 2.09287 0
M  V30 4155 H 410.381 -2.69311 1.20647 0
M  V30 4156 H 410.462 -1.25237 2.23045 0
M  V30 4157 H 410.106 -2.72204 4.28798 0
M  V30 4158 H 410.036 -4.1563 3.23356 0
M  V30 4159 H 412.527 -2.71778 2.62574 0
M  V30 4160 H 412.84 -5.10513 5.80169 0
M  V30 4161 H 411.185 -4.5964 5.21302 0
M  V30 4162 H 414.376 -3.30739 3.31254 0
M  V30 4163 H 414.549 -4.39621 4.76064 0
M  V30 4164 N 407.956 -0.998596 -1.21925 0
M  V30 4165 C 409.203 -0.677663 -1.90824 0
M  V30 4166 C 409.531 0.790905 -1.77693 0
M  V30 4167 O 408.786 1.58817 -1.14349 0
M  V30 4168 C 409.085 -1.03648 -3.42041 0
M  V30 4169 C 408.751 -2.49825 -3.75364 0
M  V30 4170 C 407.413 -2.8977 -3.8417 0
M  V30 4171 C 409.765 -3.44545 -3.91073 0
M  V30 4172 C 407.093 -4.23412 -4.06127 0
M  V30 4173 C 409.445 -4.77853 -4.14535 0
M  V30 4174 C 408.109 -5.17531 -4.21566 0
M  V30 4175 H 407.379 -0.247975 -0.698276 0
M  V30 4176 H 410.026 -1.25584 -1.44571 0
M  V30 4177 H 408.331 -0.376457 -3.89987 0
M  V30 4178 H 410.028 -0.766113 -3.93614 0
M  V30 4179 H 406.618 -2.17866 -3.69097 0
M  V30 4180 H 410.802 -3.14853 -3.83642 0
M  V30 4181 H 406.058 -4.53734 -4.09799 0
M  V30 4182 H 410.232 -5.51189 -4.25633 0
M  V30 4183 H 407.859 -6.21102 -4.38333 0
M  V30 4184 N 409.434 1.37368 -0.772513 0
M  V30 4185 C 410.367 2.27956 -0.105593 0
M  V30 4186 C 411.345 1.46362 0.708295 0
M  V30 4187 O 412.529 1.75695 0.682895 0
M  V30 4188 C 409.656 3.27687 0.856686 0
M  V30 4189 C 408.702 4.26312 0.1267 0
M  V30 4190 S 409.535 5.22206 -1.1858 0
M  V30 4191 C 410.691 6.25488 -0.227081 0
M  V30 4192 H 410.924 2.84171 -0.87372 0
M  V30 4193 H 408.457 1.43654 -0.565939 0
M  V30 4194 H 410.415 3.85653 1.40648 0
M  V30 4195 H 409.076 2.70417 1.59793 0
M  V30 4196 H 408.269 4.96674 0.856212 0
M  V30 4197 H 407.871 3.72339 -0.352117 0
M  V30 4198 H 410.163 6.74836 0.600231 0
M  V30 4199 H 411.106 7.02371 -0.898899 0
M  V30 4200 H 411.514 5.64267 0.162053 0
M  V30 4201 N 410.912 0.523116 1.48665 0
M  V30 4202 C 412.323 0.0808997 1.86525 0
M  V30 4203 C 412.674 -1.33975 1.43336 0
M  V30 4204 O 411.799 -2.00221 0.821009 0
M  V30 4205 C 412.394 0.140037 3.3851 0
M  V30 4206 C 410.953 -0.246948 3.75589 0
M  V30 4207 C 410.1 0.502845 2.72703 0
M  V30 4208 H 413.051 0.734736 1.40667 0
M  V30 4209 H 413.072 -0.649945 3.74908 0
M  V30 4210 H 412.584 1.17412 3.69914 0
M  V30 4211 H 410.685 -1.28343 3.49798 0
M  V30 4212 H 410.798 0.0878859 4.79019 0
M  V30 4213 H 409.162 -0.0500581 2.54651 0
M  V30 4214 H 409.945 1.53743 3.0695 0
M  V30 4215 N 412.39 -1.55475 0.257931 0
M  V30 4216 C 413.667 -1.91155 -0.414629 0
M  V30 4217 C 414.047 -1.18008 -1.75035 0
M  V30 4218 O 413.395 -0.301193 -2.26506 0
M  V30 4219 C 413.605 -3.44283 -0.571859 0
M  V30 4220 C 414.953 -4.15744 -0.862678 0
M  V30 4221 O 415.977 -3.50083 -0.657314 0
M  V30 4222 O 414.836 -5.31909 -1.2544 0
M  V30 4223 H 411.93 -0.796016 -0.22425 0
M  V30 4224 H 414.476 -1.66976 0.302814 0
M  V30 4225 H 413.248 -3.89558 0.368844 0
M  V30 4226 H 412.871 -3.7436 -1.33943 0
M  V30 4227 N 413.868 0.0150385 -1.57593 0
M  V30 4228 C 415.115 0.703001 -1.89906 0
M  V30 4229 C 415.443 1.74604 -0.856944 0
M  V30 4230 O 414.698 1.95197 0.140287 0
M  V30 4231 C 414.997 1.39686 -3.28972 0
M  V30 4232 C 414.663 0.488457 -4.48246 0
M  V30 4233 C 413.325 0.2383 -4.8061 0
M  V30 4234 C 415.677 -0.137881 -5.21018 0
M  V30 4235 C 413.005 -0.646738 -5.83125 0
M  V30 4236 C 415.357 -1.0107 -6.24474 0
M  V30 4237 C 414.021 -1.27019 -6.55303 0
M  V30 4238 H 413.291 0.257246 -0.694914 0
M  V30 4239 H 415.938 -0.037259 -1.91464 0
M  V30 4240 H 414.243 2.21079 -3.23468 0
M  V30 4241 H 415.94 1.93495 -3.51227 0
M  V30 4242 H 412.53 0.693593 -4.22951 0
M  V30 4243 H 416.714 0.0423953 -4.96282 0
M  V30 4244 H 411.97 -0.855937 -6.05379 0
M  V30 4245 H 416.144 -1.50247 -6.79999 0
M  V30 4246 H 413.771 -1.95769 -7.3456 0
M  V30 4247 N 415.346 1.54954 0.287554 0
M  V30 4248 C 416.623 1.65569 1.04146 0
M  V30 4249 C 417.003 0.512672 2.0478 0
M  V30 4250 O 416.351 -0.489038 2.23205 0
M  V30 4251 C 416.561 3.04163 1.71131 0
M  V30 4252 C 417.909 3.61429 2.22832 0
M  V30 4253 O 418.933 3.06702 1.81141 0
M  V30 4254 O 417.792 4.57281 2.9926 0
M  V30 4255 H 414.886 0.671881 0.482188 0
M  V30 4256 H 417.432 1.67297 0.28457 0
M  V30 4257 H 416.204 3.78796 0.981303 0
M  V30 4258 H 415.827 3.06271 2.53543 0
M  V30 4259 N 416.824 -0.551391 1.4764 0
M  V30 4260 C 417.734 -1.68525 1.63207 0
M  V30 4261 C 418.75 -1.6621 0.514815 0
M  V30 4262 O 419.926 -1.85551 0.783113 0
M  V30 4263 C 416.991 -3.05025 1.64805 0
M  V30 4264 C 416.052 -3.18362 2.88 0
M  V30 4265 C 415.285 -4.4835 2.89513 0
M  V30 4266 O 415.508 -5.34163 2.00065 0
M  V30 4267 O 414.442 -4.65602 3.81443 0
M  V30 4268 H 418.268 -1.58333 2.59161 0
M  V30 4269 H 415.853 -0.722063 1.30792 0
M  V30 4270 H 417.735 -3.86245 1.68502 0
M  V30 4271 H 416.41 -3.15587 0.720197 0
M  V30 4272 H 415.317 -2.36518 2.89845 0
M  V30 4273 H 416.65 -3.12707 3.80099 0
M  V30 4274 N 418.302 -1.35869 -0.798587 0
M  V30 4275 C 419.718 -1.16082 -1.09532 0
M  V30 4276 C 419.918 0.0213124 -2.01489 0
M  V30 4277 O 418.974 0.689488 -2.42904 0
M  V30 4278 C 420.287 -2.46748 -1.7186 0
M  V30 4279 C 421.835 -2.53028 -1.84244 0
M  V30 4280 C 422.31 -3.83758 -2.49988 0
M  V30 4281 N 423.801 -3.85053 -2.57465 0
M  V30 4282 C 424.536 -4.8294 -3.09122 0
M  V30 4283 N 424.032 -5.91217 -3.61157 0
M  V30 4284 N 425.825 -4.70369 -3.0775 0
M  V30 4285 H 417.976 -2.11571 -0.187461 0
M  V30 4286 H 420.239 -0.936726 -0.145765 0
M  V30 4287 H 419.945 -3.33471 -1.11759 0
M  V30 4288 H 419.819 -2.61883 -2.71472 0
M  V30 4289 H 422.206 -1.66729 -2.43486 0
M  V30 4290 H 422.287 -2.418 -0.834643 0
M  V30 4291 H 421.931 -4.70459 -1.91393 0
M  V30 4292 H 421.861 -3.92278 -3.5132 0
M  V30 4293 H 424.352 -3.06822 -2.20609 0
M  V30 4294 H 424.665 -6.61892 -3.98896 0
M  V30 4295 H 423.01 -5.94899 -3.59333 0
M  V30 4296 H 426.201 -3.84914 -2.66381 0
M  V30 4297 H 426.374 -5.46816 -3.47701 0
M  V30 4298 N 419.78 1.02168 -1.19998 0
M  V30 4299 C 421.028 1.75338 -1.00504 0
M  V30 4300 C 421.349 1.89387 0.464506 0
M  V30 4301 O 420.619 1.43268 1.33608 0
M  V30 4302 H 419.199 0.649564 -0.368885 0
M  V30 4303 H 421.861 1.23205 -1.51018 0
M  V30 4304 H 420.957 2.75892 -1.45912 0
M  V30 4305 N 421.258 1.00505 1.21394 0
M  V30 4306 C 422.168 0.574806 2.27449 0
M  V30 4307 C 423.184 -0.382206 1.6975 0
M  V30 4308 O 424.36 -0.246027 1.99892 0
M  V30 4309 C 421.425 -0.0917414 3.46579 0
M  V30 4310 C 420.486 0.909758 4.1955 0
M  V30 4311 C 419.719 0.274924 5.32991 0
M  V30 4312 O 419.942 -0.928254 5.62796 0
M  V30 4313 O 418.876 0.985877 5.93771 0
M  V30 4314 H 422.702 1.45744 2.66444 0
M  V30 4315 H 420.287 0.773923 1.27792 0
M  V30 4316 H 422.169 -0.464551 4.18832 0
M  V30 4317 H 420.844 -0.948755 3.09484 0
M  V30 4318 H 419.751 1.33372 3.49518 0
M  V30 4319 H 421.084 1.73636 4.60555 0
M  V30 4320 N 422.737 -1.36956 0.779787 0
M  V30 4321 C 423.667 -2.32761 0.185651 0
M  V30 4322 C 424.648 -1.56177 -0.673989 0
M  V30 4323 O 425.833 -1.84378 -0.609797 0
M  V30 4324 C 422.963 -3.40418 -0.687964 0
M  V30 4325 C 421.917 -4.27941 0.0710102 0
M  V30 4326 C 421.243 -5.26681 -0.922573 0
M  V30 4327 C 422.543 -5.07006 1.25467 0
M  V30 4328 H 424.237 -2.82698 0.986008 0
M  V30 4329 H 421.783 -1.3592 0.475592 0
M  V30 4330 H 423.736 -4.06423 -1.11348 0
M  V30 4331 H 422.46 -2.89025 -1.52093 0
M  V30 4332 H 421.119 -3.63478 0.47739 0
M  V30 4333 H 420.767 -4.71565 -1.7503 0
M  V30 4334 H 420.467 -5.86103 -0.419237 0
M  V30 4335 H 421.991 -5.9556 -1.34686 0
M  V30 4336 H 423.405 -5.66105 0.905401 0
M  V30 4337 H 421.802 -5.75793 1.69063 0
M  V30 4338 H 422.872 -4.3921 2.05481 0
M  V30 4339 N 424.215 -0.530993 -1.48385 0
M  V30 4340 C 425.178 0.220497 -2.28137 0
M  V30 4341 C 426.178 0.866851 -1.35434 0
M  V30 4342 O 427.368 0.726746 -1.58316 0
M  V30 4343 C 424.5 1.31921 -3.1434 0
M  V30 4344 H 425.693 -0.479714 -2.96038 0
M  V30 4345 H 423.246 -0.286968 -1.53643 0
M  V30 4346 H 423.981 2.05264 -2.51072 0
M  V30 4347 H 423.766 0.86085 -3.82533 0
M  V30 4348 H 425.256 1.84776 -3.74497 0
M  V30 4349 N 425.693 1.55336 -0.266172 0
M  V30 4350 C 427.104 1.85236 0.233315 0
M  V30 4351 C 427.455 1.18816 1.56132 0
M  V30 4352 O 426.58 0.473307 2.11161 0
M  V30 4353 C 427.175 3.36059 0.430113 0
M  V30 4354 C 425.734 3.66116 0.873842 0
M  V30 4355 C 424.881 2.77274 -0.0380016 0
M  V30 4356 H 427.832 1.51004 -0.488214 0
M  V30 4357 H 427.853 3.58681 1.26998 0
M  V30 4358 H 427.365 3.84373 -0.536588 0
M  V30 4359 H 425.466 3.23295 1.85233 0
M  V30 4360 H 425.579 4.73699 0.717358 0
M  V30 4361 H 423.943 2.50198 0.476759 0
M  V30 4362 H 424.726 3.284 -1.00042 0
M  V30 4363 N 427.171 -0.0066808 1.57599 0
M  V30 4364 C 428.587 -0.36267 1.55425 0
M  V30 4365 C 428.787 -1.75209 0.995187 0
M  V30 4366 O 427.843 -2.44616 0.626058 0
M  V30 4367 C 429.156 -0.244017 2.99708 0
M  V30 4368 C 430.704 -0.319451 3.11366 0
M  V30 4369 C 431.179 -0.229998 4.57422 0
M  V30 4370 N 432.67 -0.288105 4.62303 0
M  V30 4371 C 433.405 -0.242127 5.72889 0
M  V30 4372 N 432.901 -0.147133 6.92644 0
M  V30 4373 N 434.694 -0.293502 5.61333 0
M  V30 4374 H 426.845 0.902314 1.92281 0
M  V30 4375 H 429.108 0.34525 0.882896 0
M  V30 4376 H 428.814 0.711678 3.44424 0
M  V30 4377 H 428.688 -1.02877 3.629 0
M  V30 4378 H 431.075 -1.26559 2.66584 0
M  V30 4379 H 431.156 0.495055 2.50964 0
M  V30 4380 H 430.8 0.712566 5.02877 0
M  V30 4381 H 430.73 -1.0629 5.15761 0
M  V30 4382 H 433.221 -0.363126 3.76151 0
M  V30 4383 H 433.534 -0.117763 7.7271 0
M  V30 4384 H 431.879 -0.112857 6.94908 0
M  V30 4385 H 435.07 -0.365864 4.66668 0
M  V30 4386 H 435.243 -0.254204 6.47501 0
M  V30 4387 N 428.649 -1.55105 -0.279332 0
M  V30 4388 C 429.926 -1.66119 -1.03267 0
M  V30 4389 C 430.306 -0.523525 -2.04505 0
M  V30 4390 O 429.654 0.477194 -2.23462 0
M  V30 4391 C 429.864 -3.05067 -1.69515 0
M  V30 4392 C 431.212 -3.62606 -2.20912 0
M  V30 4393 O 432.236 -3.07659 -1.79512 0
M  V30 4394 O 431.095 -4.58861 -2.96831 0
M  V30 4395 H 428.189 -0.674429 -0.478618 0
M  V30 4396 H 430.735 -1.67446 -0.275694 0
M  V30 4397 H 429.507 -3.79311 -0.9612 0
M  V30 4398 H 429.13 -3.07611 -2.51915 0
M  V30 4399 N 430.127 0.543554 -1.4793 0
M  V30 4400 C 431.376 1.29649 -1.54512 0
M  V30 4401 C 431.689 1.94382 -0.217973 0
M  V30 4402 O 432.895 2.71017 -0.161908 0
M  V30 4403 C 431.351 2.35175 -2.72435 0
M  V30 4404 C 430.959 1.76572 -4.11736 0
M  V30 4405 C 432.703 3.11564 -2.8832 0
M  V30 4406 C 430.61 2.79958 -5.20939 0
M  V30 4407 H 429.54 0.487541 -0.57517 0
M  V30 4408 H 432.191 0.575708 -1.74235 0
M  V30 4409 H 430.573 3.10229 -2.46118 0
M  V30 4410 H 431.747 1.07799 -4.48013 0
M  V30 4411 H 430.062 1.12722 -4.00852 0
M  V30 4412 H 432.659 3.88794 -3.67074 0
M  V30 4413 H 433.002 3.66594 -1.97268 0
M  V30 4414 H 433.535 2.43623 -3.14472 0
M  V30 4415 H 430.274 2.29766 -6.13912 0
M  V30 4416 H 429.794 3.47101 -4.89164 0
M  V30 4417 H 431.473 3.43198 -5.48474 0
M  V30 4418 N 431.605 1.3629 0.791371 0
M  V30 4419 C 432.851 1.30605 1.55146 0
M  V30 4420 C 433.184 -0.115042 1.93859 0
M  V30 4421 O 432.459 -1.06798 1.62556 0
M  V30 4422 C 432.742 2.22692 2.82985 0
M  V30 4423 C 432.595 3.73489 2.50651 0
M  V30 4424 C 433.914 2.13588 3.84796 0
M  V30 4425 H 431.033 0.475761 0.562868 0
M  V30 4426 H 433.675 1.66825 0.909358 0
M  V30 4427 H 431.825 1.91933 3.37778 0
M  V30 4428 H 433.497 4.14758 2.01924 0
M  V30 4429 H 431.74 3.93021 1.83622 0
M  V30 4430 H 432.411 4.3333 3.41949 0
M  V30 4431 H 434.887 2.40659 3.39445 0
M  V30 4432 H 433.763 2.80195 4.71998 0
M  V30 4433 H 434.024 1.12256 4.27611 0
M  V30 4434 N 433.083 -1.0153 1.20538 0
M  V30 4435 C 434.046 -2.0826 0.957098 0
M  V30 4436 C 435.046 -1.60657 -0.0678655 0
M  V30 4437 O 436.236 -1.73385 0.168332 0
M  V30 4438 C 433.368 -3.38033 0.441188 0
M  V30 4439 H 434.561 -2.31719 1.90384 0
M  V30 4440 H 432.114 -1.1835 1.02093 0
M  V30 4441 H 432.849 -3.20249 -0.510961 0
M  V30 4442 H 432.634 -3.73911 1.18038 0
M  V30 4443 H 434.124 -4.16613 0.287009 0
M  V30 4444 N 434.561 -1.01147 -1.20859 0
M  V30 4445 C 435.977 -0.725422 -1.42161 0
M  V30 4446 C 436.177 0.696919 -1.89064 0
M  V30 4447 O 435.233 1.46539 -2.05627 0
M  V30 4448 C 436.546 -1.74678 -2.44761 0
M  V30 4449 C 438.094 -1.76433 -2.58535 0
M  V30 4450 C 438.569 -2.77481 -3.64374 0
M  V30 4451 N 440.06 -2.76189 -3.71852 0
M  V30 4452 C 440.795 -3.51035 -4.53389 0
M  V30 4453 N 440.291 -4.35541 -5.38773 0
M  V30 4454 N 442.084 -3.39655 -4.47873 0
M  V30 4455 H 434.235 -1.92979 -0.887282 0
M  V30 4456 H 436.498 -0.833327 -0.451962 0
M  V30 4457 H 436.204 -2.76551 -2.17285 0
M  V30 4458 H 436.078 -1.55472 -3.43669 0
M  V30 4459 H 438.465 -0.75248 -2.85345 0
M  V30 4460 H 438.546 -1.99712 -1.5984 0
M  V30 4461 H 438.19 -3.78827 -3.38308 0
M  V30 4462 H 438.12 -2.51466 -4.6268 0
M  V30 4463 H 440.611 -2.14885 -3.10858 0
M  V30 4464 H 440.924 -4.89432 -5.98061 0
M  V30 4465 H 439.269 -4.39621 -5.38292 0
M  V30 4466 H 442.46 -2.73063 -3.80203 0
M  V30 4467 H 442.633 -3.9824 -5.11184 0
M  V30 4468 N 436.039 1.36541 -0.78704 0
M  V30 4469 C 437.002 2.28413 -0.189778 0
M  V30 4470 C 438.002 1.48719 0.611499 0
M  V30 4471 O 439.192 1.68737 0.432842 0
M  V30 4472 C 436.324 3.32824 0.737638 0
M  V30 4473 H 437.517 2.82743 -0.999831 0
M  V30 4474 H 435.07 1.46065 -0.556298 0
M  V30 4475 H 435.805 2.83646 1.57212 0
M  V30 4476 H 435.59 3.91752 0.165044 0
M  V30 4477 H 437.08 4.0144 1.15047 0
M  V30 4478 N 437.518 0.538854 1.48102 0
M  V30 4479 C 438.767 0.0059532 2.01699 0
M  V30 4480 C 439.08 -1.34476 1.42041 0
M  V30 4481 O 440.286 -1.96653 1.87189 0
M  V30 4482 C 438.742 -0.0397627 3.59878 0
M  V30 4483 C 438.35 1.30659 4.28523 0
M  V30 4484 C 440.094 -0.521024 4.2129 0
M  V30 4485 C 438.001 1.22098 5.78659 0
M  V30 4486 H 436.931 -0.00154456 0.753998 0
M  V30 4487 H 439.582 0.683963 1.70277 0
M  V30 4488 H 437.964 -0.783037 3.88181 0
M  V30 4489 H 439.138 2.06613 4.11883 0
M  V30 4490 H 437.453 1.7243 3.79021 0
M  V30 4491 H 440.05 -0.603184 5.31287 0
M  V30 4492 H 440.393 -1.52885 3.8721 0
M  V30 4493 H 440.926 0.166834 3.9745 0
M  V30 4494 H 437.665 2.20424 6.17328 0
M  V30 4495 H 437.185 0.50295 5.97688 0
M  V30 4496 H 438.864 0.915345 6.40492 0
M  V30 4497 N 438.996 -1.55193 0.274407 0
M  V30 4498 C 440.273 -1.91584 -0.394331 0
M  V30 4499 C 440.653 -1.19858 -1.73774 0
M  V30 4500 O 440.001 -0.3252 -2.26174 0
M  V30 4501 C 440.211 -3.4487 -0.535311 0
M  V30 4502 C 441.559 -4.16636 -0.818534 0
M  V30 4503 O 442.583 -3.5076 -0.620146 0
M  V30 4504 O 441.442 -5.33209 -1.19792 0
M  V30 4505 H 438.536 -0.798349 -0.215794 0
M  V30 4506 H 441.082 -1.66646 0.320507 0
M  V30 4507 H 439.854 -3.89145 0.410141 0
M  V30 4508 H 439.477 -3.75759 -1.29964 0
M  V30 4509 N 440.474 -0.00167713 -1.576 0
M  V30 4510 C 441.424 0.997744 -2.0501 0
M  V30 4511 C 442.408 1.30214 -0.94515 0
M  V30 4512 O 443.6 1.29284 -1.20891 0
M  V30 4513 C 440.729 2.2892 -2.55833 0
M  V30 4514 C 439.815 2.01437 -3.73208 0
M  V30 4515 N 440.206 1.44119 -4.84833 0
M  V30 4516 C 438.504 2.31571 -3.8117 0
M  V30 4517 C 439.205 1.33145 -5.66257 0
M  V30 4518 N 438.181 1.81763 -5.12312 0
M  V30 4519 H 441.983 0.549098 -2.88725 0
M  V30 4520 H 439.497 0.20398 -1.61114 0
M  V30 4521 H 441.494 3.01361 -2.88075 0
M  V30 4522 H 440.154 2.74436 -1.73537 0
M  V30 4523 H 441.165 1.11978 -5.0565 0
M  V30 4524 H 437.842 2.7995 -3.09732 0
M  V30 4525 H 439.232 0.890567 -6.65972 0
M  V30 4526 N 441.952 1.55251 0.271103 0
M  V30 4527 C 442.862 1.9136 1.35714 0
M  V30 4528 C 443.878 0.811075 1.5394 0
M  V30 4529 O 445.054 1.11031 1.6803 0
M  V30 4530 C 442.119 2.1798 2.69603 0
M  V30 4531 C 441.18 3.4153 2.60107 0
M  V30 4532 C 440.413 3.66871 3.8761 0
M  V30 4533 O 440.636 2.94689 4.8838 0
M  V30 4534 O 439.57 4.60405 3.87699 0
M  V30 4535 H 443.396 2.83815 1.08088 0
M  V30 4536 H 440.981 1.41821 0.469792 0
M  V30 4537 H 442.863 2.36518 3.48765 0
M  V30 4538 H 441.538 1.28708 2.97012 0
M  V30 4539 H 440.445 3.28325 1.79314 0
M  V30 4540 H 441.778 4.31027 2.37647 0
M  V30 4541 N 443.43 -0.535701 1.48216 0
M  V30 4542 C 444.363 -1.65726 1.56876 0
M  V30 4543 C 445.341 -1.57094 0.419542 0
M  V30 4544 O 446.525 -1.77648 0.630352 0
M  V30 4545 C 443.652 -3.04096 1.49142 0
M  V30 4546 C 442.698 -3.31105 2.68834 0
M  V30 4547 S 443.531 -3.18001 4.30854 0
M  V30 4548 C 444.687 -4.58828 4.25709 0
M  V30 4549 H 444.92 -1.58129 2.51759 0
M  V30 4550 H 442.453 -0.718218 1.36678 0
M  V30 4551 H 444.411 -3.839 1.45366 0
M  V30 4552 H 443.072 -3.09139 0.556067 0
M  V30 4553 H 442.265 -4.32033 2.59545 0
M  V30 4554 H 441.867 -2.58961 2.69843 0
M  V30 4555 H 444.159 -5.5023 3.95289 0
M  V30 4556 H 445.102 -4.73172 5.26796 0
M  V30 4557 H 445.51 -4.37883 3.56257 0
M  V30 4558 N 444.908 -1.36708 -0.784132 0
M  V30 4559 C 445.855 -1.31466 -1.89698 0
M  V30 4560 C 446.825 -0.18239 -1.65096 0
M  V30 4561 O 448.01 -0.369762 -1.87183 0
M  V30 4562 C 445.15 -1.1151 -3.26588 0
M  V30 4563 C 444.263 -2.33859 -3.63227 0
M  V30 4564 C 443.398 -2.06873 -4.89262 0
M  V30 4565 C 442.437 -3.25154 -5.18595 0
M  V30 4566 N 441.574 -2.978 -6.35814 0
M  V30 4567 H 446.414 -2.26619 -1.93515 0
M  V30 4568 H 443.951 -1.12625 -0.946256 0
M  V30 4569 H 445.909 -0.979653 -4.05535 0
M  V30 4570 H 444.539 -0.200103 -3.22179 0
M  V30 4571 H 443.591 -2.58188 -2.79362 0
M  V30 4572 H 444.903 -3.22109 -3.8085 0
M  V30 4573 H 444.057 -1.90289 -5.76086 0
M  V30 4574 H 442.796 -1.15942 -4.73718 0
M  V30 4575 H 441.801 -3.42292 -4.30251 0
M  V30 4576 H 443.026 -4.1692 -5.36055 0
M  V30 4577 H 440.972 -2.09485 -6.21653 0
M  V30 4578 H 440.889 -3.7959 -6.53794 0
M  V30 4579 H 442.157 -2.84805 -7.25607 0
M  V30 4580 N 446.386 1.0089 -1.21074 0
M  V30 4581 C 447.802 1.2695 -0.967257 0
M  V30 4582 C 448.002 1.9846 0.348673 0
M  V30 4583 O 447.058 2.28459 1.0753 0
M  V30 4584 C 448.371 2.09697 -2.15517 0
M  V30 4585 C 449.919 2.22937 -2.197 0
M  V30 4586 C 450.394 3.09064 -3.37999 0
M  V30 4587 N 451.885 3.16653 -3.38061 0
M  V30 4588 C 452.62 3.8354 -4.26245 0
M  V30 4589 N 452.116 4.52488 -5.2462 0
M  V30 4590 N 453.909 3.80141 -4.14064 0
M  V30 4591 H 446.06 0.529005 -2.05707 0
M  V30 4592 H 448.323 0.296148 -0.900556 0
M  V30 4593 H 448.029 1.64497 -3.10859 0
M  V30 4594 H 447.903 3.10444 -2.14253 0
M  V30 4595 H 450.29 2.67357 -1.24916 0
M  V30 4596 H 450.371 1.21673 -2.2501 0
M  V30 4597 H 450.015 2.65347 -4.33074 0
M  V30 4598 H 449.945 4.10433 -3.29928 0
M  V30 4599 H 452.436 2.67566 -2.66865 0
M  V30 4600 H 452.749 5.01219 -5.88217 0
M  V30 4601 H 451.094 4.51288 -5.28549 0
M  V30 4602 H 454.285 3.25427 -3.36474 0
M  V30 4603 H 454.458 4.31992 -4.82998 0
M  V30 4604 N 447.864 1.01787 1.20321 0
M  V30 4605 C 448.794 0.609625 2.25401 0
M  V30 4606 C 449.775 -0.375951 1.65893 0
M  V30 4607 O 450.96 -0.261101 1.92437 0
M  V30 4608 C 448.09 -0.0515995 3.47262 0
M  V30 4609 C 447.044 0.855095 4.19371 0
M  V30 4610 C 446.37 0.0595757 5.34667 0
M  V30 4611 C 447.67 2.16374 4.75373 0
M  V30 4612 H 449.364 1.48803 2.59804 0
M  V30 4613 H 446.91 0.716934 1.24884 0
M  V30 4614 H 448.863 -0.348764 4.19954 0
M  V30 4615 H 447.587 -0.964726 3.12027 0
M  V30 4616 H 446.246 1.13628 3.48546 0
M  V30 4617 H 445.894 -0.85524 4.95676 0
M  V30 4618 H 445.594 0.663406 5.83843 0
M  V30 4619 H 447.118 -0.231105 6.10162 0
M  V30 4620 H 448.532 1.92885 5.39878 0
M  V30 4621 H 446.929 2.71853 5.34991 0
M  V30 4622 H 447.999 2.82589 3.94045 0
M  V30 4623 N 449.342 -1.36122 0.79427 0
M  V30 4624 C 450.59 -1.98718 0.368177 0
M  V30 4625 C 450.911 -1.63345 -1.06506 0
M  V30 4626 O 450.181 -0.909825 -1.73491 0
M  V30 4627 H 448.761 -0.735038 0.133146 0
M  V30 4628 H 451.423 -1.66239 1.01739 0
M  V30 4629 H 450.519 -3.08633 0.463923 0
M  V30 4630 N 450.82 -0.546701 -1.47814 0
M  V30 4631 C 451.783 0.196287 -2.28358 0
M  V30 4632 C 452.783 0.852437 -1.36346 0
M  V30 4633 O 453.973 0.709913 -1.59078 0
M  V30 4634 C 451.105 1.28579 -3.15722 0
M  V30 4635 H 452.298 -0.511086 -2.95513 0
M  V30 4636 H 449.851 -0.303248 -1.5333 0
M  V30 4637 H 450.586 2.0259 -2.53235 0
M  V30 4638 H 450.371 0.820229 -3.83425 0
M  V30 4639 H 451.861 1.80793 -3.76435 0
M  V30 4640 N 452.299 1.55045 -0.282633 0
M  V30 4641 C 453.576 1.9179 0.384166 0
M  V30 4642 C 453.956 1.20778 1.73136 0
M  V30 4643 O 453.304 0.33719 2.25998 0
M  V30 4644 C 453.514 3.45149 0.517014 0
M  V30 4645 C 454.862 4.17064 0.796427 0
M  V30 4646 O 455.886 3.51084 0.601535 0
M  V30 4647 O 454.745 5.33837 1.16962 0
M  V30 4648 H 451.839 0.799483 0.211558 0
M  V30 4649 H 454.385 1.66474 -0.32934 0
M  V30 4650 H 453.157 3.88922 -0.430772 0
M  V30 4651 H 452.78 3.76443 1.2797 0
M  V30 4652 N 453.777 0.010035 1.57597 0
M  V30 4653 C 455.017 -0.677084 1.9286 0
M  V30 4654 C 455.381 -1.70377 0.885192 0
M  V30 4655 O 456.582 -2.44199 1.12339 0
M  V30 4656 C 454.853 -1.29452 3.33132 0
M  V30 4657 S 456.412 -2.00537 3.90295 0
M  V30 4658 H 453.23 -0.223409 0.674989 0
M  V30 4659 H 455.832 0.0691289 1.95378 0
M  V30 4660 H 454.536 -0.534593 4.06903 0
M  V30 4661 H 454.067 -2.07845 3.34012 0
M  V30 4662 H 456.082 -3.28168 3.72183 0
M  V30 4663 N 455.255 -1.55392 -0.262866 0
M  V30 4664 C 456.188 -1.8391 -1.35101 0
M  V30 4665 C 457.166 -0.692901 -1.47097 0
M  V30 4666 O 458.35 -0.936979 -1.63563 0
M  V30 4667 C 455.477 -2.00969 -2.72634 0
M  V30 4668 C 454.523 -3.23559 -2.7787 0
M  V30 4669 S 455.356 -4.80647 -2.3609 0
M  V30 4670 C 456.512 -5.00692 -3.75578 0
M  V30 4671 H 456.745 -2.75918 -1.1071 0
M  V30 4672 H 454.278 -1.47294 -0.463029 0
M  V30 4673 H 456.236 -2.11482 -3.51832 0
M  V30 4674 H 454.897 -1.09832 -2.94272 0
M  V30 4675 H 454.09 -3.32413 -3.78837 0
M  V30 4676 H 453.692 -3.11689 -2.06702 0
M  V30 4677 H 455.984 -4.87055 -4.70939 0
M  V30 4678 H 456.927 -6.02717 -3.71669 0
M  V30 4679 H 457.335 -4.28619 -3.6735 0
M  V30 4680 N 456.733 0.527833 -1.48498 0
M  V30 4681 C 457.98 1.28354 -1.56625 0
M  V30 4682 C 458.308 1.93 -0.241096 0
M  V30 4683 O 457.563 1.79967 0.768798 0
M  V30 4684 C 457.862 2.39275 -2.65485 0
M  V30 4685 C 457.528 1.92268 -4.07853 0
M  V30 4686 C 456.19 1.79166 -4.46602 0
M  V30 4687 C 458.542 1.56771 -4.97064 0
M  V30 4688 C 455.87 1.28905 -5.72364 0
M  V30 4689 C 458.222 1.07972 -6.23318 0
M  V30 4690 C 456.886 0.934887 -6.60921 0
M  V30 4691 H 456.156 0.469682 -0.573131 0
M  V30 4692 H 458.803 0.588781 -1.82224 0
M  V30 4693 H 457.108 3.1443 -2.33754 0
M  V30 4694 H 458.805 2.974 -2.68988 0
M  V30 4695 H 455.395 2.03417 -3.77252 0
M  V30 4696 H 459.579 1.65753 -4.67803 0
M  V30 4697 H 454.835 1.16381 -6.00221 0
M  V30 4698 H 459.009 0.795775 -6.91838 0
M  V30 4699 H 456.636 0.543231 -7.58257 0
M  V30 4700 N 458.211 1.37122 0.776871 0
M  V30 4701 C 459.141 1.35164 1.90402 0
M  V30 4702 C 460.122 0.221069 1.68657 0
M  V30 4703 O 461.307 0.420642 1.8959 0
M  V30 4704 C 458.437 1.15274 3.27611 0
M  V30 4705 C 457.391 2.25289 3.63908 0
M  V30 4706 C 456.717 1.90527 4.99603 0
M  V30 4707 C 458.017 3.67446 3.71188 0
M  V30 4708 H 459.711 2.29482 1.92297 0
M  V30 4709 H 457.257 1.10465 0.923773 0
M  V30 4710 H 459.21 1.12536 4.06096 0
M  V30 4711 H 457.934 0.174102 3.26136 0
M  V30 4712 H 456.593 2.27174 2.87728 0
M  V30 4713 H 456.241 0.91206 4.94662 0
M  V30 4714 H 455.941 2.64193 5.24858 0
M  V30 4715 H 457.465 1.89367 5.80493 0
M  V30 4716 H 458.879 3.67719 4.39836 0
M  V30 4717 H 457.276 4.40123 4.07936 0
M  V30 4718 H 458.346 4.01443 2.71977 0
M  V30 4719 N 459.689 -1.00246 1.21608 0
M  V30 4720 C 460.966 -1.71336 0.943568 0
M  V30 4721 C 461.346 -2.03972 -0.543943 0
M  V30 4722 O 460.694 -1.71545 -1.50946 0
M  V30 4723 C 460.904 -2.97094 1.83128 0
M  V30 4724 C 462.252 -3.70071 2.08165 0
M  V30 4725 O 463.276 -3.07081 1.80498 0
M  V30 4726 O 462.135 -4.83376 2.54971 0
M  V30 4727 H 459.229 -0.747386 0.354039 0
M  V30 4728 H 461.775 -1.05967 1.32549 0
M  V30 4729 H 460.547 -2.69407 2.83788 0
M  V30 4730 H 460.17 -3.70204 1.45034 0
M  V30 4731 N 461.167 -1.02423 -1.1978 0
M  V30 4732 C 462.416 -0.713265 -1.88667 0
M  V30 4733 C 462.729 0.7609 -1.80193 0
M  V30 4734 O 463.935 1.18473 -2.44288 0
M  V30 4735 C 462.391 -1.22545 -3.38394 0
M  V30 4736 C 461.999 -2.72706 -3.55437 0
M  V30 4737 C 463.743 -0.990257 -4.12788 0
M  V30 4738 C 461.65 -3.17367 -4.99031 0
M  V30 4739 H 460.58 -0.263105 -0.706606 0
M  V30 4740 H 463.231 -1.23792 -1.35454 0
M  V30 4741 H 461.613 -0.628732 -3.90977 0
M  V30 4742 H 462.787 -3.37993 -3.13205 0
M  V30 4743 H 461.102 -2.94453 -2.94425 0
M  V30 4744 H 463.699 -1.29926 -5.18675 0
M  V30 4745 H 464.042 0.0730761 -4.16236 0
M  V30 4746 H 464.575 -1.55074 -3.66329 0
M  V30 4747 H 461.314 -4.23009 -5.00743 0
M  V30 4748 H 460.834 -2.56805 -5.42044 0
M  V30 4749 H 462.513 -3.10441 -5.67658 0
M  V30 4750 N 462.645 1.35699 -0.801477 0
M  V30 4751 C 463.87 2.03687 -0.390678 0
M  V30 4752 C 464.295 1.60015 0.988778 0
M  V30 4753 O 463.653 0.774357 1.63931 0
M  V30 4754 C 463.701 3.57439 -0.476404 0
M  V30 4755 O 462.805 4.09208 0.512106 0
M  V30 4756 H 462.146 0.64344 -0.163956 0
M  V30 4757 H 464.676 1.73403 -1.08594 0
M  V30 4758 H 464.686 4.06544 -0.344357 0
M  V30 4759 H 463.361 3.88576 -1.48262 0
M  V30 4760 H 461.938 3.7134 0.340721 0
M  V30 4761 N 464.123 0.554532 1.47522 0
M  V30 4762 C 465.073 -0.215008 2.26984 0
M  V30 4763 C 466.057 -0.88774 1.34194 0
M  V30 4764 O 467.249 -0.786489 1.58567 0
M  V30 4765 C 464.378 -1.24604 3.19889 0
M  V30 4766 C 463.464 -0.576857 4.20159 0
M  V30 4767 N 463.855 0.351541 5.04577 0
M  V30 4768 C 462.153 -0.831104 4.38188 0
M  V30 4769 C 462.854 0.739995 5.76974 0
M  V30 4770 N 461.83 0.0954407 5.43516 0
M  V30 4771 H 465.632 0.498843 2.89636 0
M  V30 4772 H 463.146 0.374279 1.58028 0
M  V30 4773 H 465.143 -1.81128 3.75498 0
M  V30 4774 H 463.803 -1.96101 2.58794 0
M  V30 4775 H 464.814 0.725556 5.12792 0
M  V30 4776 H 461.491 -1.53479 3.88266 0
M  V30 4777 H 462.881 1.50271 6.5488 0
M  V30 4778 N 465.601 -1.54893 0.290851 0
M  V30 4779 C 466.548 -2.23138 -0.58974 0
M  V30 4780 C 467.518 -1.21036 -1.13752 0
M  V30 4781 O 468.703 -1.49626 -1.18392 0
M  V30 4782 C 465.843 -2.96811 -1.76061 0
M  V30 4783 C 464.956 -4.13665 -1.24519 0
M  V30 4784 C 464.091 -4.74944 -2.3791 0
M  V30 4785 C 463.13 -5.83963 -1.83451 0
M  V30 4786 N 462.267 -6.39239 -2.90376 0
M  V30 4787 H 467.107 -2.98 -0.00114915 0
M  V30 4788 H 464.644 -1.47096 0.0112006 0
M  V30 4789 H 466.602 -3.37751 -2.44909 0
M  V30 4790 H 465.232 -2.24344 -2.32098 0
M  V30 4791 H 464.284 -3.77737 -0.449288 0
M  V30 4792 H 465.596 -4.92238 -0.806424 0
M  V30 4793 H 464.75 -5.18684 -3.14724 0
M  V30 4794 H 463.489 -3.95682 -2.85109 0
M  V30 4795 H 462.494 -5.39657 -1.05122 0
M  V30 4796 H 463.719 -6.65103 -1.37169 0
M  V30 4797 H 461.665 -5.62864 -3.36927 0
M  V30 4798 H 461.582 -7.13129 -2.50965 0
M  V30 4799 H 462.85 -6.87637 -3.67118 0
M  V30 4800 N 467.08 -0.0183926 -1.57589 0
M  V30 4801 C 468.491 0.521927 -1.79256 0
M  V30 4802 C 468.842 1.72885 -0.927636 0
M  V30 4803 O 467.967 2.15978 -0.135091 0
M  V30 4804 C 468.562 0.953632 -3.25102 0
M  V30 4805 C 467.121 1.43913 -3.47801 0
M  V30 4806 C 466.268 0.398837 -2.74417 0
M  V30 4807 H 469.219 -0.244485 -1.56805 0
M  V30 4808 H 469.24 1.81863 -3.34224 0
M  V30 4809 H 468.752 0.0750123 -3.88028 0
M  V30 4810 H 466.853 2.33804 -2.90115 0
M  V30 4811 H 466.966 1.45391 -4.56507 0
M  V30 4812 H 465.33 0.864572 -2.39577 0
M  V30 4813 H 466.113 -0.471132 -3.40052 0
M  V30 4814 N 468.558 1.5553 0.254621 0
M  V30 4815 C 469.521 1.88872 1.29846 0
M  V30 4816 C 470.521 0.764591 1.41459 0
M  V30 4817 O 471.711 1.03265 1.40293 0
M  V30 4818 C 468.843 2.11032 2.67728 0
M  V30 4819 H 470.036 2.82201 1.01502 0
M  V30 4820 H 467.589 1.48303 0.493556 0
M  V30 4821 H 468.324 1.20146 3.01223 0
M  V30 4822 H 468.109 2.92895 2.60682 0
M  V30 4823 H 469.599 2.38038 3.43115 0
M  V30 4824 N 470.036 -0.519951 1.48776 0
M  V30 4825 C 471.313 -1.28123 1.47797 0
M  V30 4826 C 471.693 -2.10196 0.195157 0
M  V30 4827 O 471.041 -2.13167 -0.822925 0
M  V30 4828 C 471.251 -2.15413 2.74587 0
M  V30 4829 C 472.599 -2.75225 3.23321 0
M  V30 4830 O 473.623 -2.25694 2.75574 0
M  V30 4831 O 472.482 -3.65346 4.06429 0
M  V30 4832 H 469.576 -0.578793 0.590701 0
M  V30 4833 H 472.122 -0.535779 1.6102 0
M  V30 4834 H 470.894 -1.54617 3.59457 0
M  V30 4835 H 470.517 -2.97186 2.64132 0
M  V30 4836 N 471.514 -1.37532 -0.769588 0
M  V30 4837 C 472.761 -1.3286 -1.52822 0
M  V30 4838 C 473.089 0.0862597 -1.94309 0
M  V30 4839 O 472.344 1.05995 -1.6451 0
M  V30 4840 C 472.643 -2.21558 -2.8044 0
M  V30 4841 C 472.309 -3.69796 -2.57996 0
M  V30 4842 C 470.971 -4.10194 -2.51583 0
M  V30 4843 C 473.323 -4.63699 -2.37976 0
M  V30 4844 C 470.651 -5.42608 -2.23144 0
M  V30 4845 C 473.003 -5.96353 -2.1106 0
M  V30 4846 C 471.667 -6.35853 -2.03093 0
M  V30 4847 H 470.937 -0.486168 -0.559215 0
M  V30 4848 H 473.584 -1.69757 -0.886277 0
M  V30 4849 H 471.889 -1.77663 -3.49204 0
M  V30 4850 H 473.586 -2.15256 -3.38328 0
M  V30 4851 H 470.176 -3.37759 -2.63851 0
M  V30 4852 H 474.36 -4.33346 -2.41919 0
M  V30 4853 H 469.616 -5.72173 -2.15472 0
M  V30 4854 H 473.79 -6.68667 -1.94568 0
M  V30 4855 H 471.417 -7.38382 -1.8082 0
M  V30 4856 N 472.992 0.995999 -1.22138 0
M  V30 4857 C 474.241 1.72928 -1.03821 0
M  V30 4858 C 474.554 1.90872 0.427444 0
M  V30 4859 O 475.76 2.61496 0.730212 0
M  V30 4860 C 474.216 3.11124 -1.80913 0
M  V30 4861 C 473.824 3.01122 -3.31707 0
M  V30 4862 C 475.568 3.8852 -1.71035 0
M  V30 4863 C 473.475 4.34453 -4.01253 0
M  V30 4864 H 472.405 0.648376 -0.384869 0
M  V30 4865 H 475.056 1.11213 -1.45959 0
M  V30 4866 H 473.438 3.73503 -1.31573 0
M  V30 4867 H 474.612 2.47926 -3.88419 0
M  V30 4868 H 472.927 2.3721 -3.42228 0
M  V30 4869 H 475.524 4.872 -2.20318 0
M  V30 4870 H 475.867 4.1087 -0.670196 0
M  V30 4871 H 476.4 3.32812 -2.17902 0
M  V30 4872 H 473.139 4.17303 -5.05508 0
M  V30 4873 H 472.659 4.87574 -3.49331 0
M  V30 4874 H 474.338 5.03215 -4.06674 0
M  V30 4875 N 474.47 1.03057 1.19235 0
M  V30 4876 C 475.886 0.747947 1.40989 0
M  V30 4877 C 476.086 -0.666752 1.90149 0
M  V30 4878 O 475.142 -1.43249 2.07933 0
M  V30 4879 C 476.455 1.7855 2.41951 0
M  V30 4880 C 478.003 1.80524 2.55695 0
M  V30 4881 C 478.478 2.83243 3.59913 0
M  V30 4882 N 479.969 2.8207 3.67411 0
M  V30 4883 C 480.704 3.58204 4.47747 0
M  V30 4884 N 480.2 4.44057 5.31775 0
M  V30 4885 N 481.993 3.46738 4.42413 0
M  V30 4886 H 474.144 1.94367 0.856468 0
M  V30 4887 H 476.407 0.840412 0.438647 0
M  V30 4888 H 476.113 2.79973 2.12857 0
M  V30 4889 H 475.987 1.6092 3.41152 0
M  V30 4890 H 478.374 0.79778 2.84112 0
M  V30 4891 H 478.455 2.02229 1.56643 0
M  V30 4892 H 478.099 3.84161 3.32239 0
M  V30 4893 H 478.029 2.58795 4.5862 0
M  V30 4894 H 480.52 2.19803 3.074 0
M  V30 4895 H 480.833 4.98884 5.90199 0
M  V30 4896 H 479.178 4.48129 5.3123 0
M  V30 4897 H 482.369 2.79077 3.75811 0
M  V30 4898 H 482.542 4.06322 5.04783 0
M  V30 4899 N 475.948 -1.35272 0.808662 0
M  V30 4900 C 476.88 -2.28507 0.178149 0
M  V30 4901 C 477.893 -1.50377 -0.623754 0
M  V30 4902 O 479.082 -1.72583 -0.455774 0
M  V30 4903 C 476.182 -3.30038 -0.769959 0
M  V30 4904 C 475.355 -4.37398 -0.0139749 0
M  V30 4905 C 474.414 -5.18775 -0.880875 0
M  V30 4906 O 473.44 -5.68236 -0.331059 0
M  V30 4907 N 474.642 -5.37087 -2.20267 0
M  V30 4908 H 477.407 -2.83255 0.979106 0
M  V30 4909 H 474.968 -1.47643 0.664308 0
M  V30 4910 H 476.96 -3.81371 -1.35418 0
M  V30 4911 H 475.53 -2.75789 -1.47171 0
M  V30 4912 H 474.75 -3.86971 0.751468 0
M  V30 4913 H 476.038 -5.06268 0.506965 0
M  V30 4914 H 475.436 -4.9855 -2.67328 0
M  V30 4915 H 473.993 -5.91593 -2.73608 0
M  V30 4916 N 477.426 -0.562348 -1.47226 0
M  V30 4917 C 478.376 0.202967 -2.27095 0
M  V30 4918 C 479.36 0.880611 -1.34663 0
M  V30 4919 O 480.552 0.778069 -1.58981 0
M  V30 4920 C 477.681 1.22906 -3.20545 0
M  V30 4921 C 476.767 0.554566 -4.20459 0
M  V30 4922 N 477.158 -0.378295 -5.04383 0
M  V30 4923 C 475.456 0.807854 -4.38623 0
M  V30 4924 C 476.157 -0.770583 -5.76573 0
M  V30 4925 N 475.133 -0.124263 -5.43458 0
M  V30 4926 H 478.935 -0.514196 -2.89367 0
M  V30 4927 H 476.449 -0.382655 -1.57827 0
M  V30 4928 H 478.446 1.79134 -3.76453 0
M  V30 4929 H 477.106 1.94726 -2.59831 0
M  V30 4930 H 478.117 -0.75274 -5.124 0
M  V30 4931 H 474.794 1.51418 -3.89075 0
M  V30 4932 H 476.184 -1.53742 -6.54074 0
M  V30 4933 N 478.904 1.54736 -0.299062 0
M  V30 4934 C 480.151 2.00101 0.310784 0
M  V30 4935 C 480.479 1.18746 1.54045 0
M  V30 4936 O 479.734 0.251198 1.94081 0
M  V30 4937 C 480.033 3.50199 0.713835 0
M  V30 4938 C 479.699 4.48997 -0.413873 0
M  V30 4939 C 478.361 4.7573 -0.723462 0
M  V30 4940 C 480.713 5.07839 -1.17257 0
M  V30 4941 C 478.041 5.5857 -1.79491 0
M  V30 4942 C 480.393 5.91844 -2.23392 0
M  V30 4943 C 479.057 6.16889 -2.54959 0
M  V30 4944 H 478.327 0.732221 0.113724 0
M  V30 4945 H 480.974 1.86888 -0.417756 0
M  V30 4946 H 479.279 3.61012 1.52243 0
M  V30 4947 H 480.976 3.82723 1.19684 0
M  V30 4948 H 477.566 4.28292 -0.162476 0
M  V30 4949 H 481.75 4.87188 -0.946651 0
M  V30 4950 H 477.006 5.76213 -2.04423 0
M  V30 4951 H 481.18 6.36465 -2.8264 0
M  V30 4952 H 478.807 6.80869 -3.38114 0
M  V30 4953 N 480.382 0.0267497 1.57577 0
M  V30 4954 C 481.793 -0.512413 1.79531 0
M  V30 4955 C 482.144 -1.72391 0.936791 0
M  V30 4956 O 481.269 -2.15903 0.146543 0
M  V30 4957 C 481.864 -0.936378 3.25603 0
M  V30 4958 C 480.423 -1.42067 3.4856 0
M  V30 4959 C 479.57 -0.384278 2.74624 0
M  V30 4960 H 482.521 0.252797 1.56674 0
M  V30 4961 H 482.542 -1.80088 3.35184 0
M  V30 4962 H 482.054 -0.0544332 3.88062 0
M  V30 4963 H 480.155 -2.32262 2.9135 0
M  V30 4964 H 480.268 -1.42968 4.57271 0
M  V30 4965 H 478.632 -0.851855 2.40032 0
M  V30 4966 H 479.415 0.489159 3.39797 0
M  V30 4967 N 481.861 -1.55662 -0.24637 0
M  V30 4968 C 482.794 -1.85332 -1.33143 0
M  V30 4969 C 483.772 -0.708464 -1.46354 0
M  V30 4970 O 484.956 -0.954274 -1.6256 0
M  V30 4971 C 482.083 -2.0385 -2.70487 0
M  V30 4972 C 481.129 -3.26488 -2.74423 0
M  V30 4973 S 481.962 -4.83124 -2.30979 0
M  V30 4974 C 483.118 -5.04647 -3.70246 0
M  V30 4975 H 483.351 -2.77077 -1.07777 0
M  V30 4976 H 480.884 -1.47776 -0.44738 0
M  V30 4977 H 482.842 -2.15202 -3.49569 0
M  V30 4978 H 481.503 -1.12947 -2.9309 0
M  V30 4979 H 480.696 -3.36413 -3.7529 0
M  V30 4980 H 480.298 -3.13864 -2.03385 0
M  V30 4981 H 482.59 -4.92023 -4.65746 0
M  V30 4982 H 483.533 -6.06625 -3.65255 0
M  V30 4983 H 483.941 -4.32491 -3.62784 0
M  V30 4984 N 483.339 0.512053 -1.4905 0
M  V30 4985 C 484.588 1.26343 -1.57227 0
M  V30 4986 C 484.901 1.93876 -0.259155 0
M  V30 4987 O 486.107 2.70612 -0.219358 0
M  V30 4988 C 484.563 2.29343 -2.77362 0
M  V30 4989 C 484.171 1.67799 -4.15388 0
M  V30 4990 C 485.915 3.05378 -2.94864 0
M  V30 4991 C 483.822 2.68845 -5.2676 0
M  V30 4992 H 482.752 0.475231 -0.585382 0
M  V30 4993 H 485.403 0.53862 -1.75417 0
M  V30 4994 H 483.785 3.04938 -2.52643 0
M  V30 4995 H 484.959 0.982715 -4.50199 0
M  V30 4996 H 483.274 1.04194 -4.03153 0
M  V30 4997 H 485.871 3.80921 -3.75238 0
M  V30 4998 H 486.214 3.62327 -2.05 0
M  V30 4999 H 486.747 2.36898 -3.19569 0
M  V30 5000 H 483.486 2.16692 -6.18647 0
M  V30 5001 H 483.006 3.36647 -4.96416 0
M  V30 5002 H 484.685 3.31487 -5.5563 0
M  V30 5003 N 484.817 1.37938 0.762283 0
M  V30 5004 C 486.047 1.36685 1.54922 0
M  V30 5005 C 486.455 -0.0474099 1.89141 0
M  V30 5006 O 485.798 -1.02213 1.52638 0
M  V30 5007 C 485.86 2.14963 2.88152 0
M  V30 5008 C 485.524 3.6385 2.76518 0
M  V30 5009 C 486.521 4.57531 2.46904 0
M  V30 5010 C 484.206 4.07095 2.94243 0
M  V30 5011 C 486.2 5.92436 2.35156 0
M  V30 5012 C 483.887 5.42083 2.82116 0
M  V30 5013 C 484.885 6.34567 2.52614 0
M  V30 5014 O 484.573 7.67073 2.40529 0
M  V30 5015 H 484.305 0.469586 0.486276 0
M  V30 5016 H 486.859 1.82012 0.951876 0
M  V30 5017 H 485.089 1.6434 3.50042 0
M  V30 5018 H 486.778 2.06224 3.49609 0
M  V30 5019 H 487.544 4.25428 2.32886 0
M  V30 5020 H 483.423 3.35462 3.16206 0
M  V30 5021 H 486.967 6.64591 2.12049 0
M  V30 5022 H 482.864 5.73785 2.95704 0
M  V30 5023 H 483.632 7.77499 2.55807 0
M  V30 5024 N 486.295 -0.989507 1.22664 0
M  V30 5025 C 487.205 -2.11449 1.01619 0
M  V30 5026 C 488.221 -1.73962 -0.036545 0
M  V30 5027 O 489.397 -2.00788 0.156924 0
M  V30 5028 C 486.462 -3.41465 0.600204 0
M  V30 5029 C 485.523 -3.93033 1.72695 0
M  V30 5030 C 484.756 -5.16844 1.33071 0
M  V30 5031 O 484.979 -5.7001 0.210975 0
M  V30 5032 O 483.913 -5.6225 2.14845 0
M  V30 5033 H 487.739 -2.32088 1.9588 0
M  V30 5034 H 485.324 -1.09823 1.01289 0
M  V30 5035 H 487.206 -4.19695 0.37873 0
M  V30 5036 H 485.881 -3.22178 -0.313511 0
M  V30 5037 H 484.788 -3.15961 2.00298 0
M  V30 5038 H 486.121 -4.16758 2.61865 0
M  V30 5039 N 487.773 -1.03688 -1.18687 0
M  V30 5040 C 488.72 -0.624624 -2.22187 0
M  V30 5041 C 489.69 0.365636 -1.62026 0
M  V30 5042 O 490.875 0.260481 -1.89014 0
M  V30 5043 C 488.015 0.0101738 -3.45099 0
M  V30 5044 C 487.128 -1.02709 -4.19613 0
M  V30 5045 C 486.263 -0.361213 -5.2997 0
M  V30 5046 C 485.302 -1.38384 -5.96252 0
M  V30 5047 N 484.439 -0.743196 -6.98155 0
M  V30 5048 H 489.279 -1.51176 -2.56807 0
M  V30 5049 H 486.816 -0.75636 -1.26165 0
M  V30 5050 H 488.774 0.395528 -4.15321 0
M  V30 5051 H 487.404 0.860848 -3.1111 0
M  V30 5052 H 486.456 -1.53043 -3.48256 0
M  V30 5053 H 487.768 -1.80398 -4.65036 0
M  V30 5054 H 486.922 0.0785537 -6.06649 0
M  V30 5055 H 485.661 0.447799 -4.8564 0
M  V30 5056 H 484.666 -1.83378 -5.18317 0
M  V30 5057 H 485.891 -2.19448 -6.42666 0
M  V30 5058 H 483.837 0.0455789 -6.55984 0
M  V30 5059 H 483.754 -1.45784 -7.41811 0
M  V30 5060 H 485.022 -0.327698 -7.78811 0
M  V30 5061 N 489.251 1.34841 -0.815825 0
M  V30 5062 C 490.181 2.32187 -0.247298 0
M  V30 5063 C 491.162 1.5791 0.632344 0
M  V30 5064 O 492.347 1.8593 0.560698 0
M  V30 5065 C 489.477 3.42122 0.597466 0
M  V30 5066 C 488.431 4.27602 -0.184446 0
M  V30 5067 C 487.757 5.28942 0.782609 0
M  V30 5068 C 489.057 5.03502 -1.38865 0
M  V30 5069 H 490.751 2.79985 -1.06061 0
M  V30 5070 H 488.297 1.34611 -0.511461 0
M  V30 5071 H 490.25 4.09232 1.00533 0
M  V30 5072 H 488.974 2.92956 1.44376 0
M  V30 5073 H 487.633 3.62085 -0.573592 0
M  V30 5074 H 487.281 4.7604 1.62466 0
M  V30 5075 H 486.981 5.87008 0.263695 0
M  V30 5076 H 488.505 5.98922 1.18848 0
M  V30 5077 H 489.919 5.63506 -1.05518 0
M  V30 5078 H 488.316 5.71108 -1.8427 0
M  V30 5079 H 489.386 4.33608 -2.17054 0
M  V30 5080 N 490.729 0.570148 1.46925 0
M  V30 5081 C 491.659 -0.158274 2.32963 0
M  V30 5082 C 492.64 -0.896093 1.44583 0
M  V30 5083 O 493.825 -0.874022 1.7342 0
M  V30 5084 C 490.955 -1.18055 3.26619 0
M  V30 5085 C 489.909 -0.558379 4.24342 0
M  V30 5086 C 489.235 -1.68623 5.07415 0
M  V30 5087 C 490.535 0.496295 5.19937 0
M  V30 5088 H 492.229 0.560046 2.94115 0
M  V30 5089 H 489.775 0.270775 1.41431 0
M  V30 5090 H 491.728 -1.69841 3.85658 0
M  V30 5091 H 490.452 -1.92899 2.63548 0
M  V30 5092 H 489.111 -0.0617157 3.66548 0
M  V30 5093 H 488.759 -2.42402 4.40738 0
M  V30 5094 H 488.459 -1.27564 5.73586 0
M  V30 5095 H 489.983 -2.20709 5.69315 0
M  V30 5096 H 491.397 0.0640052 5.73264 0
M  V30 5097 H 489.794 0.82649 5.94381 0
M  V30 5098 H 490.864 1.38735 4.6463 0
M  V30 5099 N 492.207 -1.54576 0.307264 0
M  V30 5100 C 493.455 -1.99867 -0.299574 0
M  V30 5101 C 493.776 -1.19714 -1.53927 0
M  V30 5102 O 493.046 -0.29472 -1.9367 0
M  V30 5103 H 491.626 -0.738299 -0.113683 0
M  V30 5104 H 494.288 -1.9032 0.420042 0
M  V30 5105 H 493.384 -3.06901 -0.567283 0
M  V30 5106 N 493.685 -0.035106 -1.57561 0
M  V30 5107 C 494.615 0.942993 -2.13612 0
M  V30 5108 C 495.596 1.33531 -1.05373 0
M  V30 5109 O 496.781 1.41287 -1.33235 0
M  V30 5110 C 493.911 2.22332 -2.66807 0
M  V30 5111 C 492.865 1.97156 -3.79886 0
M  V30 5112 C 492.191 3.31506 -4.19533 0
M  V30 5113 C 493.491 1.30596 -5.05709 0
M  V30 5114 H 495.185 0.476179 -2.95589 0
M  V30 5115 H 492.731 0.227602 -1.4219 0
M  V30 5116 H 494.684 2.91142 -3.04654 0
M  V30 5117 H 493.408 2.7119 -1.81999 0
M  V30 5118 H 492.067 1.30763 -3.42486 0
M  V30 5119 H 491.715 3.78134 -3.31698 0
M  V30 5120 H 491.415 3.15465 -4.95738 0
M  V30 5121 H 492.939 4.01574 -4.59968 0
M  V30 5122 H 494.353 1.89416 -5.41105 0
M  V30 5123 H 492.75 1.24934 -5.86951 0
M  V30 5124 H 493.82 0.279742 -4.84092 0
M  V30 5125 N 495.163 1.55791 0.238111 0
M  V30 5126 C 496.411 1.77681 0.963001 0
M  V30 5127 C 496.732 0.600674 1.85518 0
M  V30 5128 O 496.002 -0.383182 1.92116 0
M  V30 5129 H 494.582 0.655315 0.358568 0
M  V30 5130 H 497.244 1.93239 0.253945 0
M  V30 5131 H 496.34 2.69177 1.57956 0
M  V30 5132 N 496.642 -0.504142 1.49319 0
M  V30 5133 C 497.891 -1.25507 1.57895 0
M  V30 5134 C 498.204 -1.93735 0.269433 0
M  V30 5135 O 499.41 -2.70492 0.233706 0
M  V30 5136 C 497.866 -2.27869 2.78574 0
M  V30 5137 C 497.474 -1.65594 4.16272 0
M  V30 5138 C 499.218 -3.0381 2.96479 0
M  V30 5139 C 497.125 -2.66048 5.28178 0
M  V30 5140 H 496.055 -0.47212 0.587894 0
M  V30 5141 H 498.706 -0.52931 1.757 0
M  V30 5142 H 497.088 -3.03594 2.54257 0
M  V30 5143 H 498.262 -0.958826 4.50714 0
M  V30 5144 H 496.577 -1.02055 4.037 0
M  V30 5145 H 499.174 -3.78925 3.77253 0
M  V30 5146 H 499.517 -3.61235 2.06918 0
M  V30 5147 H 500.05 -2.352 3.20821 0
M  V30 5148 H 496.789 -2.13408 6.19788 0
M  V30 5149 H 496.309 -3.34009 4.98195 0
M  V30 5150 H 497.988 -3.28536 5.57381 0
M  V30 5151 N 498.12 -1.38341 -0.754957 0
M  V30 5152 C 499.397 -1.24995 -1.50451 0
M  V30 5153 C 499.777 0.149244 -2.10572 0
M  V30 5154 O 499.125 1.15861 -1.96948 0
M  V30 5155 C 499.335 -2.35904 -2.57197 0
M  V30 5156 C 500.683 -2.74262 -3.24138 0
M  V30 5157 O 501.707 -2.35205 -2.67501 0
M  V30 5158 O 500.566 -3.4161 -4.26574 0
M  V30 5159 H 497.66 -0.48872 -0.667144 0
M  V30 5160 H 500.206 -1.50165 -0.790486 0
M  V30 5161 H 498.978 -3.2953 -2.11011 0
M  V30 5162 H 498.601 -2.12291 -3.36182 0
M  V30 5163 N 499.598 0.982988 -1.23187 0
M  V30 5164 C 500.528 2.09301 -1.03515 0
M  V30 5165 C 501.509 1.70035 0.0471136 0
M  V30 5166 O 502.694 1.93847 -0.117029 0
M  V30 5167 C 499.824 3.4167 -0.622791 0
M  V30 5168 C 498.778 3.94828 -1.65211 0
M  V30 5169 C 498.104 5.23362 -1.09527 0
M  V30 5170 C 499.404 4.2439 -3.04451 0
M  V30 5171 H 501.098 2.26016 -1.96359 0
M  V30 5172 H 498.644 1.08611 -0.945501 0
M  V30 5173 H 500.597 4.18746 -0.472233 0
M  V30 5174 H 499.321 3.24811 0.341329 0
M  V30 5175 H 497.98 3.19895 -1.79061 0
M  V30 5176 H 497.628 5.02852 -0.122211 0
M  V30 5177 H 497.328 5.59895 -1.783 0
M  V30 5178 H 498.852 6.03062 -0.956511 0
M  V30 5179 H 500.266 4.92225 -2.93917 0
M  V30 5180 H 498.663 4.72118 -3.70438 0
M  V30 5181 H 499.733 3.31765 -3.53638 0
M  V30 5182 N 501.076 1.04316 1.18135 0
M  V30 5183 C 502.304 0.768117 1.92113 0
M  V30 5184 C 502.719 -0.675057 1.76319 0
M  V30 5185 O 502.076 -1.46038 1.09449 0
M  V30 5186 C 502.127 1.12808 3.43448 0
M  V30 5187 O 501.848 2.5146 3.58747 0
M  V30 5188 C 503.349 0.8779 4.3452 0
M  V30 5189 H 500.569 0.279937 0.609817 0
M  V30 5190 H 503.113 1.39149 1.49859 0
M  V30 5191 H 501.268 0.549623 3.83481 0
M  V30 5192 H 501.682 2.65313 4.52448 0
M  V30 5193 H 503.156 1.17959 5.39249 0
M  V30 5194 H 503.633 -0.187239 4.38801 0
M  V30 5195 H 504.239 1.43977 4.00188 0
M  V30 5196 N 502.554 -1.34406 0.822964 0
M  V30 5197 C 503.486 -2.28305 0.202375 0
M  V30 5198 C 504.499 -1.5103 -0.60777 0
M  V30 5199 O 505.688 -1.73057 -0.437444 0
M  V30 5200 C 502.788 -3.30836 -0.734911 0
M  V30 5201 C 501.961 -4.37388 0.0324177 0
M  V30 5202 C 501.02 -5.1968 -0.825803 0
M  V30 5203 O 500.046 -5.68556 -0.270771 0
M  V30 5204 N 501.248 -5.39393 -2.14558 0
M  V30 5205 H 504.013 -2.82201 1.00909 0
M  V30 5206 H 501.574 -1.4693 0.67993 0
M  V30 5207 H 503.566 -3.82786 -1.31365 0
M  V30 5208 H 502.136 -2.77334 -1.44238 0
M  V30 5209 H 501.356 -3.86152 0.792469 0
M  V30 5210 H 502.644 -5.05702 0.560633 0
M  V30 5211 H 502.042 -5.01357 -2.62025 0
M  V30 5212 H 500.599 -5.94461 -2.67318 0
M  V30 5213 N 504.032 -0.577932 -1.46621 0
M  V30 5214 C 504.942 0.160651 -2.34049 0
M  V30 5215 C 505.958 0.890911 -1.49462 0
M  V30 5216 O 507.134 0.855166 -1.82343 0
M  V30 5217 C 504.199 1.16447 -3.26559 0
M  V30 5218 C 503.26 0.4394 -4.27045 0
M  V30 5219 C 502.493 1.3954 -5.15135 0
M  V30 5220 O 502.716 2.63162 -5.06065 0
M  V30 5221 O 501.65 0.908585 -5.95003 0
M  V30 5222 H 505.476 -0.557057 -2.98547 0
M  V30 5223 H 503.061 -0.338369 -1.45518 0
M  V30 5224 H 504.943 1.7434 -3.83645 0
M  V30 5225 H 503.618 1.86373 -2.64663 0
M  V30 5226 H 502.525 -0.181247 -3.73661 0
M  V30 5227 H 503.858 -0.218799 -4.91713 0
M  V30 5228 N 505.51 1.54411 -0.315457 0
M  V30 5229 C 506.921 1.85885 0.174265 0
M  V30 5230 C 507.272 1.23723 1.52273 0
M  V30 5231 O 506.397 0.540246 2.09548 0
M  V30 5232 C 506.992 3.37257 0.322981 0
M  V30 5233 C 505.551 3.68711 0.756922 0
M  V30 5234 C 504.698 2.77013 -0.126195 0
M  V30 5235 H 507.649 1.49374 -0.536007 0
M  V30 5236 H 507.67 3.62539 1.15522 0
M  V30 5237 H 507.182 3.82471 -0.658602 0
M  V30 5238 H 505.283 3.29024 1.74854 0
M  V30 5239 H 505.396 4.75741 0.566291 0
M  V30 5240 H 503.76 2.51588 0.39692 0
M  V30 5241 H 504.543 3.25051 -1.1044 0
M  V30 5242 N 506.988 0.0434614 1.5754 0
M  V30 5243 C 508.234 -0.632971 1.92669 0
M  V30 5244 C 508.567 -1.70947 0.921446 0
M  V30 5245 O 507.842 -1.94426 -0.0537202 0
M  V30 5246 C 508.125 -1.23619 3.38216 0
M  V30 5247 C 507.978 -0.168274 4.49485 0
M  V30 5248 C 509.297 -2.15008 3.84005 0
M  V30 5249 H 506.416 -0.228629 0.700641 0
M  V30 5250 H 509.058 0.103651 1.89717 0
M  V30 5251 H 507.208 -1.864 3.40863 0
M  V30 5252 H 508.88 0.463196 4.58969 0
M  V30 5253 H 507.123 0.504581 4.30855 0
M  V30 5254 H 507.794 -0.630218 5.48391 0
M  V30 5255 H 510.27 -1.62198 3.83185 0
M  V30 5256 H 509.146 -2.54161 4.86511 0
M  V30 5257 H 509.407 -3.04707 3.20322 0
M  V30 5258 N 508.466 -1.55915 -0.229846 0
M  V30 5259 C 509.877 -1.68809 -0.797531 0
M  V30 5260 C 510.228 -0.643995 -1.8533 0
M  V30 5261 O 509.353 0.206492 -2.15413 0
M  V30 5262 C 509.948 -3.06043 -1.45338 0
M  V30 5263 C 508.507 -3.20819 -1.96856 0
M  V30 5264 C 507.654 -2.6472 -0.825736 0
M  V30 5265 H 510.605 -1.58699 -0.00533733 0
M  V30 5266 H 510.626 -3.01438 -2.32196 0
M  V30 5267 H 510.138 -3.82012 -0.684743 0
M  V30 5268 H 508.239 -2.49704 -2.76548 0
M  V30 5269 H 508.352 -4.27937 -2.15423 0
M  V30 5270 H 506.716 -2.22985 -1.23084 0
M  V30 5271 H 507.499 -3.43229 -0.0699019 0
M  V30 5272 N 509.944 0.496216 -1.49584 0
M  V30 5273 C 511.193 1.24668 -1.58558 0
M  V30 5274 C 511.506 1.9359 -0.279703 0
M  V30 5275 O 512.712 2.70365 -0.248048 0
M  V30 5276 C 511.168 2.26388 -2.79779 0
M  V30 5277 C 510.776 1.63384 -4.17145 0
M  V30 5278 C 512.52 3.02233 -2.98086 0
M  V30 5279 C 510.427 2.63243 -5.29582 0
M  V30 5280 H 509.357 0.468995 -0.590389 0
M  V30 5281 H 512.008 0.519985 -1.75978 0
M  V30 5282 H 510.39 3.02241 -2.55863 0
M  V30 5283 H 511.564 0.93491 -4.51216 0
M  V30 5284 H 509.879 0.999121 -4.04236 0
M  V30 5285 H 512.476 3.76919 -3.79257 0
M  V30 5286 H 512.819 3.60132 -2.08831 0
M  V30 5287 H 513.352 2.33495 -3.22063 0
M  V30 5288 H 510.091 2.10119 -6.20911 0
M  V30 5289 H 509.611 3.31363 -4.99959 0
M  V30 5290 H 511.29 3.25575 -5.59115 0
M  V30 5291 N 511.423 1.38739 0.74761 0
M  V30 5292 C 512.669 1.35475 1.50912 0
M  V30 5293 C 513.002 -0.0533093 1.94127 0
M  V30 5294 O 512.277 -1.01572 1.65871 0
M  V30 5295 C 512.56 2.31582 2.75757 0
M  V30 5296 C 512.413 3.81274 2.38642 0
M  V30 5297 C 513.732 2.25722 3.77806 0
M  V30 5298 H 510.851 0.493427 0.547447 0
M  V30 5299 H 513.493 1.69634 0.855823 0
M  V30 5300 H 511.643 2.02582 3.31501 0
M  V30 5301 H 513.315 4.20972 1.88626 0
M  V30 5302 H 511.558 3.98664 1.71025 0
M  V30 5303 H 512.229 4.4399 3.27989 0
M  V30 5304 H 514.705 2.51336 3.31616 0
M  V30 5305 H 513.581 2.95069 4.62845 0
M  V30 5306 H 513.842 1.25803 4.23823 0
M  V30 5307 N 512.901 -0.976442 1.23707 0
M  V30 5308 C 514.312 -1.53284 1.06587 0
M  V30 5309 C 514.663 -1.92765 -0.365526 0
M  V30 5310 O 513.788 -1.7645 -1.25277 0
M  V30 5311 C 514.383 -2.78548 1.92864 0
M  V30 5312 C 512.942 -3.30574 1.79994 0
M  V30 5313 C 512.089 -2.03538 1.88328 0
M  V30 5314 H 515.04 -0.795692 1.37311 0
M  V30 5315 H 515.061 -3.5155 1.45577 0
M  V30 5316 H 514.573 -2.49782 2.97037 0
M  V30 5317 H 512.674 -3.64211 0.786202 0
M  V30 5318 H 512.787 -4.00065 2.636 0
M  V30 5319 H 511.151 -2.17853 1.31954 0
M  V30 5320 H 511.934 -1.77149 2.94063 0
M  V30 5321 N 514.379 -1.04941 -1.1758 0
M  V30 5322 C 515.342 -0.652456 -2.19717 0
M  V30 5323 C 516.342 0.294745 -1.58076 0
M  V30 5324 O 517.532 0.0789579 -1.74021 0
M  V30 5325 C 514.664 0.0420712 -3.40874 0
M  V30 5326 H 515.857 -1.55642 -2.5635 0
M  V30 5327 H 513.41 -0.842995 -1.31618 0
M  V30 5328 H 514.145 0.95943 -3.09783 0
M  V30 5329 H 513.93 -0.638844 -3.86861 0
M  V30 5330 H 515.42 0.306 -4.16477 0
M  V30 5331 N 515.857 1.33968 -0.830081 0
M  V30 5332 C 516.82 2.27694 -0.26235 0
M  V30 5333 C 517.82 1.50589 0.563876 0
M  V30 5334 O 519.01 1.70028 0.378941 0
M  V30 5335 C 516.142 3.35002 0.63138 0
M  V30 5336 H 517.335 2.79419 -1.08928 0
M  V30 5337 H 514.888 1.44221 -0.602486 0
M  V30 5338 H 515.623 2.88504 1.48109 0
M  V30 5339 H 515.408 3.92079 0.0403276 0
M  V30 5340 H 516.898 4.04897 1.02217 0
M  V30 5341 N 517.335 0.585699 1.46312 0
M  V30 5342 C 518.285 -0.166813 2.27389 0
M  V30 5343 C 519.269 -0.859076 1.36047 0
M  V30 5344 O 520.461 -0.752678 1.60199 0
M  V30 5345 C 517.59 -1.17791 3.2246 0
M  V30 5346 C 516.676 -0.487605 4.21288 0
M  V30 5347 N 517.067 0.45849 5.03718 0
M  V30 5348 C 515.365 -0.737971 4.39852 0
M  V30 5349 C 516.066 0.862213 5.75275 0
M  V30 5350 N 515.042 0.210707 5.43191 0
M  V30 5351 H 518.844 0.560167 2.88512 0
M  V30 5352 H 516.358 0.407715 1.57199 0
M  V30 5353 H 518.355 -1.73122 3.79255 0
M  V30 5354 H 517.015 -1.90568 2.62896 0
M  V30 5355 H 518.026 0.834163 5.11138 0
M  V30 5356 H 514.703 -1.45209 3.91434 0
M  V30 5357 H 516.093 1.64128 6.51546 0
M  V30 5358 N 518.813 -1.54241 0.323641 0
M  V30 5359 C 520.043 -2.04687 -0.280464 0
M  V30 5360 C 520.451 -1.19939 -1.46326 0
M  V30 5361 O 519.794 -0.222872 -1.82343 0
M  V30 5362 C 519.856 -3.50978 -0.778123 0
M  V30 5363 C 519.52 -4.56127 0.282371 0
M  V30 5364 C 520.517 -5.07726 1.11847 0
M  V30 5365 C 518.202 -5.00451 0.430582 0
M  V30 5366 C 520.196 -6.02212 2.08851 0
M  V30 5367 C 517.883 -5.94752 1.40404 0
M  V30 5368 C 518.881 -6.45519 2.23147 0
M  V30 5369 O 518.569 -7.37968 3.1884 0
M  V30 5370 H 518.301 -0.673192 -0.0615473 0
M  V30 5371 H 520.855 -1.99999 0.467921 0
M  V30 5372 H 519.085 -3.53064 -1.57742 0
M  V30 5373 H 520.774 -3.84499 -1.30058 0
M  V30 5374 H 521.54 -4.74261 1.01496 0
M  V30 5375 H 517.419 -4.6055 -0.203569 0
M  V30 5376 H 520.963 -6.41761 2.73474 0
M  V30 5377 H 516.86 -6.27633 1.5082 0
M  V30 5378 H 517.628 -7.55841 3.14079 0
M  V30 5379 N 520.291 -0.0518155 -1.57515 0
M  V30 5380 C 521.519 0.631395 -1.9703 0
M  V30 5381 C 521.934 1.64341 -0.92938 0
M  V30 5382 O 521.291 1.82296 0.0863266 0
M  V30 5383 C 521.342 1.31774 -3.36627 0
M  V30 5384 O 521.063 0.346247 -4.3673 0
M  V30 5385 C 522.564 2.09065 -3.90905 0
M  V30 5386 H 519.784 0.172576 -0.648428 0
M  V30 5387 H 522.328 -0.118306 -2.04158 0
M  V30 5388 H 520.483 2.01867 -3.30649 0
M  V30 5389 H 520.897 0.836226 -5.17791 0
M  V30 5390 H 522.371 2.52508 -4.9086 0
M  V30 5391 H 522.848 2.93908 -3.26366 0
M  V30 5392 H 523.454 1.43882 -4.00223 0
M  V30 5393 N 521.769 1.56035 0.221574 0
M  V30 5394 C 523.009 1.80822 0.953038 0
M  V30 5395 C 523.373 0.625316 1.81532 0
M  V30 5396 O 524.574 0.752491 2.58052 0
M  V30 5397 C 522.845 3.10503 1.76983 0
M  V30 5398 S 524.404 3.56604 2.55693 0
M  V30 5399 H 521.222 0.634849 0.320137 0
M  V30 5400 H 523.824 1.94274 0.218619 0
M  V30 5401 H 522.528 3.94636 1.12651 0
M  V30 5402 H 522.059 2.99858 2.54655 0
M  V30 5403 H 524.074 3.1994 3.79279 0
M  V30 5404 N 523.247 -0.488276 1.49845 0
M  V30 5405 C 524.495 -1.23911 1.59657 0
M  V30 5406 C 524.816 -1.92816 0.291005 0
M  V30 5407 O 524.086 -1.83328 -0.690485 0
M  V30 5408 H 522.666 -0.460357 0.588286 0
M  V30 5409 H 525.328 -0.564794 1.86537 0
M  V30 5410 H 524.424 -1.99625 2.39909 0
M  V30 5411 N 524.725 -1.39134 -0.740242 0
M  V30 5412 C 525.973 -1.35803 -1.49673 0
M  V30 5413 C 526.294 0.0470897 -1.94943 0
M  V30 5414 O 525.564 0.997347 -1.68611 0
M  V30 5415 H 524.144 -0.499736 -0.555224 0
M  V30 5416 H 526.806 -1.73947 -0.879107 0
M  V30 5417 H 525.902 -2.0174 -2.38133 0
M  V30 5418 N 526.204 0.969867 -1.24223 0
M  V30 5419 C 527.45 1.7151 -1.08223 0
M  V30 5420 C 527.783 1.90478 0.37838 0
M  V30 5421 O 527.058 1.4647 1.27971 0
M  V30 5422 C 527.341 3.10714 -1.82013 0
M  V30 5423 C 527.194 2.9925 -3.35811 0
M  V30 5424 C 528.513 4.10332 -1.59108 0
M  V30 5425 H 525.632 0.622499 -0.394543 0
M  V30 5426 H 528.274 1.1284 -1.52863 0
M  V30 5427 H 526.424 3.608 -1.44068 0
M  V30 5428 H 528.096 2.56608 -3.83341 0
M  V30 5429 H 526.339 2.35512 -3.64303 0
M  V30 5430 H 527.01 3.97857 -3.82641 0
M  V30 5431 H 529.486 3.69097 -1.92111 0
M  V30 5432 H 528.362 5.05804 -2.13198 0
M  V30 5433 H 528.623 4.38926 -0.528832 0
M  V30 5434 N 527.682 1.05563 1.17022 0
M  V30 5435 C 528.615 0.604197 2.20056 0
M  V30 5436 C 529.593 -0.369169 1.58354 0
M  V30 5437 O 530.777 -0.279898 1.8641 0
M  V30 5438 C 527.904 -0.115265 3.38504 0
M  V30 5439 C 526.95 0.813698 4.18666 0
M  V30 5440 S 527.783 2.30492 4.83357 0
M  V30 5441 C 528.939 1.59674 6.0519 0
M  V30 5442 H 529.172 1.47713 2.58008 0
M  V30 5443 H 526.705 0.867932 1.27696 0
M  V30 5444 H 528.663 -0.524162 4.0714 0
M  V30 5445 H 527.324 -0.964284 2.98932 0
M  V30 5446 H 526.517 0.256736 5.03346 0
M  V30 5447 H 526.119 1.16213 3.55486 0
M  V30 5448 H 528.411 0.898164 6.7152 0
M  V30 5449 H 529.354 2.42115 6.65422 0
M  V30 5450 H 529.762 1.08252 5.54023 0
M  V30 5451 N 529.16 -1.33526 0.837174 0
M  V30 5452 C 530.406 -1.9813 0.432704 0
M  V30 5453 C 530.739 -1.66168 -1.00508 0
M  V30 5454 O 530.014 -0.94069 -1.70239 0
M  V30 5455 C 530.297 -3.54151 0.651834 0
M  V30 5456 C 530.15 -3.95806 2.13676 0
M  V30 5457 C 531.469 -4.39993 0.0968937 0
M  V30 5458 H 528.588 -0.719713 0.15869 0
M  V30 5459 H 531.23 -1.58193 1.05237 0
M  V30 5460 H 529.38 -3.88301 0.124369 0
M  V30 5461 H 531.052 -3.71921 2.72896 0
M  V30 5462 H 529.295 -3.45599 2.62191 0
M  V30 5463 H 529.966 -5.0447 2.24084 0
M  V30 5464 H 532.442 -4.12479 0.547733 0
M  V30 5465 H 531.318 -5.48186 0.279917 0
M  V30 5466 H 531.579 -4.3066 -0.9992 0
M  V30 5467 N 530.638 -0.59345 -1.46 0
M  V30 5468 C 531.915 -0.0157933 -1.95594 0
M  V30 5469 C 532.295 1.44807 -1.53604 0
M  V30 5470 O 531.643 2.14342 -0.791824 0
M  V30 5471 C 531.853 -0.199081 -3.48432 0
M  V30 5472 C 533.201 -0.0724943 -4.24538 0
M  V30 5473 O 534.225 -0.128469 -3.55968 0
M  V30 5474 O 533.084 0.0542426 -5.46473 0
M  V30 5475 H 530.178 0.043749 -0.825842 0
M  V30 5476 H 532.724 -0.662522 -1.56233 0
M  V30 5477 H 531.496 -1.21631 -3.71916 0
M  V30 5478 H 531.119 0.483576 -3.94648 0
M  V30 5479 N 532.116 1.54067 -0.331816 0
M  V30 5480 C 533.393 1.92915 0.322955 0
M  V30 5481 C 533.773 1.26225 1.69205 0
M  V30 5482 O 533.121 0.408919 2.24811 0
M  V30 5483 C 533.331 3.46619 0.406946 0
M  V30 5484 C 534.679 4.19386 0.663339 0
M  V30 5485 O 535.703 3.5282 0.489536 0
M  V30 5486 O 534.562 5.37288 0.999193 0
M  V30 5487 H 531.656 0.805808 0.186016 0
M  V30 5488 H 534.202 1.65342 -0.382135 0
M  V30 5489 H 532.974 3.87354 -0.554287 0
M  V30 5490 H 532.597 3.80324 1.15929 0
M  V30 5491 N 533.594 0.0601682 1.57485 0
M  V30 5492 C 534.544 -0.920969 2.08572 0
M  V30 5493 C 535.528 -1.26617 0.992827 0
M  V30 5494 O 536.72 -1.24708 1.25606 0
M  V30 5495 C 533.849 -2.19267 2.64153 0
M  V30 5496 C 532.935 -1.87447 3.80427 0
M  V30 5497 N 533.326 -1.26025 4.89848 0
M  V30 5498 C 531.624 -2.17265 3.89502 0
M  V30 5499 C 532.325 -1.12036 5.70809 0
M  V30 5500 N 531.301 -1.62624 5.18705 0
M  V30 5501 H 535.103 -0.441561 2.90564 0
M  V30 5502 H 532.617 -0.144043 1.6176 0
M  V30 5503 H 534.614 -2.90462 2.99061 0
M  V30 5504 H 533.274 -2.67806 1.83603 0
M  V30 5505 H 534.285 -0.931336 5.09457 0
M  V30 5506 H 530.962 -2.68262 3.19909 0
M  V30 5507 H 532.352 -0.642783 6.68818 0
M  V30 5508 N 535.072 -1.5615 -0.213296 0
M  V30 5509 C 536.32 -1.79191 -0.934612 0
M  V30 5510 C 536.641 -0.630112 -1.84539 0
M  V30 5511 O 535.911 0.35257 -1.92701 0
M  V30 5512 H 534.491 -0.660937 -0.348097 0
M  V30 5513 H 537.153 -1.93618 -0.22317 0
M  V30 5514 H 536.249 -2.71656 -1.53654 0
M  V30 5515 N 536.55 0.480323 -1.50102 0
M  V30 5516 C 537.966 0.813295 -1.37323 0
M  V30 5517 C 538.166 1.97027 -0.422206 0
M  V30 5518 O 537.222 2.5212 0.138563 0
M  V30 5519 C 538.535 1.13404 -2.78496 0
M  V30 5520 C 540.083 1.24104 -2.87345 0
M  V30 5521 C 540.558 1.59497 -4.29331 0
M  V30 5522 N 542.049 1.66507 -4.32238 0
M  V30 5523 C 542.784 1.95378 -5.39087 0
M  V30 5524 N 542.28 2.22333 -6.56155 0
M  V30 5525 N 544.073 1.96803 -5.26522 0
M  V30 5526 H 536.224 -0.282291 -2.10516 0
M  V30 5527 H 538.487 -0.063752 -0.945854 0
M  V30 5528 H 538.193 0.357064 -3.49883 0
M  V30 5529 H 538.067 2.07251 -3.15162 0
M  V30 5530 H 540.454 2.00871 -2.16183 0
M  V30 5531 H 540.535 0.282593 -2.54234 0
M  V30 5532 H 540.179 0.832736 -5.01027 0
M  V30 5533 H 540.109 2.56477 -4.59921 0
M  V30 5534 H 542.6 1.47753 -3.47818 0
M  V30 5535 H 542.913 2.43611 -7.33399 0
M  V30 5536 H 541.258 2.19745 -6.59346 0
M  V30 5537 H 544.449 1.75235 -4.34062 0
M  V30 5538 H 544.622 2.18969 -6.09883 0
M  V30 5539 N 538.028 1.39524 0.732853 0
M  V30 5540 C 539.256 1.40143 1.52209 0
M  V30 5541 C 539.671 -0.00348836 1.888 0
M  V30 5542 O 539.028 -0.975357 1.5425 0
M  V30 5543 C 539.079 2.27632 2.8083 0
M  V30 5544 O 538.8 3.62654 2.45792 0
M  V30 5545 C 540.301 2.36658 3.74844 0
M  V30 5546 H 537.521 0.478604 0.470297 0
M  V30 5547 H 540.065 1.83366 0.905388 0
M  V30 5548 H 538.22 1.87818 3.38826 0
M  V30 5549 H 538.634 4.08941 3.28431 0
M  V30 5550 H 540.108 3.02118 4.61984 0
M  V30 5551 H 540.585 1.38638 4.16745 0
M  V30 5552 H 541.191 2.76951 3.22766 0
M  V30 5553 N 539.506 -0.963266 1.24736 0
M  V30 5554 C 540.783 -1.68248 0.9976 0
M  V30 5555 C 541.163 -2.05599 -0.478776 0
M  V30 5556 O 540.511 -1.7626 -1.45412 0
M  V30 5557 C 540.721 -2.91118 1.92487 0
M  V30 5558 C 542.069 -3.63261 2.19833 0
M  V30 5559 O 543.093 -3.01184 1.90176 0
M  V30 5560 O 541.952 -4.75019 2.7022 0
M  V30 5561 H 539.046 -0.735744 0.377637 0
M  V30 5562 H 541.592 -1.01696 1.35853 0
M  V30 5563 H 540.364 -2.60242 2.92215 0
M  V30 5564 H 539.987 -3.65402 1.56738 0
M  V30 5565 N 540.985 -1.06182 -1.16461 0
M  V30 5566 C 542.231 -0.779015 -1.87241 0
M  V30 5567 C 542.564 0.692715 -1.81425 0
M  V30 5568 O 541.839 1.5074 -1.22913 0
M  V30 5569 C 542.122 -1.2728 -3.36856 0
M  V30 5570 C 541.975 -2.80821 -3.51368 0
M  V30 5571 C 543.294 -0.879799 -4.31216 0
M  V30 5572 H 540.413 -0.284464 -0.679889 0
M  V30 5573 H 543.055 -1.31755 -1.36896 0
M  V30 5574 H 541.205 -0.814673 -3.79862 0
M  V30 5575 H 542.877 -3.34833 -3.17308 0
M  V30 5576 H 541.12 -3.19606 -2.93316 0
M  V30 5577 H 541.791 -3.10435 -4.56436 0
M  V30 5578 H 544.267 -1.27436 -3.96105 0
M  V30 5579 H 543.143 -1.25278 -5.34412 0
M  V30 5580 H 543.404 0.215372 -4.41575 0
M  V30 5581 N 542.463 1.3308 -0.844243 0
M  V30 5582 C 543.373 2.32876 -0.283922 0
M  V30 5583 C 544.389 1.63589 0.592846 0
M  V30 5584 O 545.565 1.95205 0.495693 0
M  V30 5585 C 542.63 3.42667 0.527283 0
M  V30 5586 C 541.691 4.27664 -0.374394 0
M  V30 5587 C 540.924 5.32212 0.39819 0
M  V30 5588 O 541.147 5.46635 1.62932 0
M  V30 5589 O 540.081 6.01458 -0.2306 0
M  V30 5590 H 543.907 2.82671 -1.11045 0
M  V30 5591 H 541.492 1.36518 -0.606903 0
M  V30 5592 H 543.374 4.09652 0.988078 0
M  V30 5593 H 542.049 2.95079 1.33078 0
M  V30 5594 H 540.956 3.63526 -0.883144 0
M  V30 5595 H 542.289 4.78749 -1.1428 0
M  V30 5596 N 543.941 0.601185 1.45683 0
M  V30 5597 C 545.189 0.0936957 2.01883 0
M  V30 5598 C 545.51 -1.2779 1.47291 0
M  V30 5599 O 544.78 -1.84279 0.664691 0
M  V30 5600 H 543.36 0.0316466 0.746329 0
M  V30 5601 H 546.022 0.781137 1.78562 0
M  V30 5602 H 545.118 0.0386297 3.12076 0
M  V30 5603 N 545.419 -1.53889 0.339982 0
M  V30 5604 C 546.349 -2.27843 -0.510856 0
M  V30 5605 C 547.33 -1.29267 -1.10563 0
M  V30 5606 O 548.515 -1.58104 -1.12768 0
M  V30 5607 C 545.645 -3.04857 -1.66372 0
M  V30 5608 C 544.599 -4.10907 -1.19746 0
M  V30 5609 C 543.925 -4.75855 -2.43857 0
M  V30 5610 C 545.225 -5.21435 -0.300501 0
M  V30 5611 H 546.919 -2.99212 0.106067 0
M  V30 5612 H 544.465 -1.43904 0.0524533 0
M  V30 5613 H 546.418 -3.5533 -2.26537 0
M  V30 5614 H 545.142 -2.31133 -2.30749 0
M  V30 5615 H 543.801 -3.61342 -0.618654 0
M  V30 5616 H 543.449 -3.9873 -3.06633 0
M  V30 5617 H 543.149 -5.47502 -2.13343 0
M  V30 5618 H 544.673 -5.2911 -3.04754 0
M  V30 5619 H 546.087 -5.67565 -0.80889 0
M  V30 5620 H 544.484 -6.00036 -0.0874076 0
M  V30 5621 H 545.554 -4.80328 0.664321 0
M  V30 5622 N 546.897 -0.0685191 -1.57451 0
M  V30 5623 C 548.127 0.609577 -1.97402 0
M  V30 5624 C 548.535 1.63882 -0.945489 0
M  V30 5625 O 547.878 1.8354 0.0766052 0
M  V30 5626 C 547.94 1.3385 -3.33653 0
M  V30 5627 C 547.604 0.463103 -4.54648 0
M  V30 5628 C 548.601 -0.277964 -5.19156 0
M  V30 5629 C 546.286 0.388941 -5.00792 0
M  V30 5630 C 548.28 -1.08145 -6.28159 0
M  V30 5631 C 545.967 -0.418217 -6.09667 0
M  V30 5632 C 546.965 -1.15208 -6.73213 0
M  V30 5633 O 546.653 -1.94594 -7.79993 0
M  V30 5634 H 546.385 0.170197 -0.654224 0
M  V30 5635 H 548.939 -0.13647 -2.04946 0
M  V30 5636 H 547.169 2.13055 -3.22714 0
M  V30 5637 H 548.858 1.90851 -3.58233 0
M  V30 5638 H 549.624 -0.230241 -4.84453 0
M  V30 5639 H 545.503 0.949769 -4.5111 0
M  V30 5640 H 549.047 -1.65476 -6.7769 0
M  V30 5641 H 544.944 -0.467515 -6.43805 0
M  V30 5642 H 545.712 -1.8699 -7.96854 0
M  V30 5643 N 548.375 1.56261 0.205012 0
M  V30 5644 C 549.338 1.92908 1.23771 0
M  V30 5645 C 550.338 0.809208 1.38955 0
M  V30 5646 O 551.528 1.07676 1.36936 0
M  V30 5647 C 548.66 2.19442 2.60879 0
M  V30 5648 H 549.853 2.85287 0.924728 0
M  V30 5649 H 547.406 1.49798 0.446125 0
M  V30 5650 H 548.141 1.29668 2.97248 0
M  V30 5651 H 547.926 3.0104 2.51232 0
M  V30 5652 H 549.416 2.48833 3.35368 0
M  V30 5653 N 549.853 -0.472356 1.50355 0
M  V30 5654 C 551.102 -1.2213 1.60522 0
M  V30 5655 C 551.415 -1.9312 0.310466 0
M  V30 5656 O 552.621 -2.69936 0.291029 0
M  V30 5657 C 551.077 -2.21909 2.83345 0
M  V30 5658 C 550.685 -1.56727 4.19691 0
M  V30 5659 C 552.429 -2.97453 3.02856 0
M  V30 5660 C 550.336 -2.54785 5.33703 0
M  V30 5661 H 549.266 -0.459543 0.597776 0
M  V30 5662 H 551.917 -0.491922 1.76783 0
M  V30 5663 H 550.299 -2.98133 2.60639 0
M  V30 5664 H 551.473 -0.863007 4.52646 0
M  V30 5665 H 549.788 -0.934685 4.05774 0
M  V30 5666 H 552.385 -3.70838 3.85205 0
M  V30 5667 H 552.728 -3.56764 2.14534 0
M  V30 5668 H 553.261 -2.28342 3.25737 0
M  V30 5669 H 550 -2.00214 6.24175 0
M  V30 5670 H 549.52 -3.23367 5.05167 0
M  V30 5671 H 551.199 -3.16639 5.64224 0
M  V30 5672 N 551.331 -1.39911 -0.725443 0
M  V30 5673 C 552.579 -1.37382 -1.48224 0
M  V30 5674 C 552.9 0.0264107 -1.94982 0
M  V30 5675 O 552.17 0.979408 -1.6966 0
M  V30 5676 H 550.75 -0.505596 -0.549892 0
M  V30 5677 H 553.412 -1.7487 -0.860608 0
M  V30 5678 H 552.508 -2.04254 -2.3598 0
M  V30 5679 N 552.809 0.956637 -1.25245 0
M  V30 5680 C 553.719 2.0868 -1.0719 0
M  V30 5681 C 554.735 1.73997 -0.00959074 0
M  V30 5682 O 555.911 2.00301 -0.210104 0
M  V30 5683 C 552.976 3.39754 -0.690526 0
M  V30 5684 C 552.037 3.88316 -1.83055 0
M  V30 5685 C 551.27 5.13134 -1.46728 0
M  V30 5686 O 551.493 5.6925 -0.362029 0
M  V30 5687 O 550.427 5.56356 -2.29677 0
M  V30 5688 H 554.253 2.26813 -2.01965 0
M  V30 5689 H 551.838 1.07098 -1.04165 0
M  V30 5690 H 553.72 4.18543 -0.489871 0
M  V30 5691 H 552.395 3.22896 0.227981 0
M  V30 5692 H 551.302 3.1054 -2.08604 0
M  V30 5693 H 552.635 4.09669 -2.72822 0
M  V30 5694 N 554.287 1.06798 1.15896 0
M  V30 5695 C 555.533 0.788934 1.86825 0
M  V30 5696 C 555.866 -0.683084 1.8179 0
M  V30 5697 O 555.141 -1.50086 1.23711 0
M  V30 5698 C 555.424 1.29065 3.36176 0
M  V30 5699 C 555.277 2.8268 3.49874 0
M  V30 5700 C 556.596 0.902655 4.30744 0
M  V30 5701 H 553.715 0.288066 0.678371 0
M  V30 5702 H 556.357 1.32479 1.36195 0
M  V30 5703 H 554.507 0.834806 3.79425 0
M  V30 5704 H 556.179 3.36511 3.15528 0
M  V30 5705 H 554.422 3.21157 2.91617 0
M  V30 5706 H 555.093 3.12852 4.54783 0
M  V30 5707 H 557.569 1.29535 3.95424 0
M  V30 5708 H 556.445 1.28111 5.3374 0
M  V30 5709 H 556.706 -0.191951 4.41683 0
M  V30 5710 N 555.766 -1.3263 0.851289 0
M  V30 5711 C 556.991 -2.02097 0.466006 0
M  V30 5712 C 557.416 -1.63574 -0.928709 0
M  V30 5713 O 556.774 -0.834665 -1.60944 0
M  V30 5714 C 556.822 -3.55425 0.608737 0
M  V30 5715 O 555.926 -4.10827 -0.359878 0
M  V30 5716 H 555.267 -0.636911 0.187724 0
M  V30 5717 H 557.797 -1.69253 1.14955 0
M  V30 5718 H 557.807 -4.04986 0.495006 0
M  V30 5719 H 556.482 -3.82806 1.62581 0
M  V30 5720 H 555.059 -3.72349 -0.202666 0
M  V30 5721 N 557.244 -0.608902 -1.45362 0
M  V30 5722 C 558.474 -0.110852 -2.06302 0
M  V30 5723 C 558.882 1.21062 -1.45398 0
M  V30 5724 O 558.225 1.74861 -0.562976 0
M  V30 5725 C 558.287 0.101793 -3.59356 0
M  V30 5726 C 557.951 -1.13808 -4.42602 0
M  V30 5727 C 558.948 -2.05653 -4.77496 0
M  V30 5728 C 556.633 -1.36727 -4.83333 0
M  V30 5729 C 558.627 -3.18745 -5.51978 0
M  V30 5730 C 556.314 -2.5012 -5.57569 0
M  V30 5731 C 557.312 -3.40957 -5.91809 0
M  V30 5732 O 557 -4.52376 -6.64538 0
M  V30 5733 H 556.732 -0.0666001 -0.672711 0
M  V30 5734 H 559.286 -0.836942 -1.87575 0
M  V30 5735 H 557.516 0.88279 -3.76489 0
M  V30 5736 H 559.205 0.551607 -4.02134 0
M  V30 5737 H 559.971 -1.89172 -4.46586 0
M  V30 5738 H 555.85 -0.669216 -4.56117 0
M  V30 5739 H 559.394 -3.8967 -5.78622 0
M  V30 5740 H 555.291 -2.66553 -5.87894 0
M  V30 5741 H 556.059 -4.51075 -6.82989 0
M  V30 5742 N 558.722 1.53707 -0.348139 0
M  V30 5743 C 559.95 2.05406 0.248224 0
M  V30 5744 C 560.365 1.22282 1.43849 0
M  V30 5745 O 559.722 0.259244 1.80649 0
M  V30 5746 C 559.773 3.55446 0.658793 0
M  V30 5747 O 559.494 4.35417 -0.484149 0
M  V30 5748 C 560.995 4.23335 1.31539 0
M  V30 5749 H 558.215 0.669344 0.0471075 0
M  V30 5750 H 560.759 1.98257 -0.501456 0
M  V30 5751 H 558.914 3.62803 1.35841 0
M  V30 5752 H 559.328 5.24268 -0.155949 0
M  V30 5753 H 560.802 5.29692 1.55338 0
M  V30 5754 H 561.279 3.75967 2.27036 0
M  V30 5755 H 561.885 4.20184 0.657683 0
M  V30 5756 N 560.2 0.0768682 1.57412 0
M  V30 5757 C 561.448 -0.589918 1.93299 0
M  V30 5758 C 561.769 -1.69842 0.958049 0
M  V30 5759 O 561.039 -1.95899 0.00703261 0
M  V30 5760 H 559.619 -0.220901 0.713591 0
M  V30 5761 H 562.281 0.135917 1.94425 0
M  V30 5762 H 561.377 -1.01195 2.95239 0
M  V30 5763 N 561.678 -1.56367 -0.196722 0
M  V30 5764 C 562.608 -1.97442 -1.24655 0
M  V30 5765 C 563.589 -0.846147 -1.47561 0
M  V30 5766 O 564.774 -1.11035 -1.59326 0
M  V30 5767 C 561.904 -2.31253 -2.59112 0
M  V30 5768 C 560.858 -3.46804 -2.50821 0
M  V30 5769 C 560.184 -3.66286 -3.89536 0
M  V30 5770 C 561.484 -4.8104 -2.03465 0
M  V30 5771 H 563.178 -2.85388 -0.905216 0
M  V30 5772 H 560.724 -1.37304 -0.434002 0
M  V30 5773 H 562.677 -2.58583 -3.32736 0
M  V30 5774 H 561.401 -1.40188 -2.94983 0
M  V30 5775 H 560.06 -3.19563 -1.79653 0
M  V30 5776 H 559.708 -2.72555 -4.22756 0
M  V30 5777 H 559.408 -4.4402 -3.84864 0
M  V30 5778 H 560.932 -3.9599 -4.64784 0
M  V30 5779 H 562.346 -5.07411 -2.66846 0
M  V30 5780 H 560.743 -5.62232 -2.09798 0
M  V30 5781 H 561.813 -4.74732 -0.98781 0
M  V30 5782 N 563.156 0.464375 -1.50603 0
M  V30 5783 C 564.106 1.55929 -1.66343 0
M  V30 5784 C 565.09 1.52338 -0.517887 0
M  V30 5785 O 566.282 1.59248 -0.772601 0
M  V30 5786 C 563.411 2.94327 -1.7671 0
M  V30 5787 C 562.497 3.02777 -2.96962 0
M  V30 5788 N 562.888 2.81026 -4.20545 0
M  V30 5789 C 561.186 3.33919 -2.95659 0
M  V30 5790 C 561.887 2.94618 -5.01573 0
M  V30 5791 N 560.863 3.25112 -4.35664 0
M  V30 5792 H 564.665 1.37822 -2.59581 0
M  V30 5793 H 562.179 0.671227 -1.47879 0
M  V30 5794 H 564.176 3.73063 -1.86091 0
M  V30 5795 H 562.836 3.13476 -0.846353 0
M  V30 5796 H 563.847 2.56477 -4.49933 0
M  V30 5797 H 560.524 3.59013 -2.13111 0
M  V30 5798 H 561.914 2.81984 -6.09865 0
M  V30 5799 N 564.634 1.40294 0.718013 0
M  V30 5800 C 565.882 1.38167 1.47494 0
M  V30 5801 C 566.203 -0.01607 1.94993 0
M  V30 5802 O 565.473 -0.970396 1.70177 0
M  V30 5803 H 564.053 0.508505 0.547203 0
M  V30 5804 H 566.715 1.75324 0.851322 0
M  V30 5805 H 565.811 2.05503 2.34894 0
M  V30 5806 N 566.112 -0.949982 1.2575 0
M  V30 5807 C 567.075 -2.02894 1.06615 0
M  V30 5808 C 568.075 -1.60791 0.0173905 0
M  V30 5809 O 569.265 -1.72249 0.260003 0
M  V30 5810 C 566.397 -3.35219 0.619751 0
M  V30 5811 H 567.59 -2.21302 2.02399 0
M  V30 5812 H 565.143 -1.12772 1.08223 0
M  V30 5813 H 565.878 -3.22508 -0.340486 0
M  V30 5814 H 565.663 -3.67129 1.37692 0
M  V30 5815 H 567.153 -4.14505 0.507443 0
M  V30 5816 N 567.59 -1.07411 -1.15328 0
M  V30 5817 C 568.538 -0.689316 -2.22151 0
M  V30 5818 C 569.532 0.300156 -1.6672 0
M  V30 5819 O 570.738 0.163804 -1.79253 0
M  V30 5820 H 567.113 -0.204834 -0.723566 0
M  V30 5821 H 569.084 -1.59988 -2.51886 0
M  V30 5822 C 567.833 -0.103848 -3.47545 0
M  V30 5823 H 567.156 -0.856367 -3.90521 0
M  V30 5824 H 568.596 0.127725 -4.23808 0
M  V30 5825 C 567.055 1.15563 -3.1646 0
M  V30 5826 O 567.585 2.242 -3.33312 0
M  V30 5827 N 565.791 1.06203 -2.70498 0
M  V30 5828 H 565.338 0.177933 -2.56985 0
M  V30 5829 H 565.296 1.90553 -2.50074 0
M  V30 5830 N 569.068 1.32177 -0.85831 0
M  V30 5831 C 570.484 1.49873 -0.548656 0
M  V30 5832 C 570.684 1.79278 0.919874 0
M  V30 5833 O 569.74 1.86451 1.70271 0
M  V30 5834 C 571.053 2.64043 -1.4388 0
M  V30 5835 C 572.601 2.77928 -1.43961 0
M  V30 5836 C 573.076 3.95182 -2.31506 0
M  V30 5837 N 574.567 4.0245 -2.29321 0
M  V30 5838 C 575.302 4.9242 -2.93786 0
M  V30 5839 N 574.798 5.87373 -3.67376 0
M  V30 5840 N 576.591 4.85572 -2.83155 0
M  V30 5841 H 568.742 1.11357 -1.80868 0
M  V30 5842 H 571.005 0.549175 -0.772729 0
M  V30 5843 H 570.711 2.49055 -2.48324 0
M  V30 5844 H 570.585 3.59912 -1.12885 0
M  V30 5845 H 572.972 2.92338 -0.402813 0
M  V30 5846 H 573.053 1.82762 -1.78974 0
M  V30 5847 H 572.697 3.81531 -3.35256 0
M  V30 5848 H 572.627 4.89633 -1.93823 0
M  V30 5849 H 575.118 3.34507 -1.75822 0
M  V30 5850 H 575.431 6.52728 -4.13722 0
M  V30 5851 H 573.776 5.87388 -3.71484 0
M  V30 5852 H 576.967 4.10363 -2.25211 0
M  V30 5853 H 577.14 5.55486 -3.33676 0
M  V30 5854 N 570.547 0.616602 1.45037 0
M  V30 5855 C 571.48 -0.145984 2.27733 0
M  V30 5856 C 572.458 -0.865108 1.37676 0
M  V30 5857 O 573.642 -0.872152 1.6711 0
M  V30 5858 C 570.769 -1.2122 3.16265 0
M  V30 5859 C 569.815 -0.595218 4.22326 0
M  V30 5860 S 570.648 0.603744 5.32086 0
M  V30 5861 C 571.804 -0.462842 6.24186 0
M  V30 5862 H 572.037 0.555591 2.92062 0
M  V30 5863 H 569.57 0.404364 1.49011 0
M  V30 5864 H 571.528 -1.82247 3.67827 0
M  V30 5865 H 570.189 -1.88589 2.51183 0
M  V30 5866 H 569.382 -1.39775 4.8423 0
M  V30 5867 H 568.984 -0.0598965 3.73952 0
M  V30 5868 H 571.276 -1.33945 6.64127 0
M  V30 5869 H 572.219 0.120259 7.07998 0
M  V30 5870 H 572.627 -0.782219 5.59054 0
M  V30 5871 N 572.025 -1.5352 0.356285 0
M  V30 5872 C 572.988 -2.24071 -0.482182 0
M  V30 5873 C 573.988 -1.24531 -1.01729 0
M  V30 5874 O 575.178 -1.48876 -0.904513 0
M  V30 5875 C 572.31 -2.97025 -1.67299 0
M  V30 5876 H 573.503 -2.99596 0.135031 0
M  V30 5877 H 571.056 -1.55928 0.107825 0
M  V30 5878 H 571.791 -2.25719 -2.32855 0
M  V30 5879 H 571.576 -3.7005 -1.29636 0
M  V30 5880 H 573.066 -3.50683 -2.26741 0
M  V30 5881 N 573.503 -0.0852151 -1.57369 0
M  V30 5882 C 574.728 0.592872 -1.98746 0
M  V30 5883 C 575.153 1.61538 -0.963689 0
M  V30 5884 O 574.511 1.81168 0.069071 0
M  V30 5885 C 574.559 1.22599 -3.39119 0
M  V30 5886 O 573.663 2.34185 -3.39457 0
M  V30 5887 H 573.004 0.151314 -0.646529 0
M  V30 5888 H 575.534 -0.163703 -2.03944 0
M  V30 5889 H 575.544 1.56965 -3.76598 0
M  V30 5890 H 574.219 0.476831 -4.13158 0
M  V30 5891 H 572.796 2.01512 -3.13763 0
M  V30 5892 N 574.981 1.5647 0.188427 0
M  V30 5893 C 575.929 1.95971 1.25293 0
M  V30 5894 C 576.923 0.846047 1.4676 0
M  V30 5895 O 578.129 1.03109 1.47542 0
M  V30 5896 H 574.504 0.623253 0.420784 0
M  V30 5897 H 576.475 2.84731 0.892792 0
M  V30 5898 C 575.224 2.32116 2.58877 0
M  V30 5899 H 574.547 3.17341 2.43176 0
M  V30 5900 H 575.987 2.63613 3.3209 0
M  V30 5901 C 574.446 1.15823 3.16365 0
M  V30 5902 O 574.976 0.436785 3.99318 0
M  V30 5903 N 573.182 0.933278 2.75206 0
M  V30 5904 H 572.729 1.52169 2.07852 0
M  V30 5905 H 572.687 0.156976 3.14008 0
M  V30 5906 N 576.459 -0.456382 1.50847 0
M  V30 5907 C 577.684 -1.2349 1.66628 0
M  V30 5908 C 578.109 -1.84715 0.355254 0
M  V30 5909 O 577.467 -1.67961 -0.682559 0
M  V30 5910 C 577.515 -2.30865 2.77009 0
M  V30 5911 O 576.619 -3.35882 2.39285 0
M  V30 5912 H 575.96 -0.36266 0.556214 0
M  V30 5913 H 578.49 -0.541374 1.97308 0
M  V30 5914 H 578.5 -2.75949 3.00526 0
M  V30 5915 H 577.175 -1.85677 3.72152 0
M  V30 5916 H 575.752 -2.96406 2.26269 0
M  V30 5917 N 577.937 -1.40673 -0.710563 0
M  V30 5918 C 578.867 -1.44095 -1.83736 0
M  V30 5919 C 579.848 -0.301286 -1.67411 0
M  V30 5920 O 581.033 -0.510618 -1.87367 0
M  V30 5921 C 578.163 -1.30773 -3.21738 0
M  V30 5922 C 577.117 -2.42395 -3.52745 0
M  V30 5923 C 576.443 -2.14147 -4.89944 0
M  V30 5924 C 577.743 -3.84738 -3.53234 0
M  V30 5925 H 579.437 -2.38396 -1.81129 0
M  V30 5926 H 576.983 -1.14746 -0.870017 0
M  V30 5927 H 578.936 -1.31783 -4.00264 0
M  V30 5928 H 577.66 -0.329507 -3.24934 0
M  V30 5929 H 576.319 -2.40643 -2.76562 0
M  V30 5930 H 575.967 -1.14703 -4.89747 0
M  V30 5931 H 575.667 -2.88934 -5.11655 0
M  V30 5932 H 577.191 -2.16848 -5.70797 0
M  V30 5933 H 578.605 -3.88286 -4.2179 0
M  V30 5934 H 577.002 -4.59085 -3.86473 0
M  V30 5935 H 578.072 -4.13962 -2.52514 0
M  V30 5936 N 579.415 0.9433 -1.26252 0
M  V30 5937 C 580.345 2.05902 -1.10122 0
M  V30 5938 C 581.326 1.70099 -0.00700552 0
M  V30 5939 O 582.511 1.93377 -0.178641 0
M  V30 5940 C 579.641 3.39516 -0.731175 0
M  V30 5941 C 578.595 3.89372 -1.77688 0
M  V30 5942 C 577.921 5.19613 -1.26122 0
M  V30 5943 C 579.221 4.14489 -3.17799 0
M  V30 5944 H 580.915 2.19655 -2.03451 0
M  V30 5945 H 578.461 1.05548 -0.979576 0
M  V30 5946 H 580.414 4.17031 -0.605215 0
M  V30 5947 H 579.138 3.25733 0.23782 0
M  V30 5948 H 577.797 3.14036 -1.89148 0
M  V30 5949 H 577.445 5.02208 -0.282128 0
M  V30 5950 H 577.145 5.53939 -1.96023 0
M  V30 5951 H 578.669 5.99713 -1.14789 0
M  V30 5952 H 580.083 4.82625 -3.09428 0
M  V30 5953 H 578.48 4.60094 -3.85271 0
M  V30 5954 H 579.55 3.20347 -3.64014 0
M  V30 5955 N 580.893 1.08022 1.14757 0
M  V30 5956 C 581.803 0.718292 2.23333 0
M  V30 5957 C 582.819 -0.273477 1.71837 0
M  V30 5958 O 583.995 -0.118406 2.01052 0
M  V30 5959 C 581.06 0.128855 3.4646 0
M  V30 5960 C 580.121 1.17473 4.12915 0
M  V30 5961 C 579.354 0.61333 5.30164 0
M  V30 5962 O 579.577 -0.568458 5.6756 0
M  V30 5963 O 578.511 1.3615 5.86299 0
M  V30 5964 H 582.337 1.62394 2.56636 0
M  V30 5965 H 579.922 0.853628 1.22611 0
M  V30 5966 H 581.804 -0.197249 4.20938 0
M  V30 5967 H 580.479 -0.750014 3.14891 0
M  V30 5968 H 579.386 1.5533 3.40328 0
M  V30 5969 H 580.719 2.02574 4.48581 0
M  V30 5970 N 582.371 -1.3172 0.865308 0
M  V30 5971 C 583.611 -1.98675 0.480365 0
M  V30 5972 C 583.975 -1.66929 -0.948621 0
M  V30 5973 O 585.176 -2.27059 -1.43867 0
M  V30 5974 C 583.447 -3.49972 0.724858 0
M  V30 5975 S 585.006 -4.36598 0.439078 0
M  V30 5976 H 581.824 -0.687967 0.179506 0
M  V30 5977 H 584.426 -1.60215 1.12033 0
M  V30 5978 H 583.13 -3.70567 1.76375 0
M  V30 5979 H 582.661 -3.93335 0.0717173 0
M  V30 5980 H 584.676 -4.90792 -0.730564 0
M  V30 5981 N 583.85 -0.624285 -1.44708 0
M  V30 5982 C 584.779 0.0717025 -2.3339 0
M  V30 5983 C 585.76 0.841814 -1.47809 0
M  V30 5984 O 586.946 0.809056 -1.76544 0
M  V30 5985 C 584.076 1.05852 -3.30776 0
M  V30 5986 C 583.029 0.400503 -4.26122 0
M  V30 5987 C 582.356 1.49674 -5.13324 0
M  V30 5988 C 583.656 -0.688924 -5.17737 0
M  V30 5989 H 585.35 -0.668819 -2.91834 0
M  V30 5990 H 582.896 -0.32308 -1.40329 0
M  V30 5991 H 584.849 1.5541 -3.91696 0
M  V30 5992 H 583.572 1.82984 -2.70526 0
M  V30 5993 H 582.231 -0.0743687 -3.66525 0
M  V30 5994 H 581.88 2.25877 -4.49431 0
M  V30 5995 H 581.58 1.06188 -5.77926 0
M  V30 5996 H 583.104 1.99427 -5.77115 0
M  V30 5997 H 584.518 -0.276724 -5.72632 0
M  V30 5998 H 582.915 -1.04652 -5.90904 0
M  V30 5999 H 583.985 -1.55884 -4.5916 0
M  V30 6000 N 585.328 1.53329 -0.364422 0
M  V30 6001 C 586.574 2.01537 0.225969 0
M  V30 6002 C 586.907 1.25128 1.48515 0
M  V30 6003 O 586.182 0.344653 1.91422 0
M  V30 6004 C 586.465 3.56339 0.519092 0
M  V30 6005 C 586.318 4.43441 -0.753639 0
M  V30 6006 C 587.637 4.19833 1.32015 0
M  V30 6007 H 584.756 0.732573 0.0806548 0
M  V30 6008 H 587.398 1.83597 -0.489084 0
M  V30 6009 H 585.548 3.71756 1.12825 0
M  V30 6010 H 587.22 4.39823 -1.39116 0
M  V30 6011 H 585.463 4.11457 -1.37424 0
M  V30 6012 H 586.134 5.49699 -0.503517 0
M  V30 6013 H 588.61 4.08242 0.804859 0
M  V30 6014 H 587.486 5.28177 1.49399 0
M  V30 6015 H 587.747 3.75821 2.32832 0
M  V30 6016 N 586.806 0.0935595 1.57322 0
M  V30 6017 C 588.036 -0.578095 1.98347 0
M  V30 6018 C 588.444 -1.62357 0.971441 0
M  V30 6019 O 587.787 -1.83639 -0.0473959 0
M  V30 6020 C 587.849 -1.28525 3.3574 0
M  V30 6021 C 587.513 -0.390714 4.55327 0
M  V30 6022 C 588.51 0.360522 5.18648 0
M  V30 6023 C 586.195 -0.309221 5.01347 0
M  V30 6024 C 588.189 1.18125 6.26359 0
M  V30 6025 C 585.876 0.515157 6.08925 0
M  V30 6026 C 586.874 1.25904 6.71295 0
M  V30 6027 O 586.562 2.06978 7.76798 0
M  V30 6028 H 586.294 -0.159767 0.656849 0
M  V30 6029 H 588.848 0.169058 2.04703 0
M  V30 6030 H 587.078 -2.07894 3.26063 0
M  V30 6031 H 588.767 -1.85128 3.61223 0
M  V30 6032 H 589.533 0.307285 4.84026 0
M  V30 6033 H 585.412 -0.877881 4.52564 0
M  V30 6034 H 588.956 1.76236 6.74971 0
M  V30 6035 H 584.853 0.56988 6.42979 0
M  V30 6036 H 585.621 1.99644 7.93779 0
M  V30 6037 N 588.284 -1.56567 -0.180126 0
M  V30 6038 C 589.532 -1.81133 -0.896392 0
M  V30 6039 C 589.853 -0.669114 -1.83161 0
M  V30 6040 O 589.123 0.311616 -1.93406 0
M  V30 6041 H 587.703 -0.668172 -0.333999 0
M  V30 6042 H 590.365 -1.94048 -0.182051 0
M  V30 6043 H 589.461 -2.74854 -1.47857 0
M  V30 6044 N 589.762 0.448376 -1.51087 0
M  V30 6045 C 591.008 1.19748 -1.64414 0
M  V30 6046 C 591.363 1.89177 -0.350715 0
M  V30 6047 O 590.656 1.80135 0.652834 0
M  V30 6048 C 590.85 2.24866 -2.77795 0
M  V30 6049 C 590.679 1.65753 -4.18038 0
M  V30 6050 C 589.449 1.44728 -4.8413 0
M  V30 6051 C 591.647 1.13985 -5.0151 0
M  V30 6052 N 589.629 0.810962 -6.0852 0
M  V30 6053 C 591 0.628141 -6.1681 0
M  V30 6054 C 593.055 1.03055 -4.87118 0
M  V30 6055 C 591.758 0.0178906 -7.19298 0
M  V30 6056 C 593.784 0.434212 -5.89804 0
M  V30 6057 C 593.146 -0.0670069 -7.04368 0
M  V30 6058 H 589.245 0.426254 -0.655615 0
M  V30 6059 H 591.829 0.495806 -1.88281 0
M  V30 6060 H 590 2.92434 -2.55611 0
M  V30 6061 H 591.732 2.91857 -2.8036 0
M  V30 6062 H 588.487 1.70593 -4.41809 0
M  V30 6063 H 588.911 0.510563 -6.75072 0
M  V30 6064 H 593.553 1.40395 -3.9881 0
M  V30 6065 H 591.271 -0.367662 -8.07263 0
M  V30 6066 H 594.857 0.3517 -5.80736 0
M  V30 6067 H 593.737 -0.521209 -7.82466 0
M  V30 6068 N 591.24 1.41047 0.703093 0
M  V30 6069 C 592.465 1.43537 1.49706 0
M  V30 6070 C 592.89 0.0401853 1.88057 0
M  V30 6071 O 592.248 -0.954785 1.54122 0
M  V30 6072 C 592.296 2.3433 2.74084 0
M  V30 6073 O 591.4 1.79515 3.71279 0
M  V30 6074 H 590.741 0.487454 0.450871 0
M  V30 6075 H 593.271 1.85422 0.86486 0
M  V30 6076 H 593.281 2.49947 3.22476 0
M  V30 6077 H 591.956 3.35708 2.45506 0
M  V30 6078 H 590.533 1.7331 3.30179 0
M  V30 6079 N 592.718 -0.936591 1.26751 0
M  V30 6080 C 593.681 -2.01752 1.08761 0
M  V30 6081 C 594.681 -1.60763 0.0344435 0
M  V30 6082 O 595.871 -1.71963 0.278258 0
M  V30 6083 C 593.003 -3.34543 0.655271 0
M  V30 6084 H 594.196 -2.19143 2.04735 0
M  V30 6085 H 591.749 -1.11618 1.09413 0
M  V30 6086 H 592.484 -3.22851 -0.30626 0
M  V30 6087 H 592.269 -3.65647 1.41578 0
M  V30 6088 H 593.759 -4.13944 0.551378 0
M  V30 6089 N 594.196 -1.08629 -1.14182 0
M  V30 6090 C 595.159 -0.722027 -2.1753 0
M  V30 6091 C 596.159 0.244305 -1.58933 0
M  V30 6092 O 597.349 0.0235545 -1.74184 0
M  V30 6093 C 594.481 -0.0663966 -3.40835 0
M  V30 6094 H 595.674 -1.63719 -2.51269 0
M  V30 6095 H 593.227 -0.884442 -1.28869 0
M  V30 6096 H 593.962 0.860389 -3.12678 0
M  V30 6097 H 593.747 -0.761598 -3.84632 0
M  V30 6098 H 595.237 0.173346 -4.1724 0
M  V30 6099 N 595.674 1.31259 -0.872281 0
M  V30 6100 C 596.584 2.32221 -0.333255 0
M  V30 6101 C 597.6 1.6481 0.558013 0
M  V30 6102 O 598.776 1.96212 0.454175 0
M  V30 6103 C 595.841 3.43708 0.454479 0
M  V30 6104 C 594.902 4.26774 -0.465024 0
M  V30 6105 C 594.135 5.32937 0.28521 0
M  V30 6106 O 594.358 5.49968 1.513 0
M  V30 6107 O 593.292 6.00834 -0.358126 0
M  V30 6108 H 597.118 2.80252 -1.17016 0
M  V30 6109 H 594.703 1.352 -0.635724 0
M  V30 6110 H 596.585 4.11656 0.900963 0
M  V30 6111 H 595.26 2.97836 1.26789 0
M  V30 6112 H 594.167 3.61571 -0.960055 0
M  V30 6113 H 595.5 4.76217 -1.2441 0
M  V30 6114 N 597.152 0.631951 1.44375 0
M  V30 6115 C 598.429 0.067646 1.95483 0
M  V30 6116 C 598.809 -1.40683 1.57389 0
M  V30 6117 O 598.157 -2.12167 0.848375 0
M  V30 6118 C 598.367 0.291392 3.47781 0
M  V30 6119 C 599.715 0.185028 4.24197 0
M  V30 6120 O 600.739 0.222803 3.55503 0
M  V30 6121 O 599.598 0.0906642 5.46425 0
M  V30 6122 H 596.692 -0.0218379 0.826712 0
M  V30 6123 H 599.238 0.703711 1.54421 0
M  V30 6124 H 598.01 1.31449 3.68561 0
M  V30 6125 H 597.633 -0.378772 3.95792 0
M  V30 6126 N 598.631 -1.53133 0.372548 0
M  V30 6127 C 599.88 -2.00539 -0.216115 0
M  V30 6128 C 600.193 -1.26374 -1.49295 0
M  V30 6129 O 601.399 -1.64404 -2.16064 0
M  V30 6130 C 599.855 -3.57253 -0.435678 0
M  V30 6131 C 599.463 -4.40302 0.82693 0
M  V30 6132 C 601.207 -4.12995 -0.981618 0
M  V30 6133 C 599.114 -5.88583 0.576567 0
M  V30 6134 H 598.044 -0.749246 -0.084536 0
M  V30 6135 H 600.695 -1.76771 0.492364 0
M  V30 6136 H 599.077 -3.77202 -1.20559 0
M  V30 6137 H 600.251 -4.32124 1.60017 0
M  V30 6138 H 598.566 -3.95699 1.29659 0
M  V30 6139 H 601.163 -5.21418 -1.18436 0
M  V30 6140 H 601.506 -3.68027 -1.94581 0
M  V30 6141 H 602.039 -3.96871 -0.271696 0
M  V30 6142 H 598.778 -6.37841 1.51128 0
M  V30 6143 H 598.298 -5.99592 -0.158047 0
M  V30 6144 H 599.977 -6.46676 0.204722 0
M  V30 6145 N 600.109 -0.101901 -1.5727 0
M  V30 6146 C 601.337 0.568392 -1.98939 0
M  V30 6147 C 601.752 1.61301 -0.981194 0
M  V30 6148 O 601.109 1.82478 0.0282869 0
M  V30 6149 C 601.16 1.20997 -3.40649 0
M  V30 6150 O 600.881 0.207129 -4.3761 0
M  V30 6151 C 602.382 1.96523 -3.97358 0
M  V30 6152 H 599.602 0.15186 -0.65359 0
M  V30 6153 H 602.146 -0.183198 -2.03678 0
M  V30 6154 H 600.301 1.91245 -3.36904 0
M  V30 6155 H 600.715 0.671071 -5.20189 0
M  V30 6156 H 602.189 2.36764 -4.98645 0
M  V30 6157 H 602.666 2.83376 -3.35552 0
M  V30 6158 H 603.272 1.31076 -4.04598 0
M  V30 6159 N 601.587 1.56661 0.17182 0
M  V30 6160 C 603.003 1.50768 0.52357 0
M  V30 6161 C 603.203 0.806072 1.84675 0
M  V30 6162 O 602.259 0.366233 2.4983 0
M  V30 6163 C 603.572 2.955 0.556793 0
M  V30 6164 C 605.12 3.06303 0.644029 0
M  V30 6165 C 605.595 4.52492 0.708148 0
M  V30 6166 N 607.086 4.56737 0.771051 0
M  V30 6167 C 607.821 5.67196 0.841229 0
M  V30 6168 N 607.317 6.87287 0.872272 0
M  V30 6169 N 609.11 5.55165 0.88021 0
M  V30 6170 H 601.261 2.00679 -0.695817 0
M  V30 6171 H 603.524 0.914219 -0.250814 0
M  V30 6172 H 603.23 3.49986 -0.346774 0
M  V30 6173 H 603.104 3.50119 1.40346 0
M  V30 6174 H 605.491 2.51851 1.53802 0
M  V30 6175 H 605.572 2.5477 -0.229297 0
M  V30 6176 H 605.216 5.07575 -0.181585 0
M  V30 6177 H 605.146 5.01781 1.59761 0
M  V30 6178 H 607.637 3.70274 0.755364 0
M  V30 6179 H 607.95 7.6722 0.92698 0
M  V30 6180 H 606.295 6.89898 0.840557 0
M  V30 6181 H 609.486 4.60263 0.852956 0
M  V30 6182 H 609.659 6.41271 0.931439 0
M  V30 6183 N 603.065 -0.440357 1.51323 0
M  V30 6184 C 604.481 -0.7766 1.39431 0
M  V30 6185 C 604.681 -1.95838 0.474296 0
M  V30 6186 O 603.737 -2.52398 -0.0716692 0
M  V30 6187 C 605.05 -1.05981 2.81405 0
M  V30 6188 C 606.598 -1.16442 2.90534 0
M  V30 6189 C 607.073 -1.48058 4.33408 0
M  V30 6190 N 608.564 -1.54988 4.36501 0
M  V30 6191 C 609.299 -1.81017 5.44078 0
M  V30 6192 N 608.795 -2.04858 6.61819 0
M  V30 6193 N 610.588 -1.82774 5.31554 0
M  V30 6194 H 602.739 0.338006 2.09693 0
M  V30 6195 H 605.002 0.0888072 0.943831 0
M  V30 6196 H 604.708 -0.264173 3.50706 0
M  V30 6197 H 604.582 -1.98822 3.20546 0
M  V30 6198 H 606.969 -1.95068 2.21432 0
M  V30 6199 H 607.05 -0.215088 2.54894 0
M  V30 6200 H 606.694 -0.699605 5.03059 0
M  V30 6201 H 606.624 -2.44192 4.66559 0
M  V30 6202 H 609.115 -1.38479 3.51613 0
M  V30 6203 H 609.428 -2.2408 7.396 0
M  V30 6204 H 607.773 -2.02187 6.6494 0
M  V30 6205 H 610.964 -1.63665 4.38556 0
M  V30 6206 H 611.137 -2.02722 6.15474 0
M  V30 6207 N 604.543 -1.41418 -0.695603 0
M  V30 6208 C 605.476 -1.3768 -1.81988 0
M  V30 6209 C 606.454 -0.244061 -1.60758 0
M  V30 6210 O 607.638 -0.430965 -1.83507 0
M  V30 6211 C 604.765 -1.1476 -3.18666 0
M  V30 6212 C 603.811 -2.30752 -3.58686 0
M  V30 6213 S 604.644 -3.9323 -3.63498 0
M  V30 6214 C 605.8 -3.72613 -5.02902 0
M  V30 6215 H 606.033 -2.32822 -1.84882 0
M  V30 6216 H 603.566 -1.27942 -0.86431 0
M  V30 6217 H 605.524 -1.02223 -3.97569 0
M  V30 6218 H 604.185 -0.212385 -3.13381 0
M  V30 6219 H 603.378 -2.10409 -4.57978 0
M  V30 6220 H 602.98 -2.39696 -2.87092 0
M  V30 6221 H 605.272 -3.32317 -5.904 0
M  V30 6222 H 606.215 -4.71507 -5.28286 0
M  V30 6223 H 606.623 -3.0589 -4.74438 0
M  V30 6224 N 606.021 0.929856 -1.27246 0
M  V30 6225 C 607.432 1.49223 -1.12203 0
M  V30 6226 C 607.783 1.93989 0.293731 0
M  V30 6227 O 606.908 1.80978 1.18642 0
M  V30 6228 C 607.503 2.71198 -2.0307 0
M  V30 6229 C 606.062 3.23666 -1.92139 0
M  V30 6230 C 605.209 1.96409 -1.95752 0
M  V30 6231 H 608.16 0.744181 -1.4017 0
M  V30 6232 H 608.181 3.45905 -1.58524 0
M  V30 6233 H 607.693 2.38585 -3.06102 0
M  V30 6234 H 605.794 3.61042 -0.920834 0
M  V30 6235 H 605.907 3.90006 -2.78267 0
M  V30 6236 H 604.271 2.12806 -1.39949 0
M  V30 6237 H 605.054 1.66113 -3.00436 0
M  V30 6238 N 607.499 1.09233 1.13605 0
M  V30 6239 C 608.729 0.847677 1.88409 0
M  V30 6240 C 609.137 -0.604524 1.79282 0
M  V30 6241 O 608.48 -1.42773 1.15592 0
M  V30 6242 C 608.542 1.20153 3.38827 0
M  V30 6243 C 608.206 2.65824 3.71735 0
M  V30 6244 C 609.203 3.64072 3.71143 0
M  V30 6245 C 606.888 3.01894 4.01454 0
M  V30 6246 C 608.882 4.96419 3.99808 0
M  V30 6247 C 606.569 4.34433 4.29781 0
M  V30 6248 C 607.567 5.31505 4.28942 0
M  V30 6249 O 607.255 6.61659 4.56576 0
M  V30 6250 H 606.987 0.304813 0.603378 0
M  V30 6251 H 609.541 1.4573 1.44748 0
M  V30 6252 H 607.771 0.534946 3.82982 0
M  V30 6253 H 609.46 0.936349 3.94952 0
M  V30 6254 H 610.226 3.37549 3.4826 0
M  V30 6255 H 606.105 2.26971 4.01255 0
M  V30 6256 H 609.649 5.7218 3.99069 0
M  V30 6257 H 605.546 4.607 4.52135 0
M  V30 6258 H 606.314 6.67102 4.74254 0
M  V30 6259 N 608.977 -1.30795 0.87923 0
M  V30 6260 C 609.94 -2.26563 0.346676 0
M  V30 6261 C 610.94 -1.52578 -0.507597 0
M  V30 6262 O 612.13 -1.71318 -0.315575 0
M  V30 6263 C 609.262 -3.37115 -0.506611 0
M  V30 6264 H 610.455 -2.75183 1.19223 0
M  V30 6265 H 608.008 -1.41886 0.655598 0
M  V30 6266 H 608.743 -2.93802 -1.37299 0
M  V30 6267 H 608.528 -3.91959 0.105218 0
M  V30 6268 H 610.018 -4.08412 -0.871192 0
M  V30 6269 N 610.455 -0.639598 -1.44038 0
M  V30 6270 C 611.405 0.0823038 -2.27851 0
M  V30 6271 C 612.389 0.807991 -1.39141 0
M  V30 6272 O 613.581 0.692702 -1.62882 0
M  V30 6273 C 610.71 1.05742 -3.26609 0
M  V30 6274 C 609.796 0.330911 -4.22807 0
M  V30 6275 N 610.187 -0.645126 -5.01669 0
M  V30 6276 C 608.485 0.574214 -4.42288 0
M  V30 6277 C 609.186 -1.07513 -5.71678 0
M  V30 6278 N 608.162 -0.412164 -5.42035 0
M  V30 6279 H 611.964 -0.666861 -2.86234 0
M  V30 6280 H 609.478 -0.465777 -1.55577 0
M  V30 6281 H 611.475 1.58927 -3.85419 0
M  V30 6282 H 610.135 1.80679 -2.69787 0
M  V30 6283 H 611.146 -1.02329 -5.0769 0
M  V30 6284 H 607.823 1.30581 -3.96554 0
M  V30 6285 H 609.213 -1.88196 -6.45005 0
M  V30 6286 N 611.933 1.52934 -0.380664 0
M  V30 6287 C 613.21 1.93845 0.261417 0
M  V30 6288 C 613.59 1.31544 1.65104 0
M  V30 6289 O 612.938 0.480234 2.23397 0
M  V30 6290 C 613.148 3.47739 0.296466 0
M  V30 6291 C 614.496 4.21284 0.529578 0
M  V30 6292 O 615.52 3.54199 0.377041 0
M  V30 6293 O 614.379 5.40195 0.827753 0
M  V30 6294 H 611.473 0.811318 0.160285 0
M  V30 6295 H 614.019 1.64042 -0.434544 0
M  V30 6296 H 612.791 3.85395 -0.67724 0
M  V30 6297 H 612.414 3.8382 1.0377 0
M  V30 6298 N 613.412 0.11024 1.57214 0
M  V30 6299 C 614.661 -0.549638 1.94067 0
M  V30 6300 C 614.974 -1.68388 0.995234 0
M  V30 6301 O 616.18 -2.40593 1.25807 0
M  V30 6302 C 614.636 -1.02912 3.44873 0
M  V30 6303 C 614.244 0.0761861 4.47935 0
M  V30 6304 C 615.988 -1.66087 3.9066 0
M  V30 6305 C 613.895 -0.419502 5.8991 0
M  V30 6306 H 612.825 -0.209092 0.724428 0
M  V30 6307 H 615.476 0.188683 1.82527 0
M  V30 6308 H 613.858 -1.82159 3.51616 0
M  V30 6309 H 615.032 0.852185 4.52851 0
M  V30 6310 H 613.347 0.614052 4.11847 0
M  V30 6311 H 615.944 -2.04272 4.94143 0
M  V30 6312 H 616.287 -2.53591 3.30148 0
M  V30 6313 H 616.82 -0.933959 3.86681 0
M  V30 6314 H 613.559 0.419277 6.54158 0
M  V30 6315 H 613.079 -1.16217 5.88433 0
M  V30 6316 H 614.758 -0.883577 6.40938 0
M  V30 6317 N 614.89 -1.56749 -0.16351 0
M  V30 6318 C 616.115 -1.86938 -0.898264 0
M  V30 6319 C 616.54 -0.697456 -1.74692 0
M  V30 6320 O 615.898 0.353327 -1.77824 0
M  V30 6321 C 615.946 -3.15599 -1.74441 0
M  V30 6322 O 615.05 -2.98371 -2.8469 0
M  V30 6323 H 614.391 -0.614659 -0.251178 0
M  V30 6324 H 616.921 -2.03979 -0.159298 0
M  V30 6325 H 616.931 -3.47202 -2.14277 0
M  V30 6326 H 615.606 -4.00505 -1.1211 0
M  V30 6327 H 614.183 -2.7814 -2.4838 0
M  V30 6328 N 616.368 0.432326 -1.51554 0
M  V30 6329 C 617.596 1.20364 -1.68286 0
M  V30 6330 C 618.011 1.84888 -0.38233 0
M  V30 6331 O 617.368 1.70924 0.639627 0
M  V30 6332 C 617.419 2.28398 -2.80208 0
M  V30 6333 O 617.14 1.66512 -4.05223 0
M  V30 6334 C 618.641 3.18584 -3.08251 0
M  V30 6335 H 615.861 0.36259 -0.564596 0
M  V30 6336 H 618.405 0.511647 -1.97996 0
M  V30 6337 H 616.56 2.93305 -2.53083 0
M  V30 6338 H 616.974 2.37951 -4.67418 0
M  V30 6339 H 618.448 3.90511 -3.90135 0
M  V30 6340 H 618.925 3.79628 -2.2086 0
M  V30 6341 H 619.531 2.59372 -3.37055 0
M  V30 6342 N 617.846 1.41785 0.688094 0
M  V30 6343 C 618.776 1.47 1.8142 0
M  V30 6344 C 619.757 0.327881 1.6691 0
M  V30 6345 O 620.942 0.540362 1.86531 0
M  V30 6346 C 618.072 1.35876 3.19617 0
M  V30 6347 C 617.026 2.47976 3.48844 0
M  V30 6348 C 616.352 2.21915 4.86475 0
M  V30 6349 C 617.652 3.90309 3.47068 0
M  V30 6350 H 619.346 2.41247 1.77314 0
M  V30 6351 H 616.892 1.16116 0.851651 0
M  V30 6352 H 618.845 1.38134 3.98117 0
M  V30 6353 H 617.569 0.38116 3.24368 0
M  V30 6354 H 616.228 2.45013 2.72698 0
M  V30 6355 H 615.876 1.2248 4.8786 0
M  V30 6356 H 615.576 2.97037 5.06994 0
M  V30 6357 H 617.1 2.25901 5.67275 0
M  V30 6358 H 618.514 3.94947 4.1556 0
M  V30 6359 H 616.911 4.65175 3.7912 0
M  V30 6360 H 617.981 4.17927 2.45896 0
M  V30 6361 N 619.324 -0.923095 1.27737 0
M  V30 6362 C 620.735 -1.48626 1.12993 0
M  V30 6363 C 621.086 -1.94142 -0.283439 0
M  V30 6364 O 620.211 -1.81605 -1.17681 0
M  V30 6365 C 620.806 -2.70117 2.04505 0
M  V30 6366 C 619.365 -3.22642 1.93853 0
M  V30 6367 C 618.512 -1.95368 1.96791 0
M  V30 6368 H 621.463 -0.736737 1.40563 0
M  V30 6369 H 621.484 -3.4506 1.60356 0
M  V30 6370 H 620.996 -2.36959 3.07363 0
M  V30 6371 H 619.097 -3.60549 0.939968 0
M  V30 6372 H 619.21 -3.88525 2.80331 0
M  V30 6373 H 617.574 -2.12061 1.41076 0
M  V30 6374 H 618.357 -1.64517 3.01312 0
M  V30 6375 N 620.802 -1.09834 -1.13024 0
M  V30 6376 C 622.213 -0.855651 -1.65938 0
M  V30 6377 C 622.564 0.615159 -1.86307 0
M  V30 6378 O 621.689 1.47335 -1.58497 0
M  V30 6379 C 622.284 -1.5467 -3.01434 0
M  V30 6380 C 620.843 -1.35088 -3.51323 0
M  V30 6381 C 619.99 -1.6001 -2.26478 0
M  V30 6382 H 622.941 -1.25691 -0.968889 0
M  V30 6383 H 622.962 -0.982179 -3.67605 0
M  V30 6384 H 622.474 -2.61715 -2.86578 0
M  V30 6385 H 620.575 -0.30179 -3.71376 0
M  V30 6386 H 620.688 -2.0886 -4.31178 0
M  V30 6387 H 619.052 -1.02246 -2.33276 0
M  V30 6388 H 619.835 -2.68293 -2.14182 0
M  V30 6389 N 622.28 1.30327 -0.886154 0
M  V30 6390 C 623.526 1.96764 -0.515312 0
M  V30 6391 C 623.881 1.68675 0.925552 0
M  V30 6392 O 623.174 0.981693 1.6454 0
M  V30 6393 C 623.368 3.49906 -0.728042 0
M  V30 6394 C 623.197 3.92881 -2.18803 0
M  V30 6395 C 621.967 4.18424 -2.83284 0
M  V30 6396 C 624.165 4.05617 -3.16195 0
M  V30 6397 N 622.147 4.47867 -4.19867 0
M  V30 6398 C 623.518 4.38957 -4.37855 0
M  V30 6399 C 625.573 3.88047 -3.11968 0
M  V30 6400 C 624.276 4.56559 -5.55829 0
M  V30 6401 C 626.302 4.06851 -4.29215 0
M  V30 6402 C 625.664 4.40538 -5.49641 0
M  V30 6403 H 621.763 0.74493 -0.237916 0
M  V30 6404 H 624.347 1.57536 -1.14414 0
M  V30 6405 H 622.518 3.88187 -0.128696 0
M  V30 6406 H 624.25 4.03401 -0.323983 0
M  V30 6407 H 621.005 4.1167 -2.34146 0
M  V30 6408 H 621.429 4.66721 -4.90408 0
M  V30 6409 H 626.071 3.61078 -2.19961 0
M  V30 6410 H 623.789 4.8237 -6.4834 0
M  V30 6411 H 627.375 3.94724 -4.27416 0
M  V30 6412 H 626.255 4.54789 -6.38856 0
M  V30 6413 N 623.758 0.647228 1.43697 0
M  V30 6414 C 625.035 0.0883758 1.954 0
M  V30 6415 C 625.415 -1.39006 1.58873 0
M  V30 6416 O 624.763 -2.11255 0.87083 0
M  V30 6417 C 624.973 0.328263 3.47453 0
M  V30 6418 C 626.321 0.230009 4.23977 0
M  V30 6419 O 627.345 0.260496 3.55246 0
M  V30 6420 O 626.204 0.148615 5.46298 0
M  V30 6421 H 623.298 -0.0130683 0.826897 0
M  V30 6422 H 625.844 0.72005 1.53666 0
M  V30 6423 H 624.616 1.3535 3.67146 0
M  V30 6424 H 624.239 -0.336772 3.96171 0
M  V30 6425 N 625.236 -1.5273 0.388769 0
M  V30 6426 C 626.146 -2.30165 -0.453993 0
M  V30 6427 C 627.162 -1.37058 -1.07197 0
M  V30 6428 O 628.338 -1.70127 -1.0779 0
M  V30 6429 C 625.403 -3.09303 -1.56628 0
M  V30 6430 C 624.464 -4.18117 -0.973467 0
M  V30 6431 C 623.697 -4.93472 -2.03275 0
M  V30 6432 O 623.92 -4.68913 -3.24772 0
M  V30 6433 O 622.854 -5.78833 -1.65034 0
M  V30 6434 H 626.68 -3.03185 0.176816 0
M  V30 6435 H 624.265 -1.4862 0.152501 0
M  V30 6436 H 626.147 -3.58648 -2.21246 0
M  V30 6437 H 624.822 -2.39098 -2.18206 0
M  V30 6438 H 623.729 -3.7297 -0.290556 0
M  V30 6439 H 625.062 -4.90556 -0.401908 0
M  V30 6440 N 626.714 -0.118576 -1.57153 0
M  V30 6441 C 627.939 0.550582 -1.99958 0
M  V30 6442 C 628.364 1.59458 -0.997736 0
M  V30 6443 O 627.722 1.81274 0.0306269 0
M  V30 6444 C 627.77 1.15379 -3.41643 0
M  V30 6445 O 626.874 2.26932 -3.44348 0
M  V30 6446 H 626.215 0.137567 -0.649593 0
M  V30 6447 H 628.745 -0.206926 -2.03551 0
M  V30 6448 H 628.755 1.48942 -3.79843 0
M  V30 6449 H 627.43 0.389087 -4.14076 0
M  V30 6450 H 626.007 1.94812 -3.17967 0
M  V30 6451 N 628.193 1.56834 0.155195 0
M  V30 6452 C 629.609 1.51315 0.50755 0
M  V30 6453 C 629.809 0.825614 1.83809 0
M  V30 6454 O 628.865 0.39271 2.49427 0
M  V30 6455 C 630.178 2.96074 0.52542 0
M  V30 6456 C 631.726 3.06968 0.611505 0
M  V30 6457 C 632.201 4.53218 0.660115 0
M  V30 6458 N 633.692 4.5753 0.722564 0
M  V30 6459 C 634.427 5.68056 0.781023 0
M  V30 6460 N 633.923 6.88173 0.799327 0
M  V30 6461 N 635.716 5.56068 0.821278 0
M  V30 6462 H 627.867 1.9993 -0.717063 0
M  V30 6463 H 630.13 0.911507 -0.260496 0
M  V30 6464 H 629.836 3.49599 -0.383875 0
M  V30 6465 H 629.71 3.51587 1.36624 0
M  V30 6466 H 632.097 2.53468 1.51122 0
M  V30 6467 H 632.178 2.54513 -0.256306 0
M  V30 6468 H 631.822 5.07354 -0.23541 0
M  V30 6469 H 631.752 5.03447 1.5443 0
M  V30 6470 H 634.243 3.71054 0.716049 0
M  V30 6471 H 634.556 7.6816 0.845553 0
M  V30 6472 H 632.901 6.90751 0.767337 0
M  V30 6473 H 636.092 4.61142 0.804091 0
M  V30 6474 H 636.265 6.42223 0.863372 0
M  V30 6475 N 629.671 -0.424282 1.51781 0
M  V30 6476 C 630.917 -1.17434 1.6534 0
M  V30 6477 C 631.25 -1.90549 0.374806 0
M  V30 6478 O 630.525 -1.84145 -0.626179 0
M  V30 6479 C 630.808 -2.18093 2.86544 0
M  V30 6480 C 630.661 -1.48975 4.24413 0
M  V30 6481 C 631.98 -3.18934 3.03264 0
M  V30 6482 H 629.099 -0.425566 0.601716 0
M  V30 6483 H 631.741 -0.461921 1.84299 0
M  V30 6484 H 629.891 -2.78849 2.7051 0
M  V30 6485 H 631.563 -0.914551 4.52143 0
M  V30 6486 H 629.806 -0.791893 4.26511 0
M  V30 6487 H 630.477 -2.22347 5.05238 0
M  V30 6488 H 632.953 -2.68243 3.18096 0
M  V30 6489 H 631.829 -3.86645 3.89611 0
M  V30 6490 H 632.09 -3.85793 2.15908 0
M  V30 6491 N 631.149 -1.42148 -0.680565 0
M  V30 6492 C 632.059 -1.47565 -1.82378 0
M  V30 6493 C 633.075 -0.36489 -1.70131 0
M  V30 6494 O 634.251 -0.614916 -1.91783 0
M  V30 6495 C 631.316 -1.37013 -3.18478 0
M  V30 6496 C 630.377 -2.58532 -3.42724 0
M  V30 6497 C 629.61 -2.48473 -4.72331 0
M  V30 6498 O 629.833 -1.51745 -5.49845 0
M  V30 6499 O 628.767 -3.38503 -4.97694 0
M  V30 6500 H 632.593 -2.44045 -1.80764 0
M  V30 6501 H 630.178 -1.23849 -0.835569 0
M  V30 6502 H 632.06 -1.33468 -3.99705 0
M  V30 6503 H 630.735 -0.436552 -3.20743 0
M  V30 6504 H 629.642 -2.67652 -2.61368 0
M  V30 6505 H 630.975 -3.50769 -3.45286 0
M  V30 6506 N 632.627 0.916307 -1.28225 0
M  V30 6507 C 633.575 2.03977 -1.11786 0
M  V30 6508 C 634.569 1.69358 -0.0378265 0
M  V30 6509 O 635.775 1.78925 -0.196405 0
M  V30 6510 H 632.15 0.66829 -0.344809 0
M  V30 6511 H 634.121 2.14985 -2.06939 0
M  V30 6512 C 632.87 3.38518 -0.7938 0
M  V30 6513 H 632.193 3.65649 -1.61682 0
M  V30 6514 H 633.633 4.17864 -0.718719 0
M  V30 6515 C 632.092 3.33134 0.502353 0
M  V30 6516 O 632.622 3.71281 1.53341 0
M  V30 6517 N 630.828 2.86229 0.502147 0
M  V30 6518 H 630.375 2.55382 -0.337338 0
M  V30 6519 H 630.333 2.83009 1.36942 0
M  V30 6520 N 634.105 1.10431 1.1244 0
M  V30 6521 C 635.516 0.864439 1.65482 0
M  V30 6522 C 635.867 -0.60527 1.8663 0
M  V30 6523 O 634.992 -1.46492 1.59276 0
M  V30 6524 C 635.587 1.56267 3.0061 0
M  V30 6525 C 634.146 1.3695 3.50602 0
M  V30 6526 C 633.293 1.61209 2.25626 0
M  V30 6527 H 636.244 1.26203 0.962209 0
M  V30 6528 H 636.265 1.00166 3.67079 0
M  V30 6529 H 635.777 2.63231 2.85186 0
M  V30 6530 H 633.878 0.321481 3.71211 0
M  V30 6531 H 633.991 2.11143 4.30064 0
M  V30 6532 H 632.355 1.03482 2.32731 0
M  V30 6533 H 633.138 2.69425 2.12756 0
M  V30 6534 N 635.583 -1.29855 0.893053 0
M  V30 6535 C 636.86 -1.90694 0.435336 0
M  V30 6536 C 637.24 -1.8111 -1.08454 0
M  V30 6537 O 636.588 -1.23352 -1.92345 0
M  V30 6538 C 636.798 -3.36033 0.942472 0
M  V30 6539 C 638.146 -4.13083 0.982226 0
M  V30 6540 O 639.17 -3.4491 0.889686 0
M  V30 6541 O 638.029 -5.34896 1.12022 0
M  V30 6542 H 635.123 -0.815978 0.134567 0
M  V30 6543 H 637.669 -1.38367 0.982484 0
M  V30 6544 H 636.441 -3.37132 1.9864 0
M  V30 6545 H 636.064 -3.95828 0.374952 0
M  V30 6546 N 637.061 -0.65484 -1.43351 0
M  V30 6547 C 637.971 0.0363603 -2.34572 0
M  V30 6548 C 638.987 0.810432 -1.53974 0
M  V30 6549 O 640.163 0.757308 -1.86619 0
M  V30 6550 C 637.228 0.989733 -3.32273 0
M  V30 6551 C 636.289 0.212414 -4.28774 0
M  V30 6552 C 635.522 1.12038 -5.21808 0
M  V30 6553 O 635.745 2.35967 -5.19303 0
M  V30 6554 O 634.679 0.59191 -5.98982 0
M  V30 6555 H 638.505 -0.714527 -2.95175 0
M  V30 6556 H 636.09 -0.415029 -1.4352 0
M  V30 6557 H 637.972 1.53759 -3.92347 0
M  V30 6558 H 636.647 1.72082 -2.74171 0
M  V30 6559 H 635.554 -0.379062 -3.72175 0
M  V30 6560 H 636.887 -0.479138 -4.89862 0
M  V30 6561 N 638.539 1.52521 -0.396863 0
M  V30 6562 C 639.955 1.5953 -0.0471659 0
M  V30 6563 C 640.155 1.41044 1.43906 0
M  V30 6564 O 639.211 1.23122 2.20448 0
M  V30 6565 C 640.524 2.95972 -0.531113 0
M  V30 6566 C 642.072 3.09172 -0.488024 0
M  V30 6567 C 642.547 4.48075 -0.948281 0
M  V30 6568 N 644.038 4.54281 -0.9046 0
M  V30 6569 C 644.773 5.60007 -1.23205 0
M  V30 6570 N 644.269 6.73343 -1.63036 0
M  V30 6571 N 646.062 5.50151 -1.15282 0
M  V30 6572 H 638.213 1.62786 -1.36435 0
M  V30 6573 H 640.476 0.76514 -0.559701 0
M  V30 6574 H 640.182 3.14741 -1.56942 0
M  V30 6575 H 640.056 3.77143 0.0657922 0
M  V30 6576 H 642.443 2.90095 0.541211 0
M  V30 6577 H 642.524 2.29937 -1.12083 0
M  V30 6578 H 642.168 4.67894 -1.97578 0
M  V30 6579 H 642.098 5.25788 -0.292412 0
M  V30 6580 H 644.589 3.72918 -0.6116 0
M  V30 6581 H 644.902 7.49992 -1.86365 0
M  V30 6582 H 643.247 6.74655 -1.66929 0
M  V30 6583 H 646.438 4.6049 -0.840602 0
M  V30 6584 H 646.611 6.32444 -1.41133 0
M  V30 6585 N 640.017 0.126909 1.57088 0
M  V30 6586 C 641.263 -0.529952 1.95753 0
M  V30 6587 C 641.596 -1.65823 1.01077 0
M  V30 6588 O 640.871 -1.94437 0.0494162 0
M  V30 6589 C 641.154 -1.05517 3.44294 0
M  V30 6590 C 641.007 0.0702253 4.49745 0
M  V30 6591 C 642.326 -1.9435 3.94862 0
M  V30 6592 H 639.445 -0.191168 0.711775 0
M  V30 6593 H 642.087 0.204071 1.88901 0
M  V30 6594 H 640.237 -1.68069 3.50264 0
M  V30 6595 H 641.909 0.705834 4.55868 0
M  V30 6596 H 640.152 0.732259 4.27575 0
M  V30 6597 H 640.823 -0.338642 5.5096 0
M  V30 6598 H 643.299 -1.41658 3.91244 0
M  V30 6599 H 642.175 -2.28015 4.993 0
M  V30 6600 H 642.436 -2.87299 3.36024 0
M  V30 6601 N 641.495 -1.56914 -0.146875 0
M  V30 6602 C 642.741 -1.83628 -0.860741 0
M  V30 6603 C 643.074 -0.708528 -1.80813 0
M  V30 6604 O 642.349 0.287838 -1.92358 0
M  V30 6605 C 642.632 -3.20836 -1.63511 0
M  V30 6606 C 642.485 -4.44174 -0.709199 0
M  V30 6607 C 643.804 -3.55268 -2.59756 0
M  V30 6608 H 640.923 -0.667949 -0.311468 0
M  V30 6609 H 643.565 -1.89582 -0.125936 0
M  V30 6610 H 641.715 -3.15891 -2.26153 0
M  V30 6611 H 643.387 -4.61205 -0.0937781 0
M  V30 6612 H 641.63 -4.33796 -0.0187856 0
M  V30 6613 H 642.301 -5.36785 -1.28707 0
M  V30 6614 H 644.777 -3.60824 -2.07232 0
M  V30 6615 H 643.653 -4.52303 -3.10987 0
M  V30 6616 H 643.914 -2.81231 -3.41118 0
M  V30 6617 N 642.974 0.416227 -1.52004 0
M  V30 6618 C 644.223 1.16088 -1.64944 0
M  V30 6619 C 644.536 1.91835 -0.381928 0
M  V30 6620 O 645.742 2.6867 -0.391013 0
M  V30 6621 C 644.198 2.1124 -2.91386 0
M  V30 6622 C 643.806 1.41042 -4.25219 0
M  V30 6623 C 645.55 2.86008 -3.13688 0
M  V30 6624 C 643.457 2.34801 -5.42791 0
M  V30 6625 H 642.387 0.437041 -0.61442 0
M  V30 6626 H 645.038 0.425971 -1.78487 0
M  V30 6627 H 643.42 2.88254 -2.71525 0
M  V30 6628 H 644.594 0.694416 -4.55538 0
M  V30 6629 H 642.909 0.78344 -4.08964 0
M  V30 6630 H 645.506 3.56286 -3.98703 0
M  V30 6631 H 645.849 3.48556 -2.27628 0
M  V30 6632 H 646.382 2.16095 -3.33988 0
M  V30 6633 H 643.121 1.7691 -6.31176 0
M  V30 6634 H 642.641 3.04395 -5.16821 0
M  V30 6635 H 644.32 2.9548 -5.75587 0
M  V30 6636 N 644.452 1.42507 0.673017 0
M  V30 6637 C 645.384 1.42074 1.79854 0
M  V30 6638 C 646.397 0.319569 1.59633 0
M  V30 6639 O 647.586 0.582769 1.68719 0
M  V30 6640 C 644.686 1.19886 3.16987 0
M  V30 6641 C 643.859 2.42471 3.64042 0
M  V30 6642 C 642.918 2.15802 4.79913 0
M  V30 6643 O 641.944 2.89015 4.90366 0
M  V30 6644 N 643.146 1.16225 5.68746 0
M  V30 6645 H 645.911 2.3909 1.8071 0
M  V30 6646 H 643.472 1.37409 0.856171 0
M  V30 6647 H 645.464 0.999591 3.92161 0
M  V30 6648 H 644.034 0.313879 3.1102 0
M  V30 6649 H 643.254 2.77954 2.79526 0
M  V30 6650 H 644.542 3.24097 3.92223 0
M  V30 6651 H 643.94 0.556756 5.62954 0
M  V30 6652 H 642.497 1.02285 6.43724 0
M  V30 6653 N 645.93 -0.909495 1.28709 0
M  V30 6654 C 646.88 -1.9991 1.09636 0
M  V30 6655 C 647.864 -1.60889 0.01872 0
M  V30 6656 O 649.056 -1.75374 0.239338 0
M  V30 6657 C 646.185 -3.34675 0.764702 0
M  V30 6658 C 645.271 -3.80085 1.8814 0
M  V30 6659 N 645.662 -3.97824 3.12361 0
M  V30 6660 C 643.96 -4.09278 1.77221 0
M  V30 6661 C 644.661 -4.35928 3.85151 0
M  V30 6662 N 643.637 -4.44426 3.13028 0
M  V30 6663 H 647.439 -2.11681 2.03883 0
M  V30 6664 H 644.953 -1.09763 1.1969 0
M  V30 6665 H 646.95 -4.12426 0.609132 0
M  V30 6666 H 645.61 -3.24255 -0.169952 0
M  V30 6667 H 646.621 -3.83626 3.47925 0
M  V30 6668 H 643.298 -4.0747 0.909621 0
M  V30 6669 H 644.688 -4.57581 4.92006 0
M  V30 6670 N 647.408 -1.11026 -1.11852 0
M  V30 6671 C 648.356 -0.759643 -2.19846 0
M  V30 6672 C 649.35 0.246964 -1.6759 0
M  V30 6673 O 650.556 0.106693 -1.79684 0
M  V30 6674 H 646.931 -0.22775 -0.716683 0
M  V30 6675 H 648.902 -1.6792 -2.46669 0
M  V30 6676 C 647.651 -0.214364 -3.47039 0
M  V30 6677 H 646.974 -0.980175 -3.87599 0
M  V30 6678 H 648.414 -0.00717047 -4.23999 0
M  V30 6679 C 646.873 1.05436 -3.19976 0
M  V30 6680 O 647.403 2.13483 -3.40276 0
M  V30 6681 N 645.609 0.975436 -2.7374 0
M  V30 6682 H 645.156 0.0960853 -2.57421 0
M  V30 6683 H 645.114 1.82501 -2.5601 0
M  V30 6684 N 648.886 1.2938 -0.899927 0
M  V30 6685 C 650.132 1.96206 -0.536153 0
M  V30 6686 C 650.487 1.69647 0.90761 0
M  V30 6687 O 649.78 0.999089 1.63489 0
M  V30 6688 C 649.974 3.49114 -0.765113 0
M  V30 6689 C 649.803 3.90538 -2.22958 0
M  V30 6690 C 648.573 4.15395 -2.87706 0
M  V30 6691 C 650.771 4.0224 -3.20479 0
M  V30 6692 N 648.753 4.43389 -4.24593 0
M  V30 6693 C 650.124 4.34288 -4.42486 0
M  V30 6694 C 652.179 3.84716 -3.16066 0
M  V30 6695 C 650.882 4.50638 -5.6064 0
M  V30 6696 C 652.908 4.02276 -4.33507 0
M  V30 6697 C 652.27 4.34684 -5.54283 0
M  V30 6698 H 648.369 0.742364 -0.245804 0
M  V30 6699 H 650.953 1.56314 -1.16078 0
M  V30 6700 H 649.124 3.88028 -0.169861 0
M  V30 6701 H 650.856 4.03035 -0.366751 0
M  V30 6702 H 647.611 4.09164 -2.385 0
M  V30 6703 H 648.035 4.61494 -4.95331 0
M  V30 6704 H 652.677 3.58724 -2.23778 0
M  V30 6705 H 650.395 4.75467 -6.5342 0
M  V30 6706 H 653.981 3.90169 -4.31578 0
M  V30 6707 H 652.861 4.47988 -6.43643 0
M  V30 6708 N 650.364 0.662433 1.43002 0
M  V30 6709 C 651.314 -0.0460442 2.27954 0
M  V30 6710 C 652.298 -0.785753 1.40409 0
M  V30 6711 O 653.49 -0.666701 1.63964 0
M  V30 6712 C 650.619 -1.00532 3.2825 0
M  V30 6713 C 649.705 -0.263604 4.2328 0
M  V30 6714 N 650.096 0.724855 5.00579 0
M  V30 6715 C 648.394 -0.503778 4.43146 0
M  V30 6716 C 649.095 1.16594 5.69895 0
M  V30 6717 N 648.071 0.498345 5.41311 0
M  V30 6718 H 651.873 0.712314 2.85137 0
M  V30 6719 H 649.387 0.490469 1.54817 0
M  V30 6720 H 651.384 -1.52775 3.87899 0
M  V30 6721 H 650.044 -1.76364 2.72628 0
M  V30 6722 H 651.055 1.10393 5.05998 0
M  V30 6723 H 647.732 -1.24255 3.98581 0
M  V30 6724 H 649.122 1.98434 6.4193 0
M  V30 6725 N 651.842 -1.52309 0.404946 0
M  V30 6726 C 652.752 -2.30634 -0.429555 0
M  V30 6727 C 653.768 -1.38187 -1.05737 0
M  V30 6728 O 654.944 -1.71261 -1.05979 0
M  V30 6729 C 652.009 -3.10947 -1.53339 0
M  V30 6730 C 651.07 -4.19126 -0.929065 0
M  V30 6731 C 650.303 -4.95601 -1.9803 0
M  V30 6732 O 650.526 -4.72331 -3.1978 0
M  V30 6733 O 649.46 -5.80551 -1.58886 0
M  V30 6734 H 653.286 -3.0298 0.208963 0
M  V30 6735 H 650.871 -1.4845 0.168255 0
M  V30 6736 H 652.753 -3.60974 -2.1743 0
M  V30 6737 H 651.428 -2.41399 -2.15658 0
M  V30 6738 H 650.335 -3.73257 -0.250982 0
M  V30 6739 H 651.668 -4.90955 -0.349855 0
M  V30 6740 N 653.32 -0.135238 -1.57019 0
M  V30 6741 C 654.25 0.805235 -2.19176 0
M  V30 6742 C 655.231 1.2656 -1.13651 0
M  V30 6743 O 656.416 1.32528 -1.4195 0
M  V30 6744 C 653.546 2.04914 -2.80406 0
M  V30 6745 C 652.5 1.72598 -3.91655 0
M  V30 6746 C 651.826 3.04154 -4.39766 0
M  V30 6747 C 653.126 0.981709 -5.12991 0
M  V30 6748 H 654.82 0.287232 -2.98019 0
M  V30 6749 H 652.366 0.136714 -1.4335 0
M  V30 6750 H 654.319 2.71178 -3.22553 0
M  V30 6751 H 653.043 2.59067 -1.98877 0
M  V30 6752 H 651.702 1.08717 -3.50109 0
M  V30 6753 H 651.35 3.56274 -3.55075 0
M  V30 6754 H 651.05 2.83299 -5.14796 0
M  V30 6755 H 652.574 3.71509 -4.84576 0
M  V30 6756 H 653.988 1.5462 -5.52056 0
M  V30 6757 H 652.385 0.873533 -5.93708 0
M  V30 6758 H 653.455 -0.0286887 -4.84892 0
M  V30 6759 N 654.798 1.5699 0.138552 0
M  V30 6760 C 656.214 1.51844 0.491472 0
M  V30 6761 C 656.414 0.845063 1.82923 0
M  V30 6762 O 655.47 0.419143 2.48997 0
M  V30 6763 C 656.783 2.96615 0.493987 0
M  V30 6764 C 658.331 3.076 0.578913 0
M  V30 6765 C 658.806 4.53893 0.612009 0
M  V30 6766 N 660.297 4.5827 0.673997 0
M  V30 6767 C 661.032 5.68852 0.720729 0
M  V30 6768 N 660.528 6.88982 0.726292 0
M  V30 6769 N 662.321 5.56908 0.762253 0
M  V30 6770 H 654.472 1.99158 -0.738228 0
M  V30 6771 H 656.735 0.908693 -0.270149 0
M  V30 6772 H 656.441 3.49172 -0.420933 0
M  V30 6773 H 656.315 3.53017 1.32887 0
M  V30 6774 H 658.702 2.55057 1.48425 0
M  V30 6775 H 658.783 2.54227 -0.283286 0
M  V30 6776 H 658.427 5.07076 -0.289208 0
M  V30 6777 H 658.357 5.05057 1.49082 0
M  V30 6778 H 660.848 3.71793 0.676654 0
M  V30 6779 H 661.161 7.69014 0.764032 0
M  V30 6780 H 659.506 6.91526 0.69403 0
M  V30 6781 H 662.697 4.61969 0.755135 0
M  V30 6782 H 662.87 6.43102 0.795207 0
M  V30 6783 N 656.276 -0.40816 1.52223 0
M  V30 6784 C 657.206 -1.5042 1.78595 0
M  V30 6785 C 658.187 -1.57723 0.636974 0
M  V30 6786 O 659.372 -1.72982 0.882664 0
M  V30 6787 C 656.502 -2.88232 1.93751 0
M  V30 6788 C 655.456 -2.95779 3.09352 0
M  V30 6789 C 654.782 -4.35855 3.09732 0
M  V30 6790 C 656.082 -2.67175 4.48793 0
M  V30 6791 H 657.776 -1.28601 2.70374 0
M  V30 6792 H 655.322 -0.617221 1.30101 0
M  V30 6793 H 657.275 -3.64895 2.10783 0
M  V30 6794 H 655.999 -3.11347 0.986443 0
M  V30 6795 H 654.658 -2.21561 2.92072 0
M  V30 6796 H 654.306 -4.55981 2.12346 0
M  V30 6797 H 654.006 -4.41829 3.87377 0
M  V30 6798 H 655.53 -5.14451 3.28895 0
M  V30 6799 H 656.944 -3.3356 4.66273 0
M  V30 6800 H 655.341 -2.84523 5.28362 0
M  V30 6801 H 656.411 -1.62609 4.56822 0
M  V30 6802 N 657.755 -1.42862 -0.66545 0
M  V30 6803 C 659.002 -1.4383 -1.42546 0
M  V30 6804 C 659.33 -0.0581114 -1.94413 0
M  V30 6805 O 658.585 0.935002 -1.71919 0
M  V30 6806 C 658.884 -2.4175 -2.63233 0
M  V30 6807 C 658.55 -3.87915 -2.29854 0
M  V30 6808 C 657.212 -4.27726 -2.20463 0
M  V30 6809 C 659.564 -4.80074 -2.02924 0
M  V30 6810 C 656.892 -5.57666 -1.82279 0
M  V30 6811 C 659.244 -6.10366 -1.66242 0
M  V30 6812 C 657.908 -6.49167 -1.55367 0
M  V30 6813 H 657.178 -0.52631 -0.521612 0
M  V30 6814 H 659.825 -1.75863 -0.757914 0
M  V30 6815 H 658.13 -2.03077 -3.35063 0
M  V30 6816 H 659.827 -2.39759 -3.21429 0
M  V30 6817 H 656.417 -3.564 -2.3807 0
M  V30 6818 H 660.601 -4.50097 -2.09108 0
M  V30 6819 H 655.857 -5.8658 -1.72436 0
M  V30 6820 H 660.031 -6.81258 -1.44432 0
M  V30 6821 H 657.658 -7.49761 -1.2555 0
M  V30 6822 N 659.233 0.902656 -1.29189 0
M  V30 6823 C 660.166 2.00816 -1.0839 0
M  V30 6824 C 661.144 1.626 0.00335266 0
M  V30 6825 O 662.328 1.87928 -0.146765 0
M  V30 6826 C 659.455 3.32415 -0.649435 0
M  V30 6827 C 658.501 3.89617 -1.73496 0
M  V30 6828 S 659.334 4.19091 -3.33351 0
M  V30 6829 C 660.49 5.53736 -2.91766 0
M  V30 6830 H 660.723 2.18151 -2.01984 0
M  V30 6831 H 658.256 1.0489 -1.13303 0
M  V30 6832 H 660.214 4.08492 -0.405479 0
M  V30 6833 H 658.875 3.12964 0.266857 0
M  V30 6834 H 658.068 4.84658 -1.38284 0
M  V30 6835 H 657.67 3.20217 -1.93229 0
M  V30 6836 H 659.962 6.34085 -2.38627 0
M  V30 6837 H 660.905 5.93871 -3.85647 0
M  V30 6838 H 661.313 5.15453 -2.30149 0
M  V30 6839 N 660.711 1.11618 1.11262 0
M  V30 6840 C 661.957 0.877377 1.83504 0
M  V30 6841 C 662.312 -0.590606 1.83111 0
M  V30 6842 O 661.605 -1.43057 1.27456 0
M  V30 6843 C 661.799 1.37529 3.2988 0
M  V30 6844 C 661.628 2.89014 3.4453 0
M  V30 6845 C 660.398 3.57157 3.57445 0
M  V30 6846 C 662.596 3.8706 3.38658 0
M  V30 6847 N 660.578 4.96842 3.60585 0
M  V30 6848 C 661.949 5.12825 3.4844 0
M  V30 6849 C 664.004 3.79593 3.22201 0
M  V30 6850 C 662.707 6.32002 3.43462 0
M  V30 6851 C 664.733 4.98282 3.18542 0
M  V30 6852 C 664.095 6.22901 3.28897 0
M  V30 6853 H 660.194 0.37422 0.686646 0
M  V30 6854 H 662.778 1.42087 1.33114 0
M  V30 6855 H 660.949 0.85895 3.78783 0
M  V30 6856 H 662.681 1.07944 3.90039 0
M  V30 6857 H 659.436 3.07628 3.60086 0
M  V30 6858 H 659.86 5.69674 3.65788 0
M  V30 6859 H 664.502 2.84149 3.1308 0
M  V30 6860 H 662.22 7.27721 3.51352 0
M  V30 6861 H 665.806 4.94226 3.06972 0
M  V30 6862 H 664.686 7.13202 3.26056 0
M  V30 6863 N 662.189 -1.289 0.906776 0
M  V30 6864 C 663.466 -1.90221 0.455537 0
M  V30 6865 C 663.846 -1.82251 -1.06527 0
M  V30 6866 O 663.194 -1.25385 -1.91026 0
M  V30 6867 C 663.404 -3.35015 0.97806 0
M  V30 6868 C 664.752 -4.12018 1.02598 0
M  V30 6869 O 665.776 -3.43947 0.926218 0
M  V30 6870 O 664.635 -5.33677 1.17689 0
M  V30 6871 H 661.729 -0.814505 0.143214 0
M  V30 6872 H 664.275 -1.37317 0.997104 0
M  V30 6873 H 663.047 -3.35006 2.02204 0
M  V30 6874 H 662.67 -3.95408 0.416914 0
M  V30 6875 N 663.667 -0.670007 -1.42649 0
M  V30 6876 C 664.897 -0.198252 -2.05647 0
M  V30 6877 C 665.305 1.14786 -1.50402 0
M  V30 6878 O 664.648 1.72316 -0.636634 0
M  V30 6879 C 664.71 -0.0507132 -3.59464 0
M  V30 6880 C 664.374 -1.32478 -4.37377 0
M  V30 6881 C 665.371 -2.2572 -4.68344 0
M  V30 6882 C 663.056 -1.57104 -4.77099 0
M  V30 6883 C 665.05 -3.4187 -5.37963 0
M  V30 6884 C 662.737 -2.73543 -5.46459 0
M  V30 6885 C 663.735 -3.65751 -5.76815 0
M  V30 6886 O 663.423 -4.80154 -6.44753 0
M  V30 6887 H 663.155 -0.0950721 -0.669281 0
M  V30 6888 H 665.709 -0.915745 -1.83857 0
M  V30 6889 H 663.939 0.722314 -3.79894 0
M  V30 6890 H 665.628 0.380552 -4.04112 0
M  V30 6891 H 666.394 -2.07943 -4.38161 0
M  V30 6892 H 662.273 -0.862069 -4.52868 0
M  V30 6893 H 665.817 -4.13861 -5.61574 0
M  V30 6894 H 661.714 -2.91248 -5.7606 0
M  V30 6895 H 662.482 -4.79637 -6.63243 0
M  V30 6896 N 665.145 1.52092 -0.413018 0
M  V30 6897 C 666.391 2.02154 0.161737 0
M  V30 6898 C 666.724 1.29789 1.44459 0
M  V30 6899 O 665.999 0.405378 1.90229 0
M  V30 6900 C 666.282 3.5781 0.405463 0
M  V30 6901 C 666.135 4.40819 -0.894335 0
M  V30 6902 C 667.454 4.23821 1.18591 0
M  V30 6903 H 664.573 0.734769 0.0573077 0
M  V30 6904 H 667.215 1.81948 -0.547247 0
M  V30 6905 H 665.365 3.75158 1.0094 0
M  V30 6906 H 667.037 4.35175 -1.53039 0
M  V30 6907 H 665.28 4.06877 -1.50444 0
M  V30 6908 H 665.951 5.47819 -0.678144 0
M  V30 6909 H 668.427 4.10596 0.674573 0
M  V30 6910 H 667.303 5.32663 1.3252 0
M  V30 6911 H 667.564 3.83038 2.20758 0
M  V30 6912 N 666.623 0.143563 1.56945 0
M  V30 6913 C 667.871 -0.507402 1.95627 0
M  V30 6914 C 668.192 -1.65626 1.02922 0
M  V30 6915 O 667.462 -1.95693 0.0901136 0
M  V30 6916 H 666.042 -0.190436 0.722318 0
M  V30 6917 H 668.704 0.218257 1.93674 0
M  V30 6918 H 667.8 -0.885816 2.99265 0
M  V30 6919 N 668.101 -1.57061 -0.130224 0
M  V30 6920 C 669.35 -1.83446 -0.838488 0
M  V30 6921 C 669.663 -0.727468 -1.81569 0
M  V30 6922 O 670.869 -0.877394 -2.56932 0
M  V30 6923 C 669.325 -3.25201 -1.54182 0
M  V30 6924 C 668.933 -4.4388 -0.606178 0
M  V30 6925 C 670.677 -3.60844 -2.23588 0
M  V30 6926 C 668.584 -5.76661 -1.31209 0
M  V30 6927 H 667.514 -0.684185 -0.316871 0
M  V30 6928 H 670.165 -1.83273 -0.0912059 0
M  V30 6929 H 668.547 -3.1981 -2.33533 0
M  V30 6930 H 669.721 -4.60545 0.153308 0
M  V30 6931 H 668.036 -4.16395 -0.0196705 0
M  V30 6932 H 670.633 -4.57313 -2.77072 0
M  V30 6933 H 670.976 -2.87724 -3.00867 0
M  V30 6934 H 671.509 -3.67971 -1.51137 0
M  V30 6935 H 668.248 -6.52922 -0.580823 0
M  V30 6936 H 667.768 -5.63902 -2.04387 0
M  V30 6937 H 669.447 -6.20035 -1.8484 0
M  V30 6938 N 669.579 0.400081 -1.52437 0
M  V30 6939 C 670.825 1.14788 -1.67187 0
M  V30 6940 C 671.158 1.89928 -0.405074 0
M  V30 6941 O 670.433 1.85118 0.596804 0
M  V30 6942 C 670.716 2.13507 -2.89977 0
M  V30 6943 C 670.569 1.42204 -4.2673 0
M  V30 6944 C 671.888 3.14069 -3.083 0
M  V30 6945 H 669.007 0.415939 -0.608411 0
M  V30 6946 H 671.649 0.432542 -1.85011 0
M  V30 6947 H 669.799 2.7451 -2.74912 0
M  V30 6948 H 671.471 0.842503 -4.53541 0
M  V30 6949 H 669.714 0.723939 -4.27717 0
M  V30 6950 H 670.385 2.14281 -5.08712 0
M  V30 6951 H 672.861 2.63148 -3.22323 0
M  V30 6952 H 671.737 3.80398 -3.95713 0
M  V30 6953 H 671.998 3.82309 -2.22018 0
M  V30 6954 N 671.057 1.43213 0.657864 0
M  V30 6955 C 672.473 1.26511 0.972992 0
M  V30 6956 C 672.673 0.181477 2.00681 0
M  V30 6957 O 671.729 -0.441649 2.48608 0
M  V30 6958 C 673.042 2.62784 1.46168 0
M  V30 6959 C 674.59 2.70278 1.57857 0
M  V30 6960 C 675.065 4.06958 2.10117 0
M  V30 6961 N 676.556 4.08999 2.17426 0
M  V30 6962 C 677.291 5.11585 2.58975 0
M  V30 6963 N 676.787 6.24548 2.99853 0
M  V30 6964 N 678.58 4.9894 2.58873 0
M  V30 6965 H 670.731 2.12384 -0.0263129 0
M  V30 6966 H 672.994 0.946638 0.0507992 0
M  V30 6967 H 672.7 3.43022 0.776474 0
M  V30 6968 H 672.574 2.87863 2.43751 0
M  V30 6969 H 674.961 1.90376 2.25479 0
M  V30 6970 H 675.042 2.4897 0.587179 0
M  V30 6971 H 674.686 4.87325 1.43098 0
M  V30 6972 H 674.616 4.25628 3.10078 0
M  V30 6973 H 677.107 3.27457 1.88627 0
M  V30 6974 H 677.42 6.98661 3.30292 0
M  V30 6975 H 675.765 6.28027 2.97669 0
M  V30 6976 H 678.956 4.09757 2.26311 0
M  V30 6977 H 679.129 5.79019 2.90932 0
M  V30 6978 N 672.536 -0.895792 1.29666 0
M  V30 6979 C 673.764 -1.68001 1.20761 0
M  V30 6980 C 674.179 -1.87379 -0.231187 0
M  V30 6981 O 673.536 -1.41359 -1.15429 0
M  V30 6982 C 673.587 -3.06236 1.92098 0
M  V30 6983 O 673.308 -2.8774 3.30359 0
M  V30 6984 C 674.809 -4.00652 1.89717 0
M  V30 6985 H 672.029 -0.524591 0.418384 0
M  V30 6986 H 674.573 -1.11995 1.71106 0
M  V30 6987 H 672.728 -3.59007 1.45578 0
M  V30 6988 H 673.142 -3.75359 3.66342 0
M  V30 6989 H 674.616 -4.95051 2.44189 0
M  V30 6990 H 675.093 -4.30424 0.873595 0
M  V30 6991 H 675.699 -3.53815 2.35998 0
M  V30 6992 N 674.014 -1.12206 -1.10668 0
M  V30 6993 C 675.242 -0.898635 -1.86366 0
M  V30 6994 C 675.657 0.551991 -1.80551 0
M  V30 6995 O 675.014 1.38152 -1.19249 0
M  V30 6996 C 675.065 -1.36199 -3.34861 0
M  V30 6997 O 674.786 -2.75576 -3.40573 0
M  V30 6998 C 676.287 -1.17515 -4.2744 0
M  V30 6999 H 673.507 -0.321281 -0.589084 0
M  V30 7000 H 676.051 -1.49142 -1.39918 0
M  V30 7001 H 674.206 -0.81249 -3.78784 0
M  V30 7002 H 674.62 -2.95851 -4.33096 0
M  V30 7003 H 676.094 -1.54827 -5.29842 0
M  V30 7004 H 676.571 -0.115486 -4.39048 0
M  V30 7005 H 677.177 -1.71203 -3.89319 0
M  V30 7006 N 675.492 1.28418 -0.913599 0
M  V30 7007 C 676.439 2.27301 -0.400373 0
M  V30 7008 C 677.409 1.57582 0.52509 0
M  V30 7009 O 678.594 1.85482 0.447318 0
M  V30 7010 C 675.734 3.43284 0.35361 0
M  V30 7011 C 674.847 4.27752 -0.604341 0
M  V30 7012 C 673.982 5.30934 0.168075 0
M  V30 7013 C 673.021 6.07065 -0.783499 0
M  V30 7014 N 672.158 7.02086 -0.0446112 0
M  V30 7015 H 676.998 2.70579 -1.24865 0
M  V30 7016 H 674.535 1.33067 -0.627028 0
M  V30 7017 H 676.493 4.09322 0.806945 0
M  V30 7018 H 675.123 3.00997 1.16623 0
M  V30 7019 H 674.175 3.61759 -1.17621 0
M  V30 7020 H 675.487 4.80682 -1.33216 0
M  V30 7021 H 674.641 6.02855 0.681979 0
M  V30 7022 H 673.38 4.78771 0.928947 0
M  V30 7023 H 672.385 5.33995 -1.30878 0
M  V30 7024 H 673.61 6.61317 -1.54392 0
M  V30 7025 H 671.556 6.52273 0.698272 0
M  V30 7026 H 671.473 7.52637 -0.712258 0
M  V30 7027 H 672.741 7.78205 0.449102 0
M  V30 7028 N 676.97 0.677563 1.42291 0
M  V30 7029 C 678.386 0.347376 1.55774 0
M  V30 7030 C 678.586 -1.14703 1.65667 0
M  V30 7031 O 677.642 -1.93252 1.62512 0
M  V30 7032 C 678.955 1.08011 2.80631 0
M  V30 7033 C 680.503 1.06271 2.94407 0
M  V30 7034 C 680.978 1.77683 4.22129 0
M  V30 7035 N 682.469 1.74564 4.29047 0
M  V30 7036 C 683.204 2.26673 5.26694 0
M  V30 7037 N 682.7 2.87176 6.30477 0
M  V30 7038 N 684.493 2.17032 5.18511 0
M  V30 7039 H 676.644 1.64703 1.34114 0
M  V30 7040 H 678.907 0.694038 0.645768 0
M  V30 7041 H 678.613 2.13518 2.79469 0
M  V30 7042 H 678.487 0.647115 3.71608 0
M  V30 7043 H 680.874 0.0159658 2.95096 0
M  V30 7044 H 680.955 1.53461 2.04654 0
M  V30 7045 H 680.599 2.82327 4.22201 0
M  V30 7046 H 680.529 1.2794 5.10822 0
M  V30 7047 H 683.02 1.30436 3.54676 0
M  V30 7048 H 683.333 3.24551 7.01346 0
M  V30 7049 H 681.678 2.91247 6.31031 0
M  V30 7050 H 684.869 1.69451 4.36353 0
M  V30 7051 H 685.042 2.57948 5.94446 0
M  V30 7052 N 678.448 -1.51871 0.421078 0
M  V30 7053 C 679.378 -2.30231 -0.389363 0
M  V30 7054 C 680.359 -1.34946 -1.03555 0
M  V30 7055 O 681.544 -1.63859 -1.04229 0
M  V30 7056 C 678.674 -3.13247 -1.49979 0
M  V30 7057 C 677.628 -4.16677 -0.977966 0
M  V30 7058 C 676.954 -4.88112 -2.1829 0
M  V30 7059 C 678.254 -5.22295 -0.0236775 0
M  V30 7060 H 679.948 -2.98229 0.264524 0
M  V30 7061 H 677.494 -1.43424 0.12866 0
M  V30 7062 H 679.447 -3.66838 -2.07383 0
M  V30 7063 H 678.171 -2.4304 -2.18173 0
M  V30 7064 H 676.83 -3.64114 -0.426245 0
M  V30 7065 H 676.478 -4.14423 -2.85066 0
M  V30 7066 H 676.178 -5.58041 -1.84021 0
M  V30 7067 H 677.702 -5.44521 -2.76278 0
M  V30 7068 H 679.116 -5.71055 -0.506899 0
M  V30 7069 H 677.513 -5.99656 0.230782 0
M  V30 7070 H 678.583 -4.76131 0.917999 0
M  V30 7071 N 679.926 -0.151884 -1.56866 0
M  V30 7072 C 680.836 0.798876 -2.20579 0
M  V30 7073 C 681.852 1.268 -1.19154 0
M  V30 7074 O 683.028 1.32418 -1.51748 0
M  V30 7075 C 680.093 2.01861 -2.81874 0
M  V30 7076 C 679.154 1.59825 -3.9844 0
M  V30 7077 C 678.387 2.75984 -4.56802 0
M  V30 7078 O 678.61 3.92331 -4.14044 0
M  V30 7079 O 677.544 2.51175 -5.46987 0
M  V30 7080 H 681.37 0.2865 -3.02346 0
M  V30 7081 H 678.955 0.0753806 -1.4921 0
M  V30 7082 H 680.837 2.73235 -3.20813 0
M  V30 7083 H 679.512 2.52042 -2.03117 0
M  V30 7084 H 678.419 0.854601 -3.64208 0
M  V30 7085 H 679.752 1.14355 -4.78731 0
M  V30 7086 N 681.404 1.57128 0.121893 0
M  V30 7087 C 682.82 1.52357 0.47534 0
M  V30 7088 C 683.02 0.864417 1.82017 0
M  V30 7089 O 682.076 0.445529 2.48538 0
M  V30 7090 C 683.389 2.97122 0.4625 0
M  V30 7091 C 684.937 3.08196 0.546255 0
M  V30 7092 C 685.412 4.54516 0.563833 0
M  V30 7093 N 686.903 4.58959 0.625353 0
M  V30 7094 C 687.638 5.69585 0.660354 0
M  V30 7095 N 687.134 6.89714 0.653175 0
M  V30 7096 N 688.927 5.57685 0.703143 0
M  V30 7097 H 681.078 1.98364 -0.75931 0
M  V30 7098 H 683.341 0.905777 -0.279772 0
M  V30 7099 H 683.047 3.48706 -0.457943 0
M  V30 7100 H 682.921 3.54406 1.29136 0
M  V30 7101 H 685.308 2.56617 1.45712 0
M  V30 7102 H 685.389 2.53912 -0.310234 0
M  V30 7103 H 685.033 5.06741 -0.342974 0
M  V30 7104 H 684.963 5.06609 1.43716 0
M  V30 7105 H 687.454 3.72489 0.637182 0
M  V30 7106 H 687.767 7.69781 0.682425 0
M  V30 7107 H 686.112 6.92223 0.620646 0
M  V30 7108 H 689.303 4.62744 0.706095 0
M  V30 7109 H 689.476 6.43909 0.726952 0
M  V30 7110 N 682.882 -0.391992 1.52647 0
M  V30 7111 C 683.845 -1.46135 1.7657 0
M  V30 7112 C 684.845 -1.47701 0.635698 0
M  V30 7113 O 686.035 -1.48924 0.903728 0
M  V30 7114 C 683.167 -2.85443 1.86374 0
M  V30 7115 H 684.36 -1.26208 2.72051 0
M  V30 7116 H 681.913 -0.623549 1.43323 0
M  V30 7117 H 682.648 -3.10718 0.928685 0
M  V30 7118 H 682.433 -2.85708 2.68539 0
M  V30 7119 H 683.923 -3.62933 2.06566 0
M  V30 7120 N 684.36 -1.4356 -0.65026 0
M  V30 7121 C 685.29 -1.51758 -1.77459 0
M  V30 7122 C 686.271 -0.372019 -1.65982 0
M  V30 7123 O 687.456 -0.589627 -1.85033 0
M  V30 7124 C 684.586 -1.44302 -3.15902 0
M  V30 7125 C 683.54 -2.57138 -3.42146 0
M  V30 7126 C 682.866 -2.34735 -4.8042 0
M  V30 7127 C 684.166 -3.99373 -3.36598 0
M  V30 7128 H 685.86 -2.45863 -1.70855 0
M  V30 7129 H 683.406 -1.18333 -0.820566 0
M  V30 7130 H 685.359 -1.48641 -3.94314 0
M  V30 7131 H 684.083 -0.467026 -3.23244 0
M  V30 7132 H 682.742 -2.52157 -2.66106 0
M  V30 7133 H 682.39 -1.35372 -4.84441 0
M  V30 7134 H 682.09 -3.10375 -4.9894 0
M  V30 7135 H 683.614 -2.40862 -5.61086 0
M  V30 7136 H 685.028 -4.05826 -4.04942 0
M  V30 7137 H 683.425 -4.75063 -3.66654 0
M  V30 7138 H 684.495 -4.243 -2.34729 0
M  V30 7139 N 685.838 0.888903 -1.30139 0
M  V30 7140 C 687.254 1.17153 -1.08385 0
M  V30 7141 C 687.454 2.0088 0.157925 0
M  V30 7142 O 686.51 2.37668 0.852652 0
M  V30 7143 C 687.823 1.882 -2.34523 0
M  V30 7144 C 689.371 2.00981 -2.39949 0
M  V30 7145 C 689.846 2.75441 -3.65918 0
M  V30 7146 N 691.337 2.82989 -3.66704 0
M  V30 7147 C 692.072 3.41167 -4.60861 0
M  V30 7148 N 691.568 4.00425 -5.6536 0
M  V30 7149 N 693.361 3.38944 -4.48412 0
M  V30 7150 H 685.512 0.33053 -2.09812 0
M  V30 7151 H 687.775 0.208964 -0.924683 0
M  V30 7152 H 687.481 1.34119 -3.25123 0
M  V30 7153 H 687.355 2.88609 -2.42868 0
M  V30 7154 H 689.742 2.54234 -1.4983 0
M  V30 7155 H 689.823 0.996725 -2.35582 0
M  V30 7156 H 689.467 2.22861 -4.56394 0
M  V30 7157 H 689.397 3.77118 -3.67546 0
M  V30 7158 H 691.888 2.40912 -2.91153 0
M  V30 7159 H 692.201 4.42871 -6.33313 0
M  V30 7160 H 690.546 3.98856 -5.69157 0
M  V30 7161 H 693.737 2.91875 -3.6596 0
M  V30 7162 H 693.91 3.83989 -5.21974 0
M  V30 7163 N 687.317 1.12792 1.10072 0
M  V30 7164 C 688.733 0.864745 1.34143 0
M  V30 7165 C 688.933 -0.503201 1.95116 0
M  V30 7166 O 687.989 -1.25111 2.19325 0
M  V30 7167 C 689.302 1.98413 2.25949 0
M  V30 7168 C 690.85 2.01545 2.39476 0
M  V30 7169 C 691.325 3.12727 3.34613 0
M  V30 7170 N 692.816 3.12194 3.42183 0
M  V30 7171 C 693.551 3.94862 4.15779 0
M  V30 7172 N 693.047 4.87528 4.92228 0
M  V30 7173 N 694.84 3.82985 4.11435 0
M  V30 7174 H 686.991 2.00926 0.68866 0
M  V30 7175 H 689.254 0.874564 0.365844 0
M  V30 7176 H 688.96 2.97005 1.88364 0
M  V30 7177 H 688.834 1.89254 3.26287 0
M  V30 7178 H 691.221 1.0357 2.76328 0
M  V30 7179 H 691.302 2.14777 1.3894 0
M  V30 7180 H 690.946 4.10936 2.98486 0
M  V30 7181 H 690.876 2.96732 4.35037 0
M  V30 7182 H 693.367 2.45065 2.87666 0
M  V30 7183 H 693.68 5.47109 5.45794 0
M  V30 7184 H 692.025 4.91539 4.9134 0
M  V30 7185 H 695.216 3.09923 3.50807 0
M  V30 7186 H 695.389 4.47641 4.68531 0
M  V30 7187 N 688.795 -1.27931 0.920396 0
M  V30 7188 C 690.044 -1.93975 0.552867 0
M  V30 7189 C 690.357 -1.73193 -0.909035 0
M  V30 7190 O 691.563 -2.33515 -1.38502 0
M  V30 7191 C 690.019 -3.47463 0.937947 0
M  V30 7192 C 689.627 -3.77013 2.42003 0
M  V30 7193 C 691.371 -4.19628 0.64132 0
M  V30 7194 C 689.278 -5.23841 2.74489 0
M  V30 7195 H 688.208 -0.726146 0.203046 0
M  V30 7196 H 690.859 -1.45339 1.12022 0
M  V30 7197 H 689.241 -3.94867 0.299317 0
M  V30 7198 H 690.415 -3.40393 3.10595 0
M  V30 7199 H 688.73 -3.18035 2.6878 0
M  V30 7200 H 691.327 -5.27729 0.860622 0
M  V30 7201 H 691.67 -4.14164 -0.421168 0
M  V30 7202 H 692.203 -3.78022 1.23872 0
M  V30 7203 H 688.942 -5.34388 3.79618 0
M  V30 7204 H 688.462 -5.61634 2.1054 0
M  V30 7205 H 690.141 -5.91647 2.61845 0
M  V30 7206 N 690.273 -0.685099 -1.4193 0
M  V30 7207 C 691.501 -0.220372 -2.05723 0
M  V30 7208 C 691.916 1.12642 -1.51516 0
M  V30 7209 O 691.273 1.70182 -0.659114 0
M  V30 7210 C 691.324 -0.157974 -3.61155 0
M  V30 7211 O 691.045 -1.45156 -4.13354 0
M  V30 7212 C 692.546 0.329009 -4.42077 0
M  V30 7213 H 689.766 -0.104725 -0.662777 0
M  V30 7214 H 692.31 -0.934736 -1.81887 0
M  V30 7215 H 690.465 0.507144 -3.84066 0
M  V30 7216 H 690.879 -1.33172 -5.07312 0
M  V30 7217 H 692.353 0.321559 -5.51063 0
M  V30 7218 H 692.83 1.36608 -4.17414 0
M  V30 7219 H 693.436 -0.304737 -4.24207 0
M  V30 7220 N 691.751 1.51645 -0.429126 0
M  V30 7221 C 692.684 2.24083 0.431492 0
M  V30 7222 C 693.662 1.25691 1.03153 0
M  V30 7223 O 694.846 1.54802 1.07557 0
M  V30 7224 C 691.973 2.9849 1.60067 0
M  V30 7225 C 691.019 4.11474 1.12211 0
M  V30 7226 S 691.852 5.35453 0.0708449 0
M  V30 7227 C 693.008 6.13395 1.24488 0
M  V30 7228 H 693.241 2.96733 -0.183525 0
M  V30 7229 H 690.774 1.52916 -0.213574 0
M  V30 7230 H 692.732 3.4196 2.27099 0
M  V30 7231 H 691.393 2.25445 2.18708 0
M  V30 7232 H 690.586 4.62784 1.99618 0
M  V30 7233 H 690.188 3.70223 0.530149 0
M  V30 7234 H 692.48 6.41984 2.16479 0
M  V30 7235 H 693.423 7.0388 0.771921 0
M  V30 7236 H 693.831 5.44761 1.47973 0
M  V30 7237 N 693.229 0.160201 1.56784 0
M  V30 7238 C 694.159 -0.770264 2.2043 0
M  V30 7239 C 695.14 -1.24736 1.15651 0
M  V30 7240 O 696.325 -1.30253 1.44041 0
M  V30 7241 C 693.455 -2.00427 2.83631 0
M  V30 7242 C 692.409 -1.66345 3.94352 0
M  V30 7243 C 691.735 -2.97119 4.4455 0
M  V30 7244 C 693.035 -0.899972 5.14488 0
M  V30 7245 H 694.729 -0.239783 2.98438 0
M  V30 7246 H 692.275 -0.113891 1.43549 0
M  V30 7247 H 694.228 -2.66012 3.26827 0
M  V30 7248 H 692.952 -2.5587 2.02973 0
M  V30 7249 H 691.611 -1.03133 3.51794 0
M  V30 7250 H 691.259 -3.5058 3.60698 0
M  V30 7251 H 690.959 -2.75073 5.19238 0
M  V30 7252 H 692.483 -3.63753 4.90425 0
M  V30 7253 H 693.897 -1.45818 5.54446 0
M  V30 7254 H 692.294 -0.778968 5.95023 0
M  V30 7255 H 693.364 0.105827 4.84785 0
M  V30 7256 N 694.707 -1.5719 -0.113559 0
M  V30 7257 C 695.639 -1.97393 -1.16484 0
M  V30 7258 C 696.652 -0.873964 -1.37352 0
M  V30 7259 O 697.841 -1.15222 -1.36331 0
M  V30 7260 C 694.941 -2.26174 -2.52386 0
M  V30 7261 C 694.114 -3.57479 -2.52046 0
M  V30 7262 C 693.173 -3.74409 -3.69735 0
M  V30 7263 O 692.199 -4.46463 -3.53071 0
M  V30 7264 N 693.401 -3.13588 -4.88511 0
M  V30 7265 H 696.166 -2.88184 -0.822814 0
M  V30 7266 H 693.727 -1.59044 -0.302769 0
M  V30 7267 H 695.719 -2.3471 -3.29687 0
M  V30 7268 H 694.289 -1.41483 -2.7875 0
M  V30 7269 H 693.509 -3.60081 -1.60421 0
M  V30 7270 H 694.797 -4.43775 -2.48881 0
M  V30 7271 H 694.195 -2.55026 -5.04953 0
M  V30 7272 H 692.752 -3.27637 -5.63469 0
M  V30 7273 N 696.185 0.383891 -1.52853 0
M  V30 7274 C 697.117 1.48889 -1.74255 0
M  V30 7275 C 698.13 1.50405 -0.623063 0
M  V30 7276 O 699.319 1.54215 -0.898887 0
M  V30 7277 C 696.419 2.87721 -1.79081 0
M  V30 7278 C 695.592 3.10111 -3.08464 0
M  V30 7279 C 694.651 4.28954 -3.0477 0
M  V30 7280 O 693.677 4.25012 -3.78621 0
M  V30 7281 N 694.879 5.35411 -2.24311 0
M  V30 7282 H 697.644 1.30915 -2.69595 0
M  V30 7283 H 695.205 0.573454 -1.51404 0
M  V30 7284 H 697.197 3.65333 -1.7411 0
M  V30 7285 H 695.767 2.99029 -0.911052 0
M  V30 7286 H 694.987 2.20319 -3.26884 0
M  V30 7287 H 696.275 3.21928 -3.94005 0
M  V30 7288 H 695.673 5.41471 -1.63787 0
M  V30 7289 H 694.23 6.1167 -2.25175 0
M  V30 7290 N 697.663 1.43903 0.642637 0
M  V30 7291 C 698.573 1.52349 1.78401 0
M  V30 7292 C 699.589 0.409869 1.69104 0
M  V30 7293 O 700.765 0.665548 1.90085 0
M  V30 7294 C 697.83 1.45408 3.14734 0
M  V30 7295 C 696.891 2.67528 3.35749 0
M  V30 7296 C 696.124 2.60909 4.65577 0
M  V30 7297 O 696.347 1.6627 5.45628 0
M  V30 7298 O 695.281 3.5158 4.88544 0
M  V30 7299 H 699.107 2.48752 1.7423 0
M  V30 7300 H 696.692 1.26021 0.802439 0
M  V30 7301 H 698.574 1.44019 3.96026 0
M  V30 7302 H 697.249 0.521437 3.19473 0
M  V30 7303 H 696.156 2.74487 2.5418 0
M  V30 7304 H 697.489 3.598 3.35864 0
M  V30 7305 N 699.141 -0.881989 1.30609 0
M  V30 7306 C 700.39 -1.62878 1.18969 0
M  V30 7307 C 700.703 -1.93946 -0.253859 0
M  V30 7308 O 701.909 -2.67008 -0.491813 0
M  V30 7309 C 700.365 -2.93573 2.0819 0
M  V30 7310 C 699.973 -2.70034 3.57471 0
M  V30 7311 C 701.717 -3.71543 2.0532 0
M  V30 7312 C 699.624 -3.96563 4.38739 0
M  V30 7313 H 698.554 -0.611092 0.441682 0
M  V30 7314 H 701.205 -0.976201 1.55379 0
M  V30 7315 H 699.587 -3.6014 1.64666 0
M  V30 7316 H 700.761 -2.11949 4.09163 0
M  V30 7317 H 699.076 -2.05435 3.62195 0
M  V30 7318 H 701.673 -4.65386 2.63288 0
M  V30 7319 H 702.016 -4.03167 1.03739 0
M  V30 7320 H 702.549 -3.11842 2.46981 0
M  V30 7321 H 699.288 -3.70095 5.41027 0
M  V30 7322 H 698.808 -4.54142 3.9181 0
M  V30 7323 H 700.487 -4.64557 4.50329 0
M  V30 7324 N 700.619 -1.13374 -1.09472 0
M  V30 7325 C 701.896 -0.806329 -1.78207 0
M  V30 7326 C 702.276 0.702191 -1.99079 0
M  V30 7327 O 701.624 1.63931 -1.59182 0
M  V30 7328 C 701.834 -1.59271 -3.10538 0
M  V30 7329 C 703.182 -1.78509 -3.85253 0
M  V30 7330 O 704.206 -1.55866 -3.20288 0
M  V30 7331 O 703.065 -2.16287 -5.01879 0
M  V30 7332 H 700.159 -0.29435 -0.772843 0
M  V30 7333 H 702.705 -1.23833 -1.16033 0
M  V30 7334 H 701.477 -2.61792 -2.90828 0
M  V30 7335 H 701.1 -1.15562 -3.80436 0
M  V30 7336 N 702.098 1.27442 -0.927168 0
M  V30 7337 C 703.008 2.30599 -0.431448 0
M  V30 7338 C 704.024 1.67028 0.48761 0
M  V30 7339 O 705.2 1.97962 0.370546 0
M  V30 7340 C 702.265 3.45327 0.308292 0
M  V30 7341 C 701.326 4.24418 -0.645615 0
M  V30 7342 C 700.559 5.33667 0.0589164 0
M  V30 7343 O 700.782 5.5589 1.27838 0
M  V30 7344 O 699.716 5.98774 -0.612638 0
M  V30 7345 H 703.542 2.75036 -1.28797 0
M  V30 7346 H 701.127 1.32382 -0.692495 0
M  V30 7347 H 703.009 4.15107 0.725555 0
M  V30 7348 H 701.684 3.02945 1.14043 0
M  V30 7349 H 700.591 3.57174 -1.11255 0
M  V30 7350 H 701.924 4.70512 -1.44496 0
M  V30 7351 N 703.576 0.692616 1.41565 0
M  V30 7352 C 704.806 0.230943 2.05305 0
M  V30 7353 C 705.214 -1.12379 1.52209 0
M  V30 7354 O 704.557 -1.71281 0.663968 0
M  V30 7355 C 704.619 0.107894 3.59338 0
M  V30 7356 C 704.283 1.39419 4.35214 0
M  V30 7357 C 705.28 2.33143 4.64694 0
M  V30 7358 C 702.965 1.64674 4.74539 0
M  V30 7359 C 704.959 3.50385 5.32456 0
M  V30 7360 C 702.646 2.82202 5.42038 0
M  V30 7361 C 703.644 3.74881 5.70923 0
M  V30 7362 O 703.332 4.90351 6.37033 0
M  V30 7363 H 703.064 0.105708 0.667684 0
M  V30 7364 H 705.618 0.94488 1.82376 0
M  V30 7365 H 703.848 -0.661785 3.80995 0
M  V30 7366 H 705.537 -0.316213 4.04666 0
M  V30 7367 H 706.303 2.14887 4.34797 0
M  V30 7368 H 702.182 0.934007 4.51439 0
M  V30 7369 H 705.726 4.22743 5.54918 0
M  V30 7370 H 701.623 3.00376 5.71353 0
M  V30 7371 H 702.391 4.90128 6.55528 0
M  V30 7372 N 705.054 -1.51416 0.437162 0
M  V30 7373 C 706.284 -2.06204 -0.127859 0
M  V30 7374 C 706.692 -1.30463 -1.37026 0
M  V30 7375 O 706.035 -0.357516 -1.80187 0
M  V30 7376 C 706.097 -3.55783 -0.515632 0
M  V30 7377 C 705.761 -4.52776 0.619937 0
M  V30 7378 C 706.758 -4.98031 1.49201 0
M  V30 7379 C 704.443 -4.95878 0.800618 0
M  V30 7380 C 706.437 -5.85061 2.52947 0
M  V30 7381 C 704.124 -5.82699 1.84135 0
M  V30 7382 C 705.122 -6.27188 2.70416 0
M  V30 7383 O 704.81 -7.12284 3.72702 0
M  V30 7384 H 704.542 -0.675903 -0.011442 0
M  V30 7385 H 707.096 -1.95977 0.614986 0
M  V30 7386 H 705.326 -3.63793 -1.31118 0
M  V30 7387 H 707.015 -3.93087 -1.01179 0
M  V30 7388 H 707.781 -4.65426 1.36395 0
M  V30 7389 H 703.66 -4.60792 0.138617 0
M  V30 7390 H 707.204 -6.19708 3.20325 0
M  V30 7391 H 703.101 -6.14717 1.9696 0
M  V30 7392 H 703.869 -7.30462 3.69281 0
M  V30 7393 N 706.532 -0.168513 -1.56696 0
M  V30 7394 C 707.495 0.748928 -2.16619 0
M  V30 7395 C 708.495 1.16007 -1.11351 0
M  V30 7396 O 709.685 1.07748 -1.3688 0
M  V30 7397 C 706.817 2.01904 -2.74677 0
M  V30 7398 H 708.01 0.227317 -2.99037 0
M  V30 7399 H 705.563 0.0810372 -1.5609 0
M  V30 7400 H 706.298 2.58381 -1.95985 0
M  V30 7401 H 706.083 1.73323 -3.51712 0
M  V30 7402 H 707.573 2.67383 -3.20774 0
M  V30 7403 N 708.01 1.57248 0.105221 0
M  V30 7404 C 708.96 1.9777 1.1345 0
M  V30 7405 C 709.944 0.854654 1.36325 0
M  V30 7406 O 711.136 1.11844 1.37186 0
M  V30 7407 C 708.265 2.39717 2.45745 0
M  V30 7408 C 707.351 3.58686 2.26286 0
M  V30 7409 N 707.742 4.73942 1.76671 0
M  V30 7410 C 706.04 3.64586 2.56891 0
M  V30 7411 C 706.741 5.55923 1.71245 0
M  V30 7412 N 705.717 4.98803 2.16093 0
M  V30 7413 H 709.519 2.84336 0.743664 0
M  V30 7414 H 707.033 1.59359 0.312787 0
M  V30 7415 H 709.03 2.66971 3.20206 0
M  V30 7416 H 707.69 1.54523 2.85574 0
M  V30 7417 H 708.701 4.9689 1.46016 0
M  V30 7418 H 705.378 2.90031 3.00314 0
M  V30 7419 H 706.768 6.58398 1.34022 0
M  V30 7420 N 709.488 -0.375779 1.53054 0
M  V30 7421 C 710.735 -1.11948 1.68742 0
M  V30 7422 C 711.063 -1.89596 0.434015 0
M  V30 7423 O 710.318 -1.86787 -0.583867 0
M  V30 7424 C 710.617 -2.11356 2.88207 0
M  V30 7425 C 710.283 -1.50266 4.25124 0
M  V30 7426 C 708.945 -1.33333 4.62359 0
M  V30 7427 C 711.297 -1.05976 5.10312 0
M  V30 7428 C 708.625 -0.706765 5.82427 0
M  V30 7429 C 710.977 -0.447241 6.31017 0
M  V30 7430 C 709.641 -0.265314 6.66973 0
M  V30 7431 H 708.911 -0.409648 0.61747 0
M  V30 7432 H 711.558 -0.402492 1.87222 0
M  V30 7433 H 709.863 -2.89322 2.64197 0
M  V30 7434 H 711.56 -2.68833 2.97539 0
M  V30 7435 H 708.15 -1.64437 3.95801 0
M  V30 7436 H 712.334 -1.17855 4.82104 0
M  V30 7437 H 707.59 -0.554132 6.08884 0
M  V30 7438 H 711.764 -0.0958064 6.96334 0
M  V30 7439 H 709.391 0.222267 7.59875 0
M  V30 7440 N 710.966 -1.44241 -0.634997 0
M  V30 7441 C 712.382 -1.28043 -0.952742 0
M  V30 7442 C 712.582 -0.21338 -2.00367 0
M  V30 7443 O 711.638 0.402042 -2.49279 0
M  V30 7444 C 712.951 -2.65076 -1.41968 0
M  V30 7445 C 714.499 -2.72755 -1.53537 0
M  V30 7446 C 714.974 -4.10249 -2.03616 0
M  V30 7447 N 716.465 -4.12406 -2.10892 0
M  V30 7448 C 717.2 -5.15641 -2.50803 0
M  V30 7449 N 716.696 -6.29239 -2.89879 0
M  V30 7450 N 718.489 -5.02995 -2.50903 0
M  V30 7451 H 710.64 -2.12315 0.060098 0
M  V30 7452 H 712.903 -0.947326 -0.0357325 0
M  V30 7453 H 712.609 -3.44213 -0.721804 0
M  V30 7454 H 712.483 -2.91704 -2.39141 0
M  V30 7455 H 714.87 -1.93939 -2.22422 0
M  V30 7456 H 714.951 -2.49872 -0.547496 0
M  V30 7457 H 714.595 -4.8954 -1.35327 0
M  V30 7458 H 714.525 -4.30507 -3.03268 0
M  V30 7459 H 717.016 -3.30417 -1.83393 0
M  V30 7460 H 717.329 -7.03827 -3.19135 0
M  V30 7461 H 715.674 -6.32683 -2.8764 0
M  V30 7462 H 718.865 -4.13306 -2.19763 0
M  V30 7463 H 719.038 -5.83574 -2.81683 0
M  V30 7464 N 712.444 0.87505 -1.31075 0
M  V30 7465 C 713.69 1.63009 -1.20647 0
M  V30 7466 C 714.023 1.9276 0.236045 0
M  V30 7467 O 713.298 1.55559 1.16754 0
M  V30 7468 C 713.581 2.96357 -2.0456 0
M  V30 7469 C 713.434 2.73516 -3.57084 0
M  V30 7470 C 714.753 3.974 -1.89107 0
M  V30 7471 H 711.872 0.591518 -0.439631 0
M  V30 7472 H 714.514 1.0119 -1.60812 0
M  V30 7473 H 712.664 3.49119 -1.70435 0
M  V30 7474 H 714.336 2.27465 -4.01319 0
M  V30 7475 H 712.579 2.0784 -3.80769 0
M  V30 7476 H 713.25 3.68377 -4.11099 0
M  V30 7477 H 715.726 3.5383 -2.18961 0
M  V30 7478 H 714.602 4.88596 -2.5013 0
M  V30 7479 H 714.863 4.33794 -0.85296 0
M  V30 7480 N 713.922 1.13953 1.08869 0
M  V30 7481 C 715.147 0.928559 1.85452 0
M  V30 7482 C 715.572 -0.517642 1.80837 0
M  V30 7483 O 714.93 -1.36779 1.19001 0
M  V30 7484 C 714.978 1.42814 3.31114 0
M  V30 7485 O 714.082 0.617129 4.07756 0
M  V30 7486 H 713.423 0.33235 0.574839 0
M  V30 7487 H 715.953 1.5156 1.37443 0
M  V30 7488 H 715.963 1.43425 3.8196 0
M  V30 7489 H 714.638 2.48109 3.33788 0
M  V30 7490 H 713.215 0.679365 3.66659 0
M  V30 7491 N 715.4 -1.26948 0.933913 0
M  V30 7492 C 716.348 -2.2862 0.428463 0
M  V30 7493 C 717.342 -1.62144 -0.490464 0
M  V30 7494 O 718.548 -1.76167 -0.36948 0
M  V30 7495 H 714.923 -0.742363 0.120003 0
M  V30 7496 H 716.894 -2.68659 1.29865 0
M  V30 7497 C 715.643 -3.46423 -0.29774 0
M  V30 7498 H 714.966 -3.97792 0.400183 0
M  V30 7499 H 716.406 -4.19505 -0.615736 0
M  V30 7500 C 714.865 -3.01017 -1.51295 0
M  V30 7501 O 715.395 -3.05226 -2.61151 0
M  V30 7502 N 713.601 -2.56442 -1.36696 0
M  V30 7503 H 713.148 -2.53217 -0.473178 0
M  V30 7504 H 713.106 -2.26424 -2.18127 0
M  V30 7505 N 716.879 -0.700114 -1.41195 0
M  V30 7506 C 717.827 -0.0263301 -2.32585 0
M  V30 7507 C 718.821 0.763683 -1.51209 0
M  V30 7508 O 720.027 0.668793 -1.67114 0
M  V30 7509 H 716.402 0.0102869 -0.75193 0
M  V30 7510 H 718.373 -0.814087 -2.8708 0
M  V30 7511 C 717.122 0.892793 -3.36042 0
M  V30 7512 H 716.445 0.294306 -3.98715 0
M  V30 7513 H 717.885 1.33247 -4.02518 0
M  V30 7514 C 716.344 2.01109 -2.7029 0
M  V30 7515 O 716.874 3.10035 -2.55423 0
M  V30 7516 N 715.08 1.79015 -2.28915 0
M  V30 7517 H 714.627 0.904275 -2.41207 0
M  V30 7518 H 714.585 2.54022 -1.85257 0
M  V30 7519 N 718.357 1.51182 -0.445186 0
M  V30 7520 C 719.287 2.30821 0.352686 0
M  V30 7521 C 720.268 1.36576 1.01395 0
M  V30 7522 O 721.453 1.65497 1.01609 0
M  V30 7523 C 718.583 3.15593 1.44976 0
M  V30 7524 C 717.537 4.1818 0.911553 0
M  V30 7525 C 716.863 4.91523 2.10497 0
M  V30 7526 C 718.163 5.22266 -0.059418 0
M  V30 7527 H 719.857 2.97771 -0.311936 0
M  V30 7528 H 717.403 1.43201 -0.151461 0
M  V30 7529 H 719.356 3.70091 2.01521 0
M  V30 7530 H 718.08 2.4648 2.14278 0
M  V30 7531 H 716.739 3.64746 0.368264 0
M  V30 7532 H 716.387 4.18906 2.78437 0
M  V30 7533 H 716.087 5.60898 1.7512 0
M  V30 7534 H 717.611 5.48847 2.6758 0
M  V30 7535 H 719.025 5.71789 0.415985 0
M  V30 7536 H 717.422 5.99213 -0.326152 0
M  V30 7537 H 718.492 4.7461 -0.993631 0
M  V30 7538 N 719.835 0.176821 1.56605 0
M  V30 7539 C 720.765 -0.746841 2.21234 0
M  V30 7540 C 721.746 -1.23502 1.16967 0
M  V30 7541 O 722.931 -1.28718 1.45414 0
M  V30 7542 C 720.061 -1.97407 2.8574 0
M  V30 7543 C 719.015 -1.62153 3.96094 0
M  V30 7544 C 718.341 -2.92387 4.47676 0
M  V30 7545 C 719.641 -0.845353 5.15413 0
M  V30 7546 H 721.335 -0.208116 2.98676 0
M  V30 7547 H 718.881 -0.0986594 1.43662 0
M  V30 7548 H 720.834 -2.62531 3.2963 0
M  V30 7549 H 719.558 -2.53703 2.05676 0
M  V30 7550 H 718.217 -0.993964 3.52868 0
M  V30 7551 H 717.865 -3.46734 3.64396 0
M  V30 7552 H 717.565 -2.69551 5.22127 0
M  V30 7553 H 719.089 -3.5853 4.94255 0
M  V30 7554 H 720.503 -1.39929 5.55961 0
M  V30 7555 H 718.9 -0.715814 5.95815 0
M  V30 7556 H 719.97 0.157239 4.84645 0
M  V30 7557 N 721.313 -1.57302 -0.09688 0
M  V30 7558 C 722.223 -2.05258 -1.13606 0
M  V30 7559 C 723.239 -0.977137 -1.43972 0
M  V30 7560 O 724.415 -1.29018 -1.54649 0
M  V30 7561 C 721.48 -2.46593 -2.43706 0
M  V30 7562 C 720.541 -3.68322 -2.20538 0
M  V30 7563 C 719.774 -4.07676 -3.44435 0
M  V30 7564 O 719.997 -3.47141 -4.52603 0
M  V30 7565 O 718.931 -5.00641 -3.34129 0
M  V30 7566 H 722.757 -2.94069 -0.758752 0
M  V30 7567 H 720.342 -1.46164 -0.309263 0
M  V30 7568 H 722.224 -2.73814 -3.20318 0
M  V30 7569 H 720.899 -1.6092 -2.80867 0
M  V30 7570 H 719.806 -3.4622 -1.41713 0
M  V30 7571 H 721.139 -4.54769 -1.88271 0
M  V30 7572 N 722.791 0.367657 -1.53252 0
M  V30 7573 C 723.721 1.45632 -1.8252 0
M  V30 7574 C 724.702 1.55979 -0.678568 0
M  V30 7575 O 725.887 1.70581 -0.928217 0
M  V30 7576 C 723.017 2.82994 -2.01325 0
M  V30 7577 C 721.971 2.87473 -3.17086 0
M  V30 7578 C 721.297 4.2749 -3.21179 0
M  V30 7579 C 722.597 2.55182 -4.55719 0
M  V30 7580 H 724.291 1.21387 -2.73689 0
M  V30 7581 H 721.837 0.58251 -1.31692 0
M  V30 7582 H 723.79 3.59179 -2.20383 0
M  V30 7583 H 722.514 3.08622 -1.06864 0
M  V30 7584 H 721.173 2.13739 -2.97844 0
M  V30 7585 H 720.821 4.5019 -2.24361 0
M  V30 7586 H 720.521 4.31403 -3.98955 0
M  V30 7587 H 722.045 5.0555 -3.42419 0
M  V30 7588 H 723.459 3.21081 -4.74953 0
M  V30 7589 H 721.856 2.70414 -5.3572 0
M  V30 7590 H 722.926 1.5044 -4.60973 0
M  V30 7591 N 724.269 1.44576 0.627338 0
M  V30 7592 C 725.685 1.28546 0.945938 0
M  V30 7593 C 725.885 0.224003 2.00251 0
M  V30 7594 O 724.941 -0.388817 2.49488 0
M  V30 7595 C 726.254 2.65825 1.40561 0
M  V30 7596 C 727.802 2.73566 1.52088 0
M  V30 7597 C 728.277 4.11323 2.01438 0
M  V30 7598 N 729.768 4.13519 2.08702 0
M  V30 7599 C 730.503 5.16964 2.48065 0
M  V30 7600 N 729.999 6.30768 2.86538 0
M  V30 7601 N 731.792 5.04319 2.48232 0
M  V30 7602 H 723.943 2.1228 -0.0713567 0
M  V30 7603 H 726.206 0.947503 0.0307081 0
M  V30 7604 H 725.912 3.44591 0.703539 0
M  V30 7605 H 725.786 2.92969 2.37591 0
M  V30 7606 H 728.173 1.95116 2.21391 0
M  V30 7607 H 728.254 2.50159 0.534237 0
M  V30 7608 H 727.898 4.9025 1.32729 0
M  V30 7609 H 727.828 4.32109 3.0098 0
M  V30 7610 H 730.319 3.31385 1.81638 0
M  V30 7611 H 730.632 7.0551 3.15398 0
M  V30 7612 H 728.977 6.342 2.84281 0
M  V30 7613 H 732.168 4.14465 2.17569 0
M  V30 7614 H 732.341 5.85059 2.78585 0
M  V30 7615 N 725.747 -0.868086 1.31537 0
M  V30 7616 C 726.695 -1.99688 1.1928 0
M  V30 7617 C 727.689 -1.69101 0.100656 0
M  V30 7618 O 728.895 -1.78073 0.262677 0
M  V30 7619 H 725.27 -0.655032 0.369374 0
M  V30 7620 H 727.241 -2.07157 2.14776 0
M  V30 7621 C 725.99 -3.35338 0.918892 0
M  V30 7622 H 725.313 -3.59396 1.75142 0
M  V30 7623 H 726.753 -4.14909 0.873311 0
M  V30 7624 C 725.212 -3.34769 -0.378366 0
M  V30 7625 O 725.742 -3.76716 -1.39456 0
M  V30 7626 N 723.948 -2.87895 -0.39557 0
M  V30 7627 H 723.495 -2.53954 0.431889 0
M  V30 7628 H 723.453 -2.87897 -1.26344 0
M  V30 7629 N 727.225 -1.14528 -1.08264 0
M  V30 7630 C 728.155 -0.856356 -2.1723 0
M  V30 7631 C 729.136 0.189251 -1.69044 0
M  V30 7632 O 730.321 0.0456119 -1.94146 0
M  V30 7633 C 727.451 -0.334662 -3.45684 0
M  V30 7634 C 726.405 -1.31588 -4.0727 0
M  V30 7635 C 725.731 -0.653428 -5.30692 0
M  V30 7636 C 727.031 -2.67866 -4.48381 0
M  V30 7637 H 728.725 -1.76755 -2.41657 0
M  V30 7638 H 726.271 -0.851287 -1.16143 0
M  V30 7639 H 728.224 -0.120128 -4.21229 0
M  V30 7640 H 726.948 0.611967 -3.20815 0
M  V30 7641 H 725.607 -1.51661 -3.33758 0
M  V30 7642 H 725.255 0.299054 -5.0211 0
M  V30 7643 H 724.955 -1.30817 -5.72853 0
M  V30 7644 H 726.479 -0.448453 -6.08951 0
M  V30 7645 H 727.893 -2.51692 -5.15096 0
M  V30 7646 H 726.29 -3.29627 -5.01464 0
M  V30 7647 H 727.36 -3.24632 -3.60198 0
M  V30 7648 N 728.703 1.26451 -0.940633 0
M  V30 7649 C 729.949 1.94065 -0.58878 0
M  V30 7650 C 730.282 1.7363 0.869853 0
M  V30 7651 O 729.557 1.073 1.62225 0
M  V30 7652 C 729.84 3.47852 -0.931199 0
M  V30 7653 C 729.693 3.77575 -2.44453 0
M  V30 7654 C 731.012 4.37832 -0.446229 0
M  V30 7655 H 728.131 0.704827 -0.21538 0
M  V30 7656 H 730.773 1.4933 -1.17475 0
M  V30 7657 H 728.923 3.86085 -0.432539 0
M  V30 7658 H 730.595 3.49059 -3.01588 0
M  V30 7659 H 728.838 3.23671 -2.88825 0
M  V30 7660 H 729.509 4.85068 -2.63464 0
M  V30 7661 H 731.985 4.06822 -0.873778 0
M  V30 7662 H 730.861 5.44228 -0.714648 0
M  V30 7663 H 731.122 4.37239 0.653815 0
M  V30 7664 N 730.181 0.707592 1.40822 0
M  V30 7665 C 731.113 0.0105968 2.29198 0
M  V30 7666 C 732.126 -0.732035 1.45414 0
M  V30 7667 O 733.315 -0.580741 1.68789 0
M  V30 7668 C 730.415 -1.00921 3.23525 0
M  V30 7669 C 729.588 -0.333747 4.36125 0
M  V30 7670 C 728.647 -1.25783 5.10945 0
M  V30 7671 O 727.673 -0.745646 5.64295 0
M  V30 7672 N 728.875 -2.58947 5.19545 0
M  V30 7673 H 731.64 0.76938 2.89656 0
M  V30 7674 H 729.201 0.554579 1.52105 0
M  V30 7675 H 731.193 -1.6294 3.70449 0
M  V30 7676 H 729.763 -1.66942 2.6429 0
M  V30 7677 H 728.983 0.466518 3.9143 0
M  V30 7678 H 730.271 0.135444 5.0862 0
M  V30 7679 H 729.669 -3.03065 4.7767 0
M  V30 7680 H 728.226 -3.16131 5.70004 0
M  V30 7681 N 731.66 -1.50943 0.453197 0
M  V30 7682 C 732.906 -2.02512 -0.108082 0
M  V30 7683 C 733.239 -1.33574 -1.40967 0
M  V30 7684 O 732.514 -0.455671 -1.89087 0
M  V30 7685 C 732.797 -3.58759 -0.310453 0
M  V30 7686 C 732.65 -4.38293 1.0109 0
M  V30 7687 C 733.969 -4.26816 -1.07313 0
M  V30 7688 H 731.088 -0.73603 -0.0378064 0
M  V30 7689 H 733.73 -1.80433 0.595295 0
M  V30 7690 H 731.88 -3.77702 -0.909582 0
M  V30 7691 H 733.552 -4.30964 1.64523 0
M  V30 7692 H 731.795 -4.02745 1.61179 0
M  V30 7693 H 732.466 -5.45828 0.82315 0
M  V30 7694 H 734.942 -4.1224 -0.565473 0
M  V30 7695 H 733.818 -5.35989 -1.1835 0
M  V30 7696 H 734.079 -3.88757 -2.10525 0
M  V30 7697 N 733.138 -0.185124 -1.56509 0
M  V30 7698 C 734.101 0.72591 -2.17401 0
M  V30 7699 C 735.101 1.14819 -1.12575 0
M  V30 7700 O 736.291 1.0629 -1.38015 0
M  V30 7701 C 733.423 1.98979 -2.76803 0
M  V30 7702 H 734.616 0.195588 -2.99262 0
M  V30 7703 H 732.169 0.0644772 -1.56167 0
M  V30 7704 H 732.904 2.56287 -1.98714 0
M  V30 7705 H 732.689 1.69583 -3.53531 0
M  V30 7706 H 734.179 2.63966 -3.23592 0
M  V30 7707 N 734.616 1.57351 0.0885366 0
M  V30 7708 C 735.526 2.05858 1.12516 0
M  V30 7709 C 736.542 0.984758 1.43452 0
M  V30 7710 O 737.718 1.29836 1.53963 0
M  V30 7711 C 734.783 2.47882 2.42395 0
M  V30 7712 C 733.844 3.69487 2.18582 0
M  V30 7713 C 733.077 4.09497 3.42268 0
M  V30 7714 O 733.3 3.49536 4.50755 0
M  V30 7715 O 732.234 5.02406 3.31469 0
M  V30 7716 H 736.06 2.94467 0.743146 0
M  V30 7717 H 733.645 1.46326 0.301507 0
M  V30 7718 H 735.527 2.75509 3.18862 0
M  V30 7719 H 734.202 1.62408 2.8001 0
M  V30 7720 H 733.109 3.46967 1.39875 0
M  V30 7721 H 734.442 4.55761 1.85857 0
M  V30 7722 N 736.094 -0.359525 1.53444 0
M  V30 7723 C 737.024 -1.44662 1.8329 0
M  V30 7724 C 738.005 -1.55617 0.68683 0
M  V30 7725 O 739.19 -1.70086 0.93725 0
M  V30 7726 C 736.32 -2.81923 2.02822 0
M  V30 7727 C 735.274 -2.85787 3.18606 0
M  V30 7728 C 734.6 -4.25781 3.23442 0
M  V30 7729 C 735.9 -2.52762 4.57065 0
M  V30 7730 H 737.594 -1.19934 2.74329 0
M  V30 7731 H 735.14 -0.575517 1.31999 0
M  V30 7732 H 737.093 -3.58005 2.22285 0
M  V30 7733 H 735.817 -3.08051 1.085 0
M  V30 7734 H 734.476 -2.12157 2.98973 0
M  V30 7735 H 734.124 -4.48994 2.26745 0
M  V30 7736 H 733.824 -4.29281 4.01238 0
M  V30 7737 H 735.348 -5.03727 3.45096 0
M  V30 7738 H 736.762 -3.18557 4.76649 0
M  V30 7739 H 735.159 -2.67569 5.37147 0
M  V30 7740 H 736.229 -1.47993 4.61764 0
M  V30 7741 N 737.572 -1.44907 -0.619662 0
M  V30 7742 C 738.821 -1.47569 -1.37501 0
M  V30 7743 C 739.134 -0.116707 -1.95252 0
M  V30 7744 O 740.34 -0.020909 -2.71492 0
M  V30 7745 C 738.796 -2.59851 -2.49009 0
M  V30 7746 C 738.404 -4.02008 -1.97722 0
M  V30 7747 C 740.148 -2.71746 -3.2612 0
M  V30 7748 C 738.055 -5.05693 -3.0664 0
M  V30 7749 H 736.985 -0.549068 -0.51676 0
M  V30 7750 H 739.636 -1.71009 -0.665437 0
M  V30 7751 H 738.018 -2.29671 -3.22594 0
M  V30 7752 H 739.192 -4.41809 -1.30925 0
M  V30 7753 H 737.507 -3.94456 -1.33392 0
M  V30 7754 H 740.104 -3.46382 -4.07337 0
M  V30 7755 H 740.447 -1.77959 -3.76346 0
M  V30 7756 H 740.98 -3.01392 -2.5963 0
M  V30 7757 H 737.719 -6.01148 -2.61345 0
M  V30 7758 H 737.239 -4.70473 -3.72042 0
M  V30 7759 H 738.918 -5.29906 -3.71226 0
M  V30 7760 N 739.05 0.861098 -1.31996 0
M  V30 7761 C 740.296 1.61721 -1.22369 0
M  V30 7762 C 740.629 1.93 0.215587 0
M  V30 7763 O 739.904 1.56789 1.15098 0
M  V30 7764 C 740.187 2.9417 -2.07691 0
M  V30 7765 C 740.04 2.69714 -3.59965 0
M  V30 7766 C 741.359 3.95372 -1.93312 0
M  V30 7767 H 738.478 0.586822 -0.44588 0
M  V30 7768 H 741.12 0.994788 -1.61876 0
M  V30 7769 H 739.27 3.47292 -1.74128 0
M  V30 7770 H 740.942 2.23196 -4.03709 0
M  V30 7771 H 739.185 2.03789 -3.82952 0
M  V30 7772 H 739.856 3.63996 -4.14983 0
M  V30 7773 H 742.332 3.51487 -2.22701 0
M  V30 7774 H 741.208 4.85916 -2.55298 0
M  V30 7775 H 741.469 4.32865 -0.898922 0
M  V30 7776 N 740.528 1.15101 1.07655 0
M  V30 7777 C 741.944 0.893004 1.32279 0
M  V30 7778 C 742.144 -0.461701 1.96139 0
M  V30 7779 O 741.2 -1.20431 2.21929 0
M  V30 7780 C 742.513 2.03161 2.21689 0
M  V30 7781 C 744.061 2.06579 2.35147 0
M  V30 7782 C 744.536 3.19754 3.27905 0
M  V30 7783 N 746.027 3.19382 3.35484 0
M  V30 7784 C 746.762 4.03592 4.07309 0
M  V30 7785 N 746.258 4.97859 4.81776 0
M  V30 7786 N 748.051 3.91626 4.03219 0
M  V30 7787 H 740.202 2.02341 0.645886 0
M  V30 7788 H 742.465 0.882127 0.347211 0
M  V30 7789 H 742.171 3.00934 1.82021 0
M  V30 7790 H 742.045 1.96132 3.22199 0
M  V30 7791 H 744.432 1.09408 2.74069 0
M  V30 7792 H 744.513 2.17676 1.34353 0
M  V30 7793 H 744.157 4.17175 2.89702 0
M  V30 7794 H 744.087 3.05893 4.28645 0
M  V30 7795 H 746.578 2.51112 2.82403 0
M  V30 7796 H 746.891 5.58563 5.34067 0
M  V30 7797 H 745.236 5.0185 4.80803 0
M  V30 7798 H 748.427 3.17295 3.44154 0
M  V30 7799 H 748.6 4.57479 4.5893 0
M  V30 7800 N 742.006 -1.2595 0.947325 0
M  V30 7801 C 743.246 -1.95218 0.605743 0
M  V30 7802 C 743.61 -1.72624 -0.84054 0
M  V30 7803 O 744.811 -2.35748 -1.29136 0
M  V30 7804 C 743.082 -3.44654 0.94596 0
M  V30 7805 S 744.641 -4.32922 0.715849 0
M  V30 7806 H 741.459 -0.675159 0.222894 0
M  V30 7807 H 744.061 -1.52766 1.21995 0
M  V30 7808 H 742.765 -3.586 1.99585 0
M  V30 7809 H 742.296 -3.92082 0.321718 0
M  V30 7810 H 744.311 -4.94445 -0.416959 0
M  V30 7811 N 743.484 -0.715051 -1.40445 0
M  V30 7812 C 744.447 -0.0708726 -2.2909 0
M  V30 7813 C 745.447 0.687926 -1.45342 0
M  V30 7814 O 746.637 0.519908 -1.66261 0
M  V30 7815 C 743.769 0.909528 -3.28543 0
M  V30 7816 H 744.962 -0.851611 -2.87555 0
M  V30 7817 H 742.515 -0.479674 -1.48758 0
M  V30 7818 H 743.25 1.71734 -2.75096 0
M  V30 7819 H 743.035 0.368318 -3.90366 0
M  V30 7820 H 744.525 1.35744 -3.94922 0
M  V30 7821 N 744.962 1.50701 -0.461195 0
M  V30 7822 C 745.895 2.24948 0.383863 0
M  V30 7823 C 746.873 1.27851 1.00464 0
M  V30 7824 O 748.057 1.57049 1.04249 0
M  V30 7825 C 745.184 3.01818 1.537 0
M  V30 7826 C 744.23 4.13762 1.03457 0
M  V30 7827 S 745.063 5.35483 -0.0427485 0
M  V30 7828 C 746.219 6.15898 1.11449 0
M  V30 7829 H 746.452 2.96277 -0.246425 0
M  V30 7830 H 743.985 1.52428 -0.245961 0
M  V30 7831 H 745.943 3.467 2.19794 0
M  V30 7832 H 744.604 2.30034 2.13877 0
M  V30 7833 H 743.797 4.66914 1.89757 0
M  V30 7834 H 743.399 3.71265 0.4515 0
M  V30 7835 H 745.691 6.46431 2.02813 0
M  V30 7836 H 746.634 7.05359 0.622444 0
M  V30 7837 H 747.042 5.47777 1.36385 0
M  V30 7838 N 746.441 0.193421 1.56409 0
M  V30 7839 C 747.374 -0.767384 2.1491 0
M  V30 7840 C 748.352 -1.21075 1.08534 0
M  V30 7841 O 749.536 -1.29856 1.36637 0
M  V30 7842 C 746.663 -2.03615 2.70663 0
M  V30 7843 C 745.709 -1.73505 3.89613 0
M  V30 7844 S 746.542 -0.884645 5.28142 0
M  V30 7845 C 747.698 -2.1636 5.87315 0
M  V30 7846 H 747.931 -0.270053 2.96071 0
M  V30 7847 H 745.464 -0.0215546 1.54385 0
M  V30 7848 H 747.422 -2.7648 3.03429 0
M  V30 7849 H 746.083 -2.50461 1.89547 0
M  V30 7850 H 745.276 -2.67701 4.27027 0
M  V30 7851 H 744.878 -1.08723 3.57848 0
M  V30 7852 H 747.17 -3.11629 6.01576 0
M  V30 7853 H 748.113 -1.8338 6.83943 0
M  V30 7854 H 748.521 -2.29129 5.15907 0
M  V30 7855 N 747.919 -1.57396 -0.0801906 0
M  V30 7856 C 749.335 -1.53564 -0.434778 0
M  V30 7857 C 749.535 -0.912372 -1.79661 0
M  V30 7858 O 748.591 -0.511268 -2.4727 0
M  V30 7859 C 749.904 -2.98244 -0.383561 0
M  V30 7860 C 751.452 -3.09536 -0.46435 0
M  V30 7861 C 751.927 -4.55851 -0.443128 0
M  V30 7862 N 753.418 -4.60456 -0.503448 0
M  V30 7863 C 754.153 -5.71135 -0.509106 0
M  V30 7864 N 753.649 -6.91203 -0.47008 0
M  V30 7865 N 755.442 -5.59353 -0.555035 0
M  V30 7866 H 747.593 -1.96281 0.811635 0
M  V30 7867 H 749.856 -0.898041 0.303689 0
M  V30 7868 H 749.562 -3.47369 0.550236 0
M  V30 7869 H 749.436 -3.57705 -1.19694 0
M  V30 7870 H 751.823 -2.6039 -1.38857 0
M  V30 7871 H 751.904 -2.53 0.377445 0
M  V30 7872 H 751.548 -5.05653 0.477207 0
M  V30 7873 H 751.478 -5.10242 -1.30234 0
M  V30 7874 H 753.969 -3.74048 -0.538199 0
M  V30 7875 H 754.282 -7.7132 -0.478091 0
M  V30 7876 H 752.627 -6.93625 -0.436897 0
M  V30 7877 H 755.818 -4.64453 -0.583158 0
M  V30 7878 H 755.991 -6.4561 -0.555976 0
M  V30 7879 N 749.397 0.351382 -1.53633 0
M  V30 7880 C 750.344 1.43115 -1.81071 0
M  V30 7881 C 751.314 1.52601 -0.655913 0
M  V30 7882 O 752.499 1.68264 -0.89955 0
M  V30 7883 C 749.639 2.79874 -2.01903 0
M  V30 7884 C 748.752 2.79242 -3.29618 0
M  V30 7885 C 747.887 4.07667 -3.40559 0
M  V30 7886 C 746.926 4.01233 -4.62254 0
M  V30 7887 N 746.063 5.21334 -4.70271 0
M  V30 7888 H 750.903 1.19017 -2.73201 0
M  V30 7889 H 748.44 0.576691 -1.35324 0
M  V30 7890 H 750.398 3.5934 -2.11969 0
M  V30 7891 H 749.028 3.0234 -1.13094 0
M  V30 7892 H 748.08 1.91927 -3.28433 0
M  V30 7893 H 749.392 2.70363 -4.19172 0
M  V30 7894 H 748.546 4.95555 -3.50015 0
M  V30 7895 H 747.285 4.19317 -2.49047 0
M  V30 7896 H 746.29 3.11732 -4.52884 0
M  V30 7897 H 747.515 3.91173 -5.55122 0
M  V30 7898 H 745.461 5.33543 -3.81665 0
M  V30 7899 H 745.378 5.14681 -5.5375 0
M  V30 7900 H 746.646 6.11014 -4.84027 0
M  V30 7901 N 750.875 1.45233 0.611969 0
M  V30 7902 C 751.785 1.56098 1.7513 0
M  V30 7903 C 752.801 0.445646 1.68196 0
M  V30 7904 O 753.977 0.705718 1.88631 0
M  V30 7905 C 751.042 1.52052 3.11579 0
M  V30 7906 C 750.103 2.74589 3.29999 0
M  V30 7907 C 749.336 2.70726 4.59938 0
M  V30 7908 O 749.559 1.77806 5.41979 0
M  V30 7909 O 748.493 3.61864 4.80976 0
M  V30 7910 H 752.319 2.52392 1.68914 0
M  V30 7911 H 749.904 1.27695 0.775528 0
M  V30 7912 H 751.786 1.52387 3.92882 0
M  V30 7913 H 750.461 0.589085 3.18295 0
M  V30 7914 H 749.368 2.79817 2.48301 0
M  V30 7915 H 750.701 3.66843 3.28157 0
M  V30 7916 N 752.353 -0.854086 1.3245 0
M  V30 7917 C 753.578 -1.64597 1.26185 0
M  V30 7918 C 754.003 -1.87357 -0.167074 0
M  V30 7919 O 753.361 -1.42675 -1.11864 0
M  V30 7920 C 753.409 -2.98213 2.02734 0
M  V30 7921 O 752.513 -3.88784 1.37554 0
M  V30 7922 H 751.854 -0.50179 0.434859 0
M  V30 7923 H 754.384 -1.06372 1.74775 0
M  V30 7924 H 754.394 -3.4803 2.1293 0
M  V30 7925 H 753.069 -2.80969 3.06642 0
M  V30 7926 H 751.646 -3.4725 1.3591 0
M  V30 7927 N 753.831 -1.1567 -1.07043 0
M  V30 7928 C 755.247 -0.900006 -1.31803 0
M  V30 7929 C 755.447 0.451293 -1.96381 0
M  V30 7930 O 754.503 1.19252 -2.22565 0
M  V30 7931 C 755.816 -2.04334 -2.20609 0
M  V30 7932 C 757.364 -2.07823 -2.34048 0
M  V30 7933 C 757.839 -3.21488 -3.26204 0
M  V30 7934 N 759.33 -3.21156 -3.33786 0
M  V30 7935 C 760.065 -4.05746 -4.05163 0
M  V30 7936 N 759.561 -5.00407 -4.79129 0
M  V30 7937 N 761.354 -3.93759 -4.01136 0
M  V30 7938 H 753.505 -2.02681 -0.635146 0
M  V30 7939 H 755.768 -0.883956 -0.342528 0
M  V30 7940 H 755.474 -3.01895 -1.80423 0
M  V30 7941 H 755.348 -1.97838 -3.21154 0
M  V30 7942 H 757.735 -1.1086 -2.73485 0
M  V30 7943 H 757.816 -2.18386 -1.33197 0
M  V30 7944 H 757.46 -4.18706 -2.87485 0
M  V30 7945 H 757.39 -3.08162 -4.27017 0
M  V30 7946 H 759.881 -2.52606 -2.81067 0
M  V30 7947 H 760.194 -5.61387 -5.31097 0
M  V30 7948 H 758.539 -5.04393 -4.78135 0
M  V30 7949 H 761.73 -3.19115 -3.42466 0
M  V30 7950 H 761.903 -4.59906 -4.56498 0
M  V30 7951 N 755.309 1.25446 -0.953992 0
M  V30 7952 C 756.557 1.92762 -0.607227 0
M  V30 7953 C 756.878 1.7509 0.858399 0
M  V30 7954 O 756.148 1.11416 1.61132 0
M  V30 7955 H 754.728 0.713377 -0.221591 0
M  V30 7956 H 757.39 1.52625 -1.21209 0
M  V30 7957 H 756.486 3.00695 -0.835998 0
M  V30 7958 N 756.787 0.722489 1.40064 0
M  V30 7959 C 757.717 0.0892452 2.33329 0
M  V30 7960 C 758.698 -0.737992 1.53257 0
M  V30 7961 O 759.883 -0.685516 1.81698 0
M  V30 7962 C 757.013 -0.828139 3.37282 0
M  V30 7963 C 755.967 -0.106005 4.27869 0
M  V30 7964 C 755.293 -1.13957 5.22415 0
M  V30 7965 C 756.593 1.04395 5.11761 0
M  V30 7966 H 758.287 0.868269 2.86534 0
M  V30 7967 H 755.833 0.418982 1.3777 0
M  V30 7968 H 757.786 -1.28058 4.01471 0
M  V30 7969 H 756.51 -1.63914 2.82489 0
M  V30 7970 H 755.169 0.326683 3.65142 0
M  V30 7971 H 754.817 -1.9438 4.63924 0
M  V30 7972 H 754.517 -0.661233 5.83868 0
M  V30 7973 H 756.041 -1.59197 5.89482 0
M  V30 7974 H 757.455 0.670541 5.69365 0
M  V30 7975 H 755.852 1.4511 5.82291 0
M  V30 7976 H 756.922 1.87144 4.47331 0
M  V30 7977 N 758.265 -1.50454 0.469181 0
M  V30 7978 C 759.215 -2.25381 -0.344582 0
M  V30 7979 C 760.199 -1.28892 -0.963098 0
M  V30 7980 O 761.391 -1.53805 -0.875964 0
M  V30 7981 C 758.52 -3.12232 -1.4271 0
M  V30 7982 C 757.606 -4.16168 -0.816411 0
M  V30 7983 N 757.997 -5.05762 0.0621424 0
M  V30 7984 C 756.295 -4.32712 -1.08056 0
M  V30 7985 C 756.996 -5.80264 0.408519 0
M  V30 7986 N 755.972 -5.43171 -0.215827 0
M  V30 7987 H 759.774 -2.92016 0.332237 0
M  V30 7988 H 757.288 -1.59911 0.283209 0
M  V30 7989 H 759.285 -3.64514 -2.02324 0
M  V30 7990 H 757.945 -2.47145 -2.10593 0
M  V30 7991 H 758.956 -5.16105 0.430841 0
M  V30 7992 H 755.633 -3.78844 -1.75452 0
M  V30 7993 H 757.023 -6.62408 1.12539 0
M  V30 7994 N 759.743 -0.201713 -1.56304 0
M  V30 7995 C 760.99 0.435307 -1.97766 0
M  V30 7996 C 761.318 1.61169 -1.0888 0
M  V30 7997 O 760.573 1.95272 -0.12934 0
M  V30 7998 C 760.872 0.931432 -3.45049 0
M  V30 7999 C 760.538 -0.132287 -4.50706 0
M  V30 8000 C 759.2 -0.424552 -4.79323 0
M  V30 8001 C 761.552 -0.852703 -5.14177 0
M  V30 8002 C 758.88 -1.4421 -5.68701 0
M  V30 8003 C 761.232 -1.85944 -6.04655 0
M  V30 8004 C 759.896 -2.15884 -6.31625 0
M  V30 8005 H 759.166 0.15929 -0.723676 0
M  V30 8006 H 761.813 -0.300069 -1.89134 0
M  V30 8007 H 760.118 1.7452 -3.50785 0
M  V30 8008 H 761.815 1.43383 -3.74489 0
M  V30 8009 H 758.405 0.105671 -4.2847 0
M  V30 8010 H 762.589 -0.640139 -4.92154 0
M  V30 8011 H 757.845 -1.6799 -5.87869 0
M  V30 8012 H 762.019 -2.42286 -6.52894 0
M  V30 8013 H 759.646 -2.94875 -7.0068 0
M  V30 8014 N 761.222 1.57436 0.0718424 0
M  V30 8015 C 762.45 1.91474 0.783932 0
M  V30 8016 C 762.865 0.797669 1.71122 0
M  V30 8017 O 762.222 -0.228989 1.81058 0
M  V30 8018 C 762.273 3.25259 1.57761 0
M  V30 8019 O 761.994 4.3267 0.687596 0
M  V30 8020 C 763.495 3.7331 2.3907 0
M  V30 8021 H 760.715 0.632901 0.222885 0
M  V30 8022 H 763.259 2.04457 0.0421262 0
M  V30 8023 H 761.414 3.13804 2.27169 0
M  V30 8024 H 761.828 5.09641 1.23962 0
M  V30 8025 H 763.302 4.69551 2.90216 0
M  V30 8026 H 763.779 3.02318 3.18591 0
M  V30 8027 H 764.385 3.8771 1.74818 0
M  V30 8028 N 762.7 -0.34323 1.53817 0
M  V30 8029 C 763.63 -1.42709 1.84814 0
M  V30 8030 C 764.611 -1.5488 0.703297 0
M  V30 8031 O 765.796 -1.69082 0.955237 0
M  V30 8032 C 762.926 -2.79756 2.05801 0
M  V30 8033 C 761.88 -2.82392 3.21619 0
M  V30 8034 C 761.206 -4.22326 3.2794 0
M  V30 8035 C 762.506 -2.479 4.59721 0
M  V30 8036 H 764.2 -1.17018 2.75585 0
M  V30 8037 H 761.746 -0.561485 1.32602 0
M  V30 8038 H 763.699 -3.55627 2.26069 0
M  V30 8039 H 762.423 -3.06883 1.11761 0
M  V30 8040 H 761.082 -2.08974 3.01207 0
M  V30 8041 H 760.73 -4.46564 2.31494 0
M  V30 8042 H 760.43 -4.25001 4.05768 0
M  V30 8043 H 761.954 -5.00039 3.50419 0
M  V30 8044 H 763.368 -3.13484 4.80001 0
M  V30 8045 H 761.765 -2.61857 5.39954 0
M  V30 8046 H 762.835 -1.43087 4.63308 0
M  V30 8047 N 764.178 -1.45556 -0.604258 0
M  V30 8048 C 765.455 -1.40221 -1.36373 0
M  V30 8049 C 765.835 -0.0745195 -2.10968 0
M  V30 8050 O 765.183 0.943594 -2.08107 0
M  V30 8051 C 765.393 -2.61807 -2.30777 0
M  V30 8052 C 766.741 -3.07037 -2.93281 0
M  V30 8053 O 767.765 -2.62203 -2.41097 0
M  V30 8054 O 766.624 -3.8485 -3.88011 0
M  V30 8055 H 763.718 -0.556602 -0.611656 0
M  V30 8056 H 766.264 -1.57689 -0.627069 0
M  V30 8057 H 765.036 -3.50017 -1.74939 0
M  V30 8058 H 764.659 -2.46688 -3.11818 0
M  V30 8059 N 765.656 0.84705 -1.32902 0
M  V30 8060 C 766.886 1.63166 -1.26729 0
M  V30 8061 C 767.294 1.88474 0.165595 0
M  V30 8062 O 766.637 1.45947 1.11558 0
M  V30 8063 C 766.699 3.0103 -1.96522 0
M  V30 8064 C 766.363 2.9873 -3.45846 0
M  V30 8065 C 767.36 2.75032 -4.41196 0
M  V30 8066 C 765.045 3.19125 -3.87898 0
M  V30 8067 C 767.039 2.71743 -5.76571 0
M  V30 8068 C 764.726 3.15462 -5.2338 0
M  V30 8069 C 765.724 2.91801 -6.17528 0
M  V30 8070 O 765.412 2.88027 -7.5053 0
M  V30 8071 H 765.144 0.51469 -0.438258 0
M  V30 8072 H 767.698 1.06383 -1.75704 0
M  V30 8073 H 765.928 3.59634 -1.42128 0
M  V30 8074 H 767.617 3.61821 -1.83958 0
M  V30 8075 H 768.383 2.59034 -4.10032 0
M  V30 8076 H 764.262 3.36565 -3.15032 0
M  V30 8077 H 767.806 2.53194 -6.5003 0
M  V30 8078 H 763.703 3.31006 -5.54171 0
M  V30 8079 H 764.471 3.03927 -7.59981 0
M  V30 8080 N 767.134 1.16236 1.06428 0
M  V30 8081 C 768.545 0.950942 1.60667 0
M  V30 8082 C 768.896 -0.505491 1.89576 0
M  V30 8083 O 768.021 -1.37843 1.66818 0
M  V30 8084 C 768.616 1.71982 2.91904 0
M  V30 8085 C 767.175 1.55342 3.4285 0
M  V30 8086 C 766.322 1.72942 2.16763 0
M  V30 8087 H 769.273 1.31126 0.893959 0
M  V30 8088 H 769.294 1.19483 3.61253 0
M  V30 8089 H 768.806 2.77978 2.70831 0
M  V30 8090 H 766.907 0.5178 3.68985 0
M  V30 8091 H 767.02 2.33643 4.18267 0
M  V30 8092 H 765.384 1.15673 2.26918 0
M  V30 8093 H 766.167 2.80324 1.98175 0
M  V30 8094 N 768.612 -1.24939 0.960631 0
M  V30 8095 C 769.522 -2.29374 0.492435 0
M  V30 8096 C 770.538 -1.68262 -0.443154 0
M  V30 8097 O 771.714 -1.98875 -0.31793 0
M  V30 8098 C 768.779 -3.46023 -0.216626 0
M  V30 8099 C 767.84 -4.22557 0.757915 0
M  V30 8100 C 767.073 -5.33636 0.0825969 0
M  V30 8101 O 767.296 -5.59084 -1.13054 0
M  V30 8102 O 766.23 -5.96939 0.771177 0
M  V30 8103 H 770.056 -2.71525 1.36044 0
M  V30 8104 H 767.641 -1.30499 0.72735 0
M  V30 8105 H 769.523 -4.16885 -0.615241 0
M  V30 8106 H 768.198 -3.05862 -1.05971 0
M  V30 8107 H 767.105 -3.54099 1.20685 0
M  V30 8108 H 768.438 -4.66516 1.5692 0
M  V30 8109 N 770.09 -0.729906 -1.39679 0
M  V30 8110 C 771.02 -0.101618 -2.33279 0
M  V30 8111 C 772.001 0.729854 -1.53646 0
M  V30 8112 O 773.186 0.67587 -1.82059 0
M  V30 8113 C 770.316 0.81024 -3.37716 0
M  V30 8114 C 769.27 0.0833126 -4.27919 0
M  V30 8115 C 768.596 1.11185 -5.23012 0
M  V30 8116 C 769.896 -1.07107 -5.112 0
M  V30 8117 H 771.59 -0.883452 -2.86069 0
M  V30 8118 H 769.136 -0.426283 -1.37546 0
M  V30 8119 H 771.089 1.25927 -4.02145 0
M  V30 8120 H 769.813 1.62413 -2.83354 0
M  V30 8121 H 768.472 -0.346043 -3.64963 0
M  V30 8122 H 768.12 1.91917 -4.64948 0
M  V30 8123 H 767.82 0.63026 -5.8421 0
M  V30 8124 H 769.344 1.56068 -5.90318 0
M  V30 8125 H 770.758 -0.700726 -5.69002 0
M  V30 8126 H 769.155 -1.48196 -5.81514 0
M  V30 8127 H 770.225 -1.89513 -4.46332 0
M  V30 8128 N 771.568 1.50203 -0.477153 0
M  V30 8129 C 772.498 2.31517 0.303646 0
M  V30 8130 C 773.479 1.38696 0.984753 0
M  V30 8131 O 774.664 1.67615 0.980758 0
M  V30 8132 C 771.794 3.18598 1.38249 0
M  V30 8133 C 770.748 4.2002 0.822645 0
M  V30 8134 C 770.074 4.95878 2.00024 0
M  V30 8135 C 771.374 5.22023 -0.170185 0
M  V30 8136 H 773.068 2.97042 -0.375027 0
M  V30 8137 H 770.614 1.42848 -0.181802 0
M  V30 8138 H 772.567 3.74282 1.93625 0
M  V30 8139 H 771.291 2.5097 2.09002 0
M  V30 8140 H 769.95 3.65445 0.290813 0
M  V30 8141 H 769.598 4.24717 2.69489 0
M  V30 8142 H 769.298 5.64487 1.63183 0
M  V30 8143 H 770.822 5.54399 2.55878 0
M  V30 8144 H 772.236 5.72543 0.294606 0
M  V30 8145 H 770.633 5.98386 -0.453181 0
M  V30 8146 H 771.703 4.72396 -1.09408 0
M  V30 8147 N 773.046 0.209999 1.56195 0
M  V30 8148 C 774.274 -0.429996 2.02382 0
M  V30 8149 C 774.689 -1.54159 1.08998 0
M  V30 8150 O 774.046 -1.82239 0.0974856 0
M  V30 8151 C 774.097 -0.972433 3.48175 0
M  V30 8152 O 773.818 0.0948231 4.37997 0
M  V30 8153 C 775.319 -1.68683 4.09952 0
M  V30 8154 H 772.539 -0.106475 0.662498 0
M  V30 8155 H 775.083 0.323072 2.01932 0
M  V30 8156 H 773.238 -1.67582 3.49278 0
M  V30 8157 H 773.652 -0.31113 5.23576 0
M  V30 8158 H 775.126 -2.01851 5.13771 0
M  V30 8159 H 775.603 -2.59587 3.54276 0
M  V30 8160 H 776.209 -1.02893 4.12666 0
M  V30 8161 N 774.524 -1.57472 -0.0634922 0
M  V30 8162 C 775.474 -2.00709 -1.08166 0
M  V30 8163 C 776.458 -0.890498 -1.34011 0
M  V30 8164 O 777.65 -1.15441 -1.34173 0
M  V30 8165 C 774.779 -2.46148 -2.39303 0
M  V30 8166 C 773.865 -3.64559 -2.16697 0
M  V30 8167 N 774.256 -4.78459 -1.64043 0
M  V30 8168 C 772.554 -3.71269 -2.47135 0
M  V30 8169 C 773.255 -5.60268 -1.56445 0
M  V30 8170 N 772.231 -5.04357 -2.02792 0
M  V30 8171 H 776.033 -2.86208 -0.668016 0
M  V30 8172 H 773.547 -1.60133 -0.270426 0
M  V30 8173 H 775.544 -2.75367 -3.13016 0
M  V30 8174 H 774.204 -1.62041 -2.81377 0
M  V30 8175 H 775.215 -5.00587 -1.32791 0
M  V30 8176 H 771.892 -2.97891 -2.92518 0
M  V30 8177 H 773.282 -6.6172 -1.16519 0
M  V30 8178 N 776.003 0.335068 -1.53997 0
M  V30 8179 C 777.228 1.09859 -1.75914 0
M  V30 8180 C 777.653 1.81308 -0.500915 0
M  V30 8181 O 777.011 1.72854 0.54693 0
M  V30 8182 C 777.059 2.08122 -2.94478 0
M  V30 8183 O 776.163 3.15805 -2.65219 0
M  V30 8184 H 775.504 0.317313 -0.583274 0
M  V30 8185 H 778.034 0.382872 -2.00986 0
M  V30 8186 H 778.044 2.51195 -3.21504 0
M  V30 8187 H 776.719 1.55517 -3.8573 0
M  V30 8188 H 775.296 2.77489 -2.49107 0
M  V30 8189 N 777.481 1.45874 0.596531 0
M  V30 8190 C 778.729 1.5017 1.35253 0
M  V30 8191 C 779.05 0.149246 1.94428 0
M  V30 8192 O 778.32 -0.82268 1.77789 0
M  V30 8193 H 776.9 0.553052 0.502138 0
M  V30 8194 H 779.562 1.81908 0.699671 0
M  V30 8195 H 778.658 2.24671 2.16632 0
M  V30 8196 N 778.959 -0.83999 1.33349 0
M  V30 8197 C 780.37 -1.41139 1.22216 0
M  V30 8198 C 780.721 -1.95551 -0.159398 0
M  V30 8199 O 779.846 -1.88721 -1.05893 0
M  V30 8200 C 780.441 -2.56564 2.21269 0
M  V30 8201 C 779 -3.09661 2.13979 0
M  V30 8202 C 778.147 -1.82457 2.08818 0
M  V30 8203 H 781.098 -0.645853 1.44964 0
M  V30 8204 H 781.119 -3.34163 1.81976 0
M  V30 8205 H 780.631 -2.16932 3.21811 0
M  V30 8206 H 778.732 -3.53841 1.16736 0
M  V30 8207 H 778.845 -3.6991 3.04472 0
M  V30 8208 H 777.209 -2.0266 1.54276 0
M  V30 8209 H 777.992 -1.45022 3.11165 0
M  V30 8210 N 780.437 -1.16799 -1.0581 0
M  V30 8211 C 781.662 -0.977402 -1.82925 0
M  V30 8212 C 782.087 0.469514 -1.82146 0
M  V30 8213 O 781.445 1.33576 -1.22585 0
M  V30 8214 C 781.493 -1.51543 -3.27211 0
M  V30 8215 O 780.597 -0.725021 -4.05977 0
M  V30 8216 H 779.938 -0.347474 -0.565825 0
M  V30 8217 H 782.468 -1.55151 -1.33376 0
M  V30 8218 H 782.478 -1.53502 -3.78023 0
M  V30 8219 H 781.153 -2.56872 -3.27093 0
M  V30 8220 H 779.73 -0.77634 -3.64729 0
M  V30 8221 N 781.915 1.24427 -0.967243 0
M  V30 8222 C 783.164 1.91789 -0.624478 0
M  V30 8223 C 783.477 1.76448 0.844129 0
M  V30 8224 O 784.683 2.38495 1.2974 0
M  V30 8225 C 783.139 3.43743 -1.06626 0
M  V30 8226 C 782.747 3.67771 -2.55829 0
M  V30 8227 C 784.491 4.16958 -0.79662 0
M  V30 8228 C 782.398 5.13293 -2.93742 0
M  V30 8229 H 781.328 0.71811 -0.229856 0
M  V30 8230 H 783.979 1.41081 -1.17339 0
M  V30 8231 H 782.361 3.93484 -0.445663 0
M  V30 8232 H 783.535 3.28631 -3.23015 0
M  V30 8233 H 781.85 3.07841 -2.80398 0
M  V30 8234 H 784.447 5.24171 -1.05589 0
M  V30 8235 H 784.79 4.15442 0.267163 0
M  V30 8236 H 785.323 3.73164 -1.37816 0
M  V30 8237 H 782.062 5.19931 -3.9919 0
M  V30 8238 H 781.582 5.53433 -2.3124 0
M  V30 8239 H 783.261 5.81521 -2.83623 0
M  V30 8240 N 783.393 0.737304 1.3929 0
M  V30 8241 C 784.323 0.113988 2.33222 0
M  V30 8242 C 785.304 -0.721695 1.54031 0
M  V30 8243 O 786.489 -0.666206 1.82415 0
M  V30 8244 C 783.619 -0.792319 3.38141 0
M  V30 8245 C 782.573 -0.0606178 4.27957 0
M  V30 8246 C 781.899 -1.08409 5.23595 0
M  V30 8247 C 783.199 1.09817 5.10625 0
M  V30 8248 H 784.893 0.898611 2.85596 0
M  V30 8249 H 782.439 0.433571 1.37318 0
M  V30 8250 H 784.392 -1.23793 4.02807 0
M  V30 8251 H 783.116 -1.60908 2.84211 0
M  V30 8252 H 781.775 0.365393 3.64775 0
M  V30 8253 H 781.423 -1.89449 4.6596 0
M  V30 8254 H 781.123 -0.599269 5.84536 0
M  V30 8255 H 782.647 -1.52936 5.91137 0
M  V30 8256 H 784.061 0.730892 5.68622 0
M  V30 8257 H 782.458 1.51278 5.80719 0
M  V30 8258 H 783.528 1.91878 4.45321 0
M  V30 8259 N 784.871 -1.49948 0.485112 0
M  V30 8260 C 786.096 -2.073 -0.0645059 0
M  V30 8261 C 786.521 -1.345 -1.31497 0
M  V30 8262 O 785.879 -0.39687 -1.76903 0
M  V30 8263 C 785.927 -3.59201 -0.317304 0
M  V30 8264 O 785.031 -3.88085 -1.39514 0
M  V30 8265 H 784.372 -0.663723 0.0191822 0
M  V30 8266 H 786.902 -1.92963 0.680179 0
M  V30 8267 H 786.912 -4.04227 -0.553604 0
M  V30 8268 H 785.587 -4.11602 0.596387 0
M  V30 8269 H 784.164 -3.54885 -1.14504 0
M  V30 8270 N 786.349 -0.21828 -1.56081 0
M  V30 8271 C 787.76 0.290166 -1.84431 0
M  V30 8272 C 788.111 1.59712 -1.13958 0
M  V30 8273 O 787.236 2.12516 -0.40815 0
M  V30 8274 C 787.831 0.53325 -3.34577 0
M  V30 8275 C 786.39 0.986011 -3.63256 0
M  V30 8276 C 785.537 0.0472798 -2.7726 0
M  V30 8277 H 788.488 -0.441548 -1.52434 0
M  V30 8278 H 788.509 1.37967 -3.54606 0
M  V30 8279 H 788.021 -0.418137 -3.85841 0
M  V30 8280 H 786.122 1.95087 -3.17446 0
M  V30 8281 H 786.235 0.862684 -4.71269 0
M  V30 8282 H 784.599 0.553471 -2.48614 0
M  V30 8283 H 785.382 -0.898966 -3.31321 0
M  V30 8284 N 787.827 1.57504 0.0551401 0
M  V30 8285 C 789.075 1.87684 0.74962 0
M  V30 8286 C 789.396 0.812547 1.77264 0
M  V30 8287 O 788.666 -0.15694 1.9527 0
M  V30 8288 H 787.246 0.6926 0.279846 0
M  V30 8289 H 789.908 1.94881 0.0272745 0
M  V30 8290 H 789.004 2.85734 1.25548 0
M  V30 8291 N 789.305 -0.326896 1.54172 0
M  V30 8292 C 790.253 -1.42232 1.84046 0
M  V30 8293 C 791.247 -1.53705 0.712115 0
M  V30 8294 O 792.453 -1.56131 0.895724 0
M  V30 8295 H 788.828 -0.474568 0.583343 0
M  V30 8296 H 790.799 -1.14259 2.75658 0
M  V30 8297 C 789.548 -2.78502 2.08163 0
M  V30 8298 H 788.871 -2.70447 2.94446 0
M  V30 8299 H 790.311 -3.54228 2.33021 0
M  V30 8300 C 788.77 -3.25415 0.872152 0
M  V30 8301 O 789.3 -4.01621 0.0797648 0
M  V30 8302 N 787.506 -2.82418 0.684716 0
M  V30 8303 H 787.053 -2.20566 1.33072 0
M  V30 8304 H 787.011 -3.14159 -0.123031 0
M  V30 8305 N 790.784 -1.46188 -0.588786 0
M  V30 8306 C 791.734 -1.5271 -1.69303 0
M  V30 8307 C 792.718 -0.388578 -1.56137 0
M  V30 8308 O 793.91 -0.636616 -1.65155 0
M  V30 8309 C 791.039 -1.51457 -3.08084 0
M  V30 8310 C 790.125 -2.70581 -3.26568 0
M  V30 8311 N 790.516 -3.9555 -3.15236 0
M  V30 8312 C 788.814 -2.66676 -3.57491 0
M  V30 8313 C 789.515 -4.75157 -3.35561 0
M  V30 8314 N 788.491 -4.06927 -3.60432 0
M  V30 8315 H 792.293 -2.47136 -1.59063 0
M  V30 8316 H 789.807 -1.41743 -0.792632 0
M  V30 8317 H 791.804 -1.54216 -3.87328 0
M  V30 8318 H 790.464 -0.581036 -3.19459 0
M  V30 8319 H 791.475 -4.2689 -2.93232 0
M  V30 8320 H 788.152 -1.82317 -3.75588 0
M  V30 8321 H 789.542 -5.84126 -3.32034 0
M  V30 8322 N 792.262 0.832906 -1.33792 0
M  V30 8323 C 793.492 1.61813 -1.28453 0
M  V30 8324 C 793.9 1.88639 0.145595 0
M  V30 8325 O 793.243 1.47122 1.10004 0
M  V30 8326 C 793.305 2.98929 -1.99704 0
M  V30 8327 C 792.969 2.95045 -3.48995 0
M  V30 8328 C 793.966 2.70337 -4.44088 0
M  V30 8329 C 791.651 3.14993 -3.91261 0
M  V30 8330 C 793.645 2.65612 -5.79421 0
M  V30 8331 C 791.332 3.09893 -5.26697 0
M  V30 8332 C 792.33 2.85235 -6.20588 0
M  V30 8333 O 792.018 2.8005 -7.53543 0
M  V30 8334 H 791.75 0.510013 -0.443693 0
M  V30 8335 H 794.304 1.04514 -1.76822 0
M  V30 8336 H 792.534 3.58106 -1.45935 0
M  V30 8337 H 794.223 3.59849 -1.87786 0
M  V30 8338 H 794.989 2.54671 -4.12756 0
M  V30 8339 H 790.868 3.33204 -3.18584 0
M  V30 8340 H 794.412 2.46285 -6.52679 0
M  V30 8341 H 790.309 3.2511 -5.5765 0
M  V30 8342 H 791.077 2.95849 -7.63162 0
M  V30 8343 N 793.74 1.17359 1.05189 0
M  V30 8344 C 794.989 0.956412 1.77583 0
M  V30 8345 C 795.302 -0.516018 1.88671 0
M  V30 8346 O 796.508 -0.851401 2.57805 0
M  V30 8347 C 794.964 1.66203 3.19225 0
M  V30 8348 C 794.572 3.17299 3.16267 0
M  V30 8349 C 796.316 1.52725 3.96075 0
M  V30 8350 C 794.223 3.8055 4.52698 0
M  V30 8351 H 793.153 0.354204 0.665624 0
M  V30 8352 H 795.804 1.40612 1.17901 0
M  V30 8353 H 794.186 1.14006 3.79234 0
M  V30 8354 H 795.36 3.76431 2.65776 0
M  V30 8355 H 793.675 3.3079 2.52917 0
M  V30 8356 H 796.272 1.97351 4.96947 0
M  V30 8357 H 796.615 0.477803 4.13549 0
M  V30 8358 H 797.148 2.02139 3.42614 0
M  V30 8359 H 793.887 4.85492 4.4043 0
M  V30 8360 H 793.407 3.26206 5.03339 0
M  V30 8361 H 795.086 3.82757 5.21638 0
M  V30 8362 N 795.218 -1.23913 0.973828 0
M  V30 8363 C 796.166 -2.27141 0.50098 0
M  V30 8364 C 797.16 -1.63623 -0.438631 0
M  V30 8365 O 798.366 -1.77253 -0.313247 0
M  V30 8366 H 794.741 -0.73817 0.14356 0
M  V30 8367 H 796.712 -2.64392 1.38346 0
M  V30 8368 C 795.461 -3.47195 -0.187377 0
M  V30 8369 H 794.784 -3.96318 0.526535 0
M  V30 8370 H 796.224 -4.21252 -0.481962 0
M  V30 8371 C 794.683 -3.05678 -1.41642 0
M  V30 8372 O 795.213 -3.1338 -2.51309 0
M  V30 8373 N 793.419 -2.60661 -1.28469 0
M  V30 8374 H 792.966 -2.54594 -0.39238 0
M  V30 8375 H 792.924 -2.33249 -2.10813 0
M  V30 8376 N 796.696 -0.74468 -1.38897 0
M  V30 8377 C 798.112 -0.421302 -1.53939 0
M  V30 8378 C 798.312 1.06668 -1.70951 0
M  V30 8379 O 797.368 1.85278 -1.71547 0
M  V30 8380 C 798.681 -1.21278 -2.75159 0
M  V30 8381 C 800.229 -1.20196 -2.89001 0
M  V30 8382 C 800.704 -1.97621 -4.13171 0
M  V30 8383 N 802.195 -1.94836 -4.2023 0
M  V30 8384 C 802.93 -2.51545 -5.15279 0
M  V30 8385 N 802.426 -3.1693 -6.16058 0
M  V30 8386 N 804.219 -2.41524 -5.07565 0
M  V30 8387 H 796.37 -1.70914 -1.26103 0
M  V30 8388 H 798.633 -0.724058 -0.611919 0
M  V30 8389 H 798.339 -2.26609 -2.68963 0
M  V30 8390 H 798.213 -0.823677 -3.68097 0
M  V30 8391 H 800.6 -0.156742 -2.94683 0
M  V30 8392 H 800.681 -1.63051 -1.97099 0
M  V30 8393 H 800.325 -3.02149 -4.0825 0
M  V30 8394 H 800.255 -1.52166 -5.04136 0
M  V30 8395 H 802.746 -1.4721 -3.48048 0
M  V30 8396 H 803.059 -3.57644 -6.85062 0
M  V30 8397 H 801.404 -3.21023 -6.16417 0
M  V30 8398 H 804.595 -1.90077 -4.27771 0
M  V30 8399 H 804.768 -2.86016 -5.81462 0
M  V30 8400 O 798.213 1.48503 -0.634761 0
M  V30 8401 H 798.904 1.93081 -0.154671 0
M  V30 END ATOM
M  V30 BEGIN BOND
M  V30 END BOND
M  V30 END CTAB
M  END
$$$$
