drugbank_target|P10997 Islet amyloid polypeptide (DB09130)
 OpenBabel12092119433D

  0  0  0     0  0            999 V3000
M  V30 BEGIN CTAB
M  V30 COUNTS 1412 1422 0 0 0
M  V30 BEGIN ATOM
M  V30 1 H -0.908 1.98254 -0.117106 0
M  V30 2 N 0 1.576 0 0
M  V30 3 C 0.933 2.03868 1.02534 0
M  V30 4 C 1.911 0.928543 1.3348 0
M  V30 5 O 3.095 1.19667 1.45644 0
M  V30 6 C 0.222 2.43627 2.35294 0
M  V30 7 C -0.732 3.65373 2.2001 0
M  V30 8 S 0.101 5.13292 1.52614 0
M  V30 9 C 1.257 5.56322 2.86805 0
M  V30 10 H 1.49 2.90518 0.631377 0
M  V30 11 H -0.977 1.52953 0.210867 0
M  V30 12 H 0.981 2.67203 3.11629 0
M  V30 13 H -0.358 1.57376 2.7183 0
M  V30 14 H -1.165 3.90944 3.18086 0
M  V30 15 H -1.563 3.418 1.51819 0
M  V30 16 H 0.729 5.58782 3.83104 0
M  V30 17 H 1.672 6.56266 2.65933 0
M  V30 18 H 2.08 4.83886 2.90714 0
M  V30 19 N 1.4781 -0.272755 1.55222 0
M  V30 20 C 2.7261 -1.00234 1.75492 0
M  V30 21 C 3.0471 -1.8681 0.5592 0
M  V30 22 O 2.3171 -1.91215 -0.425882 0
M  V30 23 H 0.8971 -0.373076 0.647166 0
M  V30 24 H 3.5591 -0.296926 1.92625 0
M  V30 25 H 2.6551 -1.63913 2.65592 0
M  V30 26 N 2.9562 -1.48159 -0.537278 0
M  V30 27 C 4.2052 -1.5506 -1.28993 0
M  V30 28 C 4.5182 -0.226211 -1.94288 0
M  V30 29 O 5.7242 -0.173395 -2.70946 0
M  V30 30 C 4.1802 -2.73429 -2.34018 0
M  V30 31 C 3.7882 -4.1248 -1.74825 0
M  V30 32 C 5.5322 -2.89638 -3.10339 0
M  V30 33 C 3.4392 -5.22121 -2.77747 0
M  V30 34 H 2.3692 -0.577231 -0.485098 0
M  V30 35 H 5.0202 -1.74478 -0.568317 0
M  V30 36 H 3.4022 -2.47431 -3.09182 0
M  V30 37 H 4.5762 -4.48466 -1.05899 0
M  V30 38 H 2.8912 -4.01327 -1.11022 0
M  V30 39 H 5.4882 -3.68718 -3.87235 0
M  V30 40 H 5.8312 -1.9882 -3.65754 0
M  V30 41 H 6.3642 -3.15502 -2.42288 0
M  V30 42 H 3.1032 -6.1488 -2.27161 0
M  V30 43 H 2.6232 -4.90631 -3.45024 0
M  V30 44 H 4.3022 -5.49924 -3.4087 0
M  V30 45 N 4.4343 0.785586 -1.36625 0
M  V30 46 C 5.3643 1.91259 -1.33949 0
M  V30 47 C 6.3453 1.68795 -0.210325 0
M  V30 48 O 7.5303 1.89854 -0.408561 0
M  V30 49 C 4.6603 3.28339 -1.13186 0
M  V30 50 C 3.6143 3.65335 -2.22967 0
M  V30 51 C 2.9403 5.00806 -1.87342 0
M  V30 52 C 4.2403 3.7352 -3.65075 0
M  V30 53 H 5.9343 1.93755 -2.28253 0
M  V30 54 H 3.4803 0.930788 -1.09874 0
M  V30 55 H 5.4333 4.06804 -1.09948 0
M  V30 56 H 4.1573 3.2624 -0.153332 0
M  V30 57 H 2.8163 2.89169 -2.25337 0
M  V30 58 H 2.4643 4.95233 -0.880545 0
M  V30 59 H 2.1643 5.26529 -2.60846 0
M  V30 60 H 3.6883 5.81687 -1.85667 0
M  V30 61 H 5.1023 4.42168 -3.64911 0
M  V30 62 H 3.4993 4.10731 -4.37516 0
M  V30 63 H 4.5693 2.74527 -3.99703 0
M  V30 64 N 5.9124 1.20967 1.01018 0
M  V30 65 C 6.8594 0.964281 2.09691 0
M  V30 66 C 7.8294 -0.107853 1.65749 0
M  V30 67 O 9.0144 0.0381987 1.90762 0
M  V30 68 C 6.1544 0.52943 3.41015 0
M  V30 69 C 5.2674 1.67043 3.98398 0
M  V30 70 C 4.4024 1.18525 5.17808 0
M  V30 71 C 3.4414 2.29892 5.67288 0
M  V30 72 N 2.5784 1.82546 6.77954 0
M  V30 73 H 7.4184 1.89463 2.30017 0
M  V30 74 H 4.9554 0.944289 1.1279 0
M  V30 75 H 6.9134 0.258588 4.16398 0
M  V30 76 H 5.5434 -0.363919 3.20742 0
M  V30 77 H 4.5954 2.05603 3.20049 0
M  V30 78 H 5.9074 2.50877 4.31117 0
M  V30 79 H 5.0614 0.870762 6.00419 0
M  V30 80 H 3.8004 0.316887 4.86669 0
M  V30 81 H 2.8054 2.6215 4.83278 0
M  V30 82 H 4.0304 3.17216 6.00459 0
M  V30 83 H 1.9764 0.980454 6.48632 0
M  V30 84 H 1.8934 2.59956 7.09901 0
M  V30 85 H 3.1614 1.54115 7.64113 0
M  V30 86 N 7.3905 -1.2043 1.01659 0
M  V30 87 C 8.3205 -2.25466 0.607226 0
M  V30 88 C 9.3015 -1.65853 -0.377716 0
M  V30 89 O 10.4865 -1.92409 -0.263149 0
M  V30 90 C 7.6165 -3.47256 -0.0552949 0
M  V30 91 C 6.5705 -4.19462 0.850632 0
M  V30 92 C 5.8965 -5.34673 0.0538859 0
M  V30 93 C 7.1965 -4.75603 2.15868 0
M  V30 94 H 8.8905 -2.59962 1.48526 0
M  V30 95 H 6.4365 -1.2496 0.715605 0
M  V30 96 H 8.3895 -4.19917 -0.353233 0
M  V30 97 H 7.1135 -3.11924 -0.968045 0
M  V30 98 H 5.7725 -3.48667 1.13257 0
M  V30 99 H 5.4205 -4.95585 -0.860514 0
M  V30 100 H 5.1205 -5.83913 0.657192 0
M  V30 101 H 6.6445 -6.10138 -0.237598 0
M  V30 102 H 8.0585 -5.40083 1.92311 0
M  V30 103 H 6.4555 -5.3528 2.71284 0
M  V30 104 H 7.5255 -3.94346 2.82169 0
M  V30 105 N 8.8686 -0.792821 -1.36206 0
M  V30 106 C 9.8006 -0.151469 -2.28699 0
M  V30 107 C 10.8136 0.641262 -1.49638 0
M  V30 108 O 12.0026 0.475885 -1.72039 0
M  V30 109 C 9.1026 0.808424 -3.29117 0
M  V30 110 C 8.2756 0.0650202 -4.37352 0
M  V30 111 C 7.3346 0.941358 -5.17711 0
M  V30 112 O 6.3606 0.397352 -5.67811 0
M  V30 113 N 7.5626 2.2652 -5.3448 0
M  V30 114 H 10.3276 -0.945982 -2.84379 0
M  V30 115 H 7.8886 -0.647032 -1.48409 0
M  V30 116 H 9.8806 1.3986 -3.79765 0
M  V30 117 H 8.4506 1.5038 -2.74052 0
M  V30 118 H 7.6706 -0.706255 -3.87822 0
M  V30 119 H 8.9586 -0.447847 -5.06825 0
M  V30 120 H 8.3566 2.73128 -4.95396 0
M  V30 121 H 6.9136 2.80493 -5.88359 0
M  V30 122 N 10.3467 1.47872 -0.545128 0
M  V30 123 C 11.5927 2.02793 -0.0166104 0
M  V30 124 C 11.9257 1.41987 1.32489 0
M  V30 125 O 11.2007 0.571045 1.85928 0
M  V30 126 C 11.4837 3.59989 0.0893294 0
M  V30 127 C 11.3367 4.3125 -1.27841 0
M  V30 128 C 12.6557 4.32606 0.808724 0
M  V30 129 H 9.7747 0.736962 -0.00751035 0
M  V30 130 H 12.4167 1.76433 -0.705085 0
M  V30 131 H 10.5667 3.82579 0.675681 0
M  V30 132 H 12.2387 4.20035 -1.90704 0
M  V30 133 H 10.4817 3.92076 -1.85632 0
M  V30 134 H 11.1527 5.39736 -1.15713 0
M  V30 135 H 13.6287 4.14936 0.310992 0
M  V30 136 H 12.5047 5.42251 0.851782 0
M  V30 137 H 12.7657 4.00963 1.86229 0
M  V30 138 N 11.8248 0.280983 1.55075 0
M  V30 139 C 13.0718 -0.334115 1.99725 0
M  V30 140 C 13.3998 -1.5542 1.1694 0
M  V30 141 O 12.6548 -1.94361 0.228531 0
M  V30 142 C 12.9538 -0.754656 3.49342 0
M  V30 143 C 12.6198 0.361445 4.49449 0
M  V30 144 C 11.2818 0.667893 4.76542 0
M  V30 145 C 13.6338 1.11322 5.09173 0
M  V30 146 C 10.9618 1.7296 5.60626 0
M  V30 147 C 13.3138 2.1647 5.9441 0
M  V30 148 C 11.9778 2.47742 6.19822 0
M  V30 149 H 11.2478 -0.122261 0.730844 0
M  V30 150 H 13.8948 0.395917 1.87363 0
M  V30 151 H 12.1998 -1.56446 3.5921 0
M  V30 152 H 13.8968 -1.24142 3.813 0
M  V30 153 H 10.4868 0.112481 4.28452 0
M  V30 154 H 14.6708 0.88973 4.8826 0
M  V30 155 H 9.9268 1.97684 5.78559 0
M  V30 156 H 14.1008 2.75193 6.3972 0
M  V30 157 H 11.7278 3.30145 6.84769 0
M  V30 158 N 13.3029 -1.57598 0.00835791 0
M  V30 159 C 14.2329 -2.1198 -0.979113 0
M  V30 160 C 15.2139 -1.03091 -1.35301 0
M  V30 161 O 16.3989 -1.30818 -1.43528 0
M  V30 162 C 13.5289 -2.62995 -2.26828 0
M  V30 163 C 12.4829 -3.76485 -2.03576 0
M  V30 164 C 11.8089 -4.13846 -3.38579 0
M  V30 165 C 13.1089 -5.0342 -1.39161 0
M  V30 166 H 14.8029 -2.94738 -0.526281 0
M  V30 167 H 12.3489 -1.41783 -0.251704 0
M  V30 168 H 14.3019 -2.99669 -2.96271 0
M  V30 169 H 13.0259 -1.7737 -2.7424 0
M  V30 170 H 11.6849 -3.40217 -1.36557 0
M  V30 171 H 11.3329 -3.25232 -3.83709 0
M  V30 172 H 11.0329 -4.90312 -3.23834 0
M  V30 173 H 12.5569 -4.53086 -4.09323 0
M  V30 174 H 13.9709 -5.37812 -1.98573 0
M  V30 175 H 12.3679 -5.84746 -1.34878 0
M  V30 176 H 13.4379 -4.83548 -0.361868 0
M  V30 177 N 14.781 0.264519 -1.55364 0
M  V30 178 C 16.03 0.992812 -1.75574 0
M  V30 179 C 16.343 1.87142 -0.568979 0
M  V30 180 O 17.549 2.63513 -0.653682 0
M  V30 181 C 16.005 1.81519 -3.10771 0
M  V30 182 C 15.613 0.984839 -4.37041 0
M  V30 183 C 17.357 2.53727 -3.40327 0
M  V30 184 C 15.264 1.80209 -5.63275 0
M  V30 185 H 14.194 0.374412 -0.65447 0
M  V30 186 H 16.845 0.248138 -1.81815 0
M  V30 187 H 15.227 2.60115 -2.98591 0
M  V30 188 H 16.401 0.242455 -4.60162 0
M  V30 189 H 14.716 0.37691 -4.14691 0
M  V30 190 H 17.313 3.15292 -4.3185 0
M  V30 191 H 17.656 3.24447 -2.60845 0
M  V30 192 H 18.189 1.82156 -3.53644 0
M  V30 193 H 14.928 1.13896 -6.45529 0
M  V30 194 H 14.448 2.52022 -5.44284 0
M  V30 195 H 16.127 2.37364 -6.01887 0
M  V30 196 N 16.2591 1.48442 0.529413 0
M  V30 197 C 17.5051 1.5672 1.28711 0
M  V30 198 C 17.8381 0.2406 1.92704 0
M  V30 199 O 17.1131 -0.753454 1.79313 0
M  V30 200 C 17.3961 2.70587 2.37603 0
M  V30 201 C 17.2491 4.12953 1.78297 0
M  V30 202 C 18.5681 2.80212 3.39366 0
M  V30 203 H 15.6871 0.570474 0.466613 0
M  V30 204 H 18.3291 1.80617 0.589706 0
M  V30 205 H 16.4791 2.50342 2.97088 0
M  V30 206 H 18.1511 4.44639 1.22858 0
M  V30 207 H 16.3941 4.19927 1.0883 0
M  V30 208 H 17.0651 4.88448 2.57144 0
M  V30 209 H 19.5411 2.98553 2.89836 0
M  V30 210 H 18.4171 3.61611 4.12951 0
M  V30 211 H 18.6781 1.88393 3.99951 0
M  V30 212 N 17.7372 -0.778329 1.37039 0
M  V30 213 C 18.6672 -1.90546 1.34962 0
M  V30 214 C 19.6482 -1.68681 0.219274 0
M  V30 215 O 20.8332 -1.89634 0.418624 0
M  V30 216 C 17.9632 -3.27734 1.14925 0
M  V30 217 C 16.9172 -3.64147 2.24902 0
M  V30 218 C 16.2432 -4.99806 1.89996 0
M  V30 219 C 17.5432 -3.71579 3.67051 0
M  V30 220 H 19.2372 -1.92541 2.29277 0
M  V30 221 H 16.7832 -0.924948 1.10366 0
M  V30 222 H 18.7362 -4.06215 1.12104 0
M  V30 223 H 17.4602 -3.26154 0.170631 0
M  V30 224 H 16.1192 -2.8797 2.26868 0
M  V30 225 H 15.7672 -4.94759 0.906796 0
M  V30 226 H 15.4672 -5.25139 2.63634 0
M  V30 227 H 16.9912 -5.80694 1.88749 0
M  V30 228 H 18.4052 -4.40227 3.67251 0
M  V30 229 H 16.8022 -4.08405 4.39688 0
M  V30 230 H 17.8722 -2.72404 4.01154 0
M  V30 231 N 19.2153 -1.21501 -1.00376 0
M  V30 232 C 20.4403 -1.05977 -1.78279 0
M  V30 233 C 20.8653 0.385994 -1.84097 0
M  V30 234 O 20.2233 1.27849 -1.28547 0
M  V30 235 C 20.2713 -1.66302 -3.19963 0
M  V30 236 O 19.3753 -0.909333 -4.0225 0
M  V30 237 H 18.7163 -0.372906 -0.549397 0
M  V30 238 H 21.2463 -1.6107 -1.26165 0
M  V30 239 H 21.2563 -1.70574 -3.70632 0
M  V30 240 H 19.9313 -2.71515 -3.15043 0
M  V30 241 H 18.5083 -0.941795 -3.60811 0
M  V30 242 N 20.6934 1.19889 -1.02296 0
M  V30 243 C 21.9394 1.89701 -0.717033 0
M  V30 244 C 22.2724 1.7905 0.751989 0
M  V30 245 O 21.5474 1.17891 1.547 0
M  V30 246 C 21.8304 3.40858 -1.16136 0
M  V30 247 C 21.6834 3.60411 -2.69117 0
M  V30 248 C 23.0024 4.33876 -0.737549 0
M  V30 249 H 20.1214 0.688874 -0.261957 0
M  V30 250 H 22.7634 1.41154 -1.27183 0
M  V30 251 H 20.9134 3.82335 -0.689342 0
M  V30 252 H 22.5854 3.28145 -3.2422 0
M  V30 253 H 20.8284 3.03665 -3.0979 0
M  V30 254 H 21.4994 4.66396 -2.95261 0
M  V30 255 H 23.9754 4.00081 -1.14344 0
M  V30 256 H 22.8514 5.38242 -1.0764 0
M  V30 257 H 23.1124 4.40628 0.360436 0
M  V30 258 N 22.1715 0.800033 1.35784 0
M  V30 259 C 23.1345 0.211565 2.28221 0
M  V30 260 C 24.1345 -0.59728 1.49296 0
M  V30 261 O 25.3245 -0.416721 1.69142 0
M  V30 262 C 22.4565 -0.705846 3.33513 0
M  V30 263 H 23.6495 1.02677 2.81776 0
M  V30 264 H 21.2025 0.570211 1.45528 0
M  V30 265 H 21.9375 -1.54498 2.85133 0
M  V30 266 H 21.7225 -0.127655 3.91892 0
M  V30 267 H 23.2125 -1.11211 4.02519 0
M  V30 268 N 23.6496 -1.47581 0.552962 0
M  V30 269 C 24.5796 -2.32762 -0.185451 0
M  V30 270 C 25.5606 -1.43527 -0.912905 0
M  V30 271 O 26.7456 -1.72388 -0.894201 0
M  V30 272 C 23.8756 -3.25219 -1.21859 0
M  V30 273 C 22.8296 -4.23661 -0.607864 0
M  V30 274 C 22.1556 -5.05413 -1.74533 0
M  V30 275 C 23.4556 -5.20481 0.435582 0
M  V30 276 H 25.1496 -2.94749 0.525684 0
M  V30 277 H 22.6956 -1.41738 0.254251 0
M  V30 278 H 24.6486 -3.8365 -1.7433 0
M  V30 279 H 23.3726 -2.61279 -1.95961 0
M  V30 280 H 22.0316 -3.66451 -0.104489 0
M  V30 281 H 21.6796 -4.3788 -2.47529 0
M  V30 282 H 21.3796 -5.72059 -1.34249 0
M  V30 283 H 22.9036 -5.66701 -2.27338 0
M  V30 284 H 24.3176 -5.733 -0.00290157 0
M  V30 285 H 22.7146 -5.95305 0.757067 0
M  V30 286 H 23.7846 -4.66217 1.33303 0
M  V30 287 N 25.1277 -0.289203 -1.54924 0
M  V30 288 C 26.0757 0.607966 -2.24514 0
M  V30 289 C 27.0697 1.14655 -1.24702 0
M  V30 290 O 28.2757 1.09856 -1.4259 0
M  V30 291 H 24.6507 0.21464 -0.720718 0
M  V30 292 H 26.6217 -0.00164182 -2.984 0
M  V30 293 C 25.3707 1.77406 -2.99036 0
M  V30 294 H 24.6937 1.36884 -3.75637 0
M  V30 295 H 26.1337 2.37814 -3.51028 0
M  V30 296 C 24.5927 2.67107 -2.05318 0
M  V30 297 O 25.1227 3.6787 -1.61353 0
M  V30 298 N 23.3287 2.34582 -1.71521 0
M  V30 299 H 22.8757 1.52688 -2.07471 0
M  V30 300 H 22.8337 2.94867 -1.0909 0
M  V30 301 N 26.6058 1.57591 -0.0167156 0
M  V30 302 C 27.5558 2.05953 0.978137 0
M  V30 303 C 28.5398 0.957532 1.29306 0
M  V30 304 O 29.7318 1.22119 1.28125 0
M  V30 305 C 26.8608 2.58006 2.26468 0
M  V30 306 C 25.9468 3.75113 1.97867 0
M  V30 307 N 26.3378 4.86187 1.39486 0
M  V30 308 C 24.6358 3.83363 2.27924 0
M  V30 309 C 25.3368 5.67502 1.27735 0
M  V30 310 N 24.3128 5.14023 1.76866 0
M  V30 311 H 28.1148 2.89236 0.521522 0
M  V30 312 H 25.6288 1.61301 0.188596 0
M  V30 313 H 27.6258 2.90937 2.98599 0
M  V30 314 H 26.2858 1.76148 2.72767 0
M  V30 315 H 27.2968 5.06695 1.07147 0
M  V30 316 H 23.9738 3.1239 2.76982 0
M  V30 317 H 25.3638 6.66791 0.826978 0
M  V30 318 N 28.0839 -0.256276 1.55502 0
M  V30 319 C 29.0139 -1.32102 1.92539 0
M  V30 320 C 29.9949 -1.50684 0.789194 0
M  V30 321 O 31.1799 -1.63449 1.04872 0
M  V30 322 C 28.3099 -2.67752 2.21192 0
M  V30 323 C 27.2639 -2.63878 3.36975 0
M  V30 324 C 26.5899 -4.03236 3.51147 0
M  V30 325 C 27.8899 -2.21682 4.72921 0
M  V30 326 H 29.5839 -1.01351 2.81724 0
M  V30 327 H 27.1299 -0.486105 1.35547 0
M  V30 328 H 29.0829 -3.42365 2.45691 0
M  V30 329 H 27.8069 -3.0012 1.28824 0
M  V30 330 H 26.4659 -1.91722 3.12471 0
M  V30 331 H 26.1139 -4.32854 2.56216 0
M  V30 332 H 25.8139 -4.01535 4.29003 0
M  V30 333 H 27.3379 -4.79563 3.77957 0
M  V30 334 H 28.7519 -2.86023 4.96854 0
M  V30 335 H 27.1489 -2.3111 5.53812 0
M  V30 336 H 28.2189 -1.16833 4.70615 0
M  V30 337 N 29.562 -1.4872 -0.521534 0
M  V30 338 C 30.509 -1.63871 -1.62527 0
M  V30 339 C 31.479 -0.480559 -1.58996 0
M  V30 340 O 32.664 -0.705085 -1.77294 0
M  V30 341 C 29.804 -1.69227 -3.00759 0
M  V30 342 C 28.917 -2.96207 -3.14461 0
M  V30 343 C 28.052 -2.92671 -4.43303 0
M  V30 344 C 27.091 -4.14318 -4.50563 0
M  V30 345 N 26.228 -4.0881 -5.70805 0
M  V30 346 H 31.068 -2.58123 -1.48918 0
M  V30 347 H 28.605 -1.28 -0.724878 0
M  V30 348 H 30.563 -1.70314 -3.80853 0
M  V30 349 H 29.193 -0.784586 -3.1312 0
M  V30 350 H 28.245 -3.04826 -2.27564 0
M  V30 351 H 29.557 -3.86192 -3.15686 0
M  V30 352 H 28.711 -2.92206 -5.31696 0
M  V30 353 H 27.45 -2.00429 -4.44612 0
M  V30 354 H 26.455 -4.15049 -3.60575 0
M  V30 355 H 27.68 -5.07729 -4.50986 0
M  V30 356 H 25.626 -3.19394 -5.72995 0
M  V30 357 H 25.543 -4.92509 -5.7356 0
M  V30 358 H 26.811 -4.12418 -6.61462 0
M  V30 359 N 31.0401 0.771051 -1.3745 0
M  V30 360 C 32.0031 1.86598 -1.33093 0
M  V30 361 C 33.0031 1.59076 -0.234845 0
M  V30 362 O 34.1931 1.67145 -0.490732 0
M  V30 363 C 31.3251 3.23747 -1.06773 0
M  V30 364 H 32.5181 1.91873 -2.30488 0
M  V30 365 H 30.0711 0.970876 -1.2249 0
M  V30 366 H 30.8061 3.24148 -0.099129 0
M  V30 367 H 30.5911 3.45115 -1.86112 0
M  V30 368 H 32.0811 4.03824 -1.06377 0
M  V30 369 N 32.5182 1.22032 0.997298 0
M  V30 370 C 33.7462 1.06841 1.7718 0
M  V30 371 C 34.1612 -0.381325 1.84909 0
M  V30 372 O 33.5182 -1.26437 1.31605 0
M  V30 373 C 33.5692 1.66814 3.20711 0
M  V30 374 O 33.2902 3.06116 3.13408 0
M  V30 375 C 34.7912 1.56838 4.14628 0
M  V30 376 H 32.0112 0.374782 0.556578 0
M  V30 377 H 34.5552 1.61532 1.2541 0
M  V30 378 H 32.7102 1.16196 3.69564 0
M  V30 379 H 33.1242 3.34926 4.0364 0
M  V30 380 H 34.5982 2.03532 5.13107 0
M  V30 381 H 35.0752 0.524155 4.36061 0
M  V30 382 H 35.6812 2.06741 3.7167 0
M  V30 383 N 33.9963 -1.19345 1.0293 0
M  V30 384 C 35.4073 -1.70725 0.755633 0
M  V30 385 C 35.7583 -1.82326 -0.724676 0
M  V30 386 O 34.8833 -1.49471 -1.56484 0
M  V30 387 C 35.4783 -3.10084 1.36503 0
M  V30 388 C 34.0373 -3.58723 1.13994 0
M  V30 389 C 33.1843 -2.35577 1.46283 0
M  V30 390 H 36.1353 -1.0418 1.19718 0
M  V30 391 H 36.1563 -3.72787 0.762217 0
M  V30 392 H 35.6683 -3.01609 2.44241 0
M  V30 393 H 33.7693 -3.72512 0.0807901 0
M  V30 394 H 33.8823 -4.42816 1.82894 0
M  V30 395 H 32.2463 -2.38935 0.88217 0
M  V30 396 H 33.0293 -2.29731 2.55105 0
M  V30 397 N 35.4744 -0.807222 -1.35358 0
M  V30 398 C 36.7234 -0.384376 -1.98004 0
M  V30 399 C 37.0364 1.0543 -1.64754 0
M  V30 400 O 38.2424 1.58029 -2.20769 0
M  V30 401 C 36.6984 -0.636326 -3.5423 0
M  V30 402 C 36.3064 -2.08759 -3.96388 0
M  V30 403 C 38.0504 -0.278869 -4.23583 0
M  V30 404 C 35.9574 -2.28525 -5.45463 0
M  V30 405 H 34.8874 -0.139986 -0.740891 0
M  V30 406 H 37.5384 -0.991369 -1.54415 0
M  V30 407 H 35.9204 0.0406256 -3.95979 0
M  V30 408 H 37.0944 -2.8024 -3.6579 0
M  V30 409 H 35.4094 -2.40497 -3.39926 0
M  V30 410 H 38.0064 -0.404599 -5.33167 0
M  V30 411 H 38.3494 0.775012 -4.09022 0
M  V30 412 H 38.8824 -0.909764 -3.87257 0
M  V30 413 H 35.6214 -3.32361 -5.64992 0
M  V30 414 H 35.1414 -1.61569 -5.77629 0
M  V30 415 H 36.8204 -2.10109 -6.11934 0
M  V30 416 N 36.9525 1.47285 -0.560781 0
M  V30 417 C 37.8625 2.33846 0.187954 0
M  V30 418 C 38.8785 1.48412 0.908293 0
M  V30 419 O 40.0545 1.81332 0.876388 0
M  V30 420 C 37.1195 3.25178 1.2025 0
M  V30 421 C 36.1805 4.26504 0.489208 0
M  V30 422 C 35.4135 5.13472 1.45542 0
M  V30 423 O 35.6365 5.02959 2.6905 0
M  V30 424 O 34.5705 5.93902 0.977963 0
M  V30 425 H 38.3965 2.99177 -0.522177 0
M  V30 426 H 35.9815 1.45903 -0.321364 0
M  V30 427 H 37.8635 3.81584 1.78805 0
M  V30 428 H 36.5385 2.6247 1.89449 0
M  V30 429 H 35.4455 3.73847 -0.137627 0
M  V30 430 H 36.7785 4.91935 -0.161399 0
M  V30 431 N 38.4306 0.297415 1.54768 0
M  V30 432 C 39.6556 -0.318435 2.04941 0
M  V30 433 C 40.0806 -1.4701 1.17345 0
M  V30 434 O 39.4386 -1.80436 0.176758 0
M  V30 435 C 39.4866 -0.755749 3.52592 0
M  V30 436 O 38.5906 -1.86088 3.68028 0
M  V30 437 H 37.9316 -0.062421 0.661059 0
M  V30 438 H 40.4616 0.438215 1.99852 0
M  V30 439 H 40.4716 -1.04552 3.94376 0
M  V30 440 H 39.1466 0.0867233 4.1581 0
M  V30 441 H 37.7236 -1.57193 3.38149 0
M  V30 442 N 39.9087 -1.5758 0.0250728 0
M  V30 443 C 40.8587 -2.06468 -0.967201 0
M  V30 444 C 41.8427 -0.964376 -1.28797 0
M  V30 445 O 43.0347 -1.22797 -1.27475 0
M  V30 446 C 40.1637 -2.59203 -2.25097 0
M  V30 447 C 39.2497 -3.76157 -1.95874 0
M  V30 448 N 39.6407 -4.86919 -1.36905 0
M  V30 449 C 37.9387 -3.84566 -2.25887 0
M  V30 450 C 38.6397 -5.68172 -1.24724 0
M  V30 451 N 37.6157 -5.14953 -1.74138 0
M  V30 452 H 41.4177 -2.89508 -0.506176 0
M  V30 453 H 38.9317 -1.61399 -0.18004 0
M  V30 454 H 40.9287 -2.92517 -2.97052 0
M  V30 455 H 39.5887 -1.77592 -2.71829 0
M  V30 456 H 40.5997 -5.07256 -1.04459 0
M  V30 457 H 37.2767 -3.13854 -2.75321 0
M  V30 458 H 38.6667 -6.67221 -0.791605 0
M  V30 459 N 41.3868 0.248026 -1.55636 0
M  V30 460 C 42.3188 1.32993 -1.8667 0
M  V30 461 C 43.3318 1.44345 -0.752877 0
M  V30 462 O 44.5208 1.45715 -1.03098 0
M  V30 463 C 41.6208 2.70863 -2.03682 0
M  V30 464 C 40.7938 2.81792 -3.34532 0
M  V30 465 C 39.8528 4.005 -3.41301 0
M  V30 466 O 38.8788 3.9008 -4.14519 0
M  V30 467 N 40.0808 5.13618 -2.70512 0
M  V30 468 H 42.8458 1.06707 -2.8006 0
M  V30 469 H 40.4068 0.438129 -1.55859 0
M  V30 470 H 42.3988 3.48612 -2.05553 0
M  V30 471 H 40.9688 2.89862 -1.17041 0
M  V30 472 H 40.1888 1.90729 -3.44987 0
M  V30 473 H 41.4768 2.86043 -4.20781 0
M  V30 474 H 40.8748 5.24975 -2.10755 0
M  V30 475 H 39.4318 5.89505 -2.78077 0
M  V30 476 N 42.8649 1.48995 0.513639 0
M  V30 477 C 44.1109 1.58076 1.27042 0
M  V30 478 C 44.4439 0.261026 1.92438 0
M  V30 479 O 43.7189 -0.734393 1.80103 0
M  V30 480 C 44.0019 2.73091 2.34719 0
M  V30 481 C 43.8549 4.14821 1.73907 0
M  V30 482 C 45.1739 2.83796 3.36375 0
M  V30 483 H 42.2929 0.575391 0.460536 0
M  V30 484 H 44.9349 1.81232 0.570516 0
M  V30 485 H 43.0849 2.53479 2.94416 0
M  V30 486 H 44.7569 4.45917 1.18135 0
M  V30 487 H 42.9999 4.21058 1.0437 0
M  V30 488 H 43.6709 4.91147 2.51949 0
M  V30 489 H 46.1469 3.01611 2.86653 0
M  V30 490 H 45.0229 3.65971 4.09093 0
M  V30 491 H 45.2839 1.92624 3.9793 0
M  V30 492 N 44.343 -0.763751 1.37857 0
M  V30 493 C 45.253 -1.90817 1.36478 0
M  V30 494 C 46.269 -1.71997 0.263248 0
M  V30 495 O 47.445 -1.95095 0.499979 0
M  V30 496 C 44.51 -3.2605 1.17864 0
M  V30 497 C 43.571 -3.57467 2.3773 0
M  V30 498 C 42.804 -4.86249 2.19995 0
M  V30 499 O 43.027 -5.57884 1.18836 0
M  V30 500 O 41.961 -5.16911 3.08361 0
M  V30 501 H 45.787 -1.94933 2.32884 0
M  V30 502 H 43.372 -0.907619 1.1867 0
M  V30 503 H 45.254 -4.06924 1.09504 0
M  V30 504 H 43.929 -3.22769 0.245372 0
M  V30 505 H 42.836 -2.76796 2.51664 0
M  V30 506 H 44.169 -3.655 3.29652 0
M  V30 507 N 45.8211 -1.22559 -0.990812 0
M  V30 508 C 46.7681 -0.997519 -2.0813 0
M  V30 509 C 47.7381 0.0814702 -1.659 0
M  V30 510 O 48.9231 -0.0685424 -1.90677 0
M  V30 511 C 46.0631 -0.583615 -3.40129 0
M  V30 512 C 45.1761 -1.7336 -3.9569 0
M  V30 513 C 44.3111 -1.26748 -5.15857 0
M  V30 514 C 43.3501 -2.38888 -5.63559 0
M  V30 515 N 42.4871 -1.93308 -6.74964 0
M  V30 516 H 47.3271 -1.93099 -2.26973 0
M  V30 517 H 44.8641 -0.962114 -1.11273 0
M  V30 518 H 46.8221 -0.324801 -4.15934 0
M  V30 519 H 45.4521 0.312845 -3.2128 0
M  V30 520 H 44.5041 -2.10669 -3.16738 0
M  V30 521 H 45.8161 -2.57704 -4.27071 0
M  V30 522 H 44.9701 -0.966173 -5.98957 0
M  V30 523 H 43.7091 -0.394272 -4.86104 0
M  V30 524 H 42.7141 -2.69805 -4.79046 0
M  V30 525 H 43.9391 -3.26728 -5.95336 0
M  V30 526 H 41.8851 -1.08352 -6.4699 0
M  V30 527 H 41.8021 -2.71217 -7.05675 0
M  V30 528 H 43.0701 -1.66252 -7.61564 0
M  V30 529 N 47.2992 1.18797 -1.03562 0
M  V30 530 C 48.7152 1.40671 -0.753917 0
M  V30 531 C 48.9152 1.9043 0.658686 0
M  V30 532 O 47.9712 2.08538 1.42366 0
M  V30 533 C 49.2842 2.41192 -1.79574 0
M  V30 534 C 50.8322 2.54928 -1.81606 0
M  V30 535 C 51.3072 3.58709 -2.84766 0
M  V30 536 N 52.7982 3.66212 -2.83625 0
M  V30 537 C 53.5332 4.46225 -3.60098 0
M  V30 538 N 53.0292 5.29888 -4.46308 0
M  V30 539 N 54.8222 4.40939 -3.4861 0
M  V30 540 H 46.9732 0.848221 -1.94728 0
M  V30 541 H 49.2362 0.435081 -0.842264 0
M  V30 542 H 48.9422 2.11669 -2.80872 0
M  V30 543 H 48.8162 3.40467 -1.62365 0
M  V30 544 H 51.2032 2.83771 -0.809817 0
M  V30 545 H 51.2842 1.55784 -2.02891 0
M  V30 546 H 50.9282 3.30607 -3.85566 0
M  V30 547 H 50.8582 4.57519 -2.60737 0
M  V30 548 H 53.3492 3.06466 -2.21105 0
M  V30 549 H 53.6622 5.88078 -5.01382 0
M  V30 550 H 52.0072 5.29326 -4.50377 0
M  V30 551 H 55.1982 3.74624 -2.80668 0
M  V30 552 H 55.3712 5.03056 -4.08459 0
M  V30 553 N 48.7773 0.814389 1.34928 0
M  V30 554 C 49.7243 0.22822 2.29669 0
M  V30 555 C 50.6943 -0.642164 1.53184 0
M  V30 556 O 51.8793 -0.585605 1.81591 0
M  V30 557 C 49.0193 -0.61089 3.3965 0
M  V30 558 C 48.1323 0.280792 4.31086 0
M  V30 559 C 47.2673 -0.567067 5.28165 0
M  V30 560 C 46.3063 0.324531 6.11239 0
M  V30 561 N 45.4433 -0.483756 7.00431 0
M  V30 562 H 50.2833 1.04153 2.79206 0
M  V30 563 H 47.8203 0.525133 1.37407 0
M  V30 564 H 49.7783 -1.11263 4.0209 0
M  V30 565 H 48.4083 -1.38939 2.91369 0
M  V30 566 H 47.4603 0.900688 3.69583 0
M  V30 567 H 48.7723 0.966723 4.89342 0
M  V30 568 H 47.9263 -1.13363 5.96015 0
M  V30 569 H 46.6653 -1.28654 4.70425 0
M  V30 570 H 45.6703 0.903298 5.42329 0
M  V30 571 H 46.8953 1.04198 6.71059 0
M  V30 572 H 44.8413 -1.18706 6.45171 0
M  V30 573 H 44.7583 0.143965 7.55863 0
M  V30 574 H 46.0263 -1.03334 7.7262 0
M  V30 575 N 50.2554 -1.46986 0.568584 0
M  V30 576 C 51.4954 -2.04336 0.0512999 0
M  V30 577 C 51.8594 -1.43214 -1.27881 0
M  V30 578 O 53.0604 -1.91679 -1.88448 0
M  V30 579 C 51.3314 -3.57389 -0.0282328 0
M  V30 580 S 52.8904 -4.36056 -0.489991 0
M  V30 581 H 49.7084 -0.71034 0.0306349 0
M  V30 582 H 52.3104 -1.80212 0.757891 0
M  V30 583 H 51.0144 -3.99395 0.944011 0
M  V30 584 H 50.5454 -3.86028 -0.75803 0
M  V30 585 H 52.5604 -4.6441 -1.74752 0
M  V30 586 N 51.7335 -0.305618 -1.54608 0
M  V30 587 C 52.6815 0.584119 -2.25146 0
M  V30 588 C 53.6755 1.13326 -1.25911 0
M  V30 589 O 54.8815 1.08337 -1.43747 0
M  V30 590 H 51.2565 0.206983 -0.722954 0
M  V30 591 H 53.2275 -0.033291 -2.98381 0
M  V30 592 C 51.9765 1.74225 -3.009 0
M  V30 593 H 51.2995 1.32892 -3.77067 0
M  V30 594 H 52.7395 2.34077 -3.53531 0
M  V30 595 C 51.1985 2.64914 -2.0814 0
M  V30 596 O 51.7285 3.66137 -1.65246 0
M  V30 597 N 49.9345 2.3275 -1.74 0
M  V30 598 H 49.4815 1.50479 -2.09078 0
M  V30 599 H 49.4395 2.93694 -1.12211 0
M  V30 600 N 53.2116 1.57565 -0.0334293 0
M  V30 601 C 54.4396 1.9628 0.654347 0
M  V30 602 C 54.8546 0.910138 1.65414 0
M  V30 603 O 54.2116 -0.107595 1.82183 0
M  V30 604 C 54.2626 3.35067 1.35693 0
M  V30 605 O 53.9836 4.36296 0.397191 0
M  V30 606 C 55.4846 3.88439 2.13613 0
M  V30 607 H 52.7046 0.646369 0.180132 0
M  V30 608 H 55.2486 2.04282 -0.0944721 0
M  V30 609 H 53.4036 3.2827 2.05712 0
M  V30 610 H 53.8176 5.1678 0.896597 0
M  V30 611 H 55.2916 4.8788 2.58219 0
M  V30 612 H 55.7686 3.22914 2.97696 0
M  V30 613 H 56.3746 3.98516 1.48543 0
M  V30 614 N 54.6897 -0.239769 1.55765 0
M  V30 615 C 55.6527 -1.28038 1.90103 0
M  V30 616 C 56.6527 -1.40723 0.778055 0
M  V30 617 O 57.8427 -1.39301 1.04599 0
M  V30 618 C 54.9747 -2.65702 2.13577 0
M  V30 619 H 56.1677 -0.988048 2.83157 0
M  V30 620 H 53.7207 -0.479382 1.48767 0
M  V30 621 H 54.4557 -3.00063 1.23015 0
M  V30 622 H 54.2407 -2.57875 2.95369 0
M  V30 623 H 55.7307 -3.40828 2.41301 0
M  V30 624 N 56.1678 -1.49265 -0.50573 0
M  V30 625 C 57.3958 -1.62215 -1.28429 0
M  V30 626 C 57.8108 -0.291697 -1.86533 0
M  V30 627 O 57.1678 0.722233 -1.67601 0
M  V30 628 C 57.2188 -2.68735 -2.41793 0
M  V30 629 O 56.9398 -3.96619 -1.86078 0
M  V30 630 C 58.4408 -2.92346 -3.3324 0
M  V30 631 H 55.6608 -0.546239 -0.389697 0
M  V30 632 H 58.2048 -1.95265 -0.607609 0
M  V30 633 H 56.3598 -2.38476 -3.053 0
M  V30 634 H 56.7738 -4.55256 -2.60465 0
M  V30 635 H 58.2478 -3.70623 -4.09075 0
M  V30 636 H 58.7248 -2.02081 -3.89948 0
M  V30 637 H 59.3308 -3.24003 -2.75503 0
M  V30 638 N 57.6459 0.756429 -1.3826 0
M  V30 639 C 58.8859 1.52833 -1.35725 0
M  V30 640 C 59.2499 1.91926 0.0534106 0
M  V30 641 O 60.4509 2.68028 0.203613 0
M  V30 642 C 58.7219 2.74919 -2.28373 0
M  V30 643 S 60.2809 3.64817 -2.43832 0
M  V30 644 H 57.0989 0.523043 -0.481608 0
M  V30 645 H 59.7009 0.888212 -1.74158 0
M  V30 646 H 58.4049 2.44304 -3.29763 0
M  V30 647 H 57.9359 3.43878 -1.91079 0
M  V30 648 H 59.9509 4.676 -1.66027 0
M  V30 649 N 59.124 1.23083 0.984299 0
M  V30 650 C 60.087 1.00979 2.05757 0
M  V30 651 C 61.087 -0.0269573 1.60777 0
M  V30 652 O 62.277 0.212403 1.729 0
M  V30 653 C 59.409 0.527072 3.36801 0
M  V30 654 H 60.602 1.9622 2.26799 0
M  V30 655 H 58.155 1.05072 1.15714 0
M  V30 656 H 58.89 -0.429294 3.21446 0
M  V30 657 H 58.675 1.27515 3.70786 0
M  V30 658 H 60.165 0.392942 4.15747 0
M  V30 659 N 60.6021 -1.18246 1.0419 0
M  V30 660 C 61.8301 -1.92195 0.766072 0
M  V30 661 C 62.2451 -1.76247 -0.676933 0
M  V30 662 O 61.6021 -1.09293 -1.46155 0
M  V30 663 C 61.6531 -3.43568 1.12442 0
M  V30 664 O 61.3741 -3.59015 2.51078 0
M  V30 665 C 62.8751 -4.34613 0.873275 0
M  V30 666 H 60.0951 -0.610114 0.279288 0
M  V30 667 H 62.6391 -1.50007 1.38989 0
M  V30 668 H 60.7941 -3.8354 0.545542 0
M  V30 669 H 61.2081 -4.5273 2.64831 0
M  V30 670 H 62.6821 -5.39374 1.17385 0
M  V30 671 H 63.1591 -4.38781 -0.191909 0
M  V30 672 H 63.7651 -4.00341 1.43551 0
M  V30 673 N 62.0802 -0.821533 -1.34494 0
M  V30 674 C 63.0122 -0.199946 -2.28326 0
M  V30 675 C 64.0252 0.609377 -1.50965 0
M  V30 676 O 65.2142 0.439285 -1.7301 0
M  V30 677 C 62.3142 0.738431 -3.30757 0
M  V30 678 C 61.4872 -0.0277632 -4.37391 0
M  V30 679 C 60.5462 0.831332 -5.19591 0
M  V30 680 O 59.5722 0.276822 -5.68526 0
M  V30 681 N 60.7742 2.15132 -5.39165 0
M  V30 682 H 63.5392 -1.00609 -2.82308 0
M  V30 683 H 61.1002 -0.678366 -1.47003 0
M  V30 684 H 63.0922 1.31773 -3.82646 0
M  V30 685 H 61.6622 1.44533 -2.7718 0
M  V30 686 H 60.8822 -0.788359 -3.86236 0
M  V30 687 H 62.1702 -0.555251 -5.05761 0
M  V30 688 H 61.5682 2.62559 -5.01078 0
M  V30 689 H 60.1252 2.6795 -5.94177 0
M  V30 690 N 63.5583 1.46682 -0.576371 0
M  V30 691 C 64.9743 1.57822 -0.237562 0
M  V30 692 C 65.1743 1.57237 1.26011 0
M  V30 693 O 64.2303 1.48596 2.04146 0
M  V30 694 C 65.5433 2.87499 -0.881168 0
M  V30 695 C 67.0913 3.01119 -0.85417 0
M  V30 696 C 67.5663 4.33524 -1.4772 0
M  V30 697 N 69.0573 4.40207 -1.44125 0
M  V30 698 C 69.7923 5.4126 -1.89276 0
M  V30 699 N 69.2883 6.49021 -2.42371 0
M  V30 700 N 71.0813 5.32422 -1.80231 0
M  V30 701 H 63.2323 1.45306 -1.54919 0
M  V30 702 H 65.4953 0.692733 -0.647167 0
M  V30 703 H 65.2013 2.9372 -1.93447 0
M  V30 704 H 65.0753 3.75224 -0.385592 0
M  V30 705 H 67.4623 2.94485 0.190491 0
M  V30 706 H 67.5433 2.14887 -1.3877 0
M  V30 707 H 67.1873 4.40916 -2.52103 0
M  V30 708 H 67.1173 5.1852 -0.918947 0
M  V30 709 H 69.6083 3.62931 -1.05307 0
M  V30 710 H 69.9213 7.2233 -2.74698 0
M  V30 711 H 68.2663 6.49858 -2.46393 0
M  V30 712 H 71.4573 4.47137 -1.38514 0
M  V30 713 H 71.6303 6.11034 -2.15735 0
M  V30 714 N 65.0364 0.313813 1.54444 0
M  V30 715 C 65.9664 -0.549454 2.26943 0
M  V30 716 C 66.9474 -1.12741 1.27372 0
M  V30 717 O 68.1324 -1.15436 1.56167 0
M  V30 718 C 65.2624 -1.71523 3.01989 0
M  V30 719 C 64.2164 -1.26703 4.08816 0
M  V30 720 C 63.5424 -2.51898 4.71647 0
M  V30 721 C 64.8424 -0.388962 5.2085 0
M  V30 722 H 66.5364 0.0552661 2.99349 0
M  V30 723 H 64.0824 0.0280207 1.43973 0
M  V30 724 H 66.0354 -2.32535 3.51433 0
M  V30 725 H 64.7594 -2.34639 2.27183 0
M  V30 726 H 63.4184 -0.679896 3.6024 0
M  V30 727 H 63.0664 -3.13356 3.93468 0
M  V30 728 H 62.7664 -2.22605 5.43802 0
M  V30 729 H 64.2904 -3.1369 5.23861 0
M  V30 730 H 65.7044 -0.905107 5.6611 0
M  V30 731 H 64.1014 -0.18924 5.99802 0
M  V30 732 H 65.1714 0.582699 4.81386 0
M  V30 733 N 66.5145 -1.57545 0.0417849 0
M  V30 734 C 67.4775 -2.09885 -0.92093 0
M  V30 735 C 68.4775 -1.01648 -1.24596 0
M  V30 736 O 69.6675 -1.27759 -1.1842 0
M  V30 737 C 66.7995 -2.57527 -2.23367 0
M  V30 738 H 67.9925 -2.96236 -0.467382 0
M  V30 739 H 65.5455 -1.5493 -0.206467 0
M  V30 740 H 66.2805 -1.74542 -2.73323 0
M  V30 741 H 66.0655 -3.36613 -2.01083 0
M  V30 742 H 67.5555 -2.98201 -2.92346 0
M  V30 743 N 67.9926 0.231505 -1.5589 0
M  V30 744 C 68.9406 1.30649 -1.92441 0
M  V30 745 C 69.9346 1.49037 -0.805254 0
M  V30 746 O 71.1406 1.50329 -0.990007 0
M  V30 747 H 67.5156 0.437812 -0.611412 0
M  V30 748 H 69.4866 0.970973 -2.82161 0
M  V30 749 C 68.2356 2.65179 -2.24889 0
M  V30 750 H 67.5586 2.51835 -3.10514 0
M  V30 751 H 68.9986 3.39234 -2.54355 0
M  V30 752 C 67.4576 3.19439 -1.07054 0
M  V30 753 O 67.9876 4.00371 -0.326499 0
M  V30 754 N 66.1936 2.77675 -0.85703 0
M  V30 755 H 65.7406 2.11969 -1.46379 0
M  V30 756 H 65.6986 3.14321 -0.0703223 0
M  V30 757 N 69.4707 1.49531 0.497807 0
M  V30 758 C 70.7177 1.59179 1.25173 0
M  V30 759 C 71.0457 0.279932 1.92475 0
M  V30 760 O 70.3007 -0.732383 1.81479 0
M  V30 761 C 70.5997 2.70252 2.33878 0
M  V30 762 C 70.2657 4.11644 1.84012 0
M  V30 763 C 68.9277 4.50121 1.70132 0
M  V30 764 C 71.2797 5.00121 1.46725 0
M  V30 765 C 68.6077 5.74845 1.17348 0
M  V30 766 C 70.9597 6.25366 0.95392 0
M  V30 767 C 69.6237 6.6267 0.801538 0
M  V30 768 H 68.8937 0.582478 0.45804 0
M  V30 769 H 71.5407 1.83373 0.551948 0
M  V30 770 H 69.8457 2.40041 3.09657 0
M  V30 771 H 71.5427 2.74925 2.9192 0
M  V30 772 H 68.1327 3.81274 1.95775 0
M  V30 773 H 72.3167 4.71048 1.56294 0
M  V30 774 H 67.5727 6.02444 1.04264 0
M  V30 775 H 71.7467 6.93301 0.656225 0
M  V30 776 H 69.3737 7.59197 0.390351 0
M  V30 777 N 70.9488 -0.749086 1.3866 0
M  V30 778 C 71.8788 -1.8764 1.38973 0
M  V30 779 C 72.8598 -1.68178 0.255004 0
M  V30 780 O 74.0448 -1.88704 0.458754 0
M  V30 781 C 71.1748 -3.25222 1.21851 0
M  V30 782 C 70.1288 -3.59295 2.32575 0
M  V30 783 C 69.4548 -4.95663 2.00555 0
M  V30 784 C 70.7548 -3.63709 3.7485 0
M  V30 785 H 72.4488 -1.87635 2.3331 0
M  V30 786 H 69.9948 -0.901329 1.12303 0
M  V30 787 H 71.9478 -4.03746 1.20695 0
M  V30 788 H 70.6718 -3.25719 0.239775 0
M  V30 789 H 69.3308 -2.83093 2.32925 0
M  V30 790 H 68.9788 -4.92724 1.01154 0
M  V30 791 H 68.6788 -5.19429 2.74714 0
M  V30 792 H 70.2028 -5.7656 2.01024 0
M  V30 793 H 71.6168 -4.32338 3.76506 0
M  V30 794 H 70.0138 -3.98986 4.48252 0
M  V30 795 H 71.0838 -2.63834 4.06841 0
M  V30 796 N 72.4269 -1.23603 -0.977757 0
M  V30 797 C 73.6729 -1.07129 -1.72195 0
M  V30 798 C 74.0059 0.390501 -1.90233 0
M  V30 799 O 73.2809 1.28902 -1.45653 0
M  V30 800 C 73.5639 -1.80031 -3.11867 0
M  V30 801 C 73.4169 -3.33899 -3.01383 0
M  V30 802 C 74.7359 -1.56492 -4.11337 0
M  V30 803 H 71.8549 -0.390571 -0.624999 0
M  V30 804 H 74.4969 -1.52142 -1.13811 0
M  V30 805 H 72.6469 -1.41768 -3.6171 0
M  V30 806 H 74.3189 -3.81699 -2.59043 0
M  V30 807 H 72.5619 -3.62796 -2.37827 0
M  V30 808 H 73.2329 -3.801 -4.00285 0
M  V30 809 H 75.7089 -1.89757 -3.70313 0
M  V30 810 H 74.5849 -2.09973 -5.07151 0
M  V30 811 H 74.8459 -0.500874 -4.39254 0
M  V30 812 N 73.905 1.17692 -1.04816 0
M  V30 813 C 74.855 2.1952 -0.616042 0
M  V30 814 C 75.839 1.57147 0.345485 0
M  V30 815 O 77.031 1.76245 0.163325 0
M  V30 816 C 74.16 3.43298 0.0116917 0
M  V30 817 C 73.246 4.12777 -0.973435 0
M  V30 818 N 73.637 4.5814 -2.14339 0
M  V30 819 C 71.935 4.38747 -0.80108 0
M  V30 820 C 72.636 5.11713 -2.7663 0
M  V30 821 N 71.612 5.03686 -2.04453 0
M  V30 822 H 75.414 2.52293 -1.5075 0
M  V30 823 H 72.928 1.3398 -0.917776 0
M  V30 824 H 74.925 4.15519 0.339006 0
M  V30 825 H 73.585 3.12018 0.898593 0
M  V30 826 H 74.596 4.52349 -2.52191 0
M  V30 827 H 71.273 4.17485 0.0350934 0
M  V30 828 H 72.663 5.56962 -3.75823 0
M  V30 829 N 75.3831 0.828654 1.34056 0
M  V30 830 C 76.6081 0.431637 2.02859 0
M  V30 831 C 77.0331 -0.956339 1.61975 0
M  V30 832 O 76.3911 -1.62338 0.807228 0
M  V30 833 C 76.4391 0.548323 3.56407 0
M  V30 834 O 75.5431 -0.429556 4.10157 0
M  V30 835 H 74.8841 0.176886 0.640006 0
M  V30 836 H 77.4141 1.12066 1.71179 0
M  V30 837 H 77.4241 0.426196 4.05768 0
M  V30 838 H 76.0991 1.5606 3.8551 0
M  V30 839 H 74.6761 -0.265836 3.71951 0
M  V30 840 N 76.8612 -1.46375 0.584142 0
M  V30 841 C 78.0862 -2.07268 0.0740405 0
M  V30 842 C 78.5112 -1.42979 -1.22223 0
M  V30 843 O 77.8692 -0.514092 -1.73859 0
M  V30 844 C 77.9172 -3.60518 -0.0767769 0
M  V30 845 O 77.0212 -3.96533 -1.13292 0
M  V30 846 H 76.3622 -0.660961 0.0634524 0
M  V30 847 H 78.8922 -1.87991 0.807492 0
M  V30 848 H 78.9022 -4.07021 -0.282489 0
M  V30 849 H 77.5772 -4.06702 0.86986 0
M  V30 850 H 76.1542 -3.61738 -0.905553 0
M  V30 851 N 78.3393 -0.321999 -1.54275 0
M  V30 852 C 79.2873 0.560206 -2.25753 0
M  V30 853 C 80.2813 1.11984 -1.27106 0
M  V30 854 O 81.4873 1.06806 -1.44888 0
M  V30 855 H 77.8623 0.199304 -0.725108 0
M  V30 856 H 79.8333 -0.0649365 -2.98329 0
M  V30 857 C 78.5823 1.71023 -3.02731 0
M  V30 858 H 77.9053 1.28885 -3.78456 0
M  V30 859 H 79.3453 2.30314 -3.55993 0
M  V30 860 C 77.8043 2.62692 -2.10938 0
M  V30 861 O 78.3343 3.64364 -1.6912 0
M  V30 862 N 76.5403 2.30891 -1.76459 0
M  V30 863 H 76.0873 1.48253 -2.10663 0
M  V30 864 H 76.0453 2.92487 -1.1532 0
M  V30 865 N 79.8174 1.5752 -0.0501392 0
M  V30 866 C 80.7654 2.12651 0.942459 0
M  V30 867 C 81.7594 1.05807 1.32292 0
M  V30 868 O 82.9654 1.24217 1.3027 0
M  V30 869 H 79.3404 0.679673 0.321789 0
M  V30 870 H 81.3114 2.94951 0.452356 0
M  V30 871 C 80.0604 2.68565 2.20836 0
M  V30 872 H 79.3834 3.50439 1.92439 0
M  V30 873 H 80.8234 3.10761 2.8845 0
M  V30 874 C 79.2824 1.62291 2.95234 0
M  V30 875 O 79.8124 1.03508 3.88135 0
M  V30 876 N 78.0184 1.33836 2.57946 0
M  V30 877 H 77.5654 1.81826 1.82475 0
M  V30 878 H 77.5234 0.629595 3.08032 0
M  V30 879 N 81.2955 -0.223234 1.56011 0
M  V30 880 C 82.5425 -0.947875 1.78946 0
M  V30 881 C 82.8705 -1.844 0.618608 0
M  V30 882 O 82.1255 -1.91629 -0.397093 0
M  V30 883 C 82.4245 -1.81948 3.0762 0
M  V30 884 C 82.0905 -1.07672 4.37856 0
M  V30 885 C 80.7525 -0.871544 4.73242 0
M  V30 886 C 83.1045 -0.552081 5.18268 0
M  V30 887 C 80.4325 -0.129791 5.86556 0
M  V30 888 C 82.7845 0.17632 6.32354 0
M  V30 889 C 81.4485 0.39277 6.66343 0
M  V30 890 H 80.7185 -0.346852 0.654809 0
M  V30 891 H 83.3655 -0.216171 1.90276 0
M  V30 892 H 81.6705 -2.61899 2.91404 0
M  V30 893 H 83.3675 -2.38227 3.22566 0
M  V30 894 H 79.9575 -1.24662 4.1007 0
M  V30 895 H 84.1415 -0.698076 4.91366 0
M  V30 896 H 79.3975 0.048153 6.11381 0
M  V30 897 H 83.5715 0.590367 6.93893 0
M  V30 898 H 81.1985 0.969466 7.53993 0
M  V30 899 N 82.7736 -1.49793 -0.48987 0
M  V30 900 C 84.0216 -1.59525 -1.24081 0
M  V30 901 C 84.3426 -0.288953 -1.92847 0
M  V30 902 O 83.6126 0.692436 -1.83254 0
M  V30 903 H 82.1926 -0.587796 -0.460983 0
M  V30 904 H 84.8546 -1.86477 -0.566778 0
M  V30 905 H 83.9506 -2.39696 -1.99881 0
M  V30 906 N 84.2517 0.741722 -1.39055 0
M  V30 907 C 85.2147 1.83733 -1.37021 0
M  V30 908 C 86.2147 1.58542 -0.268534 0
M  V30 909 O 87.4047 1.66067 -0.526076 0
M  V30 910 C 84.5367 3.2141 -1.13617 0
M  V30 911 H 85.7297 1.86941 -2.34506 0
M  V30 912 H 83.2827 0.944676 -1.24521 0
M  V30 913 H 84.0177 3.23865 -0.167863 0
M  V30 914 H 83.8027 3.4109 -1.93391 0
M  V30 915 H 85.2927 4.01477 -1.14918 0
M  V30 916 N 85.7298 1.2412 0.971189 0
M  V30 917 C 86.9788 1.07284 1.70801 0
M  V30 918 C 87.2918 -0.388902 1.91695 0
M  V30 919 O 88.4978 -0.677379 2.62914 0
M  V30 920 C 86.9538 1.87145 3.07416 0
M  V30 921 C 86.5618 3.37707 2.94377 0
M  V30 922 C 88.3058 1.78828 3.84995 0
M  V30 923 C 86.2128 4.09925 4.26281 0
M  V30 924 H 85.1428 0.397854 0.64049 0
M  V30 925 H 87.7938 1.4817 1.0825 0
M  V30 926 H 86.1758 1.39071 3.70777 0
M  V30 927 H 87.3498 3.93335 2.4005 0
M  V30 928 H 85.6648 3.46938 2.30267 0
M  V30 929 H 88.2618 2.30089 4.82662 0
M  V30 930 H 88.6048 0.75284 4.09436 0
M  V30 931 H 89.1378 2.24563 3.28354 0
M  V30 932 H 85.8768 5.13813 4.07033 0
M  V30 933 H 85.3968 3.59083 4.80437 0
M  V30 934 H 87.0758 4.1673 4.94919 0
M  V30 935 N 87.2079 -1.17134 1.05439 0
M  V30 936 C 88.1379 -2.2342 0.678649 0
M  V30 937 C 89.1189 -1.66971 -0.32476 0
M  V30 938 O 90.3039 -1.93149 -0.201802 0
M  V30 939 C 87.4339 -3.47256 0.0552099 0
M  V30 940 C 86.3879 -4.16543 0.98365 0
M  V30 941 C 85.7139 -5.34231 0.223961 0
M  V30 942 C 87.0139 -4.68495 2.3089 0
M  V30 943 H 88.7079 -2.55105 1.56722 0
M  V30 944 H 86.2539 -1.2262 0.754998 0
M  V30 945 H 88.2069 -4.20828 -0.21946 0
M  V30 946 H 86.9309 -3.14846 -0.868319 0
M  V30 947 H 85.5899 -3.44887 1.24293 0
M  V30 948 H 85.2379 -4.98071 -0.702412 0
M  V30 949 H 84.9379 -5.81527 0.842627 0
M  V30 950 H 86.4619 -6.10585 -0.0433671 0
M  V30 951 H 87.8759 -5.33691 2.09396 0
M  V30 952 H 86.2729 -5.26379 2.88176 0
M  V30 953 H 87.3429 -3.85169 2.94572 0
M  V30 954 N 88.686 -0.835752 -1.33615 0
M  V30 955 C 89.911 -0.442389 -2.02627 0
M  V30 956 C 90.336 0.947735 -1.62479 0
M  V30 957 O 89.694 1.61907 -0.815826 0
M  V30 958 C 89.742 -0.567216 -3.56111 0
M  V30 959 O 88.846 0.407799 -4.10379 0
M  V30 960 H 88.187 -0.180278 -0.639059 0
M  V30 961 H 90.717 -1.12972 -1.70583 0
M  V30 962 H 90.727 -0.447708 -4.05536 0
M  V30 963 H 89.402 -1.58103 -3.84677 0
M  V30 964 H 87.979 0.246107 -3.72087 0
M  V30 965 N 90.1641 1.46063 -0.591896 0
M  V30 966 C 91.3891 2.07226 -0.0850314 0
M  V30 967 C 91.8141 1.43625 1.21463 0
M  V30 968 O 91.1721 0.523305 1.73583 0
M  V30 969 C 91.2201 3.60554 0.0576567 0
M  V30 970 O 90.3241 3.97128 1.11188 0
M  V30 971 H 89.6651 0.660615 -0.0669568 0
M  V30 972 H 92.1951 1.8756 -0.81745 0
M  V30 973 H 92.2051 4.07165 0.2609 0
M  V30 974 H 90.8801 4.06235 -0.891416 0
M  V30 975 H 89.4571 3.62213 0.886356 0
M  V30 976 N 91.6422 0.330177 1.54103 0
M  V30 977 C 92.8702 -0.272179 2.05102 0
M  V30 978 C 93.2852 -1.45267 1.20595 0
M  V30 979 O 92.6422 -1.8094 0.238144 0
M  V30 980 C 92.6932 -0.70023 3.54653 0
M  V30 981 O 92.4142 0.433301 4.35952 0
M  V30 982 C 93.9152 -1.3647 4.21771 0
M  V30 983 H 91.1352 -0.0549159 0.668749 0
M  V30 984 H 93.6792 0.478285 1.98828 0
M  V30 985 H 91.8342 -1.40066 3.61193 0
M  V30 986 H 92.2482 0.0947539 5.24414 0
M  V30 987 H 93.7222 -1.61509 5.27843 0
M  V30 988 H 94.1992 -2.31409 3.73292 0
M  V30 989 H 94.8052 -0.706675 4.19388 0
M  V30 990 N 93.1203 -1.57491 0.0584922 0
M  V30 991 C 94.0683 -2.13148 -0.931168 0
M  V30 992 C 95.0623 -1.06507 -1.31729 0
M  V30 993 O 96.2683 -1.24906 -1.29609 0
M  V30 994 H 92.6433 -0.68137 -0.31818 0
M  V30 995 H 94.6143 -2.95187 -0.436707 0
M  V30 996 C 93.3633 -2.69732 -2.19408 0
M  V30 997 H 92.6863 -3.51454 -1.90578 0
M  V30 998 H 94.1263 -3.12287 -2.86798 0
M  V30 999 C 92.5853 -1.63855 -2.94369 0
M  V30 1000 O 93.1153 -1.05565 -3.87581 0
M  V30 1001 N 91.3213 -1.35202 -2.57233 0
M  V30 1002 H 90.8683 -1.82791 -1.81508 0
M  V30 1003 H 90.8263 -0.645922 -3.07693 0
M  V30 1004 N 94.5984 0.214957 -1.56127 0
M  V30 1005 C 95.8444 0.939762 -1.79712 0
M  V30 1006 C 96.1774 1.83723 -0.629247 0
M  V30 1007 O 95.4524 1.90925 0.371197 0
M  V30 1008 C 95.7354 1.77306 -3.13424 0
M  V30 1009 C 95.5884 0.90164 -4.40671 0
M  V30 1010 C 96.9074 2.74956 -3.43638 0
M  V30 1011 H 94.0264 0.340214 -0.653776 0
M  V30 1012 H 96.6684 0.20824 -1.88855 0
M  V30 1013 H 94.8184 2.39673 -3.0576 0
M  V30 1014 H 96.4904 0.294206 -4.60361 0
M  V30 1015 H 94.7334 0.207368 -4.33304 0
M  V30 1016 H 95.4044 1.51923 -5.30682 0
M  V30 1017 H 97.8804 2.22724 -3.51473 0
M  V30 1018 H 96.7564 3.30358 -4.38355 0
M  V30 1019 H 97.0174 3.53023 -2.66134 0
M  V30 1020 N 96.0765 1.50051 0.48192 0
M  V30 1021 C 97.3245 1.60181 1.23234 0
M  V30 1022 C 97.6455 0.299176 1.92691 0
M  V30 1023 O 96.9155 -0.682708 1.83619 0
M  V30 1024 H 95.4955 0.590232 0.457859 0
M  V30 1025 H 98.1575 1.86775 0.556881 0
M  V30 1026 H 97.2535 2.40753 1.98607 0
M  V30 1027 N 97.5546 -0.734337 1.39446 0
M  V30 1028 C 98.7796 -1.52866 1.40167 0
M  V30 1029 C 99.2046 -1.881 -0.00171513 0
M  V30 1030 O 98.5626 -1.51957 -0.988879 0
M  V30 1031 C 98.6106 -2.79235 2.28167 0
M  V30 1032 O 97.7146 -3.75185 1.71201 0
M  V30 1033 H 97.0556 -0.461618 0.477289 0
M  V30 1034 H 99.5856 -0.905949 1.8345 0
M  V30 1035 H 99.5956 -3.27963 2.42702 0
M  V30 1036 H 98.2706 -2.52923 3.30156 0
M  V30 1037 H 96.8476 -3.33958 1.65912 0
M  V30 1038 N 99.0327 -1.24633 -0.964593 0
M  V30 1039 C 99.9807 -1.03917 -2.08096 0
M  V30 1040 C 100.975 0.0268581 -1.69379 0
M  V30 1041 O 102.181 -0.127952 -1.79545 0
M  V30 1042 H 98.5557 -0.319044 -0.680966 0
M  V30 1043 H 100.527 -1.98581 -2.22729 0
M  V30 1044 C 99.2757 -0.663983 -3.41301 0
M  V30 1045 H 98.5987 -1.47605 -3.71555 0
M  V30 1046 H 100.039 -0.558663 -4.20303 0
M  V30 1047 C 98.4977 0.629169 -3.30973 0
M  V30 1048 O 99.0277 1.67404 -3.65156 0
M  V30 1049 N 97.2337 0.611057 -2.84103 0
M  V30 1050 H 96.7807 -0.239593 -2.56483 0
M  V30 1051 H 96.7387 1.47647 -2.77575 0
M  V30 1052 N 100.511 1.16574 -1.06058 0
M  V30 1053 C 101.739 1.90952 -0.796552 0
M  V30 1054 C 102.154 1.77302 0.648808 0
M  V30 1055 O 101.511 1.11605 1.44397 0
M  V30 1056 C 101.562 3.41736 -1.17894 0
M  V30 1057 O 101.283 3.54975 -2.56758 0
M  V30 1058 C 102.784 4.33169 -0.942308 0
M  V30 1059 H 100.004 0.605594 -0.288959 0
M  V30 1060 H 102.548 1.47777 -1.41358 0
M  V30 1061 H 100.703 3.82623 -0.606491 0
M  V30 1062 H 101.117 4.4846 -2.72 0
M  V30 1063 H 102.591 5.37439 -1.25952 0
M  V30 1064 H 103.068 4.3903 0.122078 0
M  V30 1065 H 103.674 3.98007 -1.49902 0
M  V30 1066 N 101.989 0.842826 1.3317 0
M  V30 1067 C 103.219 0.453397 2.01564 0
M  V30 1068 C 103.627 -0.951147 1.63554 0
M  V30 1069 O 102.97 -1.63021 0.846746 0
M  V30 1070 C 103.032 0.499013 3.5602 0
M  V30 1071 C 102.696 1.86037 4.1742 0
M  V30 1072 C 103.693 2.82416 4.36506 0
M  V30 1073 C 101.378 2.15428 4.53757 0
M  V30 1074 C 103.372 4.06346 4.91082 0
M  V30 1075 C 101.059 3.39615 5.0804 0
M  V30 1076 C 102.057 4.3489 5.26649 0
M  V30 1077 O 101.745 5.5688 5.79776 0
M  V30 1078 H 101.477 0.177871 0.652179 0
M  V30 1079 H 104.031 1.13808 1.70988 0
M  V30 1080 H 102.261 -0.242467 3.85939 0
M  V30 1081 H 103.95 0.126852 4.05702 0
M  V30 1082 H 104.716 2.6101 4.08777 0
M  V30 1083 H 100.595 1.42061 4.38565 0
M  V30 1084 H 104.139 4.80722 5.05522 0
M  V30 1085 H 100.036 3.60876 5.352 0
M  V30 1086 H 100.804 5.58674 5.98185 0
M  V30 1087 N 103.467 -1.45747 0.599634 0
M  V30 1088 C 104.715 -2.01893 0.0915472 0
M  V30 1089 C 105.036 -1.47155 -1.27946 0
M  V30 1090 O 104.306 -0.66273 -1.84349 0
M  V30 1091 H 102.886 -0.746363 0.0308524 0
M  V30 1092 H 105.548 -1.78645 0.779237 0
M  V30 1093 H 104.644 -3.1208 0.0353086 0
M  V30 1094 N 104.945 -0.338344 -1.53925 0
M  V30 1095 C 105.892 0.520845 -2.24846 0
M  V30 1096 C 106.862 1.09976 -1.24477 0
M  V30 1097 O 108.047 1.13735 -1.53196 0
M  V30 1098 C 105.187 1.6685 -3.02084 0
M  V30 1099 C 104.3 1.11739 -4.17299 0
M  V30 1100 C 103.435 2.23193 -4.82036 0
M  V30 1101 C 102.474 1.65407 -5.89328 0
M  V30 1102 N 101.611 2.70582 -6.47866 0
M  V30 1103 H 106.451 -0.0904881 -2.97863 0
M  V30 1104 H 103.988 -0.0564282 -1.46992 0
M  V30 1105 H 105.946 2.34407 -3.45122 0
M  V30 1106 H 104.576 2.2509 -2.31375 0
M  V30 1107 H 103.628 0.332919 -3.7894 0
M  V30 1108 H 104.94 0.654677 -4.94485 0
M  V30 1109 H 104.094 2.98626 -5.28117 0
M  V30 1110 H 102.833 2.72807 -4.04262 0
M  V30 1111 H 101.838 0.884779 -5.42634 0
M  V30 1112 H 103.063 1.16652 -6.69006 0
M  V30 1113 H 101.009 3.1946 -5.72959 0
M  V30 1114 H 100.926 2.28917 -7.20509 0
M  V30 1115 H 102.194 3.45799 -6.98601 0
M  V30 1116 N 106.423 1.57458 -0.0668435 0
M  V30 1117 C 107.839 1.56947 0.289772 0
M  V30 1118 C 108.039 1.07584 1.70376 0
M  V30 1119 O 107.095 0.739486 2.41429 0
M  V30 1120 C 108.408 3.0052 0.103943 0
M  V30 1121 C 109.956 3.12517 0.173857 0
M  V30 1122 C 110.431 4.57997 0.0163682 0
M  V30 1123 N 111.922 4.63144 0.0721352 0
M  V30 1124 C 112.657 5.73394 -0.0253794 0
M  V30 1125 N 112.153 6.92576 -0.176133 0
M  V30 1126 N 113.946 5.62091 0.0313305 0
M  V30 1127 H 106.097 1.87863 -0.991027 0
M  V30 1128 H 108.36 0.86583 -0.38606 0
M  V30 1129 H 108.066 3.40729 -0.871572 0
M  V30 1130 H 107.94 3.67304 0.858366 0
M  V30 1131 H 110.327 2.72197 1.13985 0
M  V30 1132 H 110.408 2.48381 -0.611586 0
M  V30 1133 H 110.052 4.99005 -0.946374 0
M  V30 1134 H 109.982 5.20158 0.821153 0
M  V30 1135 H 112.473 3.77436 0.187263 0
M  V30 1136 H 112.786 7.72418 -0.242821 0
M  V30 1137 H 111.131 6.94678 -0.211429 0
M  V30 1138 H 114.322 4.67867 0.147773 0
M  V30 1139 H 114.495 6.47982 -0.048121 0
M  V30 1140 N 107.901 -0.206675 1.56239 0
M  V30 1141 C 108.849 -1.27571 1.94495 0
M  V30 1142 C 109.843 -1.47737 0.828862 0
M  V30 1143 O 111.049 -1.48735 1.0138 0
M  V30 1144 H 107.424 -0.428029 0.6183 0
M  V30 1145 H 109.395 -0.925961 2.8367 0
M  V30 1146 C 108.144 -2.61568 2.29079 0
M  V30 1147 H 107.467 -2.46863 3.14482 0
M  V30 1148 H 108.907 -3.35144 2.5972 0
M  V30 1149 C 107.366 -3.17695 1.12123 0
M  V30 1150 O 107.896 -3.99801 0.390153 0
M  V30 1151 N 106.102 -2.76276 0.901097 0
M  V30 1152 H 105.649 -2.09613 1.49733 0
M  V30 1153 H 105.607 -3.1417 0.120319 0
M  V30 1154 N 109.379 -1.50304 -0.473955 0
M  V30 1155 C 110.342 -1.6841 -1.55469 0
M  V30 1156 C 111.342 -0.554905 -1.50922 0
M  V30 1157 O 112.532 -0.821882 -1.53593 0
M  V30 1158 C 109.664 -1.70667 -2.95102 0
M  V30 1159 H 110.857 -2.64828 -1.40733 0
M  V30 1160 H 108.41 -1.39742 -0.700132 0
M  V30 1161 H 109.145 -0.75932 -3.15285 0
M  V30 1162 H 108.93 -2.52698 -2.9981 0
M  V30 1163 H 110.42 -1.8664 -3.73571 0
M  V30 1164 N 110.857 0.726932 -1.39834 0
M  V30 1165 C 112.103 1.48884 -1.377 0
M  V30 1166 C 112.436 1.94185 0.0244852 0
M  V30 1167 O 111.711 1.67361 0.990986 0
M  V30 1168 C 111.994 2.72288 -2.3565 0
M  V30 1169 C 111.847 2.32956 -3.84775 0
M  V30 1170 C 113.166 3.74414 -2.31306 0
M  V30 1171 H 110.285 0.540062 -0.5015 0
M  V30 1172 H 112.927 0.830547 -1.70886 0
M  V30 1173 H 111.077 3.28457 -2.07481 0
M  V30 1174 H 112.749 1.82356 -4.23726 0
M  V30 1175 H 110.992 1.65088 -4.01159 0
M  V30 1176 H 111.663 3.21362 -4.4881 0
M  V30 1177 H 114.139 3.27849 -2.56231 0
M  V30 1178 H 113.015 4.58414 -3.01907 0
M  V30 1179 H 113.276 4.21909 -1.32081 0
M  V30 1180 N 112.336 1.25143 0.95797 0
M  V30 1181 C 113.246 1.06968 2.08794 0
M  V30 1182 C 114.262 0.00773911 1.73998 0
M  V30 1183 O 115.438 0.207972 2.00323 0
M  V30 1184 C 112.503 0.68691 3.39827 0
M  V30 1185 C 111.564 1.82641 3.88511 0
M  V30 1186 C 110.797 1.46181 5.1329 0
M  V30 1187 O 111.02 0.355971 5.69288 0
M  V30 1188 O 109.954 2.29085 5.566 0
M  V30 1189 H 113.78 2.01723 2.27027 0
M  V30 1190 H 111.365 1.04051 1.07209 0
M  V30 1191 H 113.247 0.485417 4.18595 0
M  V30 1192 H 111.922 -0.231417 3.22872 0
M  V30 1193 H 110.829 2.08274 3.10762 0
M  V30 1194 H 112.162 2.72386 4.09959 0
M  V30 1195 N 113.814 -1.1601 1.06675 0
M  V30 1196 C 115.06 -1.86909 0.786945 0
M  V30 1197 C 115.393 -1.81717 -0.685018 0
M  V30 1198 O 114.668 -1.23551 -1.50218 0
M  V30 1199 C 114.951 -3.36313 1.28707 0
M  V30 1200 C 114.804 -3.50175 2.82308 0
M  V30 1201 C 116.123 -4.3084 0.898071 0
M  V30 1202 H 113.242 -0.678677 0.287343 0
M  V30 1203 H 115.884 -1.36336 1.32334 0
M  V30 1204 H 114.034 -3.79513 0.830768 0
M  V30 1205 H 115.706 -3.15886 3.36175 0
M  V30 1206 H 113.949 -2.91959 3.20847 0
M  V30 1207 H 114.62 -4.55116 3.12368 0
M  V30 1208 H 117.096 -3.95561 1.29114 0
M  V30 1209 H 115.972 -5.33876 1.27543 0
M  V30 1210 H 116.233 -4.41662 -0.196651 0
M  V30 1211 N 115.292 -0.849877 -1.32721 0
M  V30 1212 C 116.222 -0.306308 -2.31482 0
M  V30 1213 C 117.203 0.591952 -1.59468 0
M  V30 1214 O 118.388 0.513199 -1.87296 0
M  V30 1215 C 115.518 0.510204 -3.43532 0
M  V30 1216 C 114.472 -0.293209 -4.26994 0
M  V30 1217 C 113.798 0.647743 -5.30762 0
M  V30 1218 C 115.098 -1.51634 -4.99804 0
M  V30 1219 H 116.792 -1.13153 -2.77195 0
M  V30 1220 H 114.338 -0.545553 -1.33266 0
M  V30 1221 H 116.291 0.900856 -4.11658 0
M  V30 1222 H 115.015 1.36874 -2.96535 0
M  V30 1223 H 113.674 -0.665555 -3.60508 0
M  V30 1224 H 113.322 1.50299 -4.8002 0
M  V30 1225 H 113.022 0.11422 -5.87489 0
M  V30 1226 H 114.546 1.03567 -6.01753 0
M  V30 1227 H 115.96 -1.19824 -5.60638 0
M  V30 1228 H 114.357 -1.98745 -5.66234 0
M  V30 1229 H 115.427 -2.28018 -4.27943 0
M  V30 1230 N 116.77 1.45427 -0.607355 0
M  V30 1231 C 117.717 2.3053 0.111625 0
M  V30 1232 C 118.687 1.4209 0.860216 0
M  V30 1233 O 119.872 1.71019 0.845998 0
M  V30 1234 C 117.012 3.26992 1.10319 0
M  V30 1235 C 116.125 4.30535 0.355493 0
M  V30 1236 C 115.26 5.14105 1.33676 0
M  V30 1237 C 114.299 6.09376 0.576862 0
M  V30 1238 N 113.436 6.85727 1.5074 0
M  V30 1239 H 118.276 2.91477 -0.620093 0
M  V30 1240 H 115.813 1.43631 -0.317594 0
M  V30 1241 H 117.771 3.81385 1.6912 0
M  V30 1242 H 116.401 2.67799 1.80232 0
M  V30 1243 H 115.453 3.78805 -0.348023 0
M  V30 1244 H 116.765 4.98235 -0.237423 0
M  V30 1245 H 115.919 5.72897 1.99684 0
M  V30 1246 H 114.658 4.46423 1.9636 0
M  V30 1247 H 113.663 5.49715 -0.0968519 0
M  V30 1248 H 114.888 6.79085 -0.0449341 0
M  V30 1249 H 112.834 6.20735 2.12189 0
M  V30 1250 H 112.751 7.49778 0.967913 0
M  V30 1251 H 114.019 7.4906 2.15706 0
M  V30 1252 N 118.248 0.346503 1.53744 0
M  V30 1253 C 119.664 -0.00530975 1.59599 0
M  V30 1254 C 119.864 -1.48465 1.36236 0
M  V30 1255 O 118.92 -2.24376 1.15808 0
M  V30 1256 C 120.233 0.433516 2.97559 0
M  V30 1257 C 121.781 0.386111 3.10609 0
M  V30 1258 C 122.256 0.800451 4.50951 0
M  V30 1259 N 123.747 0.754753 4.5701 0
M  V30 1260 C 124.482 1.04727 5.63755 0
M  V30 1261 N 123.978 1.4081 6.7834 0
M  V30 1262 N 125.771 0.971316 5.53644 0
M  V30 1263 H 117.922 1.31009 1.67184 0
M  V30 1264 H 120.185 0.534242 0.783128 0
M  V30 1265 H 119.891 1.46509 3.19731 0
M  V30 1266 H 119.765 -0.189753 3.76722 0
M  V30 1267 H 122.152 -0.636295 2.88158 0
M  V30 1268 H 122.233 1.04462 2.33498 0
M  V30 1269 H 121.877 1.82088 4.74137 0
M  V30 1270 H 121.807 0.119386 5.26465 0
M  V30 1271 H 124.298 0.488662 3.74727 0
M  V30 1272 H 124.611 1.61607 7.55714 0
M  V30 1273 H 122.956 1.44657 6.79779 0
M  V30 1274 H 126.147 0.688748 4.63005 0
M  V30 1275 H 126.32 1.20263 6.36742 0
M  V30 1276 N 119.726 -1.57421 0.075193 0
M  V30 1277 C 120.636 -2.1642 -0.905511 0
M  V30 1278 C 121.652 -1.12828 -1.32461 0
M  V30 1279 O 122.828 -1.45109 -1.39661 0
M  V30 1280 C 119.893 -2.71693 -2.15369 0
M  V30 1281 C 118.954 -3.90171 -1.79068 0
M  V30 1282 C 118.187 -4.42798 -2.97936 0
M  V30 1283 O 118.41 -3.94416 -4.12058 0
M  V30 1284 O 117.344 -5.34085 -2.77555 0
M  V30 1285 H 121.17 -3.00588 -0.433626 0
M  V30 1286 H 118.755 -1.48664 -0.148067 0
M  V30 1287 H 120.637 -3.07104 -2.88557 0
M  V30 1288 H 119.312 -1.90582 -2.61649 0
M  V30 1289 H 118.219 -3.59606 -1.03122 0
M  V30 1290 H 119.552 -4.72584 -1.37569 0
M  V30 1291 N 121.204 0.198386 -1.56346 0
M  V30 1292 C 122.615 0.763358 -1.70381 0
M  V30 1293 C 122.966 1.83995 -0.681203 0
M  V30 1294 O 122.091 2.15785 0.16305 0
M  V30 1295 C 122.686 1.39143 -3.08909 0
M  V30 1296 C 121.245 1.90352 -3.2472 0
M  V30 1297 C 120.392 0.772233 -2.6633 0
M  V30 1298 H 123.343 -0.0266377 -1.58678 0
M  V30 1299 H 123.364 2.26076 -3.06055 0
M  V30 1300 H 122.876 0.607638 -3.83314 0
M  V30 1301 H 120.977 2.71461 -2.55225 0
M  V30 1302 H 121.09 2.06757 -4.3219 0
M  V30 1303 H 119.454 1.18566 -2.2542 0
M  V30 1304 H 120.237 0.00073556 -3.433 0
M  V30 1305 N 122.682 1.50554 0.465978 0
M  V30 1306 C 123.612 1.72722 1.57128 0
M  V30 1307 C 124.593 0.576294 1.6004 0
M  V30 1308 O 125.778 0.81598 1.76225 0
M  V30 1309 C 122.908 1.82605 2.95419 0
M  V30 1310 C 121.862 2.97835 3.07373 0
M  V30 1311 C 121.188 2.92867 4.47363 0
M  V30 1312 C 122.488 4.38265 2.84114 0
M  V30 1313 H 124.182 2.65267 1.38829 0
M  V30 1314 H 121.728 1.2765 0.666441 0
M  V30 1315 H 123.681 1.96698 3.72677 0
M  V30 1316 H 122.405 0.866858 3.14886 0
M  V30 1317 H 121.064 2.83401 2.3255 0
M  V30 1318 H 120.712 1.94783 4.63755 0
M  V30 1319 H 120.412 3.70227 4.56296 0
M  V30 1320 H 121.936 3.09015 5.26633 0
M  V30 1321 H 123.35 4.53198 3.51118 0
M  V30 1322 H 121.747 5.17115 3.04487 0
M  V30 1323 H 122.817 4.50281 1.7993 0
M  V30 1324 N 124.16 -0.719506 1.40217 0
M  V30 1325 C 125.108 -1.85493 1.40339 0
M  V30 1326 C 126.102 -1.66995 0.284415 0
M  V30 1327 O 127.308 -1.74148 0.455252 0
M  V30 1328 H 123.683 -0.610857 0.438586 0
M  V30 1329 H 125.654 -1.82506 2.36081 0
M  V30 1330 C 124.403 -3.23321 1.27901 0
M  V30 1331 H 123.726 -3.38159 2.1328 0
M  V30 1332 H 125.166 -4.02914 1.32045 0
M  V30 1333 C 123.625 -3.36898 -0.0111355 0
M  V30 1334 O 124.155 -3.89674 -0.975538 0
M  V30 1335 N 122.361 -2.90492 -0.0793393 0
M  V30 1336 H 121.908 -2.47731 0.706183 0
M  V30 1337 H 121.866 -2.99955 -0.942038 0
M  V30 1338 N 125.638 -1.25649 -0.95132 0
M  V30 1339 C 126.868 -1.13179 -1.72841 0
M  V30 1340 C 127.276 0.316827 -1.86528 0
M  V30 1341 O 126.619 1.22948 -1.3649 0
M  V30 1342 C 126.681 -1.71644 -3.15878 0
M  V30 1343 C 126.345 -3.20667 -3.25609 0
M  V30 1344 C 127.342 -4.17616 -3.09666 0
M  V30 1345 C 125.027 -3.6094 -3.49324 0
M  V30 1346 C 127.021 -5.52817 -3.17289 0
M  V30 1347 C 124.708 -4.96278 -3.56584 0
M  V30 1348 C 125.706 -5.92025 -3.40581 0
M  V30 1349 O 125.394 -7.24899 -3.47528 0
M  V30 1350 H 125.126 -0.395389 -0.54831 0
M  V30 1351 H 127.68 -1.66566 -1.20187 0
M  V30 1352 H 125.91 -1.12707 -3.69911 0
M  V30 1353 H 127.599 -1.54225 -3.75459 0
M  V30 1354 H 128.365 -3.87842 -2.91211 0
M  V30 1355 H 124.244 -2.86907 -3.6084 0
M  V30 1356 H 127.788 -6.2753 -3.04716 0
M  V30 1357 H 123.685 -5.25716 -3.74556 0
M  V30 1358 H 124.453 -7.33039 -3.64138 0
M  V30 1359 N 127.117 1.15442 -1.07289 0
M  V30 1360 C 128.047 2.22312 -0.714107 0
M  V30 1361 C 129.028 1.67467 0.298155 0
M  V30 1362 O 130.213 1.93445 0.171048 0
M  V30 1363 C 127.343 3.47124 -0.110448 0
M  V30 1364 C 126.297 4.14926 -1.04979 0
M  V30 1365 C 125.623 5.33807 -0.308924 0
M  V30 1366 C 126.923 4.64762 -2.38314 0
M  V30 1367 H 128.617 2.5258 -1.6076 0
M  V30 1368 H 126.163 1.21404 -0.77441 0
M  V30 1369 H 128.116 4.21124 0.152482 0
M  V30 1370 H 126.84 3.16187 0.81812 0
M  V30 1371 H 125.499 3.42866 -1.29764 0
M  V30 1372 H 125.147 4.99126 0.623084 0
M  V30 1373 H 124.847 5.80113 -0.935036 0
M  V30 1374 H 126.371 6.10576 -0.0537771 0
M  V30 1375 H 127.785 5.30292 -2.1786 0
M  V30 1376 H 126.182 5.21728 -2.96514 0
M  V30 1377 H 127.252 3.80434 -3.00663 0
M  V30 1378 N 128.595 0.856903 1.32268 0
M  V30 1379 C 130.006 0.515711 1.79436 0
M  V30 1380 C 130.357 -0.966586 1.70738 0
M  V30 1381 O 129.482 -1.75409 1.26731 0
M  V30 1382 C 130.077 0.929335 3.25805 0
M  V30 1383 C 128.636 0.640006 3.70919 0
M  V30 1384 C 127.783 1.12784 2.53328 0
M  V30 1385 H 130.734 1.04389 1.19535 0
M  V30 1386 H 130.755 0.246633 3.797 0
M  V30 1387 H 130.267 2.00821 3.32103 0
M  V30 1388 H 128.368 -0.428051 3.70133 0
M  V30 1389 H 128.481 1.20788 4.63624 0
M  V30 1390 H 126.845 0.548033 2.48734 0
M  V30 1391 H 127.628 2.21387 2.62379 0
M  V30 1392 N 130.073 -1.45103 0.615059 0
M  V30 1393 C 131.003 -2.33339 -0.0865619 0
M  V30 1394 C 131.984 -1.4727 -0.851209 0
M  V30 1395 O 133.169 -1.76026 -0.820281 0
M  V30 1396 C 130.299 -3.30095 -1.07956 0
M  V30 1397 C 129.253 -4.25858 -0.427628 0
M  V30 1398 C 128.579 -5.12361 -1.5294 0
M  V30 1399 C 129.879 -5.18165 0.655944 0
M  V30 1400 H 131.573 -2.92254 0.650224 0
M  V30 1401 H 129.119 -1.40532 0.314138 0
M  V30 1402 H 131.072 -3.90698 -1.57901 0
M  V30 1403 H 129.796 -2.69355 -1.84703 0
M  V30 1404 H 128.455 -3.66564 0.0510292 0
M  V30 1405 H 128.103 -4.47984 -2.28734 0
M  V30 1406 H 127.803 -5.77238 -1.09865 0
M  V30 1407 H 129.327 -5.75833 -2.03098 0
M  V30 1408 H 130.741 -5.72796 0.240257 0
M  V30 1409 H 129.138 -5.91559 1.00888 0
M  V30 1410 H 130.208 -4.60144 1.52957 0
M  V30 1411 O 131.59 -0.496846 -1.53667 0
M  V30 1412 H 132.281 0.021856 -1.93688 0
M  V30 END ATOM
M  V30 BEGIN BOND
M  V30 END BOND
M  V30 END CTAB
M  END
$$$$
